IGF.pdb
     RDKit          3D

 24 24  0  0  1  0  0  0  0  0999 V2000
    7.4955  -12.2650   19.0105 C   0  0  0  0  0  0  0  0  0  0  0  0
    7.4675  -13.4543   19.9455 C   0  0  0  0  0  0  0  0  0  0  0  0
    8.2689  -14.6196   19.3926 C   0  0  2  0  0  0  0  0  0  0  0  0
    7.7356  -14.9813   18.0496 C   0  0  0  0  0  0  0  0  0  0  0  0
    8.1699  -15.7168   20.4311 C   0  0  2  0  0  0  0  0  0  0  0  0
    6.7190  -15.9680   20.5640 N   0  0  0  0  0  0  0  0  0  0  0  0
    8.6122  -15.2952   21.7786 C   0  0  0  0  0  0  0  0  0  0  0  0
    7.8321  -14.8445   22.6489 O   0  0  0  0  0  0  0  0  0  0  0  0
   10.0061  -15.3958   22.1426 N   0  0  0  0  0  0  0  0  0  0  0  0
   10.4890  -14.7324   23.3244 C   0  0  0  0  0  0  0  0  0  0  0  0
   10.2200  -15.5023   24.5506 C   0  0  0  0  0  0  0  0  0  0  0  0
   11.2200  -15.8866   25.2787 O   0  0  0  0  0  0  0  0  0  0  0  0
    8.9597  -15.8865   25.0469 N   0  0  0  0  0  0  0  0  0  0  0  0
    8.7566  -16.4985   26.3420 C   0  0  1  0  0  0  0  0  0  0  0  0
    7.4665  -15.9496   26.8967 C   0  0  0  0  0  0  0  0  0  0  0  0
    7.3670  -14.4901   26.9189 C   0  0  0  0  0  0  0  0  0  0  0  0
    6.4269  -13.8620   26.1326 C   0  0  0  0  0  0  0  0  0  0  0  0
    6.3087  -12.4783   26.1344 C   0  0  0  0  0  0  0  0  0  0  0  0
    7.1545  -11.7504   26.9416 C   0  0  0  0  0  0  0  0  0  0  0  0
    8.1035  -12.3531   27.7378 C   0  0  0  0  0  0  0  0  0  0  0  0
    8.1928  -13.7203   27.7115 C   0  0  0  0  0  0  0  0  0  0  0  0
    8.7212  -17.9643   26.3247 C   0  0  0  0  0  0  0  0  0  0  0  0
    8.8355  -18.7416   25.1848 O   0  0  0  0  0  0  0  0  0  0  0  0
    8.5767  -18.5955   27.3994 O   0  0  0  0  0  0  0  0  0  0  0  0
  2  1  1  0
  3  2  1  0
  3  5  1  0
  3  4  1  6
  5  6  1  1
  7  5  1  0
  7  9  1  0
  8  7  2  0
 10  9  1  0
 11 10  1  0
 12 11  2  0
 13 11  1  0
 14 22  1  0
 14 13  1  0
 15 16  1  0
 14 15  1  6
 16 21  2  0
 16 17  1  0
 17 18  2  0
 18 19  1  0
 20 19  2  0
 21 20  1  0
 22 23  1  0
 24 22  2  0
M  END
$$$$
