IGF.pdb
     RDKit          3D

 24 24  0  0  1  0  0  0  0  0999 V2000
    9.0749  -11.8127   18.8628 C   0  0  0  0  0  0  0  0  0  0  0  0
    8.4997  -13.0161   18.1482 C   0  0  0  0  0  0  0  0  0  0  0  0
    7.9249  -14.0255   19.1263 C   0  0  2  0  0  0  0  0  0  0  0  0
    6.9469  -13.3377   20.0146 C   0  0  0  0  0  0  0  0  0  0  0  0
    9.1151  -14.6300   19.8407 C   0  0  2  0  0  0  0  0  0  0  0  0
    9.9053  -15.2668   18.7656 N   0  0  0  0  0  0  0  0  0  0  0  0
    8.7544  -15.7333   20.7581 C   0  0  0  0  0  0  0  0  0  0  0  0
    8.8823  -16.9436   20.4619 O   0  0  0  0  0  0  0  0  0  0  0  0
    8.2266  -15.4357   22.0690 N   0  0  0  0  0  0  0  0  0  0  0  0
    7.9202  -16.5067   22.9795 C   0  0  0  0  0  0  0  0  0  0  0  0
    8.6490  -16.3867   24.2536 C   0  0  0  0  0  0  0  0  0  0  0  0
    9.8531  -15.9096   24.2417 O   0  0  0  0  0  0  0  0  0  0  0  0
    8.1781  -16.7411   25.5322 N   0  0  0  0  0  0  0  0  0  0  0  0
    8.9261  -16.5312   26.7527 C   0  0  1  0  0  0  0  0  0  0  0  0
    8.0392  -15.7518   27.6903 C   0  0  0  0  0  0  0  0  0  0  0  0
    7.5254  -14.4891   27.1590 C   0  0  0  0  0  0  0  0  0  0  0  0
    8.3030  -13.3549   27.2337 C   0  0  0  0  0  0  0  0  0  0  0  0
    7.8420  -12.1430   26.7363 C   0  0  0  0  0  0  0  0  0  0  0  0
    6.5886  -12.1037   26.1669 C   0  0  0  0  0  0  0  0  0  0  0  0
    5.7902  -13.2230   26.0793 C   0  0  0  0  0  0  0  0  0  0  0  0
    6.2764  -14.4022   26.5801 C   0  0  0  0  0  0  0  0  0  0  0  0
    9.3954  -17.7609   27.3992 C   0  0  0  0  0  0  0  0  0  0  0  0
   10.3335  -17.8076   28.4162 O   0  0  0  0  0  0  0  0  0  0  0  0
    8.9388  -18.8701   27.0310 O   0  0  0  0  0  0  0  0  0  0  0  0
  2  1  1  0
  3  2  1  0
  3  5  1  0
  3  4  1  1
  5  6  1  6
  7  5  1  0
  7  9  1  0
  8  7  2  0
 10  9  1  0
 11 10  1  0
 12 11  2  0
 13 11  1  0
 14 22  1  0
 14 13  1  0
 15 16  1  0
 14 15  1  1
 16 21  2  0
 16 17  1  0
 17 18  2  0
 18 19  1  0
 20 19  2  0
 21 20  1  0
 22 23  1  0
 24 22  2  0
M  END
$$$$
