IGF.pdb
     RDKit          3D

 24 24  0  0  1  0  0  0  0  0999 V2000
    7.6518  -11.9902   20.1372 C   0  0  0  0  0  0  0  0  0  0  0  0
    7.5949  -13.4999   20.2212 C   0  0  0  0  0  0  0  0  0  0  0  0
    8.8472  -14.1396   19.6481 C   0  0  2  0  0  0  0  0  0  0  0  0
    9.0116  -13.7022   18.2338 C   0  0  0  0  0  0  0  0  0  0  0  0
    8.6692  -15.6316   19.8341 C   0  0  2  0  0  0  0  0  0  0  0  0
    7.4814  -15.9650   19.0193 N   0  0  0  0  0  0  0  0  0  0  0  0
    8.3071  -16.0146   21.2166 C   0  0  0  0  0  0  0  0  0  0  0  0
    7.1625  -15.8507   21.6983 O   0  0  0  0  0  0  0  0  0  0  0  0
    9.2984  -16.6109   22.0811 N   0  0  0  0  0  0  0  0  0  0  0  0
    8.9205  -17.0873   23.3850 C   0  0  0  0  0  0  0  0  0  0  0  0
    9.5033  -16.2788   24.4692 C   0  0  0  0  0  0  0  0  0  0  0  0
   10.4688  -15.4620   24.1893 O   0  0  0  0  0  0  0  0  0  0  0  0
    9.1242  -16.2859   25.8251 N   0  0  0  0  0  0  0  0  0  0  0  0
    9.8287  -15.5638   26.8621 C   0  0  1  0  0  0  0  0  0  0  0  0
    8.7883  -14.9818   27.7852 C   0  0  0  0  0  0  0  0  0  0  0  0
    7.9213  -13.9660   27.1877 C   0  0  0  0  0  0  0  0  0  0  0  0
    6.6976  -14.3348   26.6745 C   0  0  0  0  0  0  0  0  0  0  0  0
    5.8532  -13.3920   26.1028 C   0  0  0  0  0  0  0  0  0  0  0  0
    6.2698  -12.0799   26.0618 C   0  0  0  0  0  0  0  0  0  0  0  0
    7.4885  -11.6838   26.5676 C   0  0  0  0  0  0  0  0  0  0  0  0
    8.2966  -12.6401   27.1246 C   0  0  0  0  0  0  0  0  0  0  0  0
   10.7897  -16.3702   27.6212 C   0  0  0  0  0  0  0  0  0  0  0  0
   11.7875  -15.8528   28.4294 O   0  0  0  0  0  0  0  0  0  0  0  0
   10.7373  -17.6223   27.5584 O   0  0  0  0  0  0  0  0  0  0  0  0
  2  1  1  0
  3  2  1  0
  3  5  1  0
  3  4  1  6
  5  6  1  6
  7  5  1  0
  7  9  1  0
  8  7  2  0
 10  9  1  0
 11 10  1  0
 12 11  2  0
 13 11  1  0
 14 22  1  0
 14 13  1  0
 15 16  1  0
 14 15  1  1
 16 21  2  0
 16 17  1  0
 17 18  2  0
 18 19  1  0
 20 19  2  0
 21 20  1  0
 22 23  1  0
 24 22  2  0
M  END
$$$$
