IGF.pdb
     RDKit          3D

 24 24  0  0  1  0  0  0  0  0999 V2000
    9.0764  -21.1673   18.0511 C   0  0  0  0  0  0  0  0  0  0  0  0
    8.9445  -19.6644   17.9361 C   0  0  0  0  0  0  0  0  0  0  0  0
    8.1840  -19.0779   19.1123 C   0  0  2  0  0  0  0  0  0  0  0  0
    6.8334  -18.6504   18.6520 C   0  0  0  0  0  0  0  0  0  0  0  0
    9.0541  -17.9613   19.6494 C   0  0  2  0  0  0  0  0  0  0  0  0
   10.2820  -18.6420   20.1129 N   0  0  0  0  0  0  0  0  0  0  0  0
    8.4981  -17.3080   20.8548 C   0  0  0  0  0  0  0  0  0  0  0  0
    8.3364  -17.9015   21.9460 O   0  0  0  0  0  0  0  0  0  0  0  0
    8.1130  -15.9170   20.8065 N   0  0  0  0  0  0  0  0  0  0  0  0
    7.5164  -15.2969   21.9595 C   0  0  0  0  0  0  0  0  0  0  0  0
    8.4274  -15.2676   23.1162 C   0  0  0  0  0  0  0  0  0  0  0  0
    9.6311  -14.8184   22.9518 O   0  0  0  0  0  0  0  0  0  0  0  0
    8.1381  -15.6844   24.4295 N   0  0  0  0  0  0  0  0  0  0  0  0
    9.0806  -15.6084   25.5246 C   0  0  1  0  0  0  0  0  0  0  0  0
    8.3114  -15.1687   26.7446 C   0  0  0  0  0  0  0  0  0  0  0  0
    7.6814  -13.8520   26.6448 C   0  0  0  0  0  0  0  0  0  0  0  0
    6.3333  -13.7633   26.3777 C   0  0  0  0  0  0  0  0  0  0  0  0
    5.7081  -12.5272   26.2788 C   0  0  0  0  0  0  0  0  0  0  0  0
    6.4695  -11.3930   26.4543 C   0  0  0  0  0  0  0  0  0  0  0  0
    7.8195  -11.4531   26.7223 C   0  0  0  0  0  0  0  0  0  0  0  0
    8.4040  -12.6892   26.8131 C   0  0  0  0  0  0  0  0  0  0  0  0
    9.7995  -16.8569   25.7979 C   0  0  0  0  0  0  0  0  0  0  0  0
    9.5632  -18.0592   25.1535 O   0  0  0  0  0  0  0  0  0  0  0  0
   10.6991  -16.8777   26.6723 O   0  0  0  0  0  0  0  0  0  0  0  0
  2  1  1  0
  3  2  1  0
  3  5  1  0
  3  4  1  6
  5  6  1  1
  7  5  1  0
  7  9  1  0
  8  7  2  0
 10  9  1  0
 11 10  1  0
 12 11  2  0
 13 11  1  0
 14 22  1  0
 14 13  1  0
 15 16  1  0
 14 15  1  1
 16 21  2  0
 16 17  1  0
 17 18  2  0
 18 19  1  0
 20 19  2  0
 21 20  1  0
 22 23  1  0
 24 22  2  0
M  END
$$$$
