IGF.pdb
     RDKit          3D

 24 24  0  0  1  0  0  0  0  0999 V2000
    8.6070  -12.1694   20.5156 C   0  0  0  0  0  0  0  0  0  0  0  0
    7.7947  -13.4353   20.3518 C   0  0  0  0  0  0  0  0  0  0  0  0
    8.5644  -14.4993   19.5894 C   0  0  2  0  0  0  0  0  0  0  0  0
    8.8321  -14.0084   18.2087 C   0  0  0  0  0  0  0  0  0  0  0  0
    7.7182  -15.7525   19.6642 C   0  0  2  0  0  0  0  0  0  0  0  0
    6.4809  -15.4054   18.9333 N   0  0  0  0  0  0  0  0  0  0  0  0
    7.2744  -16.0834   21.0363 C   0  0  0  0  0  0  0  0  0  0  0  0
    6.2769  -15.5580   21.5820 O   0  0  0  0  0  0  0  0  0  0  0  0
    8.0043  -17.0577   21.8133 N   0  0  0  0  0  0  0  0  0  0  0  0
    7.5755  -17.3778   23.1488 C   0  0  0  0  0  0  0  0  0  0  0  0
    8.4289  -16.7581   24.1766 C   0  0  0  0  0  0  0  0  0  0  0  0
    9.6157  -16.3587   23.8451 O   0  0  0  0  0  0  0  0  0  0  0  0
    8.0994  -16.5385   25.5277 N   0  0  0  0  0  0  0  0  0  0  0  0
    9.0126  -15.9751   26.4981 C   0  0  1  0  0  0  0  0  0  0  0  0
    8.1983  -15.1088   27.4255 C   0  0  0  0  0  0  0  0  0  0  0  0
    7.6537  -13.8909   26.8250 C   0  0  0  0  0  0  0  0  0  0  0  0
    6.3783  -13.9021   26.3056 C   0  0  0  0  0  0  0  0  0  0  0  0
    5.8347  -12.7606   25.7310 C   0  0  0  0  0  0  0  0  0  0  0  0
    6.6025  -11.6179   25.6936 C   0  0  0  0  0  0  0  0  0  0  0  0
    7.8808  -11.5790   26.2057 C   0  0  0  0  0  0  0  0  0  0  0  0
    8.3858  -12.7233   26.7654 C   0  0  0  0  0  0  0  0  0  0  0  0
    9.7753  -16.9657   27.2644 C   0  0  0  0  0  0  0  0  0  0  0  0
   10.9333  -16.6926   27.9721 O   0  0  0  0  0  0  0  0  0  0  0  0
    9.3833  -18.1569   27.3043 O   0  0  0  0  0  0  0  0  0  0  0  0
  2  1  1  0
  3  2  1  0
  3  5  1  0
  3  4  1  6
  5  6  1  6
  7  5  1  0
  7  9  1  0
  8  7  2  0
 10  9  1  0
 11 10  1  0
 12 11  2  0
 13 11  1  0
 14 22  1  0
 14 13  1  0
 15 16  1  0
 14 15  1  1
 16 21  2  0
 16 17  1  0
 17 18  2  0
 18 19  1  0
 20 19  2  0
 21 20  1  0
 22 23  1  0
 24 22  2  0
M  END
$$$$
