IGF.pdb
     RDKit          3D

 24 24  0  0  1  0  0  0  0  0999 V2000
    7.9812  -12.1892   22.0748 C   0  0  0  0  0  0  0  0  0  0  0  0
    8.0701  -13.6985   22.1344 C   0  0  0  0  0  0  0  0  0  0  0  0
    8.0704  -14.3141   20.7462 C   0  0  2  0  0  0  0  0  0  0  0  0
    6.7791  -13.9972   20.0748 C   0  0  0  0  0  0  0  0  0  0  0  0
    8.3333  -15.7910   20.9511 C   0  0  2  0  0  0  0  0  0  0  0  0
    7.3468  -16.2023   21.9726 N   0  0  0  0  0  0  0  0  0  0  0  0
    9.6537  -16.0771   21.5542 C   0  0  0  0  0  0  0  0  0  0  0  0
   10.7383  -15.7354   21.0289 O   0  0  0  0  0  0  0  0  0  0  0  0
    9.7327  -16.7830   22.8116 N   0  0  0  0  0  0  0  0  0  0  0  0
   11.0108  -17.2085   23.3168 C   0  0  0  0  0  0  0  0  0  0  0  0
   11.2818  -16.6897   24.6682 C   0  0  0  0  0  0  0  0  0  0  0  0
   12.4050  -16.9906   25.2389 O   0  0  0  0  0  0  0  0  0  0  0  0
   10.4363  -15.8751   25.4452 N   0  0  0  0  0  0  0  0  0  0  0  0
   10.7357  -15.4644   26.7997 C   0  0  1  0  0  0  0  0  0  0  0  0
   10.4375  -13.9895   26.8942 C   0  0  0  0  0  0  0  0  0  0  0  0
    9.0483  -13.6149   26.6290 C   0  0  0  0  0  0  0  0  0  0  0  0
    8.4811  -13.9282   25.4138 C   0  0  0  0  0  0  0  0  0  0  0  0
    7.1643  -13.5865   25.1348 C   0  0  0  0  0  0  0  0  0  0  0  0
    6.4403  -12.9269   26.1030 C   0  0  0  0  0  0  0  0  0  0  0  0
    6.9829  -12.6014   27.3267 C   0  0  0  0  0  0  0  0  0  0  0  0
    8.2849  -12.9536   27.5685 C   0  0  0  0  0  0  0  0  0  0  0  0
   10.0034  -16.1998   27.8357 C   0  0  0  0  0  0  0  0  0  0  0  0
    9.0418  -17.1640   27.5864 O   0  0  0  0  0  0  0  0  0  0  0  0
   10.2357  -15.9655   29.0462 O   0  0  0  0  0  0  0  0  0  0  0  0
  2  1  1  0
  3  2  1  0
  3  5  1  0
  3  4  1  1
  5  6  1  1
  7  5  1  0
  7  9  1  0
  8  7  2  0
 10  9  1  0
 11 10  1  0
 12 11  2  0
 13 11  1  0
 14 22  1  0
 14 13  1  0
 15 16  1  0
 14 15  1  6
 16 21  2  0
 16 17  1  0
 17 18  2  0
 18 19  1  0
 20 19  2  0
 21 20  1  0
 22 23  1  0
 24 22  2  0
M  END
$$$$
