VIL.pdb
     RDKit          3D

 24 23  0  0  1  0  0  0  0  0999 V2000
   26.3423  -19.4986  -16.9072 C   0  0  0  0  0  0  0  0  0  0  0  0
   27.4166  -19.0346  -15.9325 C   0  0  2  0  0  0  0  0  0  0  0  0
   28.4983  -18.3440  -16.7329 C   0  0  0  0  0  0  0  0  0  0  0  0
   28.0181  -20.2092  -15.1901 C   0  0  2  0  0  0  0  0  0  0  0  0
   28.5804  -21.1334  -16.1557 N   0  0  0  0  0  0  0  0  0  0  0  0
   27.0579  -20.8755  -14.3081 C   0  0  0  0  0  0  0  0  0  0  0  0
   26.5406  -21.9748  -14.7033 O   0  0  0  0  0  0  0  0  0  0  0  0
   25.3193  -21.1685   -8.4121 C   0  0  0  0  0  0  0  0  0  0  0  0
   25.0047  -21.5482   -9.8389 C   0  0  0  0  0  0  0  0  0  0  0  0
   25.9272  -20.7661  -10.7324 C   0  0  2  0  0  0  0  0  0  0  0  0
   25.6802  -19.2862  -10.4948 C   0  0  0  0  0  0  0  0  0  0  0  0
   25.6771  -21.0781  -12.2025 C   0  0  2  0  0  0  0  0  0  0  0  0
   26.6463  -20.4125  -13.0501 N   0  0  0  0  0  0  0  0  0  0  0  0
   24.2928  -20.7752  -12.5790 C   0  0  0  0  0  0  0  0  0  0  0  0
   23.9535  -19.6012  -12.8571 O   0  0  0  0  0  0  0  0  0  0  0  0
   20.0433  -21.5127  -15.5026 C   0  0  0  0  0  0  0  0  0  0  0  0
   19.9279  -22.4149  -14.2494 C   0  0  1  0  0  0  0  0  0  0  0  0
   19.2396  -23.6674  -14.7225 C   0  0  0  0  0  0  0  0  0  0  0  0
   21.3063  -22.5950  -13.7404 C   0  0  0  0  0  0  0  0  0  0  0  0
   21.9745  -21.4576  -13.0667 C   0  0  2  0  0  0  0  0  0  0  0  0
   23.2916  -21.7718  -12.6456 N   0  0  0  0  0  0  0  0  0  0  0  0
   21.1472  -20.8233  -12.0129 C   0  0  0  0  0  0  0  0  0  0  0  0
   20.3226  -19.7556  -12.3410 O   0  0  0  0  0  0  0  0  0  0  0  0
   21.1388  -21.1933  -10.8105 O   0  0  0  0  0  0  0  0  0  0  0  0
  2  1  1  6
  2  3  1  0
  2  4  1  0
  4  5  1  6
  6  7  2  0
  6  4  1  0
  9 10  1  0
  9  8  1  0
 10 11  1  6
 12 10  1  0
 12 13  1  6
 13  6  1  0
 14 12  1  0
 15 14  2  0
 17 16  1  6
 17 19  1  0
 18 17  1  0
 20 19  1  1
 20 21  1  0
 21 14  1  0
 22 23  1  0
 22 20  1  0
 24 22  2  0
M  END
$$$$
