VIL.pdb
     RDKit          3D

 24 23  0  0  1  0  0  0  0  0999 V2000
   16.0331  -27.4863   -2.7783 C   0  0  0  0  0  0  0  0  0  0  0  0
   17.1119  -27.7969   -1.7492 C   0  0  2  0  0  0  0  0  0  0  0  0
   16.4451  -28.4715   -0.5711 C   0  0  0  0  0  0  0  0  0  0  0  0
   17.7924  -26.5288   -1.2784 C   0  0  2  0  0  0  0  0  0  0  0  0
   18.4821  -25.9244   -2.4016 N   0  0  0  0  0  0  0  0  0  0  0  0
   18.7004  -26.7561   -0.1525 C   0  0  0  0  0  0  0  0  0  0  0  0
   19.8619  -27.2264   -0.4019 O   0  0  0  0  0  0  0  0  0  0  0  0
   19.7278  -23.1858    3.6177 C   0  0  0  0  0  0  0  0  0  0  0  0
   19.8278  -24.3024    2.6068 C   0  0  0  0  0  0  0  0  0  0  0  0
   19.3280  -25.5587    3.2648 C   0  0  2  0  0  0  0  0  0  0  0  0
   20.2464  -25.8847    4.4301 C   0  0  0  0  0  0  0  0  0  0  0  0
   19.3258  -26.7336    2.2949 C   0  0  2  0  0  0  0  0  0  0  0  0
   18.4100  -26.5018    1.1956 N   0  0  0  0  0  0  0  0  0  0  0  0
   19.0639  -27.9955    2.9940 C   0  0  0  0  0  0  0  0  0  0  0  0
   17.9314  -28.2297    3.4772 O   0  0  0  0  0  0  0  0  0  0  0  0
   20.5203  -32.8742    1.2816 C   0  0  0  0  0  0  0  0  0  0  0  0
   19.7310  -31.6525    1.8126 C   0  0  1  0  0  0  0  0  0  0  0  0
   18.2803  -32.0431    1.7160 C   0  0  0  0  0  0  0  0  0  0  0  0
   20.2353  -31.3961    3.1805 C   0  0  0  0  0  0  0  0  0  0  0  0
   19.7902  -30.1743    3.8900 C   0  0  2  0  0  0  0  0  0  0  0  0
   20.0553  -28.9910    3.1549 N   0  0  0  0  0  0  0  0  0  0  0  0
   20.2376  -30.1120    5.3017 C   0  0  0  0  0  0  0  0  0  0  0  0
   19.9039  -31.1419    6.1709 O   0  0  0  0  0  0  0  0  0  0  0  0
   20.9162  -29.1674    5.7812 O   0  0  0  0  0  0  0  0  0  0  0  0
  2  1  1  6
  2  3  1  0
  2  4  1  0
  4  5  1  6
  6  7  2  0
  6  4  1  0
  9 10  1  0
  9  8  1  0
 10 11  1  1
 12 10  1  0
 12 13  1  6
 13  6  1  0
 14 12  1  0
 15 14  2  0
 17 16  1  1
 17 19  1  0
 18 17  1  0
 20 19  1  6
 20 21  1  0
 21 14  1  0
 22 23  1  0
 22 20  1  0
 24 22  2  0
M  END
$$$$
