VIL.pdb
     RDKit          3D

 24 23  0  0  1  0  0  0  0  0999 V2000
   25.7483  -20.2335  -17.2860 C   0  0  0  0  0  0  0  0  0  0  0  0
   27.0093  -19.5551  -16.7673 C   0  0  2  0  0  0  0  0  0  0  0  0
   27.7647  -19.0121  -17.9598 C   0  0  0  0  0  0  0  0  0  0  0  0
   27.8884  -20.5403  -16.0261 C   0  0  2  0  0  0  0  0  0  0  0  0
   28.2551  -21.6119  -16.9315 N   0  0  0  0  0  0  0  0  0  0  0  0
   27.2596  -21.0591  -14.8099 C   0  0  0  0  0  0  0  0  0  0  0  0
   26.5232  -22.0984  -14.9098 O   0  0  0  0  0  0  0  0  0  0  0  0
   29.5721  -21.0133   -9.9467 C   0  0  0  0  0  0  0  0  0  0  0  0
   28.7585  -21.4596  -11.1374 C   0  0  0  0  0  0  0  0  0  0  0  0
   27.4396  -20.7396  -11.0836 C   0  0  2  0  0  0  0  0  0  0  0  0
   26.6433  -21.2895   -9.9126 C   0  0  0  0  0  0  0  0  0  0  0  0
   26.6394  -20.9445  -12.3638 C   0  0  2  0  0  0  0  0  0  0  0  0
   27.3921  -20.5133  -13.5250 N   0  0  0  0  0  0  0  0  0  0  0  0
   25.3232  -20.3050  -12.2723 C   0  0  0  0  0  0  0  0  0  0  0  0
   25.2189  -19.0574  -12.3286 O   0  0  0  0  0  0  0  0  0  0  0  0
   21.8824  -18.5812  -15.5933 C   0  0  0  0  0  0  0  0  0  0  0  0
   21.5761  -19.2002  -14.2074 C   0  0  1  0  0  0  0  0  0  0  0  0
   20.4103  -20.1256  -14.4335 C   0  0  0  0  0  0  0  0  0  0  0  0
   22.8290  -19.8469  -13.7565 C   0  0  0  0  0  0  0  0  0  0  0  0
   22.8678  -20.4740  -12.4151 C   0  0  2  0  0  0  0  0  0  0  0  0
   24.1300  -21.0485  -12.1191 N   0  0  0  0  0  0  0  0  0  0  0  0
   21.7241  -21.3788  -12.1500 C   0  0  0  0  0  0  0  0  0  0  0  0
   21.8523  -22.7368  -12.4084 O   0  0  0  0  0  0  0  0  0  0  0  0
   20.6160  -20.9936  -11.6955 O   0  0  0  0  0  0  0  0  0  0  0  0
  2  1  1  6
  2  3  1  0
  2  4  1  0
  4  5  1  6
  6  7  2  0
  6  4  1  0
  9 10  1  0
  9  8  1  0
 10 11  1  1
 12 10  1  0
 12 13  1  6
 13  6  1  0
 14 12  1  0
 15 14  2  0
 17 16  1  6
 17 19  1  0
 18 17  1  0
 20 19  1  6
 20 21  1  0
 21 14  1  0
 22 23  1  0
 22 20  1  0
 24 22  2  0
M  END
$$$$
