VIL.pdb
     RDKit          3D

 24 23  0  0  1  0  0  0  0  0999 V2000
   18.9227  -13.5921  -21.2932 C   0  0  0  0  0  0  0  0  0  0  0  0
   19.2134  -12.8626  -19.9883 C   0  0  2  0  0  0  0  0  0  0  0  0
   19.9508  -11.5864  -20.3277 C   0  0  0  0  0  0  0  0  0  0  0  0
   20.0751  -13.7089  -19.0750 C   0  0  2  0  0  0  0  0  0  0  0  0
   19.3382  -14.9042  -18.7133 N   0  0  0  0  0  0  0  0  0  0  0  0
   20.5300  -12.9813  -17.8887 C   0  0  0  0  0  0  0  0  0  0  0  0
   19.6583  -12.6496  -17.0154 O   0  0  0  0  0  0  0  0  0  0  0  0
   25.1401  -13.9474  -15.1971 C   0  0  0  0  0  0  0  0  0  0  0  0
   23.7007  -13.6053  -15.4968 C   0  0  0  0  0  0  0  0  0  0  0  0
   23.6665  -12.1950  -16.0172 C   0  0  2  0  0  0  0  0  0  0  0  0
   24.0881  -11.2620  -14.8949 C   0  0  0  0  0  0  0  0  0  0  0  0
   22.2692  -11.8059  -16.4833 C   0  0  2  0  0  0  0  0  0  0  0  0
   21.8542  -12.6085  -17.6167 N   0  0  0  0  0  0  0  0  0  0  0  0
   22.1817  -10.3661  -16.7463 C   0  0  0  0  0  0  0  0  0  0  0  0
   22.8532   -9.8479  -17.6689 O   0  0  0  0  0  0  0  0  0  0  0  0
   18.8167   -6.4217  -18.6703 C   0  0  0  0  0  0  0  0  0  0  0  0
   19.9261   -6.3938  -17.5904 C   0  0  1  0  0  0  0  0  0  0  0  0
   19.4249   -5.4512  -16.5290 C   0  0  0  0  0  0  0  0  0  0  0  0
   20.1211   -7.7969  -17.1605 C   0  0  0  0  0  0  0  0  0  0  0  0
   21.2691   -8.1233  -16.2831 C   0  0  2  0  0  0  0  0  0  0  0  0
   21.3522   -9.5078  -15.9879 N   0  0  0  0  0  0  0  0  0  0  0  0
   21.3688   -7.2520  -15.0881 C   0  0  0  0  0  0  0  0  0  0  0  0
   20.9735   -7.7410  -13.8503 O   0  0  0  0  0  0  0  0  0  0  0  0
   21.7975   -6.0695  -15.1163 O   0  0  0  0  0  0  0  0  0  0  0  0
  2  1  1  6
  2  3  1  0
  2  4  1  0
  4  5  1  1
  6  7  2  0
  6  4  1  0
  9 10  1  0
  9  8  1  0
 10 11  1  1
 12 10  1  0
 12 13  1  6
 13  6  1  0
 14 12  1  0
 15 14  2  0
 17 16  1  6
 17 19  1  0
 18 17  1  0
 20 19  1  1
 20 21  1  0
 21 14  1  0
 22 23  1  0
 22 20  1  0
 24 22  2  0
M  END
$$$$
