VIL.pdb
     RDKit          3D

 24 23  0  0  1  0  0  0  0  0999 V2000
   26.3143  -19.6879  -15.9376 C   0  0  0  0  0  0  0  0  0  0  0  0
   27.7024  -19.3013  -15.4448 C   0  0  2  0  0  0  0  0  0  0  0  0
   28.6943  -19.6663  -16.5267 C   0  0  0  0  0  0  0  0  0  0  0  0
   28.0532  -20.0466  -14.1743 C   0  0  2  0  0  0  0  0  0  0  0  0
   28.0225  -21.4708  -14.4448 N   0  0  0  0  0  0  0  0  0  0  0  0
   27.1811  -19.6964  -13.0515 C   0  0  0  0  0  0  0  0  0  0  0  0
   27.0776  -18.4637  -12.7319 O   0  0  0  0  0  0  0  0  0  0  0  0
   22.2119  -20.0393  -13.0746 C   0  0  0  0  0  0  0  0  0  0  0  0
   23.6674  -19.7362  -12.8123 C   0  0  0  0  0  0  0  0  0  0  0  0
   24.0835  -20.5176  -11.5970 C   0  0  2  0  0  0  0  0  0  0  0  0
   23.1806  -20.1201  -10.4419 C   0  0  0  0  0  0  0  0  0  0  0  0
   25.5296  -20.2272  -11.2152 C   0  0  2  0  0  0  0  0  0  0  0  0
   26.4369  -20.6019  -12.2816 N   0  0  0  0  0  0  0  0  0  0  0  0
   25.8733  -20.8512   -9.9336 C   0  0  0  0  0  0  0  0  0  0  0  0
   26.1106  -22.0802   -9.8700 O   0  0  0  0  0  0  0  0  0  0  0  0
   28.5146  -18.3995   -5.6550 C   0  0  0  0  0  0  0  0  0  0  0  0
   28.1781  -19.4243   -6.7660 C   0  0  1  0  0  0  0  0  0  0  0  0
   29.2626  -20.4656   -6.6889 C   0  0  0  0  0  0  0  0  0  0  0  0
   26.8069  -19.9058   -6.4839 C   0  0  0  0  0  0  0  0  0  0  0  0
   26.1306  -20.7648   -7.4833 C   0  0  2  0  0  0  0  0  0  0  0  0
   25.9526  -20.1130   -8.7300 N   0  0  0  0  0  0  0  0  0  0  0  0
   24.9019  -21.4165   -6.9707 C   0  0  0  0  0  0  0  0  0  0  0  0
   25.0039  -22.3876   -5.9836 O   0  0  0  0  0  0  0  0  0  0  0  0
   23.7425  -21.1453   -7.3770 O   0  0  0  0  0  0  0  0  0  0  0  0
  2  1  1  6
  2  3  1  0
  2  4  1  0
  4  5  1  6
  6  7  2  0
  6  4  1  0
  9 10  1  0
  9  8  1  0
 10 11  1  1
 12 10  1  0
 12 13  1  6
 13  6  1  0
 14 12  1  0
 15 14  2  0
 17 16  1  1
 17 19  1  0
 18 17  1  0
 20 19  1  1
 20 21  1  0
 21 14  1  0
 22 23  1  0
 22 20  1  0
 24 22  2  0
M  END
$$$$
