VIL.pdb
     RDKit          3D

 24 23  0  0  1  0  0  0  0  0999 V2000
   19.5981  -13.8115  -17.5797 C   0  0  0  0  0  0  0  0  0  0  0  0
   18.4468  -12.8470  -17.8324 C   0  0  2  0  0  0  0  0  0  0  0  0
   17.6938  -13.3365  -19.0494 C   0  0  0  0  0  0  0  0  0  0  0  0
   18.9607  -11.4468  -18.0934 C   0  0  2  0  0  0  0  0  0  0  0  0
   19.6272  -11.4264  -19.3810 N   0  0  0  0  0  0  0  0  0  0  0  0
   19.8383  -10.9565  -17.0288 C   0  0  0  0  0  0  0  0  0  0  0  0
   19.3571  -10.8602  -15.8492 O   0  0  0  0  0  0  0  0  0  0  0  0
   24.7614  -12.6350  -16.0695 C   0  0  0  0  0  0  0  0  0  0  0  0
   23.3571  -12.1045  -15.9101 C   0  0  0  0  0  0  0  0  0  0  0  0
   23.4011  -10.6205  -16.1486 C   0  0  2  0  0  0  0  0  0  0  0  0
   24.2248   -9.9837  -15.0424 C   0  0  0  0  0  0  0  0  0  0  0  0
   22.0044  -10.0118  -16.1362 C   0  0  2  0  0  0  0  0  0  0  0  0
   21.1791  -10.5767  -17.1853 N   0  0  0  0  0  0  0  0  0  0  0  0
   22.0655   -8.5479  -16.1898 C   0  0  0  0  0  0  0  0  0  0  0  0
   22.4319   -7.9663  -17.2378 O   0  0  0  0  0  0  0  0  0  0  0  0
   21.2552   -4.0892  -17.3750 C   0  0  0  0  0  0  0  0  0  0  0  0
   20.4572   -4.3118  -16.0668 C   0  0  1  0  0  0  0  0  0  0  0  0
   19.0828   -3.7617  -16.3403 C   0  0  0  0  0  0  0  0  0  0  0  0
   20.5214   -5.7635  -15.7843 C   0  0  0  0  0  0  0  0  0  0  0  0
   21.7532   -6.3210  -15.1794 C   0  0  2  0  0  0  0  0  0  0  0  0
   21.7212   -7.7355  -15.0847 N   0  0  0  0  0  0  0  0  0  0  0  0
   22.1526   -5.6482  -13.9204 C   0  0  0  0  0  0  0  0  0  0  0  0
   22.5970   -4.3334  -13.9589 O   0  0  0  0  0  0  0  0  0  0  0  0
   22.1167   -6.1981  -12.7895 O   0  0  0  0  0  0  0  0  0  0  0  0
  2  1  1  6
  2  3  1  0
  2  4  1  0
  4  5  1  6
  6  7  2  0
  6  4  1  0
  9 10  1  0
  9  8  1  0
 10 11  1  1
 12 10  1  0
 12 13  1  6
 13  6  1  0
 14 12  1  0
 15 14  2  0
 17 16  1  6
 17 19  1  0
 18 17  1  0
 20 19  1  1
 20 21  1  0
 21 14  1  0
 22 23  1  0
 22 20  1  0
 24 22  2  0
M  END
$$$$
