VIL.pdb
     RDKit          3D

 24 23  0  0  1  0  0  0  0  0999 V2000
   22.2361  -25.3168  -16.5832 C   0  0  0  0  0  0  0  0  0  0  0  0
   23.1776  -24.7267  -15.5417 C   0  0  2  0  0  0  0  0  0  0  0  0
   22.3837  -23.7503  -14.7026 C   0  0  0  0  0  0  0  0  0  0  0  0
   24.3274  -23.9964  -16.2030 C   0  0  2  0  0  0  0  0  0  0  0  0
   25.0606  -24.9332  -17.0321 N   0  0  0  0  0  0  0  0  0  0  0  0
   25.2075  -23.3322  -15.2395 C   0  0  0  0  0  0  0  0  0  0  0  0
   25.9201  -24.0640  -14.4720 O   0  0  0  0  0  0  0  0  0  0  0  0
   28.1267  -18.8179  -16.1048 C   0  0  0  0  0  0  0  0  0  0  0  0
   27.6789  -20.1829  -15.6410 C   0  0  0  0  0  0  0  0  0  0  0  0
   26.7025  -19.9836  -14.5150 C   0  0  2  0  0  0  0  0  0  0  0  0
   27.4341  -19.3202  -13.3608 C   0  0  0  0  0  0  0  0  0  0  0  0
   26.1251  -21.3097  -14.0360 C   0  0  2  0  0  0  0  0  0  0  0  0
   25.3436  -21.9460  -15.0778 N   0  0  0  0  0  0  0  0  0  0  0  0
   25.3739  -21.1391  -12.7885 C   0  0  0  0  0  0  0  0  0  0  0  0
   24.3215  -20.4587  -12.7698 O   0  0  0  0  0  0  0  0  0  0  0  0
   26.4763  -20.9951   -7.0322 C   0  0  0  0  0  0  0  0  0  0  0  0
   25.8807  -20.1077   -8.1526 C   0  0  1  0  0  0  0  0  0  0  0  0
   26.4131  -18.7242   -7.8900 C   0  0  0  0  0  0  0  0  0  0  0  0
   26.2977  -20.7219   -9.4333 C   0  0  0  0  0  0  0  0  0  0  0  0
   25.2597  -21.2814  -10.3299 C   0  0  2  0  0  0  0  0  0  0  0  0
   25.7905  -21.7216  -11.5690 N   0  0  0  0  0  0  0  0  0  0  0  0
   24.0650  -20.4149  -10.4673 C   0  0  0  0  0  0  0  0  0  0  0  0
   22.8501  -20.8373   -9.9448 O   0  0  0  0  0  0  0  0  0  0  0  0
   24.0736  -19.2941  -11.0389 O   0  0  0  0  0  0  0  0  0  0  0  0
  2  1  1  6
  2  3  1  0
  2  4  1  0
  4  5  1  1
  6  7  2  0
  6  4  1  0
  9 10  1  0
  9  8  1  0
 10 11  1  1
 12 10  1  0
 12 13  1  6
 13  6  1  0
 14 12  1  0
 15 14  2  0
 17 16  1  1
 17 19  1  0
 18 17  1  0
 20 19  1  6
 20 21  1  0
 21 14  1  0
 22 23  1  0
 22 20  1  0
 24 22  2  0
M  END
$$$$
