VIL.pdb
     RDKit          3D

 24 23  0  0  1  0  0  0  0  0999 V2000
   15.0013  -13.6667  -17.0917 C   0  0  0  0  0  0  0  0  0  0  0  0
   16.3501  -14.3715  -17.1501 C   0  0  2  0  0  0  0  0  0  0  0  0
   16.1577  -15.7794  -16.6318 C   0  0  0  0  0  0  0  0  0  0  0  0
   17.3715  -13.6583  -16.2895 C   0  0  2  0  0  0  0  0  0  0  0  0
   16.9735  -13.7736  -14.8999 N   0  0  0  0  0  0  0  0  0  0  0  0
   17.5627  -12.2593  -16.6769 C   0  0  0  0  0  0  0  0  0  0  0  0
   18.0171  -12.0156  -17.8459 O   0  0  0  0  0  0  0  0  0  0  0  0
   14.1100   -8.8487  -16.9676 C   0  0  0  0  0  0  0  0  0  0  0  0
   15.5295   -9.1501  -17.3837 C   0  0  0  0  0  0  0  0  0  0  0  0
   16.4185   -8.8754  -16.2025 C   0  0  2  0  0  0  0  0  0  0  0  0
   16.8736   -7.4279  -16.2744 C   0  0  0  0  0  0  0  0  0  0  0  0
   17.6452   -9.7789  -16.2054 C   0  0  2  0  0  0  0  0  0  0  0  0
   17.2895  -11.1440  -15.8721 N   0  0  0  0  0  0  0  0  0  0  0  0
   18.6997   -9.2410  -15.3404 C   0  0  0  0  0  0  0  0  0  0  0  0
   18.5223   -9.1546  -14.1027 O   0  0  0  0  0  0  0  0  0  0  0  0
   23.9356  -10.6542  -15.3807 C   0  0  0  0  0  0  0  0  0  0  0  0
   22.4983  -10.3175  -14.9133 C   0  0  1  0  0  0  0  0  0  0  0  0
   22.4667  -10.6568  -13.4469 C   0  0  0  0  0  0  0  0  0  0  0  0
   22.2779   -8.8919  -15.2456 C   0  0  0  0  0  0  0  0  0  0  0  0
   20.9480   -8.2939  -14.9852 C   0  0  2  0  0  0  0  0  0  0  0  0
   19.9442   -8.8017  -15.8485 N   0  0  0  0  0  0  0  0  0  0  0  0
   20.9692   -6.8141  -14.9013 C   0  0  0  0  0  0  0  0  0  0  0  0
   21.3683   -6.2018  -13.7209 O   0  0  0  0  0  0  0  0  0  0  0  0
   20.6426   -6.0533  -15.8486 O   0  0  0  0  0  0  0  0  0  0  0  0
  2  1  1  1
  2  3  1  0
  2  4  1  0
  4  5  1  1
  6  7  2  0
  6  4  1  0
  9 10  1  0
  9  8  1  0
 10 11  1  6
 12 10  1  0
 12 13  1  1
 13  6  1  0
 14 12  1  0
 15 14  2  0
 17 16  1  1
 17 19  1  0
 18 17  1  0
 20 19  1  6
 20 21  1  0
 21 14  1  0
 22 23  1  0
 22 20  1  0
 24 22  2  0
M  END
$$$$
