VIL.pdb
     RDKit          3D

 24 23  0  0  1  0  0  0  0  0999 V2000
   25.4692  -19.4885  -16.7272 C   0  0  0  0  0  0  0  0  0  0  0  0
   26.8259  -18.7975  -16.7612 C   0  0  2  0  0  0  0  0  0  0  0  0
   27.0282  -18.2466  -18.1553 C   0  0  0  0  0  0  0  0  0  0  0  0
   27.9390  -19.7737  -16.4442 C   0  0  2  0  0  0  0  0  0  0  0  0
   28.0725  -20.7043  -17.5482 N   0  0  0  0  0  0  0  0  0  0  0  0
   27.7349  -20.4750  -15.1751 C   0  0  0  0  0  0  0  0  0  0  0  0
   27.0612  -21.5605  -15.1893 O   0  0  0  0  0  0  0  0  0  0  0  0
   31.3506  -21.4767  -11.3849 C   0  0  0  0  0  0  0  0  0  0  0  0
   30.1689  -21.5599  -12.3205 C   0  0  0  0  0  0  0  0  0  0  0  0
   29.0575  -20.7410  -11.7246 C   0  0  2  0  0  0  0  0  0  0  0  0
   28.6276  -21.3956  -10.4229 C   0  0  0  0  0  0  0  0  0  0  0  0
   27.8567  -20.6661  -12.6592 C   0  0  2  0  0  0  0  0  0  0  0  0
   28.2173  -20.0601  -13.9255 N   0  0  0  0  0  0  0  0  0  0  0  0
   26.7246  -19.9956  -12.0123 C   0  0  0  0  0  0  0  0  0  0  0  0
   26.3170  -18.8885  -12.4354 O   0  0  0  0  0  0  0  0  0  0  0  0
   22.0898  -19.1587  -11.9974 C   0  0  0  0  0  0  0  0  0  0  0  0
   22.4164  -20.6713  -11.9436 C   0  0  1  0  0  0  0  0  0  0  0  0
   21.7089  -21.2737  -13.1281 C   0  0  0  0  0  0  0  0  0  0  0  0
   23.8929  -20.7771  -11.9579 C   0  0  0  0  0  0  0  0  0  0  0  0
   24.6493  -20.3953  -10.7429 C   0  0  2  0  0  0  0  0  0  0  0  0
   26.0496  -20.5528  -10.9015 N   0  0  0  0  0  0  0  0  0  0  0  0
   24.1184  -21.0013   -9.4988 C   0  0  0  0  0  0  0  0  0  0  0  0
   23.3815  -20.2208   -8.6183 O   0  0  0  0  0  0  0  0  0  0  0  0
   24.2925  -22.2046   -9.1752 O   0  0  0  0  0  0  0  0  0  0  0  0
  2  1  1  6
  2  3  1  0
  2  4  1  0
  4  5  1  6
  6  7  2  0
  6  4  1  0
  9 10  1  0
  9  8  1  0
 10 11  1  1
 12 10  1  0
 12 13  1  6
 13  6  1  0
 14 12  1  0
 15 14  2  0
 17 16  1  6
 17 19  1  0
 18 17  1  0
 20 19  1  6
 20 21  1  0
 21 14  1  0
 22 23  1  0
 22 20  1  0
 24 22  2  0
M  END
$$$$
