VIL.pdb
     RDKit          3D

 24 23  0  0  1  0  0  0  0  0999 V2000
   18.7874  -30.1946   -9.6820 C   0  0  0  0  0  0  0  0  0  0  0  0
   18.3202  -29.3269  -10.8431 C   0  0  2  0  0  0  0  0  0  0  0  0
   18.2911  -30.1923  -12.0832 C   0  0  0  0  0  0  0  0  0  0  0  0
   19.2665  -28.1662  -11.0668 C   0  0  2  0  0  0  0  0  0  0  0  0
   20.5616  -28.6882  -11.4578 N   0  0  0  0  0  0  0  0  0  0  0  0
   19.3738  -27.2881   -9.9001 C   0  0  0  0  0  0  0  0  0  0  0  0
   20.4221  -27.3765   -9.1750 O   0  0  0  0  0  0  0  0  0  0  0  0
   18.7117  -22.6903  -10.9447 C   0  0  0  0  0  0  0  0  0  0  0  0
   19.4026  -23.6059   -9.9634 C   0  0  0  0  0  0  0  0  0  0  0  0
   18.4056  -23.9663   -8.8970 C   0  0  2  0  0  0  0  0  0  0  0  0
   18.5995  -23.0211   -7.7237 C   0  0  0  0  0  0  0  0  0  0  0  0
   18.5985  -25.3982   -8.4139 C   0  0  2  0  0  0  0  0  0  0  0  0
   18.4184  -26.3439   -9.4975 N   0  0  0  0  0  0  0  0  0  0  0  0
   17.7397  -25.6872   -7.2612 C   0  0  0  0  0  0  0  0  0  0  0  0
   16.5387  -26.0038   -7.4285 O   0  0  0  0  0  0  0  0  0  0  0  0
   19.3937  -27.3356   -1.9652 C   0  0  0  0  0  0  0  0  0  0  0  0
   18.6541  -27.4258   -3.3226 C   0  0  1  0  0  0  0  0  0  0  0  0
   17.6626  -28.5472   -3.1620 C   0  0  0  0  0  0  0  0  0  0  0  0
   18.0723  -26.0867   -3.5672 C   0  0  0  0  0  0  0  0  0  0  0  0
   17.3425  -25.8441   -4.8331 C   0  0  2  0  0  0  0  0  0  0  0  0
   18.2136  -25.6245   -5.9302 N   0  0  0  0  0  0  0  0  0  0  0  0
   16.2677  -24.8304   -4.7132 C   0  0  0  0  0  0  0  0  0  0  0  0
   16.5685  -23.4888   -4.9057 O   0  0  0  0  0  0  0  0  0  0  0  0
   15.0706  -25.1064   -4.4422 O   0  0  0  0  0  0  0  0  0  0  0  0
  2  1  1  1
  2  3  1  0
  2  4  1  0
  4  5  1  1
  6  7  2  0
  6  4  1  0
  9 10  1  0
  9  8  1  0
 10 11  1  1
 12 10  1  0
 12 13  1  6
 13  6  1  0
 14 12  1  0
 15 14  2  0
 17 16  1  1
 17 19  1  0
 18 17  1  0
 20 19  1  1
 20 21  1  0
 21 14  1  0
 22 23  1  0
 22 20  1  0
 24 22  2  0
M  END
$$$$
