PIL.pdb
     RDKit          3D

 24 24  0  0  1  0  0  0  0  0999 V2000
   10.1520  -18.7344   19.7141 N   0  0  0  0  0  0  0  0  0  0  0  0
   10.4779  -19.2443   18.3962 C   0  0  0  0  0  0  0  0  0  0  0  0
   11.3860  -18.2420   17.7541 C   0  0  0  0  0  0  0  0  0  0  0  0
   11.4785  -17.1195   18.7606 C   0  0  0  0  0  0  0  0  0  0  0  0
   11.2231  -17.8329   20.0614 C   0  0  1  0  0  0  0  0  0  0  0  0
   10.9068  -16.9434   21.1798 C   0  0  0  0  0  0  0  0  0  0  0  0
   11.8514  -16.3066   21.7126 O   0  0  0  0  0  0  0  0  0  0  0  0
    6.5709  -13.9931   20.6171 C   0  0  0  0  0  0  0  0  0  0  0  0
    7.9575  -14.3882   21.0366 C   0  0  0  0  0  0  0  0  0  0  0  0
    7.9191  -15.1507   22.3729 C   0  0  2  0  0  0  0  0  0  0  0  0
    7.4079  -14.1760   23.3879 C   0  0  0  0  0  0  0  0  0  0  0  0
    9.2963  -15.6990   22.6597 C   0  0  2  0  0  0  0  0  0  0  0  0
    9.5899  -16.7730   21.6816 N   0  0  0  0  0  0  0  0  0  0  0  0
    9.4071  -16.2736   24.0219 C   0  0  0  0  0  0  0  0  0  0  0  0
    9.0458  -17.4721   24.2664 O   0  0  0  0  0  0  0  0  0  0  0  0
    9.3307  -13.3235   26.9818 C   0  0  0  0  0  0  0  0  0  0  0  0
    9.8362  -14.3645   27.9742 C   0  0  2  0  0  0  0  0  0  0  0  0
   10.4879  -13.6156   29.1113 C   0  0  0  0  0  0  0  0  0  0  0  0
   10.8612  -15.2040   27.2795 C   0  0  0  0  0  0  0  0  0  0  0  0
   10.2668  -16.2668   26.3861 C   0  0  2  0  0  0  0  0  0  0  0  0
    9.9091  -15.5732   25.1392 N   0  0  0  0  0  0  0  0  0  0  0  0
    9.0314  -16.8629   26.9368 C   0  0  0  0  0  0  0  0  0  0  0  0
    7.7680  -16.5800   26.4204 O   0  0  0  0  0  0  0  0  0  0  0  0
    9.0541  -17.6626   27.9078 O   0  0  0  0  0  0  0  0  0  0  0  0
  1  5  1  0
  2  1  1  0
  2  3  1  0
  3  4  1  0
  4  5  1  0
  5  6  1  1
  6  7  2  0
  8  9  1  0
  9 10  1  0
 10 11  1  1
 10 12  1  0
 12 13  1  6
 12 14  1  0
 13  6  1  0
 14 21  1  0
 15 14  2  0
 17 16  1  6
 17 19  1  0
 18 17  1  0
 20 19  1  1
 20 22  1  0
 21 20  1  0
 22 24  2  0
 22 23  1  0
M  END
$$$$
