PIL.pdb
     RDKit          3D

 24 24  0  0  1  0  0  0  0  0999 V2000
    9.0360  -14.8059   19.2262 N   0  0  0  0  0  0  0  0  0  0  0  0
    9.0351  -14.1104   17.9537 C   0  0  0  0  0  0  0  0  0  0  0  0
    7.9597  -13.0713   18.0265 C   0  0  0  0  0  0  0  0  0  0  0  0
    7.3206  -13.2858   19.3782 C   0  0  0  0  0  0  0  0  0  0  0  0
    8.4465  -13.8914   20.1731 C   0  0  1  0  0  0  0  0  0  0  0  0
    8.0235  -14.5263   21.4221 C   0  0  0  0  0  0  0  0  0  0  0  0
    7.2909  -13.8650   22.2016 O   0  0  0  0  0  0  0  0  0  0  0  0
    7.8348  -19.9935   21.5875 C   0  0  0  0  0  0  0  0  0  0  0  0
    7.4980  -18.5362   21.7200 C   0  0  0  0  0  0  0  0  0  0  0  0
    8.1527  -17.9446   22.9809 C   0  0  2  0  0  0  0  0  0  0  0  0
    7.5987  -18.7212   24.1348 C   0  0  0  0  0  0  0  0  0  0  0  0
    7.8732  -16.4615   23.0237 C   0  0  2  0  0  0  0  0  0  0  0  0
    8.4035  -15.8451   21.7846 N   0  0  0  0  0  0  0  0  0  0  0  0
    8.5161  -15.7950   24.1815 C   0  0  0  0  0  0  0  0  0  0  0  0
    9.7845  -15.6898   24.2644 O   0  0  0  0  0  0  0  0  0  0  0  0
    7.8622  -11.7001   25.4219 C   0  0  0  0  0  0  0  0  0  0  0  0
    6.8237  -12.7019   25.9135 C   0  0  2  0  0  0  0  0  0  0  0  0
    5.7166  -11.9107   26.5668 C   0  0  0  0  0  0  0  0  0  0  0  0
    7.4767  -13.5795   26.9341 C   0  0  0  0  0  0  0  0  0  0  0  0
    8.5022  -14.5231   26.3519 C   0  0  2  0  0  0  0  0  0  0  0  0
    7.8089  -15.2297   25.2638 N   0  0  0  0  0  0  0  0  0  0  0  0
    8.9701  -15.5389   27.3183 C   0  0  0  0  0  0  0  0  0  0  0  0
    8.4935  -16.8489   27.3186 O   0  0  0  0  0  0  0  0  0  0  0  0
    9.8291  -15.2739   28.1985 O   0  0  0  0  0  0  0  0  0  0  0  0
  1  5  1  0
  2  1  1  0
  2  3  1  0
  3  4  1  0
  4  5  1  0
  5  6  1  1
  6  7  2  0
  8  9  1  0
  9 10  1  0
 10 11  1  1
 10 12  1  0
 12 13  1  6
 12 14  1  0
 13  6  1  0
 14 21  1  0
 15 14  2  0
 17 16  1  1
 17 19  1  0
 18 17  1  0
 20 19  1  1
 20 22  1  0
 21 20  1  0
 22 24  2  0
 22 23  1  0
M  END
$$$$
