TFE.pdb
     RDKit          3D

 28 28  0  0  1  0  0  0  0  0999 V2000
    8.3533  -18.2665   18.4740 C   0  0  0  0  0  0  0  0  0  0  0  0
    8.6105  -17.7181   19.8445 C   0  0  1  0  0  0  0  0  0  0  0  0
    9.3988  -18.6071   20.5722 O   0  0  0  0  0  0  0  0  0  0  0  0
    9.2610  -16.3486   19.7980 C   0  0  2  0  0  0  0  0  0  0  0  0
   10.5530  -16.3882   19.1616 N   0  0  0  0  0  0  0  0  0  0  0  0
    9.4256  -15.7917   21.1708 C   0  0  0  0  0  0  0  0  0  0  0  0
   10.4675  -15.9664   21.8548 O   0  0  0  0  0  0  0  0  0  0  0  0
    8.3821  -15.0241   21.7678 N   0  0  0  0  0  0  0  0  0  0  0  0
    8.3776  -14.5652   23.1203 C   0  0  1  0  0  0  0  0  0  0  0  0
    7.2147  -13.6430   23.4184 C   0  0  0  0  0  0  0  0  0  0  0  0
    7.2205  -13.1899   24.8298 C   0  0  0  0  0  0  0  0  0  0  0  0
    8.1956  -12.3168   25.2998 C   0  0  0  0  0  0  0  0  0  0  0  0
    8.1809  -11.9086   26.6175 C   0  0  0  0  0  0  0  0  0  0  0  0
    7.2215  -12.3340   27.5198 C   0  0  0  0  0  0  0  0  0  0  0  0
    6.2575  -13.1998   27.0473 C   0  0  0  0  0  0  0  0  0  0  0  0
    6.2685  -13.6097   25.7320 C   0  0  0  0  0  0  0  0  0  0  0  0
    8.3268  -15.6999   24.0946 C   0  0  0  0  0  0  0  0  0  0  0  0
    7.3123  -16.4367   24.1849 O   0  0  0  0  0  0  0  0  0  0  0  0
    9.4085  -16.0009   24.9586 N   0  0  0  0  0  0  0  0  0  0  0  0
    9.3908  -17.2225   25.8243 C   0  0  1  0  0  0  0  0  0  0  0  0
   10.4414  -18.1294   25.3099 C   0  0  0  0  0  0  0  0  0  0  0  0
   11.7747  -17.6135   25.0043 C   0  0  0  0  0  0  0  0  0  0  0  0
   12.7971  -18.4763   24.4317 C   0  0  0  0  0  0  0  0  0  0  0  0
   13.2503  -19.4688   25.0742 O   0  0  0  0  0  0  0  0  0  0  0  0
    9.6933  -16.7179   27.1681 C   0  0  0  0  0  0  0  0  0  0  0  0
    9.7766  -17.3950   28.2047 O   0  0  0  0  0  0  0  0  0  0  0  0
   13.3219  -18.2614   23.1653 O   0  0  0  0  0  0  0  0  0  0  0  0
    9.9185  -15.3364   27.3434 O   0  0  0  0  0  0  0  0  0  0  0  0
  2  4  1  0
  2  1  1  6
  3  2  1  0
  4  6  1  0
  4  5  1  1
  6  7  2  0
  8  9  1  0
  8  6  1  0
 10 11  1  0
  9 10  1  6
 11 12  2  0
 12 13  1  0
 14 13  2  0
 15 14  1  0
 16 15  2  0
 16 11  1  0
 17 18  2  0
 17  9  1  0
 19 17  1  0
 20 19  1  0
 20 25  1  0
 20 21  1  6
 22 23  1  0
 22 21  1  0
 23 24  2  0
 25 28  1  0
 26 25  2  0
 27 23  1  0
M  END
$$$$
