TFE.pdb
     RDKit          3D

 28 28  0  0  1  0  0  0  0  0999 V2000
    8.1363  -18.8026   20.8183 C   0  0  0  0  0  0  0  0  0  0  0  0
    9.1388  -18.1741   19.8989 C   0  0  1  0  0  0  0  0  0  0  0  0
    9.1594  -18.8527   18.6823 O   0  0  0  0  0  0  0  0  0  0  0  0
    8.8640  -16.6987   19.6784 C   0  0  2  0  0  0  0  0  0  0  0  0
    9.6828  -16.1504   18.6274 N   0  0  0  0  0  0  0  0  0  0  0  0
    9.1096  -15.9203   20.9257 C   0  0  0  0  0  0  0  0  0  0  0  0
   10.2647  -15.7091   21.3787 O   0  0  0  0  0  0  0  0  0  0  0  0
    8.0169  -15.3765   21.6637 N   0  0  0  0  0  0  0  0  0  0  0  0
    8.1300  -14.7283   22.9314 C   0  0  1  0  0  0  0  0  0  0  0  0
    6.8685  -13.9879   23.3213 C   0  0  0  0  0  0  0  0  0  0  0  0
    6.9699  -13.4083   24.6819 C   0  0  0  0  0  0  0  0  0  0  0  0
    7.7102  -12.2550   24.9179 C   0  0  0  0  0  0  0  0  0  0  0  0
    7.7903  -11.7336   26.1926 C   0  0  0  0  0  0  0  0  0  0  0  0
    7.1559  -12.3138   27.2773 C   0  0  0  0  0  0  0  0  0  0  0  0
    6.4235  -13.4574   27.0365 C   0  0  0  0  0  0  0  0  0  0  0  0
    6.3409  -13.9811   25.7648 C   0  0  0  0  0  0  0  0  0  0  0  0
    8.4532  -15.6959   24.0262 C   0  0  0  0  0  0  0  0  0  0  0  0
    7.7443  -16.7146   24.2262 O   0  0  0  0  0  0  0  0  0  0  0  0
    9.5639  -15.5168   24.8873 N   0  0  0  0  0  0  0  0  0  0  0  0
   10.1377  -16.6644   25.6591 C   0  0  1  0  0  0  0  0  0  0  0  0
   11.5293  -16.8464   25.1884 C   0  0  0  0  0  0  0  0  0  0  0  0
   12.4132  -17.8013   25.8549 C   0  0  0  0  0  0  0  0  0  0  0  0
   13.7918  -17.9722   25.4216 C   0  0  0  0  0  0  0  0  0  0  0  0
   14.2566  -17.3145   24.4445 O   0  0  0  0  0  0  0  0  0  0  0  0
   10.0708  -16.2288   27.0582 C   0  0  0  0  0  0  0  0  0  0  0  0
    9.8506  -15.0748   27.4578 O   0  0  0  0  0  0  0  0  0  0  0  0
   14.6608  -18.8528   26.0499 O   0  0  0  0  0  0  0  0  0  0  0  0
   10.2691  -17.1813   28.0796 O   0  0  0  0  0  0  0  0  0  0  0  0
  2  4  1  0
  2  1  1  1
  3  2  1  0
  4  6  1  0
  4  5  1  6
  6  7  2  0
  8  9  1  0
  8  6  1  0
 10 11  1  0
  9 10  1  1
 11 12  2  0
 12 13  1  0
 14 13  2  0
 15 14  1  0
 16 15  2  0
 16 11  1  0
 17 18  2  0
 17  9  1  0
 19 17  1  0
 20 19  1  0
 20 25  1  0
 20 21  1  6
 22 23  1  0
 22 21  1  0
 23 24  2  0
 25 28  1  0
 26 25  2  0
 27 23  1  0
M  END
$$$$
