TFE.pdb
     RDKit          3D

 28 28  0  0  1  0  0  0  0  0999 V2000
    7.4409  -17.9965   18.3822 C   0  0  0  0  0  0  0  0  0  0  0  0
    7.8278  -17.4344   19.7162 C   0  0  1  0  0  0  0  0  0  0  0  0
    8.7626  -18.2657   20.3296 O   0  0  0  0  0  0  0  0  0  0  0  0
    8.3676  -16.0212   19.6046 C   0  0  2  0  0  0  0  0  0  0  0  0
    9.5307  -15.9552   18.7569 N   0  0  0  0  0  0  0  0  0  0  0  0
    8.7282  -15.4828   20.9470 C   0  0  0  0  0  0  0  0  0  0  0  0
    9.8549  -15.6721   21.4750 O   0  0  0  0  0  0  0  0  0  0  0  0
    7.7851  -14.7169   21.6943 N   0  0  0  0  0  0  0  0  0  0  0  0
    7.9604  -14.3036   23.0501 C   0  0  1  0  0  0  0  0  0  0  0  0
    6.7917  -13.4922   23.5672 C   0  0  0  0  0  0  0  0  0  0  0  0
    6.9915  -13.0770   24.9762 C   0  0  0  0  0  0  0  0  0  0  0  0
    7.8964  -12.0745   25.3079 C   0  0  0  0  0  0  0  0  0  0  0  0
    8.0658  -11.7046   26.6262 C   0  0  0  0  0  0  0  0  0  0  0  0
    7.3639  -12.2948   27.6628 C   0  0  0  0  0  0  0  0  0  0  0  0
    6.4682  -13.2883   27.3270 C   0  0  0  0  0  0  0  0  0  0  0  0
    6.2961  -13.6605   26.0116 C   0  0  0  0  0  0  0  0  0  0  0  0
    8.1540  -15.4691   23.9685 C   0  0  0  0  0  0  0  0  0  0  0  0
    7.4089  -16.4797   23.9052 O   0  0  0  0  0  0  0  0  0  0  0  0
    9.1767  -15.4953   24.9485 N   0  0  0  0  0  0  0  0  0  0  0  0
    9.6632  -16.7886   25.5251 C   0  0  1  0  0  0  0  0  0  0  0  0
   10.9257  -17.1224   24.8281 C   0  0  0  0  0  0  0  0  0  0  0  0
   11.7557  -18.2303   25.2982 C   0  0  0  0  0  0  0  0  0  0  0  0
   13.0023  -18.5675   24.6275 C   0  0  0  0  0  0  0  0  0  0  0  0
   13.1382  -18.4047   23.3792 O   0  0  0  0  0  0  0  0  0  0  0  0
    9.8679  -16.4960   26.9479 C   0  0  0  0  0  0  0  0  0  0  0  0
    9.8829  -17.3236   27.8725 O   0  0  0  0  0  0  0  0  0  0  0  0
   14.0963  -19.0771   25.3123 O   0  0  0  0  0  0  0  0  0  0  0  0
   10.0715  -15.1585   27.3470 O   0  0  0  0  0  0  0  0  0  0  0  0
  2  4  1  0
  2  1  1  6
  3  2  1  0
  4  6  1  0
  4  5  1  6
  6  7  2  0
  8  9  1  0
  8  6  1  0
 10 11  1  0
  9 10  1  1
 11 12  2  0
 12 13  1  0
 14 13  2  0
 15 14  1  0
 16 15  2  0
 16 11  1  0
 17 18  2  0
 17  9  1  0
 19 17  1  0
 20 19  1  0
 20 25  1  0
 20 21  1  6
 22 23  1  0
 22 21  1  0
 23 24  2  0
 25 28  1  0
 26 25  2  0
 27 23  1  0
M  END
$$$$
