TFE.pdb
     RDKit          3D

 28 28  0  0  1  0  0  0  0  0999 V2000
    7.6134  -16.3644   19.1777 C   0  0  0  0  0  0  0  0  0  0  0  0
    8.3245  -15.2276   18.5090 C   0  0  1  0  0  0  0  0  0  0  0  0
    8.0834  -15.2569   17.1370 O   0  0  0  0  0  0  0  0  0  0  0  0
    7.9244  -13.8843   19.0890 C   0  0  2  0  0  0  0  0  0  0  0  0
    8.4891  -12.7875   18.3449 N   0  0  0  0  0  0  0  0  0  0  0  0
    8.3607  -13.7679   20.5096 C   0  0  0  0  0  0  0  0  0  0  0  0
    9.5675  -13.6356   20.8413 O   0  0  0  0  0  0  0  0  0  0  0  0
    7.4010  -13.8035   21.5642 N   0  0  0  0  0  0  0  0  0  0  0  0
    7.7188  -13.8421   22.9562 C   0  0  1  0  0  0  0  0  0  0  0  0
    6.6555  -13.1906   23.8144 C   0  0  0  0  0  0  0  0  0  0  0  0
    7.0336  -13.1848   25.2477 C   0  0  0  0  0  0  0  0  0  0  0  0
    7.8888  -12.2157   25.7609 C   0  0  0  0  0  0  0  0  0  0  0  0
    8.2268  -12.2301   27.0983 C   0  0  0  0  0  0  0  0  0  0  0  0
    7.7468  -13.1839   27.9790 C   0  0  0  0  0  0  0  0  0  0  0  0
    6.8992  -14.1421   27.4637 C   0  0  0  0  0  0  0  0  0  0  0  0
    6.5591  -14.1310   26.1286 C   0  0  0  0  0  0  0  0  0  0  0  0
    7.9116  -15.2428   23.4461 C   0  0  0  0  0  0  0  0  0  0  0  0
    7.1109  -16.1595   23.1317 O   0  0  0  0  0  0  0  0  0  0  0  0
    8.9958  -15.6066   24.2824 N   0  0  0  0  0  0  0  0  0  0  0  0
    9.2460  -17.0372   24.6468 C   0  0  1  0  0  0  0  0  0  0  0  0
   10.2558  -17.5532   23.6955 C   0  0  0  0  0  0  0  0  0  0  0  0
   11.5563  -16.8966   23.5740 C   0  0  0  0  0  0  0  0  0  0  0  0
   12.5647  -17.3996   22.6533 C   0  0  0  0  0  0  0  0  0  0  0  0
   12.3510  -18.4293   21.9480 O   0  0  0  0  0  0  0  0  0  0  0  0
    9.7503  -16.9770   26.0230 C   0  0  0  0  0  0  0  0  0  0  0  0
   10.0592  -17.9456   26.7345 O   0  0  0  0  0  0  0  0  0  0  0  0
   13.7985  -16.7837   22.4992 O   0  0  0  0  0  0  0  0  0  0  0  0
    9.9158  -15.7166   26.6345 O   0  0  0  0  0  0  0  0  0  0  0  0
  2  4  1  0
  2  1  1  1
  3  2  1  0
  4  6  1  0
  4  5  1  6
  6  7  2  0
  8  9  1  0
  8  6  1  0
 10 11  1  0
  9 10  1  1
 11 12  2  0
 12 13  1  0
 14 13  2  0
 15 14  1  0
 16 15  2  0
 16 11  1  0
 17 18  2  0
 17  9  1  0
 19 17  1  0
 20 19  1  0
 20 25  1  0
 20 21  1  6
 22 23  1  0
 22 21  1  0
 23 24  2  0
 25 28  1  0
 26 25  2  0
 27 23  1  0
M  END
$$$$
