TFE.pdb
     RDKit          3D

 28 28  0  0  1  0  0  0  0  0999 V2000
    7.8743  -18.6720   20.9287 C   0  0  0  0  0  0  0  0  0  0  0  0
    8.7014  -18.0323   19.8555 C   0  0  1  0  0  0  0  0  0  0  0  0
    8.5317  -18.7158   18.6533 O   0  0  0  0  0  0  0  0  0  0  0  0
    8.3709  -16.5622   19.6807 C   0  0  2  0  0  0  0  0  0  0  0  0
    9.0384  -15.9931   18.5378 N   0  0  0  0  0  0  0  0  0  0  0  0
    8.7567  -15.7833   20.8916 C   0  0  0  0  0  0  0  0  0  0  0  0
    9.9547  -15.5336   21.1859 O   0  0  0  0  0  0  0  0  0  0  0  0
    7.7564  -15.2837   21.7771 N   0  0  0  0  0  0  0  0  0  0  0  0
    8.0177  -14.6569   23.0336 C   0  0  1  0  0  0  0  0  0  0  0  0
    6.7771  -14.0441   23.6476 C   0  0  0  0  0  0  0  0  0  0  0  0
    7.0615  -13.4346   24.9687 C   0  0  0  0  0  0  0  0  0  0  0  0
    6.4681  -13.9231   26.1276 C   0  0  0  0  0  0  0  0  0  0  0  0
    6.7477  -13.3399   27.3462 C   0  0  0  0  0  0  0  0  0  0  0  0
    7.6104  -12.2658   27.4789 C   0  0  0  0  0  0  0  0  0  0  0  0
    8.1955  -11.7861   26.3257 C   0  0  0  0  0  0  0  0  0  0  0  0
    7.9189  -12.3659   25.1068 C   0  0  0  0  0  0  0  0  0  0  0  0
    8.5971  -15.6156   24.0258 C   0  0  0  0  0  0  0  0  0  0  0  0
    8.0090  -16.6880   24.3163 O   0  0  0  0  0  0  0  0  0  0  0  0
    9.8269  -15.3678   24.6842 N   0  0  0  0  0  0  0  0  0  0  0  0
   10.6163  -16.4839   25.2951 C   0  0  1  0  0  0  0  0  0  0  0  0
   12.0038  -16.3526   24.7964 C   0  0  0  0  0  0  0  0  0  0  0  0
   13.0580  -17.2230   25.3145 C   0  0  0  0  0  0  0  0  0  0  0  0
   14.4216  -17.1235   24.8164 C   0  0  0  0  0  0  0  0  0  0  0  0
   14.9335  -18.0503   24.1219 O   0  0  0  0  0  0  0  0  0  0  0  0
   10.5144  -16.2505   26.7397 C   0  0  0  0  0  0  0  0  0  0  0  0
   10.3089  -15.1595   27.2941 O   0  0  0  0  0  0  0  0  0  0  0  0
   15.2234  -16.0200   25.0709 O   0  0  0  0  0  0  0  0  0  0  0  0
   10.6570  -17.3441   27.6193 O   0  0  0  0  0  0  0  0  0  0  0  0
  2  4  1  0
  2  1  1  1
  3  2  1  0
  4  6  1  0
  4  5  1  6
  6  7  2  0
  8  9  1  0
  8  6  1  0
 10 11  1  0
  9 10  1  1
 11 12  2  0
 12 13  1  0
 14 13  2  0
 15 14  1  0
 16 15  2  0
 16 11  1  0
 17 18  2  0
 17  9  1  0
 19 17  1  0
 20 19  1  0
 20 25  1  0
 20 21  1  6
 22 23  1  0
 22 21  1  0
 23 24  2  0
 25 28  1  0
 26 25  2  0
 27 23  1  0
M  END
$$$$
