TFE.pdb
     RDKit          3D

 28 28  0  0  1  0  0  0  0  0999 V2000
    7.9797  -18.7228   18.5604 C   0  0  0  0  0  0  0  0  0  0  0  0
    8.3466  -17.9296   19.7775 C   0  0  1  0  0  0  0  0  0  0  0  0
    9.6158  -18.2968   20.2198 O   0  0  0  0  0  0  0  0  0  0  0  0
    8.2853  -16.4352   19.5241 C   0  0  2  0  0  0  0  0  0  0  0  0
    9.1773  -16.0321   18.4669 N   0  0  0  0  0  0  0  0  0  0  0  0
    8.6351  -15.6727   20.7562 C   0  0  0  0  0  0  0  0  0  0  0  0
    9.8180  -15.3553   21.0462 O   0  0  0  0  0  0  0  0  0  0  0  0
    7.6157  -15.2684   21.6682 N   0  0  0  0  0  0  0  0  0  0  0  0
    7.8519  -14.6951   22.9549 C   0  0  1  0  0  0  0  0  0  0  0  0
    6.5849  -14.1817   23.6050 C   0  0  0  0  0  0  0  0  0  0  0  0
    6.8439  -13.6370   24.9591 C   0  0  0  0  0  0  0  0  0  0  0  0
    7.3432  -12.3506   25.1324 C   0  0  0  0  0  0  0  0  0  0  0  0
    7.5765  -11.8648   26.4023 C   0  0  0  0  0  0  0  0  0  0  0  0
    7.3335  -12.6104   27.5427 C   0  0  0  0  0  0  0  0  0  0  0  0
    6.8386  -13.8853   27.3640 C   0  0  0  0  0  0  0  0  0  0  0  0
    6.6041  -14.3741   26.0973 C   0  0  0  0  0  0  0  0  0  0  0  0
    8.4877  -15.6722   23.8931 C   0  0  0  0  0  0  0  0  0  0  0  0
    8.0477  -16.8439   24.0108 O   0  0  0  0  0  0  0  0  0  0  0  0
    9.6077  -15.3319   24.6912 N   0  0  0  0  0  0  0  0  0  0  0  0
   10.5239  -16.3870   25.2291 C   0  0  1  0  0  0  0  0  0  0  0  0
   11.8729  -16.1001   24.6914 C   0  0  0  0  0  0  0  0  0  0  0  0
   13.0236  -16.8875   25.1310 C   0  0  0  0  0  0  0  0  0  0  0  0
   14.3478  -16.6498   24.5766 C   0  0  0  0  0  0  0  0  0  0  0  0
   15.3551  -17.2975   24.9880 O   0  0  0  0  0  0  0  0  0  0  0  0
   10.4526  -16.2202   26.6847 C   0  0  0  0  0  0  0  0  0  0  0  0
   10.7061  -17.0867   27.5360 O   0  0  0  0  0  0  0  0  0  0  0  0
   14.5744  -15.7135   23.5779 O   0  0  0  0  0  0  0  0  0  0  0  0
   10.0633  -14.9701   27.2099 O   0  0  0  0  0  0  0  0  0  0  0  0
  2  4  1  0
  2  1  1  6
  3  2  1  0
  4  6  1  0
  4  5  1  6
  6  7  2  0
  8  9  1  0
  8  6  1  0
 10 11  1  0
  9 10  1  1
 11 12  2  0
 12 13  1  0
 14 13  2  0
 15 14  1  0
 16 15  2  0
 16 11  1  0
 17 18  2  0
 17  9  1  0
 19 17  1  0
 20 19  1  0
 20 25  1  0
 20 21  1  6
 22 23  1  0
 22 21  1  0
 23 24  2  0
 25 28  1  0
 26 25  2  0
 27 23  1  0
M  END
$$$$
