TFE.pdb
     RDKit          3D

 28 28  0  0  1  0  0  0  0  0999 V2000
    6.5446  -15.9443   18.6820 C   0  0  0  0  0  0  0  0  0  0  0  0
    7.2876  -15.9606   19.9831 C   0  0  1  0  0  0  0  0  0  0  0  0
    8.5464  -16.5307   19.8047 O   0  0  0  0  0  0  0  0  0  0  0  0
    7.4141  -14.5740   20.5850 C   0  0  2  0  0  0  0  0  0  0  0  0
    8.1168  -13.6701   19.7103 N   0  0  0  0  0  0  0  0  0  0  0  0
    8.1322  -14.6249   21.8902 C   0  0  0  0  0  0  0  0  0  0  0  0
    9.3687  -14.4142   21.9943 O   0  0  0  0  0  0  0  0  0  0  0  0
    7.4240  -14.9211   23.0923 N   0  0  0  0  0  0  0  0  0  0  0  0
    8.0221  -15.0418   24.3836 C   0  0  1  0  0  0  0  0  0  0  0  0
    7.0129  -14.9248   25.5059 C   0  0  0  0  0  0  0  0  0  0  0  0
    6.7996  -13.5141   25.9082 C   0  0  0  0  0  0  0  0  0  0  0  0
    7.6777  -12.5126   25.5084 C   0  0  0  0  0  0  0  0  0  0  0  0
    7.4590  -11.2065   25.8951 C   0  0  0  0  0  0  0  0  0  0  0  0
    6.3833  -10.8311   26.6808 C   0  0  0  0  0  0  0  0  0  0  0  0
    5.5163  -11.8291   27.0739 C   0  0  0  0  0  0  0  0  0  0  0  0
    5.7311  -13.1347   26.6898 C   0  0  0  0  0  0  0  0  0  0  0  0
    8.7423  -16.3434   24.5458 C   0  0  0  0  0  0  0  0  0  0  0  0
    8.1522  -17.4405   24.3767 O   0  0  0  0  0  0  0  0  0  0  0  0
   10.1137  -16.4079   24.8954 N   0  0  0  0  0  0  0  0  0  0  0  0
   10.8478  -17.7129   24.9112 C   0  0  1  0  0  0  0  0  0  0  0  0
   12.0753  -17.5257   24.1056 C   0  0  0  0  0  0  0  0  0  0  0  0
   12.9776  -16.4102   24.3866 C   0  0  0  0  0  0  0  0  0  0  0  0
   14.1350  -16.1540   23.5426 C   0  0  0  0  0  0  0  0  0  0  0  0
   15.3045  -16.4472   23.9296 O   0  0  0  0  0  0  0  0  0  0  0  0
   11.1376  -17.9476   26.3299 C   0  0  0  0  0  0  0  0  0  0  0  0
   11.8120  -18.8788   26.7969 O   0  0  0  0  0  0  0  0  0  0  0  0
   14.0201  -15.5836   22.2829 O   0  0  0  0  0  0  0  0  0  0  0  0
   10.6200  -17.0523   27.2893 O   0  0  0  0  0  0  0  0  0  0  0  0
  2  4  1  0
  2  1  1  6
  3  2  1  0
  4  6  1  0
  4  5  1  6
  6  7  2  0
  8  9  1  0
  8  6  1  0
 10 11  1  0
  9 10  1  1
 11 12  2  0
 12 13  1  0
 14 13  2  0
 15 14  1  0
 16 15  2  0
 16 11  1  0
 17 18  2  0
 17  9  1  0
 19 17  1  0
 20 19  1  0
 20 25  1  0
 20 21  1  6
 22 23  1  0
 22 21  1  0
 23 24  2  0
 25 28  1  0
 26 25  2  0
 27 23  1  0
M  END
$$$$
