TFE.pdb
     RDKit          3D

 28 28  0  0  1  0  0  0  0  0999 V2000
    7.2799  -16.4611   19.9482 C   0  0  0  0  0  0  0  0  0  0  0  0
    7.8014  -15.1621   19.4135 C   0  0  1  0  0  0  0  0  0  0  0  0
    7.3157  -14.9488   18.1251 O   0  0  0  0  0  0  0  0  0  0  0  0
    7.4495  -13.9926   20.3131 C   0  0  2  0  0  0  0  0  0  0  0  0
    7.7930  -12.7292   19.7118 N   0  0  0  0  0  0  0  0  0  0  0  0
    8.1515  -14.1005   21.6236 C   0  0  0  0  0  0  0  0  0  0  0  0
    9.3494  -13.7491   21.7840 O   0  0  0  0  0  0  0  0  0  0  0  0
    7.4716  -14.6178   22.7658 N   0  0  0  0  0  0  0  0  0  0  0  0
    8.0814  -14.8760   24.0313 C   0  0  1  0  0  0  0  0  0  0  0  0
    7.0798  -14.9001   25.1661 C   0  0  0  0  0  0  0  0  0  0  0  0
    6.8672  -13.5499   25.7402 C   0  0  0  0  0  0  0  0  0  0  0  0
    5.5952  -12.9925   25.8126 C   0  0  0  0  0  0  0  0  0  0  0  0
    5.4215  -11.7343   26.3510 C   0  0  0  0  0  0  0  0  0  0  0  0
    6.4746  -10.9779   26.8352 C   0  0  0  0  0  0  0  0  0  0  0  0
    7.7334  -11.5365   26.7602 C   0  0  0  0  0  0  0  0  0  0  0  0
    7.9111  -12.7929   26.2234 C   0  0  0  0  0  0  0  0  0  0  0  0
    8.8189  -16.1780   24.0403 C   0  0  0  0  0  0  0  0  0  0  0  0
    8.2186  -17.2685   23.8647 O   0  0  0  0  0  0  0  0  0  0  0  0
   10.2188  -16.2504   24.2457 N   0  0  0  0  0  0  0  0  0  0  0  0
   10.9470  -17.5560   24.1611 C   0  0  1  0  0  0  0  0  0  0  0  0
   12.2247  -17.2914   23.4623 C   0  0  0  0  0  0  0  0  0  0  0  0
   13.2871  -16.5406   24.1292 C   0  0  0  0  0  0  0  0  0  0  0  0
   14.5165  -16.2019   23.4282 C   0  0  0  0  0  0  0  0  0  0  0  0
   14.7126  -16.5747   22.2342 O   0  0  0  0  0  0  0  0  0  0  0  0
   11.1436  -17.9517   25.5599 C   0  0  0  0  0  0  0  0  0  0  0  0
   10.8577  -17.2761   26.5608 O   0  0  0  0  0  0  0  0  0  0  0  0
   15.5266  -15.4593   24.0231 O   0  0  0  0  0  0  0  0  0  0  0  0
   11.7084  -19.2138   25.8390 O   0  0  0  0  0  0  0  0  0  0  0  0
  2  4  1  0
  2  1  1  1
  3  2  1  0
  4  6  1  0
  4  5  1  6
  6  7  2  0
  8  9  1  0
  8  6  1  0
 10 11  1  0
  9 10  1  1
 11 12  2  0
 12 13  1  0
 14 13  2  0
 15 14  1  0
 16 15  2  0
 16 11  1  0
 17 18  2  0
 17  9  1  0
 19 17  1  0
 20 19  1  0
 20 25  1  0
 20 21  1  1
 22 23  1  0
 22 21  1  0
 23 24  2  0
 25 28  1  0
 26 25  2  0
 27 23  1  0
M  END
$$$$
