NSG.pdb
     RDKit          3D

 19 18  0  0  1  0  0  0  0  0999 V2000
    8.4729  -15.5097   15.5111 N   0  0  0  0  0  0  0  0  0  0  0  0
    8.2372  -14.1892   15.9722 C   0  0  0  0  0  0  0  0  0  0  0  0
    7.8598  -13.3153   15.1259 O   0  0  0  0  0  0  0  0  0  0  0  0
    8.3861  -13.7171   17.3463 C   0  0  0  0  0  0  0  0  0  0  0  0
    8.7674  -14.7959   18.3323 C   0  0  2  0  0  0  0  0  0  0  0  0
    7.7013  -15.7796   18.3712 N   0  0  0  0  0  0  0  0  0  0  0  0
    8.9786  -14.2011   19.6843 C   0  0  0  0  0  0  0  0  0  0  0  0
    9.8683  -13.3327   19.8257 O   0  0  0  0  0  0  0  0  0  0  0  0
    6.3999  -15.1094   22.9661 O   0  0  0  0  0  0  0  0  0  0  0  0
    7.2565  -14.0110   22.8883 C   0  0  0  0  0  0  0  0  0  0  0  0
    8.5299  -14.3067   22.1454 C   0  0  2  0  0  0  0  0  0  0  0  0
    8.1801  -14.6221   20.7737 N   0  0  0  0  0  0  0  0  0  0  0  0
    9.2725  -15.4706   22.6962 C   0  0  0  0  0  0  0  0  0  0  0  0
    9.0662  -16.6435   22.2929 O   0  0  0  0  0  0  0  0  0  0  0  0
   10.2523  -15.2976   23.7085 N   0  0  0  0  0  0  0  0  0  0  0  0
   10.8227  -16.4431   24.3806 C   0  0  0  0  0  0  0  0  0  0  0  0
   12.1831  -16.7065   23.8609 C   0  0  0  0  0  0  0  0  0  0  0  0
   13.0249  -17.6782   24.4118 O   0  0  0  0  0  0  0  0  0  0  0  0
   12.6119  -16.0323   22.8802 O   0  0  0  0  0  0  0  0  0  0  0  0
  2  3  2  0
  2  1  1  0
  4  2  1  0
  5  4  1  0
  5  6  1  1
  7  5  1  0
  7  8  2  0
 10  9  1  0
 11 10  1  1
 11 12  1  0
 12  7  1  0
 13 15  1  0
 13 11  1  0
 14 13  2  0
 16 15  1  0
 17 16  1  0
 18 17  1  0
 19 17  2  0
M  END
$$$$
