NSG.pdb
     RDKit          3D

 19 18  0  0  1  0  0  0  0  0999 V2000
    7.4311  -19.2128   18.8566 N   0  0  0  0  0  0  0  0  0  0  0  0
    6.9240  -18.3390   19.8522 C   0  0  0  0  0  0  0  0  0  0  0  0
    5.7082  -17.9695   19.7651 O   0  0  0  0  0  0  0  0  0  0  0  0
    7.6674  -17.8070   20.9914 C   0  0  0  0  0  0  0  0  0  0  0  0
    7.8221  -16.3045   20.9810 C   0  0  2  0  0  0  0  0  0  0  0  0
    8.5548  -15.9271   19.7867 N   0  0  0  0  0  0  0  0  0  0  0  0
    8.5507  -15.8573   22.2038 C   0  0  0  0  0  0  0  0  0  0  0  0
    9.7998  -15.7924   22.1681 O   0  0  0  0  0  0  0  0  0  0  0  0
    6.4672  -14.1592   25.4096 O   0  0  0  0  0  0  0  0  0  0  0  0
    7.8400  -14.0028   25.2168 C   0  0  0  0  0  0  0  0  0  0  0  0
    8.4955  -15.2195   24.6244 C   0  0  2  0  0  0  0  0  0  0  0  0
    7.8282  -15.5172   23.3716 N   0  0  0  0  0  0  0  0  0  0  0  0
    8.3832  -16.4242   25.4879 C   0  0  0  0  0  0  0  0  0  0  0  0
    7.4030  -17.2081   25.4131 O   0  0  0  0  0  0  0  0  0  0  0  0
    9.3898  -16.7363   26.4386 N   0  0  0  0  0  0  0  0  0  0  0  0
    9.2275  -17.8562   27.3381 C   0  0  0  0  0  0  0  0  0  0  0  0
   10.3564  -17.9025   28.2938 C   0  0  0  0  0  0  0  0  0  0  0  0
   10.4202  -18.8288   29.3400 O   0  0  0  0  0  0  0  0  0  0  0  0
   11.3066  -17.0769   28.1693 O   0  0  0  0  0  0  0  0  0  0  0  0
  2  3  2  0
  2  1  1  0
  4  2  1  0
  5  4  1  0
  5  6  1  6
  7  5  1  0
  7  8  2  0
 10  9  1  0
 11 10  1  1
 11 12  1  0
 12  7  1  0
 13 15  1  0
 13 11  1  0
 14 13  2  0
 16 15  1  0
 17 16  1  0
 18 17  1  0
 19 17  2  0
M  END
$$$$
