NSG.pdb
     RDKit          3D

 19 18  0  0  1  0  0  0  0  0999 V2000
    6.8463  -12.8596   17.4704 N   0  0  0  0  0  0  0  0  0  0  0  0
    7.5570  -13.9866   16.9839 C   0  0  0  0  0  0  0  0  0  0  0  0
    6.9046  -14.8853   16.3602 O   0  0  0  0  0  0  0  0  0  0  0  0
    8.9901  -14.2290   17.1273 C   0  0  0  0  0  0  0  0  0  0  0  0
    9.3375  -15.3046   18.1292 C   0  0  2  0  0  0  0  0  0  0  0  0
    8.2697  -16.2872   18.1362 N   0  0  0  0  0  0  0  0  0  0  0  0
    9.5045  -14.7051   19.4853 C   0  0  0  0  0  0  0  0  0  0  0  0
   10.3780  -13.8243   19.6488 O   0  0  0  0  0  0  0  0  0  0  0  0
    7.7888  -14.1386   23.9484 O   0  0  0  0  0  0  0  0  0  0  0  0
    7.6534  -14.4501   22.5953 C   0  0  0  0  0  0  0  0  0  0  0  0
    8.9629  -14.7699   21.9290 C   0  0  2  0  0  0  0  0  0  0  0  0
    8.6831  -15.1356   20.5537 N   0  0  0  0  0  0  0  0  0  0  0  0
    9.6769  -15.9114   22.5587 C   0  0  0  0  0  0  0  0  0  0  0  0
    9.1515  -17.0488   22.6646 O   0  0  0  0  0  0  0  0  0  0  0  0
   10.9925  -15.7567   23.0685 N   0  0  0  0  0  0  0  0  0  0  0  0
   11.6592  -16.8586   23.7249 C   0  0  0  0  0  0  0  0  0  0  0  0
   12.9960  -16.4312   24.1942 C   0  0  0  0  0  0  0  0  0  0  0  0
   13.8429  -17.2723   24.9233 O   0  0  0  0  0  0  0  0  0  0  0  0
   13.3991  -15.2613   23.9312 O   0  0  0  0  0  0  0  0  0  0  0  0
  2  3  2  0
  2  1  1  0
  4  2  1  0
  5  4  1  0
  5  6  1  1
  7  5  1  0
  7  8  2  0
 10  9  1  0
 11 10  1  1
 11 12  1  0
 12  7  1  0
 13 15  1  0
 13 11  1  0
 14 13  2  0
 16 15  1  0
 17 16  1  0
 18 17  1  0
 19 17  2  0
M  END
$$$$
