NSG.pdb
     RDKit          3D

 19 18  0  0  1  0  0  0  0  0999 V2000
    7.5873  -12.5402   18.2361 N   0  0  0  0  0  0  0  0  0  0  0  0
    8.5654  -13.3748   17.6371 C   0  0  0  0  0  0  0  0  0  0  0  0
    8.2040  -14.1326   16.6792 O   0  0  0  0  0  0  0  0  0  0  0  0
    9.9743  -13.4577   18.0131 C   0  0  0  0  0  0  0  0  0  0  0  0
   10.3184  -14.6613   18.8584 C   0  0  2  0  0  0  0  0  0  0  0  0
    9.3917  -15.7298   18.5340 N   0  0  0  0  0  0  0  0  0  0  0  0
   10.2267  -14.3121   20.3061 C   0  0  0  0  0  0  0  0  0  0  0  0
   10.9990  -13.4403   20.7633 O   0  0  0  0  0  0  0  0  0  0  0  0
    7.0850  -15.6831   22.7816 O   0  0  0  0  0  0  0  0  0  0  0  0
    7.9981  -14.6861   23.1257 C   0  0  0  0  0  0  0  0  0  0  0  0
    9.3764  -14.9331   22.5778 C   0  0  2  0  0  0  0  0  0  0  0  0
    9.2797  -14.9634   21.1310 N   0  0  0  0  0  0  0  0  0  0  0  0
    9.9563  -16.2302   23.0144 C   0  0  0  0  0  0  0  0  0  0  0  0
   10.1007  -17.1955   22.2218 O   0  0  0  0  0  0  0  0  0  0  0  0
   10.3729  -16.4278   24.3568 N   0  0  0  0  0  0  0  0  0  0  0  0
   10.8338  -17.7246   24.7985 C   0  0  0  0  0  0  0  0  0  0  0  0
   11.3419  -17.6332   26.1855 C   0  0  0  0  0  0  0  0  0  0  0  0
   11.9470  -18.7119   26.8387 O   0  0  0  0  0  0  0  0  0  0  0  0
   11.2300  -16.5415   26.8146 O   0  0  0  0  0  0  0  0  0  0  0  0
  2  3  2  0
  2  1  1  0
  4  2  1  0
  5  4  1  0
  5  6  1  1
  7  5  1  0
  7  8  2  0
 10  9  1  0
 11 10  1  1
 11 12  1  0
 12  7  1  0
 13 15  1  0
 13 11  1  0
 14 13  2  0
 16 15  1  0
 17 16  1  0
 18 17  1  0
 19 17  2  0
M  END
$$$$
