NSG.pdb
     RDKit          3D

 19 18  0  0  1  0  0  0  0  0999 V2000
   11.2036  -20.1847   16.4942 N   0  0  0  0  0  0  0  0  0  0  0  0
   10.6870  -18.8683   16.6043 C   0  0  0  0  0  0  0  0  0  0  0  0
    9.7431  -18.5255   15.8209 O   0  0  0  0  0  0  0  0  0  0  0  0
   11.1350  -17.8427   17.5427 C   0  0  0  0  0  0  0  0  0  0  0  0
   10.6897  -18.0721   18.9676 C   0  0  2  0  0  0  0  0  0  0  0  0
    9.2404  -18.1407   18.9899 N   0  0  0  0  0  0  0  0  0  0  0  0
   11.1734  -16.9620   19.8393 C   0  0  0  0  0  0  0  0  0  0  0  0
   11.8256  -16.0301   19.3178 O   0  0  0  0  0  0  0  0  0  0  0  0
    9.6124  -16.4076   23.6670 O   0  0  0  0  0  0  0  0  0  0  0  0
   10.2874  -15.4285   22.9377 C   0  0  0  0  0  0  0  0  0  0  0  0
   11.4288  -15.9776   22.1273 C   0  0  2  0  0  0  0  0  0  0  0  0
   10.8914  -16.9783   21.2255 N   0  0  0  0  0  0  0  0  0  0  0  0
   12.4716  -16.6368   22.9563 C   0  0  0  0  0  0  0  0  0  0  0  0
   12.2712  -17.7401   23.5251 O   0  0  0  0  0  0  0  0  0  0  0  0
   13.7456  -16.0378   23.1375 N   0  0  0  0  0  0  0  0  0  0  0  0
   14.7261  -16.6478   24.0070 C   0  0  0  0  0  0  0  0  0  0  0  0
   16.0037  -15.9056   23.9245 C   0  0  0  0  0  0  0  0  0  0  0  0
   17.1018  -16.2036   24.7380 O   0  0  0  0  0  0  0  0  0  0  0  0
   16.1187  -14.9628   23.0890 O   0  0  0  0  0  0  0  0  0  0  0  0
  2  3  2  0
  2  1  1  0
  4  2  1  0
  5  4  1  0
  5  6  1  6
  7  5  1  0
  7  8  2  0
 10  9  1  0
 11 10  1  1
 11 12  1  0
 12  7  1  0
 13 15  1  0
 13 11  1  0
 14 13  2  0
 16 15  1  0
 17 16  1  0
 18 17  1  0
 19 17  2  0
M  END
$$$$
