MGK.pdb
     RDKit          3D

 22 21  0  0  1  0  0  0  0  0999 V2000
   29.3710  -19.8879   -5.4540 C   0  0  0  0  0  0  0  0  0  0  0  0
   27.6505  -19.3469   -5.4181 S   0  0  0  0  0  0  0  0  0  0  0  0
   26.5565  -20.4779   -6.2792 C   0  0  0  0  0  0  0  0  0  0  0  0
   26.9723  -20.6933   -7.7199 C   0  0  0  0  0  0  0  0  0  0  0  0
   25.9168  -20.1151   -8.6476 C   0  0  2  0  0  0  0  0  0  0  0  0
   24.7251  -20.9372   -8.6607 N   0  0  0  0  0  0  0  0  0  0  0  0
   26.5005  -20.1252  -10.0117 C   0  0  0  0  0  0  0  0  0  0  0  0
   27.4692  -19.3963  -10.3012 O   0  0  0  0  0  0  0  0  0  0  0  0
   25.9140  -20.9920  -10.9629 N   0  0  0  0  0  0  0  0  0  0  0  0
   26.3609  -20.9910  -12.3320 C   0  0  0  0  0  0  0  0  0  0  0  0
   25.2571  -21.3703  -13.2696 C   0  0  0  0  0  0  0  0  0  0  0  0
   25.4602  -21.3782  -14.5308 O   0  0  0  0  0  0  0  0  0  0  0  0
   23.9832  -21.7239  -12.8036 N   0  0  0  0  0  0  0  0  0  0  0  0
   22.8148  -21.9249  -13.7115 C   0  0  1  0  0  0  0  0  0  0  0  0
   22.5149  -23.3402  -13.8090 C   0  0  0  0  0  0  0  0  0  0  0  0
   22.3922  -24.1334  -15.0161 C   0  0  0  0  0  0  0  0  0  0  0  0
   23.1472  -25.4133  -15.1482 C   0  0  0  0  0  0  0  0  0  0  0  0
   23.0006  -26.2447  -16.3488 C   0  0  0  0  0  0  0  0  0  0  0  0
   23.8315  -27.4459  -16.3238 N   0  0  0  0  0  0  0  0  0  0  0  0
   21.7906  -21.0099  -13.2123 C   0  0  0  0  0  0  0  0  0  0  0  0
   20.9819  -20.3219  -14.1148 O   0  0  0  0  0  0  0  0  0  0  0  0
   21.5049  -20.7266  -12.0297 O   0  0  0  0  0  0  0  0  0  0  0  0
  2  1  1  0
  3  2  1  0
  4  3  1  0
  4  5  1  0
  5  6  1  6
  7  5  1  0
  7  8  2  0
  9  7  1  0
 10  9  1  0
 10 11  1  0
 11 13  1  0
 12 11  2  0
 13 14  1  0
 14 20  1  0
 14 15  1  1
 15 16  1  0
 16 17  1  0
 18 17  1  0
 19 18  1  0
 20 21  1  0
 22 20  2  0
M  END
$$$$
