MGK.pdb
     RDKit          3D

 22 21  0  0  1  0  0  0  0  0999 V2000
   33.1133  -22.5288  -10.0609 C   0  0  0  0  0  0  0  0  0  0  0  0
   31.6591  -21.5765   -9.5785 S   0  0  0  0  0  0  0  0  0  0  0  0
   30.2336  -21.9300  -10.6084 C   0  0  0  0  0  0  0  0  0  0  0  0
   28.9813  -21.2368  -10.1124 C   0  0  0  0  0  0  0  0  0  0  0  0
   27.7948  -21.6555  -10.9646 C   0  0  2  0  0  0  0  0  0  0  0  0
   27.9971  -21.3000  -12.3534 N   0  0  0  0  0  0  0  0  0  0  0  0
   26.6227  -20.8989  -10.4595 C   0  0  0  0  0  0  0  0  0  0  0  0
   26.7666  -19.9347   -9.6829 O   0  0  0  0  0  0  0  0  0  0  0  0
   25.3433  -21.3164  -10.8945 N   0  0  0  0  0  0  0  0  0  0  0  0
   24.1506  -20.7443  -10.3252 C   0  0  0  0  0  0  0  0  0  0  0  0
   23.1984  -20.2911  -11.3878 C   0  0  0  0  0  0  0  0  0  0  0  0
   22.0511  -19.8296  -11.0674 O   0  0  0  0  0  0  0  0  0  0  0  0
   23.5273  -20.3567  -12.7488 N   0  0  0  0  0  0  0  0  0  0  0  0
   22.5745  -19.9726  -13.8326 C   0  0  1  0  0  0  0  0  0  0  0  0
   23.2263  -19.0568  -14.7485 C   0  0  0  0  0  0  0  0  0  0  0  0
   22.5945  -18.1040  -15.6398 C   0  0  0  0  0  0  0  0  0  0  0  0
   23.4304  -17.2471  -16.5301 C   0  0  0  0  0  0  0  0  0  0  0  0
   22.8042  -16.2557  -17.4128 C   0  0  0  0  0  0  0  0  0  0  0  0
   23.7588  -15.5726  -18.2822 N   0  0  0  0  0  0  0  0  0  0  0  0
   22.0528  -21.2400  -14.3395 C   0  0  0  0  0  0  0  0  0  0  0  0
   20.8338  -21.2632  -15.0143 O   0  0  0  0  0  0  0  0  0  0  0  0
   22.5565  -22.3804  -14.2598 O   0  0  0  0  0  0  0  0  0  0  0  0
  2  1  1  0
  3  2  1  0
  4  3  1  0
  4  5  1  0
  5  6  1  6
  7  5  1  0
  7  8  2  0
  9  7  1  0
 10  9  1  0
 10 11  1  0
 11 13  1  0
 12 11  2  0
 13 14  1  0
 14 20  1  0
 14 15  1  6
 15 16  1  0
 16 17  1  0
 18 17  1  0
 19 18  1  0
 20 21  1  0
 22 20  2  0
M  END
$$$$
