MGK.pdb
     RDKit          3D

 22 21  0  0  1  0  0  0  0  0999 V2000
   19.0280  -13.2929    2.9867 C   0  0  0  0  0  0  0  0  0  0  0  0
   18.5513  -14.9248    3.5897 S   0  0  0  0  0  0  0  0  0  0  0  0
   16.7750  -15.1738    3.5673 C   0  0  0  0  0  0  0  0  0  0  0  0
   16.3715  -16.4865    4.2064 C   0  0  0  0  0  0  0  0  0  0  0  0
   16.9007  -17.6430    3.3747 C   0  0  2  0  0  0  0  0  0  0  0  0
   16.3606  -17.6115    2.0318 N   0  0  0  0  0  0  0  0  0  0  0  0
   16.4318  -18.8874    4.0328 C   0  0  0  0  0  0  0  0  0  0  0  0
   16.7966  -19.1798    5.1881 O   0  0  0  0  0  0  0  0  0  0  0  0
   15.5585  -19.7219    3.2971 N   0  0  0  0  0  0  0  0  0  0  0  0
   15.0343  -20.9309    3.8781 C   0  0  0  0  0  0  0  0  0  0  0  0
   16.0199  -22.0543    3.7894 C   0  0  0  0  0  0  0  0  0  0  0  0
   17.1917  -21.8454    3.3255 O   0  0  0  0  0  0  0  0  0  0  0  0
   15.6963  -23.3532    4.2054 N   0  0  0  0  0  0  0  0  0  0  0  0
   16.6673  -24.4866    4.1542 C   0  0  1  0  0  0  0  0  0  0  0  0
   16.2013  -25.5626    5.0071 C   0  0  0  0  0  0  0  0  0  0  0  0
   16.2168  -25.6078    6.4559 C   0  0  0  0  0  0  0  0  0  0  0  0
   15.6956  -26.8089    7.1708 C   0  0  0  0  0  0  0  0  0  0  0  0
   15.5323  -26.7957    8.6294 C   0  0  0  0  0  0  0  0  0  0  0  0
   14.9175  -28.0132    9.1523 N   0  0  0  0  0  0  0  0  0  0  0  0
   16.8715  -24.7409    2.7298 C   0  0  0  0  0  0  0  0  0  0  0  0
   18.0988  -25.2293    2.2858 O   0  0  0  0  0  0  0  0  0  0  0  0
   16.0710  -24.5801    1.7844 O   0  0  0  0  0  0  0  0  0  0  0  0
  2  1  1  0
  3  2  1  0
  4  3  1  0
  4  5  1  0
  5  6  1  6
  7  5  1  0
  7  8  2  0
  9  7  1  0
 10  9  1  0
 10 11  1  0
 11 13  1  0
 12 11  2  0
 13 14  1  0
 14 20  1  0
 14 15  1  1
 15 16  1  0
 16 17  1  0
 18 17  1  0
 19 18  1  0
 20 21  1  0
 22 20  2  0
M  END
$$$$
