MGK.pdb
     RDKit          3D

 22 21  0  0  1  0  0  0  0  0999 V2000
   29.8081  -20.3300   -5.2204 C   0  0  0  0  0  0  0  0  0  0  0  0
   28.3706  -19.2427   -5.2947 S   0  0  0  0  0  0  0  0  0  0  0  0
   26.9663  -20.0144   -6.1009 C   0  0  0  0  0  0  0  0  0  0  0  0
   27.3298  -20.6006   -7.4496 C   0  0  0  0  0  0  0  0  0  0  0  0
   26.4983  -19.9377   -8.5351 C   0  0  2  0  0  0  0  0  0  0  0  0
   25.0832  -20.1440   -8.3090 N   0  0  0  0  0  0  0  0  0  0  0  0
   26.8639  -20.5991   -9.8119 C   0  0  0  0  0  0  0  0  0  0  0  0
   28.0482  -20.8909  -10.0681 O   0  0  0  0  0  0  0  0  0  0  0  0
   25.8171  -20.8823  -10.7199 N   0  0  0  0  0  0  0  0  0  0  0  0
   26.0747  -20.9704  -12.1340 C   0  0  0  0  0  0  0  0  0  0  0  0
   24.8145  -21.2044  -12.9076 C   0  0  0  0  0  0  0  0  0  0  0  0
   24.8389  -21.2218  -14.1847 O   0  0  0  0  0  0  0  0  0  0  0  0
   23.5842  -21.4090  -12.2678 N   0  0  0  0  0  0  0  0  0  0  0  0
   22.2971  -21.5505  -13.0117 C   0  0  1  0  0  0  0  0  0  0  0  0
   21.4314  -22.4781  -12.3098 C   0  0  0  0  0  0  0  0  0  0  0  0
   20.0174  -22.7050  -12.5341 C   0  0  0  0  0  0  0  0  0  0  0  0
   19.1202  -23.0193  -11.3844 C   0  0  0  0  0  0  0  0  0  0  0  0
   17.7040  -23.3333  -11.6081 C   0  0  0  0  0  0  0  0  0  0  0  0
   16.9936  -23.6976  -10.3849 N   0  0  0  0  0  0  0  0  0  0  0  0
   21.8427  -20.1803  -13.2382 C   0  0  0  0  0  0  0  0  0  0  0  0
   21.0231  -19.8974  -14.3291 O   0  0  0  0  0  0  0  0  0  0  0  0
   22.0868  -19.1549  -12.5678 O   0  0  0  0  0  0  0  0  0  0  0  0
  2  1  1  0
  3  2  1  0
  4  3  1  0
  4  5  1  0
  5  6  1  1
  7  5  1  0
  7  8  2  0
  9  7  1  0
 10  9  1  0
 10 11  1  0
 11 13  1  0
 12 11  2  0
 13 14  1  0
 14 20  1  0
 14 15  1  1
 15 16  1  0
 16 17  1  0
 18 17  1  0
 19 18  1  0
 20 21  1  0
 22 20  2  0
M  END
$$$$
