MGK.pdb
     RDKit          3D

 22 21  0  0  1  0  0  0  0  0999 V2000
   28.6421  -19.1884   -7.2299 C   0  0  0  0  0  0  0  0  0  0  0  0
   27.2435  -20.3055   -7.0060 S   0  0  0  0  0  0  0  0  0  0  0  0
   25.9072  -19.9725   -8.1554 C   0  0  0  0  0  0  0  0  0  0  0  0
   26.3946  -19.8609   -9.5853 C   0  0  0  0  0  0  0  0  0  0  0  0
   25.5606  -20.7621  -10.4805 C   0  0  2  0  0  0  0  0  0  0  0  0
   25.8860  -22.1567  -10.2674 N   0  0  0  0  0  0  0  0  0  0  0  0
   25.9131  -20.4134  -11.8789 C   0  0  0  0  0  0  0  0  0  0  0  0
   25.6577  -19.2854  -12.3435 O   0  0  0  0  0  0  0  0  0  0  0  0
   26.5474  -21.4098  -12.6568 N   0  0  0  0  0  0  0  0  0  0  0  0
   26.8191  -21.1893  -14.0538 C   0  0  0  0  0  0  0  0  0  0  0  0
   25.5883  -21.3686  -14.8870 C   0  0  0  0  0  0  0  0  0  0  0  0
   25.6785  -21.8308  -16.0745 O   0  0  0  0  0  0  0  0  0  0  0  0
   24.3150  -21.0407  -14.4009 N   0  0  0  0  0  0  0  0  0  0  0  0
   23.0541  -21.4939  -15.0602 C   0  0  1  0  0  0  0  0  0  0  0  0
   22.3088  -22.3412  -14.1495 C   0  0  0  0  0  0  0  0  0  0  0  0
   21.2730  -23.2981  -14.4851 C   0  0  0  0  0  0  0  0  0  0  0  0
   19.9138  -23.1682  -13.8841 C   0  0  0  0  0  0  0  0  0  0  0  0
   18.8981  -24.2040  -14.1070 C   0  0  0  0  0  0  0  0  0  0  0  0
   17.6323  -23.9254  -13.4334 N   0  0  0  0  0  0  0  0  0  0  0  0
   22.4355  -20.2707  -15.5665 C   0  0  0  0  0  0  0  0  0  0  0  0
   21.7247  -20.3027  -16.7647 O   0  0  0  0  0  0  0  0  0  0  0  0
   22.4419  -19.1262  -15.0657 O   0  0  0  0  0  0  0  0  0  0  0  0
  2  1  1  0
  3  2  1  0
  4  3  1  0
  4  5  1  0
  5  6  1  1
  7  5  1  0
  7  8  2  0
  9  7  1  0
 10  9  1  0
 10 11  1  0
 11 13  1  0
 12 11  2  0
 13 14  1  0
 14 20  1  0
 14 15  1  1
 15 16  1  0
 16 17  1  0
 18 17  1  0
 19 18  1  0
 20 21  1  0
 22 20  2  0
M  END
$$$$
