MGK.pdb
     RDKit          3D

 22 21  0  0  1  0  0  0  0  0999 V2000
   26.9727  -18.6851   -7.6875 C   0  0  0  0  0  0  0  0  0  0  0  0
   26.9963  -20.4880   -7.7448 S   0  0  0  0  0  0  0  0  0  0  0  0
   26.8548  -21.1243   -9.4159 C   0  0  0  0  0  0  0  0  0  0  0  0
   25.6024  -20.6338  -10.1126 C   0  0  0  0  0  0  0  0  0  0  0  0
   25.5106  -21.2566  -11.4957 C   0  0  2  0  0  0  0  0  0  0  0  0
   26.4647  -22.3349  -11.6480 N   0  0  0  0  0  0  0  0  0  0  0  0
   25.8606  -20.1890  -12.4649 C   0  0  0  0  0  0  0  0  0  0  0  0
   25.0363  -19.3069  -12.7743 O   0  0  0  0  0  0  0  0  0  0  0  0
   27.1616  -20.2156  -13.0189 N   0  0  0  0  0  0  0  0  0  0  0  0
   27.5607  -19.2442  -14.0043 C   0  0  0  0  0  0  0  0  0  0  0  0
   26.6722  -19.2872  -15.2084 C   0  0  0  0  0  0  0  0  0  0  0  0
   26.8745  -20.1536  -16.1251 O   0  0  0  0  0  0  0  0  0  0  0  0
   25.6048  -18.3928  -15.3690 N   0  0  0  0  0  0  0  0  0  0  0  0
   24.6536  -18.4636  -16.5181 C   0  0  1  0  0  0  0  0  0  0  0  0
   23.3063  -18.6616  -16.0201 C   0  0  0  0  0  0  0  0  0  0  0  0
   22.0823  -18.7288  -16.7938 C   0  0  0  0  0  0  0  0  0  0  0  0
   20.7739  -18.9271  -16.1050 C   0  0  0  0  0  0  0  0  0  0  0  0
   19.5468  -19.1375  -16.8822 C   0  0  0  0  0  0  0  0  0  0  0  0
   18.3438  -19.1985  -16.0559 N   0  0  0  0  0  0  0  0  0  0  0  0
   24.9513  -17.2817  -17.3242 C   0  0  0  0  0  0  0  0  0  0  0  0
   24.6548  -17.2836  -18.6859 O   0  0  0  0  0  0  0  0  0  0  0  0
   25.4624  -16.1996  -16.9660 O   0  0  0  0  0  0  0  0  0  0  0  0
  2  1  1  0
  3  2  1  0
  4  3  1  0
  4  5  1  0
  5  6  1  1
  7  5  1  0
  7  8  2  0
  9  7  1  0
 10  9  1  0
 10 11  1  0
 11 13  1  0
 12 11  2  0
 13 14  1  0
 14 20  1  0
 14 15  1  1
 15 16  1  0
 16 17  1  0
 18 17  1  0
 19 18  1  0
 20 21  1  0
 22 20  2  0
M  END
$$$$
