MGK.pdb
     RDKit          3D

 22 21  0  0  1  0  0  0  0  0999 V2000
   28.5534  -19.9166   -4.1311 C   0  0  0  0  0  0  0  0  0  0  0  0
   28.2413  -19.7627   -5.9011 S   0  0  0  0  0  0  0  0  0  0  0  0
   26.6905  -20.5178   -6.3936 C   0  0  0  0  0  0  0  0  0  0  0  0
   26.7644  -21.1303   -7.7771 C   0  0  0  0  0  0  0  0  0  0  0  0
   26.4034  -20.0841   -8.8184 C   0  0  2  0  0  0  0  0  0  0  0  0
   24.9908  -20.1255   -9.1333 N   0  0  0  0  0  0  0  0  0  0  0  0
   27.1613  -20.4296  -10.0462 C   0  0  0  0  0  0  0  0  0  0  0  0
   28.4076  -20.4341  -10.0519 O   0  0  0  0  0  0  0  0  0  0  0  0
   26.4131  -20.7514  -11.2025 N   0  0  0  0  0  0  0  0  0  0  0  0
   27.0730  -21.0133  -12.4555 C   0  0  0  0  0  0  0  0  0  0  0  0
   26.0865  -21.2678  -13.5524 C   0  0  0  0  0  0  0  0  0  0  0  0
   26.4928  -21.4833  -14.7442 O   0  0  0  0  0  0  0  0  0  0  0  0
   24.7052  -21.2781  -13.3136 N   0  0  0  0  0  0  0  0  0  0  0  0
   23.6955  -21.4406  -14.4018 C   0  0  1  0  0  0  0  0  0  0  0  0
   23.0106  -22.7086  -14.2415 C   0  0  0  0  0  0  0  0  0  0  0  0
   21.9479  -23.2462  -15.0679 C   0  0  0  0  0  0  0  0  0  0  0  0
   21.3456  -24.5712  -14.7406 C   0  0  0  0  0  0  0  0  0  0  0  0
   20.3348  -25.1686  -15.6213 C   0  0  0  0  0  0  0  0  0  0  0  0
   19.9837  -26.5374  -15.2515 N   0  0  0  0  0  0  0  0  0  0  0  0
   22.9205  -20.2020  -14.3819 C   0  0  0  0  0  0  0  0  0  0  0  0
   22.5980  -19.5713  -15.5819 O   0  0  0  0  0  0  0  0  0  0  0  0
   22.4716  -19.5765  -13.3981 O   0  0  0  0  0  0  0  0  0  0  0  0
  2  1  1  0
  3  2  1  0
  4  3  1  0
  4  5  1  0
  5  6  1  6
  7  5  1  0
  7  8  2  0
  9  7  1  0
 10  9  1  0
 10 11  1  0
 11 13  1  0
 12 11  2  0
 13 14  1  0
 14 20  1  0
 14 15  1  1
 15 16  1  0
 16 17  1  0
 18 17  1  0
 19 18  1  0
 20 21  1  0
 22 20  2  0
M  END
$$$$
