MGK.pdb
     RDKit          3D

 22 21  0  0  1  0  0  0  0  0999 V2000
   30.9653  -21.1850  -11.4820 C   0  0  0  0  0  0  0  0  0  0  0  0
   30.4318  -21.1789   -9.7588 S   0  0  0  0  0  0  0  0  0  0  0  0
   28.7507  -20.5851   -9.5621 C   0  0  0  0  0  0  0  0  0  0  0  0
   27.9390  -20.7284  -10.8331 C   0  0  0  0  0  0  0  0  0  0  0  0
   26.5662  -20.1079  -10.6346 C   0  0  2  0  0  0  0  0  0  0  0  0
   25.7953  -20.8457   -9.6559 N   0  0  0  0  0  0  0  0  0  0  0  0
   25.8667  -20.2009  -11.9398 C   0  0  0  0  0  0  0  0  0  0  0  0
   26.3719  -19.7242  -12.9747 O   0  0  0  0  0  0  0  0  0  0  0  0
   24.6101  -20.8496  -11.9587 N   0  0  0  0  0  0  0  0  0  0  0  0
   23.8553  -20.9540  -13.1807 C   0  0  0  0  0  0  0  0  0  0  0  0
   24.3643  -22.0640  -14.0467 C   0  0  0  0  0  0  0  0  0  0  0  0
   24.8694  -23.1113  -13.5176 O   0  0  0  0  0  0  0  0  0  0  0  0
   24.3054  -21.9936  -15.4455 N   0  0  0  0  0  0  0  0  0  0  0  0
   24.6157  -23.1565  -16.3296 C   0  0  1  0  0  0  0  0  0  0  0  0
   23.8732  -23.0342  -17.5691 C   0  0  0  0  0  0  0  0  0  0  0  0
   22.4344  -23.0705  -17.7412 C   0  0  0  0  0  0  0  0  0  0  0  0
   21.8411  -22.9118  -19.1007 C   0  0  0  0  0  0  0  0  0  0  0  0
   20.3848  -22.8644  -19.2776 C   0  0  0  0  0  0  0  0  0  0  0  0
   19.9792  -22.6047  -20.6566 N   0  0  0  0  0  0  0  0  0  0  0  0
   26.0751  -23.2150  -16.3733 C   0  0  0  0  0  0  0  0  0  0  0  0
   26.8128  -22.0328  -16.3711 O   0  0  0  0  0  0  0  0  0  0  0  0
   26.8162  -24.2198  -16.4153 O   0  0  0  0  0  0  0  0  0  0  0  0
  2  1  1  0
  3  2  1  0
  4  3  1  0
  4  5  1  0
  5  6  1  1
  7  5  1  0
  7  8  2  0
  9  7  1  0
 10  9  1  0
 10 11  1  0
 11 13  1  0
 12 11  2  0
 13 14  1  0
 14 20  1  0
 14 15  1  6
 15 16  1  0
 16 17  1  0
 18 17  1  0
 19 18  1  0
 20 21  1  0
 22 20  2  0
M  END
$$$$
