MGK.pdb
     RDKit          3D

 22 21  0  0  1  0  0  0  0  0999 V2000
   27.8319  -20.0421   -3.5652 C   0  0  0  0  0  0  0  0  0  0  0  0
   28.8388  -18.7736   -4.3597 S   0  0  0  0  0  0  0  0  0  0  0  0
   28.4123  -18.5393   -6.0862 C   0  0  0  0  0  0  0  0  0  0  0  0
   27.7278  -19.7541   -6.6781 C   0  0  0  0  0  0  0  0  0  0  0  0
   27.3976  -19.4930   -8.1383 C   0  0  2  0  0  0  0  0  0  0  0  0
   26.4484  -18.4081   -8.2738 N   0  0  0  0  0  0  0  0  0  0  0  0
   26.7633  -20.7299   -8.6568 C   0  0  0  0  0  0  0  0  0  0  0  0
   27.3759  -21.8154   -8.6548 O   0  0  0  0  0  0  0  0  0  0  0  0
   25.4421  -20.6248   -9.1504 N   0  0  0  0  0  0  0  0  0  0  0  0
   24.7549  -21.7819   -9.6630 C   0  0  0  0  0  0  0  0  0  0  0  0
   24.6314  -21.7306  -11.1541 C   0  0  0  0  0  0  0  0  0  0  0  0
   23.8730  -22.5579  -11.7644 O   0  0  0  0  0  0  0  0  0  0  0  0
   25.3324  -20.7886  -11.9198 N   0  0  0  0  0  0  0  0  0  0  0  0
   25.4101  -20.8509  -13.4098 C   0  0  1  0  0  0  0  0  0  0  0  0
   24.7242  -19.7072  -13.9788 C   0  0  0  0  0  0  0  0  0  0  0  0
   23.2935  -19.5124  -14.1073 C   0  0  0  0  0  0  0  0  0  0  0  0
   22.7641  -18.2970  -14.7915 C   0  0  0  0  0  0  0  0  0  0  0  0
   21.3176  -18.0852  -14.9212 C   0  0  0  0  0  0  0  0  0  0  0  0
   20.9753  -16.8217  -15.5694 N   0  0  0  0  0  0  0  0  0  0  0  0
   26.8273  -21.0532  -13.7029 C   0  0  0  0  0  0  0  0  0  0  0  0
   27.2289  -21.3257  -15.0092 O   0  0  0  0  0  0  0  0  0  0  0  0
   27.8001  -21.0191  -12.9200 O   0  0  0  0  0  0  0  0  0  0  0  0
  2  1  1  0
  3  2  1  0
  4  3  1  0
  4  5  1  0
  5  6  1  1
  7  5  1  0
  7  8  2  0
  9  7  1  0
 10  9  1  0
 10 11  1  0
 11 13  1  0
 12 11  2  0
 13 14  1  0
 14 20  1  0
 14 15  1  6
 15 16  1  0
 16 17  1  0
 18 17  1  0
 19 18  1  0
 20 21  1  0
 22 20  2  0
M  END
$$$$
