MGK.pdb
     RDKit          3D

 22 21  0  0  1  0  0  0  0  0999 V2000
   29.5196  -19.8308   -5.1043 C   0  0  0  0  0  0  0  0  0  0  0  0
   27.8326  -20.1686   -4.5622 S   0  0  0  0  0  0  0  0  0  0  0  0
   26.6203  -19.8377   -5.8422 C   0  0  0  0  0  0  0  0  0  0  0  0
   27.0940  -20.2835   -7.2102 C   0  0  0  0  0  0  0  0  0  0  0  0
   26.0221  -19.9829   -8.2445 C   0  0  2  0  0  0  0  0  0  0  0  0
   24.8336  -20.7764   -8.0116 N   0  0  0  0  0  0  0  0  0  0  0  0
   26.5848  -20.3686   -9.5620 C   0  0  0  0  0  0  0  0  0  0  0  0
   27.6067  -19.8142  -10.0112 O   0  0  0  0  0  0  0  0  0  0  0  0
   25.9158  -21.3860  -10.2816 N   0  0  0  0  0  0  0  0  0  0  0  0
   26.3003  -21.7053  -11.6322 C   0  0  0  0  0  0  0  0  0  0  0  0
   25.6912  -20.7546  -12.6153 C   0  0  0  0  0  0  0  0  0  0  0  0
   25.5292  -19.5261  -12.3047 O   0  0  0  0  0  0  0  0  0  0  0  0
   25.2840  -21.1728  -13.8897 N   0  0  0  0  0  0  0  0  0  0  0  0
   24.6897  -20.2437  -14.8965 C   0  0  1  0  0  0  0  0  0  0  0  0
   25.5911  -20.1109  -16.0245 C   0  0  0  0  0  0  0  0  0  0  0  0
   26.9947  -20.4694  -16.0773 C   0  0  0  0  0  0  0  0  0  0  0  0
   27.3948  -21.8803  -16.3509 C   0  0  0  0  0  0  0  0  0  0  0  0
   28.8128  -22.2513  -16.4284 C   0  0  0  0  0  0  0  0  0  0  0  0
   29.0309  -23.6955  -16.4517 N   0  0  0  0  0  0  0  0  0  0  0  0
   23.3363  -20.7479  -15.1186 C   0  0  0  0  0  0  0  0  0  0  0  0
   22.3900  -19.9330  -15.7370 O   0  0  0  0  0  0  0  0  0  0  0  0
   22.8598  -21.8644  -14.8238 O   0  0  0  0  0  0  0  0  0  0  0  0
  2  1  1  0
  3  2  1  0
  4  3  1  0
  4  5  1  0
  5  6  1  1
  7  5  1  0
  7  8  2  0
  9  7  1  0
 10  9  1  0
 10 11  1  0
 11 13  1  0
 12 11  2  0
 13 14  1  0
 14 20  1  0
 14 15  1  6
 15 16  1  0
 16 17  1  0
 18 17  1  0
 19 18  1  0
 20 21  1  0
 22 20  2  0
M  END
$$$$
