MGK.pdb
     RDKit          3D

 22 21  0  0  1  0  0  0  0  0999 V2000
   27.5224  -19.3818   -4.1314 C   0  0  0  0  0  0  0  0  0  0  0  0
   28.0400  -19.5945   -5.8463 S   0  0  0  0  0  0  0  0  0  0  0  0
   26.6502  -19.7656   -6.9673 C   0  0  0  0  0  0  0  0  0  0  0  0
   27.0912  -19.9311   -8.4071 C   0  0  0  0  0  0  0  0  0  0  0  0
   25.8709  -20.0687   -9.3020 C   0  0  2  0  0  0  0  0  0  0  0  0
   25.1443  -21.2869   -9.0117 N   0  0  0  0  0  0  0  0  0  0  0  0
   26.3746  -20.1516  -10.6952 C   0  0  0  0  0  0  0  0  0  0  0  0
   26.6093  -19.1211  -11.3557 O   0  0  0  0  0  0  0  0  0  0  0  0
   26.5757  -21.4422  -11.2376 N   0  0  0  0  0  0  0  0  0  0  0  0
   26.9711  -21.6081  -12.6124 C   0  0  0  0  0  0  0  0  0  0  0  0
   25.8218  -22.0489  -13.4644 C   0  0  0  0  0  0  0  0  0  0  0  0
   25.4709  -23.2771  -13.4838 O   0  0  0  0  0  0  0  0  0  0  0  0
   25.1027  -21.1440  -14.2575 N   0  0  0  0  0  0  0  0  0  0  0  0
   23.6141  -21.0338  -14.2151 C   0  0  1  0  0  0  0  0  0  0  0  0
   23.1834  -20.8157  -12.8478 C   0  0  0  0  0  0  0  0  0  0  0  0
   22.1509  -21.5317  -12.1248 C   0  0  0  0  0  0  0  0  0  0  0  0
   20.7588  -21.5751  -12.6593 C   0  0  0  0  0  0  0  0  0  0  0  0
   19.7278  -22.3766  -11.9893 C   0  0  0  0  0  0  0  0  0  0  0  0
   18.4485  -22.3771  -12.6945 N   0  0  0  0  0  0  0  0  0  0  0  0
   23.2825  -20.0421  -15.2358 C   0  0  0  0  0  0  0  0  0  0  0  0
   22.1563  -20.2261  -16.0355 O   0  0  0  0  0  0  0  0  0  0  0  0
   23.8857  -18.9873  -15.5260 O   0  0  0  0  0  0  0  0  0  0  0  0
  2  1  1  0
  3  2  1  0
  4  3  1  0
  4  5  1  0
  5  6  1  1
  7  5  1  0
  7  8  2  0
  9  7  1  0
 10  9  1  0
 10 11  1  0
 11 13  1  0
 12 11  2  0
 13 14  1  0
 14 20  1  0
 14 15  1  1
 15 16  1  0
 16 17  1  0
 18 17  1  0
 19 18  1  0
 20 21  1  0
 22 20  2  0
M  END
$$$$
