RYP.pdb
     RDKit          3D

 31 32  0  0  1  0  0  0  0  0999 V2000
    9.9263  -18.3755   15.3632 N   0  0  0  0  0  0  0  0  0  0  0  0
    9.3420  -18.1661   16.6524 C   0  0  0  0  0  0  0  0  0  0  0  0
    9.2021  -19.1887   17.4253 N   0  0  0  0  0  0  0  0  0  0  0  0
    8.9261  -16.8629   17.0698 N   0  0  0  0  0  0  0  0  0  0  0  0
    7.9344  -16.1344   16.3028 C   0  0  0  0  0  0  0  0  0  0  0  0
    7.0134  -15.3439   17.2430 C   0  0  0  0  0  0  0  0  0  0  0  0
    7.7823  -15.1173   18.5034 C   0  0  0  0  0  0  0  0  0  0  0  0
    7.3985  -13.8805   19.2525 C   0  0  2  0  0  0  0  0  0  0  0  0
    7.9183  -12.7399   18.4948 N   0  0  0  0  0  0  0  0  0  0  0  0
    7.9619  -13.8060   20.6179 C   0  0  0  0  0  0  0  0  0  0  0  0
    9.1916  -13.6158   20.7787 O   0  0  0  0  0  0  0  0  0  0  0  0
    8.8168  -19.0497   18.3663 O   0  0  0  0  0  0  0  0  0  0  0  0
    8.0589  -13.4994   29.4966 C   0  0  0  0  0  0  0  0  0  0  0  0
    7.7418  -13.4419   28.1341 C   0  0  0  0  0  0  0  0  0  0  0  0
    8.2014  -12.4109   27.3597 C   0  0  0  0  0  0  0  0  0  0  0  0
    7.8876  -12.3564   26.0175 C   0  0  0  0  0  0  0  0  0  0  0  0
    7.1106  -13.3283   25.4249 C   0  0  0  0  0  0  0  0  0  0  0  0
    6.7854  -13.2608   24.0055 C   0  0  1  0  0  0  0  0  0  0  0  0
    7.7492  -13.9864   23.0843 N   0  0  0  0  0  0  0  0  0  0  0  0
    7.1523  -13.9438   21.7749 C   0  0  0  0  0  0  0  0  0  0  0  0
    8.1116  -15.3237   23.4877 O   0  0  0  0  0  0  0  0  0  0  0  0
    7.3290  -16.2508   23.0394 C   0  0  0  0  0  0  0  0  0  0  0  0
    6.6563  -14.3596   26.2205 C   0  0  0  0  0  0  0  0  0  0  0  0
    6.9588  -14.4323   27.5636 N   0  0  0  0  0  0  0  0  0  0  0  0
    9.1767  -15.7714   24.2906 C   0  0  0  0  0  0  0  0  0  0  0  0
   10.2260  -15.0949   25.0006 C   0  0  0  0  0  0  0  0  0  0  0  0
   11.4201  -16.0359   24.8852 C   0  0  0  0  0  0  0  0  0  0  0  0
   10.8893  -17.3245   24.3481 C   0  0  2  0  0  0  0  0  0  0  0  0
    9.4220  -17.2070   24.6114 C   0  0  0  0  0  0  0  0  0  0  0  0
    9.1283  -17.5102   26.0115 O   0  0  0  0  0  0  0  0  0  0  0  0
    8.1025  -18.2537   26.2272 O   0  0  0  0  0  0  0  0  0  0  0  0
  2  1  1  0
  3  2  2  0
  4  2  1  0
  5  4  1  0
  6  5  1  0
  7  6  1  0
  8 10  1  0
  8  7  1  0
  8  9  1  6
 10 11  2  0
 12 13  1  0
 13 14  2  0
 14 15  1  0
 16 15  2  0
 16 17  1  0
 18 17  1  6
 19 18  1  0
 19 10  1  0
 20 18  1  0
 21 20  2  0
 22 16  1  0
 23 13  1  0
 23 22  2  0
 24 20  1  0
 24 28  1  0
 25 26  1  0
 25 24  1  0
 26 27  1  0
 28 27  1  0
 28 29  1  1
 29 31  1  0
 30 29  2  0
M  END
$$$$
