RYP.pdb
     RDKit          3D

 31 32  0  0  1  0  0  0  0  0999 V2000
    8.9046  -18.2402   14.2465 N   0  0  0  0  0  0  0  0  0  0  0  0
    7.9138  -17.2098   14.1838 C   0  0  0  0  0  0  0  0  0  0  0  0
    7.5186  -16.8222   13.0192 N   0  0  0  0  0  0  0  0  0  0  0  0
    7.3792  -16.6283   15.3761 N   0  0  0  0  0  0  0  0  0  0  0  0
    7.5789  -15.2189   15.6520 C   0  0  0  0  0  0  0  0  0  0  0  0
    8.8732  -15.0141   16.4520 C   0  0  0  0  0  0  0  0  0  0  0  0
    8.5284  -15.2403   17.8877 C   0  0  0  0  0  0  0  0  0  0  0  0
    7.9936  -14.0361   18.5963 C   0  0  2  0  0  0  0  0  0  0  0  0
    8.5274  -12.8590   17.9072 N   0  0  0  0  0  0  0  0  0  0  0  0
    8.3975  -13.9460   20.0162 C   0  0  0  0  0  0  0  0  0  0  0  0
    9.5136  -13.4603   20.3205 O   0  0  0  0  0  0  0  0  0  0  0  0
    6.9030  -16.0038   12.9519 O   0  0  0  0  0  0  0  0  0  0  0  0
    7.4086  -12.8606   28.7048 C   0  0  0  0  0  0  0  0  0  0  0  0
    7.2663  -13.0190   27.3210 C   0  0  0  0  0  0  0  0  0  0  0  0
    7.6370  -12.0147   26.4679 C   0  0  0  0  0  0  0  0  0  0  0  0
    7.4957  -12.1730   25.1049 C   0  0  0  0  0  0  0  0  0  0  0  0
    6.9827  -13.3348   24.5694 C   0  0  0  0  0  0  0  0  0  0  0  0
    6.8382  -13.4915   23.1273 C   0  0  1  0  0  0  0  0  0  0  0  0
    7.9621  -14.2464   22.4413 N   0  0  0  0  0  0  0  0  0  0  0  0
    7.5575  -14.3954   21.0677 C   0  0  0  0  0  0  0  0  0  0  0  0
    8.3356  -15.5001   23.0507 O   0  0  0  0  0  0  0  0  0  0  0  0
    7.6761  -16.5252   22.6182 C   0  0  0  0  0  0  0  0  0  0  0  0
    6.6145  -14.3361   25.4440 C   0  0  0  0  0  0  0  0  0  0  0  0
    6.7477  -14.1974   26.8092 N   0  0  0  0  0  0  0  0  0  0  0  0
    9.2983  -15.7769   24.0386 C   0  0  0  0  0  0  0  0  0  0  0  0
   10.0670  -14.9471   24.9237 C   0  0  0  0  0  0  0  0  0  0  0  0
   11.4075  -15.6649   25.0362 C   0  0  0  0  0  0  0  0  0  0  0  0
   11.2158  -17.0121   24.4207 C   0  0  2  0  0  0  0  0  0  0  0  0
    9.7274  -17.1561   24.4097 C   0  0  0  0  0  0  0  0  0  0  0  0
    9.2414  -17.5397   25.7346 O   0  0  0  0  0  0  0  0  0  0  0  0
    8.6358  -16.6242   26.4030 O   0  0  0  0  0  0  0  0  0  0  0  0
  2  1  1  0
  3  2  2  0
  4  2  1  0
  5  4  1  0
  6  5  1  0
  7  6  1  0
  8 10  1  0
  8  7  1  0
  8  9  1  6
 10 11  2  0
 12 13  1  0
 13 14  2  0
 14 15  1  0
 16 15  2  0
 16 17  1  0
 18 17  1  6
 19 18  1  0
 19 10  1  0
 20 18  1  0
 21 20  2  0
 22 16  1  0
 23 13  1  0
 23 22  2  0
 24 20  1  0
 24 28  1  0
 25 26  1  0
 25 24  1  0
 26 27  1  0
 28 27  1  0
 28 29  1  1
 29 31  1  0
 30 29  2  0
M  END
$$$$
