RYP.pdb
     RDKit          3D

 31 32  0  0  1  0  0  0  0  0999 V2000
    8.8563  -11.8899   19.6515 N   0  0  0  0  0  0  0  0  0  0  0  0
    8.3222  -13.1534   19.2444 C   0  0  0  0  0  0  0  0  0  0  0  0
    8.3203  -13.4307   17.9852 N   0  0  0  0  0  0  0  0  0  0  0  0
    7.8065  -14.0791   20.2050 N   0  0  0  0  0  0  0  0  0  0  0  0
    7.9703  -15.5056   20.0027 C   0  0  0  0  0  0  0  0  0  0  0  0
    6.5992  -16.1808   19.8572 C   0  0  0  0  0  0  0  0  0  0  0  0
    6.7799  -17.6068   20.2636 C   0  0  0  0  0  0  0  0  0  0  0  0
    7.5324  -17.7987   21.5422 C   0  0  2  0  0  0  0  0  0  0  0  0
    7.6090  -19.2412   21.7841 N   0  0  0  0  0  0  0  0  0  0  0  0
    6.8844  -17.1805   22.7192 C   0  0  0  0  0  0  0  0  0  0  0  0
    5.7202  -17.5183   23.0429 O   0  0  0  0  0  0  0  0  0  0  0  0
    8.0554  -14.3762   17.6864 O   0  0  0  0  0  0  0  0  0  0  0  0
   11.2525  -19.2800   27.8951 C   0  0  0  0  0  0  0  0  0  0  0  0
   10.1151  -18.7017   27.3189 C   0  0  0  0  0  0  0  0  0  0  0  0
    9.6309  -17.5107   27.7890 C   0  0  0  0  0  0  0  0  0  0  0  0
    8.5100  -16.9429   27.2197 C   0  0  0  0  0  0  0  0  0  0  0  0
    7.8530  -17.5526   26.1727 C   0  0  0  0  0  0  0  0  0  0  0  0
    6.6695  -16.9434   25.5784 C   0  0  1  0  0  0  0  0  0  0  0  0
    6.9315  -15.7170   24.7234 N   0  0  0  0  0  0  0  0  0  0  0  0
    7.5388  -16.2023   23.5117 C   0  0  0  0  0  0  0  0  0  0  0  0
    7.7015  -14.6705   25.3516 O   0  0  0  0  0  0  0  0  0  0  0  0
    8.8923  -14.5171   24.8707 C   0  0  0  0  0  0  0  0  0  0  0  0
    8.3550  -18.7521   25.7120 C   0  0  0  0  0  0  0  0  0  0  0  0
    9.4737  -19.3359   26.2672 N   0  0  0  0  0  0  0  0  0  0  0  0
    7.3594  -13.7988   26.4017 C   0  0  0  0  0  0  0  0  0  0  0  0
    6.2662  -13.7602   27.3324 C   0  0  0  0  0  0  0  0  0  0  0  0
    6.0028  -12.2722   27.5354 C   0  0  0  0  0  0  0  0  0  0  0  0
    7.1545  -11.5529   26.9136 C   0  0  1  0  0  0  0  0  0  0  0  0
    8.1891  -12.6271   26.8053 C   0  0  0  0  0  0  0  0  0  0  0  0
    8.8412  -12.8404   28.0967 O   0  0  0  0  0  0  0  0  0  0  0  0
    8.4887  -13.8943   28.7423 O   0  0  0  0  0  0  0  0  0  0  0  0
  2  1  1  0
  3  2  2  0
  4  2  1  0
  5  4  1  0
  6  5  1  0
  7  6  1  0
  8 10  1  0
  8  7  1  0
  8  9  1  1
 10 11  2  0
 12 13  1  0
 13 14  2  0
 14 15  1  0
 16 15  2  0
 16 17  1  0
 18 17  1  6
 19 18  1  0
 19 10  1  0
 20 18  1  0
 21 20  2  0
 22 16  1  0
 23 13  1  0
 23 22  2  0
 24 20  1  0
 24 28  1  0
 25 26  1  0
 25 24  1  0
 26 27  1  0
 28 27  1  0
 28 29  1  1
 29 31  1  0
 30 29  2  0
M  END
$$$$
