RYP.pdb
     RDKit          3D

 31 32  0  0  1  0  0  0  0  0999 V2000
   10.5598  -20.3482   18.0078 N   0  0  0  0  0  0  0  0  0  0  0  0
    9.3329  -19.7965   17.5202 C   0  0  0  0  0  0  0  0  0  0  0  0
    8.8123  -20.3217   16.4638 N   0  0  0  0  0  0  0  0  0  0  0  0
    8.7045  -18.6966   18.1842 N   0  0  0  0  0  0  0  0  0  0  0  0
    8.7216  -18.6136   19.6317 C   0  0  0  0  0  0  0  0  0  0  0  0
    9.9433  -19.3569   20.1904 C   0  0  0  0  0  0  0  0  0  0  0  0
   10.5662  -18.4539   21.2041 C   0  0  0  0  0  0  0  0  0  0  0  0
   10.5114  -16.9993   20.8587 C   0  0  2  0  0  0  0  0  0  0  0  0
   11.7830  -16.6619   20.2148 N   0  0  0  0  0  0  0  0  0  0  0  0
   10.3514  -16.1095   22.0291 C   0  0  0  0  0  0  0  0  0  0  0  0
   11.3636  -15.6930   22.6424 O   0  0  0  0  0  0  0  0  0  0  0  0
    7.9196  -19.9538   16.1160 O   0  0  0  0  0  0  0  0  0  0  0  0
    6.0905  -11.4128   28.2733 C   0  0  0  0  0  0  0  0  0  0  0  0
    6.4751  -12.1047   27.1185 C   0  0  0  0  0  0  0  0  0  0  0  0
    7.1566  -11.4609   26.1210 C   0  0  0  0  0  0  0  0  0  0  0  0
    7.5345  -12.1447   24.9841 C   0  0  0  0  0  0  0  0  0  0  0  0
    7.2394  -13.4813   24.8224 C   0  0  0  0  0  0  0  0  0  0  0  0
    7.6439  -14.1940   23.6168 C   0  0  1  0  0  0  0  0  0  0  0  0
    8.9473  -14.9642   23.7255 N   0  0  0  0  0  0  0  0  0  0  0  0
    9.0752  -15.7005   22.4950 C   0  0  0  0  0  0  0  0  0  0  0  0
    9.0820  -15.8025   24.8924 O   0  0  0  0  0  0  0  0  0  0  0  0
    8.9191  -17.0659   24.6681 C   0  0  0  0  0  0  0  0  0  0  0  0
    6.5522  -14.1137   25.8376 C   0  0  0  0  0  0  0  0  0  0  0  0
    6.1658  -13.4482   26.9815 N   0  0  0  0  0  0  0  0  0  0  0  0
    9.3587  -15.4592   26.2284 C   0  0  0  0  0  0  0  0  0  0  0  0
    9.0904  -14.2916   27.0205 C   0  0  0  0  0  0  0  0  0  0  0  0
   10.3028  -14.1776   27.9380 C   0  0  0  0  0  0  0  0  0  0  0  0
   11.0589  -15.4578   27.7961 C   0  0  2  0  0  0  0  0  0  0  0  0
   10.0415  -16.3713   27.1907 C   0  0  0  0  0  0  0  0  0  0  0  0
    9.1245  -16.8662   28.2167 O   0  0  0  0  0  0  0  0  0  0  0  0
    7.9317  -16.3886   28.1885 O   0  0  0  0  0  0  0  0  0  0  0  0
  2  1  1  0
  3  2  2  0
  4  2  1  0
  5  4  1  0
  6  5  1  0
  7  6  1  0
  8 10  1  0
  8  7  1  0
  8  9  1  1
 10 11  2  0
 12 13  1  0
 13 14  2  0
 14 15  1  0
 16 15  2  0
 16 17  1  0
 18 17  1  6
 19 18  1  0
 19 10  1  0
 20 18  1  0
 21 20  2  0
 22 16  1  0
 23 13  1  0
 23 22  2  0
 24 20  1  0
 24 28  1  0
 25 26  1  0
 25 24  1  0
 26 27  1  0
 28 27  1  0
 28 29  1  1
 29 31  1  0
 30 29  2  0
M  END
$$$$
