RYP.pdb
     RDKit          3D

 31 32  0  0  1  0  0  0  0  0999 V2000
    9.3623  -13.4673   13.4043 N   0  0  0  0  0  0  0  0  0  0  0  0
    9.0995  -14.2040   14.6024 C   0  0  0  0  0  0  0  0  0  0  0  0
    9.0601  -15.4905   14.5239 N   0  0  0  0  0  0  0  0  0  0  0  0
    8.8869  -13.5336   15.8478 N   0  0  0  0  0  0  0  0  0  0  0  0
    8.4063  -14.2718   16.9996 C   0  0  0  0  0  0  0  0  0  0  0  0
    9.5783  -14.9587   17.7150 C   0  0  0  0  0  0  0  0  0  0  0  0
    9.5571  -14.4774   19.1289 C   0  0  0  0  0  0  0  0  0  0  0  0
    9.9118  -15.5164   20.1451 C   0  0  2  0  0  0  0  0  0  0  0  0
    8.9680  -16.6236   19.9760 N   0  0  0  0  0  0  0  0  0  0  0  0
    9.8080  -15.0484   21.5443 C   0  0  0  0  0  0  0  0  0  0  0  0
   10.6495  -14.2352   21.9970 O   0  0  0  0  0  0  0  0  0  0  0  0
    9.0346  -16.0393   15.3907 O   0  0  0  0  0  0  0  0  0  0  0  0
    5.8238  -12.1703   28.8150 C   0  0  0  0  0  0  0  0  0  0  0  0
    6.1749  -12.7193   27.5758 C   0  0  0  0  0  0  0  0  0  0  0  0
    6.0243  -14.0602   27.3455 C   0  0  0  0  0  0  0  0  0  0  0  0
    6.3709  -14.5988   26.1238 C   0  0  0  0  0  0  0  0  0  0  0  0
    6.8735  -13.8100   25.1114 C   0  0  0  0  0  0  0  0  0  0  0  0
    7.2363  -14.3898   23.8240 C   0  0  1  0  0  0  0  0  0  0  0  0
    8.6477  -14.9411   23.7359 N   0  0  0  0  0  0  0  0  0  0  0  0
    8.7755  -15.4904   22.4113 C   0  0  0  0  0  0  0  0  0  0  0  0
    9.0164  -15.8816   24.7665 O   0  0  0  0  0  0  0  0  0  0  0  0
    8.9984  -17.1203   24.3949 C   0  0  0  0  0  0  0  0  0  0  0  0
    7.0184  -12.4611   25.3612 C   0  0  0  0  0  0  0  0  0  0  0  0
    6.6778  -11.9036   26.5752 N   0  0  0  0  0  0  0  0  0  0  0  0
    9.3874  -15.6601   26.1054 C   0  0  0  0  0  0  0  0  0  0  0  0
    9.1634  -14.5780   27.0228 C   0  0  0  0  0  0  0  0  0  0  0  0
   10.4393  -14.5264   27.8560 C   0  0  0  0  0  0  0  0  0  0  0  0
   11.1998  -15.7718   27.5377 C   0  0  1  0  0  0  0  0  0  0  0  0
   10.1523  -16.6447   26.9237 C   0  0  0  0  0  0  0  0  0  0  0  0
    9.3211  -17.2527   27.9620 O   0  0  0  0  0  0  0  0  0  0  0  0
    8.0871  -16.8943   27.9820 O   0  0  0  0  0  0  0  0  0  0  0  0
  2  1  1  0
  3  2  2  0
  4  2  1  0
  5  4  1  0
  6  5  1  0
  7  6  1  0
  8 10  1  0
  8  7  1  0
  8  9  1  1
 10 11  2  0
 12 13  1  0
 13 14  2  0
 14 15  1  0
 16 15  2  0
 16 17  1  0
 18 17  1  6
 19 18  1  0
 19 10  1  0
 20 18  1  0
 21 20  2  0
 22 16  1  0
 23 13  1  0
 23 22  2  0
 24 20  1  0
 24 28  1  0
 25 26  1  0
 25 24  1  0
 26 27  1  0
 28 27  1  0
 28 29  1  1
 29 31  1  0
 30 29  2  0
M  END
$$$$
