RYP.pdb
     RDKit          3D

 31 32  0  0  1  0  0  0  0  0999 V2000
    8.2842  -14.5398   13.2877 N   0  0  0  0  0  0  0  0  0  0  0  0
    8.6690  -15.7099   14.0156 C   0  0  0  0  0  0  0  0  0  0  0  0
    9.8779  -16.1368   13.8773 N   0  0  0  0  0  0  0  0  0  0  0  0
    7.7411  -16.3846   14.8696 N   0  0  0  0  0  0  0  0  0  0  0  0
    7.9336  -16.3743   16.3067 C   0  0  0  0  0  0  0  0  0  0  0  0
    8.5963  -15.0599   16.7429 C   0  0  0  0  0  0  0  0  0  0  0  0
    8.7597  -15.1352   18.2257 C   0  0  0  0  0  0  0  0  0  0  0  0
    7.9770  -14.1151   18.9905 C   0  0  2  0  0  0  0  0  0  0  0  0
    8.2264  -12.8181   18.3572 N   0  0  0  0  0  0  0  0  0  0  0  0
    8.3662  -14.0018   20.4128 C   0  0  0  0  0  0  0  0  0  0  0  0
    9.5148  -13.5995   20.7179 O   0  0  0  0  0  0  0  0  0  0  0  0
   10.2023  -16.9076   14.4722 O   0  0  0  0  0  0  0  0  0  0  0  0
    7.3780  -13.0644   29.1500 C   0  0  0  0  0  0  0  0  0  0  0  0
    7.2303  -13.1671   27.7616 C   0  0  0  0  0  0  0  0  0  0  0  0
    6.7127  -14.3046   27.2031 C   0  0  0  0  0  0  0  0  0  0  0  0
    6.5682  -14.4035   25.8348 C   0  0  0  0  0  0  0  0  0  0  0  0
    6.9372  -13.3703   25.0004 C   0  0  0  0  0  0  0  0  0  0  0  0
    6.7798  -13.4855   23.5558 C   0  0  1  0  0  0  0  0  0  0  0  0
    7.8938  -14.2267   22.8392 N   0  0  0  0  0  0  0  0  0  0  0  0
    7.4760  -14.3363   21.4658 C   0  0  0  0  0  0  0  0  0  0  0  0
    8.2666  -15.4982   23.4109 O   0  0  0  0  0  0  0  0  0  0  0  0
    7.5694  -16.5023   22.9884 C   0  0  0  0  0  0  0  0  0  0  0  0
    7.4567  -12.2318   25.5806 C   0  0  0  0  0  0  0  0  0  0  0  0
    7.6092  -12.1133   26.9457 N   0  0  0  0  0  0  0  0  0  0  0  0
    9.2634  -15.8114   24.3530 C   0  0  0  0  0  0  0  0  0  0  0  0
   10.0634  -15.0152   25.2411 C   0  0  0  0  0  0  0  0  0  0  0  0
   11.4066  -15.7358   25.2791 C   0  0  0  0  0  0  0  0  0  0  0  0
   11.1923  -17.0590   24.6204 C   0  0  1  0  0  0  0  0  0  0  0  0
    9.7043  -17.2033   24.6565 C   0  0  0  0  0  0  0  0  0  0  0  0
    9.2652  -17.6370   25.9822 O   0  0  0  0  0  0  0  0  0  0  0  0
    8.6667  -16.7533   26.6981 O   0  0  0  0  0  0  0  0  0  0  0  0
  2  1  1  0
  3  2  2  0
  4  2  1  0
  5  4  1  0
  6  5  1  0
  7  6  1  0
  8 10  1  0
  8  7  1  0
  8  9  1  6
 10 11  2  0
 12 13  1  0
 13 14  2  0
 14 15  1  0
 16 15  2  0
 16 17  1  0
 18 17  1  6
 19 18  1  0
 19 10  1  0
 20 18  1  0
 21 20  2  0
 22 16  1  0
 23 13  1  0
 23 22  2  0
 24 20  1  0
 24 28  1  0
 25 26  1  0
 25 24  1  0
 26 27  1  0
 28 27  1  0
 28 29  1  1
 29 31  1  0
 30 29  2  0
M  END
$$$$
