RYP.pdb
     RDKit          3D

 31 32  0  0  1  0  0  0  0  0999 V2000
    8.9952  -12.8362   17.7322 N   0  0  0  0  0  0  0  0  0  0  0  0
    8.1318  -13.2548   18.7936 C   0  0  0  0  0  0  0  0  0  0  0  0
    8.3442  -12.7730   19.9706 N   0  0  0  0  0  0  0  0  0  0  0  0
    7.0666  -14.1792   18.5555 N   0  0  0  0  0  0  0  0  0  0  0  0
    6.2097  -14.5997   19.6470 C   0  0  0  0  0  0  0  0  0  0  0  0
    6.9946  -15.4845   20.6259 C   0  0  0  0  0  0  0  0  0  0  0  0
    6.2503  -16.7756   20.7259 C   0  0  0  0  0  0  0  0  0  0  0  0
    6.8011  -17.7349   21.7331 C   0  0  2  0  0  0  0  0  0  0  0  0
    5.8759  -18.8684   21.7987 N   0  0  0  0  0  0  0  0  0  0  0  0
    6.9190  -17.1729   23.0961 C   0  0  0  0  0  0  0  0  0  0  0  0
    5.8868  -16.9543   23.7751 O   0  0  0  0  0  0  0  0  0  0  0  0
    7.7855  -13.1224   20.7573 O   0  0  0  0  0  0  0  0  0  0  0  0
   10.4571  -14.5353   30.7560 C   0  0  0  0  0  0  0  0  0  0  0  0
   10.2140  -15.0748   29.4871 C   0  0  0  0  0  0  0  0  0  0  0  0
   10.5201  -14.3595   28.3609 C   0  0  0  0  0  0  0  0  0  0  0  0
   10.2795  -14.8931   27.1118 C   0  0  0  0  0  0  0  0  0  0  0  0
    9.7298  -16.1484   26.9644 C   0  0  0  0  0  0  0  0  0  0  0  0
    9.4802  -16.7027   25.6394 C   0  0  2  0  0  0  0  0  0  0  0  0
    8.2495  -16.1642   24.9327 N   0  0  0  0  0  0  0  0  0  0  0  0
    8.1762  -16.8652   23.6773 C   0  0  0  0  0  0  0  0  0  0  0  0
    8.1976  -14.7308   24.7738 O   0  0  0  0  0  0  0  0  0  0  0  0
    8.6826  -14.2963   23.6563 C   0  0  0  0  0  0  0  0  0  0  0  0
    9.4278  -16.8548   28.1101 C   0  0  0  0  0  0  0  0  0  0  0  0
    9.6605  -16.3393   29.3674 N   0  0  0  0  0  0  0  0  0  0  0  0
    7.7064  -13.7394   25.6428 C   0  0  0  0  0  0  0  0  0  0  0  0
    7.1922  -13.7725   26.9834 C   0  0  0  0  0  0  0  0  0  0  0  0
    6.1045  -12.7041   26.9913 C   0  0  0  0  0  0  0  0  0  0  0  0
    6.2610  -11.9358   25.7201 C   0  0  1  0  0  0  0  0  0  0  0  0
    7.6499  -12.2905   25.2943 C   0  0  0  0  0  0  0  0  0  0  0  0
    8.6303  -11.5102   26.0482 O   0  0  0  0  0  0  0  0  0  0  0  0
    9.2883  -12.1466   26.9503 O   0  0  0  0  0  0  0  0  0  0  0  0
  2  1  1  0
  3  2  2  0
  4  2  1  0
  5  4  1  0
  6  5  1  0
  7  6  1  0
  8 10  1  0
  8  7  1  0
  8  9  1  1
 10 11  2  0
 12 13  1  0
 13 14  2  0
 14 15  1  0
 16 15  2  0
 16 17  1  0
 18 17  1  1
 19 18  1  0
 19 10  1  0
 20 18  1  0
 21 20  2  0
 22 16  1  0
 23 13  1  0
 23 22  2  0
 24 20  1  0
 24 28  1  0
 25 26  1  0
 25 24  1  0
 26 27  1  0
 28 27  1  0
 28 29  1  1
 29 31  1  0
 30 29  2  0
M  END
$$$$
