RYP.pdb
     RDKit          3D

 31 32  0  0  1  0  0  0  0  0999 V2000
    8.8979  -13.9483   15.8272 N   0  0  0  0  0  0  0  0  0  0  0  0
    8.2553  -14.1470   17.0901 C   0  0  0  0  0  0  0  0  0  0  0  0
    7.1028  -13.5989   17.2741 N   0  0  0  0  0  0  0  0  0  0  0  0
    8.8731  -14.9291   18.1159 N   0  0  0  0  0  0  0  0  0  0  0  0
    8.2232  -15.0869   19.4025 C   0  0  0  0  0  0  0  0  0  0  0  0
    6.7696  -15.5419   19.2092 C   0  0  0  0  0  0  0  0  0  0  0  0
    6.1587  -15.6103   20.5706 C   0  0  0  0  0  0  0  0  0  0  0  0
    6.6427  -16.7478   21.4131 C   0  0  2  0  0  0  0  0  0  0  0  0
    5.6922  -17.8483   21.2374 N   0  0  0  0  0  0  0  0  0  0  0  0
    6.7093  -16.4393   22.8581 C   0  0  0  0  0  0  0  0  0  0  0  0
    5.7136  -15.9447   23.4396 O   0  0  0  0  0  0  0  0  0  0  0  0
    6.6615  -13.6713   18.1979 O   0  0  0  0  0  0  0  0  0  0  0  0
   10.9396  -15.2552   30.6095 C   0  0  0  0  0  0  0  0  0  0  0  0
   10.4400  -15.7268   29.3896 C   0  0  0  0  0  0  0  0  0  0  0  0
    9.4859  -15.0168   28.7118 C   0  0  0  0  0  0  0  0  0  0  0  0
    8.9951  -15.4835   27.5101 C   0  0  0  0  0  0  0  0  0  0  0  0
    9.4469  -16.6656   26.9639 C   0  0  0  0  0  0  0  0  0  0  0  0
    8.9214  -17.1492   25.6931 C   0  0  1  0  0  0  0  0  0  0  0  0
    7.9757  -16.2005   24.9794 N   0  0  0  0  0  0  0  0  0  0  0  0
    7.8760  -16.6847   23.6272 C   0  0  0  0  0  0  0  0  0  0  0  0
    8.3261  -14.8021   25.0455 O   0  0  0  0  0  0  0  0  0  0  0  0
    9.1703  -14.4166   24.1447 C   0  0  0  0  0  0  0  0  0  0  0  0
   10.4084  -17.3677   27.6607 C   0  0  0  0  0  0  0  0  0  0  0  0
   10.9117  -16.9183   28.8629 N   0  0  0  0  0  0  0  0  0  0  0  0
    7.8958  -13.8006   25.9351 C   0  0  0  0  0  0  0  0  0  0  0  0
    7.1120  -13.8234   27.1383 C   0  0  0  0  0  0  0  0  0  0  0  0
    6.3168  -12.5234   27.0892 C   0  0  0  0  0  0  0  0  0  0  0  0
    6.9112  -11.7087   25.9875 C   0  0  2  0  0  0  0  0  0  0  0  0
    8.2428  -12.3581   25.7845 C   0  0  0  0  0  0  0  0  0  0  0  0
    9.1885  -11.9155   26.8085 O   0  0  0  0  0  0  0  0  0  0  0  0
    9.3339  -12.6946   27.8202 O   0  0  0  0  0  0  0  0  0  0  0  0
  2  1  1  0
  3  2  2  0
  4  2  1  0
  5  4  1  0
  6  5  1  0
  7  6  1  0
  8 10  1  0
  8  7  1  0
  8  9  1  1
 10 11  2  0
 12 13  1  0
 13 14  2  0
 14 15  1  0
 16 15  2  0
 16 17  1  0
 18 17  1  1
 19 18  1  0
 19 10  1  0
 20 18  1  0
 21 20  2  0
 22 16  1  0
 23 13  1  0
 23 22  2  0
 24 20  1  0
 24 28  1  0
 25 26  1  0
 25 24  1  0
 26 27  1  0
 28 27  1  0
 28 29  1  1
 29 31  1  0
 30 29  2  0
M  END
$$$$
