RKC.pdb
     RDKit          3D

 27 26  0  0  1  0  0  0  0  0999 V2000
   18.8880  -22.0632  -11.1984 N   0  0  0  0  0  0  0  0  0  0  0  0
   18.1735  -22.9977  -11.9852 C   0  0  0  0  0  0  0  0  0  0  0  0
   17.0019  -23.4182  -11.6619 N   0  0  0  0  0  0  0  0  0  0  0  0
   18.7813  -23.4876  -13.1800 N   0  0  0  0  0  0  0  0  0  0  0  0
   19.9577  -22.8154  -13.6941 C   0  0  0  0  0  0  0  0  0  0  0  0
   19.5594  -21.4726  -14.2103 C   0  0  0  0  0  0  0  0  0  0  0  0
   20.7281  -20.7732  -14.8325 C   0  0  0  0  0  0  0  0  0  0  0  0
   21.9799  -20.8280  -14.0156 C   0  0  2  0  0  0  0  0  0  0  0  0
   21.9802  -19.8772  -12.9270 N   0  0  0  0  0  0  0  0  0  0  0  0
   23.1286  -20.6246  -14.9332 C   0  0  0  0  0  0  0  0  0  0  0  0
   23.4104  -19.4439  -15.2582 O   0  0  0  0  0  0  0  0  0  0  0  0
   16.5308  -24.1595  -12.2126 N   0  0  0  0  0  0  0  0  0  0  0  0
   23.9177  -21.6784  -15.4580 C   0  0  2  0  0  0  0  0  0  0  0  0
   25.0041  -21.3980  -16.3986 C   0  0  0  0  0  0  0  0  0  0  0  0
   26.1033  -22.4213  -16.2345 C   0  0  0  0  0  0  0  0  0  0  0  0
   27.2461  -22.1926  -17.1581 C   0  0  0  0  0  0  0  0  0  0  0  0
   28.3840  -23.1545  -16.9272 C   0  0  0  0  0  0  0  0  0  0  0  0
   29.5007  -22.9557  -17.9014 N   0  0  0  0  0  0  0  0  0  0  0  0
   30.6914  -23.6825  -17.5802 C   0  0  0  0  0  0  0  0  0  0  0  0
   24.4837  -21.2942  -17.7810 O   0  0  0  0  0  0  0  0  0  0  0  0
   23.6018  -22.0864  -18.1888 N   0  0  0  0  0  0  0  0  0  0  0  0
   24.9666  -20.2979  -18.6823 C   0  0  1  0  0  0  0  0  0  0  0  0
   24.4592  -20.2644  -20.0181 C   0  0  0  0  0  0  0  0  0  0  0  0
   23.5689  -19.0722  -20.2817 S   0  0  0  0  0  0  0  0  0  0  0  0
   22.9655  -19.2305  -21.9928 C   0  0  0  0  0  0  0  0  0  0  0  0
   25.5811  -20.2499  -20.9855 O   0  0  0  0  0  0  0  0  0  0  0  0
   26.4971  -19.3894  -20.9566 O   0  0  0  0  0  0  0  0  0  0  0  0
  2  3  2  0
  2  1  1  0
  4  2  1  0
  5  4  1  0
  6  5  1  0
  7  6  1  0
  8  9  1  1
  8  7  1  0
 10 12  1  0
 10  8  1  0
 11 10  2  0
 13 12  1  0
 13 14  1  1
 14 15  1  0
 15 16  1  0
 16 17  1  0
 17 18  1  0
 19 13  1  0
 20 19  2  0
 21 19  1  0
 22 25  1  0
 22 21  1  0
 23 24  1  0
 22 23  1  6
 25 27  1  0
 26 25  2  0
M  END
$$$$
