RKC.pdb
     RDKit          3D

 27 26  0  0  1  0  0  0  0  0999 V2000
   28.6882  -23.2910  -16.2553 N   0  0  0  0  0  0  0  0  0  0  0  0
   28.5633  -24.6761  -16.5172 C   0  0  0  0  0  0  0  0  0  0  0  0
   29.5837  -25.4409  -16.6842 N   0  0  0  0  0  0  0  0  0  0  0  0
   27.2539  -25.2384  -16.5976 N   0  0  0  0  0  0  0  0  0  0  0  0
   26.1065  -24.3680  -16.4371 C   0  0  0  0  0  0  0  0  0  0  0  0
   25.5182  -24.5897  -15.0832 C   0  0  0  0  0  0  0  0  0  0  0  0
   24.3624  -23.6674  -14.8474 C   0  0  0  0  0  0  0  0  0  0  0  0
   24.7526  -22.2396  -14.6328 C   0  0  2  0  0  0  0  0  0  0  0  0
   25.6491  -22.0665  -13.5124 N   0  0  0  0  0  0  0  0  0  0  0  0
   23.5067  -21.4482  -14.4768 C   0  0  0  0  0  0  0  0  0  0  0  0
   22.9171  -21.5058  -13.3686 O   0  0  0  0  0  0  0  0  0  0  0  0
   29.4691  -26.4648  -16.8002 N   0  0  0  0  0  0  0  0  0  0  0  0
   22.9506  -20.6390  -15.4988 C   0  0  2  0  0  0  0  0  0  0  0  0
   21.7768  -19.8054  -15.2327 C   0  0  0  0  0  0  0  0  0  0  0  0
   21.9373  -18.4618  -15.9046 C   0  0  0  0  0  0  0  0  0  0  0  0
   20.7898  -17.5504  -15.6519 C   0  0  0  0  0  0  0  0  0  0  0  0
   20.6089  -16.5244  -16.7418 C   0  0  0  0  0  0  0  0  0  0  0  0
   19.4343  -15.6336  -16.4924 N   0  0  0  0  0  0  0  0  0  0  0  0
   19.2137  -14.6585  -17.5170 C   0  0  0  0  0  0  0  0  0  0  0  0
   20.5345  -20.5183  -15.6082 O   0  0  0  0  0  0  0  0  0  0  0  0
   20.4260  -21.0545  -16.7362 N   0  0  0  0  0  0  0  0  0  0  0  0
   19.4332  -20.6153  -14.7049 C   0  0  1  0  0  0  0  0  0  0  0  0
   18.2575  -21.3170  -15.1151 C   0  0  0  0  0  0  0  0  0  0  0  0
   18.1430  -22.6902  -14.4949 S   0  0  0  0  0  0  0  0  0  0  0  0
   18.2437  -22.4659  -12.6904 C   0  0  0  0  0  0  0  0  0  0  0  0
   17.0512  -20.5303  -14.7673 O   0  0  0  0  0  0  0  0  0  0  0  0
   17.0959  -19.4797  -14.0784 O   0  0  0  0  0  0  0  0  0  0  0  0
  2  3  2  0
  2  1  1  0
  4  2  1  0
  5  4  1  0
  6  5  1  0
  7  6  1  0
  8  9  1  1
  8  7  1  0
 10 12  1  0
 10  8  1  0
 11 10  2  0
 13 12  1  0
 13 14  1  1
 14 15  1  0
 15 16  1  0
 16 17  1  0
 17 18  1  0
 19 13  1  0
 20 19  2  0
 21 19  1  0
 22 25  1  0
 22 21  1  0
 23 24  1  0
 22 23  1  6
 25 27  1  0
 26 25  2  0
M  END
$$$$
