RKC.pdb
     RDKit          3D

 27 26  0  0  1  0  0  0  0  0999 V2000
   28.8591  -20.6330  -19.7820 N   0  0  0  0  0  0  0  0  0  0  0  0
   29.9813  -21.3656  -19.3275 C   0  0  0  0  0  0  0  0  0  0  0  0
   30.9659  -21.6672  -20.0980 N   0  0  0  0  0  0  0  0  0  0  0  0
   30.0153  -21.7820  -17.9627 N   0  0  0  0  0  0  0  0  0  0  0  0
   28.9001  -21.4470  -17.1000 C   0  0  0  0  0  0  0  0  0  0  0  0
   27.6999  -22.2168  -17.5419 C   0  0  0  0  0  0  0  0  0  0  0  0
   26.5808  -22.0690  -16.5581 C   0  0  0  0  0  0  0  0  0  0  0  0
   26.5906  -23.0872  -15.4624 C   0  0  2  0  0  0  0  0  0  0  0  0
   26.2773  -24.4178  -15.9318 N   0  0  0  0  0  0  0  0  0  0  0  0
   25.6470  -22.6306  -14.4116 C   0  0  0  0  0  0  0  0  0  0  0  0
   24.4714  -23.0721  -14.4551 O   0  0  0  0  0  0  0  0  0  0  0  0
   31.7603  -22.2354  -19.7502 N   0  0  0  0  0  0  0  0  0  0  0  0
   25.9955  -21.7328  -13.3719 C   0  0  2  0  0  0  0  0  0  0  0  0
   24.9921  -21.2923  -12.4009 C   0  0  0  0  0  0  0  0  0  0  0  0
   25.6637  -20.5552  -11.2659 C   0  0  0  0  0  0  0  0  0  0  0  0
   24.6928  -19.9886  -10.2925 C   0  0  0  0  0  0  0  0  0  0  0  0
   24.2373  -20.9975   -9.2687 C   0  0  0  0  0  0  0  0  0  0  0  0
   23.2361  -20.4263   -8.3164 N   0  0  0  0  0  0  0  0  0  0  0  0
   22.7745  -21.3544   -7.3291 C   0  0  0  0  0  0  0  0  0  0  0  0
   23.9237  -20.5159  -13.0703 O   0  0  0  0  0  0  0  0  0  0  0  0
   24.2022  -19.4779  -13.7160 N   0  0  0  0  0  0  0  0  0  0  0  0
   22.5569  -20.9226  -13.0011 C   0  0  1  0  0  0  0  0  0  0  0  0
   21.5685  -20.1595  -13.6965 C   0  0  0  0  0  0  0  0  0  0  0  0
   21.0181  -20.8724  -14.9099 S   0  0  0  0  0  0  0  0  0  0  0  0
   20.6638  -22.5851  -14.4019 C   0  0  0  0  0  0  0  0  0  0  0  0
   20.4491  -19.8296  -12.7838 O   0  0  0  0  0  0  0  0  0  0  0  0
   20.3760  -20.2654  -11.6069 O   0  0  0  0  0  0  0  0  0  0  0  0
  2  3  2  0
  2  1  1  0
  4  2  1  0
  5  4  1  0
  6  5  1  0
  7  6  1  0
  8  9  1  6
  8  7  1  0
 10 12  1  0
 10  8  1  0
 11 10  2  0
 13 12  1  0
 13 14  1  1
 14 15  1  0
 15 16  1  0
 16 17  1  0
 17 18  1  0
 19 13  1  0
 20 19  2  0
 21 19  1  0
 22 25  1  0
 22 21  1  0
 23 24  1  0
 22 23  1  1
 25 27  1  0
 26 25  2  0
M  END
$$$$
