RKC.pdb
     RDKit          3D

 27 26  0  0  1  0  0  0  0  0999 V2000
   19.4174  -24.1654  -10.9649 N   0  0  0  0  0  0  0  0  0  0  0  0
   19.3029  -25.5757  -10.9398 C   0  0  0  0  0  0  0  0  0  0  0  0
   19.1989  -26.2781  -12.0120 N   0  0  0  0  0  0  0  0  0  0  0  0
   19.3036  -26.2364   -9.6746 N   0  0  0  0  0  0  0  0  0  0  0  0
   18.3548  -25.8149   -8.6636 C   0  0  0  0  0  0  0  0  0  0  0  0
   18.7467  -24.4624   -8.1680 C   0  0  0  0  0  0  0  0  0  0  0  0
   18.3528  -24.2861   -6.7341 C   0  0  0  0  0  0  0  0  0  0  0  0
   17.1449  -25.0703   -6.3303 C   0  0  2  0  0  0  0  0  0  0  0  0
   16.0422  -24.9141   -7.2516 N   0  0  0  0  0  0  0  0  0  0  0  0
   16.7804  -24.6620   -4.9507 C   0  0  0  0  0  0  0  0  0  0  0  0
   17.7157  -24.4930   -4.1288 O   0  0  0  0  0  0  0  0  0  0  0  0
   19.1410  -27.3123  -11.9683 N   0  0  0  0  0  0  0  0  0  0  0  0
   15.4484  -24.4542   -4.5134 C   0  0  1  0  0  0  0  0  0  0  0  0
   15.1791  -23.8247   -3.2193 C   0  0  0  0  0  0  0  0  0  0  0  0
   13.9140  -23.0029   -3.3005 C   0  0  0  0  0  0  0  0  0  0  0  0
   13.6242  -22.2655   -2.0421 C   0  0  0  0  0  0  0  0  0  0  0  0
   12.3353  -21.4859   -2.1067 C   0  0  0  0  0  0  0  0  0  0  0  0
   11.9889  -20.8537   -0.7968 N   0  0  0  0  0  0  0  0  0  0  0  0
   10.7516  -20.1339   -0.8054 C   0  0  0  0  0  0  0  0  0  0  0  0
   15.1674  -24.8373   -2.1389 O   0  0  0  0  0  0  0  0  0  0  0  0
   14.7084  -25.9849   -2.3489 N   0  0  0  0  0  0  0  0  0  0  0  0
   15.6739  -24.5394   -0.8378 C   0  0  1  0  0  0  0  0  0  0  0  0
   15.5450  -25.5153    0.1985 C   0  0  0  0  0  0  0  0  0  0  0  0
   15.3966  -24.9021    1.5717 S   0  0  0  0  0  0  0  0  0  0  0  0
   16.5291  -25.8021    2.6781 C   0  0  0  0  0  0  0  0  0  0  0  0
   14.3761  -26.3856   -0.0683 O   0  0  0  0  0  0  0  0  0  0  0  0
   13.1976  -25.9510   -0.1171 O   0  0  0  0  0  0  0  0  0  0  0  0
  2  3  2  0
  2  1  1  0
  4  2  1  0
  5  4  1  0
  6  5  1  0
  7  6  1  0
  8  9  1  6
  8  7  1  0
 10 12  1  0
 10  8  1  0
 11 10  2  0
 13 12  1  0
 13 14  1  1
 14 15  1  0
 15 16  1  0
 16 17  1  0
 17 18  1  0
 19 13  1  0
 20 19  2  0
 21 19  1  0
 22 25  1  0
 22 21  1  0
 23 24  1  0
 22 23  1  1
 25 27  1  0
 26 25  2  0
M  END
$$$$
