RKC.pdb
     RDKit          3D

 27 26  0  0  1  0  0  0  0  0999 V2000
   19.9663  -20.1637  -12.4417 N   0  0  0  0  0  0  0  0  0  0  0  0
   20.6543  -20.4192  -13.6517 C   0  0  0  0  0  0  0  0  0  0  0  0
   21.3633  -19.5244  -14.2438 N   0  0  0  0  0  0  0  0  0  0  0  0
   20.5533  -21.7198  -14.2308 N   0  0  0  0  0  0  0  0  0  0  0  0
   19.6615  -22.6888  -13.6260 C   0  0  0  0  0  0  0  0  0  0  0  0
   20.2752  -23.1842  -12.3586 C   0  0  0  0  0  0  0  0  0  0  0  0
   19.3941  -24.2019  -11.7027 C   0  0  0  0  0  0  0  0  0  0  0  0
   18.5749  -23.6647  -10.5726 C   0  0  2  0  0  0  0  0  0  0  0  0
   19.1855  -22.5220   -9.9320 N   0  0  0  0  0  0  0  0  0  0  0  0
   18.3356  -24.7762   -9.6185 C   0  0  0  0  0  0  0  0  0  0  0  0
   18.1709  -25.9267  -10.0966 O   0  0  0  0  0  0  0  0  0  0  0  0
   21.8173  -19.7209  -15.1550 N   0  0  0  0  0  0  0  0  0  0  0  0
   18.2830  -24.6133   -8.2117 C   0  0  1  0  0  0  0  0  0  0  0  0
   17.8269  -25.7071   -7.3518 C   0  0  0  0  0  0  0  0  0  0  0  0
   18.1750  -25.4090   -5.9123 C   0  0  0  0  0  0  0  0  0  0  0  0
   17.8037  -26.5138   -4.9890 C   0  0  0  0  0  0  0  0  0  0  0  0
   18.2395  -26.2581   -3.5684 C   0  0  0  0  0  0  0  0  0  0  0  0
   17.7761  -27.3276   -2.6320 N   0  0  0  0  0  0  0  0  0  0  0  0
   18.1554  -27.1137   -1.2684 C   0  0  0  0  0  0  0  0  0  0  0  0
   16.3893  -25.9822   -7.5759 O   0  0  0  0  0  0  0  0  0  0  0  0
   15.6090  -25.0571   -7.9031 N   0  0  0  0  0  0  0  0  0  0  0  0
   15.8539  -27.2973   -7.4272 C   0  0  1  0  0  0  0  0  0  0  0  0
   14.7066  -27.6714   -8.1929 C   0  0  0  0  0  0  0  0  0  0  0  0
   14.9404  -27.5922   -9.6838 S   0  0  0  0  0  0  0  0  0  0  0  0
   13.4072  -28.1540  -10.4903 C   0  0  0  0  0  0  0  0  0  0  0  0
   14.2926  -29.0504   -7.8438 O   0  0  0  0  0  0  0  0  0  0  0  0
   15.0739  -30.0335   -7.9012 O   0  0  0  0  0  0  0  0  0  0  0  0
  2  3  2  0
  2  1  1  0
  4  2  1  0
  5  4  1  0
  6  5  1  0
  7  6  1  0
  8  9  1  1
  8  7  1  0
 10 12  1  0
 10  8  1  0
 11 10  2  0
 13 12  1  0
 13 14  1  6
 14 15  1  0
 15 16  1  0
 16 17  1  0
 17 18  1  0
 19 13  1  0
 20 19  2  0
 21 19  1  0
 22 25  1  0
 22 21  1  0
 23 24  1  0
 22 23  1  1
 25 27  1  0
 26 25  2  0
M  END
$$$$
