RKC.pdb
     RDKit          3D

 27 26  0  0  1  0  0  0  0  0999 V2000
   27.9433  -24.4036  -17.3300 N   0  0  0  0  0  0  0  0  0  0  0  0
   26.9404  -25.1914  -16.7166 C   0  0  0  0  0  0  0  0  0  0  0  0
   27.2091  -26.2751  -16.0784 N   0  0  0  0  0  0  0  0  0  0  0  0
   25.5828  -24.7616  -16.8137 N   0  0  0  0  0  0  0  0  0  0  0  0
   25.2771  -23.5751  -17.5875 C   0  0  0  0  0  0  0  0  0  0  0  0
   25.8459  -22.3842  -16.8900 C   0  0  0  0  0  0  0  0  0  0  0  0
   25.4900  -21.1228  -17.6141 C   0  0  0  0  0  0  0  0  0  0  0  0
   26.0299  -19.8801  -16.9805 C   0  0  2  0  0  0  0  0  0  0  0  0
   27.2941  -20.0955  -16.3137 N   0  0  0  0  0  0  0  0  0  0  0  0
   24.9940  -19.3570  -16.0551 C   0  0  0  0  0  0  0  0  0  0  0  0
   24.9967  -19.7903  -14.8756 O   0  0  0  0  0  0  0  0  0  0  0  0
   26.4613  -26.8128  -15.6024 N   0  0  0  0  0  0  0  0  0  0  0  0
   24.0115  -18.4049  -16.4249 C   0  0  2  0  0  0  0  0  0  0  0  0
   23.0389  -17.9192  -15.4442 C   0  0  0  0  0  0  0  0  0  0  0  0
   22.5558  -16.5428  -15.8373 C   0  0  0  0  0  0  0  0  0  0  0  0
   21.3824  -16.5828  -16.7499 C   0  0  0  0  0  0  0  0  0  0  0  0
   20.8807  -15.2087  -17.1152 C   0  0  0  0  0  0  0  0  0  0  0  0
   19.7226  -15.2607  -18.0596 N   0  0  0  0  0  0  0  0  0  0  0  0
   19.1746  -13.9781  -18.3818 C   0  0  0  0  0  0  0  0  0  0  0  0
   21.9502  -18.9052  -15.2566 O   0  0  0  0  0  0  0  0  0  0  0  0
   21.5934  -19.6453  -16.2035 N   0  0  0  0  0  0  0  0  0  0  0  0
   21.2807  -19.0411  -14.0030 C   0  0  1  0  0  0  0  0  0  0  0  0
   20.3267  -20.0919  -13.8348 C   0  0  0  0  0  0  0  0  0  0  0  0
   20.0031  -20.3692  -12.3850 S   0  0  0  0  0  0  0  0  0  0  0  0
   18.8838  -21.8056  -12.3580 C   0  0  0  0  0  0  0  0  0  0  0  0
   19.0739  -19.7578  -14.5516 O   0  0  0  0  0  0  0  0  0  0  0  0
   18.6254  -18.5863  -14.6338 O   0  0  0  0  0  0  0  0  0  0  0  0
  2  3  2  0
  2  1  1  0
  4  2  1  0
  5  4  1  0
  6  5  1  0
  7  6  1  0
  8  9  1  1
  8  7  1  0
 10 12  1  0
 10  8  1  0
 11 10  2  0
 13 12  1  0
 13 14  1  6
 14 15  1  0
 15 16  1  0
 16 17  1  0
 17 18  1  0
 19 13  1  0
 20 19  2  0
 21 19  1  0
 22 25  1  0
 22 21  1  0
 23 24  1  0
 22 23  1  6
 25 27  1  0
 26 25  2  0
M  END
$$$$
