RKC.pdb
     RDKit          3D

 27 26  0  0  1  0  0  0  0  0999 V2000
   22.6104  -21.7658   -7.4298 N   0  0  0  0  0  0  0  0  0  0  0  0
   21.8890  -21.7037   -8.6457 C   0  0  0  0  0  0  0  0  0  0  0  0
   20.6045  -21.7498   -8.6883 N   0  0  0  0  0  0  0  0  0  0  0  0
   22.6201  -21.5858   -9.8658 N   0  0  0  0  0  0  0  0  0  0  0  0
   24.0550  -21.7873   -9.8451 C   0  0  0  0  0  0  0  0  0  0  0  0
   24.7179  -20.5004   -9.4812 C   0  0  0  0  0  0  0  0  0  0  0  0
   25.3911  -19.8926  -10.6727 C   0  0  0  0  0  0  0  0  0  0  0  0
   26.5195  -20.7076  -11.2200 C   0  0  2  0  0  0  0  0  0  0  0  0
   27.6860  -20.6931  -10.3667 N   0  0  0  0  0  0  0  0  0  0  0  0
   26.8207  -20.2055  -12.5839 C   0  0  0  0  0  0  0  0  0  0  0  0
   27.4765  -19.1378  -12.6780 O   0  0  0  0  0  0  0  0  0  0  0  0
   20.1001  -21.7302   -9.5940 N   0  0  0  0  0  0  0  0  0  0  0  0
   26.4134  -20.8576  -13.7745 C   0  0  2  0  0  0  0  0  0  0  0  0
   26.7164  -20.2757  -15.0833 C   0  0  0  0  0  0  0  0  0  0  0  0
   27.3438  -21.3195  -15.9773 C   0  0  0  0  0  0  0  0  0  0  0  0
   28.1762  -20.7276  -17.0580 C   0  0  0  0  0  0  0  0  0  0  0  0
   27.7264  -21.1447  -18.4354 C   0  0  0  0  0  0  0  0  0  0  0  0
   28.6129  -20.6014  -19.5099 N   0  0  0  0  0  0  0  0  0  0  0  0
   28.2233  -20.9799  -20.8344 C   0  0  0  0  0  0  0  0  0  0  0  0
   25.5123  -19.6370  -15.6618 O   0  0  0  0  0  0  0  0  0  0  0  0
   24.3842  -20.1662  -15.5238 N   0  0  0  0  0  0  0  0  0  0  0  0
   25.5994  -18.4107  -16.3875 C   0  0  1  0  0  0  0  0  0  0  0  0
   24.4154  -17.8624  -16.9707 C   0  0  0  0  0  0  0  0  0  0  0  0
   23.9100  -16.6391  -16.2414 S   0  0  0  0  0  0  0  0  0  0  0  0
   25.2193  -15.3781  -16.3530 C   0  0  0  0  0  0  0  0  0  0  0  0
   24.6659  -17.5083  -18.3873 O   0  0  0  0  0  0  0  0  0  0  0  0
   23.7566  -17.1286  -19.1677 O   0  0  0  0  0  0  0  0  0  0  0  0
  2  3  2  0
  2  1  1  0
  4  2  1  0
  5  4  1  0
  6  5  1  0
  7  6  1  0
  8  9  1  1
  8  7  1  0
 10 12  1  0
 10  8  1  0
 11 10  2  0
 13 12  1  0
 13 14  1  1
 14 15  1  0
 15 16  1  0
 16 17  1  0
 17 18  1  0
 19 13  1  0
 20 19  2  0
 21 19  1  0
 22 25  1  0
 22 21  1  0
 23 24  1  0
 22 23  1  6
 25 27  1  0
 26 25  2  0
M  END
$$$$
