VYD.pdb
     RDKit          3D

 28 28  0  0  1  0  0  0  0  0999 V2000
   17.8152  -13.8060  -20.0119 C   0  0  0  0  0  0  0  0  0  0  0  0
   17.9628  -12.7393  -18.9889 C   0  0  2  0  0  0  0  0  0  0  0  0
   18.2988  -11.3832  -19.6219 C   0  0  0  0  0  0  0  0  0  0  0  0
   19.0469  -12.9828  -17.9591 C   0  0  2  0  0  0  0  0  0  0  0  0
   18.6941  -14.1701  -17.1716 N   0  0  0  0  0  0  0  0  0  0  0  0
   19.1852  -11.8710  -16.9854 C   0  0  0  0  0  0  0  0  0  0  0  0
   18.2961  -11.6780  -16.0802 O   0  0  0  0  0  0  0  0  0  0  0  0
   22.4904   -4.6369  -12.8977 O   0  0  0  0  0  0  0  0  0  0  0  0
   22.2838   -5.8461  -13.5607 C   0  0  0  0  0  0  0  0  0  0  0  0
   21.8467   -6.9667  -12.8997 C   0  0  0  0  0  0  0  0  0  0  0  0
   21.6484   -8.1536  -13.5738 C   0  0  0  0  0  0  0  0  0  0  0  0
   21.8733   -8.2843  -14.9283 C   0  0  0  0  0  0  0  0  0  0  0  0
   21.6621   -9.5440  -15.6417 C   0  0  0  0  0  0  0  0  0  0  0  0
   20.2534   -9.7585  -16.1211 C   0  0  2  0  0  0  0  0  0  0  0  0
   20.2658  -10.9493  -16.9544 N   0  0  0  0  0  0  0  0  0  0  0  0
   19.6587   -8.6056  -16.8134 C   0  0  0  0  0  0  0  0  0  0  0  0
   20.0189   -8.3488  -17.9910 O   0  0  0  0  0  0  0  0  0  0  0  0
   22.3162   -7.1364  -15.5799 C   0  0  0  0  0  0  0  0  0  0  0  0
   22.5180   -5.9443  -14.9166 C   0  0  0  0  0  0  0  0  0  0  0  0
   18.6872   -7.7429  -16.2404 N   0  0  0  0  0  0  0  0  0  0  0  0
   18.1882   -6.5644  -16.9159 C   0  0  1  0  0  0  0  0  0  0  0  0
   16.6743   -6.4486  -16.8021 C   0  0  0  0  0  0  0  0  0  0  0  0
   16.1244   -5.2759  -17.5063 C   0  0  0  0  0  0  0  0  0  0  0  0
   15.4227   -4.4407  -16.8947 O   0  0  0  0  0  0  0  0  0  0  0  0
   18.8203   -5.3229  -16.4352 C   0  0  0  0  0  0  0  0  0  0  0  0
   18.8157   -5.0584  -15.2172 O   0  0  0  0  0  0  0  0  0  0  0  0
   16.3621   -5.0637  -18.8446 O   0  0  0  0  0  0  0  0  0  0  0  0
   19.4210   -4.4400  -17.3046 O   0  0  0  0  0  0  0  0  0  0  0  0
  2  1  1  6
  2  3  1  0
  4  2  1  0
  4  5  1  1
  6  7  2  0
  6  4  1  0
  9  8  1  0
 10  9  2  0
 11 10  1  0
 12 11  2  0
 12 18  1  0
 13 12  1  0
 14 13  1  6
 14 15  1  0
 15  6  1  0
 16 20  1  0
 16 14  1  0
 17 16  2  0
 18 19  2  0
 19  9  1  0
 21 20  1  0
 21 25  1  0
 21 22  1  1
 23 22  1  0
 24 23  2  0
 25 28  1  0
 26 25  2  0
 27 23  1  0
M  END
$$$$
