VYD.pdb
     RDKit          3D

 28 28  0  0  1  0  0  0  0  0999 V2000
   25.1991  -34.3294   -3.2021 C   0  0  0  0  0  0  0  0  0  0  0  0
   26.0431  -33.2076   -3.6873 C   0  0  2  0  0  0  0  0  0  0  0  0
   25.2283  -32.1850   -4.4891 C   0  0  0  0  0  0  0  0  0  0  0  0
   27.1877  -33.6108   -4.5942 C   0  0  2  0  0  0  0  0  0  0  0  0
   26.6412  -34.3050   -5.7664 N   0  0  0  0  0  0  0  0  0  0  0  0
   28.1289  -34.5640   -3.9549 C   0  0  0  0  0  0  0  0  0  0  0  0
   28.1748  -35.7908   -4.3294 O   0  0  0  0  0  0  0  0  0  0  0  0
   33.8343  -35.8295   -7.3016 O   0  0  0  0  0  0  0  0  0  0  0  0
   33.2032  -35.5540   -6.0891 C   0  0  0  0  0  0  0  0  0  0  0  0
   32.3456  -34.4920   -5.9461 C   0  0  0  0  0  0  0  0  0  0  0  0
   31.7311  -34.2364   -4.7380 C   0  0  0  0  0  0  0  0  0  0  0  0
   31.9372  -35.0181   -3.6205 C   0  0  0  0  0  0  0  0  0  0  0  0
   31.2843  -34.7456   -2.3400 C   0  0  0  0  0  0  0  0  0  0  0  0
   29.8632  -35.2283   -2.2515 C   0  0  2  0  0  0  0  0  0  0  0  0
   29.0354  -34.2330   -2.9123 N   0  0  0  0  0  0  0  0  0  0  0  0
   29.3972  -35.5171   -0.8871 C   0  0  0  0  0  0  0  0  0  0  0  0
   29.9401  -36.4504   -0.2417 O   0  0  0  0  0  0  0  0  0  0  0  0
   32.8103  -36.0899   -3.7866 C   0  0  0  0  0  0  0  0  0  0  0  0
   33.4304  -36.3553   -4.9894 C   0  0  0  0  0  0  0  0  0  0  0  0
   28.3590  -34.8057   -0.2295 N   0  0  0  0  0  0  0  0  0  0  0  0
   27.9087  -35.1315    1.1067 C   0  0  1  0  0  0  0  0  0  0  0  0
   28.0110  -33.9351    2.0429 C   0  0  0  0  0  0  0  0  0  0  0  0
   29.2971  -33.8638    2.7600 C   0  0  0  0  0  0  0  0  0  0  0  0
   30.1480  -34.7706    2.6272 O   0  0  0  0  0  0  0  0  0  0  0  0
   26.5353  -35.6659    1.1294 C   0  0  0  0  0  0  0  0  0  0  0  0
   26.0550  -36.0906    2.1982 O   0  0  0  0  0  0  0  0  0  0  0  0
   29.6008  -32.8092    3.5896 O   0  0  0  0  0  0  0  0  0  0  0  0
   25.7626  -35.7083   -0.0095 O   0  0  0  0  0  0  0  0  0  0  0  0
  2  1  1  6
  2  3  1  0
  4  2  1  0
  4  5  1  6
  6  7  2  0
  6  4  1  0
  9  8  1  0
 10  9  2  0
 11 10  1  0
 12 11  2  0
 12 18  1  0
 13 12  1  0
 14 13  1  1
 14 15  1  0
 15  6  1  0
 16 20  1  0
 16 14  1  0
 17 16  2  0
 18 19  2  0
 19  9  1  0
 21 20  1  0
 21 25  1  0
 21 22  1  1
 23 22  1  0
 24 23  2  0
 25 28  1  0
 26 25  2  0
 27 23  1  0
M  END
$$$$
