VYD.pdb
     RDKit          3D

 28 28  0  0  1  0  0  0  0  0999 V2000
   31.1544  -11.3356  -18.8975 C   0  0  0  0  0  0  0  0  0  0  0  0
   29.6830  -11.2966  -18.6982 C   0  0  2  0  0  0  0  0  0  0  0  0
   28.9287  -11.8918  -19.8937 C   0  0  0  0  0  0  0  0  0  0  0  0
   29.0981   -9.9130  -18.5014 C   0  0  2  0  0  0  0  0  0  0  0  0
   29.7132   -9.3031  -17.3164 N   0  0  0  0  0  0  0  0  0  0  0  0
   27.6368   -9.9303  -18.2420 C   0  0  0  0  0  0  0  0  0  0  0  0
   26.8163  -10.3405  -19.1397 O   0  0  0  0  0  0  0  0  0  0  0  0
   19.8570  -10.5014  -14.0245 O   0  0  0  0  0  0  0  0  0  0  0  0
   21.2030  -10.4242  -14.3805 C   0  0  0  0  0  0  0  0  0  0  0  0
   22.0897   -9.6390  -13.6870 C   0  0  0  0  0  0  0  0  0  0  0  0
   23.4173   -9.5762  -14.0552 C   0  0  0  0  0  0  0  0  0  0  0  0
   23.9256  -10.2857  -15.1232 C   0  0  0  0  0  0  0  0  0  0  0  0
   25.3344  -10.2181  -15.5122 C   0  0  0  0  0  0  0  0  0  0  0  0
   25.5831   -9.5447  -16.8331 C   0  0  2  0  0  0  0  0  0  0  0  0
   27.0230   -9.5156  -17.0296 N   0  0  0  0  0  0  0  0  0  0  0  0
   24.9804   -8.2100  -16.9644 C   0  0  0  0  0  0  0  0  0  0  0  0
   25.4514   -7.2588  -16.2893 O   0  0  0  0  0  0  0  0  0  0  0  0
   23.0101  -11.0758  -15.8132 C   0  0  0  0  0  0  0  0  0  0  0  0
   21.6805  -11.1466  -15.4544 C   0  0  0  0  0  0  0  0  0  0  0  0
   23.8840   -7.9080  -17.8148 N   0  0  0  0  0  0  0  0  0  0  0  0
   23.2642   -6.6011  -17.8621 C   0  0  1  0  0  0  0  0  0  0  0  0
   22.4351   -6.4163  -19.1258 C   0  0  0  0  0  0  0  0  0  0  0  0
   21.8685   -5.0618  -19.2588 C   0  0  0  0  0  0  0  0  0  0  0  0
   22.1254   -4.1809  -18.4091 O   0  0  0  0  0  0  0  0  0  0  0  0
   22.4343   -6.3220  -16.6765 C   0  0  0  0  0  0  0  0  0  0  0  0
   22.0745   -7.2602  -15.9391 O   0  0  0  0  0  0  0  0  0  0  0  0
   21.0476   -4.7254  -20.3103 O   0  0  0  0  0  0  0  0  0  0  0  0
   22.0429   -5.0403  -16.3600 O   0  0  0  0  0  0  0  0  0  0  0  0
  2  1  1  6
  2  3  1  0
  4  2  1  0
  4  5  1  1
  6  7  2  0
  6  4  1  0
  9  8  1  0
 10  9  2  0
 11 10  1  0
 12 11  2  0
 12 18  1  0
 13 12  1  0
 14 13  1  1
 14 15  1  0
 15  6  1  0
 16 20  1  0
 16 14  1  0
 17 16  2  0
 18 19  2  0
 19  9  1  0
 21 20  1  0
 21 25  1  0
 21 22  1  6
 23 22  1  0
 24 23  2  0
 25 28  1  0
 26 25  2  0
 27 23  1  0
M  END
$$$$
