VYD.pdb
     RDKit          3D

 28 28  0  0  1  0  0  0  0  0999 V2000
   16.6250  -14.8466  -15.5385 C   0  0  0  0  0  0  0  0  0  0  0  0
   17.3920  -13.7054  -16.1002 C   0  0  2  0  0  0  0  0  0  0  0  0
   18.8953  -13.8373  -15.8262 C   0  0  0  0  0  0  0  0  0  0  0  0
   17.0026  -12.3435  -15.5627 C   0  0  2  0  0  0  0  0  0  0  0  0
   15.5965  -12.0868  -15.8969 N   0  0  0  0  0  0  0  0  0  0  0  0
   17.7780  -11.2340  -16.1716 C   0  0  0  0  0  0  0  0  0  0  0  0
   19.0213  -11.0744  -15.8959 O   0  0  0  0  0  0  0  0  0  0  0  0
   21.7381  -13.5340  -20.5697 O   0  0  0  0  0  0  0  0  0  0  0  0
   20.8717  -12.5047  -20.2032 C   0  0  0  0  0  0  0  0  0  0  0  0
   21.3119  -11.2159  -20.0338 C   0  0  0  0  0  0  0  0  0  0  0  0
   20.4388  -10.2118  -19.6710 C   0  0  0  0  0  0  0  0  0  0  0  0
   19.0946  -10.4375  -19.4602 C   0  0  0  0  0  0  0  0  0  0  0  0
   18.1697   -9.3710  -19.0758 C   0  0  0  0  0  0  0  0  0  0  0  0
   18.0366   -9.1684  -17.5920 C   0  0  2  0  0  0  0  0  0  0  0  0
   17.2501  -10.2789  -17.0814 N   0  0  0  0  0  0  0  0  0  0  0  0
   17.4762   -7.8672  -17.1984 C   0  0  0  0  0  0  0  0  0  0  0  0
   16.2271   -7.7184  -17.1895 O   0  0  0  0  0  0  0  0  0  0  0  0
   18.6683  -11.7510  -19.6372 C   0  0  0  0  0  0  0  0  0  0  0  0
   19.5319  -12.7632  -19.9998 C   0  0  0  0  0  0  0  0  0  0  0  0
   18.2559   -6.7428  -16.8188 N   0  0  0  0  0  0  0  0  0  0  0  0
   17.6706   -5.4898  -16.3923 C   0  0  1  0  0  0  0  0  0  0  0  0
   16.6986   -5.6865  -15.2370 C   0  0  0  0  0  0  0  0  0  0  0  0
   16.1907   -4.4196  -14.6798 C   0  0  0  0  0  0  0  0  0  0  0  0
   15.7644   -3.5200  -15.4368 O   0  0  0  0  0  0  0  0  0  0  0  0
   18.6840   -4.4846  -16.0252 C   0  0  0  0  0  0  0  0  0  0  0  0
   19.8893   -4.8011  -16.0040 O   0  0  0  0  0  0  0  0  0  0  0  0
   16.1690   -4.1873  -13.3240 O   0  0  0  0  0  0  0  0  0  0  0  0
   18.3302   -3.1936  -15.7021 O   0  0  0  0  0  0  0  0  0  0  0  0
  2  1  1  1
  2  3  1  0
  4  2  1  0
  4  5  1  6
  6  7  2  0
  6  4  1  0
  9  8  1  0
 10  9  2  0
 11 10  1  0
 12 11  2  0
 12 18  1  0
 13 12  1  0
 14 13  1  6
 14 15  1  0
 15  6  1  0
 16 20  1  0
 16 14  1  0
 17 16  2  0
 18 19  2  0
 19  9  1  0
 21 20  1  0
 21 25  1  0
 21 22  1  1
 23 22  1  0
 24 23  2  0
 25 28  1  0
 26 25  2  0
 27 23  1  0
M  END
$$$$
