VYD.pdb
     RDKit          3D

 28 28  0  0  1  0  0  0  0  0999 V2000
   18.9127  -11.1524  -18.2341 C   0  0  0  0  0  0  0  0  0  0  0  0
   18.8371  -10.1626  -17.1292 C   0  0  2  0  0  0  0  0  0  0  0  0
   18.2331   -8.8319  -17.5947 C   0  0  0  0  0  0  0  0  0  0  0  0
   20.1663   -9.8025  -16.4977 C   0  0  2  0  0  0  0  0  0  0  0  0
   20.7042  -10.9872  -15.8182 N   0  0  0  0  0  0  0  0  0  0  0  0
   20.0505   -8.7502  -15.4574 C   0  0  0  0  0  0  0  0  0  0  0  0
   20.0174   -9.0600  -14.2123 O   0  0  0  0  0  0  0  0  0  0  0  0
   25.8792   -4.7390  -16.4328 O   0  0  0  0  0  0  0  0  0  0  0  0
   24.7203   -5.1845  -15.7982 C   0  0  0  0  0  0  0  0  0  0  0  0
   24.3981   -6.5172  -15.7350 C   0  0  0  0  0  0  0  0  0  0  0  0
   23.2468   -6.9376  -15.1026 C   0  0  0  0  0  0  0  0  0  0  0  0
   22.3652   -6.0606  -14.5060 C   0  0  0  0  0  0  0  0  0  0  0  0
   21.1446   -6.5084  -13.8352 C   0  0  0  0  0  0  0  0  0  0  0  0
   19.8946   -6.3653  -14.6582 C   0  0  2  0  0  0  0  0  0  0  0  0
   19.9695   -7.3561  -15.7189 N   0  0  0  0  0  0  0  0  0  0  0  0
   19.6564   -5.0121  -15.1818 C   0  0  0  0  0  0  0  0  0  0  0  0
   20.3162   -4.6185  -16.1780 O   0  0  0  0  0  0  0  0  0  0  0  0
   22.7102   -4.7138  -14.5811 C   0  0  0  0  0  0  0  0  0  0  0  0
   23.8585   -4.2816  -15.2107 C   0  0  0  0  0  0  0  0  0  0  0  0
   18.7172   -4.0975  -14.6363 N   0  0  0  0  0  0  0  0  0  0  0  0
   18.4839   -2.7840  -15.1972 C   0  0  1  0  0  0  0  0  0  0  0  0
   17.2310   -2.7552  -16.0619 C   0  0  0  0  0  0  0  0  0  0  0  0
   16.0216   -3.2100  -15.3520 C   0  0  0  0  0  0  0  0  0  0  0  0
   16.1160   -3.9557  -14.3525 O   0  0  0  0  0  0  0  0  0  0  0  0
   18.4030   -1.7322  -14.1679 C   0  0  0  0  0  0  0  0  0  0  0  0
   18.3621   -2.0484  -12.9630 O   0  0  0  0  0  0  0  0  0  0  0  0
   14.7631   -2.8333  -15.7606 O   0  0  0  0  0  0  0  0  0  0  0  0
   18.3711   -0.3979  -14.5062 O   0  0  0  0  0  0  0  0  0  0  0  0
  2  1  1  6
  2  3  1  0
  4  2  1  0
  4  5  1  1
  6  7  2  0
  6  4  1  0
  9  8  1  0
 10  9  2  0
 11 10  1  0
 12 11  2  0
 12 18  1  0
 13 12  1  0
 14 13  1  6
 14 15  1  0
 15  6  1  0
 16 20  1  0
 16 14  1  0
 17 16  2  0
 18 19  2  0
 19  9  1  0
 21 20  1  0
 21 25  1  0
 21 22  1  1
 23 22  1  0
 24 23  2  0
 25 28  1  0
 26 25  2  0
 27 23  1  0
M  END
$$$$
