VYD.pdb
     RDKit          3D

 28 28  0  0  1  0  0  0  0  0999 V2000
   27.9200  -19.9759  -19.0216 C   0  0  0  0  0  0  0  0  0  0  0  0
   26.7853  -19.2844  -18.3581 C   0  0  2  0  0  0  0  0  0  0  0  0
   25.7392  -20.2763  -17.8345 C   0  0  0  0  0  0  0  0  0  0  0  0
   26.0190  -18.3182  -19.2382 C   0  0  2  0  0  0  0  0  0  0  0  0
   26.9429  -17.2869  -19.7256 N   0  0  0  0  0  0  0  0  0  0  0  0
   24.9445  -17.5962  -18.5122 C   0  0  0  0  0  0  0  0  0  0  0  0
   25.2307  -16.6936  -17.6458 O   0  0  0  0  0  0  0  0  0  0  0  0
   24.8866  -11.6227  -20.2753 O   0  0  0  0  0  0  0  0  0  0  0  0
   24.1336  -12.7362  -19.9044 C   0  0  0  0  0  0  0  0  0  0  0  0
   23.4188  -12.7672  -18.7332 C   0  0  0  0  0  0  0  0  0  0  0  0
   22.6800  -13.8784  -18.3843 C   0  0  0  0  0  0  0  0  0  0  0  0
   22.6156  -15.0055  -19.1766 C   0  0  0  0  0  0  0  0  0  0  0  0
   21.8311  -16.1832  -18.8051 C   0  0  0  0  0  0  0  0  0  0  0  0
   22.5439  -17.1428  -17.8934 C   0  0  2  0  0  0  0  0  0  0  0  0
   23.5528  -17.8174  -18.6932 N   0  0  0  0  0  0  0  0  0  0  0  0
   21.6656  -18.0933  -17.1954 C   0  0  0  0  0  0  0  0  0  0  0  0
   21.4547  -19.2211  -17.7112 O   0  0  0  0  0  0  0  0  0  0  0  0
   23.3475  -14.9538  -20.3599 C   0  0  0  0  0  0  0  0  0  0  0  0
   24.0897  -13.8485  -20.7192 C   0  0  0  0  0  0  0  0  0  0  0  0
   21.0249  -17.8281  -15.9562 N   0  0  0  0  0  0  0  0  0  0  0  0
   20.1386  -18.7739  -15.3127 C   0  0  1  0  0  0  0  0  0  0  0  0
   20.7311  -19.3088  -14.0161 C   0  0  0  0  0  0  0  0  0  0  0  0
   19.8296  -20.2285  -13.2985 C   0  0  0  0  0  0  0  0  0  0  0  0
   18.7184  -20.5341  -13.7840 O   0  0  0  0  0  0  0  0  0  0  0  0
   18.7998  -18.2141  -15.0550 C   0  0  0  0  0  0  0  0  0  0  0  0
   17.9070  -18.9415  -14.5782 O   0  0  0  0  0  0  0  0  0  0  0  0
   20.1768  -20.7750  -12.0847 O   0  0  0  0  0  0  0  0  0  0  0  0
   18.5075  -16.8969  -15.3298 O   0  0  0  0  0  0  0  0  0  0  0  0
  2  1  1  6
  2  3  1  0
  4  2  1  0
  4  5  1  1
  6  7  2  0
  6  4  1  0
  9  8  1  0
 10  9  2  0
 11 10  1  0
 12 11  2  0
 12 18  1  0
 13 12  1  0
 14 13  1  6
 14 15  1  0
 15  6  1  0
 16 20  1  0
 16 14  1  0
 17 16  2  0
 18 19  2  0
 19  9  1  0
 21 20  1  0
 21 25  1  0
 21 22  1  1
 23 22  1  0
 24 23  2  0
 25 28  1  0
 26 25  2  0
 27 23  1  0
M  END
$$$$
