VYD.pdb
     RDKit          3D

 28 28  0  0  1  0  0  0  0  0999 V2000
   20.7747  -12.4022  -15.9355 C   0  0  0  0  0  0  0  0  0  0  0  0
   19.4199  -12.1479  -15.3825 C   0  0  2  0  0  0  0  0  0  0  0  0
   18.4288  -13.2532  -15.7678 C   0  0  0  0  0  0  0  0  0  0  0  0
   18.7749  -10.8534  -15.8336 C   0  0  2  0  0  0  0  0  0  0  0  0
   18.6376  -10.8767  -17.2948 N   0  0  0  0  0  0  0  0  0  0  0  0
   19.5915   -9.6550  -15.5174 C   0  0  0  0  0  0  0  0  0  0  0  0
   19.8145   -9.3161  -14.2998 O   0  0  0  0  0  0  0  0  0  0  0  0
   25.6046  -12.0700  -15.4870 O   0  0  0  0  0  0  0  0  0  0  0  0
   24.7844  -10.9927  -15.8205 C   0  0  0  0  0  0  0  0  0  0  0  0
   24.5853   -9.9428  -14.9592 C   0  0  0  0  0  0  0  0  0  0  0  0
   23.7699   -8.8864  -15.3078 C   0  0  0  0  0  0  0  0  0  0  0  0
   23.1169   -8.8219  -16.5210 C   0  0  0  0  0  0  0  0  0  0  0  0
   22.2527   -7.7003  -16.8892 C   0  0  0  0  0  0  0  0  0  0  0  0
   20.9644   -7.6286  -16.1176 C   0  0  2  0  0  0  0  0  0  0  0  0
   20.1850   -8.7995  -16.4841 N   0  0  0  0  0  0  0  0  0  0  0  0
   20.2077   -6.3813  -16.3015 C   0  0  0  0  0  0  0  0  0  0  0  0
   19.6238   -6.1778  -17.3970 O   0  0  0  0  0  0  0  0  0  0  0  0
   23.3320   -9.8964  -17.3799 C   0  0  0  0  0  0  0  0  0  0  0  0
   24.1449  -10.9580  -17.0423 C   0  0  0  0  0  0  0  0  0  0  0  0
   20.0835   -5.3685  -15.3140 N   0  0  0  0  0  0  0  0  0  0  0  0
   19.3494   -4.1414  -15.5364 C   0  0  1  0  0  0  0  0  0  0  0  0
   17.8729   -4.2995  -15.1998 C   0  0  0  0  0  0  0  0  0  0  0  0
   17.1176   -3.0359  -15.2806 C   0  0  0  0  0  0  0  0  0  0  0  0
   17.3094   -2.2423  -16.2279 O   0  0  0  0  0  0  0  0  0  0  0  0
   19.9106   -3.0000  -14.7918 C   0  0  0  0  0  0  0  0  0  0  0  0
   20.7780   -3.1979  -13.9189 O   0  0  0  0  0  0  0  0  0  0  0  0
   16.1872   -2.6916  -14.3275 O   0  0  0  0  0  0  0  0  0  0  0  0
   19.4978   -1.7097  -15.0378 O   0  0  0  0  0  0  0  0  0  0  0  0
  2  1  1  6
  2  3  1  0
  4  2  1  0
  4  5  1  6
  6  7  2  0
  6  4  1  0
  9  8  1  0
 10  9  2  0
 11 10  1  0
 12 11  2  0
 12 18  1  0
 13 12  1  0
 14 13  1  6
 14 15  1  0
 15  6  1  0
 16 20  1  0
 16 14  1  0
 17 16  2  0
 18 19  2  0
 19  9  1  0
 21 20  1  0
 21 25  1  0
 21 22  1  1
 23 22  1  0
 24 23  2  0
 25 28  1  0
 26 25  2  0
 27 23  1  0
M  END
$$$$
