VYD.pdb
     RDKit          3D

 28 28  0  0  1  0  0  0  0  0999 V2000
   25.8841  -20.6250  -19.2286 C   0  0  0  0  0  0  0  0  0  0  0  0
   27.1779  -20.0134  -18.8310 C   0  0  2  0  0  0  0  0  0  0  0  0
   28.0725  -19.7296  -20.0440 C   0  0  0  0  0  0  0  0  0  0  0  0
   28.0234  -20.8517  -17.8943 C   0  0  2  0  0  0  0  0  0  0  0  0
   28.3400  -22.1245  -18.5533 N   0  0  0  0  0  0  0  0  0  0  0  0
   27.3212  -21.2053  -16.6353 C   0  0  0  0  0  0  0  0  0  0  0  0
   26.6941  -22.3197  -16.5250 O   0  0  0  0  0  0  0  0  0  0  0  0
   24.2411  -20.8553   -8.2673 O   0  0  0  0  0  0  0  0  0  0  0  0
   24.9445  -20.6705   -9.4570 C   0  0  0  0  0  0  0  0  0  0  0  0
   26.0522  -21.4201   -9.7651 C   0  0  0  0  0  0  0  0  0  0  0  0
   26.7343  -21.2219  -10.9473 C   0  0  0  0  0  0  0  0  0  0  0  0
   26.3520  -20.2756  -11.8750 C   0  0  0  0  0  0  0  0  0  0  0  0
   27.0767  -20.0670  -13.1287 C   0  0  0  0  0  0  0  0  0  0  0  0
   26.4341  -20.7006  -14.3311 C   0  0  2  0  0  0  0  0  0  0  0  0
   27.2736  -20.3864  -15.4753 N   0  0  0  0  0  0  0  0  0  0  0  0
   25.0323  -20.3156  -14.5519 C   0  0  0  0  0  0  0  0  0  0  0  0
   24.7807  -19.1925  -15.0599 O   0  0  0  0  0  0  0  0  0  0  0  0
   25.2265  -19.5260  -11.5436 C   0  0  0  0  0  0  0  0  0  0  0  0
   24.5364  -19.7152  -10.3647 C   0  0  0  0  0  0  0  0  0  0  0  0
   23.9179  -21.1342  -14.2286 N   0  0  0  0  0  0  0  0  0  0  0  0
   22.5501  -20.6716  -14.3251 C   0  0  1  0  0  0  0  0  0  0  0  0
   21.8281  -21.2920  -15.5134 C   0  0  0  0  0  0  0  0  0  0  0  0
   20.4464  -20.8043  -15.6760 C   0  0  0  0  0  0  0  0  0  0  0  0
   20.2017  -19.5779  -15.6654 O   0  0  0  0  0  0  0  0  0  0  0  0
   21.7796  -20.9137  -13.0922 C   0  0  0  0  0  0  0  0  0  0  0  0
   22.2359  -21.6757  -12.2178 O   0  0  0  0  0  0  0  0  0  0  0  0
   19.3920  -21.6721  -15.8431 O   0  0  0  0  0  0  0  0  0  0  0  0
   20.5581  -20.3147  -12.8799 O   0  0  0  0  0  0  0  0  0  0  0  0
  2  1  1  6
  2  3  1  0
  4  2  1  0
  4  5  1  6
  6  7  2  0
  6  4  1  0
  9  8  1  0
 10  9  2  0
 11 10  1  0
 12 11  2  0
 12 18  1  0
 13 12  1  0
 14 13  1  1
 14 15  1  0
 15  6  1  0
 16 20  1  0
 16 14  1  0
 17 16  2  0
 18 19  2  0
 19  9  1  0
 21 20  1  0
 21 25  1  0
 21 22  1  6
 23 22  1  0
 24 23  2  0
 25 28  1  0
 26 25  2  0
 27 23  1  0
M  END
$$$$
