VYD.pdb
     RDKit          3D

 28 28  0  0  1  0  0  0  0  0999 V2000
   26.2955  -10.4246  -14.8448 C   0  0  0  0  0  0  0  0  0  0  0  0
   26.3205  -11.3696  -15.9905 C   0  0  2  0  0  0  0  0  0  0  0  0
   26.7111  -10.6710  -17.2989 C   0  0  0  0  0  0  0  0  0  0  0  0
   25.0044  -12.0616  -16.2808 C   0  0  2  0  0  0  0  0  0  0  0  0
   25.1653  -12.9050  -17.4713 N   0  0  0  0  0  0  0  0  0  0  0  0
   23.9055  -11.1145  -16.5945 C   0  0  0  0  0  0  0  0  0  0  0  0
   23.7723  -10.6331  -17.7768 O   0  0  0  0  0  0  0  0  0  0  0  0
   18.5140  -13.8408  -19.5476 O   0  0  0  0  0  0  0  0  0  0  0  0
   19.0284  -12.9716  -18.5862 C   0  0  0  0  0  0  0  0  0  0  0  0
   19.7878  -13.4237  -17.5361 C   0  0  0  0  0  0  0  0  0  0  0  0
   20.2874  -12.5476  -16.5954 C   0  0  0  0  0  0  0  0  0  0  0  0
   20.0586  -11.1886  -16.6514 C   0  0  0  0  0  0  0  0  0  0  0  0
   20.5896  -10.2607  -15.6528 C   0  0  0  0  0  0  0  0  0  0  0  0
   21.9273   -9.6700  -16.0021 C   0  0  2  0  0  0  0  0  0  0  0  0
   22.9315  -10.6646  -15.6632 N   0  0  0  0  0  0  0  0  0  0  0  0
   22.2054   -8.3685  -15.3768 C   0  0  0  0  0  0  0  0  0  0  0  0
   23.0753   -8.3005  -14.4707 O   0  0  0  0  0  0  0  0  0  0  0  0
   19.2862  -10.7506  -17.7238 C   0  0  0  0  0  0  0  0  0  0  0  0
   18.7813  -11.6170  -18.6705 C   0  0  0  0  0  0  0  0  0  0  0  0
   21.5524   -7.1573  -15.7273 N   0  0  0  0  0  0  0  0  0  0  0  0
   21.8797   -5.8851  -15.1201 C   0  0  1  0  0  0  0  0  0  0  0  0
   23.2089   -5.3437  -15.6285 C   0  0  0  0  0  0  0  0  0  0  0  0
   23.5459   -4.0167  -15.0816 C   0  0  0  0  0  0  0  0  0  0  0  0
   22.7667   -3.4404  -14.2912 O   0  0  0  0  0  0  0  0  0  0  0  0
   20.8240   -4.8748  -15.3125 C   0  0  0  0  0  0  0  0  0  0  0  0
   20.9202   -3.7658  -14.7517 O   0  0  0  0  0  0  0  0  0  0  0  0
   24.7155   -3.3755  -15.4185 O   0  0  0  0  0  0  0  0  0  0  0  0
   19.7248   -5.1267  -16.1026 O   0  0  0  0  0  0  0  0  0  0  0  0
  2  1  1  1
  2  3  1  0
  4  2  1  0
  4  5  1  6
  6  7  2  0
  6  4  1  0
  9  8  1  0
 10  9  2  0
 11 10  1  0
 12 11  2  0
 12 18  1  0
 13 12  1  0
 14 13  1  1
 14 15  1  0
 15  6  1  0
 16 20  1  0
 16 14  1  0
 17 16  2  0
 18 19  2  0
 19  9  1  0
 21 20  1  0
 21 25  1  0
 21 22  1  6
 23 22  1  0
 24 23  2  0
 25 28  1  0
 26 25  2  0
 27 23  1  0
M  END
$$$$
