VYD.pdb
     RDKit          3D

 28 28  0  0  1  0  0  0  0  0999 V2000
   29.5015  -22.4957  -15.9701 C   0  0  0  0  0  0  0  0  0  0  0  0
   28.7962  -22.7171  -17.2583 C   0  0  2  0  0  0  0  0  0  0  0  0
   29.5676  -22.1203  -18.4420 C   0  0  0  0  0  0  0  0  0  0  0  0
   27.4066  -22.1191  -17.3406 C   0  0  2  0  0  0  0  0  0  0  0  0
   27.5252  -20.6793  -17.6000 N   0  0  0  0  0  0  0  0  0  0  0  0
   26.6424  -22.2461  -16.0745 C   0  0  0  0  0  0  0  0  0  0  0  0
   26.2674  -23.3969  -15.6476 O   0  0  0  0  0  0  0  0  0  0  0  0
   23.6124  -20.6951   -7.8839 O   0  0  0  0  0  0  0  0  0  0  0  0
   24.1972  -20.6077   -9.1468 C   0  0  0  0  0  0  0  0  0  0  0  0
   23.5729  -19.9695  -10.1892 C   0  0  0  0  0  0  0  0  0  0  0  0
   24.1681  -19.8939  -11.4311 C   0  0  0  0  0  0  0  0  0  0  0  0
   25.4044  -20.4449  -11.6963 C   0  0  0  0  0  0  0  0  0  0  0  0
   26.0345  -20.3634  -13.0141 C   0  0  0  0  0  0  0  0  0  0  0  0
   25.4941  -21.3384  -14.0230 C   0  0  2  0  0  0  0  0  0  0  0  0
   26.2655  -21.1585  -15.2417 N   0  0  0  0  0  0  0  0  0  0  0  0
   24.0474  -21.2332  -14.2640 C   0  0  0  0  0  0  0  0  0  0  0  0
   23.6118  -20.2751  -14.9530 O   0  0  0  0  0  0  0  0  0  0  0  0
   26.0207  -21.0875  -10.6259 C   0  0  0  0  0  0  0  0  0  0  0  0
   25.4354  -21.1695   -9.3799 C   0  0  0  0  0  0  0  0  0  0  0  0
   23.0853  -22.1519  -13.7675 N   0  0  0  0  0  0  0  0  0  0  0  0
   21.6618  -21.9799  -13.9632 C   0  0  1  0  0  0  0  0  0  0  0  0
   20.8951  -23.2648  -13.6808 C   0  0  0  0  0  0  0  0  0  0  0  0
   19.4623  -23.1748  -14.0162 C   0  0  0  0  0  0  0  0  0  0  0  0
   18.6951  -24.1344  -13.7824 O   0  0  0  0  0  0  0  0  0  0  0  0
   21.1054  -20.8800  -13.1552 C   0  0  0  0  0  0  0  0  0  0  0  0
   21.2394  -20.8943  -11.9162 O   0  0  0  0  0  0  0  0  0  0  0  0
   18.9275  -22.0451  -14.5910 O   0  0  0  0  0  0  0  0  0  0  0  0
   20.4357  -19.8281  -13.7391 O   0  0  0  0  0  0  0  0  0  0  0  0
  2  1  1  1
  2  3  1  0
  4  2  1  0
  4  5  1  1
  6  7  2  0
  6  4  1  0
  9  8  1  0
 10  9  2  0
 11 10  1  0
 12 11  2  0
 12 18  1  0
 13 12  1  0
 14 13  1  1
 14 15  1  0
 15  6  1  0
 16 20  1  0
 16 14  1  0
 17 16  2  0
 18 19  2  0
 19  9  1  0
 21 20  1  0
 21 25  1  0
 21 22  1  1
 23 22  1  0
 24 23  2  0
 25 28  1  0
 26 25  2  0
 27 23  1  0
M  END
$$$$
