VYD.pdb
     RDKit          3D

 28 28  0  0  1  0  0  0  0  0999 V2000
   26.5475  -10.7631  -14.6653 C   0  0  0  0  0  0  0  0  0  0  0  0
   26.6927  -11.7017  -15.8072 C   0  0  2  0  0  0  0  0  0  0  0  0
   27.5312  -11.0974  -16.9405 C   0  0  0  0  0  0  0  0  0  0  0  0
   25.3920  -12.1320  -16.4541 C   0  0  2  0  0  0  0  0  0  0  0  0
   25.6923  -13.0664  -17.5455 N   0  0  0  0  0  0  0  0  0  0  0  0
   24.6483  -11.0056  -17.0714 C   0  0  0  0  0  0  0  0  0  0  0  0
   25.0152  -10.5184  -18.2007 O   0  0  0  0  0  0  0  0  0  0  0  0
   17.9067  -12.6755  -14.6775 O   0  0  0  0  0  0  0  0  0  0  0  0
   18.8220  -11.9836  -15.4698 C   0  0  0  0  0  0  0  0  0  0  0  0
   18.7958  -10.6155  -15.5765 C   0  0  0  0  0  0  0  0  0  0  0  0
   19.7102   -9.9496  -16.3656 C   0  0  0  0  0  0  0  0  0  0  0  0
   20.6888  -10.6059  -17.0826 C   0  0  0  0  0  0  0  0  0  0  0  0
   21.6581   -9.8979  -17.9189 C   0  0  0  0  0  0  0  0  0  0  0  0
   22.8053   -9.2891  -17.1616 C   0  0  2  0  0  0  0  0  0  0  0  0
   23.5059  -10.3799  -16.5042 N   0  0  0  0  0  0  0  0  0  0  0  0
   22.4232   -8.2289  -16.2171 C   0  0  0  0  0  0  0  0  0  0  0  0
   22.4493   -8.4726  -14.9832 O   0  0  0  0  0  0  0  0  0  0  0  0
   20.6982  -11.9929  -16.9608 C   0  0  0  0  0  0  0  0  0  0  0  0
   19.7892  -12.6695  -16.1749 C   0  0  0  0  0  0  0  0  0  0  0  0
   22.0191   -6.9231  -16.6016 N   0  0  0  0  0  0  0  0  0  0  0  0
   21.6407   -5.9051  -15.6452 C   0  0  1  0  0  0  0  0  0  0  0  0
   22.7809   -4.9320  -15.3775 C   0  0  0  0  0  0  0  0  0  0  0  0
   22.3865   -3.7892  -14.5337 C   0  0  0  0  0  0  0  0  0  0  0  0
   21.3885   -3.8692  -13.7843 O   0  0  0  0  0  0  0  0  0  0  0  0
   20.4361   -5.1607  -16.0536 C   0  0  0  0  0  0  0  0  0  0  0  0
   20.0982   -5.1417  -17.2531 O   0  0  0  0  0  0  0  0  0  0  0  0
   23.0951   -2.6101  -14.5425 O   0  0  0  0  0  0  0  0  0  0  0  0
   19.6676   -4.4798  -15.1360 O   0  0  0  0  0  0  0  0  0  0  0  0
  2  1  1  1
  2  3  1  0
  4  2  1  0
  4  5  1  6
  6  7  2  0
  6  4  1  0
  9  8  1  0
 10  9  2  0
 11 10  1  0
 12 11  2  0
 12 18  1  0
 13 12  1  0
 14 13  1  1
 14 15  1  0
 15  6  1  0
 16 20  1  0
 16 14  1  0
 17 16  2  0
 18 19  2  0
 19  9  1  0
 21 20  1  0
 21 25  1  0
 21 22  1  6
 23 22  1  0
 24 23  2  0
 25 28  1  0
 26 25  2  0
 27 23  1  0
M  END
$$$$
