ECS.pdb
     RDKit          3D

 22 21  0  0  1  0  0  0  0  0999 V2000
   19.7708  -11.4924  -16.9859 N   0  0  0  0  0  0  0  0  0  0  0  0
   18.6072  -10.6533  -17.1983 C   0  0  1  0  0  0  0  0  0  0  0  0
   17.3734  -11.4785  -17.0767 C   0  0  0  0  0  0  0  0  0  0  0  0
   17.5709  -12.9632  -17.1597 C   0  0  0  0  0  0  0  0  0  0  0  0
   16.7482  -13.7003  -16.1992 C   0  0  0  0  0  0  0  0  0  0  0  0
   17.2765  -14.2792  -15.2196 O   0  0  0  0  0  0  0  0  0  0  0  0
   18.6641   -9.5320  -16.2424 C   0  0  0  0  0  0  0  0  0  0  0  0
   17.7075   -8.7248  -16.1665 O   0  0  0  0  0  0  0  0  0  0  0  0
   15.3742  -13.7842  -16.3354 O   0  0  0  0  0  0  0  0  0  0  0  0
   19.7640   -9.2988  -15.3755 N   0  0  0  0  0  0  0  0  0  0  0  0
   19.7253   -8.2158  -14.3708 C   0  0  1  0  0  0  0  0  0  0  0  0
   20.2858   -8.8329  -13.0829 C   0  0  0  0  0  0  0  0  0  0  0  0
   19.2488   -8.4655  -11.6599 S   0  0  0  0  0  0  0  0  0  0  0  0
   20.6639   -7.1466  -14.7979 C   0  0  0  0  0  0  0  0  0  0  0  0
   21.8084   -7.4713  -15.2694 O   0  0  0  0  0  0  0  0  0  0  0  0
   21.4024   -2.4672  -15.9296 O   0  0  0  0  0  0  0  0  0  0  0  0
   20.5808   -3.5076  -15.5590 C   0  0  0  0  0  0  0  0  0  0  0  0
   21.3485   -4.7573  -15.2067 C   0  0  2  0  0  0  0  0  0  0  0  0
   20.3968   -5.7715  -14.7292 N   0  0  0  0  0  0  0  0  0  0  0  0
   22.3000   -4.4134  -14.1281 C   0  0  0  0  0  0  0  0  0  0  0  0
   21.9659   -4.4822  -12.9263 O   0  0  0  0  0  0  0  0  0  0  0  0
   23.5759   -4.0105  -14.4500 O   0  0  0  0  0  0  0  0  0  0  0  0
  2  1  1  1
  2  7  1  0
  3  4  1  0
  3  2  1  0
  5  4  1  0
  6  5  2  0
  7 10  1  0
  7  8  2  0
  9  5  1  0
 10 11  1  0
 11 14  1  0
 12 13  1  0
 11 12  1  1
 14 15  2  0
 14 19  1  0
 16 17  1  0
 18 20  1  0
 18 17  1  1
 19 18  1  0
 20 22  1  0
 21 20  2  0
M  END
$$$$
