ECS.pdb
     RDKit          3D

 22 21  0  0  1  0  0  0  0  0999 V2000
   32.0522  -35.4260   -6.6234 N   0  0  0  0  0  0  0  0  0  0  0  0
   32.2688  -34.6508   -5.4170 C   0  0  1  0  0  0  0  0  0  0  0  0
   31.0167  -33.9263   -5.0630 C   0  0  0  0  0  0  0  0  0  0  0  0
   29.8267  -34.7889   -4.7627 C   0  0  0  0  0  0  0  0  0  0  0  0
   28.6362  -34.0124   -4.4125 C   0  0  0  0  0  0  0  0  0  0  0  0
   28.6687  -32.7584   -4.4184 O   0  0  0  0  0  0  0  0  0  0  0  0
   32.7425  -35.5626   -4.3595 C   0  0  0  0  0  0  0  0  0  0  0  0
   32.5554  -36.7978   -4.4677 O   0  0  0  0  0  0  0  0  0  0  0  0
   27.4461  -34.6264   -4.0664 O   0  0  0  0  0  0  0  0  0  0  0  0
   33.4173  -35.1211   -3.1910 N   0  0  0  0  0  0  0  0  0  0  0  0
   33.8363  -36.0784   -2.1461 C   0  0  1  0  0  0  0  0  0  0  0  0
   34.8615  -35.3249   -1.2888 C   0  0  0  0  0  0  0  0  0  0  0  0
   35.4710  -36.3370    0.0674 S   0  0  0  0  0  0  0  0  0  0  0  0
   32.6638  -36.3727   -1.2829 C   0  0  0  0  0  0  0  0  0  0  0  0
   31.8024  -35.4521   -1.0634 O   0  0  0  0  0  0  0  0  0  0  0  0
   30.3244  -39.6427   -1.1408 O   0  0  0  0  0  0  0  0  0  0  0  0
   30.8590  -39.3046    0.0818 C   0  0  0  0  0  0  0  0  0  0  0  0
   31.2276  -37.8447    0.1713 C   0  0  2  0  0  0  0  0  0  0  0  0
   32.4098  -37.6086   -0.6706 N   0  0  0  0  0  0  0  0  0  0  0  0
   31.5485  -37.5461    1.5838 C   0  0  0  0  0  0  0  0  0  0  0  0
   32.6666  -37.0946    1.9103 O   0  0  0  0  0  0  0  0  0  0  0  0
   30.6017  -37.7681    2.5576 O   0  0  0  0  0  0  0  0  0  0  0  0
  2  1  1  6
  2  7  1  0
  3  4  1  0
  3  2  1  0
  5  4  1  0
  6  5  2  0
  7 10  1  0
  7  8  2  0
  9  5  1  0
 10 11  1  0
 11 14  1  0
 12 13  1  0
 11 12  1  1
 14 15  2  0
 14 19  1  0
 16 17  1  0
 18 20  1  0
 18 17  1  1
 19 18  1  0
 20 22  1  0
 21 20  2  0
M  END
$$$$
