ECS.pdb
     RDKit          3D

 22 21  0  0  1  0  0  0  0  0999 V2000
   17.3634   -9.4117  -16.1333 N   0  0  0  0  0  0  0  0  0  0  0  0
   16.5034   -9.7070  -15.0035 C   0  0  1  0  0  0  0  0  0  0  0  0
   16.2477  -11.1730  -14.9462 C   0  0  0  0  0  0  0  0  0  0  0  0
   17.4165  -12.0524  -15.2790 C   0  0  0  0  0  0  0  0  0  0  0  0
   17.1384  -13.4731  -15.0621 C   0  0  0  0  0  0  0  0  0  0  0  0
   18.0298  -14.3341  -15.2567 O   0  0  0  0  0  0  0  0  0  0  0  0
   17.1381   -9.1702  -13.7857 C   0  0  0  0  0  0  0  0  0  0  0  0
   16.6536   -9.4330  -12.6593 O   0  0  0  0  0  0  0  0  0  0  0  0
   15.8967  -13.9126  -14.6396 O   0  0  0  0  0  0  0  0  0  0  0  0
   18.2972   -8.3505  -13.8044 N   0  0  0  0  0  0  0  0  0  0  0  0
   18.9401   -7.9120  -12.5482 C   0  0  1  0  0  0  0  0  0  0  0  0
   20.3414   -7.4348  -12.9511 C   0  0  0  0  0  0  0  0  0  0  0  0
   21.4812   -8.8104  -13.1601 S   0  0  0  0  0  0  0  0  0  0  0  0
   18.1998   -6.7334  -12.0295 C   0  0  0  0  0  0  0  0  0  0  0  0
   17.6618   -5.9192  -12.8574 O   0  0  0  0  0  0  0  0  0  0  0  0
   14.8460   -4.7225  -10.1132 O   0  0  0  0  0  0  0  0  0  0  0  0
   15.7452   -5.6445  -10.5994 C   0  0  0  0  0  0  0  0  0  0  0  0
   17.1681   -5.3298  -10.2102 C   0  0  2  0  0  0  0  0  0  0  0  0
   18.0324   -6.4264  -10.6713 N   0  0  0  0  0  0  0  0  0  0  0  0
   17.2218   -5.2336   -8.7354 C   0  0  0  0  0  0  0  0  0  0  0  0
   17.7834   -6.1149   -8.0509 O   0  0  0  0  0  0  0  0  0  0  0  0
   16.6444   -4.1562   -8.1029 O   0  0  0  0  0  0  0  0  0  0  0  0
  2  1  1  6
  2  7  1  0
  3  4  1  0
  3  2  1  0
  5  4  1  0
  6  5  2  0
  7 10  1  0
  7  8  2  0
  9  5  1  0
 10 11  1  0
 11 14  1  0
 12 13  1  0
 11 12  1  6
 14 15  2  0
 14 19  1  0
 16 17  1  0
 18 20  1  0
 18 17  1  1
 19 18  1  0
 20 22  1  0
 21 20  2  0
M  END
$$$$
