ECS.pdb
     RDKit          3D

 22 21  0  0  1  0  0  0  0  0999 V2000
   28.4944  -20.8420  -15.5685 N   0  0  0  0  0  0  0  0  0  0  0  0
   27.8076  -20.0702  -14.5507 C   0  0  1  0  0  0  0  0  0  0  0  0
   27.2199  -18.8491  -15.1682 C   0  0  0  0  0  0  0  0  0  0  0  0
   28.2012  -17.8787  -15.7562 C   0  0  0  0  0  0  0  0  0  0  0  0
   27.5591  -16.6811  -16.3005 C   0  0  0  0  0  0  0  0  0  0  0  0
   27.0281  -16.7032  -17.4369 O   0  0  0  0  0  0  0  0  0  0  0  0
   26.8109  -20.9421  -13.9022 C   0  0  0  0  0  0  0  0  0  0  0  0
   26.3055  -21.8968  -14.5390 O   0  0  0  0  0  0  0  0  0  0  0  0
   27.5152  -15.4953  -15.5897 O   0  0  0  0  0  0  0  0  0  0  0  0
   26.3722  -20.7670  -12.5633 N   0  0  0  0  0  0  0  0  0  0  0  0
   25.2349  -21.5434  -12.0270 C   0  0  1  0  0  0  0  0  0  0  0  0
   25.3258  -21.4011  -10.5021 C   0  0  0  0  0  0  0  0  0  0  0  0
   25.5129  -19.6837  -10.0014 S   0  0  0  0  0  0  0  0  0  0  0  0
   23.9744  -20.8887  -12.4614 C   0  0  0  0  0  0  0  0  0  0  0  0
   23.9541  -19.6199  -12.6278 O   0  0  0  0  0  0  0  0  0  0  0  0
   20.1682  -20.7241  -15.1467 O   0  0  0  0  0  0  0  0  0  0  0  0
   21.3073  -21.2916  -14.6221 C   0  0  0  0  0  0  0  0  0  0  0  0
   21.5658  -20.8662  -13.1982 C   0  0  2  0  0  0  0  0  0  0  0  0
   22.7690  -21.5595  -12.7143 N   0  0  0  0  0  0  0  0  0  0  0  0
   20.3951  -21.2665  -12.3881 C   0  0  0  0  0  0  0  0  0  0  0  0
   20.4597  -22.2250  -11.5896 O   0  0  0  0  0  0  0  0  0  0  0  0
   19.2128  -20.5734  -12.5134 O   0  0  0  0  0  0  0  0  0  0  0  0
  2  1  1  6
  2  7  1  0
  3  4  1  0
  3  2  1  0
  5  4  1  0
  6  5  2  0
  7 10  1  0
  7  8  2  0
  9  5  1  0
 10 11  1  0
 11 14  1  0
 12 13  1  0
 11 12  1  1
 14 15  2  0
 14 19  1  0
 16 17  1  0
 18 20  1  0
 18 17  1  6
 19 18  1  0
 20 22  1  0
 21 20  2  0
M  END
$$$$
