ECS.pdb
     RDKit          3D

 22 21  0  0  1  0  0  0  0  0999 V2000
   20.0358  -11.7356  -17.7841 N   0  0  0  0  0  0  0  0  0  0  0  0
   19.2596  -11.3401  -16.6246 C   0  0  1  0  0  0  0  0  0  0  0  0
   18.7586  -12.5563  -15.9263 C   0  0  0  0  0  0  0  0  0  0  0  0
   18.5560  -13.7668  -16.7889 C   0  0  0  0  0  0  0  0  0  0  0  0
   18.0280  -14.9121  -16.0457 C   0  0  0  0  0  0  0  0  0  0  0  0
   17.6966  -15.9630  -16.6452 O   0  0  0  0  0  0  0  0  0  0  0  0
   20.1016  -10.4768  -15.7761 C   0  0  0  0  0  0  0  0  0  0  0  0
   19.6697  -10.0732  -14.6703 O   0  0  0  0  0  0  0  0  0  0  0  0
   17.8771  -14.8772  -14.6711 O   0  0  0  0  0  0  0  0  0  0  0  0
   21.4092  -10.0598  -16.1395 N   0  0  0  0  0  0  0  0  0  0  0  0
   22.2343   -9.2516  -15.2176 C   0  0  1  0  0  0  0  0  0  0  0  0
   23.6884   -9.5292  -15.6205 C   0  0  0  0  0  0  0  0  0  0  0  0
   24.3002  -11.0601  -14.9013 S   0  0  0  0  0  0  0  0  0  0  0  0
   21.9644   -7.8154  -15.4839 C   0  0  0  0  0  0  0  0  0  0  0  0
   21.4242   -7.4762  -16.5933 O   0  0  0  0  0  0  0  0  0  0  0  0
   19.4708   -4.3985  -14.5383 O   0  0  0  0  0  0  0  0  0  0  0  0
   20.1428   -5.5988  -14.4887 C   0  0  0  0  0  0  0  0  0  0  0  0
   21.6273   -5.4432  -14.7071 C   0  0  2  0  0  0  0  0  0  0  0  0
   22.2570   -6.7676  -14.5988 N   0  0  0  0  0  0  0  0  0  0  0  0
   22.1480   -4.5510  -13.6488 C   0  0  0  0  0  0  0  0  0  0  0  0
   22.6053   -5.0130  -12.5820 O   0  0  0  0  0  0  0  0  0  0  0  0
   22.1302   -3.1881  -13.8392 O   0  0  0  0  0  0  0  0  0  0  0  0
  2  1  1  6
  2  7  1  0
  3  4  1  0
  3  2  1  0
  5  4  1  0
  6  5  2  0
  7 10  1  0
  7  8  2  0
  9  5  1  0
 10 11  1  0
 11 14  1  0
 12 13  1  0
 11 12  1  6
 14 15  2  0
 14 19  1  0
 16 17  1  0
 18 20  1  0
 18 17  1  1
 19 18  1  0
 20 22  1  0
 21 20  2  0
M  END
$$$$
