ECS.pdb
     RDKit          3D

 22 21  0  0  1  0  0  0  0  0999 V2000
   28.2899  -21.2758  -16.1158 N   0  0  0  0  0  0  0  0  0  0  0  0
   27.8492  -20.3054  -15.1323 C   0  0  1  0  0  0  0  0  0  0  0  0
   27.2938  -19.1121  -15.8290 C   0  0  0  0  0  0  0  0  0  0  0  0
   27.3703  -19.1372  -17.3270 C   0  0  0  0  0  0  0  0  0  0  0  0
   28.2002  -18.0613  -17.8714 C   0  0  0  0  0  0  0  0  0  0  0  0
   27.7655  -16.8857  -17.9247 O   0  0  0  0  0  0  0  0  0  0  0  0
   26.8860  -20.9643  -14.2309 C   0  0  0  0  0  0  0  0  0  0  0  0
   26.2424  -21.9652  -14.6262 O   0  0  0  0  0  0  0  0  0  0  0  0
   29.4792  -18.2993  -18.3416 O   0  0  0  0  0  0  0  0  0  0  0  0
   26.6315  -20.5271  -12.9043 N   0  0  0  0  0  0  0  0  0  0  0  0
   25.6527  -21.2271  -12.0466 C   0  0  1  0  0  0  0  0  0  0  0  0
   25.8864  -20.6826  -10.6314 C   0  0  0  0  0  0  0  0  0  0  0  0
   24.6148  -21.2340   -9.4851 S   0  0  0  0  0  0  0  0  0  0  0  0
   24.2871  -20.8163  -12.4624 C   0  0  0  0  0  0  0  0  0  0  0  0
   24.0245  -19.5718  -12.6033 O   0  0  0  0  0  0  0  0  0  0  0  0
   19.9673  -22.0306  -14.3450 O   0  0  0  0  0  0  0  0  0  0  0  0
   21.2253  -22.3684  -13.8999 C   0  0  0  0  0  0  0  0  0  0  0  0
   21.9069  -21.2376  -13.1705 C   0  0  2  0  0  0  0  0  0  0  0  0
   23.2294  -21.6995  -12.7234 N   0  0  0  0  0  0  0  0  0  0  0  0
   21.0737  -20.8889  -11.9994 C   0  0  0  0  0  0  0  0  0  0  0  0
   21.2930  -21.3936  -10.8778 O   0  0  0  0  0  0  0  0  0  0  0  0
   20.0386  -19.9936  -12.1439 O   0  0  0  0  0  0  0  0  0  0  0  0
  2  1  1  6
  2  7  1  0
  3  4  1  0
  3  2  1  0
  5  4  1  0
  6  5  2  0
  7 10  1  0
  7  8  2  0
  9  5  1  0
 10 11  1  0
 11 14  1  0
 12 13  1  0
 11 12  1  1
 14 15  2  0
 14 19  1  0
 16 17  1  0
 18 20  1  0
 18 17  1  1
 19 18  1  0
 20 22  1  0
 21 20  2  0
M  END
$$$$
