CCD.pdb
     RDKit          3D

 21 20  0  0  1  0  0  0  0  0999 V2000
   25.2376  -11.1299  -17.1640 N   0  0  0  0  0  0  0  0  0  0  0  0
   25.1514   -9.8392  -16.5153 C   0  0  1  0  0  0  0  0  0  0  0  0
   26.2206   -8.9648  -17.1402 C   0  0  0  0  0  0  0  0  0  0  0  0
   27.8381   -9.4629  -16.5014 S   0  0  0  0  0  0  0  0  0  0  0  0
   23.8465   -9.1714  -16.7951 C   0  0  0  0  0  0  0  0  0  0  0  0
   23.2194   -9.4379  -17.8493 O   0  0  0  0  0  0  0  0  0  0  0  0
   23.2661   -8.2262  -15.9047 N   0  0  0  0  0  0  0  0  0  0  0  0
   22.0018   -7.5879  -16.1327 C   0  0  1  0  0  0  0  0  0  0  0  0
   20.8929   -8.5583  -15.7360 C   0  0  0  0  0  0  0  0  0  0  0  0
   21.1724   -9.1483  -14.0242 S   0  0  0  0  0  0  0  0  0  0  0  0
   21.8705   -6.3077  -15.3691 C   0  0  0  0  0  0  0  0  0  0  0  0
   22.5496   -6.0901  -14.3307 O   0  0  0  0  0  0  0  0  0  0  0  0
   20.9722   -5.2896  -15.7906 N   0  0  0  0  0  0  0  0  0  0  0  0
   20.7883   -4.0416  -15.1029 C   0  0  1  0  0  0  0  0  0  0  0  0
   21.7824   -2.9942  -15.5358 C   0  0  0  0  0  0  0  0  0  0  0  0
   21.6327   -1.7019  -14.8304 C   0  0  0  0  0  0  0  0  0  0  0  0
   20.7590   -1.5055  -13.9311 O   0  0  0  0  0  0  0  0  0  0  0  0
   19.3833   -3.5808  -15.1282 C   0  0  0  0  0  0  0  0  0  0  0  0
   18.7617   -3.0218  -14.0068 O   0  0  0  0  0  0  0  0  0  0  0  0
   22.4470   -0.5985  -15.1052 O   0  0  0  0  0  0  0  0  0  0  0  0
   18.6654   -3.6627  -16.1537 O   0  0  0  0  0  0  0  0  0  0  0  0
  2  3  1  0
  2  1  1  6
  4  3  1  0
  5  6  2  0
  5  2  1  0
  7  5  1  0
  8 11  1  0
  8  7  1  0
  9 10  1  0
  8  9  1  1
 11 13  1  0
 12 11  2  0
 13 14  1  0
 14 18  1  0
 14 15  1  6
 16 15  1  0
 17 16  2  0
 18 21  2  0
 18 19  1  0
 20 16  1  0
M  END
$$$$
