CCD.pdb
     RDKit          3D

 21 20  0  0  1  0  0  0  0  0999 V2000
   16.2586  -11.5214  -11.0652 N   0  0  0  0  0  0  0  0  0  0  0  0
   16.9691  -10.2607  -11.0619 C   0  0  1  0  0  0  0  0  0  0  0  0
   17.4422  -10.0231  -12.4825 C   0  0  0  0  0  0  0  0  0  0  0  0
   19.0145  -10.8821  -12.7323 S   0  0  0  0  0  0  0  0  0  0  0  0
   16.0643   -9.1228  -10.7249 C   0  0  0  0  0  0  0  0  0  0  0  0
   15.1060   -8.8380  -11.4840 O   0  0  0  0  0  0  0  0  0  0  0  0
   16.2394   -8.3274   -9.5588 N   0  0  0  0  0  0  0  0  0  0  0  0
   15.3654   -7.2520   -9.1883 C   0  0  1  0  0  0  0  0  0  0  0  0
   14.6875   -7.6136   -7.8698 C   0  0  0  0  0  0  0  0  0  0  0  0
   13.4872   -8.9701   -8.1448 S   0  0  0  0  0  0  0  0  0  0  0  0
   16.0944   -5.9516   -9.0590 C   0  0  0  0  0  0  0  0  0  0  0  0
   17.1880   -5.8710   -8.4392 O   0  0  0  0  0  0  0  0  0  0  0  0
   15.5764   -4.7587   -9.6332 N   0  0  0  0  0  0  0  0  0  0  0  0
   16.1754   -3.4623   -9.4759 C   0  0  1  0  0  0  0  0  0  0  0  0
   16.8180   -2.9674  -10.7467 C   0  0  0  0  0  0  0  0  0  0  0  0
   17.3787   -1.6021  -10.6393 C   0  0  0  0  0  0  0  0  0  0  0  0
   17.3687   -0.9367   -9.5586 O   0  0  0  0  0  0  0  0  0  0  0  0
   15.2595   -2.4856   -8.8480 C   0  0  0  0  0  0  0  0  0  0  0  0
   15.7203   -1.4567   -8.0202 O   0  0  0  0  0  0  0  0  0  0  0  0
   17.9628   -0.9433  -11.7260 O   0  0  0  0  0  0  0  0  0  0  0  0
   14.0172   -2.5202   -9.0191 O   0  0  0  0  0  0  0  0  0  0  0  0
  2  3  1  0
  2  1  1  6
  4  3  1  0
  5  6  2  0
  5  2  1  0
  7  5  1  0
  8 11  1  0
  8  7  1  0
  9 10  1  0
  8  9  1  1
 11 13  1  0
 12 11  2  0
 13 14  1  0
 14 18  1  0
 14 15  1  6
 16 15  1  0
 17 16  2  0
 18 21  2  0
 18 19  1  0
 20 16  1  0
M  END
$$$$
