CCD.pdb
     RDKit          3D

 21 20  0  0  1  0  0  0  0  0999 V2000
   20.4203  -12.0497  -18.9596 N   0  0  0  0  0  0  0  0  0  0  0  0
   21.2066  -10.8357  -19.0063 C   0  0  1  0  0  0  0  0  0  0  0  0
   20.5844   -9.9539  -20.0711 C   0  0  0  0  0  0  0  0  0  0  0  0
   20.8883  -10.6877  -21.6964 S   0  0  0  0  0  0  0  0  0  0  0  0
   21.1162  -10.0748  -17.7257 C   0  0  0  0  0  0  0  0  0  0  0  0
   20.0056   -9.9326  -17.1582 O   0  0  0  0  0  0  0  0  0  0  0  0
   22.2534   -9.4898  -17.1031 N   0  0  0  0  0  0  0  0  0  0  0  0
   22.2183   -8.8467  -15.8214 C   0  0  1  0  0  0  0  0  0  0  0  0
   23.4019   -9.3467  -14.9980 C   0  0  0  0  0  0  0  0  0  0  0  0
   22.9183  -10.8531  -14.0742 S   0  0  0  0  0  0  0  0  0  0  0  0
   22.2582   -7.3553  -15.9373 C   0  0  0  0  0  0  0  0  0  0  0  0
   23.1214   -6.7751  -16.6480 O   0  0  0  0  0  0  0  0  0  0  0  0
   21.3205   -6.5394  -15.2475 N   0  0  0  0  0  0  0  0  0  0  0  0
   21.3362   -5.1028  -15.2642 C   0  0  1  0  0  0  0  0  0  0  0  0
   19.9617   -4.5146  -15.4579 C   0  0  0  0  0  0  0  0  0  0  0  0
   19.9503   -3.0366  -15.5321 C   0  0  0  0  0  0  0  0  0  0  0  0
   21.0075   -2.3364  -15.4799 O   0  0  0  0  0  0  0  0  0  0  0  0
   22.0774   -4.5294  -14.1202 C   0  0  0  0  0  0  0  0  0  0  0  0
   22.5088   -5.3115  -13.0438 O   0  0  0  0  0  0  0  0  0  0  0  0
   18.7681   -2.3013  -15.6657 O   0  0  0  0  0  0  0  0  0  0  0  0
   22.3638   -3.3103  -14.0456 O   0  0  0  0  0  0  0  0  0  0  0  0
  2  3  1  0
  2  1  1  1
  4  3  1  0
  5  6  2  0
  5  2  1  0
  7  5  1  0
  8 11  1  0
  8  7  1  0
  9 10  1  0
  8  9  1  1
 11 13  1  0
 12 11  2  0
 13 14  1  0
 14 18  1  0
 14 15  1  1
 16 15  1  0
 17 16  2  0
 18 21  2  0
 18 19  1  0
 20 16  1  0
M  END
$$$$
