CCD.pdb
     RDKit          3D

 21 20  0  0  1  0  0  0  0  0999 V2000
   37.4084   -8.8474  -15.3073 N   0  0  0  0  0  0  0  0  0  0  0  0
   36.0309   -9.0085  -14.8946 C   0  0  1  0  0  0  0  0  0  0  0  0
   35.6062   -7.6941  -14.2698 C   0  0  0  0  0  0  0  0  0  0  0  0
   36.3240   -7.5686  -12.6141 S   0  0  0  0  0  0  0  0  0  0  0  0
   35.1305   -9.2275  -16.0644 C   0  0  0  0  0  0  0  0  0  0  0  0
   35.3323   -8.6053  -17.1357 O   0  0  0  0  0  0  0  0  0  0  0  0
   34.0299  -10.1275  -16.0230 N   0  0  0  0  0  0  0  0  0  0  0  0
   33.0672  -10.2591  -17.0783 C   0  0  1  0  0  0  0  0  0  0  0  0
   32.3049  -11.5656  -16.8758 C   0  0  0  0  0  0  0  0  0  0  0  0
   30.9953  -11.7193  -18.1477 S   0  0  0  0  0  0  0  0  0  0  0  0
   32.1170   -9.1039  -17.1223 C   0  0  0  0  0  0  0  0  0  0  0  0
   31.6809   -8.5722  -16.0669 O   0  0  0  0  0  0  0  0  0  0  0  0
   31.6726   -8.5650  -18.3604 N   0  0  0  0  0  0  0  0  0  0  0  0
   30.7588   -7.4626  -18.4780 C   0  0  1  0  0  0  0  0  0  0  0  0
   31.3684   -6.1593  -18.0281 C   0  0  0  0  0  0  0  0  0  0  0  0
   30.4990   -4.9837  -18.2560 C   0  0  0  0  0  0  0  0  0  0  0  0
   29.2354   -5.0677  -18.3399 O   0  0  0  0  0  0  0  0  0  0  0  0
   30.1172   -7.3959  -19.8088 C   0  0  0  0  0  0  0  0  0  0  0  0
   28.9263   -6.6959  -20.0282 O   0  0  0  0  0  0  0  0  0  0  0  0
   31.0093   -3.6890  -18.3961 O   0  0  0  0  0  0  0  0  0  0  0  0
   30.6004   -7.9613  -20.8190 O   0  0  0  0  0  0  0  0  0  0  0  0
  2  3  1  0
  2  1  1  6
  4  3  1  0
  5  6  2  0
  5  2  1  0
  7  5  1  0
  8 11  1  0
  8  7  1  0
  9 10  1  0
  8  9  1  1
 11 13  1  0
 12 11  2  0
 13 14  1  0
 14 18  1  0
 14 15  1  6
 16 15  1  0
 17 16  2  0
 18 21  2  0
 18 19  1  0
 20 16  1  0
M  END
$$$$
