CCD.pdb
     RDKit          3D

 21 20  0  0  1  0  0  0  0  0999 V2000
   18.9316  -12.7481  -16.9243 N   0  0  0  0  0  0  0  0  0  0  0  0
   18.1282  -11.8301  -16.1459 C   0  0  1  0  0  0  0  0  0  0  0  0
   18.4174  -12.1262  -14.6875 C   0  0  0  0  0  0  0  0  0  0  0  0
   17.6214  -13.6857  -14.2328 S   0  0  0  0  0  0  0  0  0  0  0  0
   18.5373  -10.4135  -16.3758 C   0  0  0  0  0  0  0  0  0  0  0  0
   19.7319  -10.1427  -16.6499 O   0  0  0  0  0  0  0  0  0  0  0  0
   17.6181   -9.3309  -16.2975 N   0  0  0  0  0  0  0  0  0  0  0  0
   17.9453   -7.9797  -16.6510 C   0  0  1  0  0  0  0  0  0  0  0  0
   16.6557   -7.2513  -17.0184 C   0  0  0  0  0  0  0  0  0  0  0  0
   16.0080   -7.9045  -18.6028 S   0  0  0  0  0  0  0  0  0  0  0  0
   18.6508   -7.2620  -15.5436 C   0  0  0  0  0  0  0  0  0  0  0  0
   18.6119   -7.6850  -14.3577 O   0  0  0  0  0  0  0  0  0  0  0  0
   19.3917   -6.0745  -15.7924 N   0  0  0  0  0  0  0  0  0  0  0  0
   20.1640   -5.3829  -14.7977 C   0  0  1  0  0  0  0  0  0  0  0  0
   21.2949   -6.2228  -14.2607 C   0  0  0  0  0  0  0  0  0  0  0  0
   22.0944   -5.5481  -13.2141 C   0  0  0  0  0  0  0  0  0  0  0  0
   22.7802   -4.5038  -13.4376 O   0  0  0  0  0  0  0  0  0  0  0  0
   20.5769   -4.0324  -15.2366 C   0  0  0  0  0  0  0  0  0  0  0  0
   20.7216   -2.9688  -14.3399 O   0  0  0  0  0  0  0  0  0  0  0  0
   22.1523   -6.0145  -11.8968 O   0  0  0  0  0  0  0  0  0  0  0  0
   20.8218   -3.7591  -16.4362 O   0  0  0  0  0  0  0  0  0  0  0  0
  2  3  1  0
  2  1  1  6
  4  3  1  0
  5  6  2  0
  5  2  1  0
  7  5  1  0
  8 11  1  0
  8  7  1  0
  9 10  1  0
  8  9  1  1
 11 13  1  0
 12 11  2  0
 13 14  1  0
 14 18  1  0
 14 15  1  6
 16 15  1  0
 17 16  2  0
 18 21  2  0
 18 19  1  0
 20 16  1  0
M  END
$$$$
