CCD.pdb
     RDKit          3D

 21 20  0  0  1  0  0  0  0  0999 V2000
   13.5686  -11.0989  -10.3337 N   0  0  0  0  0  0  0  0  0  0  0  0
   14.8790  -10.5995   -9.9767 C   0  0  1  0  0  0  0  0  0  0  0  0
   15.8669  -11.2501  -10.9250 C   0  0  0  0  0  0  0  0  0  0  0  0
   16.0957  -12.9788  -10.4440 S   0  0  0  0  0  0  0  0  0  0  0  0
   14.9853   -9.1284  -10.2041 C   0  0  0  0  0  0  0  0  0  0  0  0
   14.4001   -8.6014  -11.1815 O   0  0  0  0  0  0  0  0  0  0  0  0
   15.7348   -8.2755   -9.3473 N   0  0  0  0  0  0  0  0  0  0  0  0
   15.8690   -6.8615   -9.5485 C   0  0  1  0  0  0  0  0  0  0  0  0
   15.4640   -6.1504   -8.2604 C   0  0  0  0  0  0  0  0  0  0  0  0
   15.8499   -4.3644   -8.3942 S   0  0  0  0  0  0  0  0  0  0  0  0
   17.2613   -6.4770   -9.9394 C   0  0  0  0  0  0  0  0  0  0  0  0
   18.2458   -6.7319   -9.1961 O   0  0  0  0  0  0  0  0  0  0  0  0
   17.5217   -5.8089  -11.1669 N   0  0  0  0  0  0  0  0  0  0  0  0
   18.8351   -5.4528  -11.6279 C   0  0  1  0  0  0  0  0  0  0  0  0
   19.7009   -6.6596  -11.8865 C   0  0  0  0  0  0  0  0  0  0  0  0
   21.0322   -6.3307  -12.4427 C   0  0  0  0  0  0  0  0  0  0  0  0
   21.5887   -5.2024  -12.2753 O   0  0  0  0  0  0  0  0  0  0  0  0
   18.8018   -4.4883  -12.7484 C   0  0  0  0  0  0  0  0  0  0  0  0
   19.9610   -3.8868  -13.2492 O   0  0  0  0  0  0  0  0  0  0  0  0
   21.7768   -7.2436  -13.1965 O   0  0  0  0  0  0  0  0  0  0  0  0
   17.7352   -4.1518  -13.3165 O   0  0  0  0  0  0  0  0  0  0  0  0
  2  3  1  0
  2  1  1  6
  4  3  1  0
  5  6  2  0
  5  2  1  0
  7  5  1  0
  8 11  1  0
  8  7  1  0
  9 10  1  0
  8  9  1  1
 11 13  1  0
 12 11  2  0
 13 14  1  0
 14 18  1  0
 14 15  1  6
 16 15  1  0
 17 16  2  0
 18 21  2  0
 18 19  1  0
 20 16  1  0
M  END
$$$$
