CCD.pdb
     RDKit          3D

 21 20  0  0  1  0  0  0  0  0999 V2000
   20.2779  -12.5340  -18.1146 N   0  0  0  0  0  0  0  0  0  0  0  0
   20.4520  -12.1076  -16.7428 C   0  0  1  0  0  0  0  0  0  0  0  0
   21.9242  -11.7912  -16.5679 C   0  0  0  0  0  0  0  0  0  0  0  0
   22.8562  -13.3400  -16.4963 S   0  0  0  0  0  0  0  0  0  0  0  0
   19.7144  -10.8403  -16.4652 C   0  0  0  0  0  0  0  0  0  0  0  0
   19.7554   -9.8972  -17.2925 O   0  0  0  0  0  0  0  0  0  0  0  0
   18.9500  -10.6452  -15.2817 N   0  0  0  0  0  0  0  0  0  0  0  0
   18.1596   -9.4756  -15.0266 C   0  0  1  0  0  0  0  0  0  0  0  0
   16.8795   -9.9042  -14.3148 C   0  0  0  0  0  0  0  0  0  0  0  0
   15.9015  -10.9995  -15.4104 S   0  0  0  0  0  0  0  0  0  0  0  0
   18.8971   -8.4641  -14.2067 C   0  0  0  0  0  0  0  0  0  0  0  0
   19.7718   -8.8100  -13.3689 O   0  0  0  0  0  0  0  0  0  0  0  0
   18.6353   -7.0738  -14.3457 N   0  0  0  0  0  0  0  0  0  0  0  0
   19.5065   -6.0375  -13.8645 C   0  0  1  0  0  0  0  0  0  0  0  0
   20.9362   -6.2408  -14.2973 C   0  0  0  0  0  0  0  0  0  0  0  0
   21.8624   -5.1961  -13.8067 C   0  0  0  0  0  0  0  0  0  0  0  0
   22.1335   -4.1492  -14.4710 O   0  0  0  0  0  0  0  0  0  0  0  0
   18.9839   -4.6820  -14.1411 C   0  0  0  0  0  0  0  0  0  0  0  0
   17.9064   -4.4602  -15.0047 O   0  0  0  0  0  0  0  0  0  0  0  0
   22.5090   -5.2873  -12.5699 O   0  0  0  0  0  0  0  0  0  0  0  0
   19.4736   -3.6516  -13.6194 O   0  0  0  0  0  0  0  0  0  0  0  0
  2  3  1  0
  2  1  1  6
  4  3  1  0
  5  6  2  0
  5  2  1  0
  7  5  1  0
  8 11  1  0
  8  7  1  0
  9 10  1  0
  8  9  1  1
 11 13  1  0
 12 11  2  0
 13 14  1  0
 14 18  1  0
 14 15  1  6
 16 15  1  0
 17 16  2  0
 18 21  2  0
 18 19  1  0
 20 16  1  0
M  END
$$$$
