MRW.pdb
     RDKit          3D

 34 35  0  0  1  0  0  0  0  0999 V2000
   18.0382  -21.0915   -9.3737 C   0  0  0  0  0  0  0  0  0  0  0  0
   17.7466  -19.6692  -10.4538 S   0  0  0  0  0  0  0  0  0  0  0  0
   18.4753  -19.9527  -12.0758 C   0  0  0  0  0  0  0  0  0  0  0  0
   19.7717  -20.6902  -11.9583 C   0  0  0  0  0  0  0  0  0  0  0  0
   20.4703  -20.7531  -13.3223 C   0  0  2  0  0  0  0  0  0  0  0  0
   19.6712  -21.5421  -14.1923 N   0  0  0  0  0  0  0  0  0  0  0  0
   21.8335  -21.3307  -13.1069 C   0  0  0  0  0  0  0  0  0  0  0  0
   21.9099  -22.5446  -12.7049 O   0  0  0  0  0  0  0  0  0  0  0  0
   23.8991  -25.9193  -14.4726 N   0  0  0  0  0  0  0  0  0  0  0  0
   25.0311  -25.9482  -15.3206 C   0  0  0  0  0  0  0  0  0  0  0  0
   25.0899  -26.8398  -16.2462 N   0  0  0  0  0  0  0  0  0  0  0  0
   26.0662  -25.0078  -15.1399 N   0  0  0  0  0  0  0  0  0  0  0  0
   25.7545  -23.8091  -14.3451 C   0  0  0  0  0  0  0  0  0  0  0  0
   25.0730  -22.7910  -15.1695 C   0  0  0  0  0  0  0  0  0  0  0  0
   24.8298  -21.4830  -14.5679 C   0  0  0  0  0  0  0  0  0  0  0  0
   24.3568  -21.2919  -13.1997 C   0  0  2  0  0  0  0  0  0  0  0  0
   23.0023  -20.6008  -13.3267 N   0  0  0  0  0  0  0  0  0  0  0  0
   25.0586  -20.5683  -12.1873 C   0  0  0  0  0  0  0  0  0  0  0  0
   25.1170  -19.2944  -12.2206 O   0  0  0  0  0  0  0  0  0  0  0  0
   25.8915  -26.8827  -16.9126 N   0  0  0  0  0  0  0  0  0  0  0  0
   25.7250  -21.1839  -11.0981 C   0  0  2  0  0  0  0  0  0  0  0  0
   26.7053  -20.4790  -10.2536 C   0  0  0  0  0  0  0  0  0  0  0  0
   26.4118  -20.7965   -8.8349 C   0  0  0  0  0  0  0  0  0  0  0  0
   26.9654  -19.8611   -7.8674 C   0  0  0  0  0  0  0  0  0  0  0  0
   26.6657  -18.4914   -7.7917 N   0  0  0  0  0  0  0  0  0  0  0  0
   27.3766  -17.9567   -6.8041 C   0  0  0  0  0  0  0  0  0  0  0  0
   28.1199  -18.9064   -6.2360 C   0  0  0  0  0  0  0  0  0  0  0  0
   29.0041  -18.8968   -5.1867 C   0  0  0  0  0  0  0  0  0  0  0  0
   29.6569  -20.0277   -4.7545 C   0  0  0  0  0  0  0  0  0  0  0  0
   29.4126  -21.2193   -5.4026 C   0  0  0  0  0  0  0  0  0  0  0  0
   28.5301  -21.2588   -6.4599 C   0  0  0  0  0  0  0  0  0  0  0  0
   27.8794  -20.1114   -6.8856 C   0  0  0  0  0  0  0  0  0  0  0  0
   28.0615  -20.6623  -10.7413 O   0  0  0  0  0  0  0  0  0  0  0  0
   28.4382  -21.7523  -11.5182 O   0  0  0  0  0  0  0  0  0  0  0  0
  2  1  1  0
  3  2  1  0
  4  3  1  0
  5  4  1  0
  5  6  1  6
  7  5  1  0
  8  7  2  0
  9 10  1  0
 10 11  2  0
 10 12  1  0
 12 13  1  0
 13 14  1  0
 14 15  1  0
 16 15  1  6
 16 18  1  0
 16 17  1  0
 17  7  1  0
 18 19  2  0
 20 21  1  0
 20 18  1  0
 21 22  1  1
 23 22  1  0
 24 23  2  0
 25 24  1  0
 26 25  1  0
 26 31  2  0
 27 26  1  0
 28 27  2  0
 28 29  1  0
 29 30  2  0
 30 31  1  0
 31 23  1  0
 32 33  1  0
 32 21  1  0
 34 32  2  0
M  END
$$$$
