MRW.pdb
     RDKit          3D

 34 35  0  0  1  0  0  0  0  0999 V2000
   27.5330  -20.4505   -6.4091 C   0  0  0  0  0  0  0  0  0  0  0  0
   26.4972  -20.8301   -7.8435 S   0  0  0  0  0  0  0  0  0  0  0  0
   27.1061  -19.9692   -9.3031 C   0  0  0  0  0  0  0  0  0  0  0  0
   26.1638  -20.1342  -10.4535 C   0  0  0  0  0  0  0  0  0  0  0  0
   26.6949  -21.1960  -11.4245 C   0  0  2  0  0  0  0  0  0  0  0  0
   27.9393  -20.7423  -11.9383 N   0  0  0  0  0  0  0  0  0  0  0  0
   25.6648  -21.3893  -12.4922 C   0  0  0  0  0  0  0  0  0  0  0  0
   25.5837  -20.4997  -13.4103 O   0  0  0  0  0  0  0  0  0  0  0  0
   26.6657  -26.2524  -16.3727 N   0  0  0  0  0  0  0  0  0  0  0  0
   25.4532  -26.9283  -16.6451 C   0  0  0  0  0  0  0  0  0  0  0  0
   25.4286  -28.2125  -16.5698 N   0  0  0  0  0  0  0  0  0  0  0  0
   24.3021  -26.1908  -16.9904 N   0  0  0  0  0  0  0  0  0  0  0  0
   24.2543  -24.7818  -16.5681 C   0  0  0  0  0  0  0  0  0  0  0  0
   23.4458  -24.6247  -15.3424 C   0  0  0  0  0  0  0  0  0  0  0  0
   24.0961  -24.0450  -14.1707 C   0  0  0  0  0  0  0  0  0  0  0  0
   23.8641  -22.6815  -13.7025 C   0  0  2  0  0  0  0  0  0  0  0  0
   24.8060  -22.4889  -12.5175 N   0  0  0  0  0  0  0  0  0  0  0  0
   22.6017  -22.1706  -13.2708 C   0  0  0  0  0  0  0  0  0  0  0  0
   22.1694  -22.4137  -12.0955 O   0  0  0  0  0  0  0  0  0  0  0  0
   24.5541  -28.7530  -16.7471 N   0  0  0  0  0  0  0  0  0  0  0  0
   21.7535  -21.3775  -14.0838 C   0  0  2  0  0  0  0  0  0  0  0  0
   20.4135  -20.9375  -13.6576 C   0  0  0  0  0  0  0  0  0  0  0  0
   20.0898  -19.6760  -14.3671 C   0  0  0  0  0  0  0  0  0  0  0  0
   19.7562  -19.8296  -15.7751 C   0  0  0  0  0  0  0  0  0  0  0  0
   18.4996  -20.1989  -16.2813 N   0  0  0  0  0  0  0  0  0  0  0  0
   18.5792  -20.2620  -17.6066 C   0  0  0  0  0  0  0  0  0  0  0  0
   19.8193  -19.9530  -17.9857 C   0  0  0  0  0  0  0  0  0  0  0  0
   20.4223  -19.8541  -19.2144 C   0  0  0  0  0  0  0  0  0  0  0  0
   21.7406  -19.4932  -19.3684 C   0  0  0  0  0  0  0  0  0  0  0  0
   22.4862  -19.2200  -18.2419 C   0  0  0  0  0  0  0  0  0  0  0  0
   21.9072  -19.3117  -16.9950 C   0  0  0  0  0  0  0  0  0  0  0  0
   20.5776  -19.6771  -16.8541 C   0  0  0  0  0  0  0  0  0  0  0  0
   19.4532  -22.0268  -13.7022 O   0  0  0  0  0  0  0  0  0  0  0  0
   19.6610  -23.1794  -14.4515 O   0  0  0  0  0  0  0  0  0  0  0  0
  2  1  1  0
  3  2  1  0
  4  3  1  0
  5  4  1  0
  5  6  1  6
  7  5  1  0
  8  7  2  0
  9 10  1  0
 10 11  2  0
 10 12  1  0
 12 13  1  0
 13 14  1  0
 14 15  1  0
 16 15  1  1
 16 18  1  0
 16 17  1  0
 17  7  1  0
 18 19  2  0
 20 21  1  0
 20 18  1  0
 21 22  1  6
 23 22  1  0
 24 23  2  0
 25 24  1  0
 26 25  1  0
 26 31  2  0
 27 26  1  0
 28 27  2  0
 28 29  1  0
 29 30  2  0
 30 31  1  0
 31 23  1  0
 32 33  1  0
 32 21  1  0
 34 32  2  0
M  END
$$$$
