MRW.pdb
     RDKit          3D

 34 35  0  0  1  0  0  0  0  0999 V2000
   21.1948  -15.8073  -14.4497 C   0  0  0  0  0  0  0  0  0  0  0  0
   22.0590  -14.8069  -15.6854 S   0  0  0  0  0  0  0  0  0  0  0  0
   23.3409  -15.7785  -16.4948 C   0  0  0  0  0  0  0  0  0  0  0  0
   23.5278  -17.0949  -15.8089 C   0  0  0  0  0  0  0  0  0  0  0  0
   24.6551  -17.8873  -16.4823 C   0  0  2  0  0  0  0  0  0  0  0  0
   24.3488  -18.0039  -17.8646 N   0  0  0  0  0  0  0  0  0  0  0  0
   24.7482  -19.2140  -15.7971 C   0  0  0  0  0  0  0  0  0  0  0  0
   23.7462  -20.0063  -15.8934 O   0  0  0  0  0  0  0  0  0  0  0  0
   27.4324  -25.1815  -17.4689 N   0  0  0  0  0  0  0  0  0  0  0  0
   26.7393  -25.9299  -16.4888 C   0  0  0  0  0  0  0  0  0  0  0  0
   27.0567  -27.1640  -16.3115 N   0  0  0  0  0  0  0  0  0  0  0  0
   25.7220  -25.3168  -15.7287 N   0  0  0  0  0  0  0  0  0  0  0  0
   25.6305  -23.8491  -15.7873 C   0  0  0  0  0  0  0  0  0  0  0  0
   26.8435  -23.2213  -15.2262 C   0  0  0  0  0  0  0  0  0  0  0  0
   26.8728  -21.7644  -15.1351 C   0  0  0  0  0  0  0  0  0  0  0  0
   25.8921  -20.9754  -14.3949 C   0  0  2  0  0  0  0  0  0  0  0  0
   25.8725  -19.6071  -15.0702 N   0  0  0  0  0  0  0  0  0  0  0  0
   25.9518  -20.7061  -12.9931 C   0  0  0  0  0  0  0  0  0  0  0  0
   26.9881  -20.1696  -12.4777 O   0  0  0  0  0  0  0  0  0  0  0  0
   26.5479  -27.7657  -15.6278 N   0  0  0  0  0  0  0  0  0  0  0  0
   24.9007  -21.0011  -12.0891 C   0  0  1  0  0  0  0  0  0  0  0  0
   25.0575  -20.9363  -10.6255 C   0  0  0  0  0  0  0  0  0  0  0  0
   26.0010  -19.8374  -10.3062 C   0  0  0  0  0  0  0  0  0  0  0  0
   27.2730  -20.2626   -9.7417 C   0  0  0  0  0  0  0  0  0  0  0  0
   28.2422  -21.0351  -10.4018 N   0  0  0  0  0  0  0  0  0  0  0  0
   29.2549  -21.2465   -9.5673 C   0  0  0  0  0  0  0  0  0  0  0  0
   28.9940  -20.6522   -8.4030 C   0  0  0  0  0  0  0  0  0  0  0  0
   29.6976  -20.5491   -7.2294 C   0  0  0  0  0  0  0  0  0  0  0  0
   29.2276  -19.8539   -6.1397 C   0  0  0  0  0  0  0  0  0  0  0  0
   27.9991  -19.2356   -6.2307 C   0  0  0  0  0  0  0  0  0  0  0  0
   27.2701  -19.3227   -7.3966 C   0  0  0  0  0  0  0  0  0  0  0  0
   27.7554  -20.0272   -8.4872 C   0  0  0  0  0  0  0  0  0  0  0  0
   23.7730  -20.9692   -9.9476 O   0  0  0  0  0  0  0  0  0  0  0  0
   23.6501  -21.2209   -8.5856 O   0  0  0  0  0  0  0  0  0  0  0  0
  2  1  1  0
  3  2  1  0
  4  3  1  0
  5  4  1  0
  5  6  1  6
  7  5  1  0
  8  7  2  0
  9 10  1  0
 10 11  2  0
 10 12  1  0
 12 13  1  0
 13 14  1  0
 14 15  1  0
 16 15  1  6
 16 18  1  0
 16 17  1  0
 17  7  1  0
 18 19  2  0
 20 21  1  0
 20 18  1  0
 21 22  1  1
 23 22  1  0
 24 23  2  0
 25 24  1  0
 26 25  1  0
 26 31  2  0
 27 26  1  0
 28 27  2  0
 28 29  1  0
 29 30  2  0
 30 31  1  0
 31 23  1  0
 32 33  1  0
 32 21  1  0
 34 32  2  0
M  END
$$$$
