PWP.pdb
     RDKit          3D

 29 32  0  0  1  0  0  0  0  0999 V2000
    8.8364  -16.8406   21.1107 N   0  0  0  0  0  0  0  0  0  0  0  0
    7.7799  -16.7538   20.1149 C   0  0  0  0  0  0  0  0  0  0  0  0
    8.1784  -15.6052   19.2074 C   0  0  0  0  0  0  0  0  0  0  0  0
    8.7625  -14.6276   20.2147 C   0  0  0  0  0  0  0  0  0  0  0  0
    9.4882  -15.5411   21.1456 C   0  0  1  0  0  0  0  0  0  0  0  0
    9.5429  -15.0867   22.5409 C   0  0  0  0  0  0  0  0  0  0  0  0
    9.8984  -13.8998   22.8300 O   0  0  0  0  0  0  0  0  0  0  0  0
    9.2005  -15.9610   23.6122 N   0  0  0  0  0  0  0  0  0  0  0  0
    9.2229  -15.5056   25.0002 C   0  0  1  0  0  0  0  0  0  0  0  0
    7.9998  -16.0216   25.6818 C   0  0  0  0  0  0  0  0  0  0  0  0
    6.8081  -15.1597   25.5836 C   0  0  0  0  0  0  0  0  0  0  0  0
    5.4846  -15.4676   25.4262 C   0  0  0  0  0  0  0  0  0  0  0  0
    4.7926  -14.2957   25.3837 N   0  0  0  0  0  0  0  0  0  0  0  0
    5.6189  -13.2676   25.5070 C   0  0  0  0  0  0  0  0  0  0  0  0
    5.4084  -11.8842   25.5223 C   0  0  0  0  0  0  0  0  0  0  0  0
    6.5060  -11.0749   25.6673 C   0  0  0  0  0  0  0  0  0  0  0  0
    7.7928  -11.5522   25.7974 C   0  0  0  0  0  0  0  0  0  0  0  0
    7.9842  -12.9220   25.7803 C   0  0  0  0  0  0  0  0  0  0  0  0
    6.8870  -13.7592   25.6342 C   0  0  0  0  0  0  0  0  0  0  0  0
   10.3904  -16.1205   25.7103 C   0  0  0  0  0  0  0  0  0  0  0  0
   11.2036  -16.7769   25.0173 O   0  0  0  0  0  0  0  0  0  0  0  0
   10.5791  -15.9708   27.1106 N   0  0  0  0  0  0  0  0  0  0  0  0
    9.7096  -15.3836   28.0974 C   0  0  0  0  0  0  0  0  0  0  0  0
   10.6830  -14.5981   28.9577 C   0  0  0  0  0  0  0  0  0  0  0  0
   12.0222  -15.2645   28.7673 C   0  0  0  0  0  0  0  0  0  0  0  0
   11.7544  -16.4034   27.8147 C   0  0  1  0  0  0  0  0  0  0  0  0
   11.4379  -17.6138   28.5956 C   0  0  0  0  0  0  0  0  0  0  0  0
   10.1560  -18.1822   28.6003 O   0  0  0  0  0  0  0  0  0  0  0  0
   12.2921  -18.1935   29.2906 O   0  0  0  0  0  0  0  0  0  0  0  0
  1  2  1  0
  1  5  1  0
  2  3  1  0
  3  4  1  0
  5  4  1  0
  5  6  1  1
  6  7  2  0
  8  6  1  0
  9  8  1  0
  9 10  1  1
 11 19  1  0
 11 10  1  0
 12 11  2  0
 13 12  1  0
 13 14  1  0
 14 15  1  0
 14 19  2  0
 15 16  2  0
 16 17  1  0
 18 17  2  0
 19 18  1  0
 20  9  1  0
 21 20  2  0
 22 20  1  0
 22 26  1  0
 23 22  1  0
 24 25  1  0
 24 23  1  0
 25 26  1  0
 26 27  1  1
 27 29  2  0
 27 28  1  0
M  END
$$$$
