PWP.pdb
     RDKit          3D

 29 32  0  0  1  0  0  0  0  0999 V2000
    8.6007  -16.8572   21.4000 N   0  0  0  0  0  0  0  0  0  0  0  0
    7.5570  -16.6574   20.4069 C   0  0  0  0  0  0  0  0  0  0  0  0
    8.0950  -15.5928   19.4694 C   0  0  0  0  0  0  0  0  0  0  0  0
    8.8091  -14.6758   20.4495 C   0  0  0  0  0  0  0  0  0  0  0  0
    9.4166  -15.6535   21.3997 C   0  0  1  0  0  0  0  0  0  0  0  0
    9.5406  -15.1766   22.7830 C   0  0  0  0  0  0  0  0  0  0  0  0
   10.0329  -14.0319   23.0397 O   0  0  0  0  0  0  0  0  0  0  0  0
    9.1143  -15.9812   23.8785 N   0  0  0  0  0  0  0  0  0  0  0  0
    9.2586  -15.5229   25.2581 C   0  0  1  0  0  0  0  0  0  0  0  0
    8.0361  -15.9234   26.0146 C   0  0  0  0  0  0  0  0  0  0  0  0
    6.8254  -15.1336   25.7266 C   0  0  0  0  0  0  0  0  0  0  0  0
    5.5660  -15.5186   25.3565 C   0  0  0  0  0  0  0  0  0  0  0  0
    4.8195  -14.3900   25.2050 N   0  0  0  0  0  0  0  0  0  0  0  0
    5.5506  -13.3156   25.4624 C   0  0  0  0  0  0  0  0  0  0  0  0
    5.2560  -11.9476   25.4462 C   0  0  0  0  0  0  0  0  0  0  0  0
    6.2642  -11.0756   25.7684 C   0  0  0  0  0  0  0  0  0  0  0  0
    7.5400  -11.4762   26.1041 C   0  0  0  0  0  0  0  0  0  0  0  0
    7.8151  -12.8317   26.1154 C   0  0  0  0  0  0  0  0  0  0  0  0
    6.8092  -13.7315   25.7921 C   0  0  0  0  0  0  0  0  0  0  0  0
   10.4058  -16.2370   25.9058 C   0  0  0  0  0  0  0  0  0  0  0  0
   11.1394  -16.9349   25.1661 O   0  0  0  0  0  0  0  0  0  0  0  0
   10.6624  -16.1330   27.2994 N   0  0  0  0  0  0  0  0  0  0  0  0
    9.8981  -15.4751   28.3278 C   0  0  0  0  0  0  0  0  0  0  0  0
   10.9812  -14.8121   29.1597 C   0  0  0  0  0  0  0  0  0  0  0  0
   12.2341  -15.6124   28.9072 C   0  0  0  0  0  0  0  0  0  0  0  0
   11.8111  -16.6996   27.9504 C   0  0  1  0  0  0  0  0  0  0  0  0
   11.3979  -17.8836   28.7265 C   0  0  0  0  0  0  0  0  0  0  0  0
   12.3293  -18.7294   29.3460 O   0  0  0  0  0  0  0  0  0  0  0  0
   10.2014  -18.1934   28.8720 O   0  0  0  0  0  0  0  0  0  0  0  0
  1  2  1  0
  1  5  1  0
  2  3  1  0
  3  4  1  0
  5  4  1  0
  5  6  1  1
  6  7  2  0
  8  6  1  0
  9  8  1  0
  9 10  1  1
 11 19  1  0
 11 10  1  0
 12 11  2  0
 13 12  1  0
 13 14  1  0
 14 15  1  0
 14 19  2  0
 15 16  2  0
 16 17  1  0
 18 17  2  0
 19 18  1  0
 20  9  1  0
 21 20  2  0
 22 20  1  0
 22 26  1  0
 23 22  1  0
 24 25  1  0
 24 23  1  0
 25 26  1  0
 26 27  1  1
 27 29  2  0
 27 28  1  0
M  END
$$$$
