PWP.pdb
     RDKit          3D

 29 32  0  0  1  0  0  0  0  0999 V2000
    8.8085  -16.9635   21.1506 N   0  0  0  0  0  0  0  0  0  0  0  0
    7.7704  -16.9158   20.1330 C   0  0  0  0  0  0  0  0  0  0  0  0
    8.1845  -15.8013   19.1906 C   0  0  0  0  0  0  0  0  0  0  0  0
    8.7490  -14.7858   20.1712 C   0  0  0  0  0  0  0  0  0  0  0  0
    9.4584  -15.6626   21.1488 C   0  0  1  0  0  0  0  0  0  0  0  0
    9.4870  -15.1562   22.5268 C   0  0  0  0  0  0  0  0  0  0  0  0
    9.9038  -13.9822   22.7849 O   0  0  0  0  0  0  0  0  0  0  0  0
    9.0499  -15.9641   23.6156 N   0  0  0  0  0  0  0  0  0  0  0  0
    9.1386  -15.4913   24.9950 C   0  0  1  0  0  0  0  0  0  0  0  0
    7.9492  -15.9974   25.7407 C   0  0  0  0  0  0  0  0  0  0  0  0
    6.7929  -15.0843   25.7846 C   0  0  0  0  0  0  0  0  0  0  0  0
    5.4484  -15.3347   25.8133 C   0  0  0  0  0  0  0  0  0  0  0  0
    4.8075  -14.1336   25.8384 N   0  0  0  0  0  0  0  0  0  0  0  0
    5.6859  -13.1420   25.8269 C   0  0  0  0  0  0  0  0  0  0  0  0
    5.5384  -11.7504   25.8399 C   0  0  0  0  0  0  0  0  0  0  0  0
    6.6789  -10.9892   25.8183 C   0  0  0  0  0  0  0  0  0  0  0  0
    7.9501  -11.5220   25.7847 C   0  0  0  0  0  0  0  0  0  0  0  0
    8.0789  -12.8991   25.7722 C   0  0  0  0  0  0  0  0  0  0  0  0
    6.9375  -13.6882   25.7933 C   0  0  0  0  0  0  0  0  0  0  0  0
   10.3384  -16.0984   25.6564 C   0  0  0  0  0  0  0  0  0  0  0  0
   11.1242  -16.7534   24.9313 O   0  0  0  0  0  0  0  0  0  0  0  0
   10.5863  -15.9429   27.0468 N   0  0  0  0  0  0  0  0  0  0  0  0
    9.8057  -15.2642   28.0491 C   0  0  0  0  0  0  0  0  0  0  0  0
   10.8731  -14.5545   28.8626 C   0  0  0  0  0  0  0  0  0  0  0  0
   12.1409  -15.3407   28.6427 C   0  0  0  0  0  0  0  0  0  0  0  0
   11.7416  -16.4668   27.7215 C   0  0  1  0  0  0  0  0  0  0  0  0
   11.3454  -17.6311   28.5354 C   0  0  0  0  0  0  0  0  0  0  0  0
   10.0116  -18.0534   28.6304 O   0  0  0  0  0  0  0  0  0  0  0  0
   12.1743  -18.2991   29.1800 O   0  0  0  0  0  0  0  0  0  0  0  0
  1  2  1  0
  1  5  1  0
  2  3  1  0
  3  4  1  0
  5  4  1  0
  5  6  1  1
  6  7  2  0
  8  6  1  0
  9  8  1  0
  9 10  1  1
 11 19  1  0
 11 10  1  0
 12 11  2  0
 13 12  1  0
 13 14  1  0
 14 15  1  0
 14 19  2  0
 15 16  2  0
 16 17  1  0
 18 17  2  0
 19 18  1  0
 20  9  1  0
 21 20  2  0
 22 20  1  0
 22 26  1  0
 23 22  1  0
 24 25  1  0
 24 23  1  0
 25 26  1  0
 26 27  1  1
 27 29  2  0
 27 28  1  0
M  END
$$$$
