PWP.pdb
     RDKit          3D

 29 32  0  0  1  0  0  0  0  0999 V2000
    8.8348  -16.8694   20.9801 N   0  0  0  0  0  0  0  0  0  0  0  0
    7.8249  -16.7228   19.9437 C   0  0  0  0  0  0  0  0  0  0  0  0
    8.3453  -15.6297   19.0294 C   0  0  0  0  0  0  0  0  0  0  0  0
    8.9682  -14.6783   20.0385 C   0  0  0  0  0  0  0  0  0  0  0  0
    9.5855  -15.6245   21.0139 C   0  0  1  0  0  0  0  0  0  0  0  0
    9.6257  -15.1443   22.4010 C   0  0  0  0  0  0  0  0  0  0  0  0
   10.2005  -14.0491   22.6988 O   0  0  0  0  0  0  0  0  0  0  0  0
    9.0234  -15.8904   23.4545 N   0  0  0  0  0  0  0  0  0  0  0  0
    9.0855  -15.4328   24.8404 C   0  0  1  0  0  0  0  0  0  0  0  0
    7.8913  -15.9620   25.5621 C   0  0  0  0  0  0  0  0  0  0  0  0
    6.7923  -14.9998   25.7596 C   0  0  0  0  0  0  0  0  0  0  0  0
    5.4467  -15.1894   25.9166 C   0  0  0  0  0  0  0  0  0  0  0  0
    4.8723  -13.9625   26.0538 N   0  0  0  0  0  0  0  0  0  0  0  0
    5.7935  -13.0125   25.9905 C   0  0  0  0  0  0  0  0  0  0  0  0
    5.7177  -11.6176   26.0724 C   0  0  0  0  0  0  0  0  0  0  0  0
    6.8868  -10.9090   25.9632 C   0  0  0  0  0  0  0  0  0  0  0  0
    8.1199  -11.4974   25.7788 C   0  0  0  0  0  0  0  0  0  0  0  0
    8.1780  -12.8771   25.6998 C   0  0  0  0  0  0  0  0  0  0  0  0
    7.0065  -13.6133   25.8075 C   0  0  0  0  0  0  0  0  0  0  0  0
   10.2825  -16.0330   25.5130 C   0  0  0  0  0  0  0  0  0  0  0  0
   11.0896  -16.6661   24.7916 O   0  0  0  0  0  0  0  0  0  0  0  0
   10.5049  -15.8951   26.9095 N   0  0  0  0  0  0  0  0  0  0  0  0
    9.6756  -15.2839   27.9161 C   0  0  0  0  0  0  0  0  0  0  0  0
   10.6915  -14.5339   28.7586 C   0  0  0  0  0  0  0  0  0  0  0  0
   12.0042  -15.2425   28.5382 C   0  0  0  0  0  0  0  0  0  0  0  0
   11.6799  -16.3683   27.5876 C   0  0  1  0  0  0  0  0  0  0  0  0
   11.3405  -17.5710   28.3709 C   0  0  0  0  0  0  0  0  0  0  0  0
   12.3174  -18.3268   29.0347 O   0  0  0  0  0  0  0  0  0  0  0  0
   10.1695  -17.9771   28.4834 O   0  0  0  0  0  0  0  0  0  0  0  0
  1  2  1  0
  1  5  1  0
  2  3  1  0
  3  4  1  0
  5  4  1  0
  5  6  1  1
  6  7  2  0
  8  6  1  0
  9  8  1  0
  9 10  1  1
 11 19  1  0
 11 10  1  0
 12 11  2  0
 13 12  1  0
 13 14  1  0
 14 15  1  0
 14 19  2  0
 15 16  2  0
 16 17  1  0
 18 17  2  0
 19 18  1  0
 20  9  1  0
 21 20  2  0
 22 20  1  0
 22 26  1  0
 23 22  1  0
 24 25  1  0
 24 23  1  0
 25 26  1  0
 26 27  1  1
 27 29  2  0
 27 28  1  0
M  END
$$$$
