PWP.pdb
     RDKit          3D

 29 32  0  0  1  0  0  0  0  0999 V2000
    8.8573  -17.1224   21.1727 N   0  0  0  0  0  0  0  0  0  0  0  0
    7.8929  -17.0531   20.0862 C   0  0  0  0  0  0  0  0  0  0  0  0
    8.4437  -16.0141   19.1277 C   0  0  0  0  0  0  0  0  0  0  0  0
    9.0133  -14.9938   20.1003 C   0  0  0  0  0  0  0  0  0  0  0  0
    9.5951  -15.8694   21.1598 C   0  0  1  0  0  0  0  0  0  0  0  0
    9.5699  -15.3020   22.5140 C   0  0  0  0  0  0  0  0  0  0  0  0
   10.0168  -14.1331   22.7431 O   0  0  0  0  0  0  0  0  0  0  0  0
    9.0454  -16.0434   23.6115 N   0  0  0  0  0  0  0  0  0  0  0  0
    9.1128  -15.5282   24.9768 C   0  0  1  0  0  0  0  0  0  0  0  0
    7.9314  -16.0423   25.7299 C   0  0  0  0  0  0  0  0  0  0  0  0
    6.7348  -15.1822   25.6958 C   0  0  0  0  0  0  0  0  0  0  0  0
    5.4243  -15.4727   25.4324 C   0  0  0  0  0  0  0  0  0  0  0  0
    4.7202  -14.3107   25.5214 N   0  0  0  0  0  0  0  0  0  0  0  0
    5.5266  -13.3053   25.8280 C   0  0  0  0  0  0  0  0  0  0  0  0
    5.2979  -11.9391   26.0272 C   0  0  0  0  0  0  0  0  0  0  0  0
    6.3770  -11.1518   26.3377 C   0  0  0  0  0  0  0  0  0  0  0  0
    7.6622  -11.6351   26.4620 C   0  0  0  0  0  0  0  0  0  0  0  0
    7.8717  -12.9876   26.2620 C   0  0  0  0  0  0  0  0  0  0  0  0
    6.7934  -13.8023   25.9465 C   0  0  0  0  0  0  0  0  0  0  0  0
   10.3229  -16.0850   25.6632 C   0  0  0  0  0  0  0  0  0  0  0  0
   11.1586  -16.6916   24.9519 O   0  0  0  0  0  0  0  0  0  0  0  0
   10.5261  -15.9359   27.0615 N   0  0  0  0  0  0  0  0  0  0  0  0
    9.6835  -15.3159   28.0516 C   0  0  0  0  0  0  0  0  0  0  0  0
   10.6884  -14.5598   28.9019 C   0  0  0  0  0  0  0  0  0  0  0  0
   12.0033  -15.2712   28.7054 C   0  0  0  0  0  0  0  0  0  0  0  0
   11.6912  -16.4044   27.7596 C   0  0  1  0  0  0  0  0  0  0  0  0
   11.3400  -17.6004   28.5478 C   0  0  0  0  0  0  0  0  0  0  0  0
   10.0274  -18.0896   28.6129 O   0  0  0  0  0  0  0  0  0  0  0  0
   12.1903  -18.2375   29.1958 O   0  0  0  0  0  0  0  0  0  0  0  0
  1  2  1  0
  1  5  1  0
  2  3  1  0
  3  4  1  0
  5  4  1  0
  5  6  1  1
  6  7  2  0
  8  6  1  0
  9  8  1  0
  9 10  1  1
 11 19  1  0
 11 10  1  0
 12 11  2  0
 13 12  1  0
 13 14  1  0
 14 15  1  0
 14 19  2  0
 15 16  2  0
 16 17  1  0
 18 17  2  0
 19 18  1  0
 20  9  1  0
 21 20  2  0
 22 20  1  0
 22 26  1  0
 23 22  1  0
 24 25  1  0
 24 23  1  0
 25 26  1  0
 26 27  1  1
 27 29  2  0
 27 28  1  0
M  END
$$$$
