PWP.pdb
     RDKit          3D

 29 32  0  0  1  0  0  0  0  0999 V2000
    8.6922  -16.9255   21.3789 N   0  0  0  0  0  0  0  0  0  0  0  0
    7.6351  -16.7907   20.3891 C   0  0  0  0  0  0  0  0  0  0  0  0
    8.1086  -15.7033   19.4431 C   0  0  0  0  0  0  0  0  0  0  0  0
    8.7738  -14.7416   20.4148 C   0  0  0  0  0  0  0  0  0  0  0  0
    9.4390  -15.6778   21.3681 C   0  0  1  0  0  0  0  0  0  0  0  0
    9.5414  -15.1862   22.7480 C   0  0  0  0  0  0  0  0  0  0  0  0
    9.9940  -14.0236   22.9975 O   0  0  0  0  0  0  0  0  0  0  0  0
    9.1379  -15.9961   23.8483 N   0  0  0  0  0  0  0  0  0  0  0  0
    9.2954  -15.5375   25.2263 C   0  0  1  0  0  0  0  0  0  0  0  0
    8.0657  -15.9080   25.9863 C   0  0  0  0  0  0  0  0  0  0  0  0
    6.8861  -15.0605   25.7355 C   0  0  0  0  0  0  0  0  0  0  0  0
    5.6314  -15.3729   25.2888 C   0  0  0  0  0  0  0  0  0  0  0  0
    4.9192  -14.2143   25.2217 N   0  0  0  0  0  0  0  0  0  0  0  0
    5.6672  -13.1904   25.6049 C   0  0  0  0  0  0  0  0  0  0  0  0
    5.4077  -11.8192   25.7102 C   0  0  0  0  0  0  0  0  0  0  0  0
    6.4253  -11.0106   26.1477 C   0  0  0  0  0  0  0  0  0  0  0  0
    7.6779  -11.4772   26.4854 C   0  0  0  0  0  0  0  0  0  0  0  0
    7.9185  -12.8349   26.3758 C   0  0  0  0  0  0  0  0  0  0  0  0
    6.9026  -13.6711   25.9346 C   0  0  0  0  0  0  0  0  0  0  0  0
   10.4274  -16.2756   25.8737 C   0  0  0  0  0  0  0  0  0  0  0  0
   11.1499  -16.9836   25.1327 O   0  0  0  0  0  0  0  0  0  0  0  0
   10.6821  -16.1827   27.2684 N   0  0  0  0  0  0  0  0  0  0  0  0
    9.9094  -15.5448   28.3031 C   0  0  0  0  0  0  0  0  0  0  0  0
   10.9840  -14.8771   29.1423 C   0  0  0  0  0  0  0  0  0  0  0  0
   12.2466  -15.6595   28.8823 C   0  0  0  0  0  0  0  0  0  0  0  0
   11.8373  -16.7419   27.9142 C   0  0  1  0  0  0  0  0  0  0  0  0
   11.4383  -17.9388   28.6780 C   0  0  0  0  0  0  0  0  0  0  0  0
   12.3762  -18.7522   29.3302 O   0  0  0  0  0  0  0  0  0  0  0  0
   10.2487  -18.2887   28.7834 O   0  0  0  0  0  0  0  0  0  0  0  0
  1  2  1  0
  1  5  1  0
  2  3  1  0
  3  4  1  0
  5  4  1  0
  5  6  1  1
  6  7  2  0
  8  6  1  0
  9  8  1  0
  9 10  1  1
 11 19  1  0
 11 10  1  0
 12 11  2  0
 13 12  1  0
 13 14  1  0
 14 15  1  0
 14 19  2  0
 15 16  2  0
 16 17  1  0
 18 17  2  0
 19 18  1  0
 20  9  1  0
 21 20  2  0
 22 20  1  0
 22 26  1  0
 23 22  1  0
 24 25  1  0
 24 23  1  0
 25 26  1  0
 26 27  1  1
 27 29  2  0
 27 28  1  0
M  END
$$$$
