MCM.pdb
     RDKit          3D

 23 22  0  0  1  0  0  0  0  0999 V2000
   18.6589  -12.7197  -20.6383 C   0  0  0  0  0  0  0  0  0  0  0  0
   19.7183  -11.4629  -21.3505 S   0  0  0  0  0  0  0  0  0  0  0  0
   21.0699  -10.9816  -20.2649 C   0  0  0  0  0  0  0  0  0  0  0  0
   20.5795  -10.6011  -18.8780 C   0  0  0  0  0  0  0  0  0  0  0  0
   21.4002   -9.4063  -18.4409 C   0  0  2  0  0  0  0  0  0  0  0  0
   22.3484   -9.8301  -17.4312 N   0  0  0  0  0  0  0  0  0  0  0  0
   20.5611   -8.3329  -17.8679 C   0  0  0  0  0  0  0  0  0  0  0  0
   19.3504   -8.2388  -18.1852 O   0  0  0  0  0  0  0  0  0  0  0  0
   21.0779   -7.3960  -16.9640 N   0  0  0  0  0  0  0  0  0  0  0  0
   20.3114   -6.2750  -16.4192 C   0  0  1  0  0  0  0  0  0  0  0  0
   20.3450   -6.3510  -14.8898 C   0  0  0  0  0  0  0  0  0  0  0  0
   22.0268   -6.6065  -14.3218 S   0  0  0  0  0  0  0  0  0  0  0  0
   21.0650   -5.0552  -16.8137 C   0  0  0  0  0  0  0  0  0  0  0  0
   22.3218   -5.1168  -17.0388 O   0  0  0  0  0  0  0  0  0  0  0  0
   21.2302    2.1846  -19.9194 C   0  0  0  0  0  0  0  0  0  0  0  0
   20.2988    0.7189  -19.4808 S   0  0  0  0  0  0  0  0  0  0  0  0
   21.2255   -0.4562  -18.4949 C   0  0  0  0  0  0  0  0  0  0  0  0
   20.4090   -1.6724  -18.1209 C   0  0  0  0  0  0  0  0  0  0  0  0
   21.3167   -2.6200  -17.3294 C   0  0  2  0  0  0  0  0  0  0  0  0
   20.4958   -3.7730  -16.9732 N   0  0  0  0  0  0  0  0  0  0  0  0
   21.7835   -1.9349  -16.1090 C   0  0  0  0  0  0  0  0  0  0  0  0
   21.1111   -1.9907  -15.0600 O   0  0  0  0  0  0  0  0  0  0  0  0
   22.9655   -1.2337  -16.1339 O   0  0  0  0  0  0  0  0  0  0  0  0
  2  1  1  0
  3  2  1  0
  4  3  1  0
  5  6  1  1
  5  4  1  0
  7  5  1  0
  8  7  2  0
  9  7  1  0
 10  9  1  0
 10 13  1  0
 10 11  1  1
 12 11  1  0
 13 20  1  0
 14 13  2  0
 16 15  1  0
 17 16  1  0
 18 17  1  0
 19 18  1  6
 19 21  1  0
 20 19  1  0
 21 22  2  0
 21 23  1  0
M  END
$$$$
