MCM.pdb
     RDKit          3D

 23 22  0  0  1  0  0  0  0  0999 V2000
   30.1034  -22.2576  -13.8716 C   0  0  0  0  0  0  0  0  0  0  0  0
   29.8522  -22.6328  -15.6052 S   0  0  0  0  0  0  0  0  0  0  0  0
   28.4924  -21.7095  -16.3369 C   0  0  0  0  0  0  0  0  0  0  0  0
   28.0084  -20.5916  -15.4288 C   0  0  0  0  0  0  0  0  0  0  0  0
   26.5532  -20.8791  -15.1254 C   0  0  2  0  0  0  0  0  0  0  0  0
   25.7568  -20.5605  -16.2925 N   0  0  0  0  0  0  0  0  0  0  0  0
   26.0518  -20.0783  -13.9888 C   0  0  0  0  0  0  0  0  0  0  0  0
   25.9217  -18.8348  -14.0994 O   0  0  0  0  0  0  0  0  0  0  0  0
   25.7089  -20.6682  -12.7655 N   0  0  0  0  0  0  0  0  0  0  0  0
   25.2334  -19.9206  -11.6010 C   0  0  1  0  0  0  0  0  0  0  0  0
   23.7092  -20.0495  -11.5205 C   0  0  0  0  0  0  0  0  0  0  0  0
   23.2181  -21.7505  -11.8065 S   0  0  0  0  0  0  0  0  0  0  0  0
   25.7957  -20.6310  -10.4217 C   0  0  0  0  0  0  0  0  0  0  0  0
   25.7078  -21.9030  -10.3313 O   0  0  0  0  0  0  0  0  0  0  0  0
   29.0417  -17.8065   -5.3280 C   0  0  0  0  0  0  0  0  0  0  0  0
   28.8205  -19.5032   -4.7985 S   0  0  0  0  0  0  0  0  0  0  0  0
   27.8037  -20.4777   -5.9066 C   0  0  0  0  0  0  0  0  0  0  0  0
   27.5979  -19.8080   -7.2463 C   0  0  0  0  0  0  0  0  0  0  0  0
   26.6832  -20.7082   -8.0839 C   0  0  2  0  0  0  0  0  0  0  0  0
   26.4517  -20.0032   -9.3405 N   0  0  0  0  0  0  0  0  0  0  0  0
   25.4070  -20.8995   -7.3686 C   0  0  0  0  0  0  0  0  0  0  0  0
   24.4625  -20.1038   -7.5433 O   0  0  0  0  0  0  0  0  0  0  0  0
   25.2639  -21.9611   -6.5073 O   0  0  0  0  0  0  0  0  0  0  0  0
  2  1  1  0
  3  2  1  0
  4  3  1  0
  5  6  1  6
  5  4  1  0
  7  5  1  0
  8  7  2  0
  9  7  1  0
 10  9  1  0
 10 13  1  0
 10 11  1  1
 12 11  1  0
 13 20  1  0
 14 13  2  0
 16 15  1  0
 17 16  1  0
 18 17  1  0
 19 18  1  1
 19 21  1  0
 20 19  1  0
 21 22  2  0
 21 23  1  0
M  END
$$$$
