MCM.pdb
     RDKit          3D

 23 22  0  0  1  0  0  0  0  0999 V2000
   22.4820  -25.8369  -13.4384 C   0  0  0  0  0  0  0  0  0  0  0  0
   23.9299  -25.6606  -14.4785 S   0  0  0  0  0  0  0  0  0  0  0  0
   25.1944  -24.6054  -13.7544 C   0  0  0  0  0  0  0  0  0  0  0  0
   24.6315  -23.2678  -13.3038 C   0  0  0  0  0  0  0  0  0  0  0  0
   24.1863  -22.5413  -14.5553 C   0  0  2  0  0  0  0  0  0  0  0  0
   25.3567  -22.0854  -15.2768 N   0  0  0  0  0  0  0  0  0  0  0  0
   23.3437  -21.3665  -14.2482 C   0  0  0  0  0  0  0  0  0  0  0  0
   23.6815  -20.5646  -13.3437 O   0  0  0  0  0  0  0  0  0  0  0  0
   22.1558  -21.1089  -14.9442 N   0  0  0  0  0  0  0  0  0  0  0  0
   21.1865  -20.0832  -14.5577 C   0  0  1  0  0  0  0  0  0  0  0  0
   21.6317  -18.7386  -15.1409 C   0  0  0  0  0  0  0  0  0  0  0  0
   22.2341  -18.9618  -16.8153 S   0  0  0  0  0  0  0  0  0  0  0  0
   19.9214  -20.4601  -15.2424 C   0  0  0  0  0  0  0  0  0  0  0  0
   19.1321  -19.5570  -15.6844 O   0  0  0  0  0  0  0  0  0  0  0  0
   17.8321  -26.0652  -10.6222 C   0  0  0  0  0  0  0  0  0  0  0  0
   19.0108  -25.1151  -11.5793 S   0  0  0  0  0  0  0  0  0  0  0  0
   18.2513  -23.9218  -12.6796 C   0  0  0  0  0  0  0  0  0  0  0  0
   19.2609  -23.2113  -13.5523 C   0  0  0  0  0  0  0  0  0  0  0  0
   18.4877  -22.4083  -14.6039 C   0  0  2  0  0  0  0  0  0  0  0  0
   19.4893  -21.7859  -15.4637 N   0  0  0  0  0  0  0  0  0  0  0  0
   17.6868  -21.3706  -13.9267 C   0  0  0  0  0  0  0  0  0  0  0  0
   18.2468  -20.3908  -13.3954 O   0  0  0  0  0  0  0  0  0  0  0  0
   16.3182  -21.4891  -13.8844 O   0  0  0  0  0  0  0  0  0  0  0  0
  2  1  1  0
  3  2  1  0
  4  3  1  0
  5  6  1  1
  5  4  1  0
  7  5  1  0
  8  7  2  0
  9  7  1  0
 10  9  1  0
 10 13  1  0
 10 11  1  6
 12 11  1  0
 13 20  1  0
 14 13  2  0
 16 15  1  0
 17 16  1  0
 18 17  1  0
 19 18  1  1
 19 21  1  0
 20 19  1  0
 21 22  2  0
 21 23  1  0
M  END
$$$$
