MCM.pdb
     RDKit          3D

 23 22  0  0  1  0  0  0  0  0999 V2000
   18.4155  -15.0913  -20.5851 C   0  0  0  0  0  0  0  0  0  0  0  0
   17.8997  -13.7093  -19.5685 S   0  0  0  0  0  0  0  0  0  0  0  0
   19.2798  -12.7344  -18.9506 C   0  0  0  0  0  0  0  0  0  0  0  0
   18.8256  -11.6481  -17.9901 C   0  0  0  0  0  0  0  0  0  0  0  0
   20.0689  -10.8921  -17.5718 C   0  0  2  0  0  0  0  0  0  0  0  0
   21.0198  -11.8262  -17.0050 N   0  0  0  0  0  0  0  0  0  0  0  0
   19.7770   -9.8555  -16.5595 C   0  0  0  0  0  0  0  0  0  0  0  0
   18.9329   -8.9578  -16.7983 O   0  0  0  0  0  0  0  0  0  0  0  0
   20.4214   -9.8369  -15.3160 N   0  0  0  0  0  0  0  0  0  0  0  0
   20.1613   -8.8431  -14.2740 C   0  0  1  0  0  0  0  0  0  0  0  0
   20.5819   -9.4251  -12.9210 C   0  0  0  0  0  0  0  0  0  0  0  0
   20.4145   -8.1842  -11.6371 S   0  0  0  0  0  0  0  0  0  0  0  0
   21.0819   -7.7133  -14.5699 C   0  0  0  0  0  0  0  0  0  0  0  0
   22.3168   -7.9336  -14.8160 O   0  0  0  0  0  0  0  0  0  0  0  0
   23.1730   -1.5762  -18.5805 C   0  0  0  0  0  0  0  0  0  0  0  0
   21.9968   -2.8599  -18.1603 S   0  0  0  0  0  0  0  0  0  0  0  0
   22.3053   -3.6287  -16.5712 C   0  0  0  0  0  0  0  0  0  0  0  0
   21.3437   -4.7572  -16.2752 C   0  0  0  0  0  0  0  0  0  0  0  0
   21.6781   -5.3039  -14.8832 C   0  0  2  0  0  0  0  0  0  0  0  0
   20.7024   -6.3540  -14.6090 N   0  0  0  0  0  0  0  0  0  0  0  0
   21.5449   -4.2183  -13.8929 C   0  0  0  0  0  0  0  0  0  0  0  0
   20.4500   -4.0080  -13.3336 O   0  0  0  0  0  0  0  0  0  0  0  0
   22.6354   -3.4388  -13.5891 O   0  0  0  0  0  0  0  0  0  0  0  0
  2  1  1  0
  3  2  1  0
  4  3  1  0
  5  6  1  1
  5  4  1  0
  7  5  1  0
  8  7  2  0
  9  7  1  0
 10  9  1  0
 10 13  1  0
 10 11  1  1
 12 11  1  0
 13 20  1  0
 14 13  2  0
 16 15  1  0
 17 16  1  0
 18 17  1  0
 19 18  1  6
 19 21  1  0
 20 19  1  0
 21 22  2  0
 21 23  1  0
M  END
$$$$
