MCM.pdb
     RDKit          3D

 23 22  0  0  1  0  0  0  0  0999 V2000
   26.5617  -23.0067  -19.3477 C   0  0  0  0  0  0  0  0  0  0  0  0
   28.2127  -22.3711  -19.6295 S   0  0  0  0  0  0  0  0  0  0  0  0
   29.0202  -21.8120  -18.1220 C   0  0  0  0  0  0  0  0  0  0  0  0
   28.1465  -20.8551  -17.3284 C   0  0  0  0  0  0  0  0  0  0  0  0
   28.2681  -21.2614  -15.8750 C   0  0  2  0  0  0  0  0  0  0  0  0
   27.7579  -22.6080  -15.7181 N   0  0  0  0  0  0  0  0  0  0  0  0
   27.5027  -20.3680  -14.9804 C   0  0  0  0  0  0  0  0  0  0  0  0
   27.5243  -19.1256  -15.1572 O   0  0  0  0  0  0  0  0  0  0  0  0
   26.7369  -20.8670  -13.9190 N   0  0  0  0  0  0  0  0  0  0  0  0
   25.9275  -20.0327  -13.0303 C   0  0  1  0  0  0  0  0  0  0  0  0
   24.4504  -20.2147  -13.3921 C   0  0  0  0  0  0  0  0  0  0  0  0
   23.4105  -19.5134  -12.1103 S   0  0  0  0  0  0  0  0  0  0  0  0
   26.1192  -20.6052  -11.6713 C   0  0  0  0  0  0  0  0  0  0  0  0
   25.8431  -21.8321  -11.4422 O   0  0  0  0  0  0  0  0  0  0  0  0
   28.3610  -19.7308   -4.1077 C   0  0  0  0  0  0  0  0  0  0  0  0
   28.2362  -19.0266   -5.7499 S   0  0  0  0  0  0  0  0  0  0  0  0
   27.3658  -20.0705   -6.9179 C   0  0  0  0  0  0  0  0  0  0  0  0
   27.3478  -19.4908   -8.3140 C   0  0  0  0  0  0  0  0  0  0  0  0
   26.5961  -20.4730   -9.2189 C   0  0  2  0  0  0  0  0  0  0  0  0
   26.6030  -19.8876  -10.5558 N   0  0  0  0  0  0  0  0  0  0  0  0
   25.2094  -20.6119   -8.7345 C   0  0  0  0  0  0  0  0  0  0  0  0
   24.3616  -19.7347   -8.9942 O   0  0  0  0  0  0  0  0  0  0  0  0
   24.8560  -21.7149   -7.9945 O   0  0  0  0  0  0  0  0  0  0  0  0
  2  1  1  0
  3  2  1  0
  4  3  1  0
  5  6  1  6
  5  4  1  0
  7  5  1  0
  8  7  2  0
  9  7  1  0
 10  9  1  0
 10 13  1  0
 10 11  1  6
 12 11  1  0
 13 20  1  0
 14 13  2  0
 16 15  1  0
 17 16  1  0
 18 17  1  0
 19 18  1  1
 19 21  1  0
 20 19  1  0
 21 22  2  0
 21 23  1  0
M  END
$$$$
