MCM.pdb
     RDKit          3D

 23 22  0  0  1  0  0  0  0  0999 V2000
   27.2014  -19.3248   -7.1518 C   0  0  0  0  0  0  0  0  0  0  0  0
   28.0461  -20.7766   -7.7747 S   0  0  0  0  0  0  0  0  0  0  0  0
   27.8107  -21.0263   -9.5408 C   0  0  0  0  0  0  0  0  0  0  0  0
   26.5963  -20.2788  -10.0654 C   0  0  0  0  0  0  0  0  0  0  0  0
   25.7566  -21.2898  -10.8172 C   0  0  2  0  0  0  0  0  0  0  0  0
   26.6283  -22.1210  -11.6217 N   0  0  0  0  0  0  0  0  0  0  0  0
   24.7751  -20.6432  -11.7134 C   0  0  0  0  0  0  0  0  0  0  0  0
   23.8467  -19.9457  -11.2370 O   0  0  0  0  0  0  0  0  0  0  0  0
   24.8437  -20.7827  -13.1054 N   0  0  0  0  0  0  0  0  0  0  0  0
   23.8698  -20.2091  -14.0346 C   0  0  1  0  0  0  0  0  0  0  0  0
   24.4233  -20.3172  -15.4587 C   0  0  0  0  0  0  0  0  0  0  0  0
   23.1034  -20.0935  -16.6521 S   0  0  0  0  0  0  0  0  0  0  0  0
   22.6815  -21.1000  -13.9579 C   0  0  0  0  0  0  0  0  0  0  0  0
   22.8197  -22.3688  -14.0280 O   0  0  0  0  0  0  0  0  0  0  0  0
   20.2485  -23.2120   -9.2166 C   0  0  0  0  0  0  0  0  0  0  0  0
   18.7165  -23.1341  -10.1412 S   0  0  0  0  0  0  0  0  0  0  0  0
   18.9390  -22.7288  -11.8727 C   0  0  0  0  0  0  0  0  0  0  0  0
   20.1049  -21.7950  -12.1056 C   0  0  0  0  0  0  0  0  0  0  0  0
   20.2540  -21.6010  -13.6184 C   0  0  2  0  0  0  0  0  0  0  0  0
   21.3501  -20.6557  -13.8053 N   0  0  0  0  0  0  0  0  0  0  0  0
   19.0022  -21.0374  -14.1590 C   0  0  0  0  0  0  0  0  0  0  0  0
   18.8497  -19.8018  -14.2347 O   0  0  0  0  0  0  0  0  0  0  0  0
   18.0032  -21.8825  -14.5796 O   0  0  0  0  0  0  0  0  0  0  0  0
  2  1  1  0
  3  2  1  0
  4  3  1  0
  5  6  1  6
  5  4  1  0
  7  5  1  0
  8  7  2  0
  9  7  1  0
 10  9  1  0
 10 13  1  0
 10 11  1  6
 12 11  1  0
 13 20  1  0
 14 13  2  0
 16 15  1  0
 17 16  1  0
 18 17  1  0
 19 18  1  1
 19 21  1  0
 20 19  1  0
 21 22  2  0
 21 23  1  0
M  END
$$$$
