MCM.pdb
     RDKit          3D

 23 22  0  0  1  0  0  0  0  0999 V2000
   11.3772  -10.3974  -12.5204 C   0  0  0  0  0  0  0  0  0  0  0  0
   12.2129  -11.9455  -12.1827 S   0  0  0  0  0  0  0  0  0  0  0  0
   14.0038  -11.8209  -12.3010 C   0  0  0  0  0  0  0  0  0  0  0  0
   14.5845  -10.9162  -11.2272 C   0  0  0  0  0  0  0  0  0  0  0  0
   16.0757  -10.8461  -11.4796 C   0  0  2  0  0  0  0  0  0  0  0  0
   16.6828  -12.0941  -11.0651 N   0  0  0  0  0  0  0  0  0  0  0  0
   16.7172   -9.7462  -10.7290 C   0  0  0  0  0  0  0  0  0  0  0  0
   17.1653   -9.9457   -9.5737 O   0  0  0  0  0  0  0  0  0  0  0  0
   16.8467   -8.4611  -11.2708 N   0  0  0  0  0  0  0  0  0  0  0  0
   17.5085   -7.3482  -10.5892 C   0  0  1  0  0  0  0  0  0  0  0  0
   18.5218   -6.7150  -11.5475 C   0  0  0  0  0  0  0  0  0  0  0  0
   20.1036   -7.5492  -11.4119 S   0  0  0  0  0  0  0  0  0  0  0  0
   16.4403   -6.3409  -10.3533 C   0  0  0  0  0  0  0  0  0  0  0  0
   15.6788   -5.9704  -11.3108 O   0  0  0  0  0  0  0  0  0  0  0  0
   11.6875   -2.5661   -5.2979 C   0  0  0  0  0  0  0  0  0  0  0  0
   12.8919   -3.8528   -5.6170 S   0  0  0  0  0  0  0  0  0  0  0  0
   13.5273   -3.8463   -7.2926 C   0  0  0  0  0  0  0  0  0  0  0  0
   14.5880   -4.9003   -7.5159 C   0  0  0  0  0  0  0  0  0  0  0  0
   15.0830   -4.7674   -8.9601 C   0  0  2  0  0  0  0  0  0  0  0  0
   16.1728   -5.7263   -9.1106 N   0  0  0  0  0  0  0  0  0  0  0  0
   15.5824   -3.3959   -9.1755 C   0  0  0  0  0  0  0  0  0  0  0  0
   16.7679   -3.1098   -8.9136 O   0  0  0  0  0  0  0  0  0  0  0  0
   14.7333   -2.4335   -9.6672 O   0  0  0  0  0  0  0  0  0  0  0  0
  2  1  1  0
  3  2  1  0
  4  3  1  0
  5  6  1  1
  5  4  1  0
  7  5  1  0
  8  7  2  0
  9  7  1  0
 10  9  1  0
 10 13  1  0
 10 11  1  6
 12 11  1  0
 13 20  1  0
 14 13  2  0
 16 15  1  0
 17 16  1  0
 18 17  1  0
 19 18  1  1
 19 21  1  0
 20 19  1  0
 21 22  2  0
 21 23  1  0
M  END
$$$$
