MCM.pdb
     RDKit          3D

 23 22  0  0  1  0  0  0  0  0999 V2000
   21.8787  -15.9136  -21.1279 C   0  0  0  0  0  0  0  0  0  0  0  0
   23.3584  -15.4994  -20.2068 S   0  0  0  0  0  0  0  0  0  0  0  0
   23.5821  -13.7273  -19.9911 C   0  0  0  0  0  0  0  0  0  0  0  0
   22.2564  -12.9979  -19.8527 C   0  0  0  0  0  0  0  0  0  0  0  0
   22.2455  -12.3769  -18.4719 C   0  0  2  0  0  0  0  0  0  0  0  0
   21.5404  -13.2586  -17.5644 N   0  0  0  0  0  0  0  0  0  0  0  0
   21.5721  -11.0613  -18.4574 C   0  0  0  0  0  0  0  0  0  0  0  0
   21.1968  -10.5307  -19.5312 O   0  0  0  0  0  0  0  0  0  0  0  0
   21.3318  -10.3690  -17.2637 N   0  0  0  0  0  0  0  0  0  0  0  0
   20.6102   -9.0985  -17.1852 C   0  0  1  0  0  0  0  0  0  0  0  0
   19.3528   -9.2969  -16.3334 C   0  0  0  0  0  0  0  0  0  0  0  0
   19.7393  -10.2774  -14.8823 S   0  0  0  0  0  0  0  0  0  0  0  0
   21.5084   -8.1823  -16.4334 C   0  0  0  0  0  0  0  0  0  0  0  0
   22.2715   -8.6363  -15.5138 O   0  0  0  0  0  0  0  0  0  0  0  0
   22.5550   -1.0938  -16.4347 C   0  0  0  0  0  0  0  0  0  0  0  0
   23.9453   -2.2118  -16.5938 S   0  0  0  0  0  0  0  0  0  0  0  0
   23.6763   -3.8103  -15.8295 C   0  0  0  0  0  0  0  0  0  0  0  0
   22.7952   -4.7122  -16.6637 C   0  0  0  0  0  0  0  0  0  0  0  0
   22.4714   -5.9544  -15.8267 C   0  0  2  0  0  0  0  0  0  0  0  0
   21.6046   -6.7906  -16.6510 N   0  0  0  0  0  0  0  0  0  0  0  0
   21.7595   -5.5401  -14.6026 C   0  0  0  0  0  0  0  0  0  0  0  0
   20.5323   -5.3189  -14.6329 O   0  0  0  0  0  0  0  0  0  0  0  0
   22.4567   -5.3989  -13.4265 O   0  0  0  0  0  0  0  0  0  0  0  0
  2  1  1  0
  3  2  1  0
  4  3  1  0
  5  6  1  1
  5  4  1  0
  7  5  1  0
  8  7  2  0
  9  7  1  0
 10  9  1  0
 10 13  1  0
 10 11  1  1
 12 11  1  0
 13 20  1  0
 14 13  2  0
 16 15  1  0
 17 16  1  0
 18 17  1  0
 19 18  1  6
 19 21  1  0
 20 19  1  0
 21 22  2  0
 21 23  1  0
M  END
$$$$
