MCM.pdb
     RDKit          3D

 23 22  0  0  1  0  0  0  0  0999 V2000
   28.4229  -15.1437  -15.8730 C   0  0  0  0  0  0  0  0  0  0  0  0
   28.7292  -16.5853  -16.8914 S   0  0  0  0  0  0  0  0  0  0  0  0
   27.8518  -18.0496  -16.3232 C   0  0  0  0  0  0  0  0  0  0  0  0
   27.0209  -17.7707  -15.0820 C   0  0  0  0  0  0  0  0  0  0  0  0
   26.3266  -19.0679  -14.7248 C   0  0  2  0  0  0  0  0  0  0  0  0
   25.3229  -19.3568  -15.7284 N   0  0  0  0  0  0  0  0  0  0  0  0
   25.6594  -18.9989  -13.4078 C   0  0  0  0  0  0  0  0  0  0  0  0
   24.8492  -18.0739  -13.1565 O   0  0  0  0  0  0  0  0  0  0  0  0
   25.9029  -19.9484  -12.4072 N   0  0  0  0  0  0  0  0  0  0  0  0
   25.2548  -19.9398  -11.0953 C   0  0  1  0  0  0  0  0  0  0  0  0
   24.1575  -21.0082  -11.0799 C   0  0  0  0  0  0  0  0  0  0  0  0
   24.7007  -22.4633  -11.9766 S   0  0  0  0  0  0  0  0  0  0  0  0
   26.3041  -20.3759  -10.1359 C   0  0  0  0  0  0  0  0  0  0  0  0
   27.0089  -21.4146  -10.3774 O   0  0  0  0  0  0  0  0  0  0  0  0
   29.4285  -17.4869   -4.9286 C   0  0  0  0  0  0  0  0  0  0  0  0
   28.7259  -19.0042   -4.2865 S   0  0  0  0  0  0  0  0  0  0  0  0
   28.1441  -20.1244   -5.5586 C   0  0  0  0  0  0  0  0  0  0  0  0
   27.6405  -19.3989   -6.7856 C   0  0  0  0  0  0  0  0  0  0  0  0
   27.1346  -20.4521   -7.7773 C   0  0  2  0  0  0  0  0  0  0  0  0
   26.6123  -19.7180   -8.9254 N   0  0  0  0  0  0  0  0  0  0  0  0
   26.0559  -21.2339   -7.1433 C   0  0  0  0  0  0  0  0  0  0  0  0
   26.3291  -22.1330   -6.3231 O   0  0  0  0  0  0  0  0  0  0  0  0
   24.7459  -20.9658   -7.4615 O   0  0  0  0  0  0  0  0  0  0  0  0
  2  1  1  0
  3  2  1  0
  4  3  1  0
  5  6  1  6
  5  4  1  0
  7  5  1  0
  8  7  2  0
  9  7  1  0
 10  9  1  0
 10 13  1  0
 10 11  1  6
 12 11  1  0
 13 20  1  0
 14 13  2  0
 16 15  1  0
 17 16  1  0
 18 17  1  0
 19 18  1  1
 19 21  1  0
 20 19  1  0
 21 22  2  0
 21 23  1  0
M  END
$$$$
