YAV.pdb
     RDKit          3D

 25 25  0  0  1  0  0  0  0  0999 V2000
   20.5665  -22.6186   -7.2130 O   0  0  0  0  0  0  0  0  0  0  0  0
   21.4004  -22.0307   -8.1692 C   0  0  0  0  0  0  0  0  0  0  0  0
   21.1529  -22.1252   -9.5161 C   0  0  0  0  0  0  0  0  0  0  0  0
   22.0134  -21.5217  -10.4364 C   0  0  0  0  0  0  0  0  0  0  0  0
   23.1278  -20.8186  -10.0352 C   0  0  0  0  0  0  0  0  0  0  0  0
   24.0572  -20.1753  -10.9802 C   0  0  0  0  0  0  0  0  0  0  0  0
   25.0758  -21.1136  -11.5846 C   0  0  2  0  0  0  0  0  0  0  0  0
   26.0355  -21.3926  -10.5255 N   0  0  0  0  0  0  0  0  0  0  0  0
   25.7082  -20.4539  -12.7387 C   0  0  0  0  0  0  0  0  0  0  0  0
   26.4398  -19.4464  -12.5643 O   0  0  0  0  0  0  0  0  0  0  0  0
   23.3501  -20.7416   -8.6603 C   0  0  0  0  0  0  0  0  0  0  0  0
   22.5038  -21.3354   -7.7477 C   0  0  0  0  0  0  0  0  0  0  0  0
   26.2679  -21.0412  -16.4252 C   0  0  0  0  0  0  0  0  0  0  0  0
   26.2047  -20.2153  -15.1591 C   0  0  2  0  0  0  0  0  0  0  0  0
   25.5474  -20.8869  -14.0860 N   0  0  0  0  0  0  0  0  0  0  0  0
   25.5943  -18.9142  -15.5089 C   0  0  0  0  0  0  0  0  0  0  0  0
   24.3525  -18.7971  -15.3129 O   0  0  0  0  0  0  0  0  0  0  0  0
   27.8293  -15.3468  -15.9645 C   0  0  0  0  0  0  0  0  0  0  0  0
   26.3684  -15.4172  -15.5414 C   0  0  1  0  0  0  0  0  0  0  0  0
   25.7141  -14.0876  -15.7831 C   0  0  0  0  0  0  0  0  0  0  0  0
   25.6492  -16.5455  -16.2562 C   0  0  2  0  0  0  0  0  0  0  0  0
   26.3089  -17.8164  -16.0396 N   0  0  0  0  0  0  0  0  0  0  0  0
   25.6700  -16.2117  -17.7036 C   0  0  0  0  0  0  0  0  0  0  0  0
   24.7471  -15.3382  -18.2707 O   0  0  0  0  0  0  0  0  0  0  0  0
   26.5585  -16.7482  -18.4151 O   0  0  0  0  0  0  0  0  0  0  0  0
  2  1  1  0
  3  2  2  0
  4  5  2  0
  4  3  1  0
  5 11  1  0
  6  5  1  0
  7  9  1  0
  7  6  1  0
  7  8  1  1
  9 10  2  0
 11 12  2  0
 12  2  1  0
 14 13  1  6
 15 14  1  0
 15  9  1  0
 16 22  1  0
 16 14  1  0
 17 16  2  0
 19 18  1  6
 19 20  1  0
 21 19  1  0
 21 22  1  6
 23 21  1  0
 23 24  1  0
 25 23  2  0
M  END
$$$$
