YAV.pdb
     RDKit          3D

 25 25  0  0  1  0  0  0  0  0999 V2000
   18.5625  -20.3973  -12.7928 O   0  0  0  0  0  0  0  0  0  0  0  0
   19.8046  -20.5046  -12.1597 C   0  0  0  0  0  0  0  0  0  0  0  0
   20.4515  -19.4187  -11.6241 C   0  0  0  0  0  0  0  0  0  0  0  0
   21.6920  -19.5724  -11.0003 C   0  0  0  0  0  0  0  0  0  0  0  0
   22.3064  -20.8010  -10.8993 C   0  0  0  0  0  0  0  0  0  0  0  0
   23.6157  -20.9955  -10.2525 C   0  0  0  0  0  0  0  0  0  0  0  0
   24.7972  -20.6285  -11.1201 C   0  0  2  0  0  0  0  0  0  0  0  0
   24.9564  -21.7295  -12.0598 N   0  0  0  0  0  0  0  0  0  0  0  0
   25.9840  -20.4599  -10.2656 C   0  0  0  0  0  0  0  0  0  0  0  0
   26.4843  -21.4541   -9.6807 O   0  0  0  0  0  0  0  0  0  0  0  0
   21.6227  -21.8832  -11.4534 C   0  0  0  0  0  0  0  0  0  0  0  0
   20.3980  -21.7369  -12.0703 C   0  0  0  0  0  0  0  0  0  0  0  0
   28.4347  -17.7432   -9.2644 C   0  0  0  0  0  0  0  0  0  0  0  0
   27.8179  -19.1247   -9.2577 C   0  0  2  0  0  0  0  0  0  0  0  0
   26.6309  -19.2105  -10.0441 N   0  0  0  0  0  0  0  0  0  0  0  0
   27.6244  -19.5167   -7.8447 C   0  0  0  0  0  0  0  0  0  0  0  0
   26.4352  -19.5527   -7.4218 O   0  0  0  0  0  0  0  0  0  0  0  0
   29.3083  -20.9811   -3.3966 C   0  0  0  0  0  0  0  0  0  0  0  0
   29.5489  -20.8347   -4.8929 C   0  0  1  0  0  0  0  0  0  0  0  0
   29.7698  -22.1910   -5.4980 C   0  0  0  0  0  0  0  0  0  0  0  0
   28.4049  -20.0926   -5.5575 C   0  0  2  0  0  0  0  0  0  0  0  0
   28.6750  -19.8468   -6.9589 N   0  0  0  0  0  0  0  0  0  0  0  0
   28.2658  -18.7988   -4.8408 C   0  0  0  0  0  0  0  0  0  0  0  0
   27.3817  -18.6374   -3.7784 O   0  0  0  0  0  0  0  0  0  0  0  0
   28.9799  -17.8369   -5.2257 O   0  0  0  0  0  0  0  0  0  0  0  0
  2  1  1  0
  3  2  2  0
  4  5  2  0
  4  3  1  0
  5 11  1  0
  6  5  1  0
  7  9  1  0
  7  6  1  0
  7  8  1  6
  9 10  2  0
 11 12  2  0
 12  2  1  0
 14 13  1  1
 15 14  1  0
 15  9  1  0
 16 22  1  0
 16 14  1  0
 17 16  2  0
 19 18  1  1
 19 20  1  0
 21 19  1  0
 21 22  1  6
 23 21  1  0
 23 24  1  0
 25 23  2  0
M  END
$$$$
