YAV.pdb
     RDKit          3D

 25 25  0  0  1  0  0  0  0  0999 V2000
   30.6785  -16.5394  -18.9855 O   0  0  0  0  0  0  0  0  0  0  0  0
   29.8286  -17.2304  -18.1163 C   0  0  0  0  0  0  0  0  0  0  0  0
   30.1563  -17.4682  -16.8046 C   0  0  0  0  0  0  0  0  0  0  0  0
   29.2762  -18.1632  -15.9716 C   0  0  0  0  0  0  0  0  0  0  0  0
   28.0629  -18.6307  -16.4261 C   0  0  0  0  0  0  0  0  0  0  0  0
   27.1153  -19.3709  -15.5749 C   0  0  0  0  0  0  0  0  0  0  0  0
   27.6945  -20.6108  -14.9342 C   0  0  2  0  0  0  0  0  0  0  0  0
   27.9769  -21.5281  -16.0294 N   0  0  0  0  0  0  0  0  0  0  0  0
   26.7094  -21.1671  -13.9923 C   0  0  0  0  0  0  0  0  0  0  0  0
   25.7907  -21.9158  -14.4122 O   0  0  0  0  0  0  0  0  0  0  0  0
   27.7608  -18.3723  -17.7631 C   0  0  0  0  0  0  0  0  0  0  0  0
   28.6260  -17.6867  -18.5896 C   0  0  0  0  0  0  0  0  0  0  0  0
   25.7835  -20.8473  -10.3253 C   0  0  0  0  0  0  0  0  0  0  0  0
   25.5989  -21.2440  -11.7736 C   0  0  2  0  0  0  0  0  0  0  0  0
   26.7195  -20.9116  -12.5912 N   0  0  0  0  0  0  0  0  0  0  0  0
   24.3270  -20.6482  -12.2375 C   0  0  0  0  0  0  0  0  0  0  0  0
   24.3214  -19.4012  -12.4353 O   0  0  0  0  0  0  0  0  0  0  0  0
   22.6363  -20.3722  -15.2601 C   0  0  0  0  0  0  0  0  0  0  0  0
   21.6005  -20.9947  -14.3339 C   0  0  1  0  0  0  0  0  0  0  0  0
   21.5040  -22.4673  -14.6109 C   0  0  0  0  0  0  0  0  0  0  0  0
   21.9281  -20.7076  -12.8809 C   0  0  2  0  0  0  0  0  0  0  0  0
   23.1412  -21.3820  -12.4673 N   0  0  0  0  0  0  0  0  0  0  0  0
   20.7805  -21.2076  -12.0808 C   0  0  0  0  0  0  0  0  0  0  0  0
   20.8675  -22.3649  -11.3130 O   0  0  0  0  0  0  0  0  0  0  0  0
   19.7104  -20.5466  -12.1162 O   0  0  0  0  0  0  0  0  0  0  0  0
  2  1  1  0
  3  2  2  0
  4  5  2  0
  4  3  1  0
  5 11  1  0
  6  5  1  0
  7  9  1  0
  7  6  1  0
  7  8  1  6
  9 10  2  0
 11 12  2  0
 12  2  1  0
 14 13  1  1
 15 14  1  0
 15  9  1  0
 16 22  1  0
 16 14  1  0
 17 16  2  0
 19 18  1  6
 19 20  1  0
 21 19  1  0
 21 22  1  1
 23 21  1  0
 23 24  1  0
 25 23  2  0
M  END
$$$$
