YAV.pdb
     RDKit          3D

 25 25  0  0  1  0  0  0  0  0999 V2000
   23.8219  -21.5499   -8.0121 O   0  0  0  0  0  0  0  0  0  0  0  0
   24.0782  -21.2808   -9.3601 C   0  0  0  0  0  0  0  0  0  0  0  0
   23.1075  -21.3802  -10.3257 C   0  0  0  0  0  0  0  0  0  0  0  0
   23.4085  -21.1017  -11.6611 C   0  0  0  0  0  0  0  0  0  0  0  0
   24.6722  -20.7222  -12.0565 C   0  0  0  0  0  0  0  0  0  0  0  0
   25.0228  -20.4267  -13.4566 C   0  0  0  0  0  0  0  0  0  0  0  0
   24.8843  -18.9709  -13.8371 C   0  0  2  0  0  0  0  0  0  0  0  0
   23.4527  -18.7114  -13.8981 N   0  0  0  0  0  0  0  0  0  0  0  0
   25.5379  -18.7523  -15.1379 C   0  0  0  0  0  0  0  0  0  0  0  0
   24.8587  -18.7801  -16.1956 O   0  0  0  0  0  0  0  0  0  0  0  0
   25.6347  -20.6309  -11.0511 C   0  0  0  0  0  0  0  0  0  0  0  0
   25.3428  -20.9046   -9.7314 C   0  0  0  0  0  0  0  0  0  0  0  0
   28.8524  -17.4951  -16.4375 C   0  0  0  0  0  0  0  0  0  0  0  0
   27.4729  -18.1057  -16.5519 C   0  0  2  0  0  0  0  0  0  0  0  0
   26.9315  -18.5028  -15.2934 N   0  0  0  0  0  0  0  0  0  0  0  0
   27.5554  -19.2057  -17.5373 C   0  0  0  0  0  0  0  0  0  0  0  0
   27.8045  -20.3577  -17.0846 O   0  0  0  0  0  0  0  0  0  0  0  0
   24.9233  -20.2357  -20.3132 C   0  0  0  0  0  0  0  0  0  0  0  0
   26.3212  -20.0655  -20.8922 C   0  0  1  0  0  0  0  0  0  0  0  0
   26.4062  -18.7511  -21.6131 C   0  0  0  0  0  0  0  0  0  0  0  0
   27.3769  -20.1924  -19.8103 C   0  0  2  0  0  0  0  0  0  0  0  0
   27.3747  -19.0428  -18.9295 N   0  0  0  0  0  0  0  0  0  0  0  0
   28.6866  -20.2871  -20.5052 C   0  0  0  0  0  0  0  0  0  0  0  0
   29.1379  -21.4782  -21.0656 O   0  0  0  0  0  0  0  0  0  0  0  0
   29.3886  -19.2451  -20.5750 O   0  0  0  0  0  0  0  0  0  0  0  0
  2  1  1  0
  3  2  2  0
  4  5  2  0
  4  3  1  0
  5 11  1  0
  6  5  1  0
  7  9  1  0
  7  6  1  0
  7  8  1  6
  9 10  2  0
 11 12  2  0
 12  2  1  0
 14 13  1  1
 15 14  1  0
 15  9  1  0
 16 22  1  0
 16 14  1  0
 17 16  2  0
 19 18  1  1
 19 20  1  0
 21 19  1  0
 21 22  1  1
 23 21  1  0
 23 24  1  0
 25 23  2  0
M  END
$$$$
