YAV.pdb
     RDKit          3D

 25 25  0  0  1  0  0  0  0  0999 V2000
   29.1088  -19.9318   -5.5730 O   0  0  0  0  0  0  0  0  0  0  0  0
   28.2596  -20.0784   -6.6742 C   0  0  0  0  0  0  0  0  0  0  0  0
   27.1125  -19.3385   -6.8198 C   0  0  0  0  0  0  0  0  0  0  0  0
   26.2932  -19.5182   -7.9370 C   0  0  0  0  0  0  0  0  0  0  0  0
   26.5988  -20.4312   -8.9220 C   0  0  0  0  0  0  0  0  0  0  0  0
   25.7535  -20.6479  -10.1090 C   0  0  0  0  0  0  0  0  0  0  0  0
   26.4753  -21.2759  -11.2786 C   0  0  2  0  0  0  0  0  0  0  0  0
   27.5926  -20.3908  -11.5767 N   0  0  0  0  0  0  0  0  0  0  0  0
   25.5434  -21.3849  -12.4130 C   0  0  0  0  0  0  0  0  0  0  0  0
   25.3087  -20.3812  -13.1330 O   0  0  0  0  0  0  0  0  0  0  0  0
   27.7707  -21.1663   -8.7436 C   0  0  0  0  0  0  0  0  0  0  0  0
   28.5830  -20.9927   -7.6428 C   0  0  0  0  0  0  0  0  0  0  0  0
   23.6036  -24.0203  -14.3069 C   0  0  0  0  0  0  0  0  0  0  0  0
   23.9455  -22.6160  -13.8598 C   0  0  2  0  0  0  0  0  0  0  0  0
   24.8637  -22.5850  -12.7686 N   0  0  0  0  0  0  0  0  0  0  0  0
   22.6719  -21.9159  -13.5850 C   0  0  0  0  0  0  0  0  0  0  0  0
   22.2973  -21.8678  -12.3802 O   0  0  0  0  0  0  0  0  0  0  0  0
   19.1548  -18.6608  -14.6621 C   0  0  0  0  0  0  0  0  0  0  0  0
   20.4957  -19.3155  -14.9648 C   0  0  1  0  0  0  0  0  0  0  0  0
   21.6038  -18.3525  -14.6496 C   0  0  0  0  0  0  0  0  0  0  0  0
   20.6446  -20.6234  -14.2109 C   0  0  2  0  0  0  0  0  0  0  0  0
   21.8665  -21.3098  -14.5757 N   0  0  0  0  0  0  0  0  0  0  0  0
   19.4728  -21.4598  -14.5776 C   0  0  0  0  0  0  0  0  0  0  0  0
   18.4017  -21.6469  -13.7093 O   0  0  0  0  0  0  0  0  0  0  0  0
   19.4742  -22.0033  -15.7125 O   0  0  0  0  0  0  0  0  0  0  0  0
  2  1  1  0
  3  2  2  0
  4  5  2  0
  4  3  1  0
  5 11  1  0
  6  5  1  0
  7  9  1  0
  7  6  1  0
  7  8  1  6
  9 10  2  0
 11 12  2  0
 12  2  1  0
 14 13  1  1
 15 14  1  0
 15  9  1  0
 16 22  1  0
 16 14  1  0
 17 16  2  0
 19 18  1  1
 19 20  1  0
 21 19  1  0
 21 22  1  6
 23 21  1  0
 23 24  1  0
 25 23  2  0
M  END
$$$$
