YAV.pdb
     RDKit          3D

 25 25  0  0  1  0  0  0  0  0999 V2000
   15.4636  -15.8199  -19.8748 O   0  0  0  0  0  0  0  0  0  0  0  0
   15.8359  -14.6820  -19.1524 C   0  0  0  0  0  0  0  0  0  0  0  0
   15.0812  -14.1914  -18.1159 C   0  0  0  0  0  0  0  0  0  0  0  0
   15.4918  -13.0510  -17.4214 C   0  0  0  0  0  0  0  0  0  0  0  0
   16.6524  -12.3831  -17.7440 C   0  0  0  0  0  0  0  0  0  0  0  0
   17.1100  -11.1756  -17.0348 C   0  0  0  0  0  0  0  0  0  0  0  0
   18.1990  -11.4282  -16.0182 C   0  0  2  0  0  0  0  0  0  0  0  0
   17.5748  -12.1983  -14.9514 N   0  0  0  0  0  0  0  0  0  0  0  0
   18.7112  -10.1355  -15.5348 C   0  0  0  0  0  0  0  0  0  0  0  0
   18.0306   -9.4507  -14.7293 O   0  0  0  0  0  0  0  0  0  0  0  0
   17.3956  -12.9075  -18.8015 C   0  0  0  0  0  0  0  0  0  0  0  0
   16.9949  -14.0330  -19.4903 C   0  0  0  0  0  0  0  0  0  0  0  0
   21.8657   -8.0714  -15.5852 C   0  0  0  0  0  0  0  0  0  0  0  0
   20.3731   -8.2926  -15.4744 C   0  0  2  0  0  0  0  0  0  0  0  0
   19.9645   -9.5828  -15.9251 N   0  0  0  0  0  0  0  0  0  0  0  0
   19.7062   -7.1773  -16.1810 C   0  0  0  0  0  0  0  0  0  0  0  0
   19.2986   -7.4091  -17.3533 O   0  0  0  0  0  0  0  0  0  0  0  0
   16.9168   -4.9089  -14.8885 C   0  0  0  0  0  0  0  0  0  0  0  0
   17.3850   -4.8838  -16.3370 C   0  0  1  0  0  0  0  0  0  0  0  0
   16.7472   -3.7251  -17.0478 C   0  0  0  0  0  0  0  0  0  0  0  0
   18.8991   -4.8398  -16.4183 C   0  0  2  0  0  0  0  0  0  0  0  0
   19.5036   -5.8924  -15.6285 N   0  0  0  0  0  0  0  0  0  0  0  0
   19.3138   -3.5156  -15.8875 C   0  0  0  0  0  0  0  0  0  0  0  0
   19.3188   -2.3731  -16.6818 O   0  0  0  0  0  0  0  0  0  0  0  0
   19.6660   -3.4532  -14.6811 O   0  0  0  0  0  0  0  0  0  0  0  0
  2  1  1  0
  3  2  2  0
  4  5  2  0
  4  3  1  0
  5 11  1  0
  6  5  1  0
  7  9  1  0
  7  6  1  0
  7  8  1  1
  9 10  2  0
 11 12  2  0
 12  2  1  0
 14 13  1  6
 15 14  1  0
 15  9  1  0
 16 22  1  0
 16 14  1  0
 17 16  2  0
 19 18  1  1
 19 20  1  0
 21 19  1  0
 21 22  1  1
 23 21  1  0
 23 24  1  0
 25 23  2  0
M  END
$$$$
