YAV.pdb
     RDKit          3D

 25 25  0  0  1  0  0  0  0  0999 V2000
   28.3510  -28.7151  -17.6268 O   0  0  0  0  0  0  0  0  0  0  0  0
   27.7925  -27.4874  -17.2578 C   0  0  0  0  0  0  0  0  0  0  0  0
   28.5074  -26.5293  -16.5830 C   0  0  0  0  0  0  0  0  0  0  0  0
   27.9087  -25.3163  -16.2341 C   0  0  0  0  0  0  0  0  0  0  0  0
   26.5970  -25.0374  -16.5484 C   0  0  0  0  0  0  0  0  0  0  0  0
   25.9353  -23.7706  -16.1905 C   0  0  0  0  0  0  0  0  0  0  0  0
   25.9004  -22.7519  -17.3060 C   0  0  2  0  0  0  0  0  0  0  0  0
   27.2565  -22.2318  -17.4108 N   0  0  0  0  0  0  0  0  0  0  0  0
   24.9330  -21.6974  -16.9606 C   0  0  0  0  0  0  0  0  0  0  0  0
   25.2424  -20.8087  -16.1267 O   0  0  0  0  0  0  0  0  0  0  0  0
   25.8992  -26.0316  -17.2341 C   0  0  0  0  0  0  0  0  0  0  0  0
   26.4854  -27.2307  -17.5808 C   0  0  0  0  0  0  0  0  0  0  0  0
   21.6940  -20.2583  -18.2021 C   0  0  0  0  0  0  0  0  0  0  0  0
   22.7380  -20.5534  -17.1477 C   0  0  2  0  0  0  0  0  0  0  0  0
   23.6265  -21.6054  -17.5200 N   0  0  0  0  0  0  0  0  0  0  0  0
   22.0254  -20.7996  -15.8751 C   0  0  0  0  0  0  0  0  0  0  0  0
   21.8625  -22.0055  -15.5382 O   0  0  0  0  0  0  0  0  0  0  0  0
   20.3967  -17.6924  -13.3442 C   0  0  0  0  0  0  0  0  0  0  0  0
   20.9268  -19.0058  -12.7854 C   0  0  1  0  0  0  0  0  0  0  0  0
   20.1973  -19.3387  -11.5159 C   0  0  0  0  0  0  0  0  0  0  0  0
   20.8199  -20.1164  -13.8131 C   0  0  2  0  0  0  0  0  0  0  0  0
   21.5264  -19.7811  -15.0320 N   0  0  0  0  0  0  0  0  0  0  0  0
   19.3731  -20.2864  -14.1045 C   0  0  0  0  0  0  0  0  0  0  0  0
   18.5411  -21.0424  -13.2844 O   0  0  0  0  0  0  0  0  0  0  0  0
   18.9121  -19.7197  -15.1291 O   0  0  0  0  0  0  0  0  0  0  0  0
  2  1  1  0
  3  2  2  0
  4  5  2  0
  4  3  1  0
  5 11  1  0
  6  5  1  0
  7  9  1  0
  7  6  1  0
  7  8  1  1
  9 10  2  0
 11 12  2  0
 12  2  1  0
 14 13  1  6
 15 14  1  0
 15  9  1  0
 16 22  1  0
 16 14  1  0
 17 16  2  0
 19 18  1  6
 19 20  1  0
 21 19  1  0
 21 22  1  6
 23 21  1  0
 23 24  1  0
 25 23  2  0
M  END
$$$$
