YAV.pdb
     RDKit          3D

 25 25  0  0  1  0  0  0  0  0999 V2000
   22.3712  -22.1581   -8.4202 O   0  0  0  0  0  0  0  0  0  0  0  0
   23.2710  -21.5739   -9.3169 C   0  0  0  0  0  0  0  0  0  0  0  0
   24.4837  -21.0705   -8.9163 C   0  0  0  0  0  0  0  0  0  0  0  0
   25.3520  -20.4952   -9.8472 C   0  0  0  0  0  0  0  0  0  0  0  0
   25.0309  -20.4110  -11.1840 C   0  0  0  0  0  0  0  0  0  0  0  0
   25.9219  -19.8061  -12.1894 C   0  0  0  0  0  0  0  0  0  0  0  0
   26.5351  -20.7968  -13.1515 C   0  0  2  0  0  0  0  0  0  0  0  0
   27.5702  -21.4918  -12.3990 N   0  0  0  0  0  0  0  0  0  0  0  0
   27.0902  -20.0653  -14.3021 C   0  0  0  0  0  0  0  0  0  0  0  0
   28.0918  -19.3206  -14.1502 O   0  0  0  0  0  0  0  0  0  0  0  0
   23.7920  -20.9317  -11.5577 C   0  0  0  0  0  0  0  0  0  0  0  0
   22.9313  -21.5008  -10.6428 C   0  0  0  0  0  0  0  0  0  0  0  0
   27.0174  -19.9488  -18.0228 C   0  0  0  0  0  0  0  0  0  0  0  0
   27.0427  -19.2916  -16.6603 C   0  0  2  0  0  0  0  0  0  0  0  0
   26.5587  -20.1407  -15.6213 N   0  0  0  0  0  0  0  0  0  0  0  0
   26.3097  -18.0117  -16.7719 C   0  0  0  0  0  0  0  0  0  0  0  0
   25.0774  -18.0359  -16.4983 O   0  0  0  0  0  0  0  0  0  0  0  0
   25.9606  -13.1560  -16.6014 C   0  0  0  0  0  0  0  0  0  0  0  0
   26.7505  -14.4481  -16.4439 C   0  0  1  0  0  0  0  0  0  0  0  0
   26.8856  -14.7759  -14.9849 C   0  0  0  0  0  0  0  0  0  0  0  0
   26.1065  -15.5776  -17.2254 C   0  0  2  0  0  0  0  0  0  0  0  0
   26.8997  -16.7875  -17.1600 N   0  0  0  0  0  0  0  0  0  0  0  0
   26.0117  -15.1176  -18.6348 C   0  0  0  0  0  0  0  0  0  0  0  0
   27.1390  -14.9633  -19.4359 O   0  0  0  0  0  0  0  0  0  0  0  0
   24.8667  -14.8670  -19.0927 O   0  0  0  0  0  0  0  0  0  0  0  0
  2  1  1  0
  3  2  2  0
  4  5  2  0
  4  3  1  0
  5 11  1  0
  6  5  1  0
  7  9  1  0
  7  6  1  0
  7  8  1  1
  9 10  2  0
 11 12  2  0
 12  2  1  0
 14 13  1  6
 15 14  1  0
 15  9  1  0
 16 22  1  0
 16 14  1  0
 17 16  2  0
 19 18  1  1
 19 20  1  0
 21 19  1  0
 21 22  1  6
 23 21  1  0
 23 24  1  0
 25 23  2  0
M  END
$$$$
