QWL.pdb
     RDKit          3D

 32 33  0  0  1  0  0  0  0  0999 V2000
   23.3170  -26.2101  -13.8557 N   0  0  0  0  0  0  0  0  0  0  0  0
   22.9844  -25.6176  -15.1134 C   0  0  0  0  0  0  0  0  0  0  0  0
   22.0483  -26.1319  -15.7427 O   0  0  0  0  0  0  0  0  0  0  0  0
   23.7564  -24.4627  -15.5758 C   0  0  0  0  0  0  0  0  0  0  0  0
   24.7828  -23.9136  -14.6601 C   0  0  0  0  0  0  0  0  0  0  0  0
   24.3934  -22.7292  -13.8243 C   0  0  2  0  0  0  0  0  0  0  0  0
   23.5523  -21.7831  -14.4439 N   0  0  0  0  0  0  0  0  0  0  0  0
   25.6902  -22.1704  -13.2942 C   0  0  0  0  0  0  0  0  0  0  0  0
   26.7076  -22.6156  -13.8714 O   0  0  0  0  0  0  0  0  0  0  0  0
   25.7789  -21.2319  -12.2467 N   0  0  0  0  0  0  0  0  0  0  0  0
   26.9458  -20.6481  -11.6828 C   0  0  1  0  0  0  0  0  0  0  0  0
   27.2155  -19.2324  -12.0400 C   0  0  0  0  0  0  0  0  0  0  0  0
   26.7779  -18.8314  -13.3970 C   0  0  0  0  0  0  0  0  0  0  0  0
   25.5539  -18.4435  -13.8265 C   0  0  0  0  0  0  0  0  0  0  0  0
   25.6524  -18.1960  -15.1485 N   0  0  0  0  0  0  0  0  0  0  0  0
   26.9162  -18.4174  -15.5786 C   0  0  0  0  0  0  0  0  0  0  0  0
   27.5146  -18.3123  -16.8149 C   0  0  0  0  0  0  0  0  0  0  0  0
   28.8610  -18.6098  -16.9798 C   0  0  0  0  0  0  0  0  0  0  0  0
   29.5981  -19.0131  -15.8923 C   0  0  0  0  0  0  0  0  0  0  0  0
   28.9734  -19.1091  -14.6712 C   0  0  0  0  0  0  0  0  0  0  0  0
   27.6273  -18.8167  -14.4813 C   0  0  0  0  0  0  0  0  0  0  0  0
   27.0877  -20.8251  -10.1931 C   0  0  0  0  0  0  0  0  0  0  0  0
   28.1841  -20.9569   -9.6012 O   0  0  0  0  0  0  0  0  0  0  0  0
   28.6373  -18.4839   -6.5617 C   0  0  0  0  0  0  0  0  0  0  0  0
   28.2611  -19.9180   -7.0619 C   0  0  1  0  0  0  0  0  0  0  0  0
   28.5866  -20.7940   -5.8800 C   0  0  0  0  0  0  0  0  0  0  0  0
   26.8362  -19.8124   -7.4327 C   0  0  0  0  0  0  0  0  0  0  0  0
   26.0893  -21.0077   -7.8798 C   0  0  2  0  0  0  0  0  0  0  0  0
   25.9491  -20.8502   -9.3560 N   0  0  0  0  0  0  0  0  0  0  0  0
   24.7283  -21.2081   -7.3966 C   0  0  0  0  0  0  0  0  0  0  0  0
   23.5913  -21.0806   -8.2244 O   0  0  0  0  0  0  0  0  0  0  0  0
   24.4584  -21.5070   -6.2084 O   0  0  0  0  0  0  0  0  0  0  0  0
  2  1  1  0
  3  2  2  0
  4  2  1  0
  5  4  1  0
  6  8  1  0
  6  5  1  0
  6  7  1  6
  8  9  2  0
 10 11  1  0
 10  8  1  0
 11 12  1  1
 12 13  1  0
 13 21  1  0
 14 15  1  0
 14 13  2  0
 15 16  1  0
 16 21  2  0
 16 17  1  0
 17 18  2  0
 18 19  1  0
 20 19  2  0
 21 20  1  0
 22 11  1  0
 23 22  2  0
 25 24  1  1
 26 25  1  0
 27 25  1  0
 28 27  1  1
 28 29  1  0
 29 22  1  0
 30 31  1  0
 30 28  1  0
 32 30  2  0
M  END
$$$$
