QWL.pdb
     RDKit          3D

 32 33  0  0  1  0  0  0  0  0999 V2000
   29.9577  -23.3461  -16.1571 N   0  0  0  0  0  0  0  0  0  0  0  0
   29.9481  -22.2455  -17.0693 C   0  0  0  0  0  0  0  0  0  0  0  0
   30.9127  -22.1527  -17.8424 O   0  0  0  0  0  0  0  0  0  0  0  0
   28.8227  -21.3096  -17.0344 C   0  0  0  0  0  0  0  0  0  0  0  0
   27.7711  -21.5402  -16.0174 C   0  0  0  0  0  0  0  0  0  0  0  0
   27.6092  -20.4979  -14.9495 C   0  0  2  0  0  0  0  0  0  0  0  0
   28.8006  -19.9925  -14.3911 N   0  0  0  0  0  0  0  0  0  0  0  0
   26.6469  -21.0933  -13.9523 C   0  0  0  0  0  0  0  0  0  0  0  0
   26.1176  -22.1613  -14.3341 O   0  0  0  0  0  0  0  0  0  0  0  0
   26.3515  -20.5224  -12.6983 N   0  0  0  0  0  0  0  0  0  0  0  0
   25.3584  -20.9182  -11.7616 C   0  0  1  0  0  0  0  0  0  0  0  0
   25.6349  -20.6112  -10.3354 C   0  0  0  0  0  0  0  0  0  0  0  0
   27.0020  -20.9447   -9.8736 C   0  0  0  0  0  0  0  0  0  0  0  0
   27.9335  -21.7418  -10.4481 C   0  0  0  0  0  0  0  0  0  0  0  0
   29.0139  -21.7426   -9.6409 N   0  0  0  0  0  0  0  0  0  0  0  0
   28.7958  -20.9616   -8.5576 C   0  0  0  0  0  0  0  0  0  0  0  0
   29.5707  -20.6426   -7.4642 C   0  0  0  0  0  0  0  0  0  0  0  0
   29.0877  -19.7974   -6.4738 C   0  0  0  0  0  0  0  0  0  0  0  0
   27.8212  -19.2774   -6.5930 C   0  0  0  0  0  0  0  0  0  0  0  0
   27.0712  -19.6141   -7.6952 C   0  0  0  0  0  0  0  0  0  0  0  0
   27.5328  -20.4579   -8.6995 C   0  0  0  0  0  0  0  0  0  0  0  0
   23.9553  -20.4882  -12.1041 C   0  0  0  0  0  0  0  0  0  0  0  0
   23.6006  -19.2955  -12.2501 O   0  0  0  0  0  0  0  0  0  0  0  0
   21.2628  -22.6315  -16.0617 C   0  0  0  0  0  0  0  0  0  0  0  0
   21.8511  -21.5479  -15.0983 C   0  0  1  0  0  0  0  0  0  0  0  0
   21.5307  -20.2519  -15.7970 C   0  0  0  0  0  0  0  0  0  0  0  0
   21.1663  -21.7921  -13.8137 C   0  0  0  0  0  0  0  0  0  0  0  0
   21.5378  -21.0188  -12.6094 C   0  0  2  0  0  0  0  0  0  0  0  0
   22.9303  -21.4440  -12.2873 N   0  0  0  0  0  0  0  0  0  0  0  0
   20.7892  -21.2338  -11.3768 C   0  0  0  0  0  0  0  0  0  0  0  0
   19.5850  -20.5584  -11.0801 O   0  0  0  0  0  0  0  0  0  0  0  0
   21.1553  -22.0327  -10.4814 O   0  0  0  0  0  0  0  0  0  0  0  0
  2  1  1  0
  3  2  2  0
  4  2  1  0
  5  4  1  0
  6  8  1  0
  6  5  1  0
  6  7  1  1
  8  9  2  0
 10 11  1  0
 10  8  1  0
 11 12  1  1
 12 13  1  0
 13 21  1  0
 14 15  1  0
 14 13  2  0
 15 16  1  0
 16 21  2  0
 16 17  1  0
 17 18  2  0
 18 19  1  0
 20 19  2  0
 21 20  1  0
 22 11  1  0
 23 22  2  0
 25 24  1  6
 26 25  1  0
 27 25  1  0
 28 27  1  6
 28 29  1  0
 29 22  1  0
 30 31  1  0
 30 28  1  0
 32 30  2  0
M  END
$$$$
