QWL.pdb
     RDKit          3D

 32 33  0  0  1  0  0  0  0  0999 V2000
   24.7594  -19.3308  -17.9593 N   0  0  0  0  0  0  0  0  0  0  0  0
   25.1124  -20.7156  -17.9228 C   0  0  0  0  0  0  0  0  0  0  0  0
   24.2113  -21.5138  -17.6264 O   0  0  0  0  0  0  0  0  0  0  0  0
   26.4913  -21.1009  -18.2287 C   0  0  0  0  0  0  0  0  0  0  0  0
   27.5429  -20.7078  -17.2626 C   0  0  0  0  0  0  0  0  0  0  0  0
   28.0148  -21.7565  -16.2980 C   0  0  2  0  0  0  0  0  0  0  0  0
   28.4479  -22.9714  -16.8663 N   0  0  0  0  0  0  0  0  0  0  0  0
   26.9077  -21.8930  -15.2828 C   0  0  0  0  0  0  0  0  0  0  0  0
   26.2786  -22.9722  -15.3607 O   0  0  0  0  0  0  0  0  0  0  0  0
   26.5883  -20.9125  -14.3224 N   0  0  0  0  0  0  0  0  0  0  0  0
   25.6326  -20.9852  -13.2727 C   0  0  1  0  0  0  0  0  0  0  0  0
   25.8814  -20.1212  -12.0911 C   0  0  0  0  0  0  0  0  0  0  0  0
   27.1762  -20.3465  -11.4082 C   0  0  0  0  0  0  0  0  0  0  0  0
   28.4202  -20.4445  -11.9336 C   0  0  0  0  0  0  0  0  0  0  0  0
   29.2712  -20.6664  -10.9112 N   0  0  0  0  0  0  0  0  0  0  0  0
   28.5990  -20.7136   -9.7377 C   0  0  0  0  0  0  0  0  0  0  0  0
   29.0039  -20.9130   -8.4362 C   0  0  0  0  0  0  0  0  0  0  0  0
   28.0816  -20.9149   -7.3980 C   0  0  0  0  0  0  0  0  0  0  0  0
   26.7516  -20.7149   -7.6804 C   0  0  0  0  0  0  0  0  0  0  0  0
   26.3775  -20.5190   -8.9889 C   0  0  0  0  0  0  0  0  0  0  0  0
   27.2821  -20.5129  -10.0450 C   0  0  0  0  0  0  0  0  0  0  0  0
   24.1979  -20.8370  -13.7090 C   0  0  0  0  0  0  0  0  0  0  0  0
   23.7492  -19.8439  -14.3273 O   0  0  0  0  0  0  0  0  0  0  0  0
   20.8069  -23.6635  -16.2213 C   0  0  0  0  0  0  0  0  0  0  0  0
   20.1594  -23.3923  -14.8228 C   0  0  1  0  0  0  0  0  0  0  0  0
   19.4151  -24.6697  -14.5318 C   0  0  0  0  0  0  0  0  0  0  0  0
   21.3048  -23.0811  -13.9452 C   0  0  0  0  0  0  0  0  0  0  0  0
   21.8291  -21.7011  -13.8611 C   0  0  2  0  0  0  0  0  0  0  0  0
   23.2503  -21.8493  -13.4349 N   0  0  0  0  0  0  0  0  0  0  0  0
   21.2437  -20.7843  -12.8901 C   0  0  0  0  0  0  0  0  0  0  0  0
   21.4194  -20.9250  -11.4959 O   0  0  0  0  0  0  0  0  0  0  0  0
   20.5365  -19.8001  -13.2143 O   0  0  0  0  0  0  0  0  0  0  0  0
  2  1  1  0
  3  2  2  0
  4  2  1  0
  5  4  1  0
  6  8  1  0
  6  5  1  0
  6  7  1  6
  8  9  2  0
 10 11  1  0
 10  8  1  0
 11 12  1  1
 12 13  1  0
 13 21  1  0
 14 15  1  0
 14 13  2  0
 15 16  1  0
 16 21  2  0
 16 17  1  0
 17 18  2  0
 18 19  1  0
 20 19  2  0
 21 20  1  0
 22 11  1  0
 23 22  2  0
 25 24  1  6
 26 25  1  0
 27 25  1  0
 28 27  1  1
 28 29  1  0
 29 22  1  0
 30 31  1  0
 30 28  1  0
 32 30  2  0
M  END
$$$$
