QWL.pdb
     RDKit          3D

 32 33  0  0  1  0  0  0  0  0999 V2000
   12.2950  -22.9982    2.4551 N   0  0  0  0  0  0  0  0  0  0  0  0
   13.3228  -23.5196    1.6094 C   0  0  0  0  0  0  0  0  0  0  0  0
   12.9927  -24.4122    0.8150 O   0  0  0  0  0  0  0  0  0  0  0  0
   14.6786  -22.9809    1.7319 C   0  0  0  0  0  0  0  0  0  0  0  0
   14.9193  -21.9629    2.7803 C   0  0  0  0  0  0  0  0  0  0  0  0
   15.2802  -20.5795    2.3233 C   0  0  2  0  0  0  0  0  0  0  0  0
   15.2872  -20.3694    0.9296 N   0  0  0  0  0  0  0  0  0  0  0  0
   16.5792  -20.2553    3.0177 C   0  0  0  0  0  0  0  0  0  0  0  0
   17.4967  -21.0741    2.7849 O   0  0  0  0  0  0  0  0  0  0  0  0
   16.7719  -19.1398    3.8570 N   0  0  0  0  0  0  0  0  0  0  0  0
   17.9345  -18.7792    4.5908 C   0  0  1  0  0  0  0  0  0  0  0  0
   18.0619  -17.3484    4.9666 C   0  0  0  0  0  0  0  0  0  0  0  0
   18.3168  -16.4220    3.8394 C   0  0  0  0  0  0  0  0  0  0  0  0
   17.5374  -15.4297    3.3485 C   0  0  0  0  0  0  0  0  0  0  0  0
   18.1960  -14.8796    2.3081 N   0  0  0  0  0  0  0  0  0  0  0  0
   19.3844  -15.4989    2.1195 C   0  0  0  0  0  0  0  0  0  0  0  0
   20.3999  -15.3145    1.2072 C   0  0  0  0  0  0  0  0  0  0  0  0
   21.5366  -16.1117    1.2392 C   0  0  0  0  0  0  0  0  0  0  0  0
   21.6420  -17.0935    2.1948 C   0  0  0  0  0  0  0  0  0  0  0  0
   20.6122  -17.2542    3.0917 C   0  0  0  0  0  0  0  0  0  0  0  0
   19.4648  -16.4688    3.0797 C   0  0  0  0  0  0  0  0  0  0  0  0
   18.2184  -19.6407    5.7941 C   0  0  0  0  0  0  0  0  0  0  0  0
   17.3332  -20.1778    6.4998 O   0  0  0  0  0  0  0  0  0  0  0  0
   20.8300  -24.0296    5.6167 C   0  0  0  0  0  0  0  0  0  0  0  0
   19.7450  -23.0158    6.1102 C   0  0  1  0  0  0  0  0  0  0  0  0
   18.8437  -23.8638    6.9698 C   0  0  0  0  0  0  0  0  0  0  0  0
   20.5167  -21.9635    6.8002 C   0  0  0  0  0  0  0  0  0  0  0  0
   19.8300  -20.7836    7.3682 C   0  0  2  0  0  0  0  0  0  0  0  0
   19.5469  -19.8984    6.2021 N   0  0  0  0  0  0  0  0  0  0  0  0
   20.5508  -19.9366    8.3112 C   0  0  0  0  0  0  0  0  0  0  0  0
   20.7108  -20.2665    9.6749 O   0  0  0  0  0  0  0  0  0  0  0  0
   21.0836  -18.8477    7.9878 O   0  0  0  0  0  0  0  0  0  0  0  0
  2  1  1  0
  3  2  2  0
  4  2  1  0
  5  4  1  0
  6  8  1  0
  6  5  1  0
  6  7  1  6
  8  9  2  0
 10 11  1  0
 10  8  1  0
 11 12  1  1
 12 13  1  0
 13 21  1  0
 14 15  1  0
 14 13  2  0
 15 16  1  0
 16 21  2  0
 16 17  1  0
 17 18  2  0
 18 19  1  0
 20 19  2  0
 21 20  1  0
 22 11  1  0
 23 22  2  0
 25 24  1  1
 26 25  1  0
 27 25  1  0
 28 27  1  6
 28 29  1  0
 29 22  1  0
 30 31  1  0
 30 28  1  0
 32 30  2  0
M  END
$$$$
