QWL.pdb
     RDKit          3D

 32 33  0  0  1  0  0  0  0  0999 V2000
   26.4912  -17.2809  -15.1745 N   0  0  0  0  0  0  0  0  0  0  0  0
   27.7189  -17.5437  -15.8580 C   0  0  0  0  0  0  0  0  0  0  0  0
   28.2599  -16.5823  -16.4234 O   0  0  0  0  0  0  0  0  0  0  0  0
   28.2520  -18.9072  -15.8524 C   0  0  0  0  0  0  0  0  0  0  0  0
   27.5848  -19.9002  -14.9793 C   0  0  0  0  0  0  0  0  0  0  0  0
   28.3249  -20.3390  -13.7493 C   0  0  2  0  0  0  0  0  0  0  0  0
   29.3849  -21.2451  -13.9541 N   0  0  0  0  0  0  0  0  0  0  0  0
   27.2615  -20.8164  -12.7921 C   0  0  0  0  0  0  0  0  0  0  0  0
   27.2151  -22.0607  -12.6653 O   0  0  0  0  0  0  0  0  0  0  0  0
   26.3866  -19.9632  -12.0904 N   0  0  0  0  0  0  0  0  0  0  0  0
   25.2218  -20.3085  -11.3525 C   0  0  1  0  0  0  0  0  0  0  0  0
   24.9232  -19.4754  -10.1603 C   0  0  0  0  0  0  0  0  0  0  0  0
   26.0595  -19.2755   -9.2316 C   0  0  0  0  0  0  0  0  0  0  0  0
   26.9757  -18.2793   -9.1953 C   0  0  0  0  0  0  0  0  0  0  0  0
   27.8192  -18.5468   -8.1775 N   0  0  0  0  0  0  0  0  0  0  0  0
   27.4638  -19.6962   -7.5580 C   0  0  0  0  0  0  0  0  0  0  0  0
   27.9944  -20.3845   -6.4892 C   0  0  0  0  0  0  0  0  0  0  0  0
   27.4180  -21.5695   -6.0509 C   0  0  0  0  0  0  0  0  0  0  0  0
   26.3058  -22.0545   -6.6960 C   0  0  0  0  0  0  0  0  0  0  0  0
   25.7990  -21.3459   -7.7598 C   0  0  0  0  0  0  0  0  0  0  0  0
   26.3583  -20.1577   -8.2169 C   0  0  0  0  0  0  0  0  0  0  0  0
   23.9715  -20.4688  -12.1782 C   0  0  0  0  0  0  0  0  0  0  0  0
   23.6753  -19.7422  -13.1550 O   0  0  0  0  0  0  0  0  0  0  0  0
   22.3323  -25.3241  -13.7641 C   0  0  0  0  0  0  0  0  0  0  0  0
   22.7532  -23.8175  -13.7995 C   0  0  1  0  0  0  0  0  0  0  0  0
   22.7426  -23.4890  -15.2700 C   0  0  0  0  0  0  0  0  0  0  0  0
   21.7440  -23.1375  -12.9640 C   0  0  0  0  0  0  0  0  0  0  0  0
   21.8247  -21.6794  -12.7322 C   0  0  2  0  0  0  0  0  0  0  0  0
   23.0355  -21.4859  -11.8835 N   0  0  0  0  0  0  0  0  0  0  0  0
   20.7486  -21.0230  -11.9993 C   0  0  0  0  0  0  0  0  0  0  0  0
   20.8120  -20.7568  -10.6139 O   0  0  0  0  0  0  0  0  0  0  0  0
   19.6810  -20.6450  -12.5391 O   0  0  0  0  0  0  0  0  0  0  0  0
  2  1  1  0
  3  2  2  0
  4  2  1  0
  5  4  1  0
  6  8  1  0
  6  5  1  0
  6  7  1  6
  8  9  2  0
 10 11  1  0
 10  8  1  0
 11 12  1  1
 12 13  1  0
 13 21  1  0
 14 15  1  0
 14 13  2  0
 15 16  1  0
 16 21  2  0
 16 17  1  0
 17 18  2  0
 18 19  1  0
 20 19  2  0
 21 20  1  0
 22 11  1  0
 23 22  2  0
 25 24  1  6
 26 25  1  0
 27 25  1  0
 28 27  1  1
 28 29  1  0
 29 22  1  0
 30 31  1  0
 30 28  1  0
 32 30  2  0
M  END
$$$$
