YCV.pdb
     RDKit          3D

 26 26  0  0  1  0  0  0  0  0999 V2000
    3.8027  -22.6548   22.5373 O   0  0  0  0  0  0  0  0  0  0  0  0
    4.9219  -21.8408   22.6119 C   0  0  0  0  0  0  0  0  0  0  0  0
    4.7818  -20.6036   23.1640 C   0  0  0  0  0  0  0  0  0  0  0  0
    5.8903  -19.7820   23.2442 C   0  0  0  0  0  0  0  0  0  0  0  0
    7.1130  -20.2084   22.7740 C   0  0  0  0  0  0  0  0  0  0  0  0
    8.2779  -19.2949   22.8793 C   0  0  0  0  0  0  0  0  0  0  0  0
    7.9309  -18.0046   22.1720 C   0  0  2  0  0  0  0  0  0  0  0  0
    8.4413  -17.9958   20.8207 N   0  0  0  0  0  0  0  0  0  0  0  0
    8.4094  -16.8180   22.9080 C   0  0  0  0  0  0  0  0  0  0  0  0
    9.5010  -16.2945   22.6074 O   0  0  0  0  0  0  0  0  0  0  0  0
    7.2518  -21.4599   22.2162 C   0  0  0  0  0  0  0  0  0  0  0  0
    6.1315  -22.2774   22.1404 C   0  0  0  0  0  0  0  0  0  0  0  0
    7.6247  -16.2861   23.9478 N   0  0  0  0  0  0  0  0  0  0  0  0
    8.0951  -15.2695   24.8555 C   0  0  1  0  0  0  0  0  0  0  0  0
    6.8814  -14.6196   25.5010 C   0  0  0  0  0  0  0  0  0  0  0  0
    6.0874  -15.7495   26.6523 S   0  0  0  0  0  0  0  0  0  0  0  0
    8.9734  -15.8208   25.9139 C   0  0  0  0  0  0  0  0  0  0  0  0
    9.1177  -17.0645   26.0306 O   0  0  0  0  0  0  0  0  0  0  0  0
    9.5195  -14.0354   29.5008 C   0  0  0  0  0  0  0  0  0  0  0  0
   10.8012  -14.2562   28.7615 C   0  0  2  0  0  0  0  0  0  0  0  0
   11.2665  -13.0124   28.0375 C   0  0  0  0  0  0  0  0  0  0  0  0
   10.6211  -15.4254   27.7895 C   0  0  2  0  0  0  0  0  0  0  0  0
    9.6598  -14.9734   26.8044 N   0  0  0  0  0  0  0  0  0  0  0  0
   10.0614  -16.5880   28.4947 C   0  0  0  0  0  0  0  0  0  0  0  0
   10.8866  -17.4284   29.2061 O   0  0  0  0  0  0  0  0  0  0  0  0
    8.8352  -16.8187   28.4520 O   0  0  0  0  0  0  0  0  0  0  0  0
  2  3  2  0
  2  1  1  0
  4  3  1  0
  5  4  2  0
  6  5  1  0
  7  6  1  0
  7  9  1  0
  7  8  1  6
  9 13  1  0
  9 10  2  0
 11  5  1  0
 11 12  2  0
 12  2  1  0
 13 14  1  0
 14 15  1  1
 15 16  1  0
 17 14  1  0
 17 18  2  0
 20 19  1  6
 20 22  1  0
 20 21  1  0
 22 23  1  6
 23 17  1  0
 24 22  1  0
 25 24  1  0
 26 24  2  0
M  END
$$$$
