YCV.pdb
     RDKit          3D

 26 26  0  0  1  0  0  0  0  0999 V2000
   13.0936  -20.6114   17.2189 O   0  0  0  0  0  0  0  0  0  0  0  0
   12.4663  -19.5959   17.9232 C   0  0  0  0  0  0  0  0  0  0  0  0
   12.4540  -19.6688   19.2832 C   0  0  0  0  0  0  0  0  0  0  0  0
   11.8317  -18.6624   19.9974 C   0  0  0  0  0  0  0  0  0  0  0  0
   11.2357  -17.6061   19.3438 C   0  0  0  0  0  0  0  0  0  0  0  0
   10.5783  -16.5464   20.1485 C   0  0  0  0  0  0  0  0  0  0  0  0
    9.2447  -17.0753   20.6255 C   0  0  2  0  0  0  0  0  0  0  0  0
    8.2762  -17.0933   19.5539 N   0  0  0  0  0  0  0  0  0  0  0  0
    8.7211  -16.3139   21.7764 C   0  0  0  0  0  0  0  0  0  0  0  0
    8.1630  -15.2130   21.5954 O   0  0  0  0  0  0  0  0  0  0  0  0
   11.2496  -17.5349   17.9686 C   0  0  0  0  0  0  0  0  0  0  0  0
   11.8776  -18.5515   17.2607 C   0  0  0  0  0  0  0  0  0  0  0  0
    8.8577  -16.8404   23.0740 N   0  0  0  0  0  0  0  0  0  0  0  0
    8.3328  -16.1941   24.2511 C   0  0  1  0  0  0  0  0  0  0  0  0
    7.0658  -16.9272   24.6627 C   0  0  0  0  0  0  0  0  0  0  0  0
    6.2316  -16.0614   25.9996 S   0  0  0  0  0  0  0  0  0  0  0  0
    9.2935  -16.2100   25.3791 C   0  0  0  0  0  0  0  0  0  0  0  0
   10.0422  -17.2045   25.5571 O   0  0  0  0  0  0  0  0  0  0  0  0
    9.5779  -12.7229   27.4869 C   0  0  0  0  0  0  0  0  0  0  0  0
    9.6999  -13.9607   28.3182 C   0  0  2  0  0  0  0  0  0  0  0  0
   10.5739  -13.7501   29.5345 C   0  0  0  0  0  0  0  0  0  0  0  0
   10.2361  -15.0975   27.4439 C   0  0  2  0  0  0  0  0  0  0  0  0
    9.3892  -15.1229   26.2687 N   0  0  0  0  0  0  0  0  0  0  0  0
   10.1042  -16.3820   28.1473 C   0  0  0  0  0  0  0  0  0  0  0  0
   11.1796  -16.9163   28.8191 O   0  0  0  0  0  0  0  0  0  0  0  0
    9.0164  -16.9946   28.1388 O   0  0  0  0  0  0  0  0  0  0  0  0
  2  3  2  0
  2  1  1  0
  4  3  1  0
  5  4  2  0
  6  5  1  0
  7  6  1  0
  7  9  1  0
  7  8  1  6
  9 13  1  0
  9 10  2  0
 11  5  1  0
 11 12  2  0
 12  2  1  0
 13 14  1  0
 14 15  1  1
 15 16  1  0
 17 14  1  0
 17 18  2  0
 20 19  1  6
 20 22  1  0
 20 21  1  0
 22 23  1  6
 23 17  1  0
 24 22  1  0
 25 24  1  0
 26 24  2  0
M  END
$$$$
