YCV.pdb
     RDKit          3D

 26 26  0  0  1  0  0  0  0  0999 V2000
    8.7631  -12.7473   15.9779 O   0  0  0  0  0  0  0  0  0  0  0  0
    8.3538  -13.1613   17.2356 C   0  0  0  0  0  0  0  0  0  0  0  0
    9.3103  -13.5004   18.1440 C   0  0  0  0  0  0  0  0  0  0  0  0
    8.9153  -13.9150   19.4019 C   0  0  0  0  0  0  0  0  0  0  0  0
    7.5786  -13.9831   19.7287 C   0  0  0  0  0  0  0  0  0  0  0  0
    7.1974  -14.4334   21.0906 C   0  0  0  0  0  0  0  0  0  0  0  0
    7.1972  -15.9451   21.1046 C   0  0  2  0  0  0  0  0  0  0  0  0
    6.0397  -16.4739   20.4213 N   0  0  0  0  0  0  0  0  0  0  0  0
    7.2775  -16.4909   22.4736 C   0  0  0  0  0  0  0  0  0  0  0  0
    6.2438  -16.6046   23.1626 O   0  0  0  0  0  0  0  0  0  0  0  0
    6.6136  -13.6396   18.8082 C   0  0  0  0  0  0  0  0  0  0  0  0
    7.0214  -13.2244   17.5471 C   0  0  0  0  0  0  0  0  0  0  0  0
    8.5268  -16.8798   22.9911 N   0  0  0  0  0  0  0  0  0  0  0  0
    8.7376  -17.2316   24.3733 C   0  0  1  0  0  0  0  0  0  0  0  0
    9.5680  -18.5049   24.4114 C   0  0  0  0  0  0  0  0  0  0  0  0
    9.9821  -18.9480   26.1040 S   0  0  0  0  0  0  0  0  0  0  0  0
    9.4429  -16.1672   25.1251 C   0  0  0  0  0  0  0  0  0  0  0  0
   10.4622  -15.6173   24.6353 O   0  0  0  0  0  0  0  0  0  0  0  0
    7.6134  -13.3423   26.3727 C   0  0  0  0  0  0  0  0  0  0  0  0
    8.3670  -13.7923   27.5841 C   0  0  2  0  0  0  0  0  0  0  0  0
    8.8187  -12.6314   28.4419 C   0  0  0  0  0  0  0  0  0  0  0  0
    9.5577  -14.6471   27.1414 C   0  0  2  0  0  0  0  0  0  0  0  0
    8.9925  -15.7510   26.3925 N   0  0  0  0  0  0  0  0  0  0  0  0
   10.2588  -15.1853   28.3165 C   0  0  0  0  0  0  0  0  0  0  0  0
   11.2460  -14.4490   28.9301 O   0  0  0  0  0  0  0  0  0  0  0  0
    9.9623  -16.3125   28.7638 O   0  0  0  0  0  0  0  0  0  0  0  0
  2  3  2  0
  2  1  1  0
  4  3  1  0
  5  4  2  0
  6  5  1  0
  7  6  1  0
  7  9  1  0
  7  8  1  1
  9 13  1  0
  9 10  2  0
 11  5  1  0
 11 12  2  0
 12  2  1  0
 13 14  1  0
 14 15  1  6
 15 16  1  0
 17 14  1  0
 17 18  2  0
 20 19  1  6
 20 22  1  0
 20 21  1  0
 22 23  1  6
 23 17  1  0
 24 22  1  0
 25 24  1  0
 26 24  2  0
M  END
$$$$
