YCV.pdb
     RDKit          3D

 26 26  0  0  1  0  0  0  0  0999 V2000
    5.6745  -10.6827   26.7653 O   0  0  0  0  0  0  0  0  0  0  0  0
    6.1438  -11.9789   26.6232 C   0  0  0  0  0  0  0  0  0  0  0  0
    7.4423  -12.1558   26.2523 C   0  0  0  0  0  0  0  0  0  0  0  0
    7.9227  -13.4436   26.1071 C   0  0  0  0  0  0  0  0  0  0  0  0
    7.1018  -14.5265   26.3338 C   0  0  0  0  0  0  0  0  0  0  0  0
    7.6573  -15.8926   26.1667 C   0  0  0  0  0  0  0  0  0  0  0  0
    6.9475  -16.5517   25.0059 C   0  0  2  0  0  0  0  0  0  0  0  0
    6.3097  -17.7819   25.4139 N   0  0  0  0  0  0  0  0  0  0  0  0
    7.8512  -16.7970   23.8651 C   0  0  0  0  0  0  0  0  0  0  0  0
    8.4932  -17.8644   23.7948 O   0  0  0  0  0  0  0  0  0  0  0  0
    5.7891  -14.3447   26.7087 C   0  0  0  0  0  0  0  0  0  0  0  0
    5.3166  -13.0465   26.8517 C   0  0  0  0  0  0  0  0  0  0  0  0
    7.9805  -15.8188   22.8621 N   0  0  0  0  0  0  0  0  0  0  0  0
    8.8852  -15.9422   21.7463 C   0  0  1  0  0  0  0  0  0  0  0  0
    8.5448  -14.8504   20.7440 C   0  0  0  0  0  0  0  0  0  0  0  0
    6.8372  -14.9923   20.1991 S   0  0  0  0  0  0  0  0  0  0  0  0
   10.3037  -15.8060   22.1523 C   0  0  0  0  0  0  0  0  0  0  0  0
   10.6079  -15.1289   23.1673 O   0  0  0  0  0  0  0  0  0  0  0  0
   11.3925  -17.4066   24.0489 C   0  0  0  0  0  0  0  0  0  0  0  0
   12.2737  -17.9574   22.9727 C   0  0  2  0  0  0  0  0  0  0  0  0
   13.5343  -18.5818   23.5282 C   0  0  0  0  0  0  0  0  0  0  0  0
   12.6033  -16.8409   21.9782 C   0  0  2  0  0  0  0  0  0  0  0  0
   11.3333  -16.4253   21.4183 N   0  0  0  0  0  0  0  0  0  0  0  0
   13.4479  -17.3625   20.8935 C   0  0  0  0  0  0  0  0  0  0  0  0
   14.7192  -16.8696   20.7088 O   0  0  0  0  0  0  0  0  0  0  0  0
   13.0165  -18.2550   20.1346 O   0  0  0  0  0  0  0  0  0  0  0  0
  2  3  2  0
  2  1  1  0
  4  3  1  0
  5  4  2  0
  6  5  1  0
  7  6  1  0
  7  9  1  0
  7  8  1  1
  9 13  1  0
  9 10  2  0
 11  5  1  0
 11 12  2  0
 12  2  1  0
 13 14  1  0
 14 15  1  6
 15 16  1  0
 17 14  1  0
 17 18  2  0
 20 19  1  1
 20 22  1  0
 20 21  1  0
 22 23  1  6
 23 17  1  0
 24 22  1  0
 25 24  1  0
 26 24  2  0
M  END
$$$$
