YCV.pdb
     RDKit          3D

 26 26  0  0  1  0  0  0  0  0999 V2000
    8.1027  -12.8212   15.7630 O   0  0  0  0  0  0  0  0  0  0  0  0
    7.7361  -13.3607   16.9857 C   0  0  0  0  0  0  0  0  0  0  0  0
    8.2815  -12.8269   18.1139 C   0  0  0  0  0  0  0  0  0  0  0  0
    7.9241  -13.3560   19.3397 C   0  0  0  0  0  0  0  0  0  0  0  0
    7.0328  -14.4037   19.4167 C   0  0  0  0  0  0  0  0  0  0  0  0
    6.6759  -14.9423   20.7528 C   0  0  0  0  0  0  0  0  0  0  0  0
    7.5129  -16.1762   21.0028 C   0  0  2  0  0  0  0  0  0  0  0  0
    7.1131  -17.2627   20.1389 N   0  0  0  0  0  0  0  0  0  0  0  0
    7.4710  -16.6028   22.4152 C   0  0  0  0  0  0  0  0  0  0  0  0
    6.5825  -17.3870   22.8049 O   0  0  0  0  0  0  0  0  0  0  0  0
    6.4829  -14.9416   18.2744 C   0  0  0  0  0  0  0  0  0  0  0  0
    6.8488  -14.4024   17.0478 C   0  0  0  0  0  0  0  0  0  0  0  0
    8.4393  -16.1178   23.3133 N   0  0  0  0  0  0  0  0  0  0  0  0
    8.5075  -16.5167   24.6972 C   0  0  1  0  0  0  0  0  0  0  0  0
    8.9850  -17.9596   24.7460 C   0  0  0  0  0  0  0  0  0  0  0  0
   10.6226  -18.1162   24.0203 S   0  0  0  0  0  0  0  0  0  0  0  0
    9.4347  -15.6696   25.4834 C   0  0  0  0  0  0  0  0  0  0  0  0
   10.5591  -15.3593   25.0136 O   0  0  0  0  0  0  0  0  0  0  0  0
    7.7963  -13.6497   28.6801 C   0  0  0  0  0  0  0  0  0  0  0  0
    8.9741  -13.1255   27.9212 C   0  0  2  0  0  0  0  0  0  0  0  0
    8.5630  -12.3492   26.6900 C   0  0  0  0  0  0  0  0  0  0  0  0
    9.8918  -14.2951   27.5550 C   0  0  2  0  0  0  0  0  0  0  0  0
    9.0818  -15.1973   26.7620 N   0  0  0  0  0  0  0  0  0  0  0  0
   10.3259  -14.9979   28.7715 C   0  0  0  0  0  0  0  0  0  0  0  0
   11.2999  -14.4517   29.5754 O   0  0  0  0  0  0  0  0  0  0  0  0
    9.8133  -16.0932   29.0814 O   0  0  0  0  0  0  0  0  0  0  0  0
  2  3  2  0
  2  1  1  0
  4  3  1  0
  5  4  2  0
  6  5  1  0
  7  6  1  0
  7  9  1  0
  7  8  1  6
  9 13  1  0
  9 10  2  0
 11  5  1  0
 11 12  2  0
 12  2  1  0
 13 14  1  0
 14 15  1  6
 15 16  1  0
 17 14  1  0
 17 18  2  0
 20 19  1  6
 20 22  1  0
 20 21  1  0
 22 23  1  6
 23 17  1  0
 24 22  1  0
 25 24  1  0
 26 24  2  0
M  END
$$$$
