YCV.pdb
     RDKit          3D

 26 26  0  0  1  0  0  0  0  0999 V2000
   11.1374  -22.2642    6.9397 O   0  0  0  0  0  0  0  0  0  0  0  0
   11.0217  -22.2813    8.3206 C   0  0  0  0  0  0  0  0  0  0  0  0
   10.2806  -21.3060    8.9161 C   0  0  0  0  0  0  0  0  0  0  0  0
   10.1573  -21.3118   10.2927 C   0  0  0  0  0  0  0  0  0  0  0  0
   10.7732  -22.2868   11.0464 C   0  0  0  0  0  0  0  0  0  0  0  0
   10.6154  -22.2565   12.5219 C   0  0  0  0  0  0  0  0  0  0  0  0
    9.4700  -23.1711   12.8925 C   0  0  2  0  0  0  0  0  0  0  0  0
    8.1992  -22.5948   12.5190 N   0  0  0  0  0  0  0  0  0  0  0  0
    9.4736  -23.5174   14.3273 C   0  0  0  0  0  0  0  0  0  0  0  0
    8.9955  -22.7239   15.1627 O   0  0  0  0  0  0  0  0  0  0  0  0
   11.5220  -23.2718   10.4417 C   0  0  0  0  0  0  0  0  0  0  0  0
   11.6394  -23.2566    9.0578 C   0  0  0  0  0  0  0  0  0  0  0  0
   10.0195  -24.7464   14.7409 N   0  0  0  0  0  0  0  0  0  0  0  0
   10.0827  -25.1617   16.1202 C   0  0  1  0  0  0  0  0  0  0  0  0
    9.1876  -26.3800   16.2842 C   0  0  0  0  0  0  0  0  0  0  0  0
    9.1516  -26.9210   17.9985 S   0  0  0  0  0  0  0  0  0  0  0  0
   11.4600  -25.5084   16.5424 C   0  0  0  0  0  0  0  0  0  0  0  0
   12.2380  -26.0900   15.7438 O   0  0  0  0  0  0  0  0  0  0  0  0
   13.2297  -23.1215   19.1179 C   0  0  0  0  0  0  0  0  0  0  0  0
   13.4632  -24.5424   19.5233 C   0  0  2  0  0  0  0  0  0  0  0  0
   14.8276  -24.7444   20.1439 C   0  0  0  0  0  0  0  0  0  0  0  0
   13.2731  -25.4469   18.3026 C   0  0  2  0  0  0  0  0  0  0  0  0
   11.9249  -25.1978   17.8346 N   0  0  0  0  0  0  0  0  0  0  0  0
   13.3811  -26.8591   18.6975 C   0  0  0  0  0  0  0  0  0  0  0  0
   12.3097  -27.4991   19.2771 O   0  0  0  0  0  0  0  0  0  0  0  0
   14.4448  -27.4849   18.5092 O   0  0  0  0  0  0  0  0  0  0  0  0
  2  3  2  0
  2  1  1  0
  4  3  1  0
  5  4  2  0
  6  5  1  0
  7  6  1  0
  7  9  1  0
  7  8  1  1
  9 13  1  0
  9 10  2  0
 11  5  1  0
 11 12  2  0
 12  2  1  0
 13 14  1  0
 14 15  1  6
 15 16  1  0
 17 14  1  0
 17 18  2  0
 20 19  1  6
 20 22  1  0
 20 21  1  0
 22 23  1  1
 23 17  1  0
 24 22  1  0
 25 24  1  0
 26 24  2  0
M  END
$$$$
