YCV.pdb
     RDKit          3D

 26 26  0  0  1  0  0  0  0  0999 V2000
    9.0674  -12.8687   17.1760 O   0  0  0  0  0  0  0  0  0  0  0  0
    8.5420  -13.3443   18.3670 C   0  0  0  0  0  0  0  0  0  0  0  0
    7.2253  -13.1128   18.6271 C   0  0  0  0  0  0  0  0  0  0  0  0
    6.6891  -13.5819   19.8114 C   0  0  0  0  0  0  0  0  0  0  0  0
    7.4736  -14.2705   20.7106 C   0  0  0  0  0  0  0  0  0  0  0  0
    6.8584  -14.7571   21.9705 C   0  0  0  0  0  0  0  0  0  0  0  0
    6.8404  -16.2684   21.9336 C   0  0  2  0  0  0  0  0  0  0  0  0
    5.8372  -16.7568   21.0163 N   0  0  0  0  0  0  0  0  0  0  0  0
    6.6407  -16.8574   23.2722 C   0  0  0  0  0  0  0  0  0  0  0  0
    5.5229  -16.7941   23.8222 O   0  0  0  0  0  0  0  0  0  0  0  0
    8.8047  -14.5032   20.4450 C   0  0  0  0  0  0  0  0  0  0  0  0
    9.3334  -14.0275   19.2520 C   0  0  0  0  0  0  0  0  0  0  0  0
    7.7197  -17.4882   23.9184 N   0  0  0  0  0  0  0  0  0  0  0  0
    7.7943  -17.6650   25.3473 C   0  0  1  0  0  0  0  0  0  0  0  0
    7.8397  -19.1579   25.6330 C   0  0  0  0  0  0  0  0  0  0  0  0
    8.0563  -19.4663   27.3910 S   0  0  0  0  0  0  0  0  0  0  0  0
    8.9924  -17.0199   25.9338 C   0  0  0  0  0  0  0  0  0  0  0  0
   10.1255  -17.2083   25.4222 O   0  0  0  0  0  0  0  0  0  0  0  0
    9.3648  -13.4245   26.8121 C   0  0  0  0  0  0  0  0  0  0  0  0
    9.6079  -14.1671   28.0878 C   0  0  2  0  0  0  0  0  0  0  0  0
   10.6429  -13.4886   28.9574 C   0  0  0  0  0  0  0  0  0  0  0  0
   10.0214  -15.6038   27.7574 C   0  0  2  0  0  0  0  0  0  0  0  0
    8.8908  -16.1894   27.0662 N   0  0  0  0  0  0  0  0  0  0  0  0
   10.2589  -16.3596   28.9961 C   0  0  0  0  0  0  0  0  0  0  0  0
   11.5184  -16.4039   29.5485 O   0  0  0  0  0  0  0  0  0  0  0  0
    9.3198  -16.9649   29.5531 O   0  0  0  0  0  0  0  0  0  0  0  0
  2  3  2  0
  2  1  1  0
  4  3  1  0
  5  4  2  0
  6  5  1  0
  7  6  1  0
  7  9  1  0
  7  8  1  6
  9 13  1  0
  9 10  2  0
 11  5  1  0
 11 12  2  0
 12  2  1  0
 13 14  1  0
 14 15  1  6
 15 16  1  0
 17 14  1  0
 17 18  2  0
 20 19  1  6
 20 22  1  0
 20 21  1  0
 22 23  1  1
 23 17  1  0
 24 22  1  0
 25 24  1  0
 26 24  2  0
M  END
$$$$
