YCV.pdb
     RDKit          3D

 26 26  0  0  1  0  0  0  0  0999 V2000
    9.0629  -12.9147   17.0644 O   0  0  0  0  0  0  0  0  0  0  0  0
    8.4869  -13.3093   18.2616 C   0  0  0  0  0  0  0  0  0  0  0  0
    9.3063  -13.7597   19.2519 C   0  0  0  0  0  0  0  0  0  0  0  0
    8.7445  -14.1563   20.4508 C   0  0  0  0  0  0  0  0  0  0  0  0
    7.3809  -14.0963   20.6384 C   0  0  0  0  0  0  0  0  0  0  0  0
    6.8183  -14.5318   21.9409 C   0  0  0  0  0  0  0  0  0  0  0  0
    6.8135  -16.0433   21.9709 C   0  0  2  0  0  0  0  0  0  0  0  0
    5.7908  -16.5798   21.1032 N   0  0  0  0  0  0  0  0  0  0  0  0
    6.6549  -16.5743   23.3388 C   0  0  0  0  0  0  0  0  0  0  0  0
    5.5195  -16.6593   23.8484 O   0  0  0  0  0  0  0  0  0  0  0  0
    6.5547  -13.6404   19.6353 C   0  0  0  0  0  0  0  0  0  0  0  0
    7.1297  -13.2444   18.4346 C   0  0  0  0  0  0  0  0  0  0  0  0
    7.7930  -16.9818   24.0589 N   0  0  0  0  0  0  0  0  0  0  0  0
    7.7612  -17.3412   25.4549 C   0  0  1  0  0  0  0  0  0  0  0  0
    7.6567  -18.8554   25.5466 C   0  0  0  0  0  0  0  0  0  0  0  0
    7.6961  -19.3965   27.2608 S   0  0  0  0  0  0  0  0  0  0  0  0
    8.9719  -16.8912   26.1809 C   0  0  0  0  0  0  0  0  0  0  0  0
   10.1149  -17.1669   25.7349 O   0  0  0  0  0  0  0  0  0  0  0  0
    8.9259  -13.3899   27.8044 C   0  0  0  0  0  0  0  0  0  0  0  0
    9.4595  -14.3553   28.8150 C   0  0  2  0  0  0  0  0  0  0  0  0
   10.5199  -13.7340   29.6966 C   0  0  0  0  0  0  0  0  0  0  0  0
   10.0003  -15.5897   28.0882 C   0  0  2  0  0  0  0  0  0  0  0  0
    8.8716  -16.1521   27.3751 N   0  0  0  0  0  0  0  0  0  0  0  0
   10.4824  -16.5797   29.0627 C   0  0  0  0  0  0  0  0  0  0  0  0
   11.7770  -16.5212   29.5253 O   0  0  0  0  0  0  0  0  0  0  0  0
    9.7203  -17.4783   29.4754 O   0  0  0  0  0  0  0  0  0  0  0  0
  2  3  2  0
  2  1  1  0
  4  3  1  0
  5  4  2  0
  6  5  1  0
  7  6  1  0
  7  9  1  0
  7  8  1  6
  9 13  1  0
  9 10  2  0
 11  5  1  0
 11 12  2  0
 12  2  1  0
 13 14  1  0
 14 15  1  6
 15 16  1  0
 17 14  1  0
 17 18  2  0
 20 19  1  6
 20 22  1  0
 20 21  1  0
 22 23  1  1
 23 17  1  0
 24 22  1  0
 25 24  1  0
 26 24  2  0
M  END
$$$$
