YCV.pdb
     RDKit          3D

 26 26  0  0  1  0  0  0  0  0999 V2000
    8.4200  -12.3568   16.9147 O   0  0  0  0  0  0  0  0  0  0  0  0
    8.2043  -12.9295   18.1581 C   0  0  0  0  0  0  0  0  0  0  0  0
    9.2896  -13.3057   18.8900 C   0  0  0  0  0  0  0  0  0  0  0  0
    9.0881  -13.8781   20.1318 C   0  0  0  0  0  0  0  0  0  0  0  0
    7.8125  -14.0639   20.6181 C   0  0  0  0  0  0  0  0  0  0  0  0
    7.6403  -14.6822   21.9562 C   0  0  0  0  0  0  0  0  0  0  0  0
    8.0833  -16.1251   21.8696 C   0  0  2  0  0  0  0  0  0  0  0  0
    7.1952  -16.8948   21.0297 N   0  0  0  0  0  0  0  0  0  0  0  0
    8.2030  -16.7535   23.1998 C   0  0  0  0  0  0  0  0  0  0  0  0
    7.1776  -17.0415   23.8493 O   0  0  0  0  0  0  0  0  0  0  0  0
    6.7169  -13.6827   19.8759 C   0  0  0  0  0  0  0  0  0  0  0  0
    6.9307  -13.1084   18.6294 C   0  0  0  0  0  0  0  0  0  0  0  0
    9.4801  -17.0230   23.7250 N   0  0  0  0  0  0  0  0  0  0  0  0
    9.6969  -17.5642   25.0437 C   0  0  1  0  0  0  0  0  0  0  0  0
   10.3986  -18.9045   24.8907 C   0  0  0  0  0  0  0  0  0  0  0  0
   10.8274  -19.5890   26.4970 S   0  0  0  0  0  0  0  0  0  0  0  0
   10.5258  -16.6738   25.8897 C   0  0  0  0  0  0  0  0  0  0  0  0
   11.6425  -16.2696   25.4763 O   0  0  0  0  0  0  0  0  0  0  0  0
    8.7876  -14.5749   28.9532 C   0  0  0  0  0  0  0  0  0  0  0  0
   10.1348  -14.2347   28.3988 C   0  0  2  0  0  0  0  0  0  0  0  0
   10.0433  -13.3719   27.1600 C   0  0  0  0  0  0  0  0  0  0  0  0
   10.8982  -15.5308   28.1132 C   0  0  2  0  0  0  0  0  0  0  0  0
   10.0867  -16.2640   27.1631 N   0  0  0  0  0  0  0  0  0  0  0  0
   11.0196  -16.3280   29.3428 C   0  0  0  0  0  0  0  0  0  0  0  0
   11.9281  -15.9701   30.3123 O   0  0  0  0  0  0  0  0  0  0  0  0
   10.2994  -17.3333   29.5138 O   0  0  0  0  0  0  0  0  0  0  0  0
  2  3  2  0
  2  1  1  0
  4  3  1  0
  5  4  2  0
  6  5  1  0
  7  6  1  0
  7  9  1  0
  7  8  1  6
  9 13  1  0
  9 10  2  0
 11  5  1  0
 11 12  2  0
 12  2  1  0
 13 14  1  0
 14 15  1  6
 15 16  1  0
 17 14  1  0
 17 18  2  0
 20 19  1  6
 20 22  1  0
 20 21  1  0
 22 23  1  6
 23 17  1  0
 24 22  1  0
 25 24  1  0
 26 24  2  0
M  END
$$$$
