SAP.pdb
     RDKit          3D

 19 19  0  0  1  0  0  0  0  0999 V2000
   12.3228  -17.1395   15.0373 O   0  0  0  0  0  0  0  0  0  0  0  0
   11.1880  -17.8247   15.4485 C   0  0  0  0  0  0  0  0  0  0  0  0
    9.9231  -17.2507   14.8824 C   0  0  2  0  0  0  0  0  0  0  0  0
   10.2018  -16.5074   13.6947 N   0  0  0  0  0  0  0  0  0  0  0  0
    9.2138  -16.4189   15.9106 C   0  0  0  0  0  0  0  0  0  0  0  0
    9.2987  -15.1649   15.9012 O   0  0  0  0  0  0  0  0  0  0  0  0
    6.6079  -17.1003   18.5625 C   0  0  0  0  0  0  0  0  0  0  0  0
    7.7407  -16.2908   17.9535 C   0  0  2  0  0  0  0  0  0  0  0  0
    8.4272  -17.0225   16.9224 N   0  0  0  0  0  0  0  0  0  0  0  0
    8.6409  -15.7376   18.9650 C   0  0  0  0  0  0  0  0  0  0  0  0
    9.6629  -16.3550   19.3124 O   0  0  0  0  0  0  0  0  0  0  0  0
    8.3765  -14.4622   19.5925 N   0  0  0  0  0  0  0  0  0  0  0  0
    7.3262  -13.5629   19.1711 C   0  0  0  0  0  0  0  0  0  0  0  0
    7.6327  -12.2259   19.8093 C   0  0  0  0  0  0  0  0  0  0  0  0
    8.3682  -12.6322   21.0715 C   0  0  0  0  0  0  0  0  0  0  0  0
    9.0869  -13.8896   20.6922 C   0  0  1  0  0  0  0  0  0  0  0  0
    9.1814  -14.8343   21.8501 C   0  0  0  0  0  0  0  0  0  0  0  0
    8.3169  -15.7159   21.9524 O   0  0  0  0  0  0  0  0  0  0  0  0
   10.1918  -14.7506   22.7928 O   0  0  0  0  0  0  0  0  0  0  0  0
  1  2  1  0
  3  2  1  0
  3  4  1  6
  5  6  2  0
  5  3  1  0
  8  7  1  1
  8  9  1  0
  9  5  1  0
 10  8  1  0
 10 12  1  0
 11 10  2  0
 12 16  1  0
 13 12  1  0
 13 14  1  0
 14 15  1  0
 16 15  1  0
 16 17  1  1
 17 19  1  0
 18 17  2  0
M  END
$$$$
