SAP.pdb
     RDKit          3D

 19 19  0  0  1  0  0  0  0  0999 V2000
   11.8043  -16.1751   21.8200 O   0  0  0  0  0  0  0  0  0  0  0  0
   10.9556  -17.2734   21.8298 C   0  0  0  0  0  0  0  0  0  0  0  0
    9.5941  -16.9631   21.2822 C   0  0  2  0  0  0  0  0  0  0  0  0
    9.7042  -16.2752   20.0351 N   0  0  0  0  0  0  0  0  0  0  0  0
    8.7872  -16.1865   22.2812 C   0  0  0  0  0  0  0  0  0  0  0  0
    8.5882  -14.9540   22.1365 O   0  0  0  0  0  0  0  0  0  0  0  0
    6.6589  -17.1049   25.2799 C   0  0  0  0  0  0  0  0  0  0  0  0
    7.4573  -16.1363   24.4234 C   0  0  2  0  0  0  0  0  0  0  0  0
    8.2258  -16.8198   23.4173 N   0  0  0  0  0  0  0  0  0  0  0  0
    8.2529  -15.2054   25.2234 C   0  0  0  0  0  0  0  0  0  0  0  0
    9.4641  -15.4088   25.4176 O   0  0  0  0  0  0  0  0  0  0  0  0
    7.6635  -14.0241   25.8127 N   0  0  0  0  0  0  0  0  0  0  0  0
    6.3275  -13.5597   25.5143 C   0  0  0  0  0  0  0  0  0  0  0  0
    6.2519  -12.1357   26.0198 C   0  0  0  0  0  0  0  0  0  0  0  0
    7.2405  -12.1488   27.1695 C   0  0  0  0  0  0  0  0  0  0  0  0
    8.2807  -13.1410   26.7514 C   0  0  1  0  0  0  0  0  0  0  0  0
    8.8367  -13.8778   27.9305 C   0  0  0  0  0  0  0  0  0  0  0  0
    9.7196  -13.3221   28.5988 O   0  0  0  0  0  0  0  0  0  0  0  0
    8.3978  -15.1413   28.2876 O   0  0  0  0  0  0  0  0  0  0  0  0
  1  2  1  0
  3  2  1  0
  3  4  1  6
  5  6  2  0
  5  3  1  0
  8  7  1  1
  8  9  1  0
  9  5  1  0
 10  8  1  0
 10 12  1  0
 11 10  2  0
 12 16  1  0
 13 12  1  0
 13 14  1  0
 14 15  1  0
 16 15  1  0
 16 17  1  1
 17 19  1  0
 18 17  2  0
M  END
$$$$
