SAP.pdb
     RDKit          3D

 19 19  0  0  1  0  0  0  0  0999 V2000
   11.0135  -13.1365   20.4437 O   0  0  0  0  0  0  0  0  0  0  0  0
   10.2860  -14.2377   20.0140 C   0  0  0  0  0  0  0  0  0  0  0  0
    8.8486  -13.9133   19.7332 C   0  0  2  0  0  0  0  0  0  0  0  0
    8.7525  -12.7488   18.9115 N   0  0  0  0  0  0  0  0  0  0  0  0
    8.0815  -13.7603   21.0140 C   0  0  0  0  0  0  0  0  0  0  0  0
    7.7710  -12.6240   21.4520 O   0  0  0  0  0  0  0  0  0  0  0  0
    6.1939  -16.0820   23.3065 C   0  0  0  0  0  0  0  0  0  0  0  0
    6.9935  -14.8202   23.0271 C   0  0  2  0  0  0  0  0  0  0  0  0
    7.6846  -14.8925   21.7674 N   0  0  0  0  0  0  0  0  0  0  0  0
    7.8646  -14.4503   24.1424 C   0  0  0  0  0  0  0  0  0  0  0  0
    9.0382  -14.8579   24.1946 O   0  0  0  0  0  0  0  0  0  0  0  0
    7.3955  -13.6036   25.2164 N   0  0  0  0  0  0  0  0  0  0  0  0
    6.1150  -12.9329   25.2085 C   0  0  0  0  0  0  0  0  0  0  0  0
    6.1821  -11.8806   26.2934 C   0  0  0  0  0  0  0  0  0  0  0  0
    7.1588  -12.4941   27.2777 C   0  0  0  0  0  0  0  0  0  0  0  0
    8.0947  -13.2902   26.4224 C   0  0  1  0  0  0  0  0  0  0  0  0
    8.5675  -14.5216   27.1312 C   0  0  0  0  0  0  0  0  0  0  0  0
    7.9271  -15.5691   26.9652 O   0  0  0  0  0  0  0  0  0  0  0  0
    9.6821  -14.5207   27.9524 O   0  0  0  0  0  0  0  0  0  0  0  0
  1  2  1  0
  3  2  1  0
  3  4  1  1
  5  6  2  0
  5  3  1  0
  8  7  1  1
  8  9  1  0
  9  5  1  0
 10  8  1  0
 10 12  1  0
 11 10  2  0
 12 16  1  0
 13 12  1  0
 13 14  1  0
 14 15  1  0
 16 15  1  0
 16 17  1  1
 17 19  1  0
 18 17  2  0
M  END
$$$$
