SAP.pdb
     RDKit          3D

 19 19  0  0  1  0  0  0  0  0999 V2000
   11.8014  -17.2000   16.1349 O   0  0  0  0  0  0  0  0  0  0  0  0
   10.7745  -18.0692   15.7934 C   0  0  0  0  0  0  0  0  0  0  0  0
    9.5317  -17.3570   15.3484 C   0  0  2  0  0  0  0  0  0  0  0  0
    9.7892  -16.5983   14.1658 N   0  0  0  0  0  0  0  0  0  0  0  0
    8.9875  -16.5022   16.4554 C   0  0  0  0  0  0  0  0  0  0  0  0
    9.3167  -15.2940   16.5632 O   0  0  0  0  0  0  0  0  0  0  0  0
    6.3106  -17.0131   19.1004 C   0  0  0  0  0  0  0  0  0  0  0  0
    7.4391  -16.2478   18.4297 C   0  0  2  0  0  0  0  0  0  0  0  0
    8.0864  -17.0317   17.4117 N   0  0  0  0  0  0  0  0  0  0  0  0
    8.3745  -15.6693   19.3940 C   0  0  0  0  0  0  0  0  0  0  0  0
    9.3924  -16.2918   19.7443 O   0  0  0  0  0  0  0  0  0  0  0  0
    8.1507  -14.3623   19.9701 N   0  0  0  0  0  0  0  0  0  0  0  0
    7.1295  -13.4475   19.5118 C   0  0  0  0  0  0  0  0  0  0  0  0
    7.4783  -12.0967   20.0970 C   0  0  0  0  0  0  0  0  0  0  0  0
    8.2001  -12.4758   21.3755 C   0  0  0  0  0  0  0  0  0  0  0  0
    8.8786  -13.7693   21.0473 C   0  0  1  0  0  0  0  0  0  0  0  0
    8.9428  -14.6700   22.2418 C   0  0  0  0  0  0  0  0  0  0  0  0
    8.0491  -15.5170   22.3792 O   0  0  0  0  0  0  0  0  0  0  0  0
    9.9568  -14.5831   23.1804 O   0  0  0  0  0  0  0  0  0  0  0  0
  1  2  1  0
  3  2  1  0
  3  4  1  6
  5  6  2  0
  5  3  1  0
  8  7  1  1
  8  9  1  0
  9  5  1  0
 10  8  1  0
 10 12  1  0
 11 10  2  0
 12 16  1  0
 13 12  1  0
 13 14  1  0
 14 15  1  0
 16 15  1  0
 16 17  1  1
 17 19  1  0
 18 17  2  0
M  END
$$$$
