SAP.pdb
     RDKit          3D

 19 19  0  0  1  0  0  0  0  0999 V2000
   11.1928  -13.2636   19.2220 O   0  0  0  0  0  0  0  0  0  0  0  0
   10.4110  -14.1303   19.9731 C   0  0  0  0  0  0  0  0  0  0  0  0
    8.9407  -13.9029   19.7824 C   0  0  2  0  0  0  0  0  0  0  0  0
    8.7173  -12.7714   18.9395 N   0  0  0  0  0  0  0  0  0  0  0  0
    8.2518  -13.7591   21.1079 C   0  0  0  0  0  0  0  0  0  0  0  0
    8.1637  -12.6409   21.6749 O   0  0  0  0  0  0  0  0  0  0  0  0
    6.2495  -16.0866   23.3411 C   0  0  0  0  0  0  0  0  0  0  0  0
    7.0427  -14.8241   23.0480 C   0  0  2  0  0  0  0  0  0  0  0  0
    7.6805  -14.8797   21.7595 N   0  0  0  0  0  0  0  0  0  0  0  0
    7.9613  -14.4752   24.1315 C   0  0  0  0  0  0  0  0  0  0  0  0
    9.1192  -14.9279   24.1538 O   0  0  0  0  0  0  0  0  0  0  0  0
    7.5587  -13.5976   25.2076 N   0  0  0  0  0  0  0  0  0  0  0  0
    6.3505  -12.8041   25.1866 C   0  0  0  0  0  0  0  0  0  0  0  0
    6.5013  -11.7748   26.2850 C   0  0  0  0  0  0  0  0  0  0  0  0
    7.3955  -12.4916   27.2780 C   0  0  0  0  0  0  0  0  0  0  0  0
    8.2638  -13.3669   26.4288 C   0  0  1  0  0  0  0  0  0  0  0  0
    8.6007  -14.6461   27.1304 C   0  0  0  0  0  0  0  0  0  0  0  0
    7.9406  -15.6554   26.8467 O   0  0  0  0  0  0  0  0  0  0  0  0
    9.6130  -14.7296   28.0712 O   0  0  0  0  0  0  0  0  0  0  0  0
  1  2  1  0
  3  2  1  0
  3  4  1  6
  5  6  2  0
  5  3  1  0
  8  7  1  1
  8  9  1  0
  9  5  1  0
 10  8  1  0
 10 12  1  0
 11 10  2  0
 12 16  1  0
 13 12  1  0
 13 14  1  0
 14 15  1  0
 16 15  1  0
 16 17  1  1
 17 19  1  0
 18 17  2  0
M  END
$$$$
