SAP.pdb
     RDKit          3D

 19 19  0  0  1  0  0  0  0  0999 V2000
   10.5167  -16.7843   19.7164 O   0  0  0  0  0  0  0  0  0  0  0  0
    9.8775  -16.0516   20.7070 C   0  0  0  0  0  0  0  0  0  0  0  0
    8.3873  -16.2216   20.6882 C   0  0  2  0  0  0  0  0  0  0  0  0
    7.8410  -15.6901   19.4801 N   0  0  0  0  0  0  0  0  0  0  0  0
    7.7689  -15.5978   21.9050 C   0  0  0  0  0  0  0  0  0  0  0  0
    7.5440  -14.3623   21.9570 O   0  0  0  0  0  0  0  0  0  0  0  0
    6.2379  -16.9109   25.1120 C   0  0  0  0  0  0  0  0  0  0  0  0
    6.9069  -15.8434   24.2622 C   0  0  2  0  0  0  0  0  0  0  0  0
    7.4203  -16.3830   23.0313 N   0  0  0  0  0  0  0  0  0  0  0  0
    7.8980  -15.0708   25.0109 C   0  0  0  0  0  0  0  0  0  0  0  0
    9.0959  -15.4046   25.0116 O   0  0  0  0  0  0  0  0  0  0  0  0
    7.5230  -13.8997   25.7713 N   0  0  0  0  0  0  0  0  0  0  0  0
    6.2416  -13.2414   25.6512 C   0  0  0  0  0  0  0  0  0  0  0  0
    6.3997  -11.8858   26.3040 C   0  0  0  0  0  0  0  0  0  0  0  0
    7.4682  -12.1525   27.3463 C   0  0  0  0  0  0  0  0  0  0  0  0
    8.3279  -13.2129   26.7315 C   0  0  1  0  0  0  0  0  0  0  0  0
    8.8744  -14.1423   27.7706 C   0  0  0  0  0  0  0  0  0  0  0  0
    8.3564  -15.2626   27.8779 O   0  0  0  0  0  0  0  0  0  0  0  0
    9.9252  -13.7892   28.6000 O   0  0  0  0  0  0  0  0  0  0  0  0
  1  2  1  0
  3  2  1  0
  3  4  1  6
  5  6  2  0
  5  3  1  0
  8  7  1  1
  8  9  1  0
  9  5  1  0
 10  8  1  0
 10 12  1  0
 11 10  2  0
 12 16  1  0
 13 12  1  0
 13 14  1  0
 14 15  1  0
 16 15  1  0
 16 17  1  1
 17 19  1  0
 18 17  2  0
M  END
$$$$
