SAP.pdb
     RDKit          3D

 19 19  0  0  1  0  0  0  0  0999 V2000
   10.9044  -13.2172   20.5608 O   0  0  0  0  0  0  0  0  0  0  0  0
   10.1558  -14.2238   19.9667 C   0  0  0  0  0  0  0  0  0  0  0  0
    8.7264  -13.8303   19.7388 C   0  0  2  0  0  0  0  0  0  0  0  0
    8.6574  -12.6347   18.9601 N   0  0  0  0  0  0  0  0  0  0  0  0
    8.0021  -13.6905   21.0457 C   0  0  0  0  0  0  0  0  0  0  0  0
    7.8088  -12.5612   21.5624 O   0  0  0  0  0  0  0  0  0  0  0  0
    6.0857  -16.0419   23.3137 C   0  0  0  0  0  0  0  0  0  0  0  0
    6.8740  -14.7757   23.0231 C   0  0  2  0  0  0  0  0  0  0  0  0
    7.5146  -14.8276   21.7360 N   0  0  0  0  0  0  0  0  0  0  0  0
    7.7887  -14.4234   24.1088 C   0  0  0  0  0  0  0  0  0  0  0  0
    8.9648  -14.8273   24.1053 O   0  0  0  0  0  0  0  0  0  0  0  0
    7.3612  -13.5989   25.2168 N   0  0  0  0  0  0  0  0  0  0  0  0
    6.0806  -12.9306   25.2725 C   0  0  0  0  0  0  0  0  0  0  0  0
    6.1891  -11.8997   26.3744 C   0  0  0  0  0  0  0  0  0  0  0  0
    7.2043  -12.5306   27.3073 C   0  0  0  0  0  0  0  0  0  0  0  0
    8.1069  -13.3078   26.4004 C   0  0  1  0  0  0  0  0  0  0  0  0
    8.6086  -14.5520   27.0656 C   0  0  0  0  0  0  0  0  0  0  0  0
    7.9700  -15.5999   26.8947 O   0  0  0  0  0  0  0  0  0  0  0  0
    9.7475  -14.5624   27.8527 O   0  0  0  0  0  0  0  0  0  0  0  0
  1  2  1  0
  3  2  1  0
  3  4  1  1
  5  6  2  0
  5  3  1  0
  8  7  1  1
  8  9  1  0
  9  5  1  0
 10  8  1  0
 10 12  1  0
 11 10  2  0
 12 16  1  0
 13 12  1  0
 13 14  1  0
 14 15  1  0
 16 15  1  0
 16 17  1  1
 17 19  1  0
 18 17  2  0
M  END
$$$$
