SAP.pdb
     RDKit          3D

 19 19  0  0  1  0  0  0  0  0999 V2000
   10.2033  -14.5393   20.4183 O   0  0  0  0  0  0  0  0  0  0  0  0
    9.4788  -15.7211   20.4890 C   0  0  0  0  0  0  0  0  0  0  0  0
    7.9979  -15.4936   20.5606 C   0  0  2  0  0  0  0  0  0  0  0  0
    7.5922  -14.5425   19.5749 N   0  0  0  0  0  0  0  0  0  0  0  0
    7.5940  -15.0741   21.9438 C   0  0  0  0  0  0  0  0  0  0  0  0
    7.3907  -13.8652   22.2213 O   0  0  0  0  0  0  0  0  0  0  0  0
    6.4281  -16.9620   25.0102 C   0  0  0  0  0  0  0  0  0  0  0  0
    6.9180  -15.7189   24.2863 C   0  0  2  0  0  0  0  0  0  0  0  0
    7.4299  -16.0284   22.9778 N   0  0  0  0  0  0  0  0  0  0  0  0
    7.8444  -14.9275   25.0957 C   0  0  0  0  0  0  0  0  0  0  0  0
    9.0690  -15.1382   25.0488 O   0  0  0  0  0  0  0  0  0  0  0  0
    7.3726  -13.8795   25.9728 N   0  0  0  0  0  0  0  0  0  0  0  0
    6.0131  -13.3883   25.9774 C   0  0  0  0  0  0  0  0  0  0  0  0
    6.0389  -12.0793   26.7354 C   0  0  0  0  0  0  0  0  0  0  0  0
    7.1963  -12.2841   27.6932 C   0  0  0  0  0  0  0  0  0  0  0  0
    8.1430  -13.1703   26.9451 C   0  0  1  0  0  0  0  0  0  0  0  0
    8.8676  -14.0985   27.8701 C   0  0  0  0  0  0  0  0  0  0  0  0
    8.4719  -15.2702   27.9444 O   0  0  0  0  0  0  0  0  0  0  0  0
    9.9495  -13.6893   28.6309 O   0  0  0  0  0  0  0  0  0  0  0  0
  1  2  1  0
  3  2  1  0
  3  4  1  6
  5  6  2  0
  5  3  1  0
  8  7  1  1
  8  9  1  0
  9  5  1  0
 10  8  1  0
 10 12  1  0
 11 10  2  0
 12 16  1  0
 13 12  1  0
 13 14  1  0
 14 15  1  0
 16 15  1  0
 16 17  1  1
 17 19  1  0
 18 17  2  0
M  END
$$$$
