SAP.pdb
     RDKit          3D

 19 19  0  0  1  0  0  0  0  0999 V2000
   10.7771  -13.3041   20.2255 O   0  0  0  0  0  0  0  0  0  0  0  0
    9.9633  -14.4079   20.0116 C   0  0  0  0  0  0  0  0  0  0  0  0
    8.5156  -14.0448   19.8622 C   0  0  2  0  0  0  0  0  0  0  0  0
    8.3790  -12.8514   19.0891 N   0  0  0  0  0  0  0  0  0  0  0  0
    7.8609  -13.9195   21.2068 C   0  0  0  0  0  0  0  0  0  0  0  0
    7.6930  -12.7957   21.7441 O   0  0  0  0  0  0  0  0  0  0  0  0
    6.1994  -16.3524   23.6061 C   0  0  0  0  0  0  0  0  0  0  0  0
    6.8386  -15.0262   23.2292 C   0  0  2  0  0  0  0  0  0  0  0  0
    7.4125  -15.0643   21.9105 N   0  0  0  0  0  0  0  0  0  0  0  0
    7.7686  -14.5424   24.2492 C   0  0  0  0  0  0  0  0  0  0  0  0
    8.9625  -14.8899   24.2369 O   0  0  0  0  0  0  0  0  0  0  0  0
    7.3361  -13.6493   25.3006 N   0  0  0  0  0  0  0  0  0  0  0  0
    6.0253  -13.0417   25.3487 C   0  0  0  0  0  0  0  0  0  0  0  0
    6.1169  -11.9176   26.3570 C   0  0  0  0  0  0  0  0  0  0  0  0
    7.1937  -12.4175   27.3003 C   0  0  0  0  0  0  0  0  0  0  0  0
    8.1046  -13.2236   26.4275 C   0  0  1  0  0  0  0  0  0  0  0  0
    8.6915  -14.3815   27.1739 C   0  0  0  0  0  0  0  0  0  0  0  0
    8.1666  -15.4940   27.0259 O   0  0  0  0  0  0  0  0  0  0  0  0
    9.7862  -14.2444   28.0102 O   0  0  0  0  0  0  0  0  0  0  0  0
  1  2  1  0
  3  2  1  0
  3  4  1  1
  5  6  2  0
  5  3  1  0
  8  7  1  1
  8  9  1  0
  9  5  1  0
 10  8  1  0
 10 12  1  0
 11 10  2  0
 12 16  1  0
 13 12  1  0
 13 14  1  0
 14 15  1  0
 16 15  1  0
 16 17  1  1
 17 19  1  0
 18 17  2  0
M  END
$$$$
