SAP.pdb
     RDKit          3D

 19 19  0  0  1  0  0  0  0  0999 V2000
   11.5018  -15.6004   21.2202 O   0  0  0  0  0  0  0  0  0  0  0  0
   10.6945  -16.7033   21.4622 C   0  0  0  0  0  0  0  0  0  0  0  0
    9.2917  -16.5196   20.9638 C   0  0  2  0  0  0  0  0  0  0  0  0
    9.2942  -15.8277   19.7141 N   0  0  0  0  0  0  0  0  0  0  0  0
    8.4535  -15.8173   21.9916 C   0  0  0  0  0  0  0  0  0  0  0  0
    8.1718  -14.5979   21.8755 O   0  0  0  0  0  0  0  0  0  0  0  0
    6.3345  -16.8782   24.9245 C   0  0  0  0  0  0  0  0  0  0  0  0
    7.2157  -15.8831   24.1879 C   0  0  2  0  0  0  0  0  0  0  0  0
    7.9547  -16.5081   23.1234 N   0  0  0  0  0  0  0  0  0  0  0  0
    8.0581  -15.1027   25.0939 C   0  0  0  0  0  0  0  0  0  0  0  0
    9.2523  -15.4026   25.2681 O   0  0  0  0  0  0  0  0  0  0  0  0
    7.5362  -13.9628   25.8139 N   0  0  0  0  0  0  0  0  0  0  0  0
    6.2113  -13.4221   25.6090 C   0  0  0  0  0  0  0  0  0  0  0  0
    6.2097  -12.0520   26.2505 C   0  0  0  0  0  0  0  0  0  0  0  0
    7.2329  -12.2133   27.3578 C   0  0  0  0  0  0  0  0  0  0  0  0
    8.2182  -13.1985   26.8102 C   0  0  1  0  0  0  0  0  0  0  0  0
    8.7811  -14.0662   27.8929 C   0  0  0  0  0  0  0  0  0  0  0  0
    8.3259  -15.2121   28.0144 O   0  0  0  0  0  0  0  0  0  0  0  0
    9.7796  -13.6298   28.7468 O   0  0  0  0  0  0  0  0  0  0  0  0
  1  2  1  0
  3  2  1  0
  3  4  1  6
  5  6  2  0
  5  3  1  0
  8  7  1  1
  8  9  1  0
  9  5  1  0
 10  8  1  0
 10 12  1  0
 11 10  2  0
 12 16  1  0
 13 12  1  0
 13 14  1  0
 14 15  1  0
 16 15  1  0
 16 17  1  1
 17 19  1  0
 18 17  2  0
M  END
$$$$
