LVR.pdb
     RDKit          3D

 27 26  0  0  1  0  0  0  0  0999 V2000
   19.8715  -16.0375  -16.6774 C   0  0  0  0  0  0  0  0  0  0  0  0
   21.1531  -16.5316  -17.3146 C   0  0  1  0  0  0  0  0  0  0  0  0
   22.1028  -15.3571  -17.4728 C   0  0  0  0  0  0  0  0  0  0  0  0
   21.8499  -17.5550  -16.4495 C   0  0  0  0  0  0  0  0  0  0  0  0
   23.1547  -17.9164  -17.1294 C   0  0  2  0  0  0  0  0  0  0  0  0
   22.8076  -18.6787  -18.3121 N   0  0  0  0  0  0  0  0  0  0  0  0
   24.0160  -18.7497  -16.2755 C   0  0  0  0  0  0  0  0  0  0  0  0
   23.7078  -19.9398  -16.0237 O   0  0  0  0  0  0  0  0  0  0  0  0
   28.0498  -18.9754  -16.2815 C   0  0  0  0  0  0  0  0  0  0  0  0
   27.4977  -18.7724  -14.8854 C   0  0  2  0  0  0  0  0  0  0  0  0
   28.3277  -19.5890  -13.9448 C   0  0  0  0  0  0  0  0  0  0  0  0
   26.0326  -19.1219  -14.8570 C   0  0  2  0  0  0  0  0  0  0  0  0
   25.2255  -18.2862  -15.6880 N   0  0  0  0  0  0  0  0  0  0  0  0
   25.4951  -19.1859  -13.4496 C   0  0  0  0  0  0  0  0  0  0  0  0
   24.9322  -18.1915  -12.9298 O   0  0  0  0  0  0  0  0  0  0  0  0
   19.3865  -22.9028   -9.4999 N   0  0  0  0  0  0  0  0  0  0  0  0
   20.1954  -22.3748   -8.4690 C   0  0  0  0  0  0  0  0  0  0  0  0
   20.0372  -22.7750   -7.2529 N   0  0  0  0  0  0  0  0  0  0  0  0
   21.2053  -21.3966   -8.7048 N   0  0  0  0  0  0  0  0  0  0  0  0
   21.9114  -21.4428   -9.9620 C   0  0  0  0  0  0  0  0  0  0  0  0
   22.9386  -20.3281   -9.9853 C   0  0  0  0  0  0  0  0  0  0  0  0
   23.6068  -20.3237  -11.3177 C   0  0  0  0  0  0  0  0  0  0  0  0
   25.0976  -20.4445  -11.2987 C   0  0  2  0  0  0  0  0  0  0  0  0
   25.6083  -20.3639  -12.6747 N   0  0  0  0  0  0  0  0  0  0  0  0
   25.4937  -21.7084  -10.6596 C   0  0  0  0  0  0  0  0  0  0  0  0
   25.7296  -22.7871  -11.2790 O   0  0  0  0  0  0  0  0  0  0  0  0
   25.6325  -21.7668   -9.2852 O   0  0  0  0  0  0  0  0  0  0  0  0
  2  1  1  1
  2  3  1  0
  4  5  1  0
  4  2  1  0
  5  6  1  6
  7  5  1  0
  7  8  2  0
 10 11  1  1
 10  9  1  0
 10 12  1  0
 12 13  1  6
 13  7  1  0
 14 15  2  0
 14 12  1  0
 16 17  1  0
 17 18  2  0
 19 17  1  0
 19 20  1  0
 21 20  1  0
 21 22  1  0
 23 22  1  6
 23 24  1  0
 23 25  1  0
 24 14  1  0
 25 27  1  0
 26 25  2  0
M  END
$$$$
