LVR.pdb
     RDKit          3D

 27 26  0  0  1  0  0  0  0  0999 V2000
   28.0256  -19.3241  -18.9168 C   0  0  0  0  0  0  0  0  0  0  0  0
   28.4690  -19.9777  -17.6250 C   0  0  1  0  0  0  0  0  0  0  0  0
   29.1409  -18.9302  -16.7547 C   0  0  0  0  0  0  0  0  0  0  0  0
   27.2976  -20.5226  -16.8427 C   0  0  0  0  0  0  0  0  0  0  0  0
   27.8415  -21.1190  -15.5605 C   0  0  2  0  0  0  0  0  0  0  0  0
   28.5904  -22.3007  -15.9389 N   0  0  0  0  0  0  0  0  0  0  0  0
   26.7707  -21.5236  -14.6359 C   0  0  0  0  0  0  0  0  0  0  0  0
   26.1926  -22.6292  -14.7712 O   0  0  0  0  0  0  0  0  0  0  0  0
   26.9037  -21.2549  -10.7314 C   0  0  0  0  0  0  0  0  0  0  0  0
   25.5649  -20.7346  -11.2132 C   0  0  2  0  0  0  0  0  0  0  0  0
   24.5196  -21.2117  -10.2540 C   0  0  0  0  0  0  0  0  0  0  0  0
   25.3254  -21.1727  -12.6345 C   0  0  2  0  0  0  0  0  0  0  0  0
   26.3220  -20.7194  -13.5520 N   0  0  0  0  0  0  0  0  0  0  0  0
   23.9377  -20.8199  -13.1074 C   0  0  0  0  0  0  0  0  0  0  0  0
   23.6115  -19.6249  -13.3109 O   0  0  0  0  0  0  0  0  0  0  0  0
   17.2655  -26.2941  -15.2115 N   0  0  0  0  0  0  0  0  0  0  0  0
   16.7525  -25.0012  -15.4586 C   0  0  0  0  0  0  0  0  0  0  0  0
   15.5241  -24.8509  -15.8225 N   0  0  0  0  0  0  0  0  0  0  0  0
   17.5394  -23.8200  -15.3241 N   0  0  0  0  0  0  0  0  0  0  0  0
   18.9143  -23.9664  -14.9126 C   0  0  0  0  0  0  0  0  0  0  0  0
   19.4877  -22.5916  -14.6306 C   0  0  0  0  0  0  0  0  0  0  0  0
   20.9138  -22.7442  -14.2245 C   0  0  0  0  0  0  0  0  0  0  0  0
   21.5964  -21.4957  -13.7634 C   0  0  2  0  0  0  0  0  0  0  0  0
   22.9645  -21.8210  -13.3350 N   0  0  0  0  0  0  0  0  0  0  0  0
   20.8320  -20.8765  -12.6703 C   0  0  0  0  0  0  0  0  0  0  0  0
   20.8649  -21.2546  -11.4625 O   0  0  0  0  0  0  0  0  0  0  0  0
   20.0071  -19.7992  -12.9362 O   0  0  0  0  0  0  0  0  0  0  0  0
  2  1  1  6
  2  3  1  0
  4  5  1  0
  4  2  1  0
  5  6  1  6
  7  5  1  0
  7  8  2  0
 10 11  1  1
 10  9  1  0
 10 12  1  0
 12 13  1  6
 13  7  1  0
 14 15  2  0
 14 12  1  0
 16 17  1  0
 17 18  2  0
 19 17  1  0
 19 20  1  0
 21 20  1  0
 21 22  1  0
 23 22  1  1
 23 24  1  0
 23 25  1  0
 24 14  1  0
 25 27  1  0
 26 25  2  0
M  END
$$$$
