LVR.pdb
     RDKit          3D

 27 26  0  0  1  0  0  0  0  0999 V2000
   28.6176  -18.9541   -6.4784 C   0  0  0  0  0  0  0  0  0  0  0  0
   27.6555  -19.9529   -7.0862 C   0  0  1  0  0  0  0  0  0  0  0  0
   26.5789  -20.2757   -6.0649 C   0  0  0  0  0  0  0  0  0  0  0  0
   26.9607  -19.3910   -8.3039 C   0  0  0  0  0  0  0  0  0  0  0  0
   26.1117  -20.4968   -8.8972 C   0  0  2  0  0  0  0  0  0  0  0  0
   26.9593  -21.6694   -8.9811 N   0  0  0  0  0  0  0  0  0  0  0  0
   25.6361  -20.1691  -10.2505 C   0  0  0  0  0  0  0  0  0  0  0  0
   24.9213  -19.1571  -10.4499 O   0  0  0  0  0  0  0  0  0  0  0  0
   27.8478  -20.0943  -13.3661 C   0  0  0  0  0  0  0  0  0  0  0  0
   26.5555  -20.7716  -13.7741 C   0  0  2  0  0  0  0  0  0  0  0  0
   26.1616  -20.2307  -15.1131 C   0  0  0  0  0  0  0  0  0  0  0  0
   25.5103  -20.5672  -12.7088 C   0  0  2  0  0  0  0  0  0  0  0  0
   25.9395  -20.9486  -11.4009 N   0  0  0  0  0  0  0  0  0  0  0  0
   24.1996  -21.2185  -13.0721 C   0  0  0  0  0  0  0  0  0  0  0  0
   23.9649  -22.4112  -12.7584 O   0  0  0  0  0  0  0  0  0  0  0  0
   19.0183  -24.5700  -10.1898 N   0  0  0  0  0  0  0  0  0  0  0  0
   19.4165  -23.5647   -9.2806 C   0  0  0  0  0  0  0  0  0  0  0  0
   19.5543  -23.8424   -8.0284 N   0  0  0  0  0  0  0  0  0  0  0  0
   19.6821  -22.2226   -9.6814 N   0  0  0  0  0  0  0  0  0  0  0  0
   19.4507  -21.8705  -11.0612 C   0  0  0  0  0  0  0  0  0  0  0  0
   20.7029  -22.1772  -11.8590 C   0  0  0  0  0  0  0  0  0  0  0  0
   21.2623  -20.8970  -12.3786 C   0  0  0  0  0  0  0  0  0  0  0  0
   21.7927  -20.9383  -13.7766 C   0  0  2  0  0  0  0  0  0  0  0  0
   23.1984  -20.5083  -13.7749 N   0  0  0  0  0  0  0  0  0  0  0  0
   20.9776  -20.0821  -14.6513 C   0  0  0  0  0  0  0  0  0  0  0  0
   21.2063  -18.8577  -14.8787 O   0  0  0  0  0  0  0  0  0  0  0  0
   19.8740  -20.6124  -15.2935 O   0  0  0  0  0  0  0  0  0  0  0  0
  2  1  1  1
  2  3  1  0
  4  5  1  0
  4  2  1  0
  5  6  1  6
  7  5  1  0
  7  8  2  0
 10 11  1  6
 10  9  1  0
 10 12  1  0
 12 13  1  1
 13  7  1  0
 14 15  2  0
 14 12  1  0
 16 17  1  0
 17 18  2  0
 19 17  1  0
 19 20  1  0
 21 20  1  0
 21 22  1  0
 23 22  1  1
 23 24  1  0
 23 25  1  0
 24 14  1  0
 25 27  1  0
 26 25  2  0
M  END
$$$$
