LVR.pdb
     RDKit          3D

 27 26  0  0  1  0  0  0  0  0999 V2000
   28.9201  -19.7862   -6.8304 C   0  0  0  0  0  0  0  0  0  0  0  0
   27.5353  -20.0075   -7.4011 C   0  0  1  0  0  0  0  0  0  0  0  0
   26.5902  -18.9834   -6.7974 C   0  0  0  0  0  0  0  0  0  0  0  0
   27.5089  -19.8102   -8.8984 C   0  0  0  0  0  0  0  0  0  0  0  0
   26.0788  -20.0028   -9.3600 C   0  0  2  0  0  0  0  0  0  0  0  0
   25.7084  -21.3583   -9.0049 N   0  0  0  0  0  0  0  0  0  0  0  0
   25.9378  -19.8488  -10.8166 C   0  0  0  0  0  0  0  0  0  0  0  0
   26.1500  -18.7407  -11.3661 O   0  0  0  0  0  0  0  0  0  0  0  0
   27.6916  -21.6346  -13.5705 C   0  0  0  0  0  0  0  0  0  0  0  0
   26.2182  -21.7258  -13.9108 C   0  0  2  0  0  0  0  0  0  0  0  0
   26.0803  -21.5357  -15.3891 C   0  0  0  0  0  0  0  0  0  0  0  0
   25.4406  -20.7238  -13.0979 C   0  0  2  0  0  0  0  0  0  0  0  0
   25.5623  -20.9092  -11.6868 N   0  0  0  0  0  0  0  0  0  0  0  0
   23.9957  -20.6518  -13.5233 C   0  0  0  0  0  0  0  0  0  0  0  0
   23.1918  -21.5700  -13.2293 O   0  0  0  0  0  0  0  0  0  0  0  0
   17.6768  -16.3720  -15.0843 N   0  0  0  0  0  0  0  0  0  0  0  0
   18.6498  -15.4718  -14.5956 C   0  0  0  0  0  0  0  0  0  0  0  0
   18.3358  -14.6083  -13.6901 N   0  0  0  0  0  0  0  0  0  0  0  0
   19.9974  -15.4647  -15.0606 N   0  0  0  0  0  0  0  0  0  0  0  0
   20.3497  -16.3700  -16.1271 C   0  0  0  0  0  0  0  0  0  0  0  0
   20.4191  -17.7777  -15.5686 C   0  0  0  0  0  0  0  0  0  0  0  0
   21.8249  -18.0600  -15.1614 C   0  0  0  0  0  0  0  0  0  0  0  0
   22.0893  -19.4398  -14.6480 C   0  0  2  0  0  0  0  0  0  0  0  0
   23.5038  -19.5516  -14.2639 N   0  0  0  0  0  0  0  0  0  0  0  0
   21.7379  -20.4354  -15.6717 C   0  0  0  0  0  0  0  0  0  0  0  0
   22.4568  -20.7254  -16.6728 O   0  0  0  0  0  0  0  0  0  0  0  0
   20.5466  -21.1299  -15.5712 O   0  0  0  0  0  0  0  0  0  0  0  0
  2  1  1  1
  2  3  1  0
  4  5  1  0
  4  2  1  0
  5  6  1  6
  7  5  1  0
  7  8  2  0
 10 11  1  6
 10  9  1  0
 10 12  1  0
 12 13  1  1
 13  7  1  0
 14 15  2  0
 14 12  1  0
 16 17  1  0
 17 18  2  0
 19 17  1  0
 19 20  1  0
 21 20  1  0
 21 22  1  0
 23 22  1  6
 23 24  1  0
 23 25  1  0
 24 14  1  0
 25 27  1  0
 26 25  2  0
M  END
$$$$
