LVR.pdb
     RDKit          3D

 27 26  0  0  1  0  0  0  0  0999 V2000
   27.5268  -17.4085  -17.7016 C   0  0  0  0  0  0  0  0  0  0  0  0
   28.1097  -18.2691  -16.6007 C   0  0  1  0  0  0  0  0  0  0  0  0
   28.6006  -17.3648  -15.4837 C   0  0  0  0  0  0  0  0  0  0  0  0
   27.0738  -19.1923  -16.0041 C   0  0  0  0  0  0  0  0  0  0  0  0
   27.7529  -20.0004  -14.9172 C   0  0  2  0  0  0  0  0  0  0  0  0
   28.7008  -20.8727  -15.5813 N   0  0  0  0  0  0  0  0  0  0  0  0
   26.8014  -20.8341  -14.1657 C   0  0  0  0  0  0  0  0  0  0  0  0
   26.4913  -21.9789  -14.5759 O   0  0  0  0  0  0  0  0  0  0  0  0
   25.0889  -19.9001  -10.2053 C   0  0  0  0  0  0  0  0  0  0  0  0
   25.3774  -21.2672  -10.7909 C   0  0  2  0  0  0  0  0  0  0  0  0
   26.7499  -21.6703  -10.3505 C   0  0  0  0  0  0  0  0  0  0  0  0
   25.2098  -21.2302  -12.2876 C   0  0  2  0  0  0  0  0  0  0  0  0
   26.1793  -20.4211  -12.9552 N   0  0  0  0  0  0  0  0  0  0  0  0
   23.8057  -20.8546  -12.6889 C   0  0  0  0  0  0  0  0  0  0  0  0
   23.3893  -19.6785  -12.5497 O   0  0  0  0  0  0  0  0  0  0  0  0
   21.6328  -27.1376  -14.5438 N   0  0  0  0  0  0  0  0  0  0  0  0
   20.3805  -27.0461  -13.8964 C   0  0  0  0  0  0  0  0  0  0  0  0
   19.9837  -27.9948  -13.1175 N   0  0  0  0  0  0  0  0  0  0  0  0
   19.5062  -25.9321  -14.0609 N   0  0  0  0  0  0  0  0  0  0  0  0
   20.0061  -24.7787  -14.7687 C   0  0  0  0  0  0  0  0  0  0  0  0
   20.4864  -23.7566  -13.7572 C   0  0  0  0  0  0  0  0  0  0  0  0
   20.9934  -22.5621  -14.4907 C   0  0  0  0  0  0  0  0  0  0  0  0
   21.5494  -21.4640  -13.6409 C   0  0  2  0  0  0  0  0  0  0  0  0
   22.9178  -21.8123  -13.2325 N   0  0  0  0  0  0  0  0  0  0  0  0
   20.6865  -21.2451  -12.4704 C   0  0  0  0  0  0  0  0  0  0  0  0
   19.6471  -20.5222  -12.4654 O   0  0  0  0  0  0  0  0  0  0  0  0
   20.9944  -21.8560  -11.2688 O   0  0  0  0  0  0  0  0  0  0  0  0
  2  1  1  6
  2  3  1  0
  4  5  1  0
  4  2  1  0
  5  6  1  6
  7  5  1  0
  7  8  2  0
 10 11  1  6
 10  9  1  0
 10 12  1  0
 12 13  1  6
 13  7  1  0
 14 15  2  0
 14 12  1  0
 16 17  1  0
 17 18  2  0
 19 17  1  0
 19 20  1  0
 21 20  1  0
 21 22  1  0
 23 22  1  6
 23 24  1  0
 23 25  1  0
 24 14  1  0
 25 27  1  0
 26 25  2  0
M  END
$$$$
