LVR.pdb
     RDKit          3D

 27 26  0  0  1  0  0  0  0  0999 V2000
   26.1855  -14.1427  -18.3665 C   0  0  0  0  0  0  0  0  0  0  0  0
   25.3579  -14.6673  -17.2122 C   0  0  1  0  0  0  0  0  0  0  0  0
   23.8925  -14.3880  -17.4969 C   0  0  0  0  0  0  0  0  0  0  0  0
   25.5040  -16.1621  -17.0527 C   0  0  0  0  0  0  0  0  0  0  0  0
   24.6084  -16.5897  -15.9078 C   0  0  2  0  0  0  0  0  0  0  0  0
   24.9067  -15.7072  -14.7975 N   0  0  0  0  0  0  0  0  0  0  0  0
   24.8687  -17.9745  -15.4839 C   0  0  0  0  0  0  0  0  0  0  0  0
   24.6827  -18.9312  -16.2744 O   0  0  0  0  0  0  0  0  0  0  0  0
   28.0266  -19.1880  -13.6595 C   0  0  0  0  0  0  0  0  0  0  0  0
   26.8438  -19.8427  -12.9758 C   0  0  2  0  0  0  0  0  0  0  0  0
   27.2050  -21.2710  -12.7111 C   0  0  0  0  0  0  0  0  0  0  0  0
   25.6074  -19.6789  -13.8206 C   0  0  2  0  0  0  0  0  0  0  0  0
   25.3363  -18.3253  -14.1873 N   0  0  0  0  0  0  0  0  0  0  0  0
   24.4032  -20.3327  -13.1909 C   0  0  0  0  0  0  0  0  0  0  0  0
   23.8896  -19.8643  -12.1456 O   0  0  0  0  0  0  0  0  0  0  0  0
   18.9436  -23.7092   -8.4081 N   0  0  0  0  0  0  0  0  0  0  0  0
   19.0049  -22.9413   -9.5924 C   0  0  0  0  0  0  0  0  0  0  0  0
   18.0304  -22.9752  -10.4369 N   0  0  0  0  0  0  0  0  0  0  0  0
   20.1154  -22.1075   -9.9149 N   0  0  0  0  0  0  0  0  0  0  0  0
   20.8735  -22.4199  -11.1019 C   0  0  0  0  0  0  0  0  0  0  0  0
   20.3570  -21.5716  -12.2474 C   0  0  0  0  0  0  0  0  0  0  0  0
   21.5103  -21.1748  -13.1042 C   0  0  0  0  0  0  0  0  0  0  0  0
   22.6476  -22.1451  -13.1552 C   0  0  2  0  0  0  0  0  0  0  0  0
   23.8178  -21.4895  -13.7566 N   0  0  0  0  0  0  0  0  0  0  0  0
   22.2583  -23.3396  -13.9195 C   0  0  0  0  0  0  0  0  0  0  0  0
   22.1992  -23.4002  -15.1828 O   0  0  0  0  0  0  0  0  0  0  0  0
   21.9271  -24.5032  -13.2501 O   0  0  0  0  0  0  0  0  0  0  0  0
  2  1  1  6
  2  3  1  0
  4  5  1  0
  4  2  1  0
  5  6  1  1
  7  5  1  0
  7  8  2  0
 10 11  1  6
 10  9  1  0
 10 12  1  0
 12 13  1  1
 13  7  1  0
 14 15  2  0
 14 12  1  0
 16 17  1  0
 17 18  2  0
 19 17  1  0
 19 20  1  0
 21 20  1  0
 21 22  1  0
 23 22  1  6
 23 24  1  0
 23 25  1  0
 24 14  1  0
 25 27  1  0
 26 25  2  0
M  END
$$$$
