LVR.pdb
     RDKit          3D

 27 26  0  0  1  0  0  0  0  0999 V2000
   31.6176  -20.4518  -13.7807 C   0  0  0  0  0  0  0  0  0  0  0  0
   30.2271  -20.1913  -14.3204 C   0  0  1  0  0  0  0  0  0  0  0  0
   30.2556  -20.3392  -15.8316 C   0  0  0  0  0  0  0  0  0  0  0  0
   29.2257  -21.1916  -13.7934 C   0  0  0  0  0  0  0  0  0  0  0  0
   27.8656  -20.8090  -14.3405 C   0  0  2  0  0  0  0  0  0  0  0  0
   27.8418  -19.3617  -14.4148 N   0  0  0  0  0  0  0  0  0  0  0  0
   26.7686  -21.2475  -13.4634 C   0  0  0  0  0  0  0  0  0  0  0  0
   26.5987  -22.4651  -13.2115 O   0  0  0  0  0  0  0  0  0  0  0  0
   25.8359  -20.3462   -9.8990 C   0  0  0  0  0  0  0  0  0  0  0  0
   24.6012  -20.1150  -10.7458 C   0  0  2  0  0  0  0  0  0  0  0  0
   23.4146  -20.5649   -9.9521 C   0  0  0  0  0  0  0  0  0  0  0  0
   24.7462  -20.8213  -12.0685 C   0  0  2  0  0  0  0  0  0  0  0  0
   25.8453  -20.3547  -12.8525 N   0  0  0  0  0  0  0  0  0  0  0  0
   23.4611  -20.8113  -12.8573 C   0  0  0  0  0  0  0  0  0  0  0  0
   23.0632  -19.7654  -13.4261 O   0  0  0  0  0  0  0  0  0  0  0  0
   17.9263  -27.5745  -14.5836 N   0  0  0  0  0  0  0  0  0  0  0  0
   17.2167  -26.4177  -14.9760 C   0  0  0  0  0  0  0  0  0  0  0  0
   16.0219  -26.5214  -15.4511 N   0  0  0  0  0  0  0  0  0  0  0  0
   17.7631  -25.1050  -14.8730 N   0  0  0  0  0  0  0  0  0  0  0  0
   19.0666  -24.9602  -14.2719 C   0  0  0  0  0  0  0  0  0  0  0  0
   19.4462  -23.4924  -14.2790 C   0  0  0  0  0  0  0  0  0  0  0  0
   20.7909  -23.3450  -13.6530 C   0  0  0  0  0  0  0  0  0  0  0  0
   21.3647  -21.9637  -13.6608 C   0  0  2  0  0  0  0  0  0  0  0  0
   22.6674  -21.9758  -12.9799 N   0  0  0  0  0  0  0  0  0  0  0  0
   20.4356  -21.0274  -13.0106 C   0  0  0  0  0  0  0  0  0  0  0  0
   20.2894  -20.9089  -11.7585 O   0  0  0  0  0  0  0  0  0  0  0  0
   19.6475  -20.1960  -13.7848 O   0  0  0  0  0  0  0  0  0  0  0  0
  2  1  1  1
  2  3  1  0
  4  5  1  0
  4  2  1  0
  5  6  1  1
  7  5  1  0
  7  8  2  0
 10 11  1  1
 10  9  1  0
 10 12  1  0
 12 13  1  6
 13  7  1  0
 14 15  2  0
 14 12  1  0
 16 17  1  0
 17 18  2  0
 19 17  1  0
 19 20  1  0
 21 20  1  0
 21 22  1  0
 23 22  1  1
 23 24  1  0
 23 25  1  0
 24 14  1  0
 25 27  1  0
 26 25  2  0
M  END
$$$$
