LVR.pdb
     RDKit          3D

 27 26  0  0  1  0  0  0  0  0999 V2000
   16.3255  -17.2013  -16.4412 C   0  0  0  0  0  0  0  0  0  0  0  0
   17.0364  -18.4685  -16.0154 C   0  0  1  0  0  0  0  0  0  0  0  0
   17.6223  -19.1359  -17.2473 C   0  0  0  0  0  0  0  0  0  0  0  0
   18.1840  -18.1782  -15.0773 C   0  0  0  0  0  0  0  0  0  0  0  0
   18.9543  -19.4684  -14.8837 C   0  0  2  0  0  0  0  0  0  0  0  0
   18.0381  -20.4090  -14.2701 N   0  0  0  0  0  0  0  0  0  0  0  0
   20.1120  -19.2979  -13.9917 C   0  0  0  0  0  0  0  0  0  0  0  0
   20.9712  -18.4124  -14.2209 O   0  0  0  0  0  0  0  0  0  0  0  0
   20.6195  -21.2258  -10.0817 C   0  0  0  0  0  0  0  0  0  0  0  0
   21.1215  -19.8648  -10.5184 C   0  0  2  0  0  0  0  0  0  0  0  0
   20.0706  -18.8584  -10.1677 C   0  0  0  0  0  0  0  0  0  0  0  0
   21.4671  -19.8914  -11.9845 C   0  0  2  0  0  0  0  0  0  0  0  0
   20.3401  -20.0972  -12.8376 N   0  0  0  0  0  0  0  0  0  0  0  0
   22.5741  -20.8700  -12.2855 C   0  0  0  0  0  0  0  0  0  0  0  0
   22.3359  -22.0978  -12.3935 O   0  0  0  0  0  0  0  0  0  0  0  0
   29.3441  -19.4174  -17.0407 N   0  0  0  0  0  0  0  0  0  0  0  0
   28.0430  -19.9529  -17.1678 C   0  0  0  0  0  0  0  0  0  0  0  0
   27.3826  -19.7955  -18.2647 N   0  0  0  0  0  0  0  0  0  0  0  0
   27.4012  -20.6780  -16.1215 N   0  0  0  0  0  0  0  0  0  0  0  0
   28.1010  -20.8182  -14.8678 C   0  0  0  0  0  0  0  0  0  0  0  0
   27.2193  -21.5832  -13.9004 C   0  0  0  0  0  0  0  0  0  0  0  0
   25.9954  -20.7762  -13.6309 C   0  0  0  0  0  0  0  0  0  0  0  0
   25.0142  -21.3805  -12.6772 C   0  0  2  0  0  0  0  0  0  0  0  0
   23.9098  -20.4363  -12.4546 N   0  0  0  0  0  0  0  0  0  0  0  0
   25.6833  -21.7211  -11.4127 C   0  0  0  0  0  0  0  0  0  0  0  0
   26.4810  -22.6919  -11.2573 O   0  0  0  0  0  0  0  0  0  0  0  0
   25.4549  -20.9503  -10.2878 O   0  0  0  0  0  0  0  0  0  0  0  0
  2  1  1  6
  2  3  1  0
  4  5  1  0
  4  2  1  0
  5  6  1  1
  7  5  1  0
  7  8  2  0
 10 11  1  6
 10  9  1  0
 10 12  1  0
 12 13  1  6
 13  7  1  0
 14 15  2  0
 14 12  1  0
 16 17  1  0
 17 18  2  0
 19 17  1  0
 19 20  1  0
 21 20  1  0
 21 22  1  0
 23 22  1  6
 23 24  1  0
 23 25  1  0
 24 14  1  0
 25 27  1  0
 26 25  2  0
M  END
$$$$
