LVR.pdb
     RDKit          3D

 27 26  0  0  1  0  0  0  0  0999 V2000
   21.9611  -17.6471  -15.5713 C   0  0  0  0  0  0  0  0  0  0  0  0
   20.5166  -17.1935  -15.5755 C   0  0  1  0  0  0  0  0  0  0  0  0
   19.9659  -17.3079  -14.1649 C   0  0  0  0  0  0  0  0  0  0  0  0
   20.3855  -15.7468  -15.9893 C   0  0  0  0  0  0  0  0  0  0  0  0
   18.9093  -15.4057  -15.9990 C   0  0  2  0  0  0  0  0  0  0  0  0
   18.3099  -16.1923  -17.0584 N   0  0  0  0  0  0  0  0  0  0  0  0
   18.6681  -13.9823  -16.2834 C   0  0  0  0  0  0  0  0  0  0  0  0
   18.7924  -13.5328  -17.4485 O   0  0  0  0  0  0  0  0  0  0  0  0
   15.6508  -11.6741  -15.7262 C   0  0  0  0  0  0  0  0  0  0  0  0
   16.8517  -11.0564  -15.0398 C   0  0  2  0  0  0  0  0  0  0  0  0
   16.7590   -9.5721  -15.2094 C   0  0  0  0  0  0  0  0  0  0  0  0
   18.1209  -11.6495  -15.5936 C   0  0  2  0  0  0  0  0  0  0  0  0
   18.2875  -13.0358  -15.2924 N   0  0  0  0  0  0  0  0  0  0  0  0
   19.3365  -10.8486  -15.2002 C   0  0  0  0  0  0  0  0  0  0  0  0
   19.8575  -10.9847  -14.0662 O   0  0  0  0  0  0  0  0  0  0  0  0
   24.6580   -6.1416  -18.5485 N   0  0  0  0  0  0  0  0  0  0  0  0
   25.7261   -6.8242  -17.9248 C   0  0  0  0  0  0  0  0  0  0  0  0
   26.8564   -6.2294  -17.7435 N   0  0  0  0  0  0  0  0  0  0  0  0
   25.6212   -8.1719  -17.4719 N   0  0  0  0  0  0  0  0  0  0  0  0
   24.3782   -8.8674  -17.7005 C   0  0  0  0  0  0  0  0  0  0  0  0
   23.4336   -8.5674  -16.5532 C   0  0  0  0  0  0  0  0  0  0  0  0
   22.1813   -9.3516  -16.7495 C   0  0  0  0  0  0  0  0  0  0  0  0
   21.1096   -9.1325  -15.7293 C   0  0  2  0  0  0  0  0  0  0  0  0
   19.9247   -9.9227  -16.0934 N   0  0  0  0  0  0  0  0  0  0  0  0
   20.7844   -7.7013  -15.6378 C   0  0  0  0  0  0  0  0  0  0  0  0
   19.9288   -7.1084  -16.3584 O   0  0  0  0  0  0  0  0  0  0  0  0
   21.4348   -6.9092  -14.7097 O   0  0  0  0  0  0  0  0  0  0  0  0
  2  1  1  1
  2  3  1  0
  4  5  1  0
  4  2  1  0
  5  6  1  6
  7  5  1  0
  7  8  2  0
 10 11  1  6
 10  9  1  0
 10 12  1  0
 12 13  1  1
 13  7  1  0
 14 15  2  0
 14 12  1  0
 16 17  1  0
 17 18  2  0
 19 17  1  0
 19 20  1  0
 21 20  1  0
 21 22  1  0
 23 22  1  6
 23 24  1  0
 23 25  1  0
 24 14  1  0
 25 27  1  0
 26 25  2  0
M  END
$$$$
