LVR.pdb
     RDKit          3D

 27 26  0  0  1  0  0  0  0  0999 V2000
   27.4429  -17.8255  -17.9346 C   0  0  0  0  0  0  0  0  0  0  0  0
   27.9529  -18.8458  -16.9389 C   0  0  1  0  0  0  0  0  0  0  0  0
   28.9842  -18.1804  -16.0445 C   0  0  0  0  0  0  0  0  0  0  0  0
   26.8482  -19.3548  -16.0435 C   0  0  0  0  0  0  0  0  0  0  0  0
   27.4645  -20.3402  -15.0716 C   0  0  2  0  0  0  0  0  0  0  0  0
   27.9427  -21.4569  -15.8622 N   0  0  0  0  0  0  0  0  0  0  0  0
   26.4864  -20.8465  -14.0959 C   0  0  0  0  0  0  0  0  0  0  0  0
   25.6951  -21.7706  -14.4039 O   0  0  0  0  0  0  0  0  0  0  0  0
   26.7449  -21.2020   -9.9960 C   0  0  0  0  0  0  0  0  0  0  0  0
   25.5266  -20.4313  -10.4616 C   0  0  2  0  0  0  0  0  0  0  0  0
   24.3823  -20.8099   -9.5740 C   0  0  0  0  0  0  0  0  0  0  0  0
   25.2742  -20.7032  -11.9216 C   0  0  2  0  0  0  0  0  0  0  0  0
   26.3655  -20.3445  -12.7707 N   0  0  0  0  0  0  0  0  0  0  0  0
   23.9809  -20.0889  -12.3946 C   0  0  0  0  0  0  0  0  0  0  0  0
   23.9446  -18.9043  -12.8085 O   0  0  0  0  0  0  0  0  0  0  0  0
   22.3285  -17.4314  -18.1875 N   0  0  0  0  0  0  0  0  0  0  0  0
   21.0384  -17.9893  -18.3298 C   0  0  0  0  0  0  0  0  0  0  0  0
   20.5297  -18.1521  -19.5040 N   0  0  0  0  0  0  0  0  0  0  0  0
   20.2453  -18.3938  -17.2164 N   0  0  0  0  0  0  0  0  0  0  0  0
   20.8429  -18.3382  -15.9045 C   0  0  0  0  0  0  0  0  0  0  0  0
   20.4904  -19.6076  -15.1543 C   0  0  0  0  0  0  0  0  0  0  0  0
   21.6991  -20.0783  -14.4199 C   0  0  0  0  0  0  0  0  0  0  0  0
   21.5269  -20.2867  -12.9488 C   0  0  2  0  0  0  0  0  0  0  0  0
   22.7734  -20.8257  -12.3862 N   0  0  0  0  0  0  0  0  0  0  0  0
   20.3962  -21.1924  -12.6961 C   0  0  0  0  0  0  0  0  0  0  0  0
   20.4658  -22.4564  -12.7172 O   0  0  0  0  0  0  0  0  0  0  0  0
   19.1497  -20.6680  -12.4083 O   0  0  0  0  0  0  0  0  0  0  0  0
  2  1  1  6
  2  3  1  0
  4  5  1  0
  4  2  1  0
  5  6  1  6
  7  5  1  0
  7  8  2  0
 10 11  1  1
 10  9  1  0
 10 12  1  0
 12 13  1  6
 13  7  1  0
 14 15  2  0
 14 12  1  0
 16 17  1  0
 17 18  2  0
 19 17  1  0
 19 20  1  0
 21 20  1  0
 21 22  1  0
 23 22  1  6
 23 24  1  0
 23 25  1  0
 24 14  1  0
 25 27  1  0
 26 25  2  0
M  END
$$$$
