YCF.pdb
     RDKit          3D

 30 31  0  0  1  0  0  0  0  0999 V2000
   25.3477  -27.3192  -17.9365 O   0  0  0  0  0  0  0  0  0  0  0  0
   25.6468  -26.1408  -17.2330 C   0  0  0  0  0  0  0  0  0  0  0  0
   25.4532  -26.0640  -15.8690 C   0  0  0  0  0  0  0  0  0  0  0  0
   25.7594  -24.8762  -15.1895 C   0  0  0  0  0  0  0  0  0  0  0  0
   26.2513  -23.7854  -15.8685 C   0  0  0  0  0  0  0  0  0  0  0  0
   26.5570  -22.5595  -15.1028 C   0  0  0  0  0  0  0  0  0  0  0  0
   25.2454  -21.9496  -14.6888 C   0  0  2  0  0  0  0  0  0  0  0  0
   24.6079  -21.4208  -15.8593 N   0  0  0  0  0  0  0  0  0  0  0  0
   25.3815  -20.9633  -13.5984 C   0  0  0  0  0  0  0  0  0  0  0  0
   25.2070  -19.7482  -13.8487 O   0  0  0  0  0  0  0  0  0  0  0  0
   26.4377  -23.8796  -17.2253 C   0  0  0  0  0  0  0  0  0  0  0  0
   26.1384  -25.0553  -17.9217 C   0  0  0  0  0  0  0  0  0  0  0  0
   25.7064  -21.3188  -12.2491 N   0  0  0  0  0  0  0  0  0  0  0  0
   25.3829  -20.5771  -11.0836 C   0  0  1  0  0  0  0  0  0  0  0  0
   23.9697  -20.1123  -10.9524 C   0  0  0  0  0  0  0  0  0  0  0  0
   23.0816  -20.7232   -9.5319 S   0  0  0  0  0  0  0  0  0  0  0  0
   25.9122  -21.1406   -9.8056 C   0  0  0  0  0  0  0  0  0  0  0  0
   25.1185  -21.9577   -9.2483 O   0  0  0  0  0  0  0  0  0  0  0  0
   27.1364  -20.8478   -9.2219 N   0  0  0  0  0  0  0  0  0  0  0  0
   27.3717  -20.6317   -7.8029 C   0  0  1  0  0  0  0  0  0  0  0  0
   28.3109  -19.5205   -7.5428 C   0  0  0  0  0  0  0  0  0  0  0  0
   28.5945  -19.3544   -6.1127 C   0  0  0  0  0  0  0  0  0  0  0  0
   28.1606  -18.2181   -5.4421 C   0  0  0  0  0  0  0  0  0  0  0  0
   28.4111  -18.0966   -4.0982 C   0  0  0  0  0  0  0  0  0  0  0  0
   29.0806  -19.0518   -3.3558 C   0  0  0  0  0  0  0  0  0  0  0  0
   29.5003  -20.1713   -4.0495 C   0  0  0  0  0  0  0  0  0  0  0  0
   29.2689  -20.3305   -5.3961 C   0  0  0  0  0  0  0  0  0  0  0  0
   26.1427  -20.6747   -6.9823 C   0  0  0  0  0  0  0  0  0  0  0  0
   26.2083  -20.5014   -5.5849 O   0  0  0  0  0  0  0  0  0  0  0  0
   24.9765  -20.8611   -7.4077 O   0  0  0  0  0  0  0  0  0  0  0  0
  1  2  1  0
  2 12  2  0
  3  4  2  0
  3  2  1  0
  4  5  1  0
  5  6  1  0
  5 11  2  0
  6  7  1  0
  7  9  1  0
  7  8  1  6
  9 13  1  0
 10  9  2  0
 12 11  1  0
 13 14  1  0
 14 17  1  0
 14 15  1  1
 15 16  1  0
 17 19  1  0
 18 17  2  0
 19 20  1  0
 20 28  1  0
 20 21  1  6
 22 21  1  0
 23 22  2  0
 24 23  1  0
 25 26  1  0
 25 24  2  0
 26 27  2  0
 27 22  1  0
 28 30  2  0
 28 29  1  0
M  END
$$$$
