YCF.pdb
     RDKit          3D

 30 31  0  0  1  0  0  0  0  0999 V2000
   21.4211  -15.7223  -17.1357 O   0  0  0  0  0  0  0  0  0  0  0  0
   22.0657  -16.6695  -16.3231 C   0  0  0  0  0  0  0  0  0  0  0  0
   21.4107  -17.8137  -15.9164 C   0  0  0  0  0  0  0  0  0  0  0  0
   22.0760  -18.7442  -15.1052 C   0  0  0  0  0  0  0  0  0  0  0  0
   23.3761  -18.5284  -14.7099 C   0  0  0  0  0  0  0  0  0  0  0  0
   24.0287  -19.5415  -13.8555 C   0  0  0  0  0  0  0  0  0  0  0  0
   25.1409  -20.1584  -14.6595 C   0  0  2  0  0  0  0  0  0  0  0  0
   24.5574  -20.8702  -15.7589 N   0  0  0  0  0  0  0  0  0  0  0  0
   26.0575  -20.9828  -13.8469 C   0  0  0  0  0  0  0  0  0  0  0  0
   25.7743  -22.1851  -13.6377 O   0  0  0  0  0  0  0  0  0  0  0  0
   24.0122  -17.3845  -15.1239 C   0  0  0  0  0  0  0  0  0  0  0  0
   23.3662  -16.4441  -15.9332 C   0  0  0  0  0  0  0  0  0  0  0  0
   27.2712  -20.4816  -13.2740 N   0  0  0  0  0  0  0  0  0  0  0  0
   27.9270  -20.9856  -12.1210 C   0  0  1  0  0  0  0  0  0  0  0  0
   29.4193  -21.0265  -12.1596 C   0  0  0  0  0  0  0  0  0  0  0  0
   30.2406  -20.8349  -10.5884 S   0  0  0  0  0  0  0  0  0  0  0  0
   27.4103  -20.4664  -10.8193 C   0  0  0  0  0  0  0  0  0  0  0  0
   27.4926  -19.2055  -10.7115 O   0  0  0  0  0  0  0  0  0  0  0  0
   26.8812  -21.2229   -9.7835 N   0  0  0  0  0  0  0  0  0  0  0  0
   26.4427  -20.7107   -8.4947 C   0  0  1  0  0  0  0  0  0  0  0  0
   27.3118  -19.6296   -7.9845 C   0  0  0  0  0  0  0  0  0  0  0  0
   27.8498  -19.9296   -6.6527 C   0  0  0  0  0  0  0  0  0  0  0  0
   28.3536  -21.1931   -6.3713 C   0  0  0  0  0  0  0  0  0  0  0  0
   28.8787  -21.4433   -5.1283 C   0  0  0  0  0  0  0  0  0  0  0  0
   28.9392  -20.4997   -4.1195 C   0  0  0  0  0  0  0  0  0  0  0  0
   28.4307  -19.2519   -4.4283 C   0  0  0  0  0  0  0  0  0  0  0  0
   27.8961  -18.9613   -5.6620 C   0  0  0  0  0  0  0  0  0  0  0  0
   24.9830  -20.4939   -8.4055 C   0  0  0  0  0  0  0  0  0  0  0  0
   24.2442  -21.0280   -7.3303 O   0  0  0  0  0  0  0  0  0  0  0  0
   24.2798  -19.8537   -9.2248 O   0  0  0  0  0  0  0  0  0  0  0  0
  1  2  1  0
  2 12  2  0
  3  4  2  0
  3  2  1  0
  4  5  1  0
  5  6  1  0
  5 11  2  0
  6  7  1  0
  7  9  1  0
  7  8  1  6
  9 13  1  0
 10  9  2  0
 12 11  1  0
 13 14  1  0
 14 17  1  0
 14 15  1  6
 15 16  1  0
 17 19  1  0
 18 17  2  0
 19 20  1  0
 20 28  1  0
 20 21  1  6
 22 21  1  0
 23 22  2  0
 24 23  1  0
 25 26  1  0
 25 24  2  0
 26 27  2  0
 27 22  1  0
 28 30  2  0
 28 29  1  0
M  END
$$$$
