YCF.pdb
     RDKit          3D

 30 31  0  0  1  0  0  0  0  0999 V2000
   20.8681  -27.4282  -16.7331 O   0  0  0  0  0  0  0  0  0  0  0  0
   22.0132  -26.7242  -16.3255 C   0  0  0  0  0  0  0  0  0  0  0  0
   22.0626  -26.1098  -15.0911 C   0  0  0  0  0  0  0  0  0  0  0  0
   23.2173  -25.4130  -14.7073 C   0  0  0  0  0  0  0  0  0  0  0  0
   24.3028  -25.3351  -15.5491 C   0  0  0  0  0  0  0  0  0  0  0  0
   25.4935  -24.5881  -15.0941 C   0  0  0  0  0  0  0  0  0  0  0  0
   25.2538  -23.1336  -15.3957 C   0  0  2  0  0  0  0  0  0  0  0  0
   25.5091  -22.9171  -16.7899 N   0  0  0  0  0  0  0  0  0  0  0  0
   26.0109  -22.2244  -14.5123 C   0  0  0  0  0  0  0  0  0  0  0  0
   26.9351  -21.5313  -14.9970 O   0  0  0  0  0  0  0  0  0  0  0  0
   24.2362  -25.9522  -16.7735 C   0  0  0  0  0  0  0  0  0  0  0  0
   23.0936  -26.6522  -17.1750 C   0  0  0  0  0  0  0  0  0  0  0  0
   25.7473  -22.0853  -13.1110 N   0  0  0  0  0  0  0  0  0  0  0  0
   26.2475  -21.0668  -12.2590 C   0  0  1  0  0  0  0  0  0  0  0  0
   26.1013  -19.6590  -12.7353 C   0  0  0  0  0  0  0  0  0  0  0  0
   24.5236  -19.2445  -13.4557 S   0  0  0  0  0  0  0  0  0  0  0  0
   25.8899  -21.2142  -10.8162 C   0  0  0  0  0  0  0  0  0  0  0  0
   24.6470  -21.3698  -10.6185 O   0  0  0  0  0  0  0  0  0  0  0  0
   26.7702  -21.1919   -9.7440 N   0  0  0  0  0  0  0  0  0  0  0  0
   26.4043  -21.3091   -8.3411 C   0  0  1  0  0  0  0  0  0  0  0  0
   27.5524  -21.6604   -7.4792 C   0  0  0  0  0  0  0  0  0  0  0  0
   27.9643  -20.5455   -6.6187 C   0  0  0  0  0  0  0  0  0  0  0  0
   28.9424  -19.6570   -7.0470 C   0  0  0  0  0  0  0  0  0  0  0  0
   29.2916  -18.6044   -6.2388 C   0  0  0  0  0  0  0  0  0  0  0  0
   28.7207  -18.3678   -5.0018 C   0  0  0  0  0  0  0  0  0  0  0  0
   27.7508  -19.2679   -4.6021 C   0  0  0  0  0  0  0  0  0  0  0  0
   27.3728  -20.3354   -5.3830 C   0  0  0  0  0  0  0  0  0  0  0  0
   25.5168  -20.2268   -7.8649 C   0  0  0  0  0  0  0  0  0  0  0  0
   24.4989  -20.4959   -6.9276 O   0  0  0  0  0  0  0  0  0  0  0  0
   25.5632  -19.0236   -8.2195 O   0  0  0  0  0  0  0  0  0  0  0  0
  1  2  1  0
  2 12  2  0
  3  4  2  0
  3  2  1  0
  4  5  1  0
  5  6  1  0
  5 11  2  0
  6  7  1  0
  7  9  1  0
  7  8  1  6
  9 13  1  0
 10  9  2  0
 12 11  1  0
 13 14  1  0
 14 17  1  0
 14 15  1  6
 15 16  1  0
 17 19  1  0
 18 17  2  0
 19 20  1  0
 20 28  1  0
 20 21  1  1
 22 21  1  0
 23 22  2  0
 24 23  1  0
 25 26  1  0
 25 24  2  0
 26 27  2  0
 27 22  1  0
 28 30  2  0
 28 29  1  0
M  END
$$$$
