YCF.pdb
     RDKit          3D

 30 31  0  0  1  0  0  0  0  0999 V2000
   32.7177  -26.5780  -24.1706 O   0  0  0  0  0  0  0  0  0  0  0  0
   31.9411  -27.5348  -23.4965 C   0  0  0  0  0  0  0  0  0  0  0  0
   31.4918  -28.6655  -24.1471 C   0  0  0  0  0  0  0  0  0  0  0  0
   30.7180  -29.6060  -23.4520 C   0  0  0  0  0  0  0  0  0  0  0  0
   30.4016  -29.4134  -22.1269 C   0  0  0  0  0  0  0  0  0  0  0  0
   29.5835  -30.4361  -21.4434 C   0  0  0  0  0  0  0  0  0  0  0  0
   30.4658  -31.1140  -20.4305 C   0  0  2  0  0  0  0  0  0  0  0  0
   31.4536  -31.8771  -21.1361 N   0  0  0  0  0  0  0  0  0  0  0  0
   29.7105  -31.9056  -19.4390 C   0  0  0  0  0  0  0  0  0  0  0  0
   29.0425  -32.8922  -19.8261 O   0  0  0  0  0  0  0  0  0  0  0  0
   30.8571  -28.2827  -21.4955 C   0  0  0  0  0  0  0  0  0  0  0  0
   31.6302  -27.3327  -22.1711 C   0  0  0  0  0  0  0  0  0  0  0  0
   29.6958  -31.6078  -18.0377 N   0  0  0  0  0  0  0  0  0  0  0  0
   28.9780  -32.3119  -17.0365 C   0  0  1  0  0  0  0  0  0  0  0  0
   29.6974  -32.5801  -15.7556 C   0  0  0  0  0  0  0  0  0  0  0  0
   28.7832  -33.4992  -14.5310 S   0  0  0  0  0  0  0  0  0  0  0  0
   27.5786  -31.8415  -16.8097 C   0  0  0  0  0  0  0  0  0  0  0  0
   26.9232  -32.5765  -16.0107 O   0  0  0  0  0  0  0  0  0  0  0  0
   26.9832  -30.7255  -17.3799 N   0  0  0  0  0  0  0  0  0  0  0  0
   25.6544  -30.2202  -17.0721 C   0  0  1  0  0  0  0  0  0  0  0  0
   25.5418  -28.7586  -17.2605 C   0  0  0  0  0  0  0  0  0  0  0  0
   25.4406  -28.3859  -18.6761 C   0  0  0  0  0  0  0  0  0  0  0  0
   24.1967  -28.1619  -19.2522 C   0  0  0  0  0  0  0  0  0  0  0  0
   24.1268  -27.7858  -20.5702 C   0  0  0  0  0  0  0  0  0  0  0  0
   25.2369  -27.6125  -21.3759 C   0  0  0  0  0  0  0  0  0  0  0  0
   26.4608  -27.8423  -20.7757 C   0  0  0  0  0  0  0  0  0  0  0  0
   26.5731  -28.2205  -19.4579 C   0  0  0  0  0  0  0  0  0  0  0  0
   24.5603  -31.0514  -17.6178 C   0  0  0  0  0  0  0  0  0  0  0  0
   24.8364  -32.0880  -18.5323 O   0  0  0  0  0  0  0  0  0  0  0  0
   23.3397  -30.9352  -17.3490 O   0  0  0  0  0  0  0  0  0  0  0  0
  1  2  1  0
  2 12  2  0
  3  4  2  0
  3  2  1  0
  4  5  1  0
  5  6  1  0
  5 11  2  0
  6  7  1  0
  7  9  1  0
  7  8  1  6
  9 13  1  0
 10  9  2  0
 12 11  1  0
 13 14  1  0
 14 17  1  0
 14 15  1  1
 15 16  1  0
 17 19  1  0
 18 17  2  0
 19 20  1  0
 20 28  1  0
 20 21  1  6
 22 21  1  0
 23 22  2  0
 24 23  1  0
 25 26  1  0
 25 24  2  0
 26 27  2  0
 27 22  1  0
 28 30  2  0
 28 29  1  0
M  END
$$$$
