YCF.pdb
     RDKit          3D

 30 31  0  0  1  0  0  0  0  0999 V2000
   10.4331  -17.8296   -7.7739 O   0  0  0  0  0  0  0  0  0  0  0  0
   10.9039  -19.0304   -7.2176 C   0  0  0  0  0  0  0  0  0  0  0  0
   11.2835  -19.0941   -5.8927 C   0  0  0  0  0  0  0  0  0  0  0  0
   11.7502  -20.3048   -5.3609 C   0  0  0  0  0  0  0  0  0  0  0  0
   11.8339  -21.4310   -6.1467 C   0  0  0  0  0  0  0  0  0  0  0  0
   12.3326  -22.6799   -5.5350 C   0  0  0  0  0  0  0  0  0  0  0  0
   13.8343  -22.6560   -5.6253 C   0  0  2  0  0  0  0  0  0  0  0  0
   14.1992  -22.6074   -7.0111 N   0  0  0  0  0  0  0  0  0  0  0  0
   14.4787  -23.7606   -4.8871 C   0  0  0  0  0  0  0  0  0  0  0  0
   14.8520  -24.7786   -5.5147 O   0  0  0  0  0  0  0  0  0  0  0  0
   11.4520  -21.3494   -7.4628 C   0  0  0  0  0  0  0  0  0  0  0  0
   10.9838  -20.1513   -8.0122 C   0  0  0  0  0  0  0  0  0  0  0  0
   14.7063  -23.7372   -3.4728 N   0  0  0  0  0  0  0  0  0  0  0  0
   15.3030  -24.7673   -2.7007 C   0  0  1  0  0  0  0  0  0  0  0  0
   16.4861  -25.4562   -3.2974 C   0  0  0  0  0  0  0  0  0  0  0  0
   17.4900  -26.3958   -2.1618 S   0  0  0  0  0  0  0  0  0  0  0  0
   15.5090  -24.4404   -1.2578 C   0  0  0  0  0  0  0  0  0  0  0  0
   16.3856  -23.5447   -1.0643 O   0  0  0  0  0  0  0  0  0  0  0  0
   14.8489  -25.0158   -0.1815 N   0  0  0  0  0  0  0  0  0  0  0  0
   15.0039  -24.6340    1.2134 C   0  0  1  0  0  0  0  0  0  0  0  0
   14.1518  -23.4862    1.5891 C   0  0  0  0  0  0  0  0  0  0  0  0
   14.2792  -23.1396    3.0092 C   0  0  0  0  0  0  0  0  0  0  0  0
   15.1810  -22.1627    3.4115 C   0  0  0  0  0  0  0  0  0  0  0  0
   15.2630  -21.8335    4.7413 C   0  0  0  0  0  0  0  0  0  0  0  0
   14.4904  -22.4238    5.7243 C   0  0  0  0  0  0  0  0  0  0  0  0
   13.6024  -23.3921    5.2946 C   0  0  0  0  0  0  0  0  0  0  0  0
   13.4901  -23.7504    3.9712 C   0  0  0  0  0  0  0  0  0  0  0  0
   15.0295  -25.7814    2.1453 C   0  0  0  0  0  0  0  0  0  0  0  0
   15.9699  -25.8310    3.1943 O   0  0  0  0  0  0  0  0  0  0  0  0
   14.2685  -26.7790    2.1100 O   0  0  0  0  0  0  0  0  0  0  0  0
  1  2  1  0
  2 12  2  0
  3  4  2  0
  3  2  1  0
  4  5  1  0
  5  6  1  0
  5 11  2  0
  6  7  1  0
  7  9  1  0
  7  8  1  6
  9 13  1  0
 10  9  2  0
 12 11  1  0
 13 14  1  0
 14 17  1  0
 14 15  1  6
 15 16  1  0
 17 19  1  0
 18 17  2  0
 19 20  1  0
 20 28  1  0
 20 21  1  1
 22 21  1  0
 23 22  2  0
 24 23  1  0
 25 26  1  0
 25 24  2  0
 26 27  2  0
 27 22  1  0
 28 30  2  0
 28 29  1  0
M  END
$$$$
