YCF.pdb
     RDKit          3D

 30 31  0  0  1  0  0  0  0  0999 V2000
   22.6188  -13.4965  -16.7271 O   0  0  0  0  0  0  0  0  0  0  0  0
   22.7606  -14.6843  -15.9910 C   0  0  0  0  0  0  0  0  0  0  0  0
   23.9486  -14.9849  -15.3570 C   0  0  0  0  0  0  0  0  0  0  0  0
   24.0652  -16.1772  -14.6282 C   0  0  0  0  0  0  0  0  0  0  0  0
   23.0067  -17.0516  -14.5382 C   0  0  0  0  0  0  0  0  0  0  0  0
   23.1845  -18.2931  -13.7574 C   0  0  0  0  0  0  0  0  0  0  0  0
   24.1645  -19.1569  -14.5038 C   0  0  2  0  0  0  0  0  0  0  0  0
   23.5467  -19.5824  -15.7258 N   0  0  0  0  0  0  0  0  0  0  0  0
   24.6910  -20.2729  -13.6928 C   0  0  0  0  0  0  0  0  0  0  0  0
   23.9474  -21.2494  -13.4421 O   0  0  0  0  0  0  0  0  0  0  0  0
   21.8322  -16.7364  -15.1752 C   0  0  0  0  0  0  0  0  0  0  0  0
   21.6957  -15.5523  -15.9072 C   0  0  0  0  0  0  0  0  0  0  0  0
   26.0233  -20.3059  -13.1670 N   0  0  0  0  0  0  0  0  0  0  0  0
   26.5942  -21.3468  -12.3898 C   0  0  1  0  0  0  0  0  0  0  0  0
   27.6055  -22.2137  -13.0651 C   0  0  0  0  0  0  0  0  0  0  0  0
   29.2512  -21.5370  -13.1831 S   0  0  0  0  0  0  0  0  0  0  0  0
   27.0194  -20.9510  -11.0137 C   0  0  0  0  0  0  0  0  0  0  0  0
   28.2171  -20.5383  -10.9556 O   0  0  0  0  0  0  0  0  0  0  0  0
   26.2421  -21.0028   -9.8656 N   0  0  0  0  0  0  0  0  0  0  0  0
   26.7375  -20.9353   -8.4997 C   0  0  1  0  0  0  0  0  0  0  0  0
   27.7684  -19.8919   -8.3175 C   0  0  0  0  0  0  0  0  0  0  0  0
   28.1547  -19.7306   -6.9111 C   0  0  0  0  0  0  0  0  0  0  0  0
   29.0590  -20.6103   -6.3299 C   0  0  0  0  0  0  0  0  0  0  0  0
   29.4288  -20.4237   -5.0216 C   0  0  0  0  0  0  0  0  0  0  0  0
   28.9491  -19.3962   -4.2305 C   0  0  0  0  0  0  0  0  0  0  0  0
   28.0511  -18.5368   -4.8353 C   0  0  0  0  0  0  0  0  0  0  0  0
   27.6554  -18.6898   -6.1439 C   0  0  0  0  0  0  0  0  0  0  0  0
   25.6736  -21.0105   -7.4761 C   0  0  0  0  0  0  0  0  0  0  0  0
   25.9545  -21.5053   -6.1863 O   0  0  0  0  0  0  0  0  0  0  0  0
   24.4758  -20.6676   -7.6288 O   0  0  0  0  0  0  0  0  0  0  0  0
  1  2  1  0
  2 12  2  0
  3  4  2  0
  3  2  1  0
  4  5  1  0
  5  6  1  0
  5 11  2  0
  6  7  1  0
  7  9  1  0
  7  8  1  6
  9 13  1  0
 10  9  2  0
 12 11  1  0
 13 14  1  0
 14 17  1  0
 14 15  1  6
 15 16  1  0
 17 19  1  0
 18 17  2  0
 19 20  1  0
 20 28  1  0
 20 21  1  6
 22 21  1  0
 23 22  2  0
 24 23  1  0
 25 26  1  0
 25 24  2  0
 26 27  2  0
 27 22  1  0
 28 30  2  0
 28 29  1  0
M  END
$$$$
