YCF.pdb
     RDKit          3D

 30 31  0  0  1  0  0  0  0  0999 V2000
   31.3378  -16.9506  -19.2987 O   0  0  0  0  0  0  0  0  0  0  0  0
   30.3372  -16.8989  -18.3143 C   0  0  0  0  0  0  0  0  0  0  0  0
   29.9910  -18.0269  -17.5991 C   0  0  0  0  0  0  0  0  0  0  0  0
   28.9887  -17.9494  -16.6215 C   0  0  0  0  0  0  0  0  0  0  0  0
   28.3461  -16.7597  -16.3673 C   0  0  0  0  0  0  0  0  0  0  0  0
   27.2979  -16.7349  -15.3265 C   0  0  0  0  0  0  0  0  0  0  0  0
   26.0902  -17.4348  -15.8882 C   0  0  2  0  0  0  0  0  0  0  0  0
   25.4663  -16.5597  -16.8374 N   0  0  0  0  0  0  0  0  0  0  0  0
   25.1659  -17.9256  -14.8466 C   0  0  0  0  0  0  0  0  0  0  0  0
   24.4038  -17.1126  -14.2742 O   0  0  0  0  0  0  0  0  0  0  0  0
   28.7034  -15.6475  -17.0884 C   0  0  0  0  0  0  0  0  0  0  0  0
   29.7005  -15.7039  -18.0678 C   0  0  0  0  0  0  0  0  0  0  0  0
   25.0875  -19.2985  -14.4449 N   0  0  0  0  0  0  0  0  0  0  0  0
   24.2400  -19.8329  -13.4401 C   0  0  1  0  0  0  0  0  0  0  0  0
   22.9866  -20.5006  -13.9021 C   0  0  0  0  0  0  0  0  0  0  0  0
   22.3200  -21.7402  -12.8071 S   0  0  0  0  0  0  0  0  0  0  0  0
   24.9349  -20.6138  -12.3732 C   0  0  0  0  0  0  0  0  0  0  0  0
   25.9366  -21.2656  -12.7974 O   0  0  0  0  0  0  0  0  0  0  0  0
   24.5800  -20.6726  -11.0332 N   0  0  0  0  0  0  0  0  0  0  0  0
   25.2737  -21.4288  -10.0024 C   0  0  1  0  0  0  0  0  0  0  0  0
   26.6949  -21.0448   -9.8718 C   0  0  0  0  0  0  0  0  0  0  0  0
   26.9407  -20.2150   -8.6868 C   0  0  0  0  0  0  0  0  0  0  0  0
   26.6948  -18.8485   -8.7279 C   0  0  0  0  0  0  0  0  0  0  0  0
   26.9037  -18.0960   -7.5994 C   0  0  0  0  0  0  0  0  0  0  0  0
   27.3520  -18.6218   -6.4018 C   0  0  0  0  0  0  0  0  0  0  0  0
   27.5881  -19.9838   -6.3907 C   0  0  0  0  0  0  0  0  0  0  0  0
   27.3910  -20.7724   -7.5004 C   0  0  0  0  0  0  0  0  0  0  0  0
   24.5021  -21.5742   -8.7497 C   0  0  0  0  0  0  0  0  0  0  0  0
   25.0318  -22.2984   -7.6624 O   0  0  0  0  0  0  0  0  0  0  0  0
   23.3605  -21.1026   -8.5262 O   0  0  0  0  0  0  0  0  0  0  0  0
  1  2  1  0
  2 12  2  0
  3  4  2  0
  3  2  1  0
  4  5  1  0
  5  6  1  0
  5 11  2  0
  6  7  1  0
  7  9  1  0
  7  8  1  6
  9 13  1  0
 10  9  2  0
 12 11  1  0
 13 14  1  0
 14 17  1  0
 14 15  1  6
 15 16  1  0
 17 19  1  0
 18 17  2  0
 19 20  1  0
 20 28  1  0
 20 21  1  1
 22 21  1  0
 23 22  2  0
 24 23  1  0
 25 26  1  0
 25 24  2  0
 26 27  2  0
 27 22  1  0
 28 30  2  0
 28 29  1  0
M  END
$$$$
