YCF.pdb
     RDKit          3D

 30 31  0  0  1  0  0  0  0  0999 V2000
   17.7273  -13.3152  -24.5711 O   0  0  0  0  0  0  0  0  0  0  0  0
   17.8563  -12.6914  -23.3193 C   0  0  0  0  0  0  0  0  0  0  0  0
   18.6662  -11.5856  -23.1612 C   0  0  0  0  0  0  0  0  0  0  0  0
   18.7783  -10.9807  -21.9011 C   0  0  0  0  0  0  0  0  0  0  0  0
   18.0888  -11.4782  -20.8195 C   0  0  0  0  0  0  0  0  0  0  0  0
   18.2435  -10.8019  -19.5152 C   0  0  0  0  0  0  0  0  0  0  0  0
   19.4055  -11.4468  -18.8097 C   0  0  2  0  0  0  0  0  0  0  0  0
   19.0535  -12.8055  -18.5164 N   0  0  0  0  0  0  0  0  0  0  0  0
   19.8598  -10.6897  -17.6262 C   0  0  0  0  0  0  0  0  0  0  0  0
   19.7328  -11.1999  -16.4891 O   0  0  0  0  0  0  0  0  0  0  0  0
   17.2876  -12.5790  -20.9950 C   0  0  0  0  0  0  0  0  0  0  0  0
   17.1623  -13.1969  -22.2437 C   0  0  0  0  0  0  0  0  0  0  0  0
   20.4469   -9.3850  -17.7020 N   0  0  0  0  0  0  0  0  0  0  0  0
   20.9623   -8.6312  -16.6160 C   0  0  1  0  0  0  0  0  0  0  0  0
   21.9164   -9.3303  -15.7043 C   0  0  0  0  0  0  0  0  0  0  0  0
   22.5012   -8.3766  -14.3156 S   0  0  0  0  0  0  0  0  0  0  0  0
   21.4202   -7.2521  -16.9616 C   0  0  0  0  0  0  0  0  0  0  0  0
   22.1284   -7.2049  -18.0126 O   0  0  0  0  0  0  0  0  0  0  0  0
   21.1423   -6.0914  -16.2541 N   0  0  0  0  0  0  0  0  0  0  0  0
   21.2041   -4.7379  -16.7831 C   0  0  1  0  0  0  0  0  0  0  0  0
   20.6367   -4.6304  -18.1436 C   0  0  0  0  0  0  0  0  0  0  0  0
   20.7483   -3.2721  -18.6875 C   0  0  0  0  0  0  0  0  0  0  0  0
   19.6174   -2.4756  -18.8146 C   0  0  0  0  0  0  0  0  0  0  0  0
   19.7488   -1.1981  -19.2984 C   0  0  0  0  0  0  0  0  0  0  0  0
   20.9582   -0.6433  -19.6743 C   0  0  0  0  0  0  0  0  0  0  0  0
   22.0657   -1.4589  -19.5369 C   0  0  0  0  0  0  0  0  0  0  0  0
   21.9759   -2.7446  -19.0561 C   0  0  0  0  0  0  0  0  0  0  0  0
   20.8074   -3.6992  -15.8088 C   0  0  0  0  0  0  0  0  0  0  0  0
   21.6318   -2.5785  -15.5813 O   0  0  0  0  0  0  0  0  0  0  0  0
   19.7609   -3.6975  -15.1157 O   0  0  0  0  0  0  0  0  0  0  0  0
  1  2  1  0
  2 12  2  0
  3  4  2  0
  3  2  1  0
  4  5  1  0
  5  6  1  0
  5 11  2  0
  6  7  1  0
  7  9  1  0
  7  8  1  1
  9 13  1  0
 10  9  2  0
 12 11  1  0
 13 14  1  0
 14 17  1  0
 14 15  1  6
 15 16  1  0
 17 19  1  0
 18 17  2  0
 19 20  1  0
 20 28  1  0
 20 21  1  6
 22 21  1  0
 23 22  2  0
 24 23  1  0
 25 26  1  0
 25 24  2  0
 26 27  2  0
 27 22  1  0
 28 30  2  0
 28 29  1  0
M  END
$$$$
