KWG.pdb
     RDKit          3D

 28 29  0  0  1  0  0  0  0  0999 V2000
   27.8291  -23.7403  -16.1627 N   0  0  0  0  0  0  0  0  0  0  0  0
   26.4775  -23.3276  -16.0592 C   0  0  1  0  0  0  0  0  0  0  0  0
   25.4849  -24.3905  -16.3971 C   0  0  0  0  0  0  0  0  0  0  0  0
   25.6439  -24.9172  -17.7629 C   0  0  0  0  0  0  0  0  0  0  0  0
   26.6084  -26.0494  -17.8695 C   0  0  0  0  0  0  0  0  0  0  0  0
   25.8849  -27.2683  -18.3960 C   0  0  0  0  0  0  0  0  0  0  0  0
   24.6657  -27.5313  -17.6271 N   0  0  0  0  0  0  0  0  0  0  0  0
   26.1261  -22.8351  -14.6942 C   0  0  0  0  0  0  0  0  0  0  0  0
   26.3296  -23.5911  -13.7265 O   0  0  0  0  0  0  0  0  0  0  0  0
   25.5824  -21.5478  -14.5478 N   0  0  0  0  0  0  0  0  0  0  0  0
   25.2575  -20.9514  -13.2722 C   0  0  1  0  0  0  0  0  0  0  0  0
   26.2239  -19.9114  -12.8686 C   0  0  0  0  0  0  0  0  0  0  0  0
   27.3537  -20.3434  -12.0412 C   0  0  0  0  0  0  0  0  0  0  0  0
   28.6553  -20.6482  -12.3168 C   0  0  0  0  0  0  0  0  0  0  0  0
   29.3427  -20.9898  -11.2010 N   0  0  0  0  0  0  0  0  0  0  0  0
   28.4657  -20.9046  -10.1823 C   0  0  0  0  0  0  0  0  0  0  0  0
   28.6557  -21.1519   -8.8262 C   0  0  0  0  0  0  0  0  0  0  0  0
   27.5951  -20.9985   -7.9643 C   0  0  0  0  0  0  0  0  0  0  0  0
   26.3472  -20.6062   -8.4047 C   0  0  0  0  0  0  0  0  0  0  0  0
   26.1889  -20.3676   -9.7565 C   0  0  0  0  0  0  0  0  0  0  0  0
   27.2255  -20.5096  -10.6529 C   0  0  0  0  0  0  0  0  0  0  0  0
   23.8348  -20.5161  -13.2219 C   0  0  0  0  0  0  0  0  0  0  0  0
   23.3909  -19.8042  -14.1727 O   0  0  0  0  0  0  0  0  0  0  0  0
   22.9875  -20.8799  -12.1464 N   0  0  0  0  0  0  0  0  0  0  0  0
   21.6681  -20.2878  -12.0614 C   0  0  0  0  0  0  0  0  0  0  0  0
   20.7117  -21.2178  -12.7236 C   0  0  0  0  0  0  0  0  0  0  0  0
   19.4739  -21.0508  -12.7007 O   0  0  0  0  0  0  0  0  0  0  0  0
   21.1749  -22.3381  -13.4112 O   0  0  0  0  0  0  0  0  0  0  0  0
  2  1  1  1
  2  3  1  0
  3  4  1  0
  5  6  1  0
  5  4  1  0
  7  6  1  0
  8  9  2  0
  8  2  1  0
 10  8  1  0
 11 10  1  0
 11 12  1  6
 12 13  1  0
 13 21  1  0
 13 14  2  0
 14 15  1  0
 16 15  1  0
 16 17  2  0
 18 17  1  0
 19 18  2  0
 20 21  2  0
 20 19  1  0
 21 16  1  0
 22 24  1  0
 22 11  1  0
 23 22  2  0
 25 26  1  0
 25 24  1  0
 26 28  1  0
 27 26  2  0
M  END
$$$$
