KWG.pdb
     RDKit          3D

 28 29  0  0  1  0  0  0  0  0999 V2000
   26.0034  -19.3111  -14.4086 N   0  0  0  0  0  0  0  0  0  0  0  0
   26.2885  -20.6948  -14.2980 C   0  0  1  0  0  0  0  0  0  0  0  0
   27.6679  -21.0722  -14.7264 C   0  0  0  0  0  0  0  0  0  0  0  0
   27.8831  -20.9282  -16.1759 C   0  0  0  0  0  0  0  0  0  0  0  0
   29.0333  -20.0500  -16.5357 C   0  0  0  0  0  0  0  0  0  0  0  0
   29.1260  -19.9475  -18.0415 C   0  0  0  0  0  0  0  0  0  0  0  0
   30.1756  -19.0072  -18.4427 N   0  0  0  0  0  0  0  0  0  0  0  0
   26.1181  -21.2109  -12.9073 C   0  0  0  0  0  0  0  0  0  0  0  0
   26.4290  -22.3941  -12.6778 O   0  0  0  0  0  0  0  0  0  0  0  0
   25.6172  -20.3533  -11.9134 N   0  0  0  0  0  0  0  0  0  0  0  0
   25.1128  -20.8076  -10.6376 C   0  0  1  0  0  0  0  0  0  0  0  0
   25.7549  -20.1253   -9.4973 C   0  0  0  0  0  0  0  0  0  0  0  0
   27.1390  -20.5009   -9.1955 C   0  0  0  0  0  0  0  0  0  0  0  0
   28.0866  -21.2119   -9.8734 C   0  0  0  0  0  0  0  0  0  0  0  0
   29.2516  -21.2863   -9.1866 N   0  0  0  0  0  0  0  0  0  0  0  0
   29.0518  -20.6091   -8.0396 C   0  0  0  0  0  0  0  0  0  0  0  0
   29.9256  -20.3822   -6.9806 C   0  0  0  0  0  0  0  0  0  0  0  0
   29.4890  -19.6539   -5.8988 C   0  0  0  0  0  0  0  0  0  0  0  0
   28.2093  -19.1412   -5.8323 C   0  0  0  0  0  0  0  0  0  0  0  0
   27.3644  -19.3826   -6.8986 C   0  0  0  0  0  0  0  0  0  0  0  0
   27.7626  -20.1071   -8.0008 C   0  0  0  0  0  0  0  0  0  0  0  0
   23.6247  -20.7874  -10.6027 C   0  0  0  0  0  0  0  0  0  0  0  0
   23.0451  -21.1132   -9.5230 O   0  0  0  0  0  0  0  0  0  0  0  0
   22.8631  -20.4163  -11.7382 N   0  0  0  0  0  0  0  0  0  0  0  0
   21.4233  -20.3146  -11.6145 C   0  0  0  0  0  0  0  0  0  0  0  0
   20.8172  -21.2160  -12.6334 C   0  0  0  0  0  0  0  0  0  0  0  0
   19.5849  -21.3005  -12.8202 O   0  0  0  0  0  0  0  0  0  0  0  0
   21.6239  -22.0197  -13.4369 O   0  0  0  0  0  0  0  0  0  0  0  0
  2  1  1  1
  2  3  1  0
  3  4  1  0
  5  6  1  0
  5  4  1  0
  7  6  1  0
  8  9  2  0
  8  2  1  0
 10  8  1  0
 11 10  1  0
 11 12  1  1
 12 13  1  0
 13 21  1  0
 13 14  2  0
 14 15  1  0
 16 15  1  0
 16 17  2  0
 18 17  1  0
 19 18  2  0
 20 21  2  0
 20 19  1  0
 21 16  1  0
 22 24  1  0
 22 11  1  0
 23 22  2  0
 25 26  1  0
 25 24  1  0
 26 28  1  0
 27 26  2  0
M  END
$$$$
