KWG.pdb
     RDKit          3D

 28 29  0  0  1  0  0  0  0  0999 V2000
   18.5832  -10.9522    7.5866 N   0  0  0  0  0  0  0  0  0  0  0  0
   19.3904  -12.1160    7.6287 C   0  0  1  0  0  0  0  0  0  0  0  0
   20.2083  -12.2498    8.8705 C   0  0  0  0  0  0  0  0  0  0  0  0
   21.1810  -11.1579    9.0428 C   0  0  0  0  0  0  0  0  0  0  0  0
   21.9315  -11.2096   10.3303 C   0  0  0  0  0  0  0  0  0  0  0  0
   22.8435  -10.0068   10.4204 C   0  0  0  0  0  0  0  0  0  0  0  0
   23.5249   -9.9573   11.7165 N   0  0  0  0  0  0  0  0  0  0  0  0
   18.5972  -13.3748    7.5034 C   0  0  0  0  0  0  0  0  0  0  0  0
   17.3788  -13.3287    7.7543 O   0  0  0  0  0  0  0  0  0  0  0  0
   19.2449  -14.5582    7.1109 N   0  0  0  0  0  0  0  0  0  0  0  0
   18.5740  -15.8280    6.9502 C   0  0  1  0  0  0  0  0  0  0  0  0
   18.6411  -16.3349    5.5657 C   0  0  0  0  0  0  0  0  0  0  0  0
   18.0214  -15.5069    4.5273 C   0  0  0  0  0  0  0  0  0  0  0  0
   17.5421  -14.2291    4.5089 C   0  0  0  0  0  0  0  0  0  0  0  0
   17.0652  -13.8845    3.2890 N   0  0  0  0  0  0  0  0  0  0  0  0
   17.2397  -14.9638    2.5023 C   0  0  0  0  0  0  0  0  0  0  0  0
   16.9193  -15.1433    1.1601 C   0  0  0  0  0  0  0  0  0  0  0  0
   17.1933  -16.3520    0.5639 C   0  0  0  0  0  0  0  0  0  0  0  0
   17.7770  -17.3926    1.2577 C   0  0  0  0  0  0  0  0  0  0  0  0
   18.0840  -17.1849    2.5888 C   0  0  0  0  0  0  0  0  0  0  0  0
   17.8260  -15.9894    3.2234 C   0  0  0  0  0  0  0  0  0  0  0  0
   19.0110  -16.8084    7.9817 C   0  0  0  0  0  0  0  0  0  0  0  0
   20.2187  -16.7765    8.3667 O   0  0  0  0  0  0  0  0  0  0  0  0
   18.1124  -17.7579    8.5276 N   0  0  0  0  0  0  0  0  0  0  0  0
   18.6089  -18.7230    9.4871 C   0  0  0  0  0  0  0  0  0  0  0  0
   17.4320  -19.3262   10.1721 C   0  0  0  0  0  0  0  0  0  0  0  0
   16.2570  -18.9640    9.9516 O   0  0  0  0  0  0  0  0  0  0  0  0
   17.6031  -20.3438   11.1089 O   0  0  0  0  0  0  0  0  0  0  0  0
  2  1  1  1
  2  3  1  0
  3  4  1  0
  5  6  1  0
  5  4  1  0
  7  6  1  0
  8  9  2  0
  8  2  1  0
 10  8  1  0
 11 10  1  0
 11 12  1  6
 12 13  1  0
 13 21  1  0
 13 14  2  0
 14 15  1  0
 16 15  1  0
 16 17  2  0
 18 17  1  0
 19 18  2  0
 20 21  2  0
 20 19  1  0
 21 16  1  0
 22 24  1  0
 22 11  1  0
 23 22  2  0
 25 26  1  0
 25 24  1  0
 26 28  1  0
 27 26  2  0
M  END
$$$$
