KWG.pdb
     RDKit          3D

 28 29  0  0  1  0  0  0  0  0999 V2000
   22.0822  -20.2616  -12.4974 N   0  0  0  0  0  0  0  0  0  0  0  0
   21.9065  -20.9466  -13.7253 C   0  0  1  0  0  0  0  0  0  0  0  0
   21.0264  -20.2382  -14.7014 C   0  0  0  0  0  0  0  0  0  0  0  0
   19.6483  -20.7564  -14.7195 C   0  0  0  0  0  0  0  0  0  0  0  0
   19.3149  -21.6382  -13.5642 C   0  0  0  0  0  0  0  0  0  0  0  0
   17.8891  -22.1216  -13.7055 C   0  0  0  0  0  0  0  0  0  0  0  0
   17.4969  -22.9498  -12.5622 N   0  0  0  0  0  0  0  0  0  0  0  0
   23.1962  -21.2119  -14.4293 C   0  0  0  0  0  0  0  0  0  0  0  0
   23.4082  -20.6268  -15.5073 O   0  0  0  0  0  0  0  0  0  0  0  0
   24.1189  -22.1045  -13.8583 N   0  0  0  0  0  0  0  0  0  0  0  0
   25.4070  -22.4106  -14.4374 C   0  0  1  0  0  0  0  0  0  0  0  0
   26.5309  -21.9774  -13.5844 C   0  0  0  0  0  0  0  0  0  0  0  0
   26.5995  -20.5511  -13.2545 C   0  0  0  0  0  0  0  0  0  0  0  0
   26.3125  -19.8342  -12.1291 C   0  0  0  0  0  0  0  0  0  0  0  0
   26.5521  -18.5117  -12.2961 N   0  0  0  0  0  0  0  0  0  0  0  0
   27.0032  -18.3712  -13.5574 C   0  0  0  0  0  0  0  0  0  0  0  0
   27.3919  -17.2206  -14.2367 C   0  0  0  0  0  0  0  0  0  0  0  0
   27.8203  -17.3265  -15.5392 C   0  0  0  0  0  0  0  0  0  0  0  0
   27.8761  -18.5408  -16.1930 C   0  0  0  0  0  0  0  0  0  0  0  0
   27.4841  -19.6658  -15.4930 C   0  0  0  0  0  0  0  0  0  0  0  0
   27.0489  -19.6028  -14.1873 C   0  0  0  0  0  0  0  0  0  0  0  0
   25.4834  -23.8320  -14.8734 C   0  0  0  0  0  0  0  0  0  0  0  0
   24.8291  -24.6972  -14.2170 O   0  0  0  0  0  0  0  0  0  0  0  0
   26.2628  -24.2222  -15.9903 N   0  0  0  0  0  0  0  0  0  0  0  0
   26.3221  -25.6246  -16.3488 C   0  0  0  0  0  0  0  0  0  0  0  0
   27.2208  -25.7519  -17.5295 C   0  0  0  0  0  0  0  0  0  0  0  0
   27.6060  -26.8531  -17.9758 O   0  0  0  0  0  0  0  0  0  0  0  0
   27.6771  -24.6169  -18.1973 O   0  0  0  0  0  0  0  0  0  0  0  0
  2  1  1  1
  2  3  1  0
  3  4  1  0
  5  6  1  0
  5  4  1  0
  7  6  1  0
  8  9  2  0
  8  2  1  0
 10  8  1  0
 11 10  1  0
 11 12  1  1
 12 13  1  0
 13 21  1  0
 13 14  2  0
 14 15  1  0
 16 15  1  0
 16 17  2  0
 18 17  1  0
 19 18  2  0
 20 21  2  0
 20 19  1  0
 21 16  1  0
 22 24  1  0
 22 11  1  0
 23 22  2  0
 25 26  1  0
 25 24  1  0
 26 28  1  0
 27 26  2  0
M  END
$$$$
