KWG.pdb
     RDKit          3D

 28 29  0  0  1  0  0  0  0  0999 V2000
   27.6843  -18.7669  -12.2806 N   0  0  0  0  0  0  0  0  0  0  0  0
   27.3590  -20.1209  -12.5430 C   0  0  1  0  0  0  0  0  0  0  0  0
   28.4494  -20.8955  -13.2064 C   0  0  0  0  0  0  0  0  0  0  0  0
   28.5982  -20.5764  -14.6361 C   0  0  0  0  0  0  0  0  0  0  0  0
   27.4894  -19.7496  -15.1933 C   0  0  0  0  0  0  0  0  0  0  0  0
   27.7631  -19.4745  -16.6548 C   0  0  0  0  0  0  0  0  0  0  0  0
   28.6667  -18.3325  -16.8165 N   0  0  0  0  0  0  0  0  0  0  0  0
   26.9895  -20.8764  -11.3094 C   0  0  0  0  0  0  0  0  0  0  0  0
   27.2079  -22.1017  -11.2835 O   0  0  0  0  0  0  0  0  0  0  0  0
   26.4130  -20.1873  -10.2292 N   0  0  0  0  0  0  0  0  0  0  0  0
   25.4251  -20.7604   -9.3437 C   0  0  1  0  0  0  0  0  0  0  0  0
   25.7496  -20.5514   -7.9192 C   0  0  0  0  0  0  0  0  0  0  0  0
   27.1456  -20.2428   -7.5970 C   0  0  0  0  0  0  0  0  0  0  0  0
   28.2574  -20.0249   -8.3582 C   0  0  0  0  0  0  0  0  0  0  0  0
   29.3457  -19.7534   -7.5990 N   0  0  0  0  0  0  0  0  0  0  0  0
   28.9278  -19.7975   -6.3194 C   0  0  0  0  0  0  0  0  0  0  0  0
   29.6462  -19.5950   -5.1449 C   0  0  0  0  0  0  0  0  0  0  0  0
   28.9951  -19.6965   -3.9378 C   0  0  0  0  0  0  0  0  0  0  0  0
   27.6496  -19.9935   -3.8567 C   0  0  0  0  0  0  0  0  0  0  0  0
   26.9626  -20.1892   -5.0395 C   0  0  0  0  0  0  0  0  0  0  0  0
   27.5774  -20.0964   -6.2691 C   0  0  0  0  0  0  0  0  0  0  0  0
   24.0472  -20.3444   -9.7239 C   0  0  0  0  0  0  0  0  0  0  0  0
   23.7539  -19.1124   -9.6628 O   0  0  0  0  0  0  0  0  0  0  0  0
   23.0789  -21.2890  -10.1446 N   0  0  0  0  0  0  0  0  0  0  0  0
   21.7709  -21.2776   -9.5220 C   0  0  0  0  0  0  0  0  0  0  0  0
   20.7600  -21.0773  -10.5973 C   0  0  0  0  0  0  0  0  0  0  0  0
   20.7922  -20.1126  -11.3902 O   0  0  0  0  0  0  0  0  0  0  0  0
   19.7134  -21.9827  -10.7624 O   0  0  0  0  0  0  0  0  0  0  0  0
  2  1  1  1
  2  3  1  0
  3  4  1  0
  5  6  1  0
  5  4  1  0
  7  6  1  0
  8  9  2  0
  8  2  1  0
 10  8  1  0
 11 10  1  0
 11 12  1  1
 12 13  1  0
 13 21  1  0
 13 14  2  0
 14 15  1  0
 16 15  1  0
 16 17  2  0
 18 17  1  0
 19 18  2  0
 20 21  2  0
 20 19  1  0
 21 16  1  0
 22 24  1  0
 22 11  1  0
 23 22  2  0
 25 26  1  0
 25 24  1  0
 26 28  1  0
 27 26  2  0
M  END
$$$$
