LRG.pdb
     RDKit          3D

 24 23  0  0  1  0  0  0  0  0999 V2000
   27.5122  -14.9732  -16.5356 C   0  0  0  0  0  0  0  0  0  0  0  0
   26.9020  -13.6215  -16.4131 C   0  0  1  0  0  0  0  0  0  0  0  0
   27.9866  -12.5958  -16.1788 C   0  0  0  0  0  0  0  0  0  0  0  0
   25.9634  -13.2174  -17.4929 C   0  0  0  0  0  0  0  0  0  0  0  0
   25.4218  -11.8263  -17.4196 C   0  0  2  0  0  0  0  0  0  0  0  0
   24.6295  -11.6309  -16.2144 N   0  0  0  0  0  0  0  0  0  0  0  0
   24.4516  -11.7133  -18.5729 C   0  0  0  0  0  0  0  0  0  0  0  0
   24.8557  -11.8134  -19.7639 O   0  0  0  0  0  0  0  0  0  0  0  0
   18.3395  -15.7930  -16.6259 N   0  0  0  0  0  0  0  0  0  0  0  0
   19.1190  -14.6851  -16.2169 C   0  0  0  0  0  0  0  0  0  0  0  0
   18.8584  -14.1655  -15.0580 N   0  0  0  0  0  0  0  0  0  0  0  0
   20.1559  -14.1516  -17.0393 N   0  0  0  0  0  0  0  0  0  0  0  0
   20.4525  -14.7397  -18.3361 C   0  0  0  0  0  0  0  0  0  0  0  0
   21.4785  -13.9596  -19.0861 C   0  0  0  0  0  0  0  0  0  0  0  0
   21.0835  -12.5556  -19.3792 C   0  0  0  0  0  0  0  0  0  0  0  0
   22.1337  -11.5196  -19.4261 C   0  0  2  0  0  0  0  0  0  0  0  0
   23.0678  -11.4918  -18.3274 N   0  0  0  0  0  0  0  0  0  0  0  0
   21.4361  -10.1936  -19.4291 C   0  0  0  0  0  0  0  0  0  0  0  0
   20.4733  -10.0157  -20.1871 O   0  0  0  0  0  0  0  0  0  0  0  0
   19.3577  -13.3389  -14.7206 N   0  0  0  0  0  0  0  0  0  0  0  0
   21.8842   -9.1813  -18.5741 C   0  0  0  0  0  0  0  0  0  0  0  0
   21.3691   -7.8259  -18.5965 C   0  0  0  0  0  0  0  0  0  0  0  0
   21.9519   -7.0059  -19.6525 O   0  0  0  0  0  0  0  0  0  0  0  0
   22.7036   -7.5026  -20.5196 O   0  0  0  0  0  0  0  0  0  0  0  0
  2  1  1  6
  2  3  1  0
  4  2  1  0
  4  5  1  0
  5  6  1  1
  7  5  1  0
  7  8  2  0
 10  9  1  0
 11 10  2  0
 12 10  1  0
 13 14  1  0
 13 12  1  0
 14 15  1  0
 16 15  1  1
 16 17  1  0
 17  7  1  0
 18 16  1  0
 19 18  2  0
 20 18  1  0
 21 20  1  0
 22 24  1  0
 22 21  1  0
 23 22  2  0
M  END
$$$$
