LRG.pdb
     RDKit          3D

 24 23  0  0  1  0  0  0  0  0999 V2000
   26.1547  -18.7428  -19.8938 C   0  0  0  0  0  0  0  0  0  0  0  0
   24.8563  -18.2668  -19.3442 C   0  0  1  0  0  0  0  0  0  0  0  0
   23.9989  -17.7281  -20.4658 C   0  0  0  0  0  0  0  0  0  0  0  0
   24.1172  -19.2171  -18.4720 C   0  0  0  0  0  0  0  0  0  0  0  0
   22.7742  -18.7728  -17.9895 C   0  0  2  0  0  0  0  0  0  0  0  0
   22.8407  -17.4495  -17.3870 N   0  0  0  0  0  0  0  0  0  0  0  0
   22.4194  -19.7193  -16.8659 C   0  0  0  0  0  0  0  0  0  0  0  0
   22.4511  -20.9679  -17.0443 O   0  0  0  0  0  0  0  0  0  0  0  0
   26.4804  -20.4526  -12.9650 N   0  0  0  0  0  0  0  0  0  0  0  0
   26.2839  -21.3255  -11.8687 C   0  0  0  0  0  0  0  0  0  0  0  0
   27.2639  -22.1109  -11.5464 N   0  0  0  0  0  0  0  0  0  0  0  0
   25.0590  -21.3489  -11.1373 N   0  0  0  0  0  0  0  0  0  0  0  0
   23.9641  -20.4599  -11.4929 C   0  0  0  0  0  0  0  0  0  0  0  0
   23.3693  -20.8018  -12.8169 C   0  0  0  0  0  0  0  0  0  0  0  0
   22.2341  -19.9288  -13.2195 C   0  0  0  0  0  0  0  0  0  0  0  0
   21.6301  -20.1221  -14.5523 C   0  0  2  0  0  0  0  0  0  0  0  0
   22.0442  -19.2111  -15.5911 N   0  0  0  0  0  0  0  0  0  0  0  0
   20.1516  -19.9427  -14.3894 C   0  0  0  0  0  0  0  0  0  0  0  0
   19.6611  -18.8114  -14.5023 O   0  0  0  0  0  0  0  0  0  0  0  0
   27.2038  -22.7322  -10.7359 N   0  0  0  0  0  0  0  0  0  0  0  0
   19.3520  -21.0570  -14.1146 C   0  0  0  0  0  0  0  0  0  0  0  0
   17.9023  -21.0217  -14.1066 C   0  0  0  0  0  0  0  0  0  0  0  0
   17.2952  -22.3379  -13.9438 O   0  0  0  0  0  0  0  0  0  0  0  0
   17.9968  -23.3680  -13.8423 O   0  0  0  0  0  0  0  0  0  0  0  0
  2  1  1  6
  2  3  1  0
  4  2  1  0
  4  5  1  0
  5  6  1  1
  7  5  1  0
  7  8  2  0
 10  9  1  0
 11 10  2  0
 12 10  1  0
 13 14  1  0
 13 12  1  0
 14 15  1  0
 16 15  1  1
 16 17  1  0
 17  7  1  0
 18 16  1  0
 19 18  2  0
 20 18  1  0
 21 20  1  0
 22 24  1  0
 22 21  1  0
 23 22  2  0
M  END
$$$$
