LRG.pdb
     RDKit          3D

 24 23  0  0  1  0  0  0  0  0999 V2000
   27.7661  -18.3647  -15.7276 C   0  0  0  0  0  0  0  0  0  0  0  0
   27.4968  -19.5466  -14.8644 C   0  0  1  0  0  0  0  0  0  0  0  0
   28.1263  -19.3361  -13.5069 C   0  0  0  0  0  0  0  0  0  0  0  0
   26.0809  -19.9899  -14.7699 C   0  0  0  0  0  0  0  0  0  0  0  0
   25.8029  -21.1453  -13.8635 C   0  0  2  0  0  0  0  0  0  0  0  0
   26.3352  -22.3850  -14.4097 N   0  0  0  0  0  0  0  0  0  0  0  0
   24.3001  -21.3051  -13.8682 C   0  0  0  0  0  0  0  0  0  0  0  0
   23.7363  -22.0493  -14.7168 O   0  0  0  0  0  0  0  0  0  0  0  0
   18.6988  -23.6429   -9.9608 N   0  0  0  0  0  0  0  0  0  0  0  0
   19.6389  -23.0640   -9.0757 C   0  0  0  0  0  0  0  0  0  0  0  0
   20.1536  -23.8300   -8.1649 N   0  0  0  0  0  0  0  0  0  0  0  0
   20.0151  -21.6910   -9.1725 N   0  0  0  0  0  0  0  0  0  0  0  0
   19.3696  -20.8096  -10.1327 C   0  0  0  0  0  0  0  0  0  0  0  0
   19.9417  -20.9544  -11.5022 C   0  0  0  0  0  0  0  0  0  0  0  0
   21.4056  -20.7020  -11.5817 C   0  0  0  0  0  0  0  0  0  0  0  0
   22.0749  -20.8223  -12.8917 C   0  0  2  0  0  0  0  0  0  0  0  0
   23.5023  -20.6158  -12.9130 N   0  0  0  0  0  0  0  0  0  0  0  0
   21.4772  -19.7765  -13.7826 C   0  0  0  0  0  0  0  0  0  0  0  0
   21.5465  -18.5853  -13.4520 O   0  0  0  0  0  0  0  0  0  0  0  0
   20.8670  -23.4836   -7.5187 N   0  0  0  0  0  0  0  0  0  0  0  0
   20.8533  -20.1649  -14.9728 C   0  0  0  0  0  0  0  0  0  0  0  0
   20.2848  -19.2286  -15.9232 C   0  0  0  0  0  0  0  0  0  0  0  0
   18.8874  -18.9106  -15.6523 O   0  0  0  0  0  0  0  0  0  0  0  0
   18.2776  -19.4313  -14.6929 O   0  0  0  0  0  0  0  0  0  0  0  0
  2  1  1  6
  2  3  1  0
  4  2  1  0
  4  5  1  0
  5  6  1  6
  7  5  1  0
  7  8  2  0
 10  9  1  0
 11 10  2  0
 12 10  1  0
 13 14  1  0
 13 12  1  0
 14 15  1  0
 16 15  1  1
 16 17  1  0
 17  7  1  0
 18 16  1  0
 19 18  2  0
 20 18  1  0
 21 20  1  0
 22 24  1  0
 22 21  1  0
 23 22  2  0
M  END
$$$$
