LRG.pdb
     RDKit          3D

 24 23  0  0  1  0  0  0  0  0999 V2000
   22.7553  -14.0090  -22.3371 C   0  0  0  0  0  0  0  0  0  0  0  0
   23.3597  -13.5296  -21.0645 C   0  0  1  0  0  0  0  0  0  0  0  0
   24.8090  -13.1704  -21.2963 C   0  0  0  0  0  0  0  0  0  0  0  0
   22.6203  -12.4627  -20.3399 C   0  0  0  0  0  0  0  0  0  0  0  0
   23.2341  -11.9715  -19.0687 C   0  0  2  0  0  0  0  0  0  0  0  0
   23.5135  -13.0716  -18.1576 N   0  0  0  0  0  0  0  0  0  0  0  0
   22.1604  -11.1450  -18.3991 C   0  0  0  0  0  0  0  0  0  0  0  0
   21.6794  -10.1302  -18.9741 O   0  0  0  0  0  0  0  0  0  0  0  0
   15.7349  -14.6509  -14.1485 N   0  0  0  0  0  0  0  0  0  0  0  0
   15.5901  -14.3208  -15.5168 C   0  0  0  0  0  0  0  0  0  0  0  0
   14.5622  -14.8028  -16.1430 N   0  0  0  0  0  0  0  0  0  0  0  0
   16.5323  -13.4892  -16.1927 N   0  0  0  0  0  0  0  0  0  0  0  0
   17.6309  -12.8699  -15.4680 C   0  0  0  0  0  0  0  0  0  0  0  0
   18.5125  -12.0659  -16.3625 C   0  0  0  0  0  0  0  0  0  0  0  0
   19.6565  -11.4161  -15.6682 C   0  0  0  0  0  0  0  0  0  0  0  0
   20.6616  -10.6996  -16.4774 C   0  0  2  0  0  0  0  0  0  0  0  0
   21.6792  -11.5033  -17.1091 N   0  0  0  0  0  0  0  0  0  0  0  0
   21.3715   -9.7574  -15.5538 C   0  0  0  0  0  0  0  0  0  0  0  0
   22.2098  -10.2027  -14.7588 O   0  0  0  0  0  0  0  0  0  0  0  0
   14.4263  -14.6445  -17.1444 N   0  0  0  0  0  0  0  0  0  0  0  0
   21.0755   -8.3914  -15.6079 C   0  0  0  0  0  0  0  0  0  0  0  0
   21.7311   -7.3952  -14.7827 C   0  0  0  0  0  0  0  0  0  0  0  0
   21.2216   -6.0453  -14.9958 O   0  0  0  0  0  0  0  0  0  0  0  0
   20.3624   -5.8069  -15.8723 O   0  0  0  0  0  0  0  0  0  0  0  0
  2  1  1  6
  2  3  1  0
  4  2  1  0
  4  5  1  0
  5  6  1  1
  7  5  1  0
  7  8  2  0
 10  9  1  0
 11 10  2  0
 12 10  1  0
 13 14  1  0
 13 12  1  0
 14 15  1  0
 16 15  1  1
 16 17  1  0
 17  7  1  0
 18 16  1  0
 19 18  2  0
 20 18  1  0
 21 20  1  0
 22 24  1  0
 22 21  1  0
 23 22  2  0
M  END
$$$$
