LRG.pdb
     RDKit          3D

 24 23  0  0  1  0  0  0  0  0999 V2000
   29.6748  -19.7776   -4.7102 C   0  0  0  0  0  0  0  0  0  0  0  0
   28.2646  -20.0308   -5.1121 C   0  0  1  0  0  0  0  0  0  0  0  0
   27.3335  -19.5469   -4.0248 C   0  0  0  0  0  0  0  0  0  0  0  0
   27.8621  -19.5478   -6.4593 C   0  0  0  0  0  0  0  0  0  0  0  0
   26.4771  -19.8905   -6.9044 C   0  0  2  0  0  0  0  0  0  0  0  0
   26.1859  -21.2998   -6.6861 N   0  0  0  0  0  0  0  0  0  0  0  0
   26.4793  -19.6980   -8.4034 C   0  0  0  0  0  0  0  0  0  0  0  0
   26.7649  -18.5766   -8.9061 O   0  0  0  0  0  0  0  0  0  0  0  0
   31.8462  -23.7679  -11.5971 N   0  0  0  0  0  0  0  0  0  0  0  0
   32.0838  -22.4209  -11.2346 C   0  0  0  0  0  0  0  0  0  0  0  0
   33.2450  -22.1316  -10.7355 N   0  0  0  0  0  0  0  0  0  0  0  0
   31.0917  -21.4101  -11.4079 N   0  0  0  0  0  0  0  0  0  0  0  0
   29.7357  -21.7596  -11.8012 C   0  0  0  0  0  0  0  0  0  0  0  0
   28.7118  -21.0620  -10.9712 C   0  0  0  0  0  0  0  0  0  0  0  0
   27.3092  -21.2967  -11.4080 C   0  0  0  0  0  0  0  0  0  0  0  0
   26.2199  -20.6003  -10.6961 C   0  0  2  0  0  0  0  0  0  0  0  0
   26.1580  -20.7823   -9.2666 N   0  0  0  0  0  0  0  0  0  0  0  0
   24.9318  -21.1268  -11.2513 C   0  0  0  0  0  0  0  0  0  0  0  0
   24.4507  -22.1685  -10.7859 O   0  0  0  0  0  0  0  0  0  0  0  0
   33.4778  -21.1784  -10.4464 N   0  0  0  0  0  0  0  0  0  0  0  0
   24.2952  -20.4309  -12.2843 C   0  0  0  0  0  0  0  0  0  0  0  0
   23.0731  -20.8822  -12.9214 C   0  0  0  0  0  0  0  0  0  0  0  0
   22.5880  -19.9678  -13.9490 O   0  0  0  0  0  0  0  0  0  0  0  0
   21.5386  -20.2053  -14.5859 O   0  0  0  0  0  0  0  0  0  0  0  0
  2  1  1  1
  2  3  1  0
  4  2  1  0
  4  5  1  0
  5  6  1  6
  7  5  1  0
  7  8  2  0
 10  9  1  0
 11 10  2  0
 12 10  1  0
 13 14  1  0
 13 12  1  0
 14 15  1  0
 16 15  1  6
 16 17  1  0
 17  7  1  0
 18 16  1  0
 19 18  2  0
 20 18  1  0
 21 20  1  0
 22 24  1  0
 22 21  1  0
 23 22  2  0
M  END
$$$$
