LRG.pdb
     RDKit          3D

 24 23  0  0  1  0  0  0  0  0999 V2000
   24.5518  -13.5131  -19.2636 C   0  0  0  0  0  0  0  0  0  0  0  0
   24.8149  -12.8953  -17.9356 C   0  0  1  0  0  0  0  0  0  0  0  0
   26.3052  -12.7580  -17.7274 C   0  0  0  0  0  0  0  0  0  0  0  0
   24.0821  -11.6378  -17.6325 C   0  0  0  0  0  0  0  0  0  0  0  0
   24.3691  -11.0006  -16.3113 C   0  0  2  0  0  0  0  0  0  0  0  0
   23.9799  -11.8694  -15.2104 N   0  0  0  0  0  0  0  0  0  0  0  0
   23.4496   -9.8036  -16.2361 C   0  0  0  0  0  0  0  0  0  0  0  0
   23.6054   -8.8244  -17.0163 O   0  0  0  0  0  0  0  0  0  0  0  0
   15.9012  -11.9269  -15.0464 N   0  0  0  0  0  0  0  0  0  0  0  0
   16.4515  -11.9801  -16.3490 C   0  0  0  0  0  0  0  0  0  0  0  0
   15.7860  -12.6281  -17.2536 N   0  0  0  0  0  0  0  0  0  0  0  0
   17.6903  -11.3476  -16.6675 N   0  0  0  0  0  0  0  0  0  0  0  0
   18.5566  -10.8385  -15.6159 C   0  0  0  0  0  0  0  0  0  0  0  0
   19.1827   -9.5361  -15.9843 C   0  0  0  0  0  0  0  0  0  0  0  0
   20.0687   -8.9664  -14.9338 C   0  0  0  0  0  0  0  0  0  0  0  0
   21.4707   -8.6604  -15.2794 C   0  0  2  0  0  0  0  0  0  0  0  0
   22.3953   -9.7676  -15.2815 N   0  0  0  0  0  0  0  0  0  0  0  0
   21.9687   -7.6883  -14.2539 C   0  0  0  0  0  0  0  0  0  0  0  0
   22.5901   -8.1094  -13.2692 O   0  0  0  0  0  0  0  0  0  0  0  0
   16.1196  -12.6889  -18.2187 N   0  0  0  0  0  0  0  0  0  0  0  0
   21.7240   -6.3222  -14.4287 C   0  0  0  0  0  0  0  0  0  0  0  0
   22.2396   -5.2953  -13.5440 C   0  0  0  0  0  0  0  0  0  0  0  0
   21.8199   -3.9494  -13.9179 O   0  0  0  0  0  0  0  0  0  0  0  0
   21.1613   -3.7412  -14.9603 O   0  0  0  0  0  0  0  0  0  0  0  0
  2  1  1  6
  2  3  1  0
  4  2  1  0
  4  5  1  0
  5  6  1  1
  7  5  1  0
  7  8  2  0
 10  9  1  0
 11 10  2  0
 12 10  1  0
 13 14  1  0
 13 12  1  0
 14 15  1  0
 16 15  1  1
 16 17  1  0
 17  7  1  0
 18 16  1  0
 19 18  2  0
 20 18  1  0
 21 20  1  0
 22 24  1  0
 22 21  1  0
 23 22  2  0
M  END
$$$$
