LRG.pdb
     RDKit          3D

 24 23  0  0  1  0  0  0  0  0999 V2000
   29.0510  -21.4049   -9.5343 C   0  0  0  0  0  0  0  0  0  0  0  0
   29.2380  -20.6465  -10.8009 C   0  0  1  0  0  0  0  0  0  0  0  0
   30.6963  -20.6728  -11.1962 C   0  0  0  0  0  0  0  0  0  0  0  0
   28.3386  -21.0068  -11.9285 C   0  0  0  0  0  0  0  0  0  0  0  0
   28.4836  -20.2031  -13.1802 C   0  0  2  0  0  0  0  0  0  0  0  0
   28.4094  -18.7761  -12.9032 N   0  0  0  0  0  0  0  0  0  0  0  0
   27.2606  -20.5260  -14.0072 C   0  0  0  0  0  0  0  0  0  0  0  0
   27.0407  -21.7066  -14.3941 O   0  0  0  0  0  0  0  0  0  0  0  0
   25.3820  -19.6357  -10.7658 N   0  0  0  0  0  0  0  0  0  0  0  0
   24.5068  -20.6612  -10.3359 C   0  0  0  0  0  0  0  0  0  0  0  0
   24.5687  -21.0174   -9.0907 N   0  0  0  0  0  0  0  0  0  0  0  0
   23.5861  -21.2864  -11.2289 N   0  0  0  0  0  0  0  0  0  0  0  0
   23.7639  -21.1871  -12.6691 C   0  0  0  0  0  0  0  0  0  0  0  0
   23.7097  -19.7753  -13.1464 C   0  0  0  0  0  0  0  0  0  0  0  0
   23.8725  -19.6219  -14.6172 C   0  0  0  0  0  0  0  0  0  0  0  0
   25.2137  -19.8085  -15.2045 C   0  0  2  0  0  0  0  0  0  0  0  0
   26.3411  -19.4991  -14.3597 N   0  0  0  0  0  0  0  0  0  0  0  0
   25.3009  -18.8937  -16.3877 C   0  0  0  0  0  0  0  0  0  0  0  0
   24.9707  -17.7068  -16.2633 O   0  0  0  0  0  0  0  0  0  0  0  0
   23.9651  -21.7539   -8.7170 N   0  0  0  0  0  0  0  0  0  0  0  0
   25.7557  -19.3967  -17.6111 C   0  0  0  0  0  0  0  0  0  0  0  0
   25.9599  -18.5766  -18.7896 C   0  0  0  0  0  0  0  0  0  0  0  0
   26.4028  -19.3388  -19.9516 O   0  0  0  0  0  0  0  0  0  0  0  0
   26.5739  -20.5758  -19.8895 O   0  0  0  0  0  0  0  0  0  0  0  0
  2  1  1  1
  2  3  1  0
  4  2  1  0
  4  5  1  0
  5  6  1  1
  7  5  1  0
  7  8  2  0
 10  9  1  0
 11 10  2  0
 12 10  1  0
 13 14  1  0
 13 12  1  0
 14 15  1  0
 16 15  1  1
 16 17  1  0
 17  7  1  0
 18 16  1  0
 19 18  2  0
 20 18  1  0
 21 20  1  0
 22 24  1  0
 22 21  1  0
 23 22  2  0
M  END
$$$$
