LRG.pdb
     RDKit          3D

 24 23  0  0  1  0  0  0  0  0999 V2000
   22.2615  -18.5272  -16.5421 C   0  0  0  0  0  0  0  0  0  0  0  0
   21.2094  -19.0464  -15.6266 C   0  0  1  0  0  0  0  0  0  0  0  0
   20.1638  -19.7885  -16.4263 C   0  0  0  0  0  0  0  0  0  0  0  0
   21.6792  -19.8231  -14.4493 C   0  0  0  0  0  0  0  0  0  0  0  0
   20.6228  -20.4636  -13.6081 C   0  0  2  0  0  0  0  0  0  0  0  0
   19.7337  -19.4678  -13.0283 N   0  0  0  0  0  0  0  0  0  0  0  0
   21.3599  -21.0849  -12.4443 C   0  0  0  0  0  0  0  0  0  0  0  0
   22.2377  -21.9700  -12.6391 O   0  0  0  0  0  0  0  0  0  0  0  0
   26.5705  -22.3607  -11.0194 N   0  0  0  0  0  0  0  0  0  0  0  0
   26.2507  -21.1549  -11.6873 C   0  0  0  0  0  0  0  0  0  0  0  0
   26.4864  -21.0958  -12.9610 N   0  0  0  0  0  0  0  0  0  0  0  0
   25.6889  -20.0399  -10.9967 N   0  0  0  0  0  0  0  0  0  0  0  0
   25.3295  -20.1408   -9.5909 C   0  0  0  0  0  0  0  0  0  0  0  0
   24.2259  -21.1170   -9.3611 C   0  0  0  0  0  0  0  0  0  0  0  0
   22.8644  -20.5187   -9.3992 C   0  0  0  0  0  0  0  0  0  0  0  0
   21.7668  -21.2943  -10.0094 C   0  0  2  0  0  0  0  0  0  0  0  0
   21.0710  -20.6775  -11.1121 N   0  0  0  0  0  0  0  0  0  0  0  0
   20.7483  -21.5249   -8.9351 C   0  0  0  0  0  0  0  0  0  0  0  0
   19.7631  -20.7783   -8.8620 O   0  0  0  0  0  0  0  0  0  0  0  0
   26.2574  -20.2615  -13.5067 N   0  0  0  0  0  0  0  0  0  0  0  0
   20.9280  -22.5806   -8.0353 C   0  0  0  0  0  0  0  0  0  0  0  0
   20.0339  -22.8501   -6.9258 C   0  0  0  0  0  0  0  0  0  0  0  0
   18.8985  -23.6892   -7.2920 O   0  0  0  0  0  0  0  0  0  0  0  0
   18.7081  -24.0425   -8.4762 O   0  0  0  0  0  0  0  0  0  0  0  0
  2  1  1  6
  2  3  1  0
  4  2  1  0
  4  5  1  0
  5  6  1  1
  7  5  1  0
  7  8  2  0
 10  9  1  0
 11 10  2  0
 12 10  1  0
 13 14  1  0
 13 12  1  0
 14 15  1  0
 16 15  1  1
 16 17  1  0
 17  7  1  0
 18 16  1  0
 19 18  2  0
 20 18  1  0
 21 20  1  0
 22 24  1  0
 22 21  1  0
 23 22  2  0
M  END
$$$$
