TTL.pdb
     RDKit          3D

 23 22  0  0  1  0  0  0  0  0999 V2000
    9.5894  -12.4769   20.0891 C   0  0  0  0  0  0  0  0  0  0  0  0
    8.9276  -12.9282   18.8104 C   0  0  1  0  0  0  0  0  0  0  0  0
    9.6628  -12.4193   17.7436 O   0  0  0  0  0  0  0  0  0  0  0  0
    8.9040  -14.4455   18.7868 C   0  0  2  0  0  0  0  0  0  0  0  0
    8.3354  -14.8564   17.5408 N   0  0  0  0  0  0  0  0  0  0  0  0
    8.1615  -14.9872   19.9599 C   0  0  0  0  0  0  0  0  0  0  0  0
    6.9089  -14.9289   20.0687 O   0  0  0  0  0  0  0  0  0  0  0  0
    7.4313  -18.0881   20.9422 C   0  0  0  0  0  0  0  0  0  0  0  0
    8.2006  -17.6562   22.1941 C   0  0  1  0  0  0  0  0  0  0  0  0
    9.4147  -18.2634   22.1642 O   0  0  0  0  0  0  0  0  0  0  0  0
    8.2147  -16.1595   22.1979 C   0  0  2  0  0  0  0  0  0  0  0  0
    8.8671  -15.6068   21.0272 N   0  0  0  0  0  0  0  0  0  0  0  0
    8.7284  -15.5703   23.4547 C   0  0  0  0  0  0  0  0  0  0  0  0
    9.9397  -15.2272   23.4631 O   0  0  0  0  0  0  0  0  0  0  0  0
    5.5721  -12.4777   26.7178 C   0  0  0  0  0  0  0  0  0  0  0  0
    6.7751  -12.9797   26.0220 C   0  0  1  0  0  0  0  0  0  0  0  0
    7.8270  -11.8799   25.8354 C   0  0  0  0  0  0  0  0  0  0  0  0
    7.3644  -14.2158   26.5367 C   0  0  0  0  0  0  0  0  0  0  0  0
    8.5414  -14.8585   25.8957 C   0  0  2  0  0  0  0  0  0  0  0  0
    7.9750  -15.3734   24.6081 N   0  0  0  0  0  0  0  0  0  0  0  0
    9.1241  -15.9679   26.6383 C   0  0  0  0  0  0  0  0  0  0  0  0
    8.8612  -17.1787   26.4861 O   0  0  0  0  0  0  0  0  0  0  0  0
   10.0937  -15.7298   27.6512 O   0  0  0  0  0  0  0  0  0  0  0  0
  2  1  1  1
  2  4  1  0
  3  2  1  0
  4  5  1  6
  6  4  1  0
  7  6  2  0
  9  8  1  6
  9 11  1  0
 10  9  1  0
 11 13  1  0
 11 12  1  6
 12  6  1  0
 13 20  1  0
 14 13  2  0
 16 15  1  1
 16 17  1  0
 18 16  1  0
 19 18  1  1
 19 21  1  0
 20 19  1  0
 21 22  2  0
 21 23  1  0
M  END
$$$$
