TTL.pdb
     RDKit          3D

 23 22  0  0  1  0  0  0  0  0999 V2000
   10.9152  -13.9331   17.7663 C   0  0  0  0  0  0  0  0  0  0  0  0
   10.3374  -14.1055   19.1495 C   0  0  1  0  0  0  0  0  0  0  0  0
   10.8008  -13.0592   19.9419 O   0  0  0  0  0  0  0  0  0  0  0  0
    8.8232  -14.0878   19.0472 C   0  0  2  0  0  0  0  0  0  0  0  0
    8.4371  -12.8401   18.4652 N   0  0  0  0  0  0  0  0  0  0  0  0
    8.1945  -14.3158   20.3790 C   0  0  0  0  0  0  0  0  0  0  0  0
    7.5562  -13.4266   21.0004 O   0  0  0  0  0  0  0  0  0  0  0  0
    6.3112  -17.6443   21.0885 C   0  0  0  0  0  0  0  0  0  0  0  0
    7.2205  -17.3746   22.2911 C   0  0  1  0  0  0  0  0  0  0  0  0
    8.2479  -18.2608   22.2405 O   0  0  0  0  0  0  0  0  0  0  0  0
    7.5979  -15.9274   22.2317 C   0  0  2  0  0  0  0  0  0  0  0  0
    8.2989  -15.5855   21.0097 N   0  0  0  0  0  0  0  0  0  0  0  0
    8.3083  -15.4456   23.4375 C   0  0  0  0  0  0  0  0  0  0  0  0
    9.5523  -15.2827   23.3319 O   0  0  0  0  0  0  0  0  0  0  0  0
    5.6883  -12.2235   26.8365 C   0  0  0  0  0  0  0  0  0  0  0  0
    6.7475  -12.8602   26.0265 C   0  0  1  0  0  0  0  0  0  0  0  0
    7.7009  -11.8249   25.4183 C   0  0  0  0  0  0  0  0  0  0  0  0
    7.4715  -13.9699   26.6465 C   0  0  0  0  0  0  0  0  0  0  0  0
    8.4598  -14.7881   25.8961 C   0  0  2  0  0  0  0  0  0  0  0  0
    7.7038  -15.1652   24.6592 N   0  0  0  0  0  0  0  0  0  0  0  0
    8.9040  -15.9995   26.5720 C   0  0  0  0  0  0  0  0  0  0  0  0
    9.6788  -16.0594   27.5489 O   0  0  0  0  0  0  0  0  0  0  0  0
    8.4556  -17.2767   26.1355 O   0  0  0  0  0  0  0  0  0  0  0  0
  2  1  1  6
  2  4  1  0
  3  2  1  0
  4  5  1  1
  6  4  1  0
  7  6  2  0
  9  8  1  6
  9 11  1  0
 10  9  1  0
 11 13  1  0
 11 12  1  6
 12  6  1  0
 13 20  1  0
 14 13  2  0
 16 15  1  1
 16 17  1  0
 18 16  1  0
 19 18  1  1
 19 21  1  0
 20 19  1  0
 21 22  2  0
 21 23  1  0
M  END
$$$$
