TTL.pdb
     RDKit          3D

 23 22  0  0  1  0  0  0  0  0999 V2000
    5.4665  -18.3030   24.2158 C   0  0  0  0  0  0  0  0  0  0  0  0
    5.8265  -19.5208   23.4008 C   0  0  1  0  0  0  0  0  0  0  0  0
    4.6798  -20.2970   23.2592 O   0  0  0  0  0  0  0  0  0  0  0  0
    6.3496  -19.0630   22.0516 C   0  0  2  0  0  0  0  0  0  0  0  0
    6.4232  -20.2078   21.1980 N   0  0  0  0  0  0  0  0  0  0  0  0
    7.6617  -18.3709   22.1935 C   0  0  0  0  0  0  0  0  0  0  0  0
    8.6774  -18.9172   22.6978 O   0  0  0  0  0  0  0  0  0  0  0  0
    9.8642  -16.7423   19.6432 C   0  0  0  0  0  0  0  0  0  0  0  0
    9.4615  -15.6217   20.6064 C   0  0  1  0  0  0  0  0  0  0  0  0
    8.5164  -14.8659   19.9908 O   0  0  0  0  0  0  0  0  0  0  0  0
    9.0460  -16.2794   21.8852 C   0  0  2  0  0  0  0  0  0  0  0  0
    7.8126  -17.0289   21.7496 N   0  0  0  0  0  0  0  0  0  0  0  0
    9.0185  -15.3626   23.0468 C   0  0  0  0  0  0  0  0  0  0  0  0
    8.8482  -14.1404   22.7969 O   0  0  0  0  0  0  0  0  0  0  0  0
    8.1190  -11.9958   26.5759 C   0  0  0  0  0  0  0  0  0  0  0  0
    7.2918  -13.2034   26.3741 C   0  0  1  0  0  0  0  0  0  0  0  0
    5.8201  -12.8520   26.1256 C   0  0  0  0  0  0  0  0  0  0  0  0
    7.7876  -14.1862   25.4107 C   0  0  0  0  0  0  0  0  0  0  0  0
    9.1340  -14.8041   25.5318 C   0  0  2  0  0  0  0  0  0  0  0  0
    9.1657  -15.7541   24.3741 N   0  0  0  0  0  0  0  0  0  0  0  0
    9.3687  -15.5450   26.7637 C   0  0  0  0  0  0  0  0  0  0  0  0
   10.0183  -15.1479   27.7530 O   0  0  0  0  0  0  0  0  0  0  0  0
    8.8394  -16.8543   26.9320 O   0  0  0  0  0  0  0  0  0  0  0  0
  2  1  1  1
  2  4  1  0
  3  2  1  0
  4  5  1  6
  6  4  1  0
  7  6  2  0
  9  8  1  6
  9 11  1  0
 10  9  1  0
 11 13  1  0
 11 12  1  6
 12  6  1  0
 13 20  1  0
 14 13  2  0
 16 15  1  6
 16 17  1  0
 18 16  1  0
 19 18  1  1
 19 21  1  0
 20 19  1  0
 21 22  2  0
 21 23  1  0
M  END
$$$$
