TTL.pdb
     RDKit          3D

 23 22  0  0  1  0  0  0  0  0999 V2000
   11.4211  -14.5121   20.3222 C   0  0  0  0  0  0  0  0  0  0  0  0
   10.7414  -13.5225   19.4080 C   0  0  1  0  0  0  0  0  0  0  0  0
   11.5439  -13.3558   18.2830 O   0  0  0  0  0  0  0  0  0  0  0  0
    9.3762  -14.0690   19.0324 C   0  0  2  0  0  0  0  0  0  0  0  0
    8.7981  -13.1828   18.0705 N   0  0  0  0  0  0  0  0  0  0  0  0
    8.5184  -14.2409   20.2388 C   0  0  0  0  0  0  0  0  0  0  0  0
    7.7826  -13.3278   20.6963 O   0  0  0  0  0  0  0  0  0  0  0  0
    6.1143  -17.1036   20.7459 C   0  0  0  0  0  0  0  0  0  0  0  0
    7.0005  -17.0997   21.9950 C   0  0  1  0  0  0  0  0  0  0  0  0
    7.8484  -18.1563   21.9047 O   0  0  0  0  0  0  0  0  0  0  0  0
    7.6403  -15.7484   22.0669 C   0  0  2  0  0  0  0  0  0  0  0  0
    8.5035  -15.4812   20.9333 N   0  0  0  0  0  0  0  0  0  0  0  0
    8.3106  -15.4730   23.3575 C   0  0  0  0  0  0  0  0  0  0  0  0
    9.5637  -15.5930   23.3791 O   0  0  0  0  0  0  0  0  0  0  0  0
    5.6089  -12.2828   26.8356 C   0  0  0  0  0  0  0  0  0  0  0  0
    6.7719  -12.8175   26.0974 C   0  0  1  0  0  0  0  0  0  0  0  0
    7.8430  -11.7451   25.8659 C   0  0  0  0  0  0  0  0  0  0  0  0
    7.3494  -14.0658   26.5957 C   0  0  0  0  0  0  0  0  0  0  0  0
    8.3627  -14.8326   25.8247 C   0  0  2  0  0  0  0  0  0  0  0  0
    7.6598  -15.0967   24.5285 N   0  0  0  0  0  0  0  0  0  0  0  0
    8.7642  -16.1014   26.4170 C   0  0  0  0  0  0  0  0  0  0  0  0
    8.2960  -17.2259   26.1439 O   0  0  0  0  0  0  0  0  0  0  0  0
    9.7816  -16.1459   27.4098 O   0  0  0  0  0  0  0  0  0  0  0  0
  2  1  1  1
  2  4  1  0
  3  2  1  0
  4  5  1  6
  6  4  1  0
  7  6  2  0
  9  8  1  6
  9 11  1  0
 10  9  1  0
 11 13  1  0
 11 12  1  6
 12  6  1  0
 13 20  1  0
 14 13  2  0
 16 15  1  1
 16 17  1  0
 18 16  1  0
 19 18  1  1
 19 21  1  0
 20 19  1  0
 21 22  2  0
 21 23  1  0
M  END
$$$$
