TTL.pdb
     RDKit          3D

 23 22  0  0  1  0  0  0  0  0999 V2000
   12.7424  -14.4544   20.8972 C   0  0  0  0  0  0  0  0  0  0  0  0
   12.2901  -14.3384   19.4623 C   0  0  1  0  0  0  0  0  0  0  0  0
   13.3938  -14.5632   18.6446 O   0  0  0  0  0  0  0  0  0  0  0  0
   11.2031  -15.3677   19.2127 C   0  0  2  0  0  0  0  0  0  0  0  0
   10.8488  -15.3053   17.8288 N   0  0  0  0  0  0  0  0  0  0  0  0
   10.0362  -15.1423   20.1119 C   0  0  0  0  0  0  0  0  0  0  0  0
    9.3160  -14.1113   20.0600 O   0  0  0  0  0  0  0  0  0  0  0  0
    7.0887  -17.2092   20.4842 C   0  0  0  0  0  0  0  0  0  0  0  0
    7.6272  -17.1499   21.9168 C   0  0  1  0  0  0  0  0  0  0  0  0
    8.1737  -18.3591   22.2043 O   0  0  0  0  0  0  0  0  0  0  0  0
    8.5555  -15.9775   21.9815 C   0  0  2  0  0  0  0  0  0  0  0  0
    9.6885  -16.1157   21.0878 N   0  0  0  0  0  0  0  0  0  0  0  0
    8.9684  -15.6179   23.3565 C   0  0  0  0  0  0  0  0  0  0  0  0
   10.1748  -15.8206   23.6544 O   0  0  0  0  0  0  0  0  0  0  0  0
    5.9211  -12.0072   26.2085 C   0  0  0  0  0  0  0  0  0  0  0  0
    7.1250  -12.6919   25.6936 C   0  0  1  0  0  0  0  0  0  0  0  0
    8.3477  -11.7668   25.6846 C   0  0  0  0  0  0  0  0  0  0  0  0
    7.4352  -13.9995   26.2715 C   0  0  0  0  0  0  0  0  0  0  0  0
    8.5328  -14.8553   25.7501 C   0  0  2  0  0  0  0  0  0  0  0  0
    8.1271  -15.0800   24.3258 N   0  0  0  0  0  0  0  0  0  0  0  0
    8.6837  -16.1439   26.4123 C   0  0  0  0  0  0  0  0  0  0  0  0
    8.1217  -17.2110   26.0903 O   0  0  0  0  0  0  0  0  0  0  0  0
    9.5362  -16.2804   27.5425 O   0  0  0  0  0  0  0  0  0  0  0  0
  2  1  1  1
  2  4  1  0
  3  2  1  0
  4  5  1  6
  6  4  1  0
  7  6  2  0
  9  8  1  6
  9 11  1  0
 10  9  1  0
 11 13  1  0
 11 12  1  6
 12  6  1  0
 13 20  1  0
 14 13  2  0
 16 15  1  1
 16 17  1  0
 18 16  1  0
 19 18  1  1
 19 21  1  0
 20 19  1  0
 21 22  2  0
 21 23  1  0
M  END
$$$$
