DDY.pdb
     RDKit          3D

 29 29  0  0  1  0  0  0  0  0999 V2000
   26.9878  -23.1743  -15.7369 N   0  0  0  0  0  0  0  0  0  0  0  0
   25.5846  -23.1486  -16.0772 C   0  0  1  0  0  0  0  0  0  0  0  0
   24.8453  -24.4027  -15.6865 C   0  0  0  0  0  0  0  0  0  0  0  0
   25.4390  -25.6113  -16.2980 C   0  0  0  0  0  0  0  0  0  0  0  0
   26.4921  -25.4876  -16.9685 O   0  0  0  0  0  0  0  0  0  0  0  0
   24.9743  -21.9410  -15.4735 C   0  0  0  0  0  0  0  0  0  0  0  0
   24.9652  -21.7173  -14.2319 O   0  0  0  0  0  0  0  0  0  0  0  0
   24.8971  -26.8763  -16.1720 O   0  0  0  0  0  0  0  0  0  0  0  0
   24.3681  -20.9850  -16.3270 N   0  0  0  0  0  0  0  0  0  0  0  0
   23.7997  -19.7778  -15.7821 C   0  0  1  0  0  0  0  0  0  0  0  0
   23.9142  -18.7079  -16.8442 C   0  0  0  0  0  0  0  0  0  0  0  0
   25.3516  -18.2970  -16.8726 C   0  0  0  0  0  0  0  0  0  0  0  0
   25.8667  -17.9284  -15.7888 O   0  0  0  0  0  0  0  0  0  0  0  0
   22.4006  -20.0461  -15.3994 C   0  0  0  0  0  0  0  0  0  0  0  0
   21.7054  -20.8847  -16.0622 O   0  0  0  0  0  0  0  0  0  0  0  0
   26.1357  -18.3006  -18.0101 O   0  0  0  0  0  0  0  0  0  0  0  0
   14.4265  -19.5657  -11.3738 O   0  0  0  0  0  0  0  0  0  0  0  0
   15.7788  -19.4383  -11.7057 C   0  0  0  0  0  0  0  0  0  0  0  0
   16.6851  -20.4404  -11.4387 C   0  0  0  0  0  0  0  0  0  0  0  0
   18.0165  -20.3000  -11.7718 C   0  0  0  0  0  0  0  0  0  0  0  0
   18.5118  -19.1705  -12.3798 C   0  0  0  0  0  0  0  0  0  0  0  0
   19.9258  -18.9749  -12.7422 C   0  0  0  0  0  0  0  0  0  0  0  0
   20.3509  -19.6816  -14.0106 C   0  0  2  0  0  0  0  0  0  0  0  0
   21.7431  -19.4245  -14.3141 N   0  0  0  0  0  0  0  0  0  0  0  0
   19.5355  -19.1721  -15.1254 C   0  0  0  0  0  0  0  0  0  0  0  0
   19.9612  -17.9882  -15.7512 O   0  0  0  0  0  0  0  0  0  0  0  0
   17.5870  -18.1698  -12.6432 C   0  0  0  0  0  0  0  0  0  0  0  0
   16.2486  -18.3020  -12.3127 C   0  0  0  0  0  0  0  0  0  0  0  0
   18.4887  -19.7414  -15.5385 O   0  0  0  0  0  0  0  0  0  0  0  0
  2  1  1  1
  2  3  1  0
  2  6  1  0
  3  4  1  0
  4  5  2  0
  4  8  1  0
  6  7  2  0
  9  6  1  0
  9 10  1  0
 10 11  1  6
 12 11  1  0
 13 12  2  0
 14 10  1  0
 14 15  2  0
 16 12  1  0
 18 19  2  0
 18 17  1  0
 20 19  1  0
 21 20  2  0
 22 21  1  0
 23 24  1  0
 23 22  1  1
 24 14  1  0
 25 23  1  0
 26 25  1  0
 27 21  1  0
 27 28  2  0
 28 18  1  0
 29 25  2  0
M  END
$$$$
