DDY.pdb
     RDKit          3D

 29 29  0  0  1  0  0  0  0  0999 V2000
   26.9248  -18.9619  -17.3744 N   0  0  0  0  0  0  0  0  0  0  0  0
   26.2289  -20.0053  -16.6586 C   0  0  1  0  0  0  0  0  0  0  0  0
   27.1265  -20.8344  -15.7761 C   0  0  0  0  0  0  0  0  0  0  0  0
   28.0563  -21.6746  -16.5616 C   0  0  0  0  0  0  0  0  0  0  0  0
   28.7861  -22.4921  -15.9509 O   0  0  0  0  0  0  0  0  0  0  0  0
   25.1190  -19.3926  -15.8917 C   0  0  0  0  0  0  0  0  0  0  0  0
   25.2848  -18.4549  -15.0642 O   0  0  0  0  0  0  0  0  0  0  0  0
   28.1673  -21.6103  -17.9376 O   0  0  0  0  0  0  0  0  0  0  0  0
   23.8027  -19.8794  -16.0921 N   0  0  0  0  0  0  0  0  0  0  0  0
   22.6865  -19.2596  -15.4233 C   0  0  1  0  0  0  0  0  0  0  0  0
   21.5739  -19.1230  -16.4378 C   0  0  0  0  0  0  0  0  0  0  0  0
   20.4384  -18.4577  -15.7282 C   0  0  0  0  0  0  0  0  0  0  0  0
   20.6921  -17.4016  -15.0990 O   0  0  0  0  0  0  0  0  0  0  0  0
   22.3015  -20.0981  -14.2724 C   0  0  0  0  0  0  0  0  0  0  0  0
   22.4418  -21.3643  -14.3278 O   0  0  0  0  0  0  0  0  0  0  0  0
   19.1412  -18.9332  -15.7265 O   0  0  0  0  0  0  0  0  0  0  0  0
   19.6182  -22.7874   -6.1946 O   0  0  0  0  0  0  0  0  0  0  0  0
   20.0404  -22.0280   -7.2902 C   0  0  0  0  0  0  0  0  0  0  0  0
   21.3685  -21.7208   -7.4867 C   0  0  0  0  0  0  0  0  0  0  0  0
   21.7699  -20.9702   -8.5723 C   0  0  0  0  0  0  0  0  0  0  0  0
   20.8839  -20.4907   -9.5083 C   0  0  0  0  0  0  0  0  0  0  0  0
   21.2677  -19.6776  -10.6748 C   0  0  0  0  0  0  0  0  0  0  0  0
   21.4027  -20.4568  -11.9645 C   0  0  2  0  0  0  0  0  0  0  0  0
   21.7692  -19.5911  -13.0658 N   0  0  0  0  0  0  0  0  0  0  0  0
   20.1025  -21.0728  -12.2768 C   0  0  0  0  0  0  0  0  0  0  0  0
   19.9339  -22.4295  -11.9529 O   0  0  0  0  0  0  0  0  0  0  0  0
   19.5496  -20.8086   -9.2975 C   0  0  0  0  0  0  0  0  0  0  0  0
   19.1375  -21.5617   -8.2108 C   0  0  0  0  0  0  0  0  0  0  0  0
   19.1475  -20.4474  -12.8130 O   0  0  0  0  0  0  0  0  0  0  0  0
  2  1  1  1
  2  3  1  0
  2  6  1  0
  3  4  1  0
  4  5  2  0
  4  8  1  0
  6  7  2  0
  9  6  1  0
  9 10  1  0
 10 11  1  6
 12 11  1  0
 13 12  2  0
 14 10  1  0
 14 15  2  0
 16 12  1  0
 18 19  2  0
 18 17  1  0
 20 19  1  0
 21 20  2  0
 22 21  1  0
 23 24  1  0
 23 22  1  1
 24 14  1  0
 25 23  1  0
 26 25  1  0
 27 21  1  0
 27 28  2  0
 28 18  1  0
 29 25  2  0
M  END
$$$$
