DDY.pdb
     RDKit          3D

 29 29  0  0  1  0  0  0  0  0999 V2000
   26.0169   -8.6703  -19.0666 N   0  0  0  0  0  0  0  0  0  0  0  0
   24.7094   -8.4510  -19.6391 C   0  0  1  0  0  0  0  0  0  0  0  0
   24.1301   -9.6718  -20.3072 C   0  0  0  0  0  0  0  0  0  0  0  0
   24.9738  -10.1466  -21.4252 C   0  0  0  0  0  0  0  0  0  0  0  0
   25.3366  -11.3475  -21.4335 O   0  0  0  0  0  0  0  0  0  0  0  0
   23.8131   -7.9262  -18.5825 C   0  0  0  0  0  0  0  0  0  0  0  0
   23.8701   -8.2992  -17.3786 O   0  0  0  0  0  0  0  0  0  0  0  0
   25.3872   -9.3385  -22.4673 O   0  0  0  0  0  0  0  0  0  0  0  0
   22.8403   -6.9569  -18.9342 N   0  0  0  0  0  0  0  0  0  0  0  0
   22.0314   -6.3334  -17.9171 C   0  0  1  0  0  0  0  0  0  0  0  0
   21.5677   -5.0026  -18.4646 C   0  0  0  0  0  0  0  0  0  0  0  0
   20.8559   -4.3133  -17.3449 C   0  0  0  0  0  0  0  0  0  0  0  0
   20.7357   -4.9421  -16.2652 O   0  0  0  0  0  0  0  0  0  0  0  0
   20.9081   -7.2322  -17.5911 C   0  0  0  0  0  0  0  0  0  0  0  0
   20.4498   -8.0300  -18.4739 O   0  0  0  0  0  0  0  0  0  0  0  0
   20.3301   -3.0385  -17.4299 O   0  0  0  0  0  0  0  0  0  0  0  0
   15.4703  -13.3457  -14.7253 O   0  0  0  0  0  0  0  0  0  0  0  0
   16.4717  -12.4132  -15.0133 C   0  0  0  0  0  0  0  0  0  0  0  0
   16.3222  -11.4795  -16.0147 C   0  0  0  0  0  0  0  0  0  0  0  0
   17.3193  -10.5661  -16.2874 C   0  0  0  0  0  0  0  0  0  0  0  0
   18.5032  -10.5326  -15.5887 C   0  0  0  0  0  0  0  0  0  0  0  0
   19.5971   -9.5827  -15.8537 C   0  0  0  0  0  0  0  0  0  0  0  0
   19.1479   -8.1543  -16.0699 C   0  0  2  0  0  0  0  0  0  0  0  0
   20.2745   -7.2825  -16.3292 N   0  0  0  0  0  0  0  0  0  0  0  0
   18.4756   -7.6855  -14.8469 C   0  0  0  0  0  0  0  0  0  0  0  0
   17.0883   -7.8871  -14.7524 O   0  0  0  0  0  0  0  0  0  0  0  0
   18.6393  -11.4787  -14.5825 C   0  0  0  0  0  0  0  0  0  0  0  0
   17.6436  -12.3993  -14.3014 C   0  0  0  0  0  0  0  0  0  0  0  0
   19.0792   -7.1206  -13.8945 O   0  0  0  0  0  0  0  0  0  0  0  0
  2  1  1  1
  2  3  1  0
  2  6  1  0
  3  4  1  0
  4  5  2  0
  4  8  1  0
  6  7  2  0
  9  6  1  0
  9 10  1  0
 10 11  1  6
 12 11  1  0
 13 12  2  0
 14 10  1  0
 14 15  2  0
 16 12  1  0
 18 19  2  0
 18 17  1  0
 20 19  1  0
 21 20  2  0
 22 21  1  0
 23 24  1  0
 23 22  1  1
 24 14  1  0
 25 23  1  0
 26 25  1  0
 27 21  1  0
 27 28  2  0
 28 18  1  0
 29 25  2  0
M  END
$$$$
