DDY.pdb
     RDKit          3D

 29 29  0  0  1  0  0  0  0  0999 V2000
   18.3984   -9.9575  -21.4938 N   0  0  0  0  0  0  0  0  0  0  0  0
   19.2319  -10.2492  -20.3512 C   0  0  1  0  0  0  0  0  0  0  0  0
   20.6760  -10.4977  -20.7047 C   0  0  0  0  0  0  0  0  0  0  0  0
   21.5003  -10.7793  -19.5096 C   0  0  0  0  0  0  0  0  0  0  0  0
   21.1707  -11.7346  -18.7662 O   0  0  0  0  0  0  0  0  0  0  0  0
   19.0887   -9.1493  -19.3689 C   0  0  0  0  0  0  0  0  0  0  0  0
   19.3817   -7.9495  -19.6261 O   0  0  0  0  0  0  0  0  0  0  0  0
   22.6195  -10.0462  -19.1632 O   0  0  0  0  0  0  0  0  0  0  0  0
   18.5991   -9.4525  -18.0735 N   0  0  0  0  0  0  0  0  0  0  0  0
   18.4705   -8.4150  -17.0814 C   0  0  1  0  0  0  0  0  0  0  0  0
   17.1163   -8.5813  -16.4299 C   0  0  0  0  0  0  0  0  0  0  0  0
   17.0043   -7.4926  -15.4111 C   0  0  0  0  0  0  0  0  0  0  0  0
   17.3830   -6.3450  -15.7506 O   0  0  0  0  0  0  0  0  0  0  0  0
   19.5802   -8.5433  -16.1181 C   0  0  0  0  0  0  0  0  0  0  0  0
   19.9897   -9.6977  -15.7636 O   0  0  0  0  0  0  0  0  0  0  0  0
   16.5128   -7.6758  -14.1329 O   0  0  0  0  0  0  0  0  0  0  0  0
   21.5104   -1.2223  -15.6037 O   0  0  0  0  0  0  0  0  0  0  0  0
   21.7645   -2.5873  -15.4381 C   0  0  0  0  0  0  0  0  0  0  0  0
   22.0646   -3.1211  -14.2045 C   0  0  0  0  0  0  0  0  0  0  0  0
   22.3134   -4.4700  -14.0568 C   0  0  0  0  0  0  0  0  0  0  0  0
   22.2780   -5.3488  -15.1138 C   0  0  0  0  0  0  0  0  0  0  0  0
   22.5475   -6.7924  -15.0026 C   0  0  0  0  0  0  0  0  0  0  0  0
   21.3485   -7.6247  -14.6042 C   0  0  2  0  0  0  0  0  0  0  0  0
   20.2528   -7.4467  -15.5338 N   0  0  0  0  0  0  0  0  0  0  0  0
   20.8976   -7.1873  -13.2727 C   0  0  0  0  0  0  0  0  0  0  0  0
   19.6526   -6.5414  -13.1902 O   0  0  0  0  0  0  0  0  0  0  0  0
   21.9738   -4.7967  -16.3502 C   0  0  0  0  0  0  0  0  0  0  0  0
   21.7223   -3.4440  -16.5079 C   0  0  0  0  0  0  0  0  0  0  0  0
   21.5674   -7.3640  -12.2188 O   0  0  0  0  0  0  0  0  0  0  0  0
  2  1  1  6
  2  3  1  0
  2  6  1  0
  3  4  1  0
  4  5  2  0
  4  8  1  0
  6  7  2  0
  9  6  1  0
  9 10  1  0
 10 11  1  1
 12 11  1  0
 13 12  2  0
 14 10  1  0
 14 15  2  0
 16 12  1  0
 18 19  2  0
 18 17  1  0
 20 19  1  0
 21 20  2  0
 22 21  1  0
 23 24  1  0
 23 22  1  6
 24 14  1  0
 25 23  1  0
 26 25  1  0
 27 21  1  0
 27 28  2  0
 28 18  1  0
 29 25  2  0
M  END
$$$$
