DDY.pdb
     RDKit          3D

 29 29  0  0  1  0  0  0  0  0999 V2000
   23.1232  -12.9815  -20.2473 N   0  0  0  0  0  0  0  0  0  0  0  0
   22.0156  -13.8073  -20.6674 C   0  0  1  0  0  0  0  0  0  0  0  0
   22.4352  -15.1466  -21.2172 C   0  0  0  0  0  0  0  0  0  0  0  0
   23.3049  -15.0118  -22.4059 C   0  0  0  0  0  0  0  0  0  0  0  0
   22.9346  -14.2560  -23.3362 O   0  0  0  0  0  0  0  0  0  0  0  0
   21.0756  -13.9506  -19.5311 C   0  0  0  0  0  0  0  0  0  0  0  0
   21.4481  -14.2045  -18.3528 O   0  0  0  0  0  0  0  0  0  0  0  0
   24.5089  -15.6744  -22.5508 O   0  0  0  0  0  0  0  0  0  0  0  0
   19.6871  -13.7964  -19.7722 N   0  0  0  0  0  0  0  0  0  0  0  0
   18.7528  -13.7906  -18.6748 C   0  0  1  0  0  0  0  0  0  0  0  0
   17.8592  -12.5840  -18.8516 C   0  0  0  0  0  0  0  0  0  0  0  0
   16.9560  -12.5526  -17.6604 C   0  0  0  0  0  0  0  0  0  0  0  0
   17.4683  -12.8046  -16.5424 O   0  0  0  0  0  0  0  0  0  0  0  0
   17.9992  -15.0585  -18.6902 C   0  0  0  0  0  0  0  0  0  0  0  0
   17.6334  -15.5722  -19.7985 O   0  0  0  0  0  0  0  0  0  0  0  0
   15.6060  -12.2649  -17.7195 O   0  0  0  0  0  0  0  0  0  0  0  0
   14.3328  -22.8724  -16.5107 O   0  0  0  0  0  0  0  0  0  0  0  0
   15.0818  -21.6932  -16.5721 C   0  0  0  0  0  0  0  0  0  0  0  0
   15.7703  -21.3338  -17.7095 C   0  0  0  0  0  0  0  0  0  0  0  0
   16.5054  -20.1673  -17.7549 C   0  0  0  0  0  0  0  0  0  0  0  0
   16.5946  -19.3070  -16.6858 C   0  0  0  0  0  0  0  0  0  0  0  0
   17.3757  -18.0585  -16.6876 C   0  0  0  0  0  0  0  0  0  0  0  0
   16.8264  -16.9771  -17.5919 C   0  0  2  0  0  0  0  0  0  0  0  0
   17.6362  -15.7785  -17.5299 N   0  0  0  0  0  0  0  0  0  0  0  0
   15.4666  -16.6372  -17.1414 C   0  0  0  0  0  0  0  0  0  0  0  0
   15.2956  -15.4216  -16.4578 O   0  0  0  0  0  0  0  0  0  0  0  0
   15.8952  -19.6819  -15.5472 C   0  0  0  0  0  0  0  0  0  0  0  0
   15.1545  -20.8508  -15.4926 C   0  0  0  0  0  0  0  0  0  0  0  0
   14.4636  -17.3758  -17.3388 O   0  0  0  0  0  0  0  0  0  0  0  0
  2  1  1  1
  2  3  1  0
  2  6  1  0
  3  4  1  0
  4  5  2  0
  4  8  1  0
  6  7  2  0
  9  6  1  0
  9 10  1  0
 10 11  1  6
 12 11  1  0
 13 12  2  0
 14 10  1  0
 14 15  2  0
 16 12  1  0
 18 19  2  0
 18 17  1  0
 20 19  1  0
 21 20  2  0
 22 21  1  0
 23 24  1  0
 23 22  1  1
 24 14  1  0
 25 23  1  0
 26 25  1  0
 27 21  1  0
 27 28  2  0
 28 18  1  0
 29 25  2  0
M  END
$$$$
