DDY.pdb
     RDKit          3D

 29 29  0  0  1  0  0  0  0  0999 V2000
   16.5822   -6.3986  -16.8508 N   0  0  0  0  0  0  0  0  0  0  0  0
   17.8863   -6.2992  -16.2385 C   0  0  1  0  0  0  0  0  0  0  0  0
   17.8509   -6.3389  -14.7322 C   0  0  0  0  0  0  0  0  0  0  0  0
   17.0708   -5.2179  -14.1647 C   0  0  0  0  0  0  0  0  0  0  0  0
   17.6742   -4.1594  -13.8655 O   0  0  0  0  0  0  0  0  0  0  0  0
   18.7520   -7.3648  -16.7955 C   0  0  0  0  0  0  0  0  0  0  0  0
   18.3559   -8.1998  -17.6543 O   0  0  0  0  0  0  0  0  0  0  0  0
   15.7076   -5.2700  -13.9443 O   0  0  0  0  0  0  0  0  0  0  0  0
   20.0932   -7.4574  -16.3455 N   0  0  0  0  0  0  0  0  0  0  0  0
   20.9941   -8.4178  -16.9314 C   0  0  1  0  0  0  0  0  0  0  0  0
   21.1405   -8.0630  -18.3938 C   0  0  0  0  0  0  0  0  0  0  0  0
   22.0447   -9.0953  -18.9875 C   0  0  0  0  0  0  0  0  0  0  0  0
   22.9158   -8.6993  -19.8000 O   0  0  0  0  0  0  0  0  0  0  0  0
   22.2775   -8.3641  -16.2062 C   0  0  0  0  0  0  0  0  0  0  0  0
   22.8950   -7.2557  -16.0791 O   0  0  0  0  0  0  0  0  0  0  0  0
   21.9773  -10.4440  -18.6955 O   0  0  0  0  0  0  0  0  0  0  0  0
   24.8325  -15.4435  -16.9828 O   0  0  0  0  0  0  0  0  0  0  0  0
   24.7372  -14.2536  -16.2546 C   0  0  0  0  0  0  0  0  0  0  0  0
   25.8541  -13.6224  -15.7537 C   0  0  0  0  0  0  0  0  0  0  0  0
   25.7441  -12.4490  -15.0367 C   0  0  0  0  0  0  0  0  0  0  0  0
   24.5336  -11.8483  -14.7821 C   0  0  0  0  0  0  0  0  0  0  0  0
   24.3701  -10.6031  -14.0129 C   0  0  0  0  0  0  0  0  0  0  0  0
   24.1297   -9.3715  -14.8581 C   0  0  2  0  0  0  0  0  0  0  0  0
   22.9021   -9.4864  -15.6172 N   0  0  0  0  0  0  0  0  0  0  0  0
   25.2461   -9.2312  -15.8076 C   0  0  0  0  0  0  0  0  0  0  0  0
   24.9711   -9.4515  -17.1678 O   0  0  0  0  0  0  0  0  0  0  0  0
   23.4173  -12.4953  -15.2935 C   0  0  0  0  0  0  0  0  0  0  0  0
   23.5182  -13.6733  -16.0146 C   0  0  0  0  0  0  0  0  0  0  0  0
   26.4197   -8.9261  -15.4611 O   0  0  0  0  0  0  0  0  0  0  0  0
  2  1  1  6
  2  3  1  0
  2  6  1  0
  3  4  1  0
  4  5  2  0
  4  8  1  0
  6  7  2  0
  9  6  1  0
  9 10  1  0
 10 11  1  6
 12 11  1  0
 13 12  2  0
 14 10  1  0
 14 15  2  0
 16 12  1  0
 18 19  2  0
 18 17  1  0
 20 19  1  0
 21 20  2  0
 22 21  1  0
 23 24  1  0
 23 22  1  6
 24 14  1  0
 25 23  1  0
 26 25  1  0
 27 21  1  0
 27 28  2  0
 28 18  1  0
 29 25  2  0
M  END
$$$$
