DDY.pdb
     RDKit          3D

 29 29  0  0  1  0  0  0  0  0999 V2000
   18.2565  -11.4231  -17.8583 N   0  0  0  0  0  0  0  0  0  0  0  0
   18.6489  -10.1296  -18.3662 C   0  0  1  0  0  0  0  0  0  0  0  0
   17.5329   -9.1164  -18.3654 C   0  0  0  0  0  0  0  0  0  0  0  0
   16.4344   -9.4987  -19.2789 C   0  0  0  0  0  0  0  0  0  0  0  0
   16.7193  -10.1187  -20.3316 O   0  0  0  0  0  0  0  0  0  0  0  0
   19.8215   -9.6551  -17.5947 C   0  0  0  0  0  0  0  0  0  0  0  0
   20.1576  -10.1389  -16.4791 O   0  0  0  0  0  0  0  0  0  0  0  0
   15.1045   -9.2106  -19.0374 O   0  0  0  0  0  0  0  0  0  0  0  0
   20.6096   -8.6054  -18.1302 N   0  0  0  0  0  0  0  0  0  0  0  0
   21.7171   -8.0693  -17.3796 C   0  0  1  0  0  0  0  0  0  0  0  0
   22.6706   -7.4420  -18.3711 C   0  0  0  0  0  0  0  0  0  0  0  0
   23.4584   -8.5658  -18.9644 C   0  0  0  0  0  0  0  0  0  0  0  0
   24.1828   -9.2345  -18.1873 O   0  0  0  0  0  0  0  0  0  0  0  0
   21.1967   -7.0946  -16.4023 C   0  0  0  0  0  0  0  0  0  0  0  0
   20.2669   -6.2882  -16.7357 O   0  0  0  0  0  0  0  0  0  0  0  0
   23.4340   -8.9065  -20.3031 O   0  0  0  0  0  0  0  0  0  0  0  0
   18.1560   -3.9040   -8.7002 O   0  0  0  0  0  0  0  0  0  0  0  0
   18.7628   -4.6315   -9.7287 C   0  0  0  0  0  0  0  0  0  0  0  0
   18.2635   -4.6209  -11.0122 C   0  0  0  0  0  0  0  0  0  0  0  0
   18.8729   -5.3441  -12.0165 C   0  0  0  0  0  0  0  0  0  0  0  0
   19.9964   -6.1071  -11.8013 C   0  0  0  0  0  0  0  0  0  0  0  0
   20.6717   -6.9023  -12.8409 C   0  0  0  0  0  0  0  0  0  0  0  0
   21.0060   -6.1327  -14.0999 C   0  0  2  0  0  0  0  0  0  0  0  0
   21.6637   -6.9784  -15.0738 N   0  0  0  0  0  0  0  0  0  0  0  0
   21.9239   -5.0368  -13.7480 C   0  0  0  0  0  0  0  0  0  0  0  0
   23.2811   -5.1987  -14.0736 O   0  0  0  0  0  0  0  0  0  0  0  0
   20.4884   -6.1077  -10.5036 C   0  0  0  0  0  0  0  0  0  0  0  0
   19.8835   -5.3846   -9.4892 C   0  0  0  0  0  0  0  0  0  0  0  0
   21.5531   -3.9752  -13.1769 O   0  0  0  0  0  0  0  0  0  0  0  0
  2  1  1  1
  2  3  1  0
  2  6  1  0
  3  4  1  0
  4  5  2  0
  4  8  1  0
  6  7  2  0
  9  6  1  0
  9 10  1  0
 10 11  1  6
 12 11  1  0
 13 12  2  0
 14 10  1  0
 14 15  2  0
 16 12  1  0
 18 19  2  0
 18 17  1  0
 20 19  1  0
 21 20  2  0
 22 21  1  0
 23 24  1  0
 23 22  1  1
 24 14  1  0
 25 23  1  0
 26 25  1  0
 27 21  1  0
 27 28  2  0
 28 18  1  0
 29 25  2  0
M  END
$$$$
