TPG.pdb
     RDKit          3D

 19 19  0  0  1  0  0  0  0  0999 V2000
    8.2489  -16.5902   17.7177 C   0  0  0  0  0  0  0  0  0  0  0  0
    8.8632  -15.2490   17.2619 C   0  0  1  0  0  0  0  0  0  0  0  0
    8.3061  -15.0393   15.9989 O   0  0  0  0  0  0  0  0  0  0  0  0
    8.3707  -14.2512   18.2709 C   0  0  2  0  0  0  0  0  0  0  0  0
    8.6601  -12.9340   17.6678 N   0  0  0  0  0  0  0  0  0  0  0  0
    8.9864  -14.2985   19.5909 C   0  0  0  0  0  0  0  0  0  0  0  0
   10.2749  -14.2747   19.6097 O   0  0  0  0  0  0  0  0  0  0  0  0
    8.3705  -14.3655   20.8501 N   0  0  0  0  0  0  0  0  0  0  0  0
    6.9453  -14.3977   21.0892 C   0  0  0  0  0  0  0  0  0  0  0  0
    6.7380  -14.6174   22.5499 C   0  0  0  0  0  0  0  0  0  0  0  0
    8.0114  -14.1666   23.1799 C   0  0  0  0  0  0  0  0  0  0  0  0
    9.0673  -14.4252   22.1139 C   0  0  1  0  0  0  0  0  0  0  0  0
    9.6930  -15.7420   22.3508 C   0  0  0  0  0  0  0  0  0  0  0  0
    9.5328  -16.6920   21.5564 O   0  0  0  0  0  0  0  0  0  0  0  0
   10.4927  -15.9398   23.5001 N   0  0  0  0  0  0  0  0  0  0  0  0
   11.9314  -15.9509   23.4807 C   0  0  0  0  0  0  0  0  0  0  0  0
   12.4645  -17.3266   23.3243 C   0  0  0  0  0  0  0  0  0  0  0  0
   12.0370  -18.2533   24.0537 O   0  0  0  0  0  0  0  0  0  0  0  0
   13.4348  -17.6513   22.3912 O   0  0  0  0  0  0  0  0  0  0  0  0
  2  1  1  1
  2  3  1  0
  4  2  1  0
  4  5  1  6
  6  4  1  0
  7  6  2  0
  8  9  1  0
  8  6  1  0
 10 11  1  0
 10  9  1  0
 11 12  1  0
 12  8  1  0
 12 13  1  1
 13 15  1  0
 14 13  2  0
 15 16  1  0
 16 17  1  0
 17 19  1  0
 18 17  2  0
M  END
$$$$
