TPG.pdb
     RDKit          3D

 19 19  0  0  1  0  0  0  0  0999 V2000
    7.9226  -16.9315   17.3336 C   0  0  0  0  0  0  0  0  0  0  0  0
    8.5984  -15.6753   16.7425 C   0  0  1  0  0  0  0  0  0  0  0  0
    8.0216  -15.5508   15.4771 O   0  0  0  0  0  0  0  0  0  0  0  0
    8.1878  -14.5625   17.6641 C   0  0  2  0  0  0  0  0  0  0  0  0
    8.5278  -13.3249   16.9324 N   0  0  0  0  0  0  0  0  0  0  0  0
    8.8379  -14.5200   18.9676 C   0  0  0  0  0  0  0  0  0  0  0  0
   10.1267  -14.5317   18.9519 O   0  0  0  0  0  0  0  0  0  0  0  0
    8.2553  -14.4668   20.2432 N   0  0  0  0  0  0  0  0  0  0  0  0
    6.8462  -14.2989   20.5184 C   0  0  0  0  0  0  0  0  0  0  0  0
    6.6535  -14.4464   21.9901 C   0  0  0  0  0  0  0  0  0  0  0  0
    7.9936  -14.1543   22.5735 C   0  0  0  0  0  0  0  0  0  0  0  0
    8.9739  -14.5840   21.4906 C   0  0  1  0  0  0  0  0  0  0  0  0
    9.4233  -15.9659   21.7545 C   0  0  0  0  0  0  0  0  0  0  0  0
    9.0973  -16.9113   21.0066 O   0  0  0  0  0  0  0  0  0  0  0  0
   10.2412  -16.2333   22.8767 N   0  0  0  0  0  0  0  0  0  0  0  0
   11.5476  -15.6615   23.0681 C   0  0  0  0  0  0  0  0  0  0  0  0
   12.6197  -16.5965   22.6463 C   0  0  0  0  0  0  0  0  0  0  0  0
   13.0814  -17.4319   23.4602 O   0  0  0  0  0  0  0  0  0  0  0  0
   13.1522  -16.5963   21.3681 O   0  0  0  0  0  0  0  0  0  0  0  0
  2  1  1  1
  2  3  1  0
  4  2  1  0
  4  5  1  6
  6  4  1  0
  7  6  2  0
  8  9  1  0
  8  6  1  0
 10 11  1  0
 10  9  1  0
 11 12  1  0
 12  8  1  0
 12 13  1  1
 13 15  1  0
 14 13  2  0
 15 16  1  0
 16 17  1  0
 17 19  1  0
 18 17  2  0
M  END
$$$$
