TPG.pdb
     RDKit          3D

 19 19  0  0  1  0  0  0  0  0999 V2000
    7.7598  -16.3571   14.1520 C   0  0  0  0  0  0  0  0  0  0  0  0
    8.0372  -16.2981   15.6698 C   0  0  1  0  0  0  0  0  0  0  0  0
    8.7760  -17.4563   15.9189 O   0  0  0  0  0  0  0  0  0  0  0  0
    8.8578  -15.0530   15.8507 C   0  0  2  0  0  0  0  0  0  0  0  0
    9.9953  -15.2154   14.9221 N   0  0  0  0  0  0  0  0  0  0  0  0
    9.3854  -14.8064   17.1865 C   0  0  0  0  0  0  0  0  0  0  0  0
   10.5885  -15.2173   17.3987 O   0  0  0  0  0  0  0  0  0  0  0  0
    8.7653  -14.1806   18.2788 N   0  0  0  0  0  0  0  0  0  0  0  0
    7.4299  -13.6270   18.2847 C   0  0  0  0  0  0  0  0  0  0  0  0
    7.1258  -13.1983   19.6806 C   0  0  0  0  0  0  0  0  0  0  0  0
    8.4621  -13.0141   20.3145 C   0  0  0  0  0  0  0  0  0  0  0  0
    9.3618  -13.9998   19.5817 C   0  0  1  0  0  0  0  0  0  0  0  0
    9.4362  -15.2607   20.3474 C   0  0  0  0  0  0  0  0  0  0  0  0
    8.6434  -16.2013   20.1326 O   0  0  0  0  0  0  0  0  0  0  0  0
   10.4239  -15.4145   21.3476 N   0  0  0  0  0  0  0  0  0  0  0  0
   11.0864  -16.6596   21.6320 C   0  0  0  0  0  0  0  0  0  0  0  0
   12.1918  -16.4799   22.6052 C   0  0  0  0  0  0  0  0  0  0  0  0
   13.1588  -15.7309   22.3270 O   0  0  0  0  0  0  0  0  0  0  0  0
   12.2137  -17.1116   23.8372 O   0  0  0  0  0  0  0  0  0  0  0  0
  2  1  1  6
  2  3  1  0
  4  2  1  0
  4  5  1  6
  6  4  1  0
  7  6  2  0
  8  9  1  0
  8  6  1  0
 10 11  1  0
 10  9  1  0
 11 12  1  0
 12  8  1  0
 12 13  1  1
 13 15  1  0
 14 13  2  0
 15 16  1  0
 16 17  1  0
 17 19  1  0
 18 17  2  0
M  END
$$$$
