TPG.pdb
     RDKit          3D

 19 19  0  0  1  0  0  0  0  0999 V2000
    6.2802  -17.1999   25.0866 C   0  0  0  0  0  0  0  0  0  0  0  0
    6.0973  -18.3896   24.1196 C   0  0  1  0  0  0  0  0  0  0  0  0
    4.8704  -18.9396   24.4960 O   0  0  0  0  0  0  0  0  0  0  0  0
    6.0410  -17.7581   22.7579 C   0  0  2  0  0  0  0  0  0  0  0  0
    5.5436  -18.8279   21.8687 N   0  0  0  0  0  0  0  0  0  0  0  0
    7.2982  -17.2574   22.2172 C   0  0  0  0  0  0  0  0  0  0  0  0
    8.1491  -18.1547   21.8538 O   0  0  0  0  0  0  0  0  0  0  0  0
    7.7140  -15.9295   22.0349 N   0  0  0  0  0  0  0  0  0  0  0  0
    6.9262  -14.7533   22.3271 C   0  0  0  0  0  0  0  0  0  0  0  0
    7.8021  -13.5627   22.1266 C   0  0  0  0  0  0  0  0  0  0  0  0
    8.8805  -14.0414   21.2159 C   0  0  0  0  0  0  0  0  0  0  0  0
    9.0071  -15.5248   21.5345 C   0  0  1  0  0  0  0  0  0  0  0  0
   10.0830  -15.7246   22.5264 C   0  0  0  0  0  0  0  0  0  0  0  0
    9.9183  -15.4439   23.7320 O   0  0  0  0  0  0  0  0  0  0  0  0
   11.3304  -16.2447   22.1103 N   0  0  0  0  0  0  0  0  0  0  0  0
   12.3264  -16.7536   23.0154 C   0  0  0  0  0  0  0  0  0  0  0  0
   13.6595  -16.1585   22.7507 C   0  0  0  0  0  0  0  0  0  0  0  0
   14.2000  -16.3014   21.6278 O   0  0  0  0  0  0  0  0  0  0  0  0
   14.3577  -15.4343   23.7022 O   0  0  0  0  0  0  0  0  0  0  0  0
  2  1  1  1
  2  3  1  0
  4  2  1  0
  4  5  1  6
  6  4  1  0
  7  6  2  0
  8  9  1  0
  8  6  1  0
 10 11  1  0
 10  9  1  0
 11 12  1  0
 12  8  1  0
 12 13  1  1
 13 15  1  0
 14 13  2  0
 15 16  1  0
 16 17  1  0
 17 19  1  0
 18 17  2  0
M  END
$$$$
