TPG.pdb
     RDKit          3D

 19 19  0  0  1  0  0  0  0  0999 V2000
    8.1089  -11.7819   26.0034 C   0  0  0  0  0  0  0  0  0  0  0  0
    7.0037  -12.5311   26.7789 C   0  0  1  0  0  0  0  0  0  0  0  0
    6.2838  -11.5102   27.4027 O   0  0  0  0  0  0  0  0  0  0  0  0
    6.2012  -13.2198   25.7121 C   0  0  2  0  0  0  0  0  0  0  0  0
    5.0556  -13.8151   26.4304 N   0  0  0  0  0  0  0  0  0  0  0  0
    6.8752  -14.2745   24.9658 C   0  0  0  0  0  0  0  0  0  0  0  0
    6.9738  -15.4108   25.5661 O   0  0  0  0  0  0  0  0  0  0  0  0
    7.4334  -14.2268   23.6792 N   0  0  0  0  0  0  0  0  0  0  0  0
    7.4096  -13.0848   22.7933 C   0  0  0  0  0  0  0  0  0  0  0  0
    8.2399  -13.4218   21.6009 C   0  0  0  0  0  0  0  0  0  0  0  0
    8.2682  -14.9118   21.5744 C   0  0  0  0  0  0  0  0  0  0  0  0
    8.1349  -15.3137   23.0368 C   0  0  1  0  0  0  0  0  0  0  0  0
    9.4778  -15.5349   23.6104 C   0  0  0  0  0  0  0  0  0  0  0  0
   10.1114  -14.6107   24.1615 O   0  0  0  0  0  0  0  0  0  0  0  0
   10.0666  -16.8186   23.5382 N   0  0  0  0  0  0  0  0  0  0  0  0
   11.1735  -17.2375   24.3563 C   0  0  0  0  0  0  0  0  0  0  0  0
   12.4733  -16.9846   23.6870 C   0  0  0  0  0  0  0  0  0  0  0  0
   12.5090  -16.3655   22.5966 O   0  0  0  0  0  0  0  0  0  0  0  0
   13.6815  -17.4066   24.2158 O   0  0  0  0  0  0  0  0  0  0  0  0
  2  1  1  6
  2  3  1  0
  4  2  1  0
  4  5  1  1
  6  4  1  0
  7  6  2  0
  8  9  1  0
  8  6  1  0
 10 11  1  0
 10  9  1  0
 11 12  1  0
 12  8  1  0
 12 13  1  1
 13 15  1  0
 14 13  2  0
 15 16  1  0
 16 17  1  0
 17 19  1  0
 18 17  2  0
M  END
$$$$
