VAT.pdb
     RDKit          3D

 20 19  0  0  1  0  0  0  0  0999 V2000
   18.7571  -13.3098  -19.0929 C   0  0  0  0  0  0  0  0  0  0  0  0
   19.0295  -12.6072  -17.7914 C   0  0  1  0  0  0  0  0  0  0  0  0
   19.7961  -13.5794  -16.9097 C   0  0  0  0  0  0  0  0  0  0  0  0
   19.9058  -11.4154  -18.0122 C   0  0  2  0  0  0  0  0  0  0  0  0
   20.9902  -11.8383  -18.9362 N   0  0  0  0  0  0  0  0  0  0  0  0
   20.5380  -10.8355  -16.8403 C   0  0  0  0  0  0  0  0  0  0  0  0
   19.7790  -10.3195  -15.9461 O   0  0  0  0  0  0  0  0  0  0  0  0
   23.7738  -10.6126  -14.9541 C   0  0  0  0  0  0  0  0  0  0  0  0
   22.4658  -10.0476  -15.4197 C   0  0  2  0  0  0  0  0  0  0  0  0
   21.9089  -10.7642  -16.5471 N   0  0  0  0  0  0  0  0  0  0  0  0
   22.5625   -8.5831  -15.6992 C   0  0  0  0  0  0  0  0  0  0  0  0
   23.0795   -8.1531  -16.7628 O   0  0  0  0  0  0  0  0  0  0  0  0
   19.6539   -6.1858  -14.7190 C   0  0  0  0  0  0  0  0  0  0  0  0
   20.7868   -5.8588  -15.6822 C   0  0  1  0  0  0  0  0  0  0  0  0
   20.8190   -4.4768  -15.8682 O   0  0  0  0  0  0  0  0  0  0  0  0
   22.1002   -6.2371  -15.0181 C   0  0  2  0  0  0  0  0  0  0  0  0
   22.0651   -7.6649  -14.7538 N   0  0  0  0  0  0  0  0  0  0  0  0
   22.2424   -5.5017  -13.7342 C   0  0  0  0  0  0  0  0  0  0  0  0
   22.1707   -6.1087  -12.6432 O   0  0  0  0  0  0  0  0  0  0  0  0
   22.4565   -4.1309  -13.7356 O   0  0  0  0  0  0  0  0  0  0  0  0
  2  1  1  6
  2  4  1  0
  3  2  1  0
  4  5  1  6
  6  4  1  0
  7  6  2  0
  9 10  1  0
  9  8  1  6
 10  6  1  0
 11  9  1  0
 12 11  2  0
 14 13  1  1
 14 15  1  0
 16 14  1  0
 16 17  1  1
 17 11  1  0
 18 20  1  0
 18 16  1  0
 19 18  2  0
M  END
$$$$
