VAT.pdb
     RDKit          3D

 20 19  0  0  1  0  0  0  0  0999 V2000
   20.3881  -14.1706  -18.8921 C   0  0  0  0  0  0  0  0  0  0  0  0
   20.2035  -12.6811  -18.7972 C   0  0  1  0  0  0  0  0  0  0  0  0
   18.7087  -12.4197  -18.7121 C   0  0  0  0  0  0  0  0  0  0  0  0
   20.8229  -12.1549  -17.5416 C   0  0  2  0  0  0  0  0  0  0  0  0
   20.3351  -13.0069  -16.4259 N   0  0  0  0  0  0  0  0  0  0  0  0
   20.5329  -10.7757  -17.1910 C   0  0  0  0  0  0  0  0  0  0  0  0
   21.1198   -9.8534  -17.8594 O   0  0  0  0  0  0  0  0  0  0  0  0
   18.2192   -8.6452  -15.1019 C   0  0  0  0  0  0  0  0  0  0  0  0
   19.4826   -8.9062  -15.8653 C   0  0  2  0  0  0  0  0  0  0  0  0
   19.6692  -10.3043  -16.1898 N   0  0  0  0  0  0  0  0  0  0  0  0
   20.6783   -8.3449  -15.1672 C   0  0  0  0  0  0  0  0  0  0  0  0
   21.3455   -9.0363  -14.3547 O   0  0  0  0  0  0  0  0  0  0  0  0
   23.7112   -7.0644  -16.5420 C   0  0  0  0  0  0  0  0  0  0  0  0
   23.1579   -5.8854  -15.7533 C   0  0  1  0  0  0  0  0  0  0  0  0
   22.4114   -5.0888  -16.6214 O   0  0  0  0  0  0  0  0  0  0  0  0
   22.1871   -6.4213  -14.7145 C   0  0  2  0  0  0  0  0  0  0  0  0
   21.0670   -7.0153  -15.4232 N   0  0  0  0  0  0  0  0  0  0  0  0
   21.6963   -5.3050  -13.8646 C   0  0  0  0  0  0  0  0  0  0  0  0
   20.5486   -4.8371  -14.0310 O   0  0  0  0  0  0  0  0  0  0  0  0
   22.5103   -4.7710  -12.8760 O   0  0  0  0  0  0  0  0  0  0  0  0
  2  1  1  1
  2  4  1  0
  3  2  1  0
  4  5  1  1
  6  4  1  0
  7  6  2  0
  9 10  1  0
  9  8  1  1
 10  6  1  0
 11  9  1  0
 12 11  2  0
 14 13  1  6
 14 15  1  0
 16 14  1  0
 16 17  1  6
 17 11  1  0
 18 20  1  0
 18 16  1  0
 19 18  2  0
M  END
$$$$
