VAT.pdb
     RDKit          3D

 20 19  0  0  1  0  0  0  0  0999 V2000
   18.0814  -12.9982  -18.2054 C   0  0  0  0  0  0  0  0  0  0  0  0
   17.8636  -11.6673  -17.5400 C   0  0  1  0  0  0  0  0  0  0  0  0
   16.8997  -11.8956  -16.3871 C   0  0  0  0  0  0  0  0  0  0  0  0
   19.1435  -11.1555  -16.9596 C   0  0  2  0  0  0  0  0  0  0  0  0
   19.6851  -12.2291  -16.0865 N   0  0  0  0  0  0  0  0  0  0  0  0
   19.0677   -9.9452  -16.1602 C   0  0  0  0  0  0  0  0  0  0  0  0
   18.7975   -8.8473  -16.7630 O   0  0  0  0  0  0  0  0  0  0  0  0
   18.8214   -8.7092  -12.6235 C   0  0  0  0  0  0  0  0  0  0  0  0
   19.2137   -8.5554  -14.0620 C   0  0  2  0  0  0  0  0  0  0  0  0
   19.2548   -9.8141  -14.7752 N   0  0  0  0  0  0  0  0  0  0  0  0
   20.4965   -7.8037  -14.2096 C   0  0  0  0  0  0  0  0  0  0  0  0
   21.5986   -8.4034  -14.3042 O   0  0  0  0  0  0  0  0  0  0  0  0
   21.1630   -5.2117  -16.7553 C   0  0  0  0  0  0  0  0  0  0  0  0
   21.4534   -4.5467  -15.4168 C   0  0  1  0  0  0  0  0  0  0  0  0
   20.3063   -3.8674  -15.0066 O   0  0  0  0  0  0  0  0  0  0  0  0
   21.7023   -5.6368  -14.3878 C   0  0  2  0  0  0  0  0  0  0  0  0
   20.4722   -6.3957  -14.2436 N   0  0  0  0  0  0  0  0  0  0  0  0
   22.0576   -5.0216  -13.0822 C   0  0  0  0  0  0  0  0  0  0  0  0
   21.2300   -4.9978  -12.1450 O   0  0  0  0  0  0  0  0  0  0  0  0
   23.3148   -4.4665  -12.8918 O   0  0  0  0  0  0  0  0  0  0  0  0
  2  1  1  1
  2  4  1  0
  3  2  1  0
  4  5  1  1
  6  4  1  0
  7  6  2  0
  9 10  1  0
  9  8  1  1
 10  6  1  0
 11  9  1  0
 12 11  2  0
 14 13  1  6
 14 15  1  0
 16 14  1  0
 16 17  1  1
 17 11  1  0
 18 20  1  0
 18 16  1  0
 19 18  2  0
M  END
$$$$
