VAT.pdb
     RDKit          3D

 20 19  0  0  1  0  0  0  0  0999 V2000
   18.8044  -13.4026  -18.3067 C   0  0  0  0  0  0  0  0  0  0  0  0
   18.7600  -11.9010  -18.2370 C   0  0  1  0  0  0  0  0  0  0  0  0
   17.3599  -11.5148  -17.7888 C   0  0  0  0  0  0  0  0  0  0  0  0
   19.7167  -11.3955  -17.2044 C   0  0  2  0  0  0  0  0  0  0  0  0
   19.6086  -12.3009  -16.0311 N   0  0  0  0  0  0  0  0  0  0  0  0
   19.5134  -10.0398  -16.7245 C   0  0  0  0  0  0  0  0  0  0  0  0
   19.8490   -9.0755  -17.4988 O   0  0  0  0  0  0  0  0  0  0  0  0
   17.6831   -8.0101  -14.1796 C   0  0  0  0  0  0  0  0  0  0  0  0
   18.8664   -8.2539  -15.0669 C   0  0  2  0  0  0  0  0  0  0  0  0
   18.9815   -9.6330  -15.4908 N   0  0  0  0  0  0  0  0  0  0  0  0
   20.1351   -7.7676  -14.4455 C   0  0  0  0  0  0  0  0  0  0  0  0
   20.7378   -8.4455  -13.5734 O   0  0  0  0  0  0  0  0  0  0  0  0
   23.2066   -6.9984  -16.1395 C   0  0  0  0  0  0  0  0  0  0  0  0
   22.8445   -5.7023  -15.4273 C   0  0  1  0  0  0  0  0  0  0  0  0
   22.1156   -4.9057  -16.3103 O   0  0  0  0  0  0  0  0  0  0  0  0
   21.9118   -6.0368  -14.2752 C   0  0  2  0  0  0  0  0  0  0  0  0
   20.6676   -6.5256  -14.8433 N   0  0  0  0  0  0  0  0  0  0  0  0
   21.6417   -4.8120  -13.4776 C   0  0  0  0  0  0  0  0  0  0  0  0
   20.5703   -4.1833  -13.6221 O   0  0  0  0  0  0  0  0  0  0  0  0
   22.5792   -4.3543  -12.5630 O   0  0  0  0  0  0  0  0  0  0  0  0
  2  1  1  1
  2  4  1  0
  3  2  1  0
  4  5  1  1
  6  4  1  0
  7  6  2  0
  9 10  1  0
  9  8  1  1
 10  6  1  0
 11  9  1  0
 12 11  2  0
 14 13  1  6
 14 15  1  0
 16 14  1  0
 16 17  1  6
 17 11  1  0
 18 20  1  0
 18 16  1  0
 19 18  2  0
M  END
$$$$
