VAT.pdb
     RDKit          3D

 20 19  0  0  1  0  0  0  0  0999 V2000
   16.8211  -12.7675  -15.5236 C   0  0  0  0  0  0  0  0  0  0  0  0
   18.1324  -12.3389  -16.1223 C   0  0  1  0  0  0  0  0  0  0  0  0
   18.2574  -13.0321  -17.4692 C   0  0  0  0  0  0  0  0  0  0  0  0
   18.1368  -10.8647  -16.3746 C   0  0  2  0  0  0  0  0  0  0  0  0
   18.3859  -10.6728  -17.8270 N   0  0  0  0  0  0  0  0  0  0  0  0
   19.1243  -10.0761  -15.6587 C   0  0  0  0  0  0  0  0  0  0  0  0
   18.8334   -9.6887  -14.4725 O   0  0  0  0  0  0  0  0  0  0  0  0
   22.7587   -9.4258  -15.4902 C   0  0  0  0  0  0  0  0  0  0  0  0
   21.3506   -8.9505  -15.2947 C   0  0  2  0  0  0  0  0  0  0  0  0
   20.3922   -9.6714  -16.1051 N   0  0  0  0  0  0  0  0  0  0  0  0
   21.2308   -7.4746  -15.4935 C   0  0  0  0  0  0  0  0  0  0  0  0
   21.1804   -6.9720  -16.6460 O   0  0  0  0  0  0  0  0  0  0  0  0
   18.6483   -5.3423  -14.9409 C   0  0  0  0  0  0  0  0  0  0  0  0
   19.7090   -4.7601  -14.0168 C   0  0  1  0  0  0  0  0  0  0  0  0
   19.5584   -5.3391  -12.7567 O   0  0  0  0  0  0  0  0  0  0  0  0
   21.0738   -5.1882  -14.5296 C   0  0  2  0  0  0  0  0  0  0  0  0
   21.1732   -6.6284  -14.3689 N   0  0  0  0  0  0  0  0  0  0  0  0
   22.1390   -4.5286  -13.7297 C   0  0  0  0  0  0  0  0  0  0  0  0
   22.8151   -5.1854  -12.9080 O   0  0  0  0  0  0  0  0  0  0  0  0
   22.3928   -3.1738  -13.8887 O   0  0  0  0  0  0  0  0  0  0  0  0
  2  1  1  6
  2  4  1  0
  3  2  1  0
  4  5  1  6
  6  4  1  0
  7  6  2  0
  9 10  1  0
  9  8  1  6
 10  6  1  0
 11  9  1  0
 12 11  2  0
 14 13  1  6
 14 15  1  0
 16 14  1  0
 16 17  1  1
 17 11  1  0
 18 20  1  0
 18 16  1  0
 19 18  2  0
M  END
$$$$
