MFT.pdb
     RDKit          3D

 27 27  0  0  1  0  0  0  0  0999 V2000
    3.5439  -18.4957   22.4855 C   0  0  0  0  0  0  0  0  0  0  0  0
    4.1860  -18.6193   20.8081 S   0  0  0  0  0  0  0  0  0  0  0  0
    5.1352  -17.1342   20.3816 C   0  0  0  0  0  0  0  0  0  0  0  0
    6.3726  -17.0543   21.2503 C   0  0  0  0  0  0  0  0  0  0  0  0
    7.0299  -15.7150   21.0365 C   0  0  2  0  0  0  0  0  0  0  0  0
    7.6222  -15.7012   19.7269 N   0  0  0  0  0  0  0  0  0  0  0  0
    7.9897  -15.3802   22.1057 C   0  0  0  0  0  0  0  0  0  0  0  0
    9.2205  -15.3112   21.8616 O   0  0  0  0  0  0  0  0  0  0  0  0
    7.4648  -15.1410   23.4142 N   0  0  0  0  0  0  0  0  0  0  0  0
    8.2977  -15.0481   24.5574 C   0  0  1  0  0  0  0  0  0  0  0  0
    7.7319  -14.2624   25.7263 C   0  0  0  0  0  0  0  0  0  0  0  0
    8.6304  -14.1977   26.8875 C   0  0  0  0  0  0  0  0  0  0  0  0
    9.4251  -13.1120   27.1238 C   0  0  0  0  0  0  0  0  0  0  0  0
   10.2724  -13.0759   28.2187 C   0  0  0  0  0  0  0  0  0  0  0  0
   10.3385  -14.1174   29.0900 C   0  0  0  0  0  0  0  0  0  0  0  0
    9.5510  -15.2384   28.8906 C   0  0  0  0  0  0  0  0  0  0  0  0
    8.7226  -15.2547   27.8054 C   0  0  0  0  0  0  0  0  0  0  0  0
    8.9073  -16.3243   24.9408 C   0  0  0  0  0  0  0  0  0  0  0  0
    8.1720  -17.2509   25.3683 O   0  0  0  0  0  0  0  0  0  0  0  0
   10.7261  -18.7150   22.8479 C   0  0  0  0  0  0  0  0  0  0  0  0
   11.6196  -18.4771   24.0280 C   0  0  1  0  0  0  0  0  0  0  0  0
   12.6910  -17.6906   23.6764 O   0  0  0  0  0  0  0  0  0  0  0  0
   10.8303  -17.9116   25.1935 C   0  0  2  0  0  0  0  0  0  0  0  0
   10.3098  -16.5891   24.8590 N   0  0  0  0  0  0  0  0  0  0  0  0
   11.6716  -17.8454   26.4090 C   0  0  0  0  0  0  0  0  0  0  0  0
   12.0623  -18.9995   27.0467 O   0  0  0  0  0  0  0  0  0  0  0  0
   12.0213  -16.7320   26.8473 O   0  0  0  0  0  0  0  0  0  0  0  0
  2  1  1  0
  3  2  1  0
  4  3  1  0
  4  5  1  0
  5  6  1  6
  7  5  1  0
  7  8  2  0
  9  7  1  0
 10  9  1  0
 11 12  1  0
 10 11  1  1
 12 17  2  0
 13 12  1  0
 13 14  2  0
 14 15  1  0
 15 16  2  0
 17 16  1  0
 18 10  1  0
 19 18  2  0
 21 20  1  6
 22 21  1  0
 23 21  1  0
 23 24  1  6
 24 18  1  0
 25 23  1  0
 26 25  1  0
 27 25  2  0
M  END
$$$$
