MFT.pdb
     RDKit          3D

 27 27  0  0  1  0  0  0  0  0999 V2000
    5.8648  -19.9760   19.6072 C   0  0  0  0  0  0  0  0  0  0  0  0
    7.3070  -20.0454   18.5317 S   0  0  0  0  0  0  0  0  0  0  0  0
    8.1299  -18.4306   18.4699 C   0  0  0  0  0  0  0  0  0  0  0  0
    8.2385  -17.8608   19.8684 C   0  0  0  0  0  0  0  0  0  0  0  0
    8.8430  -16.4828   19.7853 C   0  0  2  0  0  0  0  0  0  0  0  0
   10.0220  -16.5503   18.9658 N   0  0  0  0  0  0  0  0  0  0  0  0
    9.0994  -15.8979   21.1152 C   0  0  0  0  0  0  0  0  0  0  0  0
   10.2110  -16.0559   21.6797 O   0  0  0  0  0  0  0  0  0  0  0  0
    8.0417  -15.1534   21.7251 N   0  0  0  0  0  0  0  0  0  0  0  0
    8.1313  -14.6605   23.0510 C   0  0  1  0  0  0  0  0  0  0  0  0
    7.1278  -13.5855   23.4267 C   0  0  0  0  0  0  0  0  0  0  0  0
    7.2189  -13.1532   24.8283 C   0  0  0  0  0  0  0  0  0  0  0  0
    6.2260  -13.4155   25.7291 C   0  0  0  0  0  0  0  0  0  0  0  0
    6.3275  -12.9899   27.0431 C   0  0  0  0  0  0  0  0  0  0  0  0
    7.4161  -12.3000   27.4757 C   0  0  0  0  0  0  0  0  0  0  0  0
    8.4471  -12.0117   26.5980 C   0  0  0  0  0  0  0  0  0  0  0  0
    8.3281  -12.4397   25.3069 C   0  0  0  0  0  0  0  0  0  0  0  0
    8.2739  -15.7158   24.0578 C   0  0  0  0  0  0  0  0  0  0  0  0
    7.2940  -16.4652   24.3033 O   0  0  0  0  0  0  0  0  0  0  0  0
    9.7691  -18.7218   23.8050 C   0  0  0  0  0  0  0  0  0  0  0  0
   10.4318  -18.1886   25.0396 C   0  0  1  0  0  0  0  0  0  0  0  0
   11.7113  -17.7689   24.7622 O   0  0  0  0  0  0  0  0  0  0  0  0
    9.5825  -17.1073   25.6803 C   0  0  2  0  0  0  0  0  0  0  0  0
    9.4771  -15.9529   24.7926 N   0  0  0  0  0  0  0  0  0  0  0  0
   10.1487  -16.7064   26.9873 C   0  0  0  0  0  0  0  0  0  0  0  0
   10.6425  -15.4359   27.1698 O   0  0  0  0  0  0  0  0  0  0  0  0
   10.1726  -17.5335   27.9198 O   0  0  0  0  0  0  0  0  0  0  0  0
  2  1  1  0
  3  2  1  0
  4  3  1  0
  4  5  1  0
  5  6  1  1
  7  5  1  0
  7  8  2  0
  9  7  1  0
 10  9  1  0
 11 12  1  0
 10 11  1  1
 12 17  2  0
 13 12  1  0
 13 14  2  0
 14 15  1  0
 15 16  2  0
 17 16  1  0
 18 10  1  0
 19 18  2  0
 21 20  1  6
 22 21  1  0
 23 21  1  0
 23 24  1  6
 24 18  1  0
 25 23  1  0
 26 25  1  0
 27 25  2  0
M  END
$$$$
