MFT.pdb
     RDKit          3D

 27 27  0  0  1  0  0  0  0  0999 V2000
    7.0522  -19.7573   19.8161 C   0  0  0  0  0  0  0  0  0  0  0  0
    6.0012  -18.7813   18.7279 S   0  0  0  0  0  0  0  0  0  0  0  0
    6.0254  -17.0363   19.2207 C   0  0  0  0  0  0  0  0  0  0  0  0
    7.0098  -16.8413   20.3543 C   0  0  0  0  0  0  0  0  0  0  0  0
    6.8824  -15.4309   20.8702 C   0  0  2  0  0  0  0  0  0  0  0  0
    7.1798  -14.5234   19.7959 N   0  0  0  0  0  0  0  0  0  0  0  0
    7.7072  -15.1922   22.0699 C   0  0  0  0  0  0  0  0  0  0  0  0
    8.8635  -14.7113   21.9657 O   0  0  0  0  0  0  0  0  0  0  0  0
    7.1403  -15.5277   23.3392 N   0  0  0  0  0  0  0  0  0  0  0  0
    7.8966  -15.4930   24.5376 C   0  0  1  0  0  0  0  0  0  0  0  0
    7.1140  -15.2056   25.8060 C   0  0  0  0  0  0  0  0  0  0  0  0
    6.9620  -13.7731   26.0971 C   0  0  0  0  0  0  0  0  0  0  0  0
    5.7718  -13.1253   25.9248 C   0  0  0  0  0  0  0  0  0  0  0  0
    5.6531  -11.7722   26.1954 C   0  0  0  0  0  0  0  0  0  0  0  0
    6.7150  -11.0492   26.6402 C   0  0  0  0  0  0  0  0  0  0  0  0
    7.9408  -11.6640   26.8298 C   0  0  0  0  0  0  0  0  0  0  0  0
    8.0375  -12.9985   26.5573 C   0  0  0  0  0  0  0  0  0  0  0  0
    8.8417  -16.6058   24.6639 C   0  0  0  0  0  0  0  0  0  0  0  0
    8.4160  -17.7855   24.5676 O   0  0  0  0  0  0  0  0  0  0  0  0
   13.3029  -18.5026   24.1517 C   0  0  0  0  0  0  0  0  0  0  0  0
   12.3414  -17.3569   24.0497 C   0  0  1  0  0  0  0  0  0  0  0  0
   12.0085  -17.1163   22.7377 O   0  0  0  0  0  0  0  0  0  0  0  0
   11.1299  -17.5927   24.9316 C   0  0  2  0  0  0  0  0  0  0  0  0
   10.2422  -16.4341   24.8938 N   0  0  0  0  0  0  0  0  0  0  0  0
   11.5460  -17.8820   26.3218 C   0  0  0  0  0  0  0  0  0  0  0  0
   12.2315  -19.0375   26.6153 O   0  0  0  0  0  0  0  0  0  0  0  0
   11.2679  -17.0663   27.2226 O   0  0  0  0  0  0  0  0  0  0  0  0
  2  1  1  0
  3  2  1  0
  4  3  1  0
  4  5  1  0
  5  6  1  6
  7  5  1  0
  7  8  2  0
  9  7  1  0
 10  9  1  0
 11 12  1  0
 10 11  1  1
 12 17  2  0
 13 12  1  0
 13 14  2  0
 14 15  1  0
 15 16  2  0
 17 16  1  0
 18 10  1  0
 19 18  2  0
 21 20  1  6
 22 21  1  0
 23 21  1  0
 23 24  1  1
 24 18  1  0
 25 23  1  0
 26 25  1  0
 27 25  2  0
M  END
$$$$
