MFT.pdb
     RDKit          3D

 27 27  0  0  1  0  0  0  0  0999 V2000
    8.3741  -11.6546   18.7046 C   0  0  0  0  0  0  0  0  0  0  0  0
    7.7342  -13.1432   17.9198 S   0  0  0  0  0  0  0  0  0  0  0  0
    7.9391  -14.5749   19.0137 C   0  0  0  0  0  0  0  0  0  0  0  0
    9.3921  -14.7006   19.4205 C   0  0  0  0  0  0  0  0  0  0  0  0
    9.5212  -15.8226   20.4184 C   0  0  2  0  0  0  0  0  0  0  0  0
    8.4823  -16.7826   20.1628 N   0  0  0  0  0  0  0  0  0  0  0  0
    9.5282  -15.3400   21.8125 C   0  0  0  0  0  0  0  0  0  0  0  0
   10.5246  -14.7275   22.2721 O   0  0  0  0  0  0  0  0  0  0  0  0
    8.3670  -15.5964   22.6067 N   0  0  0  0  0  0  0  0  0  0  0  0
    8.2309  -15.1019   23.9281 C   0  0  1  0  0  0  0  0  0  0  0  0
    6.8833  -14.4938   24.2716 C   0  0  0  0  0  0  0  0  0  0  0  0
    6.8970  -13.6714   25.4894 C   0  0  0  0  0  0  0  0  0  0  0  0
    6.0993  -13.9573   26.5609 C   0  0  0  0  0  0  0  0  0  0  0  0
    6.1205  -13.1629   27.6951 C   0  0  0  0  0  0  0  0  0  0  0  0
    6.9342  -12.0769   27.7768 C   0  0  0  0  0  0  0  0  0  0  0  0
    7.7603  -11.7491   26.7153 C   0  0  0  0  0  0  0  0  0  0  0  0
    7.7246  -12.5445   25.6061 C   0  0  0  0  0  0  0  0  0  0  0  0
    8.7455  -16.0175   24.9501 C   0  0  0  0  0  0  0  0  0  0  0  0
    8.4642  -15.8084   26.1581 O   0  0  0  0  0  0  0  0  0  0  0  0
    9.4002  -20.1266   24.6042 C   0  0  0  0  0  0  0  0  0  0  0  0
   10.5366  -19.3337   25.1764 C   0  0  1  0  0  0  0  0  0  0  0  0
   11.5381  -19.1788   24.2474 O   0  0  0  0  0  0  0  0  0  0  0  0
   10.0419  -18.0134   25.7358 C   0  0  2  0  0  0  0  0  0  0  0  0
    9.5618  -17.1541   24.6574 N   0  0  0  0  0  0  0  0  0  0  0  0
   11.1135  -17.3370   26.4996 C   0  0  0  0  0  0  0  0  0  0  0  0
   11.6062  -17.9011   27.6531 O   0  0  0  0  0  0  0  0  0  0  0  0
   11.5638  -16.2509   26.0853 O   0  0  0  0  0  0  0  0  0  0  0  0
  2  1  1  0
  3  2  1  0
  4  3  1  0
  4  5  1  0
  5  6  1  1
  7  5  1  0
  7  8  2  0
  9  7  1  0
 10  9  1  0
 11 12  1  0
 10 11  1  1
 12 17  2  0
 13 12  1  0
 13 14  2  0
 14 15  1  0
 15 16  2  0
 17 16  1  0
 18 10  1  0
 19 18  2  0
 21 20  1  6
 22 21  1  0
 23 21  1  0
 23 24  1  6
 24 18  1  0
 25 23  1  0
 26 25  1  0
 27 25  2  0
M  END
$$$$
