MFT.pdb
     RDKit          3D

 27 27  0  0  1  0  0  0  0  0999 V2000
    6.8549  -20.9771   20.2724 C   0  0  0  0  0  0  0  0  0  0  0  0
    8.5143  -20.9476   19.5745 S   0  0  0  0  0  0  0  0  0  0  0  0
    9.1289  -19.2445   19.4726 C   0  0  0  0  0  0  0  0  0  0  0  0
    8.5553  -18.4275   20.6109 C   0  0  0  0  0  0  0  0  0  0  0  0
    9.0326  -17.0045   20.4754 C   0  0  2  0  0  0  0  0  0  0  0  0
   10.2313  -16.9987   19.6820 N   0  0  0  0  0  0  0  0  0  0  0  0
    9.2038  -16.3398   21.7813 C   0  0  0  0  0  0  0  0  0  0  0  0
   10.3082  -16.3803   22.3795 O   0  0  0  0  0  0  0  0  0  0  0  0
    8.0730  -15.6568   22.3287 N   0  0  0  0  0  0  0  0  0  0  0  0
    8.1130  -15.0242   23.5966 C   0  0  1  0  0  0  0  0  0  0  0  0
    7.1086  -13.9066   23.8106 C   0  0  0  0  0  0  0  0  0  0  0  0
    7.1251  -13.3468   25.1693 C   0  0  0  0  0  0  0  0  0  0  0  0
    6.0356  -13.4165   25.9905 C   0  0  0  0  0  0  0  0  0  0  0  0
    6.0693  -12.8732   27.2639 C   0  0  0  0  0  0  0  0  0  0  0  0
    7.1851  -12.2556   27.7347 C   0  0  0  0  0  0  0  0  0  0  0  0
    8.3132  -12.1617   26.9377 C   0  0  0  0  0  0  0  0  0  0  0  0
    8.2600  -12.7033   25.6854 C   0  0  0  0  0  0  0  0  0  0  0  0
    8.1995  -15.9657   24.7163 C   0  0  0  0  0  0  0  0  0  0  0  0
    7.1777  -16.6207   25.0465 O   0  0  0  0  0  0  0  0  0  0  0  0
    9.6559  -19.0640   24.7845 C   0  0  0  0  0  0  0  0  0  0  0  0
   10.2931  -18.4073   25.9721 C   0  0  1  0  0  0  0  0  0  0  0  0
   11.5842  -18.0316   25.6857 O   0  0  0  0  0  0  0  0  0  0  0  0
    9.4406  -17.2557   26.4703 C   0  0  2  0  0  0  0  0  0  0  0  0
    9.3921  -16.1919   25.4715 N   0  0  0  0  0  0  0  0  0  0  0  0
    9.9634  -16.7381   27.7541 C   0  0  0  0  0  0  0  0  0  0  0  0
    9.9582  -17.5323   28.8768 O   0  0  0  0  0  0  0  0  0  0  0  0
   10.4081  -15.5746   27.8055 O   0  0  0  0  0  0  0  0  0  0  0  0
  2  1  1  0
  3  2  1  0
  4  3  1  0
  4  5  1  0
  5  6  1  1
  7  5  1  0
  7  8  2  0
  9  7  1  0
 10  9  1  0
 11 12  1  0
 10 11  1  1
 12 17  2  0
 13 12  1  0
 13 14  2  0
 14 15  1  0
 15 16  2  0
 17 16  1  0
 18 10  1  0
 19 18  2  0
 21 20  1  6
 22 21  1  0
 23 21  1  0
 23 24  1  6
 24 18  1  0
 25 23  1  0
 26 25  1  0
 27 25  2  0
M  END
$$$$
