MFT.pdb
     RDKit          3D

 27 27  0  0  1  0  0  0  0  0999 V2000
   41.8355  -66.9035  -18.4793 C   0  0  0  0  0  0  0  0  0  0  0  0
   41.3025  -65.7542  -19.7585 S   0  0  0  0  0  0  0  0  0  0  0  0
   40.3104  -64.4185  -19.0374 C   0  0  0  0  0  0  0  0  0  0  0  0
   39.8961  -64.7949  -17.6306 C   0  0  0  0  0  0  0  0  0  0  0  0
   40.0241  -63.5815  -16.7460 C   0  0  2  0  0  0  0  0  0  0  0  0
   39.4421  -63.8853  -15.4673 N   0  0  0  0  0  0  0  0  0  0  0  0
   39.4536  -62.3696  -17.3645 C   0  0  0  0  0  0  0  0  0  0  0  0
   38.9042  -62.4258  -18.4933 O   0  0  0  0  0  0  0  0  0  0  0  0
   39.5520  -61.1450  -16.6326 N   0  0  0  0  0  0  0  0  0  0  0  0
   39.0084  -59.9290  -17.1173 C   0  0  1  0  0  0  0  0  0  0  0  0
   39.9867  -58.9943  -17.8052 C   0  0  0  0  0  0  0  0  0  0  0  0
   40.8627  -58.2655  -16.8773 C   0  0  0  0  0  0  0  0  0  0  0  0
   40.6239  -56.9656  -16.5318 C   0  0  0  0  0  0  0  0  0  0  0  0
   41.4683  -56.2942  -15.6633 C   0  0  0  0  0  0  0  0  0  0  0  0
   42.5578  -56.9070  -15.1290 C   0  0  0  0  0  0  0  0  0  0  0  0
   42.8390  -58.2239  -15.4505 C   0  0  0  0  0  0  0  0  0  0  0  0
   41.9948  -58.8684  -16.3084 C   0  0  0  0  0  0  0  0  0  0  0  0
   37.7454  -60.1013  -17.8403 C   0  0  0  0  0  0  0  0  0  0  0  0
   37.4716  -59.3232  -18.7899 O   0  0  0  0  0  0  0  0  0  0  0  0
   35.3981  -59.1232  -18.6704 C   0  0  0  0  0  0  0  0  0  0  0  0
   35.4414  -60.4071  -19.4433 C   0  0  1  0  0  0  0  0  0  0  0  0
   36.2571  -60.2855  -20.5433 O   0  0  0  0  0  0  0  0  0  0  0  0
   35.8344  -61.5628  -18.5427 C   0  0  2  0  0  0  0  0  0  0  0  0
   36.7866  -61.1154  -17.5304 N   0  0  0  0  0  0  0  0  0  0  0  0
   36.4061  -62.6718  -19.3381 C   0  0  0  0  0  0  0  0  0  0  0  0
   35.7092  -63.1943  -20.4024 O   0  0  0  0  0  0  0  0  0  0  0  0
   37.5259  -63.1262  -19.0320 O   0  0  0  0  0  0  0  0  0  0  0  0
  2  1  1  0
  3  2  1  0
  4  3  1  0
  4  5  1  0
  5  6  1  1
  7  5  1  0
  7  8  2  0
  9  7  1  0
 10  9  1  0
 11 12  1  0
 10 11  1  6
 12 17  2  0
 13 12  1  0
 13 14  2  0
 14 15  1  0
 15 16  2  0
 17 16  1  0
 18 10  1  0
 19 18  2  0
 21 20  1  1
 22 21  1  0
 23 21  1  0
 23 24  1  1
 24 18  1  0
 25 23  1  0
 26 25  1  0
 27 25  2  0
M  END
$$$$
