MFT.pdb
     RDKit          3D

 27 27  0  0  1  0  0  0  0  0999 V2000
    8.1641  -21.5138   21.2258 C   0  0  0  0  0  0  0  0  0  0  0  0
    8.8501  -21.1207   19.6083 S   0  0  0  0  0  0  0  0  0  0  0  0
    8.8150  -19.3302   19.3229 C   0  0  0  0  0  0  0  0  0  0  0  0
    9.0338  -18.6018   20.6321 C   0  0  0  0  0  0  0  0  0  0  0  0
    8.8574  -17.1232   20.4001 C   0  0  2  0  0  0  0  0  0  0  0  0
    9.6819  -16.7340   19.2888 N   0  0  0  0  0  0  0  0  0  0  0  0
    9.1153  -16.3265   21.6147 C   0  0  0  0  0  0  0  0  0  0  0  0
   10.2849  -15.9781   21.9145 O   0  0  0  0  0  0  0  0  0  0  0  0
    7.9910  -15.9732   22.4247 N   0  0  0  0  0  0  0  0  0  0  0  0
    8.1299  -15.2536   23.6379 C   0  0  1  0  0  0  0  0  0  0  0  0
    7.0187  -14.2693   23.9545 C   0  0  0  0  0  0  0  0  0  0  0  0
    7.2078  -13.5491   25.2215 C   0  0  0  0  0  0  0  0  0  0  0  0
    6.7842  -14.0649   26.4135 C   0  0  0  0  0  0  0  0  0  0  0  0
    6.9632  -13.3647   27.5949 C   0  0  0  0  0  0  0  0  0  0  0  0
    7.5648  -12.1457   27.6045 C   0  0  0  0  0  0  0  0  0  0  0  0
    8.0105  -11.5840   26.4202 C   0  0  0  0  0  0  0  0  0  0  0  0
    7.8246  -12.2898   25.2663 C   0  0  0  0  0  0  0  0  0  0  0  0
    8.5187  -16.0937   24.7739 C   0  0  0  0  0  0  0  0  0  0  0  0
    7.7363  -16.9985   25.1632 O   0  0  0  0  0  0  0  0  0  0  0  0
   11.2103  -18.3694   24.7873 C   0  0  0  0  0  0  0  0  0  0  0  0
   11.4096  -17.6410   26.0824 C   0  0  1  0  0  0  0  0  0  0  0  0
   12.4955  -16.8012   26.0062 O   0  0  0  0  0  0  0  0  0  0  0  0
   10.1382  -16.9247   26.4967 C   0  0  2  0  0  0  0  0  0  0  0  0
    9.7525  -15.9489   25.4814 N   0  0  0  0  0  0  0  0  0  0  0  0
   10.3162  -16.2648   27.8090 C   0  0  0  0  0  0  0  0  0  0  0  0
   10.5444  -17.0154   28.9385 O   0  0  0  0  0  0  0  0  0  0  0  0
   10.2568  -15.0215   27.8781 O   0  0  0  0  0  0  0  0  0  0  0  0
  2  1  1  0
  3  2  1  0
  4  3  1  0
  4  5  1  0
  5  6  1  6
  7  5  1  0
  7  8  2  0
  9  7  1  0
 10  9  1  0
 11 12  1  0
 10 11  1  1
 12 17  2  0
 13 12  1  0
 13 14  2  0
 14 15  1  0
 15 16  2  0
 17 16  1  0
 18 10  1  0
 19 18  2  0
 21 20  1  6
 22 21  1  0
 23 21  1  0
 23 24  1  6
 24 18  1  0
 25 23  1  0
 26 25  1  0
 27 25  2  0
M  END
$$$$
