AVN.pdb
     RDKit          3D

 21 20  0  0  1  0  0  0  0  0999 V2000
    6.5550  -15.9620   21.6047 C   0  0  0  0  0  0  0  0  0  0  0  0
    6.8479  -14.4797   21.6511 C   0  0  2  0  0  0  0  0  0  0  0  0
    7.5153  -14.1144   20.4171 N   0  0  0  0  0  0  0  0  0  0  0  0
    7.7602  -14.2629   22.8235 C   0  0  0  0  0  0  0  0  0  0  0  0
    8.9887  -14.4181   22.6809 O   0  0  0  0  0  0  0  0  0  0  0  0
    7.3410  -11.4362   25.7981 C   0  0  0  0  0  0  0  0  0  0  0  0
    7.5346  -12.8280   26.2883 C   0  0  1  0  0  0  0  0  0  0  0  0
    6.1906  -13.3828   26.7493 C   0  0  0  0  0  0  0  0  0  0  0  0
    8.0889  -13.7774   25.2761 C   0  0  2  0  0  0  0  0  0  0  0  0
    7.2791  -13.8857   24.0976 N   0  0  0  0  0  0  0  0  0  0  0  0
    8.4535  -15.1046   25.8417 C   0  0  0  0  0  0  0  0  0  0  0  0
    7.6016  -16.0279   25.8893 O   0  0  0  0  0  0  0  0  0  0  0  0
   10.7609  -19.2305   25.0122 N   0  0  0  0  0  0  0  0  0  0  0  0
   11.4365  -17.9843   25.0694 C   0  0  0  0  0  0  0  0  0  0  0  0
   12.0221  -17.5799   24.0358 O   0  0  0  0  0  0  0  0  0  0  0  0
   11.4637  -17.1773   26.2848 C   0  0  0  0  0  0  0  0  0  0  0  0
   10.1061  -16.7257   26.7734 C   0  0  2  0  0  0  0  0  0  0  0  0
    9.7469  -15.4065   26.3499 N   0  0  0  0  0  0  0  0  0  0  0  0
   10.0824  -16.7666   28.2515 C   0  0  0  0  0  0  0  0  0  0  0  0
    9.9207  -15.7040   28.8885 O   0  0  0  0  0  0  0  0  0  0  0  0
   10.2342  -17.9485   28.9428 O   0  0  0  0  0  0  0  0  0  0  0  0
  2  1  1  6
  2  4  1  0
  3  2  1  0
  4  5  2  0
  7  6  1  6
  7  8  1  0
  7  9  1  0
  9 11  1  0
 10  4  1  0
  9 10  1  6
 11 12  2  0
 11 18  1  0
 13 14  1  0
 14 15  2  0
 17 16  1  1
 16 14  1  0
 17 19  1  0
 18 17  1  0
 19 20  2  0
 19 21  1  0
M  END
$$$$
