AVN.pdb
     RDKit          3D

 21 20  0  0  1  0  0  0  0  0999 V2000
    9.3820  -17.7408   15.9298 C   0  0  0  0  0  0  0  0  0  0  0  0
    9.0282  -16.2837   15.7374 C   0  0  2  0  0  0  0  0  0  0  0  0
    9.7546  -15.7934   14.5827 N   0  0  0  0  0  0  0  0  0  0  0  0
    9.4764  -15.5697   16.9797 C   0  0  0  0  0  0  0  0  0  0  0  0
   10.6904  -15.3473   17.1543 O   0  0  0  0  0  0  0  0  0  0  0  0
    8.1800  -12.9846   21.0625 C   0  0  0  0  0  0  0  0  0  0  0  0
    7.8115  -13.7474   19.8388 C   0  0  1  0  0  0  0  0  0  0  0  0
    7.2287  -12.7833   18.8104 C   0  0  0  0  0  0  0  0  0  0  0  0
    8.9449  -14.4695   19.1856 C   0  0  2  0  0  0  0  0  0  0  0  0
    8.5692  -15.1336   17.9714 N   0  0  0  0  0  0  0  0  0  0  0  0
    9.6979  -15.3576   20.1121 C   0  0  0  0  0  0  0  0  0  0  0  0
    9.2936  -16.5266   20.3366 O   0  0  0  0  0  0  0  0  0  0  0  0
   14.2927  -14.1733   19.9567 N   0  0  0  0  0  0  0  0  0  0  0  0
   13.8050  -15.4107   20.4504 C   0  0  0  0  0  0  0  0  0  0  0  0
   13.9953  -16.4407   19.7593 O   0  0  0  0  0  0  0  0  0  0  0  0
   13.0988  -15.5082   21.7235 C   0  0  0  0  0  0  0  0  0  0  0  0
   11.6325  -15.8574   21.6071 C   0  0  2  0  0  0  0  0  0  0  0  0
   10.8854  -14.9560   20.7836 N   0  0  0  0  0  0  0  0  0  0  0  0
   11.0268  -15.8715   22.9562 C   0  0  0  0  0  0  0  0  0  0  0  0
   10.1104  -15.0650   23.2218 O   0  0  0  0  0  0  0  0  0  0  0  0
   11.4490  -16.7529   23.9271 O   0  0  0  0  0  0  0  0  0  0  0  0
  2  1  1  1
  2  4  1  0
  3  2  1  0
  4  5  2  0
  7  6  1  1
  7  8  1  0
  7  9  1  0
  9 11  1  0
 10  4  1  0
  9 10  1  6
 11 12  2  0
 11 18  1  0
 13 14  1  0
 14 15  2  0
 17 16  1  1
 16 14  1  0
 17 19  1  0
 18 17  1  0
 19 20  2  0
 19 21  1  0
M  END
$$$$
