AVN.pdb
     RDKit          3D

 21 20  0  0  1  0  0  0  0  0999 V2000
    6.6046  -14.7913   20.5100 C   0  0  0  0  0  0  0  0  0  0  0  0
    7.1176  -13.4345   20.9355 C   0  0  2  0  0  0  0  0  0  0  0  0
    8.1304  -13.0186   19.9854 N   0  0  0  0  0  0  0  0  0  0  0  0
    7.7213  -13.6163   22.2980 C   0  0  0  0  0  0  0  0  0  0  0  0
    8.9097  -13.9785   22.3983 O   0  0  0  0  0  0  0  0  0  0  0  0
    7.2526  -12.8439   27.2224 C   0  0  0  0  0  0  0  0  0  0  0  0
    6.6901  -12.8162   25.8447 C   0  0  1  0  0  0  0  0  0  0  0  0
    6.5019  -11.3648   25.4151 C   0  0  0  0  0  0  0  0  0  0  0  0
    7.5350  -13.4850   24.8094 C   0  0  2  0  0  0  0  0  0  0  0  0
    6.9902  -13.3912   23.4862 N   0  0  0  0  0  0  0  0  0  0  0  0
    7.9268  -14.8751   25.1678 C   0  0  0  0  0  0  0  0  0  0  0  0
    7.0778  -15.8015   25.1301 O   0  0  0  0  0  0  0  0  0  0  0  0
   11.2155  -19.4467   24.5704 N   0  0  0  0  0  0  0  0  0  0  0  0
   11.3998  -18.3230   25.4166 C   0  0  0  0  0  0  0  0  0  0  0  0
   12.0183  -18.4892   26.4957 O   0  0  0  0  0  0  0  0  0  0  0  0
   10.8935  -17.0008   25.0635 C   0  0  0  0  0  0  0  0  0  0  0  0
    9.6243  -16.5988   25.7797 C   0  0  2  0  0  0  0  0  0  0  0  0
    9.2439  -15.2358   25.5645 N   0  0  0  0  0  0  0  0  0  0  0  0
    9.7962  -16.8139   27.2327 C   0  0  0  0  0  0  0  0  0  0  0  0
    9.4129  -17.8896   27.7396 O   0  0  0  0  0  0  0  0  0  0  0  0
   10.3691  -15.8564   28.0407 O   0  0  0  0  0  0  0  0  0  0  0  0
  2  1  1  6
  2  4  1  0
  3  2  1  0
  4  5  2  0
  7  6  1  1
  7  8  1  0
  7  9  1  0
  9 11  1  0
 10  4  1  0
  9 10  1  6
 11 12  2  0
 11 18  1  0
 13 14  1  0
 14 15  2  0
 17 16  1  6
 16 14  1  0
 17 19  1  0
 18 17  1  0
 19 20  2  0
 19 21  1  0
M  END
$$$$
