AVN.pdb
     RDKit          3D

 21 20  0  0  1  0  0  0  0  0999 V2000
    8.7115  -17.7783   15.9498 C   0  0  0  0  0  0  0  0  0  0  0  0
    8.5233  -16.2935   15.7375 C   0  0  2  0  0  0  0  0  0  0  0  0
    9.2137  -15.9227   14.5180 N   0  0  0  0  0  0  0  0  0  0  0  0
    9.1479  -15.6122   16.9205 C   0  0  0  0  0  0  0  0  0  0  0  0
   10.3889  -15.5158   16.9873 O   0  0  0  0  0  0  0  0  0  0  0  0
    8.4365  -12.8942   21.0723 C   0  0  0  0  0  0  0  0  0  0  0  0
    7.9124  -13.5880   19.8644 C   0  0  1  0  0  0  0  0  0  0  0  0
    7.3555  -12.5478   18.8977 C   0  0  0  0  0  0  0  0  0  0  0  0
    8.9230  -14.3980   19.1191 C   0  0  2  0  0  0  0  0  0  0  0  0
    8.3791  -15.0688   17.9743 N   0  0  0  0  0  0  0  0  0  0  0  0
    9.7164  -15.3074   19.9897 C   0  0  0  0  0  0  0  0  0  0  0  0
    9.3113  -16.4748   20.2211 O   0  0  0  0  0  0  0  0  0  0  0  0
   14.1564  -13.8498   19.7559 N   0  0  0  0  0  0  0  0  0  0  0  0
   13.8396  -15.1765   20.1460 C   0  0  0  0  0  0  0  0  0  0  0  0
   14.1208  -16.1096   19.3554 O   0  0  0  0  0  0  0  0  0  0  0  0
   13.2043  -15.4728   21.4257 C   0  0  0  0  0  0  0  0  0  0  0  0
   11.7461  -15.8603   21.3320 C   0  0  2  0  0  0  0  0  0  0  0  0
   10.9446  -14.9287   20.5982 N   0  0  0  0  0  0  0  0  0  0  0  0
   11.1876  -15.9873   22.6955 C   0  0  0  0  0  0  0  0  0  0  0  0
   10.2441  -15.2442   23.0398 O   0  0  0  0  0  0  0  0  0  0  0  0
   11.6828  -16.9056   23.5950 O   0  0  0  0  0  0  0  0  0  0  0  0
  2  1  1  1
  2  4  1  0
  3  2  1  0
  4  5  2  0
  7  6  1  1
  7  8  1  0
  7  9  1  0
  9 11  1  0
 10  4  1  0
  9 10  1  6
 11 12  2  0
 11 18  1  0
 13 14  1  0
 14 15  2  0
 17 16  1  1
 16 14  1  0
 17 19  1  0
 18 17  1  0
 19 20  2  0
 19 21  1  0
M  END
$$$$
