AVN.pdb
     RDKit          3D

 21 20  0  0  1  0  0  0  0  0999 V2000
    6.1714  -17.8121   23.4260 C   0  0  0  0  0  0  0  0  0  0  0  0
    5.9668  -16.3846   22.9725 C   0  0  2  0  0  0  0  0  0  0  0  0
    6.2117  -16.3270   21.5449 N   0  0  0  0  0  0  0  0  0  0  0  0
    6.9769  -15.5549   23.7108 C   0  0  0  0  0  0  0  0  0  0  0  0
    8.1294  -15.4394   23.2501 O   0  0  0  0  0  0  0  0  0  0  0  0
    7.8511  -12.2972   27.4127 C   0  0  0  0  0  0  0  0  0  0  0  0
    6.9296  -13.1941   26.6634 C   0  0  1  0  0  0  0  0  0  0  0  0
    5.9069  -12.3429   25.9175 C   0  0  0  0  0  0  0  0  0  0  0  0
    7.5949  -14.0788   25.6597 C   0  0  2  0  0  0  0  0  0  0  0  0
    6.6728  -14.8912   24.9206 N   0  0  0  0  0  0  0  0  0  0  0  0
    8.7278  -14.8657   26.2179 C   0  0  0  0  0  0  0  0  0  0  0  0
    9.6567  -14.2866   26.8361 O   0  0  0  0  0  0  0  0  0  0  0  0
    7.5389  -19.3858   27.8096 N   0  0  0  0  0  0  0  0  0  0  0  0
    8.7752  -18.7115   27.9820 C   0  0  0  0  0  0  0  0  0  0  0  0
    9.0832  -18.3246   29.1354 O   0  0  0  0  0  0  0  0  0  0  0  0
    9.6801  -18.4630   26.8646 C   0  0  0  0  0  0  0  0  0  0  0  0
    9.9609  -17.0027   26.5922 C   0  0  2  0  0  0  0  0  0  0  0  0
    8.8318  -16.2785   26.0928 N   0  0  0  0  0  0  0  0  0  0  0  0
   11.0603  -16.8935   25.6091 C   0  0  0  0  0  0  0  0  0  0  0  0
   12.1911  -17.3330   25.9075 O   0  0  0  0  0  0  0  0  0  0  0  0
   10.8672  -16.3190   24.3721 O   0  0  0  0  0  0  0  0  0  0  0  0
  2  1  1  1
  2  4  1  0
  3  2  1  0
  4  5  2  0
  7  6  1  6
  7  8  1  0
  7  9  1  0
  9 11  1  0
 10  4  1  0
  9 10  1  1
 11 12  2  0
 11 18  1  0
 13 14  1  0
 14 15  2  0
 17 16  1  6
 16 14  1  0
 17 19  1  0
 18 17  1  0
 19 20  2  0
 19 21  1  0
M  END
$$$$
