AVN.pdb
     RDKit          3D

 21 20  0  0  1  0  0  0  0  0999 V2000
    9.2116  -16.9075   15.9052 C   0  0  0  0  0  0  0  0  0  0  0  0
    8.5305  -17.3746   17.1713 C   0  0  2  0  0  0  0  0  0  0  0  0
    7.1139  -17.0917   17.0503 N   0  0  0  0  0  0  0  0  0  0  0  0
    9.1291  -16.5787   18.2947 C   0  0  0  0  0  0  0  0  0  0  0  0
   10.3620  -16.6065   18.4764 O   0  0  0  0  0  0  0  0  0  0  0  0
    7.6787  -12.9518   19.5486 C   0  0  0  0  0  0  0  0  0  0  0  0
    7.9985  -13.8860   20.6622 C   0  0  1  0  0  0  0  0  0  0  0  0
    6.6976  -14.4465   21.2281 C   0  0  0  0  0  0  0  0  0  0  0  0
    8.8584  -15.0464   20.2791 C   0  0  2  0  0  0  0  0  0  0  0  0
    8.3444  -15.7895   19.1655 N   0  0  0  0  0  0  0  0  0  0  0  0
    9.2258  -15.9195   21.4267 C   0  0  0  0  0  0  0  0  0  0  0  0
    8.4678  -16.8603   21.7743 O   0  0  0  0  0  0  0  0  0  0  0  0
   14.0046  -15.7773   24.1378 N   0  0  0  0  0  0  0  0  0  0  0  0
   13.2667  -16.1025   22.9706 C   0  0  0  0  0  0  0  0  0  0  0  0
   13.4824  -15.4371   21.9287 O   0  0  0  0  0  0  0  0  0  0  0  0
   12.2790  -17.1765   22.9573 C   0  0  0  0  0  0  0  0  0  0  0  0
   10.8493  -16.7219   23.1436 C   0  0  2  0  0  0  0  0  0  0  0  0
   10.4191  -15.7528   22.1821 N   0  0  0  0  0  0  0  0  0  0  0  0
   10.6952  -16.1419   24.4952 C   0  0  0  0  0  0  0  0  0  0  0  0
   10.3078  -14.9597   24.6111 O   0  0  0  0  0  0  0  0  0  0  0  0
   10.9684  -16.8741   25.6297 O   0  0  0  0  0  0  0  0  0  0  0  0
  2  1  1  6
  2  4  1  0
  3  2  1  0
  4  5  2  0
  7  6  1  6
  7  8  1  0
  7  9  1  0
  9 11  1  0
 10  4  1  0
  9 10  1  6
 11 12  2  0
 11 18  1  0
 13 14  1  0
 14 15  2  0
 17 16  1  6
 16 14  1  0
 17 19  1  0
 18 17  1  0
 19 20  2  0
 19 21  1  0
M  END
$$$$
