AVN.pdb
     RDKit          3D

 21 20  0  0  1  0  0  0  0  0999 V2000
    7.5539  -18.8782   17.9221 C   0  0  0  0  0  0  0  0  0  0  0  0
    7.7006  -17.4521   17.4427 C   0  0  2  0  0  0  0  0  0  0  0  0
    8.5375  -17.4596   16.2590 N   0  0  0  0  0  0  0  0  0  0  0  0
    8.3715  -16.6969   18.5533 C   0  0  0  0  0  0  0  0  0  0  0  0
    9.5759  -16.9064   18.7965 O   0  0  0  0  0  0  0  0  0  0  0  0
    8.0493  -12.9966   21.9201 C   0  0  0  0  0  0  0  0  0  0  0  0
    7.4615  -13.8100   20.8210 C   0  0  1  0  0  0  0  0  0  0  0  0
    7.2752  -12.9239   19.5935 C   0  0  0  0  0  0  0  0  0  0  0  0
    8.2825  -14.9871   20.4046 C   0  0  2  0  0  0  0  0  0  0  0  0
    7.6869  -15.7469   19.3443 N   0  0  0  0  0  0  0  0  0  0  0  0
    8.7191  -15.8408   21.5425 C   0  0  0  0  0  0  0  0  0  0  0  0
    7.9036  -16.6187   22.0995 O   0  0  0  0  0  0  0  0  0  0  0  0
   12.5795  -19.7144   23.6644 N   0  0  0  0  0  0  0  0  0  0  0  0
   11.5328  -18.9614   23.0727 C   0  0  0  0  0  0  0  0  0  0  0  0
   10.4639  -19.5543   22.7888 O   0  0  0  0  0  0  0  0  0  0  0  0
   11.6717  -17.5362   22.7924 C   0  0  0  0  0  0  0  0  0  0  0  0
   10.4502  -16.7069   23.1175 C   0  0  2  0  0  0  0  0  0  0  0  0
   10.0441  -15.8332   22.0590 N   0  0  0  0  0  0  0  0  0  0  0  0
   10.7219  -15.8911   24.3207 C   0  0  0  0  0  0  0  0  0  0  0  0
   11.3909  -14.8419   24.2080 O   0  0  0  0  0  0  0  0  0  0  0  0
   10.2548  -16.2604   25.5630 O   0  0  0  0  0  0  0  0  0  0  0  0
  2  1  1  1
  2  4  1  0
  3  2  1  0
  4  5  2  0
  7  6  1  1
  7  8  1  0
  7  9  1  0
  9 11  1  0
 10  4  1  0
  9 10  1  6
 11 12  2  0
 11 18  1  0
 13 14  1  0
 14 15  2  0
 17 16  1  6
 16 14  1  0
 17 19  1  0
 18 17  1  0
 19 20  2  0
 19 21  1  0
M  END
$$$$
