AVN.pdb
     RDKit          3D

 21 20  0  0  1  0  0  0  0  0999 V2000
    7.6825  -13.7768   20.4710 C   0  0  0  0  0  0  0  0  0  0  0  0
    7.5372  -14.9472   21.4166 C   0  0  2  0  0  0  0  0  0  0  0  0
    6.1226  -15.1724   21.6391 N   0  0  0  0  0  0  0  0  0  0  0  0
    8.2110  -14.5458   22.6968 C   0  0  0  0  0  0  0  0  0  0  0  0
    9.4182  -14.2356   22.6827 O   0  0  0  0  0  0  0  0  0  0  0  0
    6.7718  -12.1149   25.6007 C   0  0  0  0  0  0  0  0  0  0  0  0
    7.2268  -13.4364   26.1124 C   0  0  1  0  0  0  0  0  0  0  0  0
    6.0069  -14.3150   26.3701 C   0  0  0  0  0  0  0  0  0  0  0  0
    8.1338  -14.1863   25.1915 C   0  0  2  0  0  0  0  0  0  0  0  0
    7.5261  -14.5041   23.9321 N   0  0  0  0  0  0  0  0  0  0  0  0
    8.7830  -15.3657   25.8254 C   0  0  0  0  0  0  0  0  0  0  0  0
    8.1038  -16.3839   26.1123 O   0  0  0  0  0  0  0  0  0  0  0  0
   13.3074  -15.2933   24.5627 N   0  0  0  0  0  0  0  0  0  0  0  0
   12.5058  -16.4178   24.8878 C   0  0  0  0  0  0  0  0  0  0  0  0
   12.0390  -17.1044   23.9468 O   0  0  0  0  0  0  0  0  0  0  0  0
   12.2180  -16.7856   26.2701 C   0  0  0  0  0  0  0  0  0  0  0  0
   10.7787  -16.5898   26.6891 C   0  0  2  0  0  0  0  0  0  0  0  0
   10.1691  -15.4174   26.1391 N   0  0  0  0  0  0  0  0  0  0  0  0
   10.7080  -16.5073   28.1640 C   0  0  0  0  0  0  0  0  0  0  0  0
   11.0033  -17.5116   28.8459 O   0  0  0  0  0  0  0  0  0  0  0  0
   10.3243  -15.3492   28.8039 O   0  0  0  0  0  0  0  0  0  0  0  0
  2  1  1  6
  2  4  1  0
  3  2  1  0
  4  5  2  0
  7  6  1  6
  7  8  1  0
  7  9  1  0
  9 11  1  0
 10  4  1  0
  9 10  1  6
 11 12  2  0
 11 18  1  0
 13 14  1  0
 14 15  2  0
 17 16  1  1
 16 14  1  0
 17 19  1  0
 18 17  1  0
 19 20  2  0
 19 21  1  0
M  END
$$$$
