RWV.pdb
     RDKit          3D

 33 34  0  0  1  0  0  0  0  0999 V2000
   10.0516  -15.1466   15.2054 N   0  0  0  0  0  0  0  0  0  0  0  0
    8.9347  -14.2712   14.9580 C   0  0  0  0  0  0  0  0  0  0  0  0
    8.4354  -14.1601   13.7802 N   0  0  0  0  0  0  0  0  0  0  0  0
    8.3830  -13.5243   16.0310 N   0  0  0  0  0  0  0  0  0  0  0  0
    8.9866  -13.6418   17.3493 C   0  0  0  0  0  0  0  0  0  0  0  0
    8.3493  -14.8323   18.0296 C   0  0  0  0  0  0  0  0  0  0  0  0
    8.1433  -14.6565   19.4959 C   0  0  0  0  0  0  0  0  0  0  0  0
    9.1526  -15.4430   20.3002 C   0  0  2  0  0  0  0  0  0  0  0  0
    8.7798  -16.8416   20.2273 N   0  0  0  0  0  0  0  0  0  0  0  0
    9.1776  -15.0014   21.7239 C   0  0  0  0  0  0  0  0  0  0  0  0
    9.6563  -13.8694   22.0512 O   0  0  0  0  0  0  0  0  0  0  0  0
    7.6139  -13.5699   13.5489 N   0  0  0  0  0  0  0  0  0  0  0  0
    8.6739  -15.8248   22.7330 C   0  0  1  0  0  0  0  0  0  0  0  0
    8.4706  -15.4367   24.1109 C   0  0  0  0  0  0  0  0  0  0  0  0
    7.1796  -16.0670   24.5817 C   0  0  0  0  0  0  0  0  0  0  0  0
    6.3797  -15.1666   25.4139 C   0  0  0  0  0  0  0  0  0  0  0  0
    5.1681  -15.4115   26.0140 N   0  0  0  0  0  0  0  0  0  0  0  0
    4.7853  -14.2948   26.6939 C   0  0  0  0  0  0  0  0  0  0  0  0
    5.7187  -13.3262   26.5524 C   0  0  0  0  0  0  0  0  0  0  0  0
    5.8496  -12.0318   27.0086 C   0  0  0  0  0  0  0  0  0  0  0  0
    6.9590  -11.2933   26.6708 C   0  0  0  0  0  0  0  0  0  0  0  0
    7.9424  -11.8304   25.8816 C   0  0  0  0  0  0  0  0  0  0  0  0
    7.8229  -13.1231   25.4191 C   0  0  0  0  0  0  0  0  0  0  0  0
    6.7228  -13.8762   25.7458 C   0  0  0  0  0  0  0  0  0  0  0  0
    9.6069  -15.8286   24.9750 O   0  0  0  0  0  0  0  0  0  0  0  0
   10.5396  -16.5165   24.4923 C   0  0  0  0  0  0  0  0  0  0  0  0
   11.9111  -15.1852   29.3746 C   0  0  2  0  0  0  0  0  0  0  0  0
   10.7509  -14.9556   28.4603 C   0  0  0  0  0  0  0  0  0  0  0  0
   10.6076  -13.4844   28.1930 C   0  0  1  0  0  0  0  0  0  0  0  0
   10.7878  -15.7622   27.1971 N   0  0  0  0  0  0  0  0  0  0  0  0
    9.6679  -15.4504   26.3227 C   0  0  0  0  0  0  0  0  0  0  0  0
   10.9066  -17.2144   27.4036 O   0  0  0  0  0  0  0  0  0  0  0  0
   12.1289  -17.8435   27.3766 O   0  0  0  0  0  0  0  0  0  0  0  0
  2  1  1  0
  2  4  1  0
  3  2  2  0
  5  4  1  0
  6  5  1  0
  7  6  1  0
  8  7  1  0
  8  9  1  1
 10  8  1  0
 10 12  1  0
 11 10  2  0
 13 12  1  0
 13 14  1  1
 15 14  1  0
 15 16  2  0
 17 16  1  0
 18 23  2  0
 18 17  1  0
 19 18  1  0
 20 19  2  0
 21 20  1  0
 21 22  2  0
 22 23  1  0
 23 15  1  0
 24 13  1  0
 25 24  2  0
 27 26  1  1
 27 28  1  0
 29 30  1  1
 29 27  1  0
 30 24  1  0
 31 29  1  0
 32 31  1  0
 33 31  2  0
M  END
$$$$
