RWV.pdb
     RDKit          3D

 33 34  0  0  1  0  0  0  0  0999 V2000
   11.0292  -19.2639   16.8009 N   0  0  0  0  0  0  0  0  0  0  0  0
   12.4569  -19.0735   16.8190 C   0  0  0  0  0  0  0  0  0  0  0  0
   13.2266  -19.8081   16.1002 N   0  0  0  0  0  0  0  0  0  0  0  0
   13.0152  -18.0617   17.6425 N   0  0  0  0  0  0  0  0  0  0  0  0
   12.5378  -17.9292   19.0101 C   0  0  0  0  0  0  0  0  0  0  0  0
   11.2922  -17.0730   18.9692 C   0  0  0  0  0  0  0  0  0  0  0  0
   11.0519  -16.2889   20.2145 C   0  0  0  0  0  0  0  0  0  0  0  0
   10.4456  -17.1428   21.3042 C   0  0  2  0  0  0  0  0  0  0  0  0
    9.2335  -17.7358   20.7754 N   0  0  0  0  0  0  0  0  0  0  0  0
   10.1246  -16.3339   22.5146 C   0  0  0  0  0  0  0  0  0  0  0  0
   10.4895  -15.1190   22.6073 O   0  0  0  0  0  0  0  0  0  0  0  0
   14.2564  -19.6932   16.0447 N   0  0  0  0  0  0  0  0  0  0  0  0
    9.4135  -16.8952   23.5773 C   0  0  1  0  0  0  0  0  0  0  0  0
    9.0799  -16.2230   24.8132 C   0  0  0  0  0  0  0  0  0  0  0  0
    7.7104  -16.6989   25.2416 C   0  0  0  0  0  0  0  0  0  0  0  0
    6.6672  -15.6956   25.0215 C   0  0  0  0  0  0  0  0  0  0  0  0
    5.4364  -15.8604   24.4334 N   0  0  0  0  0  0  0  0  0  0  0  0
    4.7882  -14.6622   24.4367 C   0  0  0  0  0  0  0  0  0  0  0  0
    5.5668  -13.7184   25.0137 C   0  0  0  0  0  0  0  0  0  0  0  0
    5.4242  -12.3729   25.2782 C   0  0  0  0  0  0  0  0  0  0  0  0
    6.4393  -11.6835   25.8984 C   0  0  0  0  0  0  0  0  0  0  0  0
    7.5980  -12.3202   26.2592 C   0  0  0  0  0  0  0  0  0  0  0  0
    7.7526  -13.6650   25.9998 C   0  0  0  0  0  0  0  0  0  0  0  0
    6.7504  -14.3703   25.3816 C   0  0  0  0  0  0  0  0  0  0  0  0
   10.0881  -16.4643   25.8699 O   0  0  0  0  0  0  0  0  0  0  0  0
   11.0152  -17.2848   25.6615 C   0  0  0  0  0  0  0  0  0  0  0  0
   11.8774  -15.1138   30.3494 C   0  0  2  0  0  0  0  0  0  0  0  0
   10.9002  -14.9565   29.2291 C   0  0  0  0  0  0  0  0  0  0  0  0
   11.0291  -13.5799   28.6419 C   0  0  1  0  0  0  0  0  0  0  0  0
   10.9760  -16.0296   28.1850 N   0  0  0  0  0  0  0  0  0  0  0  0
   10.0335  -15.7983   27.1014 C   0  0  0  0  0  0  0  0  0  0  0  0
   10.8520  -17.3996   28.7078 O   0  0  0  0  0  0  0  0  0  0  0  0
   11.9595  -18.1341   29.0604 O   0  0  0  0  0  0  0  0  0  0  0  0
  2  1  1  0
  2  4  1  0
  3  2  2  0
  5  4  1  0
  6  5  1  0
  7  6  1  0
  8  7  1  0
  8  9  1  6
 10  8  1  0
 10 12  1  0
 11 10  2  0
 13 12  1  0
 13 14  1  1
 15 14  1  0
 15 16  2  0
 17 16  1  0
 18 23  2  0
 18 17  1  0
 19 18  1  0
 20 19  2  0
 21 20  1  0
 21 22  2  0
 22 23  1  0
 23 15  1  0
 24 13  1  0
 25 24  2  0
 27 26  1  1
 27 28  1  0
 29 30  1  1
 29 27  1  0
 30 24  1  0
 31 29  1  0
 32 31  1  0
 33 31  2  0
M  END
$$$$
