RWV.pdb
     RDKit          3D

 33 34  0  0  1  0  0  0  0  0999 V2000
    8.2974  -12.4122   17.1350 N   0  0  0  0  0  0  0  0  0  0  0  0
    8.1287  -13.7858   16.7353 C   0  0  0  0  0  0  0  0  0  0  0  0
    8.2823  -14.1368   15.5098 N   0  0  0  0  0  0  0  0  0  0  0  0
    7.7884  -14.7591   17.7102 N   0  0  0  0  0  0  0  0  0  0  0  0
    8.3715  -14.6534   19.0387 C   0  0  0  0  0  0  0  0  0  0  0  0
    7.3108  -14.0773   19.9493 C   0  0  0  0  0  0  0  0  0  0  0  0
    6.6222  -15.0912   20.7985 C   0  0  0  0  0  0  0  0  0  0  0  0
    7.5369  -16.2431   21.1461 C   0  0  2  0  0  0  0  0  0  0  0  0
    6.7089  -17.3372   21.6125 N   0  0  0  0  0  0  0  0  0  0  0  0
    8.5132  -15.8622   22.2064 C   0  0  0  0  0  0  0  0  0  0  0  0
    9.4546  -15.0412   21.9668 O   0  0  0  0  0  0  0  0  0  0  0  0
    8.1754  -15.1095   15.1645 N   0  0  0  0  0  0  0  0  0  0  0  0
    8.4148  -16.4012   23.4909 C   0  0  1  0  0  0  0  0  0  0  0  0
    9.3406  -16.1623   24.5755 C   0  0  0  0  0  0  0  0  0  0  0  0
    8.5600  -16.2201   25.8689 C   0  0  0  0  0  0  0  0  0  0  0  0
    7.4626  -15.2520   25.9123 C   0  0  0  0  0  0  0  0  0  0  0  0
    6.1175  -15.4802   25.7490 N   0  0  0  0  0  0  0  0  0  0  0  0
    5.4572  -14.2946   25.8675 C   0  0  0  0  0  0  0  0  0  0  0  0
    6.3395  -13.2971   26.1048 C   0  0  0  0  0  0  0  0  0  0  0  0
    6.2347  -11.9369   26.3033 C   0  0  0  0  0  0  0  0  0  0  0  0
    7.3647  -11.1861   26.5264 C   0  0  0  0  0  0  0  0  0  0  0  0
    8.6015  -11.7761   26.5542 C   0  0  0  0  0  0  0  0  0  0  0  0
    8.7193  -13.1350   26.3568 C   0  0  0  0  0  0  0  0  0  0  0  0
    7.6026  -13.9011   26.1327 C   0  0  0  0  0  0  0  0  0  0  0  0
   10.4592  -17.1319   24.5786 O   0  0  0  0  0  0  0  0  0  0  0  0
   10.2088  -18.3618   24.6055 C   0  0  0  0  0  0  0  0  0  0  0  0
   15.3517  -17.8058   23.8023 C   0  0  2  0  0  0  0  0  0  0  0  0
   14.1288  -16.9477   23.8563 C   0  0  0  0  0  0  0  0  0  0  0  0
   13.8544  -16.3807   22.4926 C   0  0  1  0  0  0  0  0  0  0  0  0
   12.9251  -17.6200   24.4454 N   0  0  0  0  0  0  0  0  0  0  0  0
   11.7952  -16.7103   24.5527 C   0  0  0  0  0  0  0  0  0  0  0  0
   13.1735  -18.3050   25.7240 O   0  0  0  0  0  0  0  0  0  0  0  0
   12.8119  -17.7364   26.9225 O   0  0  0  0  0  0  0  0  0  0  0  0
  2  1  1  0
  2  4  1  0
  3  2  2  0
  5  4  1  0
  6  5  1  0
  7  6  1  0
  8  7  1  0
  8  9  1  1
 10  8  1  0
 10 12  1  0
 11 10  2  0
 13 12  1  0
 13 14  1  1
 15 14  1  0
 15 16  2  0
 17 16  1  0
 18 23  2  0
 18 17  1  0
 19 18  1  0
 20 19  2  0
 21 20  1  0
 21 22  2  0
 22 23  1  0
 23 15  1  0
 24 13  1  0
 25 24  2  0
 27 26  1  1
 27 28  1  0
 29 30  1  1
 29 27  1  0
 30 24  1  0
 31 29  1  0
 32 31  1  0
 33 31  2  0
M  END
$$$$
