RWV.pdb
     RDKit          3D

 33 34  0  0  1  0  0  0  0  0999 V2000
   11.9225  -18.9581   15.5570 N   0  0  0  0  0  0  0  0  0  0  0  0
   11.5540  -17.7731   16.2884 C   0  0  0  0  0  0  0  0  0  0  0  0
   11.1944  -16.7058   15.6716 N   0  0  0  0  0  0  0  0  0  0  0  0
   11.5907  -17.7894   17.7068 N   0  0  0  0  0  0  0  0  0  0  0  0
   11.3435  -16.5506   18.4281 C   0  0  0  0  0  0  0  0  0  0  0  0
    9.8554  -16.4696   18.6832 C   0  0  0  0  0  0  0  0  0  0  0  0
    9.4973  -15.9539   20.0356 C   0  0  0  0  0  0  0  0  0  0  0  0
   10.1014  -16.7985   21.1337 C   0  0  2  0  0  0  0  0  0  0  0  0
    9.3645  -18.0453   21.1857 N   0  0  0  0  0  0  0  0  0  0  0  0
   10.0234  -16.1114   22.4544 C   0  0  0  0  0  0  0  0  0  0  0  0
   10.5314  -14.9579   22.6247 O   0  0  0  0  0  0  0  0  0  0  0  0
   10.9647  -15.8101   16.1425 N   0  0  0  0  0  0  0  0  0  0  0  0
    9.3883  -16.7223   23.5378 C   0  0  1  0  0  0  0  0  0  0  0  0
    9.2193  -16.1398   24.8503 C   0  0  0  0  0  0  0  0  0  0  0  0
    7.8588  -16.5512   25.3654 C   0  0  0  0  0  0  0  0  0  0  0  0
    6.8346  -15.5299   25.1394 C   0  0  0  0  0  0  0  0  0  0  0  0
    5.6515  -15.6469   24.4505 N   0  0  0  0  0  0  0  0  0  0  0  0
    5.0042  -14.4488   24.4900 C   0  0  0  0  0  0  0  0  0  0  0  0
    5.7367  -13.5519   25.1890 C   0  0  0  0  0  0  0  0  0  0  0  0
    5.5740  -12.2278   25.5367 C   0  0  0  0  0  0  0  0  0  0  0  0
    6.5392  -11.5887   26.2784 C   0  0  0  0  0  0  0  0  0  0  0  0
    7.6679  -12.2549   26.6791 C   0  0  0  0  0  0  0  0  0  0  0  0
    7.8423  -13.5786   26.3375 C   0  0  0  0  0  0  0  0  0  0  0  0
    6.8897  -14.2338   25.5976 C   0  0  0  0  0  0  0  0  0  0  0  0
   10.2935  -16.5462   25.7842 O   0  0  0  0  0  0  0  0  0  0  0  0
   11.0275  -17.5221   25.4923 C   0  0  0  0  0  0  0  0  0  0  0  0
   12.0663  -13.8533   28.3238 C   0  0  2  0  0  0  0  0  0  0  0  0
   11.8012  -15.1826   28.9542 C   0  0  0  0  0  0  0  0  0  0  0  0
   10.7347  -15.0360   30.0019 C   0  0  2  0  0  0  0  0  0  0  0  0
   11.4947  -16.2806   27.9804 N   0  0  0  0  0  0  0  0  0  0  0  0
   10.5126  -15.8674   26.9902 C   0  0  0  0  0  0  0  0  0  0  0  0
   11.1109  -17.5580   28.6021 O   0  0  0  0  0  0  0  0  0  0  0  0
   12.0481  -18.3857   29.1741 O   0  0  0  0  0  0  0  0  0  0  0  0
  2  1  1  0
  2  4  1  0
  3  2  2  0
  5  4  1  0
  6  5  1  0
  7  6  1  0
  8  7  1  0
  8  9  1  1
 10  8  1  0
 10 12  1  0
 11 10  2  0
 13 12  1  0
 13 14  1  1
 15 14  1  0
 15 16  2  0
 17 16  1  0
 18 23  2  0
 18 17  1  0
 19 18  1  0
 20 19  2  0
 21 20  1  0
 21 22  2  0
 22 23  1  0
 23 15  1  0
 24 13  1  0
 25 24  2  0
 27 26  1  1
 27 28  1  0
 29 30  1  1
 29 27  1  0
 30 24  1  0
 31 29  1  0
 32 31  1  0
 33 31  2  0
M  END
$$$$
