RWV.pdb
     RDKit          3D

 33 34  0  0  1  0  0  0  0  0999 V2000
    8.5443  -13.1944   17.3982 N   0  0  0  0  0  0  0  0  0  0  0  0
    8.3091  -12.8773   18.7835 C   0  0  0  0  0  0  0  0  0  0  0  0
    8.7480  -11.7822   19.2903 N   0  0  0  0  0  0  0  0  0  0  0  0
    7.5839  -13.7885   19.5941 N   0  0  0  0  0  0  0  0  0  0  0  0
    7.4310  -15.1618   19.1395 C   0  0  0  0  0  0  0  0  0  0  0  0
    8.0089  -16.0563   20.2129 C   0  0  0  0  0  0  0  0  0  0  0  0
    9.4901  -16.2122   20.1422 C   0  0  0  0  0  0  0  0  0  0  0  0
   10.0119  -17.1001   21.2483 C   0  0  2  0  0  0  0  0  0  0  0  0
    9.1255  -18.2421   21.3510 N   0  0  0  0  0  0  0  0  0  0  0  0
   10.0562  -16.3775   22.5515 C   0  0  0  0  0  0  0  0  0  0  0  0
   10.8049  -15.3622   22.7133 O   0  0  0  0  0  0  0  0  0  0  0  0
    8.6109  -11.5020   20.2800 N   0  0  0  0  0  0  0  0  0  0  0  0
    9.2733  -16.8019   23.6272 C   0  0  1  0  0  0  0  0  0  0  0  0
    9.1783  -16.1407   24.9096 C   0  0  0  0  0  0  0  0  0  0  0  0
    7.8621  -16.5396   25.5373 C   0  0  0  0  0  0  0  0  0  0  0  0
    6.7807  -15.6015   25.2309 C   0  0  0  0  0  0  0  0  0  0  0  0
    5.5267  -15.8767   24.7411 N   0  0  0  0  0  0  0  0  0  0  0  0
    4.8454  -14.7048   24.6055 C   0  0  0  0  0  0  0  0  0  0  0  0
    5.6249  -13.6704   24.9956 C   0  0  0  0  0  0  0  0  0  0  0  0
    5.4574  -12.3040   25.0689 C   0  0  0  0  0  0  0  0  0  0  0  0
    6.4826  -11.5098   25.5259 C   0  0  0  0  0  0  0  0  0  0  0  0
    7.6760  -12.0623   25.9117 C   0  0  0  0  0  0  0  0  0  0  0  0
    7.8557  -13.4270   25.8426 C   0  0  0  0  0  0  0  0  0  0  0  0
    6.8440  -14.2363   25.3893 C   0  0  0  0  0  0  0  0  0  0  0  0
   10.3182  -16.4714   25.7942 O   0  0  0  0  0  0  0  0  0  0  0  0
   11.1683  -17.3140   25.4152 C   0  0  0  0  0  0  0  0  0  0  0  0
   11.3174  -13.7892   28.7594 C   0  0  2  0  0  0  0  0  0  0  0  0
   11.6072  -15.2119   29.1153 C   0  0  0  0  0  0  0  0  0  0  0  0
   10.7004  -15.6431   30.2326 C   0  0  2  0  0  0  0  0  0  0  0  0
   11.5713  -16.1610   27.9552 N   0  0  0  0  0  0  0  0  0  0  0  0
   10.4729  -15.8661   27.0484 C   0  0  0  0  0  0  0  0  0  0  0  0
   11.5773  -17.5839   28.3306 O   0  0  0  0  0  0  0  0  0  0  0  0
   12.7342  -18.2161   28.7210 O   0  0  0  0  0  0  0  0  0  0  0  0
  2  1  1  0
  2  4  1  0
  3  2  2  0
  5  4  1  0
  6  5  1  0
  7  6  1  0
  8  7  1  0
  8  9  1  1
 10  8  1  0
 10 12  1  0
 11 10  2  0
 13 12  1  0
 13 14  1  1
 15 14  1  0
 15 16  2  0
 17 16  1  0
 18 23  2  0
 18 17  1  0
 19 18  1  0
 20 19  2  0
 21 20  1  0
 21 22  2  0
 22 23  1  0
 23 15  1  0
 24 13  1  0
 25 24  2  0
 27 26  1  1
 27 28  1  0
 29 30  1  6
 29 27  1  0
 30 24  1  0
 31 29  1  0
 32 31  1  0
 33 31  2  0
M  END
$$$$
