RWV.pdb
     RDKit          3D

 33 34  0  0  1  0  0  0  0  0999 V2000
    9.5185  -14.4908   15.4451 N   0  0  0  0  0  0  0  0  0  0  0  0
    8.1822  -14.3467   15.9632 C   0  0  0  0  0  0  0  0  0  0  0  0
    7.4037  -13.4244   15.5249 N   0  0  0  0  0  0  0  0  0  0  0  0
    7.7249  -15.2360   16.9699 N   0  0  0  0  0  0  0  0  0  0  0  0
    8.7060  -15.9398   17.7811 C   0  0  0  0  0  0  0  0  0  0  0  0
    9.1414  -14.9948   18.8782 C   0  0  0  0  0  0  0  0  0  0  0  0
   10.5177  -15.2516   19.3914 C   0  0  0  0  0  0  0  0  0  0  0  0
   10.5304  -16.3465   20.4331 C   0  0  2  0  0  0  0  0  0  0  0  0
    9.4909  -17.2952   20.0870 N   0  0  0  0  0  0  0  0  0  0  0  0
   10.2818  -15.8020   21.7984 C   0  0  0  0  0  0  0  0  0  0  0  0
   10.9572  -14.8219   22.2467 O   0  0  0  0  0  0  0  0  0  0  0  0
    6.4236  -13.2915   15.8385 N   0  0  0  0  0  0  0  0  0  0  0  0
    9.2978  -16.3589   22.6181 C   0  0  1  0  0  0  0  0  0  0  0  0
    8.8584  -15.8221   23.8867 C   0  0  0  0  0  0  0  0  0  0  0  0
    7.4741  -16.3639   24.1617 C   0  0  0  0  0  0  0  0  0  0  0  0
    6.6582  -15.4526   24.9663 C   0  0  0  0  0  0  0  0  0  0  0  0
    5.5169  -15.7332   25.6780 N   0  0  0  0  0  0  0  0  0  0  0  0
    5.0862  -14.5891   26.2791 C   0  0  0  0  0  0  0  0  0  0  0  0
    5.9198  -13.5676   25.9770 C   0  0  0  0  0  0  0  0  0  0  0  0
    5.9687  -12.2282   26.2999 C   0  0  0  0  0  0  0  0  0  0  0  0
    6.9837  -11.4403   25.8107 C   0  0  0  0  0  0  0  0  0  0  0  0
    7.9532  -11.9723   25.0012 C   0  0  0  0  0  0  0  0  0  0  0  0
    7.9150  -13.3098   24.6709 C   0  0  0  0  0  0  0  0  0  0  0  0
    6.9098  -14.1124   25.1498 C   0  0  0  0  0  0  0  0  0  0  0  0
    9.7931  -16.1514   24.9863 O   0  0  0  0  0  0  0  0  0  0  0  0
   10.6731  -17.0284   24.8054 C   0  0  0  0  0  0  0  0  0  0  0  0
   11.1960  -15.1994   29.7127 C   0  0  2  0  0  0  0  0  0  0  0  0
   10.2938  -14.9640   28.5442 C   0  0  0  0  0  0  0  0  0  0  0  0
   10.3054  -13.5045   28.1888 C   0  0  1  0  0  0  0  0  0  0  0  0
   10.5718  -15.8401   27.3598 N   0  0  0  0  0  0  0  0  0  0  0  0
    9.7202  -15.5073   26.2285 C   0  0  0  0  0  0  0  0  0  0  0  0
   10.5293  -17.2832   27.6449 O   0  0  0  0  0  0  0  0  0  0  0  0
   11.6553  -17.9690   28.0352 O   0  0  0  0  0  0  0  0  0  0  0  0
  2  1  1  0
  2  4  1  0
  3  2  2  0
  5  4  1  0
  6  5  1  0
  7  6  1  0
  8  7  1  0
  8  9  1  6
 10  8  1  0
 10 12  1  0
 11 10  2  0
 13 12  1  0
 13 14  1  1
 15 14  1  0
 15 16  2  0
 17 16  1  0
 18 23  2  0
 18 17  1  0
 19 18  1  0
 20 19  2  0
 21 20  1  0
 21 22  2  0
 22 23  1  0
 23 15  1  0
 24 13  1  0
 25 24  2  0
 27 26  1  1
 27 28  1  0
 29 30  1  1
 29 27  1  0
 30 24  1  0
 31 29  1  0
 32 31  1  0
 33 31  2  0
M  END
$$$$
