RWV.pdb
     RDKit          3D

 33 34  0  0  1  0  0  0  0  0999 V2000
    6.8801  -22.2640   18.4652 N   0  0  0  0  0  0  0  0  0  0  0  0
    7.4755  -21.9787   17.1850 C   0  0  0  0  0  0  0  0  0  0  0  0
    7.6978  -22.9194   16.3398 N   0  0  0  0  0  0  0  0  0  0  0  0
    7.8194  -20.6414   16.8583 N   0  0  0  0  0  0  0  0  0  0  0  0
    8.5020  -19.8304   17.8544 C   0  0  0  0  0  0  0  0  0  0  0  0
    7.6590  -19.8580   19.1092 C   0  0  0  0  0  0  0  0  0  0  0  0
    8.3131  -19.2345   20.2953 C   0  0  0  0  0  0  0  0  0  0  0  0
    8.6970  -17.7969   20.0303 C   0  0  2  0  0  0  0  0  0  0  0  0
    9.6680  -17.7919   18.9545 N   0  0  0  0  0  0  0  0  0  0  0  0
    9.2841  -17.1579   21.2424 C   0  0  0  0  0  0  0  0  0  0  0  0
   10.4234  -17.5114   21.6836 O   0  0  0  0  0  0  0  0  0  0  0  0
    8.1416  -22.7769   15.4127 N   0  0  0  0  0  0  0  0  0  0  0  0
    8.5928  -16.1530   21.9225 C   0  0  2  0  0  0  0  0  0  0  0  0
    9.0076  -15.5409   23.1650 C   0  0  0  0  0  0  0  0  0  0  0  0
    8.0860  -14.3730   23.4336 C   0  0  0  0  0  0  0  0  0  0  0  0
    8.3776  -13.7007   24.7010 C   0  0  0  0  0  0  0  0  0  0  0  0
    9.5752  -13.1888   25.1386 N   0  0  0  0  0  0  0  0  0  0  0  0
    9.3925  -12.6511   26.3770 C   0  0  0  0  0  0  0  0  0  0  0  0
    8.1032  -12.7994   26.7583 C   0  0  0  0  0  0  0  0  0  0  0  0
    7.3780  -12.4552   27.8791 C   0  0  0  0  0  0  0  0  0  0  0  0
    6.0396  -12.7615   27.9521 C   0  0  0  0  0  0  0  0  0  0  0  0
    5.4134  -13.4086   26.9190 C   0  0  0  0  0  0  0  0  0  0  0  0
    6.1277  -13.7583   25.7934 C   0  0  0  0  0  0  0  0  0  0  0  0
    7.4646  -13.4608   25.7020 C   0  0  0  0  0  0  0  0  0  0  0  0
    9.0000  -16.5020   24.2909 O   0  0  0  0  0  0  0  0  0  0  0  0
    7.9742  -17.1938   24.5039 C   0  0  0  0  0  0  0  0  0  0  0  0
   11.7014  -19.6823   26.7820 C   0  0  2  0  0  0  0  0  0  0  0  0
   11.4109  -18.6368   25.7537 C   0  0  0  0  0  0  0  0  0  0  0  0
   11.2621  -19.2864   24.4075 C   0  0  1  0  0  0  0  0  0  0  0  0
   10.2524  -17.7452   26.0861 N   0  0  0  0  0  0  0  0  0  0  0  0
   10.1124  -16.6596   25.1281 C   0  0  0  0  0  0  0  0  0  0  0  0
   10.2524  -17.2336   27.4659 O   0  0  0  0  0  0  0  0  0  0  0  0
    9.6588  -17.9345   28.4891 O   0  0  0  0  0  0  0  0  0  0  0  0
  2  1  1  0
  2  4  1  0
  3  2  2  0
  5  4  1  0
  6  5  1  0
  7  6  1  0
  8  7  1  0
  8  9  1  6
 10  8  1  0
 10 12  1  0
 11 10  2  0
 13 12  1  0
 13 14  1  6
 15 14  1  0
 15 16  2  0
 17 16  1  0
 18 23  2  0
 18 17  1  0
 19 18  1  0
 20 19  2  0
 21 20  1  0
 21 22  2  0
 22 23  1  0
 23 15  1  0
 24 13  1  0
 25 24  2  0
 27 26  1  6
 27 28  1  0
 29 30  1  6
 29 27  1  0
 30 24  1  0
 31 29  1  0
 32 31  1  0
 33 31  2  0
M  END
$$$$
