RWV.pdb
     RDKit          3D

 33 34  0  0  1  0  0  0  0  0999 V2000
    8.5000  -12.7725   16.5209 N   0  0  0  0  0  0  0  0  0  0  0  0
    7.9028  -14.0211   16.1218 C   0  0  0  0  0  0  0  0  0  0  0  0
    7.8635  -14.3647   14.8853 N   0  0  0  0  0  0  0  0  0  0  0  0
    7.3523  -14.8781   17.1097 N   0  0  0  0  0  0  0  0  0  0  0  0
    7.5718  -14.5617   18.5125 C   0  0  0  0  0  0  0  0  0  0  0  0
    9.0516  -14.7171   18.7809 C   0  0  0  0  0  0  0  0  0  0  0  0
    9.4659  -14.3148   20.1556 C   0  0  0  0  0  0  0  0  0  0  0  0
    9.8972  -15.5056   20.9802 C   0  0  2  0  0  0  0  0  0  0  0  0
    8.9774  -16.5903   20.7013 N   0  0  0  0  0  0  0  0  0  0  0  0
    9.8810  -15.1932   22.4378 C   0  0  0  0  0  0  0  0  0  0  0  0
   10.5205  -14.1966   22.9021 O   0  0  0  0  0  0  0  0  0  0  0  0
    7.5387  -15.2907   14.5479 N   0  0  0  0  0  0  0  0  0  0  0  0
    9.1604  -15.9915   23.3286 C   0  0  1  0  0  0  0  0  0  0  0  0
    8.9168  -15.6877   24.7210 C   0  0  0  0  0  0  0  0  0  0  0  0
    7.5757  -16.2776   25.0937 C   0  0  0  0  0  0  0  0  0  0  0  0
    6.5569  -15.2563   25.3435 C   0  0  0  0  0  0  0  0  0  0  0  0
    5.1984  -15.4200   25.4682 N   0  0  0  0  0  0  0  0  0  0  0  0
    4.6321  -14.2020   25.6959 C   0  0  0  0  0  0  0  0  0  0  0  0
    5.5891  -13.2465   25.7232 C   0  0  0  0  0  0  0  0  0  0  0  0
    5.5903  -11.8806   25.9100 C   0  0  0  0  0  0  0  0  0  0  0  0
    6.7751  -11.1838   25.8773 C   0  0  0  0  0  0  0  0  0  0  0  0
    7.9622  -11.8334   25.6602 C   0  0  0  0  0  0  0  0  0  0  0  0
    7.9740  -13.1987   25.4717 C   0  0  0  0  0  0  0  0  0  0  0  0
    6.8014  -13.9115   25.5010 C   0  0  0  0  0  0  0  0  0  0  0  0
    9.9923  -16.1986   25.6006 O   0  0  0  0  0  0  0  0  0  0  0  0
   10.8469  -16.9905   25.1328 C   0  0  0  0  0  0  0  0  0  0  0  0
   12.2302  -15.8781   30.0758 C   0  0  2  0  0  0  0  0  0  0  0  0
   11.1204  -15.5185   29.1410 C   0  0  0  0  0  0  0  0  0  0  0  0
   11.0948  -14.0296   28.9435 C   0  0  1  0  0  0  0  0  0  0  0  0
   11.1387  -16.2644   27.8407 N   0  0  0  0  0  0  0  0  0  0  0  0
   10.0808  -15.8201   26.9466 C   0  0  0  0  0  0  0  0  0  0  0  0
   11.1322  -17.7296   27.9776 O   0  0  0  0  0  0  0  0  0  0  0  0
    9.9577  -18.4294   28.1242 O   0  0  0  0  0  0  0  0  0  0  0  0
  2  1  1  0
  2  4  1  0
  3  2  2  0
  5  4  1  0
  6  5  1  0
  7  6  1  0
  8  7  1  0
  8  9  1  1
 10  8  1  0
 10 12  1  0
 11 10  2  0
 13 12  1  0
 13 14  1  6
 15 14  1  0
 15 16  2  0
 17 16  1  0
 18 23  2  0
 18 17  1  0
 19 18  1  0
 20 19  2  0
 21 20  1  0
 21 22  2  0
 22 23  1  0
 23 15  1  0
 24 13  1  0
 25 24  2  0
 27 26  1  1
 27 28  1  0
 29 30  1  1
 29 27  1  0
 30 24  1  0
 31 29  1  0
 32 31  1  0
 33 31  2  0
M  END
$$$$
