FHH.pdb
     RDKit          3D

 32 34  0  0  1  0  0  0  0  0999 V2000
   16.1537  -15.9731    5.5686 N   0  0  0  0  0  0  0  0  0  0  0  0
   17.2689  -16.8860    5.5717 C   0  0  1  0  0  0  0  0  0  0  0  0
   18.4987  -16.2154    4.9818 C   0  0  0  0  0  0  0  0  0  0  0  0
   18.3592  -15.9439    3.5522 C   0  0  0  0  0  0  0  0  0  0  0  0
   18.2468  -14.6480    3.1122 C   0  0  0  0  0  0  0  0  0  0  0  0
   18.1141  -14.3325    1.7646 C   0  0  0  0  0  0  0  0  0  0  0  0
   18.0983  -15.3679    0.8724 C   0  0  0  0  0  0  0  0  0  0  0  0
   18.2077  -16.6817    1.2645 C   0  0  0  0  0  0  0  0  0  0  0  0
   18.3387  -16.9570    2.6197 C   0  0  0  0  0  0  0  0  0  0  0  0
   17.6373  -17.3510    6.9320 C   0  0  0  0  0  0  0  0  0  0  0  0
   17.4382  -16.6748    7.9740 O   0  0  0  0  0  0  0  0  0  0  0  0
   18.2569  -18.6388    7.1316 N   0  0  0  0  0  0  0  0  0  0  0  0
   18.6433  -19.0944    8.4467 C   0  0  1  0  0  0  0  0  0  0  0  0
   18.2839  -20.5630    8.6371 C   0  0  0  0  0  0  0  0  0  0  0  0
   16.8436  -20.7490    8.8644 C   0  0  0  0  0  0  0  0  0  0  0  0
   15.9582  -19.7921    9.2864 C   0  0  0  0  0  0  0  0  0  0  0  0
   14.7162  -20.3085    9.3878 N   0  0  0  0  0  0  0  0  0  0  0  0
   14.8381  -21.6023    9.0232 C   0  0  0  0  0  0  0  0  0  0  0  0
   16.1163  -21.8714    8.7076 N   0  0  0  0  0  0  0  0  0  0  0  0
   20.1073  -18.8844    8.6258 C   0  0  0  0  0  0  0  0  0  0  0  0
   20.9052  -19.3686    7.7924 O   0  0  0  0  0  0  0  0  0  0  0  0
   20.6403  -18.1513    9.7129 N   0  0  0  0  0  0  0  0  0  0  0  0
   22.0544  -17.9886   10.0099 C   0  0  1  0  0  0  0  0  0  0  0  0
   22.3455  -16.7004   10.6825 C   0  0  0  0  0  0  0  0  0  0  0  0
   23.7874  -16.5018   10.8807 C   0  0  0  0  0  0  0  0  0  0  0  0
   24.8547  -16.7628   10.0755 C   0  0  0  0  0  0  0  0  0  0  0  0
   26.0073  -16.4419   10.6921 N   0  0  0  0  0  0  0  0  0  0  0  0
   25.6792  -15.9727   11.8986 C   0  0  0  0  0  0  0  0  0  0  0  0
   24.3349  -16.0026   12.0287 N   0  0  0  0  0  0  0  0  0  0  0  0
   22.6692  -19.1955   10.6107 C   0  0  0  0  0  0  0  0  0  0  0  0
   23.7022  -19.7000   10.1108 O   0  0  0  0  0  0  0  0  0  0  0  0
   22.1501  -19.8221   11.7368 O   0  0  0  0  0  0  0  0  0  0  0  0
  2  1  1  1
  3  4  1  0
  3  2  1  0
  4  5  2  0
  5  6  1  0
  7  6  2  0
  8  7  1  0
  9  4  1  0
  9  8  2  0
 10 11  2  0
 10  2  1  0
 12 10  1  0
 13 12  1  0
 13 14  1  6
 14 15  1  0
 15 16  2  0
 15 19  1  0
 16 17  1  0
 17 18  1  0
 19 18  2  0
 20 13  1  0
 21 20  2  0
 22 20  1  0
 23 22  1  0
 24 25  1  0
 23 24  1  1
 25 29  1  0
 26 27  1  0
 26 25  2  0
 27 28  1  0
 28 29  2  0
 30 23  1  0
 30 32  1  0
 31 30  2  0
M  END
$$$$
