FHH.pdb
     RDKit          3D

 32 34  0  0  1  0  0  0  0  0999 V2000
   16.7181   -2.4870  -10.6652 N   0  0  0  0  0  0  0  0  0  0  0  0
   17.1637   -3.6104   -9.8800 C   0  0  1  0  0  0  0  0  0  0  0  0
   16.2155   -3.8469   -8.7159 C   0  0  0  0  0  0  0  0  0  0  0  0
   16.1674   -2.7154   -7.7916 C   0  0  0  0  0  0  0  0  0  0  0  0
   14.9535   -2.2174   -7.3863 C   0  0  0  0  0  0  0  0  0  0  0  0
   14.8494   -1.1450   -6.5075 C   0  0  0  0  0  0  0  0  0  0  0  0
   16.0110   -0.5892   -6.0492 C   0  0  0  0  0  0  0  0  0  0  0  0
   17.2499   -1.0527   -6.4261 C   0  0  0  0  0  0  0  0  0  0  0  0
   17.3132   -2.1260   -7.3057 C   0  0  0  0  0  0  0  0  0  0  0  0
   17.2254   -4.8746  -10.6547 C   0  0  0  0  0  0  0  0  0  0  0  0
   16.3606   -5.2107  -11.5042 O   0  0  0  0  0  0  0  0  0  0  0  0
   18.3125   -5.8050  -10.4678 N   0  0  0  0  0  0  0  0  0  0  0  0
   18.4314   -6.9979  -11.2734 C   0  0  1  0  0  0  0  0  0  0  0  0
   19.8941   -7.3880  -11.4488 C   0  0  0  0  0  0  0  0  0  0  0  0
   20.5648   -6.5573  -12.4591 C   0  0  0  0  0  0  0  0  0  0  0  0
   19.9701   -5.6246  -13.2680 C   0  0  0  0  0  0  0  0  0  0  0  0
   20.8833   -5.0481  -14.0761 N   0  0  0  0  0  0  0  0  0  0  0  0
   22.0575   -5.6341  -13.7609 C   0  0  0  0  0  0  0  0  0  0  0  0
   21.8703   -6.5427  -12.7886 N   0  0  0  0  0  0  0  0  0  0  0  0
   17.6673   -8.1016  -10.6275 C   0  0  0  0  0  0  0  0  0  0  0  0
   17.5862   -8.1464   -9.3797 O   0  0  0  0  0  0  0  0  0  0  0  0
   17.0212   -9.1148  -11.3755 N   0  0  0  0  0  0  0  0  0  0  0  0
   15.7598   -9.7484  -11.0265 C   0  0  1  0  0  0  0  0  0  0  0  0
   14.7245   -8.7647  -10.6299 C   0  0  0  0  0  0  0  0  0  0  0  0
   13.4533   -9.4174  -10.2898 C   0  0  0  0  0  0  0  0  0  0  0  0
   12.3424   -9.6758  -11.0346 C   0  0  0  0  0  0  0  0  0  0  0  0
   11.3959  -10.2741  -10.2878 N   0  0  0  0  0  0  0  0  0  0  0  0
   11.9005  -10.4006   -9.0579 C   0  0  0  0  0  0  0  0  0  0  0  0
   13.1492   -9.8852   -9.0425 N   0  0  0  0  0  0  0  0  0  0  0  0
   15.3392  -10.7884  -11.9946 C   0  0  0  0  0  0  0  0  0  0  0  0
   15.3386  -10.5500  -13.2253 O   0  0  0  0  0  0  0  0  0  0  0  0
   14.9326  -12.0583  -11.6040 O   0  0  0  0  0  0  0  0  0  0  0  0
  2  1  1  6
  3  4  1  0
  3  2  1  0
  4  5  2  0
  5  6  1  0
  7  6  2  0
  8  7  1  0
  9  4  1  0
  9  8  2  0
 10 11  2  0
 10  2  1  0
 12 10  1  0
 13 12  1  0
 13 14  1  1
 14 15  1  0
 15 16  2  0
 15 19  1  0
 16 17  1  0
 17 18  1  0
 19 18  2  0
 20 13  1  0
 21 20  2  0
 22 20  1  0
 23 22  1  0
 24 25  1  0
 23 24  1  6
 25 29  1  0
 26 27  1  0
 26 25  2  0
 27 28  1  0
 28 29  2  0
 30 23  1  0
 30 32  1  0
 31 30  2  0
M  END
$$$$
