FHH.pdb
     RDKit          3D

 32 34  0  0  1  0  0  0  0  0999 V2000
   25.5320  -10.1281  -18.8520 N   0  0  0  0  0  0  0  0  0  0  0  0
   24.6476   -9.2353  -18.1466 C   0  0  1  0  0  0  0  0  0  0  0  0
   24.3856   -7.9899  -18.9777 C   0  0  0  0  0  0  0  0  0  0  0  0
   25.6169   -7.3041  -19.3654 C   0  0  0  0  0  0  0  0  0  0  0  0
   26.0776   -6.2523  -18.6122 C   0  0  0  0  0  0  0  0  0  0  0  0
   27.2434   -5.5661  -18.9337 C   0  0  0  0  0  0  0  0  0  0  0  0
   27.9316   -5.9750  -20.0415 C   0  0  0  0  0  0  0  0  0  0  0  0
   27.5104   -7.0225  -20.8271 C   0  0  0  0  0  0  0  0  0  0  0  0
   26.3409   -7.6836  -20.4737 C   0  0  0  0  0  0  0  0  0  0  0  0
   23.3275   -9.8419  -17.8438 C   0  0  0  0  0  0  0  0  0  0  0  0
   22.9478  -10.9464  -18.3114 O   0  0  0  0  0  0  0  0  0  0  0  0
   22.3897   -9.1770  -16.9717 N   0  0  0  0  0  0  0  0  0  0  0  0
   21.1355   -9.7915  -16.6035 C   0  0  1  0  0  0  0  0  0  0  0  0
   21.3719  -11.1206  -15.8964 C   0  0  0  0  0  0  0  0  0  0  0  0
   20.1095  -11.8018  -15.5753 C   0  0  0  0  0  0  0  0  0  0  0  0
   19.3748  -11.6512  -14.4284 C   0  0  0  0  0  0  0  0  0  0  0  0
   18.2723  -12.4273  -14.4675 N   0  0  0  0  0  0  0  0  0  0  0  0
   18.3286  -13.0656  -15.6554 C   0  0  0  0  0  0  0  0  0  0  0  0
   19.4323  -12.6922  -16.3249 N   0  0  0  0  0  0  0  0  0  0  0  0
   20.3731   -8.8587  -15.7273 C   0  0  0  0  0  0  0  0  0  0  0  0
   20.8737   -8.4846  -14.6432 O   0  0  0  0  0  0  0  0  0  0  0  0
   19.0899   -8.3719  -16.0736 N   0  0  0  0  0  0  0  0  0  0  0  0
   18.2915   -7.4537  -15.2775 C   0  0  1  0  0  0  0  0  0  0  0  0
   17.8212   -6.2878  -16.0624 C   0  0  0  0  0  0  0  0  0  0  0  0
   18.9103   -5.6736  -16.8333 C   0  0  0  0  0  0  0  0  0  0  0  0
   19.3641   -5.9030  -18.0970 C   0  0  0  0  0  0  0  0  0  0  0  0
   20.4181   -5.1139  -18.3761 N   0  0  0  0  0  0  0  0  0  0  0  0
   20.6426   -4.3743  -17.2871 C   0  0  0  0  0  0  0  0  0  0  0  0
   19.7355   -4.7021  -16.3412 N   0  0  0  0  0  0  0  0  0  0  0  0
   17.2746   -8.1349  -14.4422 C   0  0  0  0  0  0  0  0  0  0  0  0
   16.5449   -7.4767  -13.6639 O   0  0  0  0  0  0  0  0  0  0  0  0
   17.0745   -9.5094  -14.4735 O   0  0  0  0  0  0  0  0  0  0  0  0
  2  1  1  6
  3  4  1  0
  3  2  1  0
  4  5  2  0
  5  6  1  0
  7  6  2  0
  8  7  1  0
  9  4  1  0
  9  8  2  0
 10 11  2  0
 10  2  1  0
 12 10  1  0
 13 12  1  0
 13 14  1  1
 14 15  1  0
 15 16  2  0
 15 19  1  0
 16 17  1  0
 17 18  1  0
 19 18  2  0
 20 13  1  0
 21 20  2  0
 22 20  1  0
 23 22  1  0
 24 25  1  0
 23 24  1  6
 25 29  1  0
 26 27  1  0
 26 25  2  0
 27 28  1  0
 28 29  2  0
 30 23  1  0
 30 32  1  0
 31 30  2  0
M  END
$$$$
