FHH.pdb
     RDKit          3D

 32 34  0  0  1  0  0  0  0  0999 V2000
   29.0885  -25.4606  -16.6383 N   0  0  0  0  0  0  0  0  0  0  0  0
   28.1932  -26.5900  -16.6465 C   0  0  1  0  0  0  0  0  0  0  0  0
   27.0215  -26.3249  -17.5776 C   0  0  0  0  0  0  0  0  0  0  0  0
   26.1642  -25.2386  -17.1066 C   0  0  0  0  0  0  0  0  0  0  0  0
   26.1615  -24.0360  -17.7693 C   0  0  0  0  0  0  0  0  0  0  0  0
   25.3646  -22.9703  -17.3663 C   0  0  0  0  0  0  0  0  0  0  0  0
   24.5685  -23.1561  -16.2709 C   0  0  0  0  0  0  0  0  0  0  0  0
   24.5365  -24.3417  -15.5745 C   0  0  0  0  0  0  0  0  0  0  0  0
   25.3469  -25.3835  -16.0077 C   0  0  0  0  0  0  0  0  0  0  0  0
   28.8406  -27.8432  -17.1076 C   0  0  0  0  0  0  0  0  0  0  0  0
   29.8709  -27.8671  -17.8291 O   0  0  0  0  0  0  0  0  0  0  0  0
   28.3062  -29.1317  -16.7384 N   0  0  0  0  0  0  0  0  0  0  0  0
   28.9801  -30.3584  -17.0953 C   0  0  1  0  0  0  0  0  0  0  0  0
   30.1216  -30.6489  -16.1283 C   0  0  0  0  0  0  0  0  0  0  0  0
   30.8590  -31.8645  -16.5014 C   0  0  0  0  0  0  0  0  0  0  0  0
   31.7395  -31.9921  -17.5437 C   0  0  0  0  0  0  0  0  0  0  0  0
   32.2339  -33.2460  -17.5946 N   0  0  0  0  0  0  0  0  0  0  0  0
   31.6495  -33.9007  -16.5692 C   0  0  0  0  0  0  0  0  0  0  0  0
   30.8216  -33.0732  -15.9090 N   0  0  0  0  0  0  0  0  0  0  0  0
   27.9944  -31.4753  -17.0950 C   0  0  0  0  0  0  0  0  0  0  0  0
   27.0849  -31.4936  -16.2358 O   0  0  0  0  0  0  0  0  0  0  0  0
   28.0440  -32.5301  -18.0375 N   0  0  0  0  0  0  0  0  0  0  0  0
   27.1370  -33.6656  -18.0833 C   0  0  1  0  0  0  0  0  0  0  0  0
   26.0776  -33.5012  -19.1066 C   0  0  0  0  0  0  0  0  0  0  0  0
   25.3137  -32.2625  -18.9073 C   0  0  0  0  0  0  0  0  0  0  0  0
   25.4863  -31.0049  -19.4015 C   0  0  0  0  0  0  0  0  0  0  0  0
   24.5489  -30.1691  -18.9172 N   0  0  0  0  0  0  0  0  0  0  0  0
   23.7708  -30.8927  -18.1083 C   0  0  0  0  0  0  0  0  0  0  0  0
   24.2218  -32.1660  -18.0915 N   0  0  0  0  0  0  0  0  0  0  0  0
   27.8341  -34.9731  -18.0655 C   0  0  0  0  0  0  0  0  0  0  0  0
   28.5536  -35.3243  -19.0300 O   0  0  0  0  0  0  0  0  0  0  0  0
   27.7344  -35.8635  -17.0037 O   0  0  0  0  0  0  0  0  0  0  0  0
  2  1  1  6
  3  4  1  0
  3  2  1  0
  4  5  2  0
  5  6  1  0
  7  6  2  0
  8  7  1  0
  9  4  1  0
  9  8  2  0
 10 11  2  0
 10  2  1  0
 12 10  1  0
 13 12  1  0
 13 14  1  1
 14 15  1  0
 15 16  2  0
 15 19  1  0
 16 17  1  0
 17 18  1  0
 19 18  2  0
 20 13  1  0
 21 20  2  0
 22 20  1  0
 23 22  1  0
 24 25  1  0
 23 24  1  6
 25 29  1  0
 26 27  1  0
 26 25  2  0
 27 28  1  0
 28 29  2  0
 30 23  1  0
 30 32  1  0
 31 30  2  0
M  END
$$$$
