FHH.pdb
     RDKit          3D

 32 34  0  0  1  0  0  0  0  0999 V2000
   23.3719  -10.0959  -17.4417 N   0  0  0  0  0  0  0  0  0  0  0  0
   22.9822  -10.0119  -16.0567 C   0  0  1  0  0  0  0  0  0  0  0  0
   23.9118   -9.0730  -15.3053 C   0  0  0  0  0  0  0  0  0  0  0  0
   25.3212   -9.4185  -15.4809 C   0  0  0  0  0  0  0  0  0  0  0  0
   25.8548  -10.4781  -14.7894 C   0  0  0  0  0  0  0  0  0  0  0  0
   27.1876  -10.8518  -14.9201 C   0  0  0  0  0  0  0  0  0  0  0  0
   27.9675  -10.1213  -15.7723 C   0  0  0  0  0  0  0  0  0  0  0  0
   27.4790   -9.0521  -16.4865 C   0  0  0  0  0  0  0  0  0  0  0  0
   26.1421   -8.7093  -16.3293 C   0  0  0  0  0  0  0  0  0  0  0  0
   21.6021   -9.4994  -15.8700 C   0  0  0  0  0  0  0  0  0  0  0  0
   21.0655   -8.6568  -16.6347 O   0  0  0  0  0  0  0  0  0  0  0  0
   20.7845   -9.9574  -14.7727 N   0  0  0  0  0  0  0  0  0  0  0  0
   19.3863   -9.6083  -14.6768 C   0  0  1  0  0  0  0  0  0  0  0  0
   18.5442  -10.8352  -14.3483 C   0  0  0  0  0  0  0  0  0  0  0  0
   18.3598  -11.7025  -15.5207 C   0  0  0  0  0  0  0  0  0  0  0  0
   18.8392  -11.4727  -16.7838 C   0  0  0  0  0  0  0  0  0  0  0  0
   18.4837  -12.4745  -17.6141 N   0  0  0  0  0  0  0  0  0  0  0  0
   17.7749  -13.3337  -16.8520 C   0  0  0  0  0  0  0  0  0  0  0  0
   17.6979  -12.8730  -15.5920 N   0  0  0  0  0  0  0  0  0  0  0  0
   19.2152   -8.5591  -13.6331 C   0  0  0  0  0  0  0  0  0  0  0  0
   20.0027   -8.5231  -12.6614 O   0  0  0  0  0  0  0  0  0  0  0  0
   18.1861   -7.5893  -13.6951 N   0  0  0  0  0  0  0  0  0  0  0  0
   17.8901   -6.6046  -12.6670 C   0  0  1  0  0  0  0  0  0  0  0  0
   19.0844   -5.8177  -12.2781 C   0  0  0  0  0  0  0  0  0  0  0  0
   18.7415   -4.7217  -11.3622 C   0  0  0  0  0  0  0  0  0  0  0  0
   18.6818   -4.6655  -10.0025 C   0  0  0  0  0  0  0  0  0  0  0  0
   18.2872   -3.4458   -9.5924 N   0  0  0  0  0  0  0  0  0  0  0  0
   18.0923   -2.7152  -10.6931 C   0  0  0  0  0  0  0  0  0  0  0  0
   18.3640   -3.4755  -11.7763 N   0  0  0  0  0  0  0  0  0  0  0  0
   16.6545   -5.8317  -12.9346 C   0  0  0  0  0  0  0  0  0  0  0  0
   15.8316   -5.6081  -12.0158 O   0  0  0  0  0  0  0  0  0  0  0  0
   16.3445   -5.3208  -14.1890 O   0  0  0  0  0  0  0  0  0  0  0  0
  2  1  1  6
  3  4  1  0
  3  2  1  0
  4  5  2  0
  5  6  1  0
  7  6  2  0
  8  7  1  0
  9  4  1  0
  9  8  2  0
 10 11  2  0
 10  2  1  0
 12 10  1  0
 13 12  1  0
 13 14  1  1
 14 15  1  0
 15 16  2  0
 15 19  1  0
 16 17  1  0
 17 18  1  0
 19 18  2  0
 20 13  1  0
 21 20  2  0
 22 20  1  0
 23 22  1  0
 24 25  1  0
 23 24  1  6
 25 29  1  0
 26 27  1  0
 26 25  2  0
 27 28  1  0
 28 29  2  0
 30 23  1  0
 30 32  1  0
 31 30  2  0
M  END
$$$$
