FHH.pdb
     RDKit          3D

 32 34  0  0  1  0  0  0  0  0999 V2000
   18.8653  -23.9133   -9.6658 N   0  0  0  0  0  0  0  0  0  0  0  0
   19.1665  -23.6483   -8.2816 C   0  0  1  0  0  0  0  0  0  0  0  0
   19.1721  -22.1506   -8.0224 C   0  0  0  0  0  0  0  0  0  0  0  0
   20.2603  -21.4644   -8.7165 C   0  0  0  0  0  0  0  0  0  0  0  0
   21.5623  -21.7163   -8.3599 C   0  0  0  0  0  0  0  0  0  0  0  0
   22.6355  -21.0939   -8.9877 C   0  0  0  0  0  0  0  0  0  0  0  0
   22.3536  -20.2072   -9.9889 C   0  0  0  0  0  0  0  0  0  0  0  0
   21.0666  -19.9221  -10.3815 C   0  0  0  0  0  0  0  0  0  0  0  0
   20.0207  -20.5640   -9.7305 C   0  0  0  0  0  0  0  0  0  0  0  0
   18.1827  -24.2480   -7.3463 C   0  0  0  0  0  0  0  0  0  0  0  0
   17.2380  -23.6016   -6.8246 O   0  0  0  0  0  0  0  0  0  0  0  0
   18.2626  -25.6418   -6.9814 N   0  0  0  0  0  0  0  0  0  0  0  0
   17.3397  -26.2288   -6.0380 C   0  0  1  0  0  0  0  0  0  0  0  0
   16.5797  -27.3863   -6.6743 C   0  0  0  0  0  0  0  0  0  0  0  0
   15.6465  -26.9240   -7.7117 C   0  0  0  0  0  0  0  0  0  0  0  0
   14.4298  -26.3293   -7.5025 C   0  0  0  0  0  0  0  0  0  0  0  0
   13.8395  -26.0332   -8.6786 N   0  0  0  0  0  0  0  0  0  0  0  0
   14.7047  -26.4516   -9.6261 C   0  0  0  0  0  0  0  0  0  0  0  0
   15.7931  -26.9882   -9.0487 N   0  0  0  0  0  0  0  0  0  0  0  0
   18.0943  -26.6915   -4.8398 C   0  0  0  0  0  0  0  0  0  0  0  0
   19.3282  -26.8815   -4.9247 O   0  0  0  0  0  0  0  0  0  0  0  0
   17.4663  -26.9284   -3.5937 N   0  0  0  0  0  0  0  0  0  0  0  0
   18.1362  -27.3663   -2.3797 C   0  0  1  0  0  0  0  0  0  0  0  0
   18.5259  -26.2319   -1.5091 C   0  0  0  0  0  0  0  0  0  0  0  0
   17.3951  -25.7455   -0.7075 C   0  0  0  0  0  0  0  0  0  0  0  0
   16.3457  -24.9364   -1.0229 C   0  0  0  0  0  0  0  0  0  0  0  0
   15.5599  -24.7338    0.0510 N   0  0  0  0  0  0  0  0  0  0  0  0
   16.1067  -25.4157    1.0606 C   0  0  0  0  0  0  0  0  0  0  0  0
   17.2218  -26.0356    0.6164 N   0  0  0  0  0  0  0  0  0  0  0  0
   17.4564  -28.5013   -1.7125 C   0  0  0  0  0  0  0  0  0  0  0  0
   16.2756  -28.7998   -2.0090 O   0  0  0  0  0  0  0  0  0  0  0  0
   18.0739  -29.2830   -0.7439 O   0  0  0  0  0  0  0  0  0  0  0  0
  2  1  1  6
  3  4  1  0
  3  2  1  0
  4  5  2  0
  5  6  1  0
  7  6  2  0
  8  7  1  0
  9  4  1  0
  9  8  2  0
 10 11  2  0
 10  2  1  0
 12 10  1  0
 13 12  1  0
 13 14  1  6
 14 15  1  0
 15 16  2  0
 15 19  1  0
 16 17  1  0
 17 18  1  0
 19 18  2  0
 20 13  1  0
 21 20  2  0
 22 20  1  0
 23 22  1  0
 24 25  1  0
 23 24  1  1
 25 29  1  0
 26 27  1  0
 26 25  2  0
 27 28  1  0
 28 29  2  0
 30 23  1  0
 30 32  1  0
 31 30  2  0
M  END
$$$$
