FHH.pdb
     RDKit          3D

 32 34  0  0  1  0  0  0  0  0999 V2000
   24.1041   -7.6464  -19.9990 N   0  0  0  0  0  0  0  0  0  0  0  0
   24.7767   -8.8136  -19.4867 C   0  0  1  0  0  0  0  0  0  0  0  0
   25.4595   -8.4902  -18.1678 C   0  0  0  0  0  0  0  0  0  0  0  0
   26.7298   -7.7902  -18.3497 C   0  0  0  0  0  0  0  0  0  0  0  0
   27.8880   -8.5102  -18.5102 C   0  0  0  0  0  0  0  0  0  0  0  0
   29.1227   -7.8963  -18.6890 C   0  0  0  0  0  0  0  0  0  0  0  0
   29.1526   -6.5299  -18.7009 C   0  0  0  0  0  0  0  0  0  0  0  0
   28.0199   -5.7656  -18.5444 C   0  0  0  0  0  0  0  0  0  0  0  0
   26.8048   -6.4152  -18.3682 C   0  0  0  0  0  0  0  0  0  0  0  0
   23.8579   -9.9511  -19.2335 C   0  0  0  0  0  0  0  0  0  0  0  0
   22.6891   -9.8133  -18.7891 O   0  0  0  0  0  0  0  0  0  0  0  0
   24.2712  -11.3088  -19.4945 N   0  0  0  0  0  0  0  0  0  0  0  0
   23.3627  -12.4192  -19.3281 C   0  0  1  0  0  0  0  0  0  0  0  0
   23.9327  -13.6834  -19.9601 C   0  0  0  0  0  0  0  0  0  0  0  0
   22.9712  -14.7946  -19.9245 C   0  0  0  0  0  0  0  0  0  0  0  0
   22.0094  -15.0662  -20.8620 C   0  0  0  0  0  0  0  0  0  0  0  0
   21.3041  -16.1616  -20.5126 N   0  0  0  0  0  0  0  0  0  0  0  0
   21.8388  -16.5708  -19.3429 C   0  0  0  0  0  0  0  0  0  0  0  0
   22.8419  -15.7511  -18.9855 N   0  0  0  0  0  0  0  0  0  0  0  0
   23.1069  -12.6276  -17.8754 C   0  0  0  0  0  0  0  0  0  0  0  0
   24.0208  -12.4029  -17.0509 O   0  0  0  0  0  0  0  0  0  0  0  0
   21.8578  -13.0751  -17.3824 N   0  0  0  0  0  0  0  0  0  0  0  0
   21.5380  -13.3146  -15.9843 C   0  0  1  0  0  0  0  0  0  0  0  0
   20.9392  -12.1269  -15.3305 C   0  0  0  0  0  0  0  0  0  0  0  0
   21.8999  -11.4440  -14.4539 C   0  0  0  0  0  0  0  0  0  0  0  0
   23.1847  -11.7434  -14.1144 C   0  0  0  0  0  0  0  0  0  0  0  0
   23.6718  -10.8380  -13.2457 N   0  0  0  0  0  0  0  0  0  0  0  0
   22.6960   -9.9533  -13.0260 C   0  0  0  0  0  0  0  0  0  0  0  0
   21.6133  -10.3071  -13.7524 N   0  0  0  0  0  0  0  0  0  0  0  0
   20.8498  -14.6065  -15.7540 C   0  0  0  0  0  0  0  0  0  0  0  0
   21.4754  -15.5868  -15.2859 O   0  0  0  0  0  0  0  0  0  0  0  0
   19.5031  -14.8012  -16.0349 O   0  0  0  0  0  0  0  0  0  0  0  0
  2  1  1  1
  3  4  1  0
  3  2  1  0
  4  5  2  0
  5  6  1  0
  7  6  2  0
  8  7  1  0
  9  4  1  0
  9  8  2  0
 10 11  2  0
 10  2  1  0
 12 10  1  0
 13 12  1  0
 13 14  1  1
 14 15  1  0
 15 16  2  0
 15 19  1  0
 16 17  1  0
 17 18  1  0
 19 18  2  0
 20 13  1  0
 21 20  2  0
 22 20  1  0
 23 22  1  0
 24 25  1  0
 23 24  1  6
 25 29  1  0
 26 27  1  0
 26 25  2  0
 27 28  1  0
 28 29  2  0
 30 23  1  0
 30 32  1  0
 31 30  2  0
M  END
$$$$
