FHH.pdb
     RDKit          3D

 32 34  0  0  1  0  0  0  0  0999 V2000
   17.1862  -28.7958    1.7722 N   0  0  0  0  0  0  0  0  0  0  0  0
   18.2971  -28.1407    2.4154 C   0  0  1  0  0  0  0  0  0  0  0  0
   18.4213  -26.7091    1.9202 C   0  0  0  0  0  0  0  0  0  0  0  0
   18.7851  -26.6333    0.5064 C   0  0  0  0  0  0  0  0  0  0  0  0
   17.8087  -26.4387   -0.4393 C   0  0  0  0  0  0  0  0  0  0  0  0
   18.0986  -26.3566   -1.7967 C   0  0  0  0  0  0  0  0  0  0  0  0
   19.4075  -26.4774   -2.1712 C   0  0  0  0  0  0  0  0  0  0  0  0
   20.4203  -26.6731   -1.2615 C   0  0  0  0  0  0  0  0  0  0  0  0
   20.0913  -26.7497    0.0859 C   0  0  0  0  0  0  0  0  0  0  0  0
   18.1620  -28.0801    3.8920 C   0  0  0  0  0  0  0  0  0  0  0  0
   17.0545  -28.0178    4.4855 O   0  0  0  0  0  0  0  0  0  0  0  0
   19.3272  -28.0926    4.7431 N   0  0  0  0  0  0  0  0  0  0  0  0
   19.2100  -28.1375    6.1820 C   0  0  1  0  0  0  0  0  0  0  0  0
   20.2204  -29.1111    6.7765 C   0  0  0  0  0  0  0  0  0  0  0  0
   19.8377  -30.5103    6.5387 C   0  0  0  0  0  0  0  0  0  0  0  0
   18.6186  -31.0753    6.8074 C   0  0  0  0  0  0  0  0  0  0  0  0
   18.6156  -32.3796    6.4636 N   0  0  0  0  0  0  0  0  0  0  0  0
   19.8506  -32.6218    5.9763 C   0  0  0  0  0  0  0  0  0  0  0  0
   20.5891  -31.4999    6.0197 N   0  0  0  0  0  0  0  0  0  0  0  0
   19.4140  -26.7680    6.7317 C   0  0  0  0  0  0  0  0  0  0  0  0
   20.3842  -26.0839    6.3359 O   0  0  0  0  0  0  0  0  0  0  0  0
   18.5458  -26.2010    7.6951 N   0  0  0  0  0  0  0  0  0  0  0  0
   18.6776  -24.8736    8.2739 C   0  0  1  0  0  0  0  0  0  0  0  0
   17.4248  -24.0878    8.1758 C   0  0  0  0  0  0  0  0  0  0  0  0
   17.0472  -23.8347    6.7790 C   0  0  0  0  0  0  0  0  0  0  0  0
   17.7933  -23.5171    5.6845 C   0  0  0  0  0  0  0  0  0  0  0  0
   17.0079  -23.3458    4.6050 N   0  0  0  0  0  0  0  0  0  0  0  0
   15.7517  -23.5541    5.0075 C   0  0  0  0  0  0  0  0  0  0  0  0
   15.7585  -23.8521    6.3251 N   0  0  0  0  0  0  0  0  0  0  0  0
   19.3491  -24.8746    9.5947 C   0  0  0  0  0  0  0  0  0  0  0  0
   19.4437  -25.9327   10.2603 O   0  0  0  0  0  0  0  0  0  0  0  0
   19.9011  -23.7308   10.1581 O   0  0  0  0  0  0  0  0  0  0  0  0
  2  1  1  6
  3  4  1  0
  3  2  1  0
  4  5  2  0
  5  6  1  0
  7  6  2  0
  8  7  1  0
  9  4  1  0
  9  8  2  0
 10 11  2  0
 10  2  1  0
 12 10  1  0
 13 12  1  0
 13 14  1  1
 14 15  1  0
 15 16  2  0
 15 19  1  0
 16 17  1  0
 17 18  1  0
 19 18  2  0
 20 13  1  0
 21 20  2  0
 22 20  1  0
 23 22  1  0
 24 25  1  0
 23 24  1  1
 25 29  1  0
 26 27  1  0
 26 25  2  0
 27 28  1  0
 28 29  2  0
 30 23  1  0
 30 32  1  0
 31 30  2  0
M  END
$$$$
