CQE.pdb
     RDKit          3D

 25 24  0  0  1  0  0  0  0  0999 V2000
   26.0391  -15.0396  -17.3293 N   0  0  0  0  0  0  0  0  0  0  0  0
   25.3469  -14.2919  -16.3266 C   0  0  1  0  0  0  0  0  0  0  0  0
   26.2864  -13.6171  -15.3515 C   0  0  0  0  0  0  0  0  0  0  0  0
   27.1364  -14.8917  -14.3921 S   0  0  0  0  0  0  0  0  0  0  0  0
   24.4585  -13.3055  -16.9881 C   0  0  0  0  0  0  0  0  0  0  0  0
   24.8430  -12.6182  -17.9724 O   0  0  0  0  0  0  0  0  0  0  0  0
   18.6652  -14.5521  -17.4154 N   0  0  0  0  0  0  0  0  0  0  0  0
   18.5189  -13.1774  -17.7280 C   0  0  0  0  0  0  0  0  0  0  0  0
   17.3938  -12.7092  -18.0349 O   0  0  0  0  0  0  0  0  0  0  0  0
   19.7024  -12.2951  -17.6914 C   0  0  0  0  0  0  0  0  0  0  0  0
   20.9377  -13.0062  -17.2992 C   0  0  0  0  0  0  0  0  0  0  0  0
   22.1824  -12.1878  -17.1503 C   0  0  2  0  0  0  0  0  0  0  0  0
   23.1555  -13.1124  -16.5289 N   0  0  0  0  0  0  0  0  0  0  0  0
   22.0459  -11.0331  -16.2344 C   0  0  0  0  0  0  0  0  0  0  0  0
   22.0316  -11.2495  -14.9922 O   0  0  0  0  0  0  0  0  0  0  0  0
   21.9293   -9.6829  -16.6264 N   0  0  0  0  0  0  0  0  0  0  0  0
   21.7007   -8.5980  -15.6578 C   0  0  1  0  0  0  0  0  0  0  0  0
   22.7380   -7.5456  -15.7632 C   0  0  0  0  0  0  0  0  0  0  0  0
   22.6051   -6.3263  -14.9486 C   0  0  0  0  0  0  0  0  0  0  0  0
   23.6131   -5.2867  -15.0288 C   0  0  0  0  0  0  0  0  0  0  0  0
   24.6362   -5.3594  -15.7075 O   0  0  0  0  0  0  0  0  0  0  0  0
   20.2984   -8.1869  -15.5990 C   0  0  0  0  0  0  0  0  0  0  0  0
   19.8304   -7.5941  -14.5930 O   0  0  0  0  0  0  0  0  0  0  0  0
   23.4114   -4.1213  -14.2857 O   0  0  0  0  0  0  0  0  0  0  0  0
   19.3928   -8.4168  -16.6463 O   0  0  0  0  0  0  0  0  0  0  0  0
  2  1  1  6
  3  4  1  0
  3  2  1  0
  5  2  1  0
  5  6  2  0
  7  8  1  0
  8 10  1  0
  8  9  2  0
 10 11  1  0
 12 11  1  1
 12 13  1  0
 12 14  1  0
 13  5  1  0
 14 15  2  0
 14 16  1  0
 16 17  1  0
 17 22  1  0
 17 18  1  6
 19 18  1  0
 20 19  1  0
 20 21  2  0
 22 23  2  0
 22 25  1  0
 24 20  1  0
M  END
$$$$
