CQE.pdb
     RDKit          3D

 25 24  0  0  1  0  0  0  0  0999 V2000
   19.4175  -12.6304  -17.1441 N   0  0  0  0  0  0  0  0  0  0  0  0
   18.9034  -11.3823  -16.6739 C   0  0  1  0  0  0  0  0  0  0  0  0
   19.1471  -11.1722  -15.1956 C   0  0  0  0  0  0  0  0  0  0  0  0
   18.0743  -12.2932  -14.2681 S   0  0  0  0  0  0  0  0  0  0  0  0
   19.4932  -10.2842  -17.4777 C   0  0  0  0  0  0  0  0  0  0  0  0
   20.7136  -10.2716  -17.7935 O   0  0  0  0  0  0  0  0  0  0  0  0
   15.9361   -7.6390  -21.3902 N   0  0  0  0  0  0  0  0  0  0  0  0
   17.1498   -8.0996  -21.9592 C   0  0  0  0  0  0  0  0  0  0  0  0
   17.2129   -8.3875  -23.1808 O   0  0  0  0  0  0  0  0  0  0  0  0
   18.3448   -8.2403  -21.1032 C   0  0  0  0  0  0  0  0  0  0  0  0
   18.1023   -7.8269  -19.7048 C   0  0  0  0  0  0  0  0  0  0  0  0
   19.1947   -8.0845  -18.7140 C   0  0  2  0  0  0  0  0  0  0  0  0
   18.6981   -9.2227  -17.9103 N   0  0  0  0  0  0  0  0  0  0  0  0
   19.4368   -6.9696  -17.7711 C   0  0  0  0  0  0  0  0  0  0  0  0
   18.8141   -6.9638  -16.6745 O   0  0  0  0  0  0  0  0  0  0  0  0
   20.3183   -5.8891  -17.9854 N   0  0  0  0  0  0  0  0  0  0  0  0
   20.6831   -4.9456  -16.9157 C   0  0  1  0  0  0  0  0  0  0  0  0
   20.9821   -5.6493  -15.6468 C   0  0  0  0  0  0  0  0  0  0  0  0
   21.4556   -4.8697  -14.4910 C   0  0  0  0  0  0  0  0  0  0  0  0
   21.8018   -5.5432  -13.2542 C   0  0  0  0  0  0  0  0  0  0  0  0
   21.4317   -6.6761  -12.9508 O   0  0  0  0  0  0  0  0  0  0  0  0
   21.6133   -3.9139  -17.3730 C   0  0  0  0  0  0  0  0  0  0  0  0
   22.3912   -4.1148  -18.3409 O   0  0  0  0  0  0  0  0  0  0  0  0
   22.6113   -4.8614  -12.3425 O   0  0  0  0  0  0  0  0  0  0  0  0
   21.6979   -2.6462  -16.7766 O   0  0  0  0  0  0  0  0  0  0  0  0
  2  1  1  6
  3  4  1  0
  3  2  1  0
  5  2  1  0
  5  6  2  0
  7  8  1  0
  8 10  1  0
  8  9  2  0
 10 11  1  0
 12 11  1  6
 12 13  1  0
 12 14  1  0
 13  5  1  0
 14 15  2  0
 14 16  1  0
 16 17  1  0
 17 22  1  0
 17 18  1  1
 19 18  1  0
 20 19  1  0
 20 21  2  0
 22 23  2  0
 22 25  1  0
 24 20  1  0
M  END
$$$$
