CQE.pdb
     RDKit          3D

 25 24  0  0  1  0  0  0  0  0999 V2000
   23.1787  -12.1098  -16.7965 N   0  0  0  0  0  0  0  0  0  0  0  0
   24.4424  -11.7160  -16.2567 C   0  0  1  0  0  0  0  0  0  0  0  0
   25.5897  -12.5383  -16.8012 C   0  0  0  0  0  0  0  0  0  0  0  0
   25.4437  -14.2248  -16.1669 S   0  0  0  0  0  0  0  0  0  0  0  0
   24.6472  -10.2699  -16.5143 C   0  0  0  0  0  0  0  0  0  0  0  0
   25.7939   -9.7846  -16.7115 O   0  0  0  0  0  0  0  0  0  0  0  0
   26.9227   -8.2254  -18.6192 N   0  0  0  0  0  0  0  0  0  0  0  0
   26.4485   -6.8910  -18.6782 C   0  0  0  0  0  0  0  0  0  0  0  0
   27.2435   -5.9398  -18.8842 O   0  0  0  0  0  0  0  0  0  0  0  0
   25.0078   -6.6244  -18.4945 C   0  0  0  0  0  0  0  0  0  0  0  0
   24.2345   -7.8419  -18.1703 C   0  0  0  0  0  0  0  0  0  0  0  0
   23.6623   -7.9440  -16.7906 C   0  0  2  0  0  0  0  0  0  0  0  0
   23.5579   -9.3989  -16.5450 N   0  0  0  0  0  0  0  0  0  0  0  0
   22.2967   -7.3893  -16.6553 C   0  0  0  0  0  0  0  0  0  0  0  0
   21.3719   -7.8928  -17.3490 O   0  0  0  0  0  0  0  0  0  0  0  0
   21.9216   -6.3282  -15.8045 N   0  0  0  0  0  0  0  0  0  0  0  0
   20.5172   -6.0567  -15.4556 C   0  0  1  0  0  0  0  0  0  0  0  0
   19.7786   -7.3057  -15.1569 C   0  0  0  0  0  0  0  0  0  0  0  0
   18.3870   -7.2179  -14.6838 C   0  0  0  0  0  0  0  0  0  0  0  0
   17.6750   -8.4205  -14.2966 C   0  0  0  0  0  0  0  0  0  0  0  0
   18.1644   -9.5488  -14.2923 O   0  0  0  0  0  0  0  0  0  0  0  0
   20.3777   -4.9305  -14.5332 C   0  0  0  0  0  0  0  0  0  0  0  0
   19.2500   -4.4500  -14.2507 O   0  0  0  0  0  0  0  0  0  0  0  0
   16.3416   -8.2924  -13.9008 O   0  0  0  0  0  0  0  0  0  0  0  0
   21.4744   -4.3203  -13.9048 O   0  0  0  0  0  0  0  0  0  0  0  0
  2  1  1  6
  3  4  1  0
  3  2  1  0
  5  2  1  0
  5  6  2  0
  7  8  1  0
  8 10  1  0
  8  9  2  0
 10 11  1  0
 12 11  1  6
 12 13  1  0
 12 14  1  0
 13  5  1  0
 14 15  2  0
 14 16  1  0
 16 17  1  0
 17 22  1  0
 17 18  1  1
 19 18  1  0
 20 19  1  0
 20 21  2  0
 22 23  2  0
 22 25  1  0
 24 20  1  0
M  END
$$$$
