CQE.pdb
     RDKit          3D

 25 24  0  0  1  0  0  0  0  0999 V2000
   26.3859  -11.7524  -16.7123 N   0  0  0  0  0  0  0  0  0  0  0  0
   26.0259  -10.3700  -16.6592 C   0  0  1  0  0  0  0  0  0  0  0  0
   27.2206   -9.4650  -16.4533 C   0  0  0  0  0  0  0  0  0  0  0  0
   28.0401   -9.9320  -14.9111 S   0  0  0  0  0  0  0  0  0  0  0  0
   25.2896  -10.0156  -17.8970 C   0  0  0  0  0  0  0  0  0  0  0  0
   25.6124  -10.4855  -19.0213 O   0  0  0  0  0  0  0  0  0  0  0  0
   23.9957  -11.3227  -22.8064 N   0  0  0  0  0  0  0  0  0  0  0  0
   23.1528  -11.2257  -21.6711 C   0  0  0  0  0  0  0  0  0  0  0  0
   21.9142  -11.4092  -21.7784 O   0  0  0  0  0  0  0  0  0  0  0  0
   23.7419  -10.9054  -20.3555 C   0  0  0  0  0  0  0  0  0  0  0  0
   22.8436  -10.0959  -19.5051 C   0  0  0  0  0  0  0  0  0  0  0  0
   23.3663   -8.7833  -19.0099 C   0  0  2  0  0  0  0  0  0  0  0  0
   24.2049   -9.1400  -17.8448 N   0  0  0  0  0  0  0  0  0  0  0  0
   22.3210   -7.8588  -18.5164 C   0  0  0  0  0  0  0  0  0  0  0  0
   21.5241   -7.3516  -19.3517 O   0  0  0  0  0  0  0  0  0  0  0  0
   22.1252   -7.4832  -17.1706 N   0  0  0  0  0  0  0  0  0  0  0  0
   21.0508   -6.5656  -16.7570 C   0  0  1  0  0  0  0  0  0  0  0  0
   19.7828   -7.2893  -16.5051 C   0  0  0  0  0  0  0  0  0  0  0  0
   18.6166   -6.5382  -16.0117 C   0  0  0  0  0  0  0  0  0  0  0  0
   17.3416   -7.2079  -15.8406 C   0  0  0  0  0  0  0  0  0  0  0  0
   16.7842   -7.3784  -14.7576 O   0  0  0  0  0  0  0  0  0  0  0  0
   21.5005   -5.5882  -15.7664 C   0  0  0  0  0  0  0  0  0  0  0  0
   22.7023   -5.5320  -15.3992 O   0  0  0  0  0  0  0  0  0  0  0  0
   16.6997   -7.6940  -16.9820 O   0  0  0  0  0  0  0  0  0  0  0  0
   20.6372   -4.6560  -15.1699 O   0  0  0  0  0  0  0  0  0  0  0  0
  2  1  1  6
  3  4  1  0
  3  2  1  0
  5  2  1  0
  5  6  2  0
  7  8  1  0
  8 10  1  0
  8  9  2  0
 10 11  1  0
 12 11  1  1
 12 13  1  0
 12 14  1  0
 13  5  1  0
 14 15  2  0
 14 16  1  0
 16 17  1  0
 17 22  1  0
 17 18  1  1
 19 18  1  0
 20 19  1  0
 20 21  2  0
 22 23  2  0
 22 25  1  0
 24 20  1  0
M  END
$$$$
