CQE.pdb
     RDKit          3D

 25 24  0  0  1  0  0  0  0  0999 V2000
   17.8390  -11.3071  -16.6864 N   0  0  0  0  0  0  0  0  0  0  0  0
   18.1634  -10.0983  -17.3771 C   0  0  1  0  0  0  0  0  0  0  0  0
   16.9386   -9.3789  -17.8979 C   0  0  0  0  0  0  0  0  0  0  0  0
   16.1583  -10.4080  -19.1627 S   0  0  0  0  0  0  0  0  0  0  0  0
   18.9572   -9.2269  -16.4770 C   0  0  0  0  0  0  0  0  0  0  0  0
   18.5898   -8.9779  -15.2970 O   0  0  0  0  0  0  0  0  0  0  0  0
   24.8687   -9.5434  -17.0594 N   0  0  0  0  0  0  0  0  0  0  0  0
   24.8827   -8.4335  -16.1781 C   0  0  0  0  0  0  0  0  0  0  0  0
   25.9687   -7.9911  -15.7263 O   0  0  0  0  0  0  0  0  0  0  0  0
   23.6070   -7.7980  -15.7916 C   0  0  0  0  0  0  0  0  0  0  0  0
   22.4298   -8.4594  -16.3931 C   0  0  0  0  0  0  0  0  0  0  0  0
   21.0825   -7.8985  -16.0590 C   0  0  2  0  0  0  0  0  0  0  0  0
   20.1482   -8.6531  -16.9224 N   0  0  0  0  0  0  0  0  0  0  0  0
   20.9172   -6.4676  -16.3995 C   0  0  0  0  0  0  0  0  0  0  0  0
   20.3217   -6.1694  -17.4703 O   0  0  0  0  0  0  0  0  0  0  0  0
   21.3709   -5.3806  -15.6230 N   0  0  0  0  0  0  0  0  0  0  0  0
   21.0183   -3.9862  -15.9372 C   0  0  1  0  0  0  0  0  0  0  0  0
   19.5896   -3.8553  -16.3066 C   0  0  0  0  0  0  0  0  0  0  0  0
   19.0123   -2.5102  -16.4654 C   0  0  0  0  0  0  0  0  0  0  0  0
   17.7608   -2.3371  -17.1774 C   0  0  0  0  0  0  0  0  0  0  0  0
   16.6476   -2.4397  -16.6646 O   0  0  0  0  0  0  0  0  0  0  0  0
   21.5756   -3.0375  -14.9738 C   0  0  0  0  0  0  0  0  0  0  0  0
   21.7773   -3.3621  -13.7753 O   0  0  0  0  0  0  0  0  0  0  0  0
   17.8198   -2.0328  -18.5395 O   0  0  0  0  0  0  0  0  0  0  0  0
   21.9238   -1.7214  -15.3150 O   0  0  0  0  0  0  0  0  0  0  0  0
  2  1  1  1
  3  4  1  0
  3  2  1  0
  5  2  1  0
  5  6  2  0
  7  8  1  0
  8 10  1  0
  8  9  2  0
 10 11  1  0
 12 11  1  6
 12 13  1  0
 12 14  1  0
 13  5  1  0
 14 15  2  0
 14 16  1  0
 16 17  1  0
 17 22  1  0
 17 18  1  1
 19 18  1  0
 20 19  1  0
 20 21  2  0
 22 23  2  0
 22 25  1  0
 24 20  1  0
M  END
$$$$
