AWK.pdb
     RDKit          3D

 29 30  0  0  1  0  0  0  0  0999 V2000
   13.0936  -23.5189   -3.9190 C   0  0  0  0  0  0  0  0  0  0  0  0
   14.4718  -23.8698   -4.4562 C   0  0  2  0  0  0  0  0  0  0  0  0
   14.3215  -24.1593   -5.8554 N   0  0  0  0  0  0  0  0  0  0  0  0
   14.9253  -25.0668   -3.7344 C   0  0  0  0  0  0  0  0  0  0  0  0
   14.3054  -26.1594   -3.7391 O   0  0  0  0  0  0  0  0  0  0  0  0
   16.1352  -25.0145   -2.9770 N   0  0  0  0  0  0  0  0  0  0  0  0
   16.6525  -26.1673   -2.2789 C   0  0  1  0  0  0  0  0  0  0  0  0
   18.1014  -26.3549   -2.6680 C   0  0  0  0  0  0  0  0  0  0  0  0
   18.1925  -26.8984   -4.0668 C   0  0  0  0  0  0  0  0  0  0  0  0
   18.3780  -26.2092   -5.2464 C   0  0  0  0  0  0  0  0  0  0  0  0
   18.4029  -27.0713   -6.2851 N   0  0  0  0  0  0  0  0  0  0  0  0
   18.2352  -28.3196   -5.7965 C   0  0  0  0  0  0  0  0  0  0  0  0
   18.1887  -29.5317   -6.4539 C   0  0  0  0  0  0  0  0  0  0  0  0
   18.0032  -30.6624   -5.6748 C   0  0  0  0  0  0  0  0  0  0  0  0
   17.8698  -30.5857   -4.3007 C   0  0  0  0  0  0  0  0  0  0  0  0
   17.9190  -29.3643   -3.6619 C   0  0  0  0  0  0  0  0  0  0  0  0
   18.1032  -28.2273   -4.4207 C   0  0  0  0  0  0  0  0  0  0  0  0
   16.4973  -25.9516   -0.8208 C   0  0  0  0  0  0  0  0  0  0  0  0
   16.8290  -24.8432   -0.2761 O   0  0  0  0  0  0  0  0  0  0  0  0
   15.9774  -26.9499    0.0486 N   0  0  0  0  0  0  0  0  0  0  0  0
   15.8387  -26.7303    1.4959 C   0  0  1  0  0  0  0  0  0  0  0  0
   14.6121  -27.3988    2.0204 C   0  0  0  0  0  0  0  0  0  0  0  0
   13.3418  -26.6656    1.7178 C   0  0  0  0  0  0  0  0  0  0  0  0
   12.1242  -27.4587    2.1836 C   0  0  0  0  0  0  0  0  0  0  0  0
   10.8452  -26.7302    1.8470 C   0  0  0  0  0  0  0  0  0  0  0  0
    9.6720  -27.4737    2.2522 N   0  0  0  0  0  0  0  0  0  0  0  0
   17.0868  -27.0503    2.1972 C   0  0  0  0  0  0  0  0  0  0  0  0
   18.0050  -27.7955    1.8025 O   0  0  0  0  0  0  0  0  0  0  0  0
   17.2952  -26.4637    3.4572 O   0  0  0  0  0  0  0  0  0  0  0  0
  2  3  1  0
  2  1  1  1
  4  2  1  0
  5  4  2  0
  6  4  1  0
  7  6  1  0
  7  8  1  1
  9  8  1  0
 10  9  2  0
 11 10  1  0
 12 11  1  0
 12 17  2  0
 13 12  1  0
 14 13  2  0
 14 15  1  0
 15 16  2  0
 16 17  1  0
 17  9  1  0
 18  7  1  0
 18 19  2  0
 20 18  1  0
 21 20  1  0
 22 23  1  0
 21 22  1  1
 24 25  1  0
 24 23  1  0
 25 26  1  0
 27 29  1  0
 27 21  1  0
 28 27  2  0
M  END
$$$$
