AWK.pdb
     RDKit          3D

 29 30  0  0  1  0  0  0  0  0999 V2000
   27.3999  -19.7606  -14.8734 C   0  0  0  0  0  0  0  0  0  0  0  0
   28.0464  -20.9530  -14.1871 C   0  0  2  0  0  0  0  0  0  0  0  0
   27.9495  -22.0668  -15.0895 N   0  0  0  0  0  0  0  0  0  0  0  0
   27.2750  -21.2191  -12.9650 C   0  0  0  0  0  0  0  0  0  0  0  0
   26.2142  -21.8919  -12.9437 O   0  0  0  0  0  0  0  0  0  0  0  0
   27.7328  -20.6964  -11.7171 N   0  0  0  0  0  0  0  0  0  0  0  0
   27.0181  -20.9222  -10.4834 C   0  0  1  0  0  0  0  0  0  0  0  0
   27.9509  -20.6373   -9.3281 C   0  0  0  0  0  0  0  0  0  0  0  0
   27.1779  -20.6016   -8.0391 C   0  0  0  0  0  0  0  0  0  0  0  0
   25.9201  -21.1013   -7.7770 C   0  0  0  0  0  0  0  0  0  0  0  0
   25.5884  -20.8637   -6.4901 N   0  0  0  0  0  0  0  0  0  0  0  0
   26.6181  -20.2124   -5.9064 C   0  0  0  0  0  0  0  0  0  0  0  0
   26.7603  -19.7551   -4.6125 C   0  0  0  0  0  0  0  0  0  0  0  0
   27.9482  -19.1140   -4.2998 C   0  0  0  0  0  0  0  0  0  0  0  0
   28.9489  -18.9375   -5.2375 C   0  0  0  0  0  0  0  0  0  0  0  0
   28.7876  -19.4019   -6.5261 C   0  0  0  0  0  0  0  0  0  0  0  0
   27.6117  -20.0429   -6.8564 C   0  0  0  0  0  0  0  0  0  0  0  0
   25.8238  -20.0448  -10.4562 C   0  0  0  0  0  0  0  0  0  0  0  0
   25.9161  -18.7928  -10.7000 O   0  0  0  0  0  0  0  0  0  0  0  0
   24.5216  -20.5349  -10.1616 N   0  0  0  0  0  0  0  0  0  0  0  0
   23.3424  -20.1406  -10.9465 C   0  0  1  0  0  0  0  0  0  0  0  0
   23.5766  -20.3575  -12.4041 C   0  0  0  0  0  0  0  0  0  0  0  0
   22.4105  -19.9918  -13.2697 C   0  0  0  0  0  0  0  0  0  0  0  0
   22.8477  -19.1182  -14.4420 C   0  0  0  0  0  0  0  0  0  0  0  0
   21.6614  -18.7095  -15.2818 C   0  0  0  0  0  0  0  0  0  0  0  0
   21.0274  -19.8439  -15.9177 N   0  0  0  0  0  0  0  0  0  0  0  0
   22.1226  -20.7463  -10.4011 C   0  0  0  0  0  0  0  0  0  0  0  0
   21.8781  -21.9612  -10.2661 O   0  0  0  0  0  0  0  0  0  0  0  0
   21.0997  -19.8815   -9.9759 O   0  0  0  0  0  0  0  0  0  0  0  0
  2  3  1  0
  2  1  1  6
  4  2  1  0
  5  4  2  0
  6  4  1  0
  7  6  1  0
  7  8  1  1
  9  8  1  0
 10  9  2  0
 11 10  1  0
 12 11  1  0
 12 17  2  0
 13 12  1  0
 14 13  2  0
 14 15  1  0
 15 16  2  0
 16 17  1  0
 17  9  1  0
 18  7  1  0
 18 19  2  0
 20 18  1  0
 21 20  1  0
 22 23  1  0
 21 22  1  6
 24 25  1  0
 24 23  1  0
 25 26  1  0
 27 29  1  0
 27 21  1  0
 28 27  2  0
M  END
$$$$
