AWK.pdb
     RDKit          3D

 29 30  0  0  1  0  0  0  0  0999 V2000
   27.2479  -22.3684  -17.9331 C   0  0  0  0  0  0  0  0  0  0  0  0
   28.1339  -22.1752  -16.7129 C   0  0  2  0  0  0  0  0  0  0  0  0
   29.0612  -23.2722  -16.6831 N   0  0  0  0  0  0  0  0  0  0  0  0
   27.2593  -22.2155  -15.5327 C   0  0  0  0  0  0  0  0  0  0  0  0
   26.7221  -23.2653  -15.0995 O   0  0  0  0  0  0  0  0  0  0  0  0
   26.9870  -21.0091  -14.8182 N   0  0  0  0  0  0  0  0  0  0  0  0
   26.2322  -21.0011  -13.5877 C   0  0  1  0  0  0  0  0  0  0  0  0
   26.7169  -19.8514  -12.7337 C   0  0  0  0  0  0  0  0  0  0  0  0
   27.6639  -20.3559  -11.6807 C   0  0  0  0  0  0  0  0  0  0  0  0
   28.9525  -20.8211  -11.8352 C   0  0  0  0  0  0  0  0  0  0  0  0
   29.4603  -21.1792  -10.6367 N   0  0  0  0  0  0  0  0  0  0  0  0
   28.5155  -20.9529   -9.6978 C   0  0  0  0  0  0  0  0  0  0  0  0
   28.5528  -21.1557   -8.3336 C   0  0  0  0  0  0  0  0  0  0  0  0
   27.4137  -20.8241   -7.6178 C   0  0  0  0  0  0  0  0  0  0  0  0
   26.2879  -20.3131   -8.2369 C   0  0  0  0  0  0  0  0  0  0  0  0
   26.2703  -20.1177   -9.6020 C   0  0  0  0  0  0  0  0  0  0  0  0
   27.3950  -20.4418  -10.3318 C   0  0  0  0  0  0  0  0  0  0  0  0
   24.7914  -20.8768  -13.9124 C   0  0  0  0  0  0  0  0  0  0  0  0
   24.3575  -19.9234  -14.6460 O   0  0  0  0  0  0  0  0  0  0  0  0
   23.8180  -21.7971  -13.4346 N   0  0  0  0  0  0  0  0  0  0  0  0
   22.3781  -21.5952  -13.6539 C   0  0  1  0  0  0  0  0  0  0  0  0
   21.6107  -22.8305  -13.3199 C   0  0  0  0  0  0  0  0  0  0  0  0
   20.1389  -22.7212  -13.5747 C   0  0  0  0  0  0  0  0  0  0  0  0
   19.4395  -24.0575  -13.3433 C   0  0  0  0  0  0  0  0  0  0  0  0
   17.9707  -23.9628  -13.6804 C   0  0  0  0  0  0  0  0  0  0  0  0
   17.3103  -25.2478  -13.6035 N   0  0  0  0  0  0  0  0  0  0  0  0
   21.9160  -20.3640  -13.0038 C   0  0  0  0  0  0  0  0  0  0  0  0
   22.2848  -19.9063  -11.9045 O   0  0  0  0  0  0  0  0  0  0  0  0
   20.9492  -19.5960  -13.6751 O   0  0  0  0  0  0  0  0  0  0  0  0
  2  3  1  0
  2  1  1  6
  4  2  1  0
  5  4  2  0
  6  4  1  0
  7  6  1  0
  7  8  1  1
  9  8  1  0
 10  9  2  0
 11 10  1  0
 12 11  1  0
 12 17  2  0
 13 12  1  0
 14 13  2  0
 14 15  1  0
 15 16  2  0
 16 17  1  0
 17  9  1  0
 18  7  1  0
 18 19  2  0
 20 18  1  0
 21 20  1  0
 22 23  1  0
 21 22  1  1
 24 25  1  0
 24 23  1  0
 25 26  1  0
 27 29  1  0
 27 21  1  0
 28 27  2  0
M  END
$$$$
