AWK.pdb
     RDKit          3D

 29 30  0  0  1  0  0  0  0  0999 V2000
   27.9279  -19.2863  -14.2687 C   0  0  0  0  0  0  0  0  0  0  0  0
   28.7242  -20.0248  -13.2049 C   0  0  2  0  0  0  0  0  0  0  0  0
   29.5054  -21.0258  -13.8773 N   0  0  0  0  0  0  0  0  0  0  0  0
   27.7543  -20.6582  -12.3007 C   0  0  0  0  0  0  0  0  0  0  0  0
   27.2048  -21.7638  -12.5329 O   0  0  0  0  0  0  0  0  0  0  0  0
   27.3975  -20.0034  -11.0825 N   0  0  0  0  0  0  0  0  0  0  0  0
   26.4092  -20.5469  -10.1815 C   0  0  1  0  0  0  0  0  0  0  0  0
   26.5611  -19.8717   -8.8373 C   0  0  0  0  0  0  0  0  0  0  0  0
   27.8604  -20.2797   -8.2003 C   0  0  0  0  0  0  0  0  0  0  0  0
   28.8777  -21.0415   -8.7345 C   0  0  0  0  0  0  0  0  0  0  0  0
   29.8742  -21.1770   -7.8338 N   0  0  0  0  0  0  0  0  0  0  0  0
   29.5187  -20.5106   -6.7136 C   0  0  0  0  0  0  0  0  0  0  0  0
   30.1955  -20.3530   -5.5216 C   0  0  0  0  0  0  0  0  0  0  0  0
   29.5701  -19.6032   -4.5385 C   0  0  0  0  0  0  0  0  0  0  0  0
   28.3246  -19.0363   -4.7371 C   0  0  0  0  0  0  0  0  0  0  0  0
   27.6641  -19.2054   -5.9360 C   0  0  0  0  0  0  0  0  0  0  0  0
   28.2707  -19.9487   -6.9270 C   0  0  0  0  0  0  0  0  0  0  0  0
   25.0627  -20.3255  -10.7600 C   0  0  0  0  0  0  0  0  0  0  0  0
   24.6510  -19.1496  -11.0486 O   0  0  0  0  0  0  0  0  0  0  0  0
   24.1599  -21.3918  -11.0256 N   0  0  0  0  0  0  0  0  0  0  0  0
   22.8806  -21.1782  -11.7182 C   0  0  1  0  0  0  0  0  0  0  0  0
   22.5473  -22.3417  -12.5910 C   0  0  0  0  0  0  0  0  0  0  0  0
   21.2880  -22.1683  -13.3829 C   0  0  0  0  0  0  0  0  0  0  0  0
   21.0090  -23.3938  -14.2483 C   0  0  0  0  0  0  0  0  0  0  0  0
   19.8172  -23.1603  -15.1455 C   0  0  0  0  0  0  0  0  0  0  0  0
   19.5789  -24.2755  -16.0358 N   0  0  0  0  0  0  0  0  0  0  0  0
   21.8343  -20.7710  -10.7739 C   0  0  0  0  0  0  0  0  0  0  0  0
   21.7651  -21.0444   -9.5596 O   0  0  0  0  0  0  0  0  0  0  0  0
   20.7806  -19.9836  -11.2686 O   0  0  0  0  0  0  0  0  0  0  0  0
  2  3  1  0
  2  1  1  6
  4  2  1  0
  5  4  2  0
  6  4  1  0
  7  6  1  0
  7  8  1  1
  9  8  1  0
 10  9  2  0
 11 10  1  0
 12 11  1  0
 12 17  2  0
 13 12  1  0
 14 13  2  0
 14 15  1  0
 15 16  2  0
 16 17  1  0
 17  9  1  0
 18  7  1  0
 18 19  2  0
 20 18  1  0
 21 20  1  0
 22 23  1  0
 21 22  1  1
 24 25  1  0
 24 23  1  0
 25 26  1  0
 27 29  1  0
 27 21  1  0
 28 27  2  0
M  END
$$$$
