AWK.pdb
     RDKit          3D

 29 30  0  0  1  0  0  0  0  0999 V2000
   21.7308  -21.2745  -21.9045 C   0  0  0  0  0  0  0  0  0  0  0  0
   22.1478  -19.8141  -21.8371 C   0  0  2  0  0  0  0  0  0  0  0  0
   23.3495  -19.6791  -22.6130 N   0  0  0  0  0  0  0  0  0  0  0  0
   22.4158  -19.5057  -20.4255 C   0  0  0  0  0  0  0  0  0  0  0  0
   22.7014  -20.3751  -19.5648 O   0  0  0  0  0  0  0  0  0  0  0  0
   22.3554  -18.1505  -19.9785 N   0  0  0  0  0  0  0  0  0  0  0  0
   22.6794  -17.7758  -18.6226 C   0  0  1  0  0  0  0  0  0  0  0  0
   23.1568  -16.3412  -18.6211 C   0  0  0  0  0  0  0  0  0  0  0  0
   23.5451  -15.9294  -17.2283 C   0  0  0  0  0  0  0  0  0  0  0  0
   24.5276  -16.4577  -16.4183 C   0  0  0  0  0  0  0  0  0  0  0  0
   24.5549  -15.8017  -15.2386 N   0  0  0  0  0  0  0  0  0  0  0  0
   23.5985  -14.8479  -15.2685 C   0  0  0  0  0  0  0  0  0  0  0  0
   23.2361  -13.9236  -14.3104 C   0  0  0  0  0  0  0  0  0  0  0  0
   22.2023  -13.0586  -14.6313 C   0  0  0  0  0  0  0  0  0  0  0  0
   21.5593  -13.1145  -15.8542 C   0  0  0  0  0  0  0  0  0  0  0  0
   21.9364  -14.0460  -16.7989 C   0  0  0  0  0  0  0  0  0  0  0  0
   22.9637  -14.9158  -16.4978 C   0  0  0  0  0  0  0  0  0  0  0  0
   21.4757  -17.9566  -17.7769 C   0  0  0  0  0  0  0  0  0  0  0  0
   20.3238  -17.5662  -18.1720 O   0  0  0  0  0  0  0  0  0  0  0  0
   21.5280  -18.5665  -16.4931 N   0  0  0  0  0  0  0  0  0  0  0  0
   20.3294  -18.7326  -15.6577 C   0  0  1  0  0  0  0  0  0  0  0  0
   20.1699  -20.1540  -15.2327 C   0  0  0  0  0  0  0  0  0  0  0  0
   18.9203  -20.4198  -14.4512 C   0  0  0  0  0  0  0  0  0  0  0  0
   18.8226  -21.8895  -14.0524 C   0  0  0  0  0  0  0  0  0  0  0  0
   17.4648  -22.2012  -13.4702 C   0  0  0  0  0  0  0  0  0  0  0  0
   17.3476  -23.5874  -13.0730 N   0  0  0  0  0  0  0  0  0  0  0  0
   20.2999  -17.7389  -14.5789 C   0  0  0  0  0  0  0  0  0  0  0  0
   19.2936  -17.2652  -14.0160 O   0  0  0  0  0  0  0  0  0  0  0  0
   21.5311  -17.2504  -14.1092 O   0  0  0  0  0  0  0  0  0  0  0  0
  2  3  1  0
  2  1  1  1
  4  2  1  0
  5  4  2  0
  6  4  1  0
  7  6  1  0
  7  8  1  6
  9  8  1  0
 10  9  2  0
 11 10  1  0
 12 11  1  0
 12 17  2  0
 13 12  1  0
 14 13  2  0
 14 15  1  0
 15 16  2  0
 16 17  1  0
 17  9  1  0
 18  7  1  0
 18 19  2  0
 20 18  1  0
 21 20  1  0
 22 23  1  0
 21 22  1  1
 24 25  1  0
 24 23  1  0
 25 26  1  0
 27 29  1  0
 27 21  1  0
 28 27  2  0
M  END
$$$$
