AWK.pdb
     RDKit          3D

 29 30  0  0  1  0  0  0  0  0999 V2000
   20.4449   -6.4206  -20.8932 C   0  0  0  0  0  0  0  0  0  0  0  0
   21.7543   -6.6049  -20.1432 C   0  0  2  0  0  0  0  0  0  0  0  0
   22.2393   -7.9216  -20.4520 N   0  0  0  0  0  0  0  0  0  0  0  0
   21.4502   -6.4976  -18.7095 C   0  0  0  0  0  0  0  0  0  0  0  0
   20.6656   -7.2698  -18.1043 O   0  0  0  0  0  0  0  0  0  0  0  0
   22.0667   -5.4676  -17.9354 N   0  0  0  0  0  0  0  0  0  0  0  0
   21.8341   -5.3316  -16.5173 C   0  0  1  0  0  0  0  0  0  0  0  0
   23.1535   -5.0390  -15.8394 C   0  0  0  0  0  0  0  0  0  0  0  0
   24.0062   -6.2770  -15.8166 C   0  0  0  0  0  0  0  0  0  0  0  0
   25.1509   -6.5455  -16.5365 C   0  0  0  0  0  0  0  0  0  0  0  0
   25.6146   -7.7744  -16.2239 N   0  0  0  0  0  0  0  0  0  0  0  0
   24.7834   -8.3136  -15.3054 C   0  0  0  0  0  0  0  0  0  0  0  0
   24.8304   -9.5414  -14.6777 C   0  0  0  0  0  0  0  0  0  0  0  0
   23.8243   -9.8200  -13.7665 C   0  0  0  0  0  0  0  0  0  0  0  0
   22.8167   -8.9130  -13.4947 C   0  0  0  0  0  0  0  0  0  0  0  0
   22.7873   -7.6906  -14.1328 C   0  0  0  0  0  0  0  0  0  0  0  0
   23.7804   -7.3950  -15.0432 C   0  0  0  0  0  0  0  0  0  0  0  0
   20.8491   -4.2463  -16.2970 C   0  0  0  0  0  0  0  0  0  0  0  0
   21.0256   -3.0809  -16.7931 O   0  0  0  0  0  0  0  0  0  0  0  0
   19.6648   -4.4324  -15.5317 N   0  0  0  0  0  0  0  0  0  0  0  0
   18.6508   -3.3767  -15.3922 C   0  0  1  0  0  0  0  0  0  0  0  0
   17.3116   -3.9616  -15.0913 C   0  0  0  0  0  0  0  0  0  0  0  0
   16.2018   -2.9566  -15.0550 C   0  0  0  0  0  0  0  0  0  0  0  0
   14.8674   -3.6216  -14.7301 C   0  0  0  0  0  0  0  0  0  0  0  0
   13.7278   -2.6413  -14.8717 C   0  0  0  0  0  0  0  0  0  0  0  0
   12.4832   -3.1757  -14.3629 N   0  0  0  0  0  0  0  0  0  0  0  0
   19.1080   -2.3282  -14.4737 C   0  0  0  0  0  0  0  0  0  0  0  0
   19.6399   -2.4820  -13.3568 O   0  0  0  0  0  0  0  0  0  0  0  0
   18.9391   -0.9917  -14.8744 O   0  0  0  0  0  0  0  0  0  0  0  0
  2  3  1  0
  2  1  1  6
  4  2  1  0
  5  4  2  0
  6  4  1  0
  7  6  1  0
  7  8  1  1
  9  8  1  0
 10  9  2  0
 11 10  1  0
 12 11  1  0
 12 17  2  0
 13 12  1  0
 14 13  2  0
 14 15  1  0
 15 16  2  0
 16 17  1  0
 17  9  1  0
 18  7  1  0
 18 19  2  0
 20 18  1  0
 21 20  1  0
 22 23  1  0
 21 22  1  1
 24 25  1  0
 24 23  1  0
 25 26  1  0
 27 29  1  0
 27 21  1  0
 28 27  2  0
M  END
$$$$
