AWK.pdb
     RDKit          3D

 29 30  0  0  1  0  0  0  0  0999 V2000
   26.1755  -22.5796  -17.3440 C   0  0  0  0  0  0  0  0  0  0  0  0
   27.2084  -22.6846  -16.2335 C   0  0  2  0  0  0  0  0  0  0  0  0
   27.8193  -23.9804  -16.3423 N   0  0  0  0  0  0  0  0  0  0  0  0
   26.4864  -22.5674  -14.9590 C   0  0  0  0  0  0  0  0  0  0  0  0
   25.8857  -23.5236  -14.4084 O   0  0  0  0  0  0  0  0  0  0  0  0
   26.4487  -21.3082  -14.2857 N   0  0  0  0  0  0  0  0  0  0  0  0
   25.7715  -21.1347  -13.0228 C   0  0  1  0  0  0  0  0  0  0  0  0
   26.3752  -19.9439  -12.3131 C   0  0  0  0  0  0  0  0  0  0  0  0
   27.4831  -20.3949  -11.4023 C   0  0  0  0  0  0  0  0  0  0  0  0
   28.7136  -20.9176  -11.7390 C   0  0  0  0  0  0  0  0  0  0  0  0
   29.4182  -21.1950  -10.6213 N   0  0  0  0  0  0  0  0  0  0  0  0
   28.6601  -20.8588   -9.5549 C   0  0  0  0  0  0  0  0  0  0  0  0
   28.9345  -20.9509   -8.2059 C   0  0  0  0  0  0  0  0  0  0  0  0
   27.9478  -20.5211   -7.3332 C   0  0  0  0  0  0  0  0  0  0  0  0
   26.7411  -20.0218   -7.7877 C   0  0  0  0  0  0  0  0  0  0  0  0
   26.4857  -19.9377   -9.1404 C   0  0  0  0  0  0  0  0  0  0  0  0
   27.4560  -20.3608  -10.0249 C   0  0  0  0  0  0  0  0  0  0  0  0
   24.3238  -20.9471  -13.2792 C   0  0  0  0  0  0  0  0  0  0  0  0
   23.9095  -20.1275  -14.1692 O   0  0  0  0  0  0  0  0  0  0  0  0
   23.3220  -21.6571  -12.5616 N   0  0  0  0  0  0  0  0  0  0  0  0
   21.8876  -21.4470  -12.8077 C   0  0  1  0  0  0  0  0  0  0  0  0
   21.0653  -22.4041  -12.0114 C   0  0  0  0  0  0  0  0  0  0  0  0
   19.5960  -22.3237  -12.2902 C   0  0  0  0  0  0  0  0  0  0  0  0
   19.0072  -23.7086  -12.5431 C   0  0  0  0  0  0  0  0  0  0  0  0
   18.0708  -24.1082  -11.4281 C   0  0  0  0  0  0  0  0  0  0  0  0
   17.3678  -25.3382  -11.7218 N   0  0  0  0  0  0  0  0  0  0  0  0
   21.5326  -20.0308  -12.6643 C   0  0  0  0  0  0  0  0  0  0  0  0
   21.8243  -19.2711  -11.7199 O   0  0  0  0  0  0  0  0  0  0  0  0
   20.7794  -19.4404  -13.6935 O   0  0  0  0  0  0  0  0  0  0  0  0
  2  3  1  0
  2  1  1  6
  4  2  1  0
  5  4  2  0
  6  4  1  0
  7  6  1  0
  7  8  1  6
  9  8  1  0
 10  9  2  0
 11 10  1  0
 12 11  1  0
 12 17  2  0
 13 12  1  0
 14 13  2  0
 14 15  1  0
 15 16  2  0
 16 17  1  0
 17  9  1  0
 18  7  1  0
 18 19  2  0
 20 18  1  0
 21 20  1  0
 22 23  1  0
 21 22  1  1
 24 25  1  0
 24 23  1  0
 25 26  1  0
 27 29  1  0
 27 21  1  0
 28 27  2  0
M  END
$$$$
