AWK.pdb
     RDKit          3D

 29 30  0  0  1  0  0  0  0  0999 V2000
   27.3758  -19.9809  -15.7813 C   0  0  0  0  0  0  0  0  0  0  0  0
   28.1414  -20.6288  -14.6389 C   0  0  2  0  0  0  0  0  0  0  0  0
   28.9529  -21.6693  -15.2073 N   0  0  0  0  0  0  0  0  0  0  0  0
   27.1465  -21.2025  -13.7221 C   0  0  0  0  0  0  0  0  0  0  0  0
   26.6245  -22.3341  -13.8805 O   0  0  0  0  0  0  0  0  0  0  0  0
   26.7310  -20.4544  -12.5784 N   0  0  0  0  0  0  0  0  0  0  0  0
   25.7363  -20.9515  -11.6579 C   0  0  1  0  0  0  0  0  0  0  0  0
   25.9216  -20.2561  -10.3281 C   0  0  0  0  0  0  0  0  0  0  0  0
   27.1799  -20.7421   -9.6641 C   0  0  0  0  0  0  0  0  0  0  0  0
   28.1747  -21.5404  -10.1873 C   0  0  0  0  0  0  0  0  0  0  0  0
   29.1359  -21.7456   -9.2618 N   0  0  0  0  0  0  0  0  0  0  0  0
   28.7795  -21.0887   -8.1363 C   0  0  0  0  0  0  0  0  0  0  0  0
   29.4270  -20.9923   -6.9217 C   0  0  0  0  0  0  0  0  0  0  0  0
   28.8093  -20.2357   -5.9389 C   0  0  0  0  0  0  0  0  0  0  0  0
   27.5993  -19.6039   -6.1593 C   0  0  0  0  0  0  0  0  0  0  0  0
   26.9678  -19.7124   -7.3806 C   0  0  0  0  0  0  0  0  0  0  0  0
   27.5672  -20.4614   -8.3717 C   0  0  0  0  0  0  0  0  0  0  0  0
   24.3912  -20.7010  -12.2276 C   0  0  0  0  0  0  0  0  0  0  0  0
   23.9981  -19.5153  -12.5015 O   0  0  0  0  0  0  0  0  0  0  0  0
   23.4692  -21.7490  -12.5005 N   0  0  0  0  0  0  0  0  0  0  0  0
   22.1233  -21.4870  -13.0314 C   0  0  1  0  0  0  0  0  0  0  0  0
   21.5770  -22.6948  -13.7163 C   0  0  0  0  0  0  0  0  0  0  0  0
   20.1817  -22.5238  -14.2326 C   0  0  0  0  0  0  0  0  0  0  0  0
   19.6586  -23.8199  -14.8450 C   0  0  0  0  0  0  0  0  0  0  0  0
   18.2756  -23.6255  -15.4189 C   0  0  0  0  0  0  0  0  0  0  0  0
   17.7826  -24.8204  -16.0687 N   0  0  0  0  0  0  0  0  0  0  0  0
   21.2605  -20.8934  -12.0042 C   0  0  0  0  0  0  0  0  0  0  0  0
   20.2319  -20.2122  -12.1834 O   0  0  0  0  0  0  0  0  0  0  0  0
   21.6108  -21.1014  -10.6592 O   0  0  0  0  0  0  0  0  0  0  0  0
  2  3  1  0
  2  1  1  6
  4  2  1  0
  5  4  2  0
  6  4  1  0
  7  6  1  0
  7  8  1  1
  9  8  1  0
 10  9  2  0
 11 10  1  0
 12 11  1  0
 12 17  2  0
 13 12  1  0
 14 13  2  0
 14 15  1  0
 15 16  2  0
 16 17  1  0
 17  9  1  0
 18  7  1  0
 18 19  2  0
 20 18  1  0
 21 20  1  0
 22 23  1  0
 21 22  1  1
 24 25  1  0
 24 23  1  0
 25 26  1  0
 27 29  1  0
 27 21  1  0
 28 27  2  0
M  END
$$$$
