AWK.pdb
     RDKit          3D

 29 30  0  0  1  0  0  0  0  0999 V2000
   27.9318  -18.8995  -14.2780 C   0  0  0  0  0  0  0  0  0  0  0  0
   28.6804  -19.8204  -13.3280 C   0  0  2  0  0  0  0  0  0  0  0  0
   29.4187  -20.7531  -14.1338 N   0  0  0  0  0  0  0  0  0  0  0  0
   27.6716  -20.5271  -12.5264 C   0  0  0  0  0  0  0  0  0  0  0  0
   27.1400  -21.6109  -12.8743 O   0  0  0  0  0  0  0  0  0  0  0  0
   27.2532  -19.9746  -11.2775 N   0  0  0  0  0  0  0  0  0  0  0  0
   26.2639  -20.6198  -10.4474 C   0  0  1  0  0  0  0  0  0  0  0  0
   26.3437  -20.0297   -9.0576 C   0  0  0  0  0  0  0  0  0  0  0  0
   27.5733  -20.5337   -8.3543 C   0  0  0  0  0  0  0  0  0  0  0  0
   28.5405  -21.3956   -8.8255 C   0  0  0  0  0  0  0  0  0  0  0  0
   29.4818  -21.5948   -7.8783 N   0  0  0  0  0  0  0  0  0  0  0  0
   29.1396  -20.8707   -6.7902 C   0  0  0  0  0  0  0  0  0  0  0  0
   29.7764  -20.7423   -5.5730 C   0  0  0  0  0  0  0  0  0  0  0  0
   29.1790  -19.9150   -4.6357 C   0  0  0  0  0  0  0  0  0  0  0  0
   27.9985  -19.2461   -4.9022 C   0  0  0  0  0  0  0  0  0  0  0  0
   27.3772  -19.3876   -6.1254 C   0  0  0  0  0  0  0  0  0  0  0  0
   27.9568  -20.2070   -7.0716 C   0  0  0  0  0  0  0  0  0  0  0  0
   24.9269  -20.4194  -11.0548 C   0  0  0  0  0  0  0  0  0  0  0  0
   24.4778  -19.2465  -11.2955 O   0  0  0  0  0  0  0  0  0  0  0  0
   24.0746  -21.5037  -11.4020 N   0  0  0  0  0  0  0  0  0  0  0  0
   22.7909  -21.2994  -12.0893 C   0  0  1  0  0  0  0  0  0  0  0  0
   22.3763  -22.5326  -12.8199 C   0  0  0  0  0  0  0  0  0  0  0  0
   21.0692  -22.4041  -13.5395 C   0  0  0  0  0  0  0  0  0  0  0  0
   20.6304  -23.7423  -14.1269 C   0  0  0  0  0  0  0  0  0  0  0  0
   19.3561  -23.5902  -14.9224 C   0  0  0  0  0  0  0  0  0  0  0  0
   18.8522  -24.8623  -15.3925 N   0  0  0  0  0  0  0  0  0  0  0  0
   21.7911  -20.7344  -11.1764 C   0  0  0  0  0  0  0  0  0  0  0  0
   20.8714  -19.9423  -11.4604 O   0  0  0  0  0  0  0  0  0  0  0  0
   21.8556  -21.1128   -9.8245 O   0  0  0  0  0  0  0  0  0  0  0  0
  2  3  1  0
  2  1  1  6
  4  2  1  0
  5  4  2  0
  6  4  1  0
  7  6  1  0
  7  8  1  1
  9  8  1  0
 10  9  2  0
 11 10  1  0
 12 11  1  0
 12 17  2  0
 13 12  1  0
 14 13  2  0
 14 15  1  0
 15 16  2  0
 16 17  1  0
 17  9  1  0
 18  7  1  0
 18 19  2  0
 20 18  1  0
 21 20  1  0
 22 23  1  0
 21 22  1  1
 24 25  1  0
 24 23  1  0
 25 26  1  0
 27 29  1  0
 27 21  1  0
 28 27  2  0
M  END
$$$$
