AWK.pdb
     RDKit          3D

 29 30  0  0  1  0  0  0  0  0999 V2000
   29.2234  -23.1193  -16.4033 C   0  0  0  0  0  0  0  0  0  0  0  0
   28.0308  -22.1894  -16.5587 C   0  0  2  0  0  0  0  0  0  0  0  0
   28.5484  -20.8710  -16.8001 N   0  0  0  0  0  0  0  0  0  0  0  0
   27.2896  -22.2211  -15.2902 C   0  0  0  0  0  0  0  0  0  0  0  0
   26.7626  -23.2588  -14.8173 O   0  0  0  0  0  0  0  0  0  0  0  0
   27.1444  -21.0200  -14.5310 N   0  0  0  0  0  0  0  0  0  0  0  0
   26.4922  -21.0018  -13.2432 C   0  0  1  0  0  0  0  0  0  0  0  0
   27.1358  -19.9297  -12.3934 C   0  0  0  0  0  0  0  0  0  0  0  0
   27.9833  -20.5605  -11.3237 C   0  0  0  0  0  0  0  0  0  0  0  0
   29.1710  -21.2468  -11.4613 C   0  0  0  0  0  0  0  0  0  0  0  0
   29.6118  -21.6530  -10.2516 N   0  0  0  0  0  0  0  0  0  0  0  0
   28.7229  -21.2389   -9.3222 C   0  0  0  0  0  0  0  0  0  0  0  0
   28.7277  -21.4056   -7.9526 C   0  0  0  0  0  0  0  0  0  0  0  0
   27.6653  -20.8606   -7.2497 C   0  0  0  0  0  0  0  0  0  0  0  0
   26.6439  -20.1799   -7.8862 C   0  0  0  0  0  0  0  0  0  0  0  0
   26.6572  -20.0238   -9.2565 C   0  0  0  0  0  0  0  0  0  0  0  0
   27.7068  -20.5593   -9.9736 C   0  0  0  0  0  0  0  0  0  0  0  0
   25.0455  -20.7505  -13.4444 C   0  0  0  0  0  0  0  0  0  0  0  0
   24.6339  -19.7133  -14.0691 O   0  0  0  0  0  0  0  0  0  0  0  0
   24.0415  -21.6349  -12.9620 N   0  0  0  0  0  0  0  0  0  0  0  0
   22.6110  -21.4030  -13.2106 C   0  0  1  0  0  0  0  0  0  0  0  0
   21.8698  -22.6951  -13.2980 C   0  0  0  0  0  0  0  0  0  0  0  0
   20.4066  -22.5406  -13.5776 C   0  0  0  0  0  0  0  0  0  0  0  0
   19.7265  -23.8994  -13.7176 C   0  0  0  0  0  0  0  0  0  0  0  0
   18.2778  -23.7392  -14.1117 C   0  0  0  0  0  0  0  0  0  0  0  0
   17.6155  -25.0142  -14.2821 N   0  0  0  0  0  0  0  0  0  0  0  0
   22.0670  -20.4201  -12.2671 C   0  0  0  0  0  0  0  0  0  0  0  0
   22.4394  -20.2113  -11.0959 O   0  0  0  0  0  0  0  0  0  0  0  0
   21.0066  -19.6104  -12.7087 O   0  0  0  0  0  0  0  0  0  0  0  0
  2  3  1  0
  2  1  1  1
  4  2  1  0
  5  4  2  0
  6  4  1  0
  7  6  1  0
  7  8  1  1
  9  8  1  0
 10  9  2  0
 11 10  1  0
 12 11  1  0
 12 17  2  0
 13 12  1  0
 14 13  2  0
 14 15  1  0
 15 16  2  0
 16 17  1  0
 17  9  1  0
 18  7  1  0
 18 19  2  0
 20 18  1  0
 21 20  1  0
 22 23  1  0
 21 22  1  1
 24 25  1  0
 24 23  1  0
 25 26  1  0
 27 29  1  0
 27 21  1  0
 28 27  2  0
M  END
$$$$
