AWK.pdb
     RDKit          3D

 29 30  0  0  1  0  0  0  0  0999 V2000
   29.4764  -19.5137  -15.8074 C   0  0  0  0  0  0  0  0  0  0  0  0
   27.9563  -19.5150  -15.7931 C   0  0  2  0  0  0  0  0  0  0  0  0
   27.5352  -18.2455  -15.2683 N   0  0  0  0  0  0  0  0  0  0  0  0
   27.5332  -20.6014  -14.8986 C   0  0  0  0  0  0  0  0  0  0  0  0
   27.8599  -21.8036  -15.0602 O   0  0  0  0  0  0  0  0  0  0  0  0
   26.7041  -20.3035  -13.7743 N   0  0  0  0  0  0  0  0  0  0  0  0
   26.2175  -21.3329  -12.8870 C   0  0  1  0  0  0  0  0  0  0  0  0
   25.9718  -20.7191  -11.5273 C   0  0  0  0  0  0  0  0  0  0  0  0
   27.2341  -20.7534  -10.7114 C   0  0  0  0  0  0  0  0  0  0  0  0
   28.5207  -21.0194  -11.1292 C   0  0  0  0  0  0  0  0  0  0  0  0
   29.3696  -20.9495  -10.0817 N   0  0  0  0  0  0  0  0  0  0  0  0
   28.6503  -20.6402   -8.9807 C   0  0  0  0  0  0  0  0  0  0  0  0
   29.0588  -20.4574   -7.6756 C   0  0  0  0  0  0  0  0  0  0  0  0
   28.0784  -20.1413   -6.7489 C   0  0  0  0  0  0  0  0  0  0  0  0
   26.7497  -20.0136   -7.1095 C   0  0  0  0  0  0  0  0  0  0  0  0
   26.3613  -20.2002   -8.4197 C   0  0  0  0  0  0  0  0  0  0  0  0
   27.3230  -20.5155   -9.3569 C   0  0  0  0  0  0  0  0  0  0  0  0
   24.9802  -21.9125  -13.4613 C   0  0  0  0  0  0  0  0  0  0  0  0
   24.0256  -21.1652  -13.8683 O   0  0  0  0  0  0  0  0  0  0  0  0
   24.7823  -23.3148  -13.5928 N   0  0  0  0  0  0  0  0  0  0  0  0
   23.6896  -23.8773  -14.4000 C   0  0  1  0  0  0  0  0  0  0  0  0
   24.0192  -25.2607  -14.8514 C   0  0  0  0  0  0  0  0  0  0  0  0
   23.0238  -25.8434  -15.8067 C   0  0  0  0  0  0  0  0  0  0  0  0
   23.3997  -27.2717  -16.1901 C   0  0  0  0  0  0  0  0  0  0  0  0
   22.4204  -27.8369  -17.1908 C   0  0  0  0  0  0  0  0  0  0  0  0
   22.7817  -29.1733  -17.6114 N   0  0  0  0  0  0  0  0  0  0  0  0
   22.3998  -23.7207  -13.7188 C   0  0  0  0  0  0  0  0  0  0  0  0
   22.2002  -23.6291  -12.4916 O   0  0  0  0  0  0  0  0  0  0  0  0
   21.2441  -23.6648  -14.5165 O   0  0  0  0  0  0  0  0  0  0  0  0
  2  3  1  0
  2  1  1  1
  4  2  1  0
  5  4  2  0
  6  4  1  0
  7  6  1  0
  7  8  1  1
  9  8  1  0
 10  9  2  0
 11 10  1  0
 12 11  1  0
 12 17  2  0
 13 12  1  0
 14 13  2  0
 14 15  1  0
 15 16  2  0
 16 17  1  0
 17  9  1  0
 18  7  1  0
 18 19  2  0
 20 18  1  0
 21 20  1  0
 22 23  1  0
 21 22  1  1
 24 25  1  0
 24 23  1  0
 25 26  1  0
 27 29  1  0
 27 21  1  0
 28 27  2  0
M  END
$$$$
