EWQ.pdb
     RDKit          3D

 33 34  0  0  1  0  0  0  0  0999 V2000
   27.4235  -22.0993  -15.2771 N   0  0  0  0  0  0  0  0  0  0  0  0
   27.7558  -21.0310  -14.3403 C   0  0  1  0  0  0  0  0  0  0  0  0
   27.4885  -19.6888  -14.9285 C   0  0  0  0  0  0  0  0  0  0  0  0
   27.3722  -19.6422  -16.4146 C   0  0  0  0  0  0  0  0  0  0  0  0
   26.1080  -18.9013  -16.7298 C   0  0  0  0  0  0  0  0  0  0  0  0
   25.3882  -18.5350  -15.7836 O   0  0  0  0  0  0  0  0  0  0  0  0
   27.0655  -21.3082  -13.0762 C   0  0  0  0  0  0  0  0  0  0  0  0
   25.9729  -21.9493  -13.0361 O   0  0  0  0  0  0  0  0  0  0  0  0
   25.7128  -18.6114  -18.0101 O   0  0  0  0  0  0  0  0  0  0  0  0
   27.5597  -20.8853  -11.8024 N   0  0  0  0  0  0  0  0  0  0  0  0
   26.8403  -21.0768  -10.5677 C   0  0  1  0  0  0  0  0  0  0  0  0
   27.8204  -20.7510   -9.4389 C   0  0  0  0  0  0  0  0  0  0  0  0
   27.1101  -20.6784   -8.1342 C   0  0  0  0  0  0  0  0  0  0  0  0
   25.8314  -21.1168   -7.8369 C   0  0  0  0  0  0  0  0  0  0  0  0
   25.5602  -20.8636   -6.5353 N   0  0  0  0  0  0  0  0  0  0  0  0
   26.6234  -20.2697   -5.9615 C   0  0  0  0  0  0  0  0  0  0  0  0
   26.8354  -19.8232   -4.6734 C   0  0  0  0  0  0  0  0  0  0  0  0
   28.0560  -19.2499   -4.4024 C   0  0  0  0  0  0  0  0  0  0  0  0
   29.0370  -19.1243   -5.3836 C   0  0  0  0  0  0  0  0  0  0  0  0
   28.8053  -19.5753   -6.6590 C   0  0  0  0  0  0  0  0  0  0  0  0
   27.5941  -20.1512   -6.9535 C   0  0  0  0  0  0  0  0  0  0  0  0
   25.6707  -20.1595  -10.4880 C   0  0  0  0  0  0  0  0  0  0  0  0
   25.8603  -18.9172  -10.5253 O   0  0  0  0  0  0  0  0  0  0  0  0
   22.8610  -18.3005  -14.4833 N   0  0  0  0  0  0  0  0  0  0  0  0
   22.8481  -19.7188  -14.3722 C   0  0  0  0  0  0  0  0  0  0  0  0
   22.6621  -20.3947  -15.4030 O   0  0  0  0  0  0  0  0  0  0  0  0
   23.0610  -20.2732  -13.0138 C   0  0  0  0  0  0  0  0  0  0  0  0
   23.3096  -19.2474  -11.9630 C   0  0  0  0  0  0  0  0  0  0  0  0
   23.2075  -19.7533  -10.5458 C   0  0  2  0  0  0  0  0  0  0  0  0
   24.3595  -20.6515  -10.3720 N   0  0  0  0  0  0  0  0  0  0  0  0
   21.9843  -20.5517  -10.3081 C   0  0  0  0  0  0  0  0  0  0  0  0
   22.0286  -21.8015  -10.3040 O   0  0  0  0  0  0  0  0  0  0  0  0
   20.7664  -19.9371  -10.0856 O   0  0  0  0  0  0  0  0  0  0  0  0
  2  1  1  6
  2  3  1  0
  3  4  1  0
  4  5  1  0
  5  6  2  0
  7  8  2  0
  7  2  1  0
  9  5  1  0
 10  7  1  0
 11 10  1  0
 11 12  1  1
 12 13  1  0
 13 14  2  0
 13 21  1  0
 14 15  1  0
 15 16  1  0
 16 17  2  0
 18 17  1  0
 19 18  2  0
 20 21  2  0
 20 19  1  0
 21 16  1  0
 22 11  1  0
 23 22  2  0
 24 25  1  0
 25 26  2  0
 25 27  1  0
 27 28  1  0
 29 28  1  6
 29 30  1  0
 30 22  1  0
 31 33  1  0
 31 29  1  0
 32 31  2  0
M  END
$$$$
