EWQ.pdb
     RDKit          3D

 33 34  0  0  1  0  0  0  0  0999 V2000
   28.6009  -22.8543  -16.6512 N   0  0  0  0  0  0  0  0  0  0  0  0
   28.2832  -21.5348  -16.1151 C   0  0  1  0  0  0  0  0  0  0  0  0
   27.5989  -20.6856  -17.1298 C   0  0  0  0  0  0  0  0  0  0  0  0
   28.4264  -20.2802  -18.3024 C   0  0  0  0  0  0  0  0  0  0  0  0
   28.0062  -21.1448  -19.4523 C   0  0  0  0  0  0  0  0  0  0  0  0
   28.8021  -22.0090  -19.8613 O   0  0  0  0  0  0  0  0  0  0  0  0
   27.5490  -21.7226  -14.8594 C   0  0  0  0  0  0  0  0  0  0  0  0
   26.5729  -22.5257  -14.7676 O   0  0  0  0  0  0  0  0  0  0  0  0
   26.7880  -21.0247  -20.0696 O   0  0  0  0  0  0  0  0  0  0  0  0
   27.8680  -21.0262  -13.6515 N   0  0  0  0  0  0  0  0  0  0  0  0
   27.0890  -21.1336  -12.4431 C   0  0  1  0  0  0  0  0  0  0  0  0
   27.7873  -20.2620  -11.3972 C   0  0  0  0  0  0  0  0  0  0  0  0
   26.9716  -20.1796  -10.1563 C   0  0  0  0  0  0  0  0  0  0  0  0
   25.5934  -20.1124  -10.0478 C   0  0  0  0  0  0  0  0  0  0  0  0
   25.2476  -20.0469   -8.7409 N   0  0  0  0  0  0  0  0  0  0  0  0
   26.3581  -20.0689   -7.9801 C   0  0  0  0  0  0  0  0  0  0  0  0
   26.5289  -20.0246   -6.6118 C   0  0  0  0  0  0  0  0  0  0  0  0
   27.8204  -20.0660   -6.1402 C   0  0  0  0  0  0  0  0  0  0  0  0
   28.9102  -20.1489   -7.0043 C   0  0  0  0  0  0  0  0  0  0  0  0
   28.7177  -20.1917   -8.3626 C   0  0  0  0  0  0  0  0  0  0  0  0
   27.4373  -20.1516   -8.8569 C   0  0  0  0  0  0  0  0  0  0  0  0
   25.7038  -20.6337  -12.6593 C   0  0  0  0  0  0  0  0  0  0  0  0
   25.5322  -19.5236  -13.2240 O   0  0  0  0  0  0  0  0  0  0  0  0
   22.3355  -24.4059  -15.3019 N   0  0  0  0  0  0  0  0  0  0  0  0
   21.2802  -23.4664  -15.1355 C   0  0  0  0  0  0  0  0  0  0  0  0
   20.1968  -23.6799  -15.7141 O   0  0  0  0  0  0  0  0  0  0  0  0
   21.5720  -22.2968  -14.2726 C   0  0  0  0  0  0  0  0  0  0  0  0
   22.9236  -22.3159  -13.6473 C   0  0  0  0  0  0  0  0  0  0  0  0
   23.2558  -21.1014  -12.8170 C   0  0  2  0  0  0  0  0  0  0  0  0
   24.5838  -21.3750  -12.2461 N   0  0  0  0  0  0  0  0  0  0  0  0
   22.3205  -20.9051  -11.6871 C   0  0  0  0  0  0  0  0  0  0  0  0
   22.5092  -21.4832  -10.5944 O   0  0  0  0  0  0  0  0  0  0  0  0
   21.2183  -20.0805  -11.8119 O   0  0  0  0  0  0  0  0  0  0  0  0
  2  1  1  6
  2  3  1  0
  3  4  1  0
  4  5  1  0
  5  6  2  0
  7  8  2  0
  7  2  1  0
  9  5  1  0
 10  7  1  0
 11 10  1  0
 11 12  1  1
 12 13  1  0
 13 14  2  0
 13 21  1  0
 14 15  1  0
 15 16  1  0
 16 17  2  0
 18 17  1  0
 19 18  2  0
 20 21  2  0
 20 19  1  0
 21 16  1  0
 22 11  1  0
 23 22  2  0
 24 25  1  0
 25 26  2  0
 25 27  1  0
 27 28  1  0
 29 28  1  1
 29 30  1  0
 30 22  1  0
 31 33  1  0
 31 29  1  0
 32 31  2  0
M  END
$$$$
