EWQ.pdb
     RDKit          3D

 33 34  0  0  1  0  0  0  0  0999 V2000
   27.8316  -22.9424  -15.7509 N   0  0  0  0  0  0  0  0  0  0  0  0
   27.3748  -21.6077  -15.3777 C   0  0  1  0  0  0  0  0  0  0  0  0
   26.5732  -20.9827  -16.4666 C   0  0  0  0  0  0  0  0  0  0  0  0
   26.9505  -19.5869  -16.8320 C   0  0  0  0  0  0  0  0  0  0  0  0
   28.3194  -19.6502  -17.4390 C   0  0  0  0  0  0  0  0  0  0  0  0
   28.4176  -19.9595  -18.6399 O   0  0  0  0  0  0  0  0  0  0  0  0
   26.6965  -21.7089  -14.0812 C   0  0  0  0  0  0  0  0  0  0  0  0
   25.5863  -22.3061  -13.9507 O   0  0  0  0  0  0  0  0  0  0  0  0
   29.4625  -19.3830  -16.7308 O   0  0  0  0  0  0  0  0  0  0  0  0
   27.2228  -21.1512  -12.8739 N   0  0  0  0  0  0  0  0  0  0  0  0
   26.5364  -21.2078  -11.6073 C   0  0  1  0  0  0  0  0  0  0  0  0
   27.5434  -20.7577  -10.5470 C   0  0  0  0  0  0  0  0  0  0  0  0
   26.8838  -20.6302   -9.2200 C   0  0  0  0  0  0  0  0  0  0  0  0
   25.5410  -20.7803   -8.9202 C   0  0  0  0  0  0  0  0  0  0  0  0
   25.3506  -20.5805   -7.5953 N   0  0  0  0  0  0  0  0  0  0  0  0
   26.5298  -20.3022   -7.0083 C   0  0  0  0  0  0  0  0  0  0  0  0
   26.8545  -20.0271   -5.6959 C   0  0  0  0  0  0  0  0  0  0  0  0
   28.1786  -19.7803   -5.4169 C   0  0  0  0  0  0  0  0  0  0  0  0
   29.1514  -19.8063   -6.4141 C   0  0  0  0  0  0  0  0  0  0  0  0
   28.8065  -20.0821   -7.7136 C   0  0  0  0  0  0  0  0  0  0  0  0
   27.4907  -20.3317   -8.0164 C   0  0  0  0  0  0  0  0  0  0  0  0
   25.3643  -20.2902  -11.5982 C   0  0  0  0  0  0  0  0  0  0  0  0
   25.5423  -19.0638  -11.8103 O   0  0  0  0  0  0  0  0  0  0  0  0
   23.4539  -18.9935  -15.4544 N   0  0  0  0  0  0  0  0  0  0  0  0
   22.8491  -20.2537  -15.1892 C   0  0  0  0  0  0  0  0  0  0  0  0
   22.7087  -21.0564  -16.1326 O   0  0  0  0  0  0  0  0  0  0  0  0
   22.4331  -20.5008  -13.7879 C   0  0  0  0  0  0  0  0  0  0  0  0
   22.8004  -19.4150  -12.8370 C   0  0  0  0  0  0  0  0  0  0  0  0
   22.9154  -19.8456  -11.3960 C   0  0  2  0  0  0  0  0  0  0  0  0
   24.0636  -20.7645  -11.3577 N   0  0  0  0  0  0  0  0  0  0  0  0
   21.7310  -20.5978  -10.9255 C   0  0  0  0  0  0  0  0  0  0  0  0
   21.7832  -21.8373  -10.7677 O   0  0  0  0  0  0  0  0  0  0  0  0
   20.5412  -19.9504  -10.6500 O   0  0  0  0  0  0  0  0  0  0  0  0
  2  1  1  6
  2  3  1  0
  3  4  1  0
  4  5  1  0
  5  6  2  0
  7  8  2  0
  7  2  1  0
  9  5  1  0
 10  7  1  0
 11 10  1  0
 11 12  1  1
 12 13  1  0
 13 14  2  0
 13 21  1  0
 14 15  1  0
 15 16  1  0
 16 17  2  0
 18 17  1  0
 19 18  2  0
 20 21  2  0
 20 19  1  0
 21 16  1  0
 22 11  1  0
 23 22  2  0
 24 25  1  0
 25 26  2  0
 25 27  1  0
 27 28  1  0
 29 28  1  6
 29 30  1  0
 30 22  1  0
 31 33  1  0
 31 29  1  0
 32 31  2  0
M  END
$$$$
