EWQ.pdb
     RDKit          3D

 33 34  0  0  1  0  0  0  0  0999 V2000
   28.7828  -22.3626  -14.6884 N   0  0  0  0  0  0  0  0  0  0  0  0
   27.9940  -21.1628  -14.4285 C   0  0  1  0  0  0  0  0  0  0  0  0
   27.3183  -20.6775  -15.6641 C   0  0  0  0  0  0  0  0  0  0  0  0
   28.2192  -20.1973  -16.7513 C   0  0  0  0  0  0  0  0  0  0  0  0
   28.6752  -21.4089  -17.5065 C   0  0  0  0  0  0  0  0  0  0  0  0
   27.8139  -22.1222  -18.0515 O   0  0  0  0  0  0  0  0  0  0  0  0
   27.1028  -21.4446  -13.2982 C   0  0  0  0  0  0  0  0  0  0  0  0
   26.3146  -22.4372  -13.2978 O   0  0  0  0  0  0  0  0  0  0  0  0
   29.9945  -21.7632  -17.6218 O   0  0  0  0  0  0  0  0  0  0  0  0
   27.0491  -20.6359  -12.1198 N   0  0  0  0  0  0  0  0  0  0  0  0
   26.0593  -20.8043  -11.0851 C   0  0  1  0  0  0  0  0  0  0  0  0
   26.4864  -19.9032   -9.9246 C   0  0  0  0  0  0  0  0  0  0  0  0
   27.6928  -20.4540   -9.2514 C   0  0  0  0  0  0  0  0  0  0  0  0
   28.7158  -21.1971   -9.8144 C   0  0  0  0  0  0  0  0  0  0  0  0
   29.6250  -21.5062   -8.8606 N   0  0  0  0  0  0  0  0  0  0  0  0
   29.2333  -20.9887   -7.6811 C   0  0  0  0  0  0  0  0  0  0  0  0
   29.8111  -21.0292   -6.4289 C   0  0  0  0  0  0  0  0  0  0  0  0
   29.1449  -20.3875   -5.4109 C   0  0  0  0  0  0  0  0  0  0  0  0
   27.9392  -19.7252   -5.6317 C   0  0  0  0  0  0  0  0  0  0  0  0
   27.3817  -19.6972   -6.8855 C   0  0  0  0  0  0  0  0  0  0  0  0
   28.0285  -20.3309   -7.9178 C   0  0  0  0  0  0  0  0  0  0  0  0
   24.7136  -20.3878  -11.5660 C   0  0  0  0  0  0  0  0  0  0  0  0
   24.6180  -19.4186  -12.3611 O   0  0  0  0  0  0  0  0  0  0  0  0
   22.2845  -23.9888  -14.8071 N   0  0  0  0  0  0  0  0  0  0  0  0
   21.0771  -23.2419  -14.7164 C   0  0  0  0  0  0  0  0  0  0  0  0
   20.1184  -23.5704  -15.4423 O   0  0  0  0  0  0  0  0  0  0  0  0
   21.0704  -22.1193  -13.7481 C   0  0  0  0  0  0  0  0  0  0  0  0
   22.3109  -22.0037  -12.9322 C   0  0  0  0  0  0  0  0  0  0  0  0
   22.2931  -20.9009  -11.9033 C   0  0  2  0  0  0  0  0  0  0  0  0
   23.5480  -21.0540  -11.1509 N   0  0  0  0  0  0  0  0  0  0  0  0
   21.1795  -21.0346  -10.9379 C   0  0  0  0  0  0  0  0  0  0  0  0
   21.3857  -21.4609   -9.7805 O   0  0  0  0  0  0  0  0  0  0  0  0
   19.8877  -20.6926  -11.2912 O   0  0  0  0  0  0  0  0  0  0  0  0
  2  1  1  6
  2  3  1  0
  3  4  1  0
  4  5  1  0
  5  6  2  0
  7  8  2  0
  7  2  1  0
  9  5  1  0
 10  7  1  0
 11 10  1  0
 11 12  1  1
 12 13  1  0
 13 14  2  0
 13 21  1  0
 14 15  1  0
 15 16  1  0
 16 17  2  0
 18 17  1  0
 19 18  2  0
 20 21  2  0
 20 19  1  0
 21 16  1  0
 22 11  1  0
 23 22  2  0
 24 25  1  0
 25 26  2  0
 25 27  1  0
 27 28  1  0
 29 28  1  6
 29 30  1  0
 30 22  1  0
 31 33  1  0
 31 29  1  0
 32 31  2  0
M  END
$$$$
