EWQ.pdb
     RDKit          3D

 33 34  0  0  1  0  0  0  0  0999 V2000
   28.0153  -22.9171  -16.1245 N   0  0  0  0  0  0  0  0  0  0  0  0
   27.8669  -21.6175  -15.4776 C   0  0  1  0  0  0  0  0  0  0  0  0
   27.6111  -20.5399  -16.4737 C   0  0  0  0  0  0  0  0  0  0  0  0
   26.7624  -20.9208  -17.6394 C   0  0  0  0  0  0  0  0  0  0  0  0
   25.4086  -20.3210  -17.4074 C   0  0  0  0  0  0  0  0  0  0  0  0
   24.4089  -21.0446  -17.5641 O   0  0  0  0  0  0  0  0  0  0  0  0
   26.8533  -21.7500  -14.4258 C   0  0  0  0  0  0  0  0  0  0  0  0
   26.0062  -22.6927  -14.4267 O   0  0  0  0  0  0  0  0  0  0  0  0
   25.2257  -19.0153  -17.0317 O   0  0  0  0  0  0  0  0  0  0  0  0
   26.7377  -20.8410  -13.3277 N   0  0  0  0  0  0  0  0  0  0  0  0
   25.7984  -21.0151  -12.2478 C   0  0  1  0  0  0  0  0  0  0  0  0
   26.2114  -20.0323  -11.1502 C   0  0  0  0  0  0  0  0  0  0  0  0
   27.4591  -20.4890  -10.4818 C   0  0  0  0  0  0  0  0  0  0  0  0
   28.5089  -21.2007  -11.0359 C   0  0  0  0  0  0  0  0  0  0  0  0
   29.4525  -21.4197  -10.0908 N   0  0  0  0  0  0  0  0  0  0  0  0
   29.0577  -20.8730   -8.9256 C   0  0  0  0  0  0  0  0  0  0  0  0
   29.6621  -20.8286   -7.6862 C   0  0  0  0  0  0  0  0  0  0  0  0
   28.9832  -20.1795   -6.6813 C   0  0  0  0  0  0  0  0  0  0  0  0
   27.7395  -19.5920   -6.9026 C   0  0  0  0  0  0  0  0  0  0  0  0
   27.1559  -19.6479   -8.1436 C   0  0  0  0  0  0  0  0  0  0  0  0
   27.8147  -20.2906   -9.1625 C   0  0  0  0  0  0  0  0  0  0  0  0
   24.4131  -20.7044  -12.6950 C   0  0  0  0  0  0  0  0  0  0  0  0
   24.1975  -19.6448  -13.3366 O   0  0  0  0  0  0  0  0  0  0  0  0
   20.1710  -25.0555  -13.5920 N   0  0  0  0  0  0  0  0  0  0  0  0
   19.3157  -23.9330  -13.7728 C   0  0  0  0  0  0  0  0  0  0  0  0
   18.1265  -24.1357  -14.0870 O   0  0  0  0  0  0  0  0  0  0  0  0
   19.9298  -22.5995  -13.5672 C   0  0  0  0  0  0  0  0  0  0  0  0
   21.3500  -22.6388  -13.1202 C   0  0  0  0  0  0  0  0  0  0  0  0
   21.9981  -21.2880  -12.9464 C   0  0  2  0  0  0  0  0  0  0  0  0
   23.3411  -21.5690  -12.4158 N   0  0  0  0  0  0  0  0  0  0  0  0
   21.2996  -20.4395  -11.9553 C   0  0  0  0  0  0  0  0  0  0  0  0
   21.7082  -20.3677  -10.7756 O   0  0  0  0  0  0  0  0  0  0  0  0
   20.1814  -19.7077  -12.3085 O   0  0  0  0  0  0  0  0  0  0  0  0
  2  1  1  6
  2  3  1  0
  3  4  1  0
  4  5  1  0
  5  6  2  0
  7  8  2  0
  7  2  1  0
  9  5  1  0
 10  7  1  0
 11 10  1  0
 11 12  1  1
 12 13  1  0
 13 14  2  0
 13 21  1  0
 14 15  1  0
 15 16  1  0
 16 17  2  0
 18 17  1  0
 19 18  2  0
 20 21  2  0
 20 19  1  0
 21 16  1  0
 22 11  1  0
 23 22  2  0
 24 25  1  0
 25 26  2  0
 25 27  1  0
 27 28  1  0
 29 28  1  1
 29 30  1  0
 30 22  1  0
 31 33  1  0
 31 29  1  0
 32 31  2  0
M  END
$$$$
