EWQ.pdb
     RDKit          3D

 33 34  0  0  1  0  0  0  0  0999 V2000
   26.3727  -30.8789  -16.8427 N   0  0  0  0  0  0  0  0  0  0  0  0
   26.1660  -32.1036  -16.0767 C   0  0  1  0  0  0  0  0  0  0  0  0
   27.4511  -32.6347  -15.5424 C   0  0  0  0  0  0  0  0  0  0  0  0
   28.3516  -33.2814  -16.5399 C   0  0  0  0  0  0  0  0  0  0  0  0
   27.8822  -34.6960  -16.6982 C   0  0  0  0  0  0  0  0  0  0  0  0
   27.2697  -35.0007  -17.7373 O   0  0  0  0  0  0  0  0  0  0  0  0
   25.1329  -31.8375  -15.0701 C   0  0  0  0  0  0  0  0  0  0  0  0
   24.9678  -30.6857  -14.5678 O   0  0  0  0  0  0  0  0  0  0  0  0
   28.0978  -35.6638  -15.7515 O   0  0  0  0  0  0  0  0  0  0  0  0
   24.2386  -32.8397  -14.5786 N   0  0  0  0  0  0  0  0  0  0  0  0
   23.2411  -32.5880  -13.5686 C   0  0  1  0  0  0  0  0  0  0  0  0
   21.9569  -33.2683  -14.0473 C   0  0  0  0  0  0  0  0  0  0  0  0
   21.2964  -32.4549  -15.1028 C   0  0  0  0  0  0  0  0  0  0  0  0
   21.7247  -32.2367  -16.4007 C   0  0  0  0  0  0  0  0  0  0  0  0
   20.8392  -31.4359  -17.0382 N   0  0  0  0  0  0  0  0  0  0  0  0
   19.8358  -31.1172  -16.1992 C   0  0  0  0  0  0  0  0  0  0  0  0
   18.7105  -30.3386  -16.3751 C   0  0  0  0  0  0  0  0  0  0  0  0
   17.8641  -30.2091  -15.2986 C   0  0  0  0  0  0  0  0  0  0  0  0
   18.1291  -30.8356  -14.0827 C   0  0  0  0  0  0  0  0  0  0  0  0
   19.2547  -31.6058  -13.9292 C   0  0  0  0  0  0  0  0  0  0  0  0
   20.1147  -31.7498  -14.9899 C   0  0  0  0  0  0  0  0  0  0  0  0
   23.6518  -33.1696  -12.2614 C   0  0  0  0  0  0  0  0  0  0  0  0
   24.1730  -34.3134  -12.2343 O   0  0  0  0  0  0  0  0  0  0  0  0
   25.3833  -31.6817   -6.5855 N   0  0  0  0  0  0  0  0  0  0  0  0
   26.3494  -32.5089   -7.2232 C   0  0  0  0  0  0  0  0  0  0  0  0
   27.2719  -32.9861   -6.5338 O   0  0  0  0  0  0  0  0  0  0  0  0
   26.1665  -32.7311   -8.6775 C   0  0  0  0  0  0  0  0  0  0  0  0
   24.9507  -32.0886   -9.2496 C   0  0  0  0  0  0  0  0  0  0  0  0
   23.9161  -33.0488   -9.7812 C   0  0  2  0  0  0  0  0  0  0  0  0
   23.4698  -32.4685  -11.0572 N   0  0  0  0  0  0  0  0  0  0  0  0
   22.7286  -33.1561   -8.9047 C   0  0  0  0  0  0  0  0  0  0  0  0
   21.7940  -32.3298   -8.9919 O   0  0  0  0  0  0  0  0  0  0  0  0
   22.6238  -34.1697   -7.9708 O   0  0  0  0  0  0  0  0  0  0  0  0
  2  1  1  1
  2  3  1  0
  3  4  1  0
  4  5  1  0
  5  6  2  0
  7  8  2  0
  7  2  1  0
  9  5  1  0
 10  7  1  0
 11 10  1  0
 11 12  1  6
 12 13  1  0
 13 14  2  0
 13 21  1  0
 14 15  1  0
 15 16  1  0
 16 17  2  0
 18 17  1  0
 19 18  2  0
 20 21  2  0
 20 19  1  0
 21 16  1  0
 22 11  1  0
 23 22  2  0
 24 25  1  0
 25 26  2  0
 25 27  1  0
 27 28  1  0
 29 28  1  1
 29 30  1  0
 30 22  1  0
 31 33  1  0
 31 29  1  0
 32 31  2  0
M  END
$$$$
