EWQ.pdb
     RDKit          3D

 33 34  0  0  1  0  0  0  0  0999 V2000
   27.8947  -21.7535  -14.3095 N   0  0  0  0  0  0  0  0  0  0  0  0
   27.2760  -20.6253  -13.6212 C   0  0  1  0  0  0  0  0  0  0  0  0
   26.4490  -19.8074  -14.5517 C   0  0  0  0  0  0  0  0  0  0  0  0
   26.9312  -19.7402  -15.9613 C   0  0  0  0  0  0  0  0  0  0  0  0
   28.0160  -18.7068  -16.0021 C   0  0  0  0  0  0  0  0  0  0  0  0
   27.7954  -17.6000  -15.4787 O   0  0  0  0  0  0  0  0  0  0  0  0
   26.5666  -21.1463  -12.4479 C   0  0  0  0  0  0  0  0  0  0  0  0
   25.8885  -22.2160  -12.4954 O   0  0  0  0  0  0  0  0  0  0  0  0
   29.2352  -18.9280  -16.5886 O   0  0  0  0  0  0  0  0  0  0  0  0
   26.5805  -20.5014  -11.1714 N   0  0  0  0  0  0  0  0  0  0  0  0
   25.5962  -20.7464  -10.1468 C   0  0  1  0  0  0  0  0  0  0  0  0
   26.0074  -19.9021   -8.9388 C   0  0  0  0  0  0  0  0  0  0  0  0
   27.3608  -20.2944   -8.4629 C   0  0  0  0  0  0  0  0  0  0  0  0
   28.3073  -21.0561   -9.1257 C   0  0  0  0  0  0  0  0  0  0  0  0
   29.4066  -21.1854   -8.3470 N   0  0  0  0  0  0  0  0  0  0  0  0
   29.2153  -20.5306   -7.1863 C   0  0  0  0  0  0  0  0  0  0  0  0
   30.0286  -20.3695   -6.0836 C   0  0  0  0  0  0  0  0  0  0  0  0
   29.5278  -19.6277   -5.0392 C   0  0  0  0  0  0  0  0  0  0  0  0
   28.2552  -19.0627   -5.0899 C   0  0  0  0  0  0  0  0  0  0  0  0
   27.4624  -19.2355   -6.1968 C   0  0  0  0  0  0  0  0  0  0  0  0
   27.9408  -19.9722   -7.2521 C   0  0  0  0  0  0  0  0  0  0  0  0
   24.2416  -20.3311  -10.6031 C   0  0  0  0  0  0  0  0  0  0  0  0
   24.1365  -19.4546  -11.4982 O   0  0  0  0  0  0  0  0  0  0  0  0
   21.9035  -19.9745  -14.4553 N   0  0  0  0  0  0  0  0  0  0  0  0
   20.6635  -20.5987  -14.1442 C   0  0  0  0  0  0  0  0  0  0  0  0
   19.7528  -20.5695  -14.9949 O   0  0  0  0  0  0  0  0  0  0  0  0
   20.5667  -21.2389  -12.8106 C   0  0  0  0  0  0  0  0  0  0  0  0
   21.8429  -21.2567  -12.0430 C   0  0  0  0  0  0  0  0  0  0  0  0
   21.7647  -20.6423  -10.6677 C   0  0  2  0  0  0  0  0  0  0  0  0
   23.0778  -20.8972  -10.0553 N   0  0  0  0  0  0  0  0  0  0  0  0
   20.7444  -21.2845   -9.8094 C   0  0  0  0  0  0  0  0  0  0  0  0
   21.0817  -22.0566   -8.8853 O   0  0  0  0  0  0  0  0  0  0  0  0
   19.3972  -21.0472  -10.0079 O   0  0  0  0  0  0  0  0  0  0  0  0
  2  1  1  6
  2  3  1  0
  3  4  1  0
  4  5  1  0
  5  6  2  0
  7  8  2  0
  7  2  1  0
  9  5  1  0
 10  7  1  0
 11 10  1  0
 11 12  1  1
 12 13  1  0
 13 14  2  0
 13 21  1  0
 14 15  1  0
 15 16  1  0
 16 17  2  0
 18 17  1  0
 19 18  2  0
 20 21  2  0
 20 19  1  0
 21 16  1  0
 22 11  1  0
 23 22  2  0
 24 25  1  0
 25 26  2  0
 25 27  1  0
 27 28  1  0
 29 28  1  6
 29 30  1  0
 30 22  1  0
 31 33  1  0
 31 29  1  0
 32 31  2  0
M  END
$$$$
