EWQ.pdb
     RDKit          3D

 33 34  0  0  1  0  0  0  0  0999 V2000
   24.8786  -21.1627  -16.2191 N   0  0  0  0  0  0  0  0  0  0  0  0
   24.4875  -22.2435  -15.3200 C   0  0  1  0  0  0  0  0  0  0  0  0
   25.6614  -22.7910  -14.5843 C   0  0  0  0  0  0  0  0  0  0  0  0
   26.6439  -23.5555  -15.4054 C   0  0  0  0  0  0  0  0  0  0  0  0
   25.9409  -24.7866  -15.8918 C   0  0  0  0  0  0  0  0  0  0  0  0
   25.0404  -24.6547  -16.7398 O   0  0  0  0  0  0  0  0  0  0  0  0
   23.3930  -21.7540  -14.4752 C   0  0  0  0  0  0  0  0  0  0  0  0
   23.5719  -20.8524  -13.6027 O   0  0  0  0  0  0  0  0  0  0  0  0
   26.2464  -26.0459  -15.4442 O   0  0  0  0  0  0  0  0  0  0  0  0
   22.0526  -22.2452  -14.5638 N   0  0  0  0  0  0  0  0  0  0  0  0
   20.9632  -21.7279  -13.7738 C   0  0  1  0  0  0  0  0  0  0  0  0
   20.0691  -20.9376  -14.7315 C   0  0  0  0  0  0  0  0  0  0  0  0
   20.5300  -19.5273  -14.8335 C   0  0  0  0  0  0  0  0  0  0  0  0
   21.2549  -18.9417  -15.8568 C   0  0  0  0  0  0  0  0  0  0  0  0
   21.4734  -17.6383  -15.5649 N   0  0  0  0  0  0  0  0  0  0  0  0
   20.9134  -17.3435  -14.3766 C   0  0  0  0  0  0  0  0  0  0  0  0
   20.8631  -16.1673  -13.6573 C   0  0  0  0  0  0  0  0  0  0  0  0
   20.1998  -16.1979  -12.4527 C   0  0  0  0  0  0  0  0  0  0  0  0
   19.6042  -17.3642  -11.9773 C   0  0  0  0  0  0  0  0  0  0  0  0
   19.6662  -18.5237  -12.7091 C   0  0  0  0  0  0  0  0  0  0  0  0
   20.3230  -18.5176  -13.9148 C   0  0  0  0  0  0  0  0  0  0  0  0
   20.1781  -22.8356  -13.1638 C   0  0  0  0  0  0  0  0  0  0  0  0
   19.9910  -23.8908  -13.8213 O   0  0  0  0  0  0  0  0  0  0  0  0
   17.7973  -25.4374   -6.6751 N   0  0  0  0  0  0  0  0  0  0  0  0
   18.4884  -24.5107   -7.5044 C   0  0  0  0  0  0  0  0  0  0  0  0
   19.1401  -23.5973   -6.9613 O   0  0  0  0  0  0  0  0  0  0  0  0
   18.3671  -24.7207   -8.9670 C   0  0  0  0  0  0  0  0  0  0  0  0
   19.1310  -23.7453   -9.7936 C   0  0  0  0  0  0  0  0  0  0  0  0
   18.8881  -23.8451  -11.2789 C   0  0  2  0  0  0  0  0  0  0  0  0
   19.6413  -22.7280  -11.8696 N   0  0  0  0  0  0  0  0  0  0  0  0
   17.4653  -23.6599  -11.6415 C   0  0  0  0  0  0  0  0  0  0  0  0
   16.9879  -22.5134  -11.7881 O   0  0  0  0  0  0  0  0  0  0  0  0
   16.6317  -24.7469  -11.8264 O   0  0  0  0  0  0  0  0  0  0  0  0
  2  1  1  1
  2  3  1  0
  3  4  1  0
  4  5  1  0
  5  6  2  0
  7  8  2  0
  7  2  1  0
  9  5  1  0
 10  7  1  0
 11 10  1  0
 11 12  1  6
 12 13  1  0
 13 14  2  0
 13 21  1  0
 14 15  1  0
 15 16  1  0
 16 17  2  0
 18 17  1  0
 19 18  2  0
 20 21  2  0
 20 19  1  0
 21 16  1  0
 22 11  1  0
 23 22  2  0
 24 25  1  0
 25 26  2  0
 25 27  1  0
 27 28  1  0
 29 28  1  1
 29 30  1  0
 30 22  1  0
 31 33  1  0
 31 29  1  0
 32 31  2  0
M  END
$$$$
