LLP.pdb
     RDKit          3D

 24 24  0  0  1  0  0  0  0  0999 V2000
   23.1227  -19.2116  -12.5414 C   0  0  0  0  0  0  0  0  0  0  0  0
   22.5614  -20.5048  -11.9569 C   0  0  2  0  0  0  0  0  0  0  0  0
   21.2192  -20.2360  -11.2938 C   0  0  0  0  0  0  0  0  0  0  0  0
   23.5339  -21.0272  -10.9139 C   0  0  0  0  0  0  0  0  0  0  0  0
   24.9350  -21.0029  -11.4755 C   0  0  2  0  0  0  0  0  0  0  0  0
   25.0949  -21.9863  -12.5282 N   0  0  0  0  0  0  0  0  0  0  0  0
   25.8917  -21.2763  -10.3481 C   0  0  0  0  0  0  0  0  0  0  0  0
   25.7600  -22.3675   -9.7224 O   0  0  0  0  0  0  0  0  0  0  0  0
   30.9968  -21.0333  -11.1490 C   0  0  0  0  0  0  0  0  0  0  0  0
   29.6399  -21.5100  -10.5727 C   0  0  1  0  0  0  0  0  0  0  0  0
   29.9492  -22.9046  -10.0380 C   0  0  0  0  0  0  0  0  0  0  0  0
   29.2149  -20.5941   -9.4825 C   0  0  0  0  0  0  0  0  0  0  0  0
   27.8709  -20.7380   -8.8950 C   0  0  2  0  0  0  0  0  0  0  0  0
   26.8968  -20.3762   -9.9851 N   0  0  0  0  0  0  0  0  0  0  0  0
   27.4934  -20.0437   -7.6770 C   0  0  0  0  0  0  0  0  0  0  0  0
   26.5410  -19.1754   -7.8029 O   0  0  0  0  0  0  0  0  0  0  0  0
   28.0565  -20.2458   -6.3867 N   0  0  0  0  0  0  0  0  0  0  0  0
   28.9203  -21.3411   -5.9934 C   0  0  0  0  0  0  0  0  0  0  0  0
   28.1679  -21.7253   -4.6884 C   0  0  0  0  0  0  0  0  0  0  0  0
   28.1459  -20.3698   -4.0201 C   0  0  0  0  0  0  0  0  0  0  0  0
   27.7980  -19.4543   -5.2092 C   0  0  1  0  0  0  0  0  0  0  0  0
   28.5736  -18.2363   -5.0551 C   0  0  0  0  0  0  0  0  0  0  0  0
   29.4960  -17.9419   -5.8366 O   0  0  0  0  0  0  0  0  0  0  0  0
   28.2800  -17.3538   -3.9907 O   0  0  0  0  0  0  0  0  0  0  0  0
  2  1  1  1
  2  3  1  0
  4  2  1  0
  5  4  1  0
  5  6  1  6
  7  8  2  0
  7  5  1  0
 10  9  1  1
 11 10  1  0
 12 10  1  0
 13 12  1  6
 13 14  1  0
 14  7  1  0
 15 13  1  0
 16 15  2  0
 17 15  1  0
 18 17  1  0
 19 18  1  0
 19 20  1  0
 20 21  1  0
 21 17  1  0
 21 22  1  6
 23 22  2  0
 24 22  1  0
M  END
$$$$
