LLP.pdb
     RDKit          3D

 24 24  0  0  1  0  0  0  0  0999 V2000
   26.2717  -15.9073  -14.8396 C   0  0  0  0  0  0  0  0  0  0  0  0
   26.6353  -15.3980  -16.2315 C   0  0  2  0  0  0  0  0  0  0  0  0
   27.8203  -14.4485  -16.1446 C   0  0  0  0  0  0  0  0  0  0  0  0
   25.4420  -14.6509  -16.8011 C   0  0  0  0  0  0  0  0  0  0  0  0
   24.3176  -15.6236  -17.0632 C   0  0  2  0  0  0  0  0  0  0  0  0
   24.7208  -16.6494  -18.0045 N   0  0  0  0  0  0  0  0  0  0  0  0
   23.1470  -14.8465  -17.5986 C   0  0  0  0  0  0  0  0  0  0  0  0
   23.2006  -14.4667  -18.8038 O   0  0  0  0  0  0  0  0  0  0  0  0
   17.8247  -14.6824  -18.5646 C   0  0  0  0  0  0  0  0  0  0  0  0
   18.3146  -13.9431  -17.2942 C   0  0  1  0  0  0  0  0  0  0  0  0
   17.2577  -14.2886  -16.2501 C   0  0  0  0  0  0  0  0  0  0  0  0
   19.6514  -14.4611  -16.9033 C   0  0  0  0  0  0  0  0  0  0  0  0
   20.8650  -13.8069  -17.4240 C   0  0  2  0  0  0  0  0  0  0  0  0
   22.0303  -14.5422  -16.8159 N   0  0  0  0  0  0  0  0  0  0  0  0
   21.0826  -12.3787  -17.2794 C   0  0  0  0  0  0  0  0  0  0  0  0
   21.7533  -12.0204  -16.2312 O   0  0  0  0  0  0  0  0  0  0  0  0
   20.6465  -11.3679  -18.1799 N   0  0  0  0  0  0  0  0  0  0  0  0
   20.0879  -11.5824  -19.4999 C   0  0  0  0  0  0  0  0  0  0  0  0
   20.9720  -10.5518  -20.2567 C   0  0  0  0  0  0  0  0  0  0  0  0
   20.7030   -9.3355  -19.4007 C   0  0  0  0  0  0  0  0  0  0  0  0
   20.7655   -9.9437  -17.9867 C   0  0  1  0  0  0  0  0  0  0  0  0
   19.7308   -9.3008  -17.1963 C   0  0  0  0  0  0  0  0  0  0  0  0
   18.6771   -9.8884  -16.8914 O   0  0  0  0  0  0  0  0  0  0  0  0
   19.9164   -7.9705  -16.7559 O   0  0  0  0  0  0  0  0  0  0  0  0
  2  1  1  1
  2  3  1  0
  4  2  1  0
  5  4  1  0
  5  6  1  6
  7  8  2  0
  7  5  1  0
 10  9  1  6
 11 10  1  0
 12 10  1  0
 13 12  1  1
 13 14  1  0
 14  7  1  0
 15 13  1  0
 16 15  2  0
 17 15  1  0
 18 17  1  0
 19 18  1  0
 19 20  1  0
 20 21  1  0
 21 17  1  0
 21 22  1  1
 23 22  2  0
 24 22  1  0
M  END
$$$$
