LLP.pdb
     RDKit          3D

 24 24  0  0  1  0  0  0  0  0999 V2000
   18.6954  -19.7500  -17.0161 C   0  0  0  0  0  0  0  0  0  0  0  0
   18.4863  -19.6396  -15.5085 C   0  0  2  0  0  0  0  0  0  0  0  0
   17.4438  -18.5746  -15.2047 C   0  0  0  0  0  0  0  0  0  0  0  0
   19.8031  -19.2424  -14.8645 C   0  0  0  0  0  0  0  0  0  0  0  0
   20.8861  -20.1987  -15.3023 C   0  0  2  0  0  0  0  0  0  0  0  0
   20.5574  -21.5635  -14.9414 N   0  0  0  0  0  0  0  0  0  0  0  0
   22.1719  -19.7749  -14.6481 C   0  0  0  0  0  0  0  0  0  0  0  0
   22.4799  -18.5495  -14.7055 O   0  0  0  0  0  0  0  0  0  0  0  0
   25.2078  -20.3783   -9.7104 C   0  0  0  0  0  0  0  0  0  0  0  0
   25.5628  -20.2780  -11.2152 C   0  0  1  0  0  0  0  0  0  0  0  0
   26.6282  -21.3533  -11.4031 C   0  0  0  0  0  0  0  0  0  0  0  0
   24.3539  -20.5654  -12.0301 C   0  0  0  0  0  0  0  0  0  0  0  0
   24.3435  -20.2183  -13.4624 C   0  0  2  0  0  0  0  0  0  0  0  0
   23.0126  -20.6799  -13.9951 N   0  0  0  0  0  0  0  0  0  0  0  0
   25.3914  -20.6653  -14.3625 C   0  0  0  0  0  0  0  0  0  0  0  0
   25.1878  -21.8118  -14.9290 O   0  0  0  0  0  0  0  0  0  0  0  0
   26.5842  -19.9583  -14.6789 N   0  0  0  0  0  0  0  0  0  0  0  0
   27.0249  -18.7145  -14.0794 C   0  0  0  0  0  0  0  0  0  0  0  0
   27.3510  -17.9644  -15.4013 C   0  0  0  0  0  0  0  0  0  0  0  0
   28.2715  -18.9845  -16.0313 C   0  0  0  0  0  0  0  0  0  0  0  0
   27.5264  -20.2957  -15.7172 C   0  0  1  0  0  0  0  0  0  0  0  0
   28.5304  -21.2933  -15.3923 C   0  0  0  0  0  0  0  0  0  0  0  0
   28.7652  -21.6301  -14.2176 O   0  0  0  0  0  0  0  0  0  0  0  0
   29.2667  -21.9047  -16.4324 O   0  0  0  0  0  0  0  0  0  0  0  0
  2  1  1  6
  2  3  1  0
  4  2  1  0
  5  4  1  0
  5  6  1  1
  7  8  2  0
  7  5  1  0
 10  9  1  1
 11 10  1  0
 12 10  1  0
 13 12  1  1
 13 14  1  0
 14  7  1  0
 15 13  1  0
 16 15  2  0
 17 15  1  0
 18 17  1  0
 19 18  1  0
 19 20  1  0
 20 21  1  0
 21 17  1  0
 21 22  1  1
 23 22  2  0
 24 22  1  0
M  END
$$$$
