LLP.pdb
     RDKit          3D

 24 24  0  0  1  0  0  0  0  0999 V2000
   20.5263  -23.4062  -15.2195 C   0  0  0  0  0  0  0  0  0  0  0  0
   19.7571  -22.0998  -15.3947 C   0  0  2  0  0  0  0  0  0  0  0  0
   19.4873  -21.8491  -16.8704 C   0  0  0  0  0  0  0  0  0  0  0  0
   20.6010  -20.9632  -14.8447 C   0  0  0  0  0  0  0  0  0  0  0  0
   21.2143  -21.3821  -13.5304 C   0  0  2  0  0  0  0  0  0  0  0  0
   20.3455  -21.0527  -12.4180 N   0  0  0  0  0  0  0  0  0  0  0  0
   22.5378  -20.6820  -13.3918 C   0  0  0  0  0  0  0  0  0  0  0  0
   22.5201  -19.4569  -13.0781 O   0  0  0  0  0  0  0  0  0  0  0  0
   26.2662  -21.8773  -10.0752 C   0  0  0  0  0  0  0  0  0  0  0  0
   25.2981  -21.1249  -11.0225 C   0  0  1  0  0  0  0  0  0  0  0  0
   25.3128  -19.6968  -10.4872 C   0  0  0  0  0  0  0  0  0  0  0  0
   25.8173  -21.1870  -12.4135 C   0  0  0  0  0  0  0  0  0  0  0  0
   25.0463  -20.5664  -13.5054 C   0  0  2  0  0  0  0  0  0  0  0  0
   23.7552  -21.3365  -13.5963 N   0  0  0  0  0  0  0  0  0  0  0  0
   25.5996  -20.4162  -14.8393 C   0  0  0  0  0  0  0  0  0  0  0  0
   25.0761  -21.1752  -15.7485 O   0  0  0  0  0  0  0  0  0  0  0  0
   26.6305  -19.5149  -15.2238 N   0  0  0  0  0  0  0  0  0  0  0  0
   27.1946  -18.4617  -14.4034 C   0  0  0  0  0  0  0  0  0  0  0  0
   27.1032  -17.3223  -15.4571 C   0  0  0  0  0  0  0  0  0  0  0  0
   27.8265  -17.9979  -16.5995 C   0  0  0  0  0  0  0  0  0  0  0  0
   27.2385  -19.4199  -16.5280 C   0  0  1  0  0  0  0  0  0  0  0  0
   28.3187  -20.3466  -16.8167 C   0  0  0  0  0  0  0  0  0  0  0  0
   28.7893  -21.0987  -15.9441 O   0  0  0  0  0  0  0  0  0  0  0  0
   28.8573  -20.4034  -18.1223 O   0  0  0  0  0  0  0  0  0  0  0  0
  2  1  1  6
  2  3  1  0
  4  2  1  0
  5  4  1  0
  5  6  1  1
  7  8  2  0
  7  5  1  0
 10  9  1  1
 11 10  1  0
 12 10  1  0
 13 12  1  1
 13 14  1  0
 14  7  1  0
 15 13  1  0
 16 15  2  0
 17 15  1  0
 18 17  1  0
 19 18  1  0
 19 20  1  0
 20 21  1  0
 21 17  1  0
 21 22  1  1
 23 22  2  0
 24 22  1  0
M  END
$$$$
