LLP.pdb
     RDKit          3D

 24 24  0  0  1  0  0  0  0  0999 V2000
   20.9319  -16.2835  -18.2710 C   0  0  0  0  0  0  0  0  0  0  0  0
   20.5564  -17.6525  -18.8310 C   0  0  2  0  0  0  0  0  0  0  0  0
   19.0891  -17.9426  -18.5548 C   0  0  0  0  0  0  0  0  0  0  0  0
   21.4078  -18.7067  -18.1452 C   0  0  0  0  0  0  0  0  0  0  0  0
   22.8657  -18.3351  -18.2699 C   0  0  2  0  0  0  0  0  0  0  0  0
   23.3773  -18.6550  -19.5877 N   0  0  0  0  0  0  0  0  0  0  0  0
   23.6276  -19.0841  -17.2118 C   0  0  0  0  0  0  0  0  0  0  0  0
   23.7740  -20.3304  -17.3697 O   0  0  0  0  0  0  0  0  0  0  0  0
   27.7511  -16.6327  -14.8329 C   0  0  0  0  0  0  0  0  0  0  0  0
   26.8412  -17.6422  -15.5768 C   0  0  1  0  0  0  0  0  0  0  0  0
   27.8317  -18.5645  -16.2803 C   0  0  0  0  0  0  0  0  0  0  0  0
   26.0155  -18.3861  -14.5904 C   0  0  0  0  0  0  0  0  0  0  0  0
   24.9236  -19.2548  -15.0647 C   0  0  2  0  0  0  0  0  0  0  0  0
   24.1639  -18.4515  -16.0872 N   0  0  0  0  0  0  0  0  0  0  0  0
   23.9776  -19.8608  -14.1448 C   0  0  0  0  0  0  0  0  0  0  0  0
   22.8447  -19.2452  -14.0246 O   0  0  0  0  0  0  0  0  0  0  0  0
   24.1804  -21.0538  -13.3974 N   0  0  0  0  0  0  0  0  0  0  0  0
   25.2618  -22.0017  -13.5776 C   0  0  0  0  0  0  0  0  0  0  0  0
   24.3911  -23.2892  -13.6066 C   0  0  0  0  0  0  0  0  0  0  0  0
   23.6328  -23.0912  -12.3142 C   0  0  0  0  0  0  0  0  0  0  0  0
   23.2995  -21.5891  -12.3888 C   0  0  1  0  0  0  0  0  0  0  0  0
   23.4364  -21.0513  -11.0468 C   0  0  0  0  0  0  0  0  0  0  0  0
   22.5541  -21.2082  -10.1834 O   0  0  0  0  0  0  0  0  0  0  0  0
   24.6008  -20.3280  -10.7019 O   0  0  0  0  0  0  0  0  0  0  0  0
  2  1  1  1
  2  3  1  0
  4  2  1  0
  5  4  1  0
  5  6  1  6
  7  8  2  0
  7  5  1  0
 10  9  1  1
 11 10  1  0
 12 10  1  0
 13 12  1  1
 13 14  1  0
 14  7  1  0
 15 13  1  0
 16 15  2  0
 17 15  1  0
 18 17  1  0
 19 18  1  0
 19 20  1  0
 20 21  1  0
 21 17  1  0
 21 22  1  1
 23 22  2  0
 24 22  1  0
M  END
$$$$
