LLP.pdb
     RDKit          3D

 24 24  0  0  1  0  0  0  0  0999 V2000
   19.7712  -22.8570  -16.0617 C   0  0  0  0  0  0  0  0  0  0  0  0
   19.8246  -21.5699  -16.8800 C   0  0  2  0  0  0  0  0  0  0  0  0
   20.0482  -21.8963  -18.3486 C   0  0  0  0  0  0  0  0  0  0  0  0
   20.9822  -20.7245  -16.3781 C   0  0  0  0  0  0  0  0  0  0  0  0
   20.8283  -20.4904  -14.8947 C   0  0  2  0  0  0  0  0  0  0  0  0
   19.8296  -19.4751  -14.6251 N   0  0  0  0  0  0  0  0  0  0  0  0
   22.1660  -20.0729  -14.3495 C   0  0  0  0  0  0  0  0  0  0  0  0
   22.5311  -18.8787  -14.5499 O   0  0  0  0  0  0  0  0  0  0  0  0
   25.3932  -20.7550   -9.4961 C   0  0  0  0  0  0  0  0  0  0  0  0
   25.6513  -20.4552  -10.9941 C   0  0  1  0  0  0  0  0  0  0  0  0
   26.9204  -21.2431  -11.3024 C   0  0  0  0  0  0  0  0  0  0  0  0
   24.5027  -20.9411  -11.8021 C   0  0  0  0  0  0  0  0  0  0  0  0
   24.3608  -20.5012  -13.2015 C   0  0  2  0  0  0  0  0  0  0  0  0
   22.9936  -20.9509  -13.6449 N   0  0  0  0  0  0  0  0  0  0  0  0
   25.3300  -20.8692  -14.2181 C   0  0  0  0  0  0  0  0  0  0  0  0
   25.1022  -21.9900  -14.8254 O   0  0  0  0  0  0  0  0  0  0  0  0
   26.4700  -20.1116  -14.6044 N   0  0  0  0  0  0  0  0  0  0  0  0
   26.8816  -18.8405  -14.0428 C   0  0  0  0  0  0  0  0  0  0  0  0
   27.1030  -18.0942  -15.3884 C   0  0  0  0  0  0  0  0  0  0  0  0
   28.0370  -19.0786  -16.0541 C   0  0  0  0  0  0  0  0  0  0  0  0
   27.3721  -20.4188  -15.6868 C   0  0  1  0  0  0  0  0  0  0  0  0
   28.4377  -21.3638  -15.4035 C   0  0  0  0  0  0  0  0  0  0  0  0
   28.7324  -21.6918  -14.2399 O   0  0  0  0  0  0  0  0  0  0  0  0
   29.1665  -21.9326  -16.4728 O   0  0  0  0  0  0  0  0  0  0  0  0
  2  1  1  1
  2  3  1  0
  4  2  1  0
  5  4  1  0
  5  6  1  6
  7  8  2  0
  7  5  1  0
 10  9  1  1
 11 10  1  0
 12 10  1  0
 13 12  1  1
 13 14  1  0
 14  7  1  0
 15 13  1  0
 16 15  2  0
 17 15  1  0
 18 17  1  0
 19 18  1  0
 19 20  1  0
 20 21  1  0
 21 17  1  0
 21 22  1  1
 23 22  2  0
 24 22  1  0
M  END
$$$$
