LLP.pdb
     RDKit          3D

 24 24  0  0  1  0  0  0  0  0999 V2000
   20.9992  -22.7052  -12.3436 C   0  0  0  0  0  0  0  0  0  0  0  0
   21.7965  -22.3254  -13.5882 C   0  0  2  0  0  0  0  0  0  0  0  0
   21.9924  -23.5470  -14.4729 C   0  0  0  0  0  0  0  0  0  0  0  0
   23.1554  -21.8052  -13.1531 C   0  0  0  0  0  0  0  0  0  0  0  0
   22.9709  -20.6060  -12.2548 C   0  0  2  0  0  0  0  0  0  0  0  0
   22.3787  -19.4970  -12.9761 N   0  0  0  0  0  0  0  0  0  0  0  0
   24.3191  -20.2220  -11.7107 C   0  0  0  0  0  0  0  0  0  0  0  0
   25.0711  -19.5258  -12.4519 O   0  0  0  0  0  0  0  0  0  0  0  0
   26.8597  -19.4400   -6.2635 C   0  0  0  0  0  0  0  0  0  0  0  0
   27.1723  -19.4486   -7.7809 C   0  0  1  0  0  0  0  0  0  0  0  0
   28.4593  -20.2618   -7.8757 C   0  0  0  0  0  0  0  0  0  0  0  0
   26.0600  -20.1084   -8.5128 C   0  0  0  0  0  0  0  0  0  0  0  0
   26.1391  -20.2543   -9.9772 C   0  0  2  0  0  0  0  0  0  0  0  0
   24.7493  -20.6065  -10.4382 N   0  0  0  0  0  0  0  0  0  0  0  0
   27.0860  -21.1599  -10.6028 C   0  0  0  0  0  0  0  0  0  0  0  0
   26.7775  -22.4162  -10.5447 O   0  0  0  0  0  0  0  0  0  0  0  0
   28.2849  -20.7893  -11.2723 N   0  0  0  0  0  0  0  0  0  0  0  0
   28.7433  -19.4366  -11.5182 C   0  0  0  0  0  0  0  0  0  0  0  0
   29.0701  -19.6117  -13.0279 C   0  0  0  0  0  0  0  0  0  0  0  0
   29.9751  -20.8188  -12.9356 C   0  0  0  0  0  0  0  0  0  0  0  0
   29.2170  -21.6849  -11.9118 C   0  0  1  0  0  0  0  0  0  0  0  0
   30.2115  -22.3133  -11.0603 C   0  0  0  0  0  0  0  0  0  0  0  0
   30.3592  -21.9833   -9.8696 O   0  0  0  0  0  0  0  0  0  0  0  0
   31.0396  -23.3292  -11.5895 O   0  0  0  0  0  0  0  0  0  0  0  0
  2  1  1  1
  2  3  1  0
  4  2  1  0
  5  4  1  0
  5  6  1  6
  7  8  2  0
  7  5  1  0
 10  9  1  1
 11 10  1  0
 12 10  1  0
 13 12  1  1
 13 14  1  0
 14  7  1  0
 15 13  1  0
 16 15  2  0
 17 15  1  0
 18 17  1  0
 19 18  1  0
 19 20  1  0
 20 21  1  0
 21 17  1  0
 21 22  1  1
 23 22  2  0
 24 22  1  0
M  END
$$$$
