LLP.pdb
     RDKit          3D

 24 24  0  0  1  0  0  0  0  0999 V2000
   23.5609  -21.7638  -12.3995 C   0  0  0  0  0  0  0  0  0  0  0  0
   23.2785  -20.3282  -11.9653 C   0  0  2  0  0  0  0  0  0  0  0  0
   22.9411  -19.4750  -13.1784 C   0  0  0  0  0  0  0  0  0  0  0  0
   24.5233  -19.7704  -11.2975 C   0  0  0  0  0  0  0  0  0  0  0  0
   25.0322  -20.7588  -10.2761 C   0  0  2  0  0  0  0  0  0  0  0  0
   24.1423  -20.8381   -9.1348 N   0  0  0  0  0  0  0  0  0  0  0  0
   26.4038  -20.3171   -9.8463 C   0  0  0  0  0  0  0  0  0  0  0  0
   27.2033  -19.9344  -10.7484 O   0  0  0  0  0  0  0  0  0  0  0  0
   29.5096  -18.9331   -4.9331 C   0  0  0  0  0  0  0  0  0  0  0  0
   28.2884  -19.5991   -5.6154 C   0  0  1  0  0  0  0  0  0  0  0  0
   27.1199  -19.2081   -4.7164 C   0  0  0  0  0  0  0  0  0  0  0  0
   28.1248  -19.0486   -6.9860 C   0  0  0  0  0  0  0  0  0  0  0  0
   28.2201  -19.9506   -8.1476 C   0  0  2  0  0  0  0  0  0  0  0  0
   26.8051  -20.3197   -8.5079 N   0  0  0  0  0  0  0  0  0  0  0  0
   29.0266  -21.1574   -8.1113 C   0  0  0  0  0  0  0  0  0  0  0  0
   28.3776  -22.2548   -7.8844 O   0  0  0  0  0  0  0  0  0  0  0  0
   30.4318  -21.2342   -8.3166 N   0  0  0  0  0  0  0  0  0  0  0  0
   31.3011  -20.1386   -8.6965 C   0  0  0  0  0  0  0  0  0  0  0  0
   32.0446  -20.8690   -9.8499 C   0  0  0  0  0  0  0  0  0  0  0  0
   32.4970  -22.0996   -9.0979 C   0  0  0  0  0  0  0  0  0  0  0  0
   31.2358  -22.4309   -8.2777 C   0  0  1  0  0  0  0  0  0  0  0  0
   31.6794  -22.8802   -6.9700 C   0  0  0  0  0  0  0  0  0  0  0  0
   31.5483  -22.1740   -5.9538 O   0  0  0  0  0  0  0  0  0  0  0  0
   32.2778  -24.1538   -6.8373 O   0  0  0  0  0  0  0  0  0  0  0  0
  2  1  1  6
  2  3  1  0
  4  2  1  0
  5  4  1  0
  5  6  1  1
  7  8  2  0
  7  5  1  0
 10  9  1  1
 11 10  1  0
 12 10  1  0
 13 12  1  1
 13 14  1  0
 14  7  1  0
 15 13  1  0
 16 15  2  0
 17 15  1  0
 18 17  1  0
 19 18  1  0
 19 20  1  0
 20 21  1  0
 21 17  1  0
 21 22  1  1
 23 22  2  0
 24 22  1  0
M  END
$$$$
