LLP.pdb
     RDKit          3D

 24 24  0  0  1  0  0  0  0  0999 V2000
   23.8780  -29.0991  -22.8589 C   0  0  0  0  0  0  0  0  0  0  0  0
   25.0609  -29.8833  -23.4200 C   0  0  2  0  0  0  0  0  0  0  0  0
   24.6170  -31.2844  -23.8117 C   0  0  0  0  0  0  0  0  0  0  0  0
   26.1291  -29.9840  -22.3452 C   0  0  0  0  0  0  0  0  0  0  0  0
   26.3487  -28.6251  -21.7252 C   0  0  2  0  0  0  0  0  0  0  0  0
   27.2537  -27.8240  -22.5253 N   0  0  0  0  0  0  0  0  0  0  0  0
   26.9060  -28.8299  -20.3437 C   0  0  0  0  0  0  0  0  0  0  0  0
   28.0985  -29.2407  -20.2502 O   0  0  0  0  0  0  0  0  0  0  0  0
   26.4102  -25.3286  -16.3789 C   0  0  0  0  0  0  0  0  0  0  0  0
   26.9573  -26.3932  -17.3627 C   0  0  1  0  0  0  0  0  0  0  0  0
   28.4686  -26.3102  -17.1744 C   0  0  0  0  0  0  0  0  0  0  0  0
   26.4372  -27.7325  -16.9837 C   0  0  0  0  0  0  0  0  0  0  0  0
   26.7365  -28.8965  -17.8366 C   0  0  2  0  0  0  0  0  0  0  0  0
   26.1564  -28.5832  -19.1907 N   0  0  0  0  0  0  0  0  0  0  0  0
   26.3435  -30.2414  -17.4560 C   0  0  0  0  0  0  0  0  0  0  0  0
   25.2275  -30.6602  -17.9621 O   0  0  0  0  0  0  0  0  0  0  0  0
   27.0728  -31.1209  -16.6090 N   0  0  0  0  0  0  0  0  0  0  0  0
   28.3943  -30.8822  -16.0641 C   0  0  0  0  0  0  0  0  0  0  0  0
   29.0146  -32.2558  -16.4451 C   0  0  0  0  0  0  0  0  0  0  0  0
   27.9814  -33.1639  -15.8185 C   0  0  0  0  0  0  0  0  0  0  0  0
   26.6749  -32.4493  -16.2127 C   0  0  1  0  0  0  0  0  0  0  0  0
   25.7704  -32.5524  -15.0814 C   0  0  0  0  0  0  0  0  0  0  0  0
   25.4698  -31.5633  -14.3888 O   0  0  0  0  0  0  0  0  0  0  0  0
   25.2105  -33.8072  -14.7495 O   0  0  0  0  0  0  0  0  0  0  0  0
  2  1  1  1
  2  3  1  0
  4  2  1  0
  5  4  1  0
  5  6  1  6
  7  8  2  0
  7  5  1  0
 10  9  1  1
 11 10  1  0
 12 10  1  0
 13 12  1  1
 13 14  1  0
 14  7  1  0
 15 13  1  0
 16 15  2  0
 17 15  1  0
 18 17  1  0
 19 18  1  0
 19 20  1  0
 20 21  1  0
 21 17  1  0
 21 22  1  1
 23 22  2  0
 24 22  1  0
M  END
$$$$
