MGL.pdb
     RDKit          3D

 21 20  0  0  1  0  0  0  0  0999 V2000
    8.7507  -11.6162   18.3537 C   0  0  0  0  0  0  0  0  0  0  0  0
    8.3428  -12.7755   19.6486 S   0  0  0  0  0  0  0  0  0  0  0  0
    7.0593  -13.9116   19.1857 C   0  0  0  0  0  0  0  0  0  0  0  0
    6.5815  -14.7901   20.2855 C   0  0  0  0  0  0  0  0  0  0  0  0
    7.6114  -15.3194   21.2204 C   0  0  2  0  0  0  0  0  0  0  0  0
    8.3847  -16.4015   20.6659 N   0  0  0  0  0  0  0  0  0  0  0  0
    6.9799  -15.8003   22.5042 C   0  0  0  0  0  0  0  0  0  0  0  0
    6.2572  -14.9668   23.1303 O   0  0  0  0  0  0  0  0  0  0  0  0
    7.2145  -17.1224   22.9418 N   0  0  0  0  0  0  0  0  0  0  0  0
    6.6408  -17.5669   24.1834 C   0  0  0  0  0  0  0  0  0  0  0  0
    7.4245  -17.0068   25.3087 C   0  0  0  0  0  0  0  0  0  0  0  0
    7.6740  -17.7500   26.2911 O   0  0  0  0  0  0  0  0  0  0  0  0
    7.9506  -12.2643   25.4622 C   0  0  0  0  0  0  0  0  0  0  0  0
    6.9091  -13.1978   26.0918 C   0  0  2  0  0  0  0  0  0  0  0  0
    5.9331  -12.3103   26.8668 C   0  0  0  0  0  0  0  0  0  0  0  0
    7.6286  -14.0664   27.0565 C   0  0  0  0  0  0  0  0  0  0  0  0
    8.5736  -15.0539   26.4384 C   0  0  2  0  0  0  0  0  0  0  0  0
    7.9005  -15.6596   25.3095 N   0  0  0  0  0  0  0  0  0  0  0  0
    9.1516  -16.0251   27.3568 C   0  0  0  0  0  0  0  0  0  0  0  0
   10.3847  -16.1155   27.4928 O   0  0  0  0  0  0  0  0  0  0  0  0
    8.3389  -16.8590   28.0892 O   0  0  0  0  0  0  0  0  0  0  0  0
  2  1  1  0
  3  2  1  0
  4  5  1  0
  4  3  1  0
  5  6  1  6
  7  5  1  0
  7  8  2  0
  9  7  1  0
 10  9  1  0
 10 11  1  0
 11 18  1  0
 12 11  2  0
 14 13  1  1
 14 15  1  0
 16 14  1  0
 17 16  1  1
 17 19  1  0
 18 17  1  0
 19 21  1  0
 20 19  2  0
M  END
$$$$
