MGL.pdb
     RDKit          3D

 21 20  0  0  1  0  0  0  0  0999 V2000
    8.1352  -12.5894   17.6439 C   0  0  0  0  0  0  0  0  0  0  0  0
    7.1974  -12.3258   19.1400 S   0  0  0  0  0  0  0  0  0  0  0  0
    7.1420  -13.7583   20.1873 C   0  0  0  0  0  0  0  0  0  0  0  0
    7.9642  -14.9039   19.7164 C   0  0  0  0  0  0  0  0  0  0  0  0
    7.9349  -16.1395   20.5454 C   0  0  2  0  0  0  0  0  0  0  0  0
    6.9003  -16.1306   21.5483 N   0  0  0  0  0  0  0  0  0  0  0  0
    9.2592  -16.3586   21.2357 C   0  0  0  0  0  0  0  0  0  0  0  0
   10.2342  -16.7026   20.5008 O   0  0  0  0  0  0  0  0  0  0  0  0
    9.3535  -16.1762   22.6329 N   0  0  0  0  0  0  0  0  0  0  0  0
   10.6503  -16.0542   23.2426 C   0  0  0  0  0  0  0  0  0  0  0  0
   10.4836  -15.8091   24.6939 C   0  0  0  0  0  0  0  0  0  0  0  0
   11.5125  -15.6123   25.3885 O   0  0  0  0  0  0  0  0  0  0  0  0
    8.4637  -12.4715   26.5699 C   0  0  0  0  0  0  0  0  0  0  0  0
    7.5583  -13.5620   25.9836 C   0  0  2  0  0  0  0  0  0  0  0  0
    6.1219  -13.0462   26.0895 C   0  0  0  0  0  0  0  0  0  0  0  0
    7.6980  -14.7579   26.8516 C   0  0  0  0  0  0  0  0  0  0  0  0
    9.0026  -15.4867   26.7221 C   0  0  2  0  0  0  0  0  0  0  0  0
    9.1998  -15.7902   25.3209 N   0  0  0  0  0  0  0  0  0  0  0  0
    9.1615  -16.6433   27.5926 C   0  0  0  0  0  0  0  0  0  0  0  0
    9.1381  -17.7967   27.1275 O   0  0  0  0  0  0  0  0  0  0  0  0
    9.3401  -16.4756   28.9462 O   0  0  0  0  0  0  0  0  0  0  0  0
  2  1  1  0
  3  2  1  0
  4  5  1  0
  4  3  1  0
  5  6  1  1
  7  5  1  0
  7  8  2  0
  9  7  1  0
 10  9  1  0
 10 11  1  0
 11 18  1  0
 12 11  2  0
 14 13  1  1
 14 15  1  0
 16 14  1  0
 17 16  1  6
 17 19  1  0
 18 17  1  0
 19 21  1  0
 20 19  2  0
M  END
$$$$
