MGL.pdb
     RDKit          3D

 21 20  0  0  1  0  0  0  0  0999 V2000
    8.5177  -11.8079   18.7181 C   0  0  0  0  0  0  0  0  0  0  0  0
    6.9319  -12.4155   19.2687 S   0  0  0  0  0  0  0  0  0  0  0  0
    6.9419  -14.1526   19.6351 C   0  0  0  0  0  0  0  0  0  0  0  0
    8.2086  -14.6544   20.2298 C   0  0  0  0  0  0  0  0  0  0  0  0
    8.3182  -16.1236   20.4401 C   0  0  2  0  0  0  0  0  0  0  0  0
    7.1629  -16.6968   21.0829 N   0  0  0  0  0  0  0  0  0  0  0  0
    9.5345  -16.4619   21.2673 C   0  0  0  0  0  0  0  0  0  0  0  0
   10.4944  -17.0295   20.6626 O   0  0  0  0  0  0  0  0  0  0  0  0
    9.5516  -16.1408   22.6424 N   0  0  0  0  0  0  0  0  0  0  0  0
   10.7325  -16.4142   23.4163 C   0  0  0  0  0  0  0  0  0  0  0  0
   10.5167  -15.9589   24.8092 C   0  0  0  0  0  0  0  0  0  0  0  0
   11.4618  -16.0768   25.6293 O   0  0  0  0  0  0  0  0  0  0  0  0
    8.2100  -12.3782   26.8386 C   0  0  0  0  0  0  0  0  0  0  0  0
    7.3947  -13.3813   26.0128 C   0  0  2  0  0  0  0  0  0  0  0  0
    5.9351  -12.9284   26.0849 C   0  0  0  0  0  0  0  0  0  0  0  0
    7.5160  -14.6994   26.6842 C   0  0  0  0  0  0  0  0  0  0  0  0
    8.8835  -15.3138   26.6332 C   0  0  2  0  0  0  0  0  0  0  0  0
    9.2776  -15.3950   25.2431 N   0  0  0  0  0  0  0  0  0  0  0  0
    9.0303  -16.5724   27.3509 C   0  0  0  0  0  0  0  0  0  0  0  0
    9.4277  -16.5893   28.5295 O   0  0  0  0  0  0  0  0  0  0  0  0
    8.7307  -17.7644   26.7331 O   0  0  0  0  0  0  0  0  0  0  0  0
  2  1  1  0
  3  2  1  0
  4  5  1  0
  4  3  1  0
  5  6  1  1
  7  5  1  0
  7  8  2  0
  9  7  1  0
 10  9  1  0
 10 11  1  0
 11 18  1  0
 12 11  2  0
 14 13  1  1
 14 15  1  0
 16 14  1  0
 17 16  1  6
 17 19  1  0
 18 17  1  0
 19 21  1  0
 20 19  2  0
M  END
$$$$
