MGL.pdb
     RDKit          3D

 21 20  0  0  1  0  0  0  0  0999 V2000
    6.9922  -14.4400   15.1268 C   0  0  0  0  0  0  0  0  0  0  0  0
    8.1178  -14.0433   16.4545 S   0  0  0  0  0  0  0  0  0  0  0  0
    7.3167  -13.2704   17.8377 C   0  0  0  0  0  0  0  0  0  0  0  0
    8.2285  -12.8822   18.9458 C   0  0  0  0  0  0  0  0  0  0  0  0
    9.0024  -13.9750   19.5952 C   0  0  2  0  0  0  0  0  0  0  0  0
    9.3246  -15.0573   18.7001 N   0  0  0  0  0  0  0  0  0  0  0  0
    8.2490  -14.5448   20.7725 C   0  0  0  0  0  0  0  0  0  0  0  0
    7.8663  -13.7198   21.6568 O   0  0  0  0  0  0  0  0  0  0  0  0
    8.0087  -15.9349   20.8374 N   0  0  0  0  0  0  0  0  0  0  0  0
    7.2929  -16.4756   21.9614 C   0  0  0  0  0  0  0  0  0  0  0  0
    7.8359  -15.8915   23.2096 C   0  0  0  0  0  0  0  0  0  0  0  0
    9.0495  -16.0786   23.4781 O   0  0  0  0  0  0  0  0  0  0  0  0
    5.5176  -12.3409   27.7059 C   0  0  0  0  0  0  0  0  0  0  0  0
    6.7522  -13.1370   27.2647 C   0  0  2  0  0  0  0  0  0  0  0  0
    7.8907  -12.1286   27.0986 C   0  0  0  0  0  0  0  0  0  0  0  0
    6.4412  -13.7240   25.9375 C   0  0  0  0  0  0  0  0  0  0  0  0
    7.5177  -14.5954   25.3613 C   0  0  2  0  0  0  0  0  0  0  0  0
    7.0281  -15.1290   24.1084 N   0  0  0  0  0  0  0  0  0  0  0  0
    8.0435  -15.6149   26.2585 C   0  0  0  0  0  0  0  0  0  0  0  0
    8.9996  -15.3648   27.0139 O   0  0  0  0  0  0  0  0  0  0  0  0
    7.4882  -16.8732   26.2830 O   0  0  0  0  0  0  0  0  0  0  0  0
  2  1  1  0
  3  2  1  0
  4  5  1  0
  4  3  1  0
  5  6  1  6
  7  5  1  0
  7  8  2  0
  9  7  1  0
 10  9  1  0
 10 11  1  0
 11 18  1  0
 12 11  2  0
 14 13  1  6
 14 15  1  0
 16 14  1  0
 17 16  1  1
 17 19  1  0
 18 17  1  0
 19 21  1  0
 20 19  2  0
M  END
$$$$
