MGL.pdb
     RDKit          3D

 21 20  0  0  1  0  0  0  0  0999 V2000
    8.9667  -12.5051   20.1903 C   0  0  0  0  0  0  0  0  0  0  0  0
    7.1963  -12.7241   20.1209 S   0  0  0  0  0  0  0  0  0  0  0  0
    6.7151  -14.4058   19.8173 C   0  0  0  0  0  0  0  0  0  0  0  0
    7.5635  -15.4252   20.4889 C   0  0  0  0  0  0  0  0  0  0  0  0
    7.0813  -16.8327   20.4522 C   0  0  2  0  0  0  0  0  0  0  0  0
    5.6466  -16.9475   20.5223 N   0  0  0  0  0  0  0  0  0  0  0  0
    7.6747  -17.6369   21.5832 C   0  0  0  0  0  0  0  0  0  0  0  0
    8.2697  -18.7116   21.2667 O   0  0  0  0  0  0  0  0  0  0  0  0
    7.5455  -17.1711   22.9101 N   0  0  0  0  0  0  0  0  0  0  0  0
    6.2633  -16.7170   23.3769 C   0  0  0  0  0  0  0  0  0  0  0  0
    6.3723  -16.3385   24.8048 C   0  0  0  0  0  0  0  0  0  0  0  0
    5.3324  -15.9679   25.4056 O   0  0  0  0  0  0  0  0  0  0  0  0
    7.7501  -12.4723   24.9761 C   0  0  0  0  0  0  0  0  0  0  0  0
    6.7629  -13.3039   25.8046 C   0  0  2  0  0  0  0  0  0  0  0  0
    6.0675  -12.3358   26.7637 C   0  0  0  0  0  0  0  0  0  0  0  0
    7.5645  -14.2663   26.6009 C   0  0  0  0  0  0  0  0  0  0  0  0
    8.4098  -15.2074   25.7947 C   0  0  2  0  0  0  0  0  0  0  0  0
    7.6131  -16.3820   25.5119 N   0  0  0  0  0  0  0  0  0  0  0  0
    9.7153  -15.5162   26.3612 C   0  0  0  0  0  0  0  0  0  0  0  0
    9.8906  -16.5532   27.0256 O   0  0  0  0  0  0  0  0  0  0  0  0
   10.7766  -14.6624   26.1689 O   0  0  0  0  0  0  0  0  0  0  0  0
  2  1  1  0
  3  2  1  0
  4  5  1  0
  4  3  1  0
  5  6  1  1
  7  5  1  0
  7  8  2  0
  9  7  1  0
 10  9  1  0
 10 11  1  0
 11 18  1  0
 12 11  2  0
 14 13  1  6
 14 15  1  0
 16 14  1  0
 17 16  1  1
 17 19  1  0
 18 17  1  0
 19 21  1  0
 20 19  2  0
M  END
$$$$
