MGL.pdb
     RDKit          3D

 21 20  0  0  1  0  0  0  0  0999 V2000
   10.3363  -21.7376   18.6205 C   0  0  0  0  0  0  0  0  0  0  0  0
    8.5541  -21.7255   18.7236 S   0  0  0  0  0  0  0  0  0  0  0  0
    7.9425  -20.7529   20.0772 C   0  0  0  0  0  0  0  0  0  0  0  0
    8.8502  -19.6607   20.5168 C   0  0  0  0  0  0  0  0  0  0  0  0
    8.3994  -18.8333   21.6688 C   0  0  2  0  0  0  0  0  0  0  0  0
    7.1059  -18.2308   21.4684 N   0  0  0  0  0  0  0  0  0  0  0  0
    9.3907  -17.7344   21.9656 C   0  0  0  0  0  0  0  0  0  0  0  0
   10.5742  -18.0956   22.2450 O   0  0  0  0  0  0  0  0  0  0  0  0
    8.9695  -16.3872   21.9207 N   0  0  0  0  0  0  0  0  0  0  0  0
    9.9098  -15.3434   22.2281 C   0  0  0  0  0  0  0  0  0  0  0  0
    9.9265  -15.1203   23.6924 C   0  0  0  0  0  0  0  0  0  0  0  0
   11.0297  -14.8905   24.2491 O   0  0  0  0  0  0  0  0  0  0  0  0
    7.7982  -11.9130   26.1700 C   0  0  0  0  0  0  0  0  0  0  0  0
    6.9900  -13.0371   25.5100 C   0  0  2  0  0  0  0  0  0  0  0  0
    5.5140  -12.7307   25.7713 C   0  0  0  0  0  0  0  0  0  0  0  0
    7.3438  -14.2973   26.2096 C   0  0  0  0  0  0  0  0  0  0  0  0
    8.7071  -14.8372   25.8932 C   0  0  2  0  0  0  0  0  0  0  0  0
    8.7365  -15.1583   24.4824 N   0  0  0  0  0  0  0  0  0  0  0  0
    9.1604  -15.9282   26.7447 C   0  0  0  0  0  0  0  0  0  0  0  0
    9.2944  -15.7642   27.9704 O   0  0  0  0  0  0  0  0  0  0  0  0
    9.4477  -17.1597   26.2033 O   0  0  0  0  0  0  0  0  0  0  0  0
  2  1  1  0
  3  2  1  0
  4  5  1  0
  4  3  1  0
  5  6  1  6
  7  5  1  0
  7  8  2  0
  9  7  1  0
 10  9  1  0
 10 11  1  0
 11 18  1  0
 12 11  2  0
 14 13  1  1
 14 15  1  0
 16 14  1  0
 17 16  1  1
 17 19  1  0
 18 17  1  0
 19 21  1  0
 20 19  2  0
M  END
$$$$
