FQA.pdb
     RDKit          3D

 26 26  0  0  1  0  0  0  0  0999 V2000
    7.5042  -14.6611   20.5682 N   0  0  0  0  0  0  0  0  0  0  0  0
    7.7416  -14.2997   21.9298 C   0  0  1  0  0  0  0  0  0  0  0  0
    6.5081  -13.8079   22.6418 C   0  0  0  0  0  0  0  0  0  0  0  0
    6.7704  -13.3121   23.9949 C   0  0  0  0  0  0  0  0  0  0  0  0
    6.4352  -14.1268   25.0577 C   0  0  0  0  0  0  0  0  0  0  0  0
    6.6466  -13.7415   26.3684 C   0  0  0  0  0  0  0  0  0  0  0  0
    7.2039  -12.5197   26.6474 C   0  0  0  0  0  0  0  0  0  0  0  0
    7.5422  -11.6998   25.6118 C   0  0  0  0  0  0  0  0  0  0  0  0
    7.3301  -12.0861   24.2896 C   0  0  0  0  0  0  0  0  0  0  0  0
    8.2639  -15.4659   22.7292 C   0  0  0  0  0  0  0  0  0  0  0  0
    7.6414  -16.5574   22.7554 O   0  0  0  0  0  0  0  0  0  0  0  0
   11.7752  -18.8550   22.6519 N   0  0  0  0  0  0  0  0  0  0  0  0
   12.0673  -17.7054   21.8814 C   0  0  0  0  0  0  0  0  0  0  0  0
   12.3336  -17.9081   20.6532 O   0  0  0  0  0  0  0  0  0  0  0  0
   12.0650  -16.3389   22.4665 C   0  0  0  0  0  0  0  0  0  0  0  0
   11.6365  -16.4466   23.8922 C   0  0  0  0  0  0  0  0  0  0  0  0
   10.1351  -16.5318   24.0531 C   0  0  2  0  0  0  0  0  0  0  0  0
    9.4656  -15.3825   23.4770 N   0  0  0  0  0  0  0  0  0  0  0  0
    9.7588  -16.6649   25.4931 C   0  0  0  0  0  0  0  0  0  0  0  0
   10.1236  -15.7847   26.3225 O   0  0  0  0  0  0  0  0  0  0  0  0
    7.5075  -18.8757   27.4925 C   0  0  0  0  0  0  0  0  0  0  0  0
    8.6809  -17.9530   27.3578 C   0  0  2  0  0  0  0  0  0  0  0  0
    8.9935  -17.7625   25.9720 N   0  0  0  0  0  0  0  0  0  0  0  0
    9.8570  -18.4189   28.1434 C   0  0  0  0  0  0  0  0  0  0  0  0
   11.0851  -18.7004   27.5611 O   0  0  0  0  0  0  0  0  0  0  0  0
    9.7598  -18.5718   29.3875 O   0  0  0  0  0  0  0  0  0  0  0  0
  2  1  1  6
  2 10  1  0
  3  2  1  0
  3  4  1  0
  4  5  2  0
  4  9  1  0
  5  6  1  0
  6  7  2  0
  8  7  1  0
  9  8  2  0
 10 11  2  0
 13 12  1  0
 13 15  1  0
 14 13  2  0
 16 15  1  0
 17 16  1  1
 17 19  1  0
 18 17  1  0
 18 10  1  0
 19 20  2  0
 22 21  1  6
 22 24  1  0
 23 22  1  0
 23 19  1  0
 24 26  2  0
 24 25  1  0
M  END
$$$$
