FQA.pdb
     RDKit          3D

 26 26  0  0  1  0  0  0  0  0999 V2000
    6.1379  -17.6787   23.9391 N   0  0  0  0  0  0  0  0  0  0  0  0
    6.9028  -16.5190   24.2720 C   0  0  1  0  0  0  0  0  0  0  0  0
    6.4080  -15.8102   25.5061 C   0  0  0  0  0  0  0  0  0  0  0  0
    6.6256  -14.3619   25.4778 C   0  0  0  0  0  0  0  0  0  0  0  0
    5.7923  -13.5685   26.2405 C   0  0  0  0  0  0  0  0  0  0  0  0
    5.9239  -12.1928   26.2750 C   0  0  0  0  0  0  0  0  0  0  0  0
    6.9025  -11.5742   25.5394 C   0  0  0  0  0  0  0  0  0  0  0  0
    7.7362  -12.3400   24.7793 C   0  0  0  0  0  0  0  0  0  0  0  0
    7.6054  -13.7271   24.7429 C   0  0  0  0  0  0  0  0  0  0  0  0
    8.3486  -16.8627   24.5236 C   0  0  0  0  0  0  0  0  0  0  0  0
    8.6614  -17.9068   25.1495 O   0  0  0  0  0  0  0  0  0  0  0  0
   12.6878  -17.0602   21.2505 N   0  0  0  0  0  0  0  0  0  0  0  0
   13.5563  -16.7247   22.3154 C   0  0  0  0  0  0  0  0  0  0  0  0
   14.7265  -17.2228   22.2609 O   0  0  0  0  0  0  0  0  0  0  0  0
   13.1322  -15.8431   23.4346 C   0  0  0  0  0  0  0  0  0  0  0  0
   11.6759  -15.5582   23.2734 C   0  0  0  0  0  0  0  0  0  0  0  0
   10.8080  -16.3707   24.2081 C   0  0  2  0  0  0  0  0  0  0  0  0
    9.4051  -16.0329   24.0705 N   0  0  0  0  0  0  0  0  0  0  0  0
   11.2338  -16.1858   25.6285 C   0  0  0  0  0  0  0  0  0  0  0  0
   12.3297  -16.6731   26.0251 O   0  0  0  0  0  0  0  0  0  0  0  0
   10.0778  -14.0347   28.4534 C   0  0  0  0  0  0  0  0  0  0  0  0
   10.8761  -15.1749   27.8974 C   0  0  2  0  0  0  0  0  0  0  0  0
   10.4390  -15.4708   26.5649 N   0  0  0  0  0  0  0  0  0  0  0  0
   10.8404  -16.3719   28.7826 C   0  0  0  0  0  0  0  0  0  0  0  0
   10.3386  -17.5978   28.3678 O   0  0  0  0  0  0  0  0  0  0  0  0
   11.2768  -16.2955   29.9592 O   0  0  0  0  0  0  0  0  0  0  0  0
  2  1  1  1
  2 10  1  0
  3  2  1  0
  3  4  1  0
  4  5  2  0
  4  9  1  0
  5  6  1  0
  6  7  2  0
  8  7  1  0
  9  8  2  0
 10 11  2  0
 13 12  1  0
 13 15  1  0
 14 13  2  0
 16 15  1  0
 17 16  1  6
 17 19  1  0
 18 17  1  0
 18 10  1  0
 19 20  2  0
 22 21  1  1
 22 24  1  0
 23 22  1  0
 23 19  1  0
 24 26  2  0
 24 25  1  0
M  END
$$$$
