FQA.pdb
     RDKit          3D

 26 26  0  0  1  0  0  0  0  0999 V2000
    8.1398  -17.2959   20.7887 N   0  0  0  0  0  0  0  0  0  0  0  0
    9.2877  -16.6093   21.2905 C   0  0  1  0  0  0  0  0  0  0  0  0
    8.9483  -15.3560   22.0550 C   0  0  0  0  0  0  0  0  0  0  0  0
    8.4244  -14.2786   21.2123 C   0  0  0  0  0  0  0  0  0  0  0  0
    7.0633  -14.2403   20.9848 C   0  0  0  0  0  0  0  0  0  0  0  0
    6.4808  -13.2603   20.2029 C   0  0  0  0  0  0  0  0  0  0  0  0
    7.2556  -12.2869   19.6253 C   0  0  0  0  0  0  0  0  0  0  0  0
    8.6023  -12.3069   19.8376 C   0  0  0  0  0  0  0  0  0  0  0  0
    9.1917  -13.2938   20.6255 C   0  0  0  0  0  0  0  0  0  0  0  0
   10.0891  -17.4795   22.2245 C   0  0  0  0  0  0  0  0  0  0  0  0
    9.5210  -18.1573   23.1175 O   0  0  0  0  0  0  0  0  0  0  0  0
   17.0784  -18.3944   24.3471 N   0  0  0  0  0  0  0  0  0  0  0  0
   16.0839  -18.6201   23.3669 C   0  0  0  0  0  0  0  0  0  0  0  0
   16.4716  -18.5722   22.1554 O   0  0  0  0  0  0  0  0  0  0  0  0
   14.6681  -18.8972   23.7253 C   0  0  0  0  0  0  0  0  0  0  0  0
   13.7965  -18.0570   22.8522 C   0  0  0  0  0  0  0  0  0  0  0  0
   12.3214  -18.2903   23.0904 C   0  0  2  0  0  0  0  0  0  0  0  0
   11.5013  -17.5698   22.1367 N   0  0  0  0  0  0  0  0  0  0  0  0
   11.9368  -17.9013   24.4810 C   0  0  0  0  0  0  0  0  0  0  0  0
   12.0170  -16.6932   24.8412 O   0  0  0  0  0  0  0  0  0  0  0  0
    9.7122  -18.6503   27.0424 C   0  0  0  0  0  0  0  0  0  0  0  0
   11.1848  -18.5253   26.7925 C   0  0  2  0  0  0  0  0  0  0  0  0
   11.4766  -18.8553   25.4286 N   0  0  0  0  0  0  0  0  0  0  0  0
   11.9894  -19.3300   27.7531 C   0  0  0  0  0  0  0  0  0  0  0  0
   12.0495  -19.0404   29.1093 O   0  0  0  0  0  0  0  0  0  0  0  0
   12.6507  -20.3179   27.3443 O   0  0  0  0  0  0  0  0  0  0  0  0
  2  1  1  1
  2 10  1  0
  3  2  1  0
  3  4  1  0
  4  5  2  0
  4  9  1  0
  5  6  1  0
  6  7  2  0
  8  7  1  0
  9  8  2  0
 10 11  2  0
 13 12  1  0
 13 15  1  0
 14 13  2  0
 16 15  1  0
 17 16  1  6
 17 19  1  0
 18 17  1  0
 18 10  1  0
 19 20  2  0
 22 21  1  1
 22 24  1  0
 23 22  1  0
 23 19  1  0
 24 26  2  0
 24 25  1  0
M  END
$$$$
