FQA.pdb
     RDKit          3D

 26 26  0  0  1  0  0  0  0  0999 V2000
    5.9245  -15.9985   22.5464 N   0  0  0  0  0  0  0  0  0  0  0  0
    7.3367  -16.1291   22.7181 C   0  0  1  0  0  0  0  0  0  0  0  0
    8.0785  -14.8243   22.5856 C   0  0  0  0  0  0  0  0  0  0  0  0
    8.0353  -14.2594   21.2349 C   0  0  0  0  0  0  0  0  0  0  0  0
    7.6056  -12.9551   21.0936 C   0  0  0  0  0  0  0  0  0  0  0  0
    7.5325  -12.3400   19.8577 C   0  0  0  0  0  0  0  0  0  0  0  0
    7.8916  -13.0236   18.7241 C   0  0  0  0  0  0  0  0  0  0  0  0
    8.3189  -14.3131   18.8420 C   0  0  0  0  0  0  0  0  0  0  0  0
    8.3934  -14.9353   20.0868 C   0  0  0  0  0  0  0  0  0  0  0  0
    7.6804  -16.6836   24.0768 C   0  0  0  0  0  0  0  0  0  0  0  0
    7.0540  -16.3103   25.1005 O   0  0  0  0  0  0  0  0  0  0  0  0
   11.5289  -21.5306   25.3913 N   0  0  0  0  0  0  0  0  0  0  0  0
   11.5275  -20.8196   26.6142 C   0  0  0  0  0  0  0  0  0  0  0  0
   12.1540  -21.3649   27.5788 O   0  0  0  0  0  0  0  0  0  0  0  0
   10.8366  -19.5126   26.7688 C   0  0  0  0  0  0  0  0  0  0  0  0
   10.2196  -19.1570   25.4570 C   0  0  0  0  0  0  0  0  0  0  0  0
    9.2835  -17.9725   25.5462 C   0  0  2  0  0  0  0  0  0  0  0  0
    8.7127  -17.6387   24.2563 N   0  0  0  0  0  0  0  0  0  0  0  0
    9.9838  -16.7795   26.1114 C   0  0  0  0  0  0  0  0  0  0  0  0
   10.9710  -16.2817   25.5004 O   0  0  0  0  0  0  0  0  0  0  0  0
    9.5432  -13.8590   27.9606 C   0  0  0  0  0  0  0  0  0  0  0  0
   10.3224  -15.1392   27.9803 C   0  0  2  0  0  0  0  0  0  0  0  0
    9.5739  -16.1744   27.3302 N   0  0  0  0  0  0  0  0  0  0  0  0
   10.7400  -15.5234   29.3571 C   0  0  0  0  0  0  0  0  0  0  0  0
   11.5657  -14.7289   30.1404 O   0  0  0  0  0  0  0  0  0  0  0  0
   10.3418  -16.6074   29.8540 O   0  0  0  0  0  0  0  0  0  0  0  0
  2  1  1  1
  2 10  1  0
  3  2  1  0
  3  4  1  0
  4  5  2  0
  4  9  1  0
  5  6  1  0
  6  7  2  0
  8  7  1  0
  9  8  2  0
 10 11  2  0
 13 12  1  0
 13 15  1  0
 14 13  2  0
 16 15  1  0
 17 16  1  6
 17 19  1  0
 18 17  1  0
 18 10  1  0
 19 20  2  0
 22 21  1  1
 22 24  1  0
 23 22  1  0
 23 19  1  0
 24 26  2  0
 24 25  1  0
M  END
$$$$
