FQA.pdb
     RDKit          3D

 26 26  0  0  1  0  0  0  0  0999 V2000
    8.2741  -14.2559   23.1062 N   0  0  0  0  0  0  0  0  0  0  0  0
    8.7452  -14.8478   24.3180 C   0  0  1  0  0  0  0  0  0  0  0  0
    7.6809  -14.9689   25.3777 C   0  0  0  0  0  0  0  0  0  0  0  0
    7.1363  -13.6804   25.8120 C   0  0  0  0  0  0  0  0  0  0  0  0
    7.8623  -12.9488   26.7304 C   0  0  0  0  0  0  0  0  0  0  0  0
    7.4259  -11.7228   27.1966 C   0  0  0  0  0  0  0  0  0  0  0  0
    6.2408  -11.1963   26.7496 C   0  0  0  0  0  0  0  0  0  0  0  0
    5.5085  -11.9031   25.8423 C   0  0  0  0  0  0  0  0  0  0  0  0
    5.9465  -13.1393   25.3708 C   0  0  0  0  0  0  0  0  0  0  0  0
    9.2798  -16.2375   24.0842 C   0  0  0  0  0  0  0  0  0  0  0  0
    8.9801  -17.1803   24.8594 O   0  0  0  0  0  0  0  0  0  0  0  0
   12.9333  -20.1489   19.1108 N   0  0  0  0  0  0  0  0  0  0  0  0
   13.0377  -19.0931   20.0463 C   0  0  0  0  0  0  0  0  0  0  0  0
   13.7530  -18.1013   19.6927 O   0  0  0  0  0  0  0  0  0  0  0  0
   12.3545  -19.1346   21.3658 C   0  0  0  0  0  0  0  0  0  0  0  0
   11.5690  -17.8748   21.5203 C   0  0  0  0  0  0  0  0  0  0  0  0
   10.8077  -17.8095   22.8254 C   0  0  2  0  0  0  0  0  0  0  0  0
   10.1335  -16.5372   22.9927 N   0  0  0  0  0  0  0  0  0  0  0  0
   11.7158  -18.0552   23.9864 C   0  0  0  0  0  0  0  0  0  0  0  0
   12.6629  -17.2540   24.2247 O   0  0  0  0  0  0  0  0  0  0  0  0
   11.7474  -20.2940   26.9601 C   0  0  0  0  0  0  0  0  0  0  0  0
   12.4513  -19.4756   25.9202 C   0  0  2  0  0  0  0  0  0  0  0  0
   11.5510  -19.1746   24.8464 N   0  0  0  0  0  0  0  0  0  0  0  0
   13.7026  -20.1267   25.4428 C   0  0  0  0  0  0  0  0  0  0  0  0
   14.8933  -20.0774   26.1544 O   0  0  0  0  0  0  0  0  0  0  0  0
   13.7073  -20.7536   24.3531 O   0  0  0  0  0  0  0  0  0  0  0  0
  2  1  1  6
  2 10  1  0
  3  2  1  0
  3  4  1  0
  4  5  2  0
  4  9  1  0
  5  6  1  0
  6  7  2  0
  8  7  1  0
  9  8  2  0
 10 11  2  0
 13 12  1  0
 13 15  1  0
 14 13  2  0
 16 15  1  0
 17 16  1  6
 17 19  1  0
 18 17  1  0
 18 10  1  0
 19 20  2  0
 22 21  1  1
 22 24  1  0
 23 22  1  0
 23 19  1  0
 24 26  2  0
 24 25  1  0
M  END
$$$$
