FQA.pdb
     RDKit          3D

 26 26  0  0  1  0  0  0  0  0999 V2000
    5.6620  -16.8429   24.9802 N   0  0  0  0  0  0  0  0  0  0  0  0
    6.5363  -15.7702   24.6259 C   0  0  1  0  0  0  0  0  0  0  0  0
    7.3374  -15.2429   25.7880 C   0  0  0  0  0  0  0  0  0  0  0  0
    7.0064  -13.8628   26.1506 C   0  0  0  0  0  0  0  0  0  0  0  0
    7.9528  -12.8870   25.9100 C   0  0  0  0  0  0  0  0  0  0  0  0
    7.7273  -11.5587   26.2196 C   0  0  0  0  0  0  0  0  0  0  0  0
    6.5374  -11.1736   26.7828 C   0  0  0  0  0  0  0  0  0  0  0  0
    5.5892  -12.1221   27.0286 C   0  0  0  0  0  0  0  0  0  0  0  0
    5.8143  -13.4618   26.7172 C   0  0  0  0  0  0  0  0  0  0  0  0
    7.5301  -16.1903   23.5735 C   0  0  0  0  0  0  0  0  0  0  0  0
    7.9362  -17.3782   23.5107 O   0  0  0  0  0  0  0  0  0  0  0  0
    8.7713  -12.7059   18.5793 N   0  0  0  0  0  0  0  0  0  0  0  0
    7.9165  -13.8273   18.4677 C   0  0  0  0  0  0  0  0  0  0  0  0
    7.1376  -13.8389   17.4609 O   0  0  0  0  0  0  0  0  0  0  0  0
    7.9234  -14.9299   19.4646 C   0  0  0  0  0  0  0  0  0  0  0  0
    9.0082  -14.6545   20.4521 C   0  0  0  0  0  0  0  0  0  0  0  0
    9.0172  -15.6304   21.6074 C   0  0  2  0  0  0  0  0  0  0  0  0
    8.0433  -15.2746   22.6205 N   0  0  0  0  0  0  0  0  0  0  0  0
   10.3761  -15.7170   22.2230 C   0  0  0  0  0  0  0  0  0  0  0  0
   11.3019  -14.9620   21.8125 O   0  0  0  0  0  0  0  0  0  0  0  0
   11.9075  -17.4073   25.1746 C   0  0  0  0  0  0  0  0  0  0  0  0
   11.9894  -16.8175   23.7991 C   0  0  2  0  0  0  0  0  0  0  0  0
   10.6704  -16.6320   23.2700 N   0  0  0  0  0  0  0  0  0  0  0  0
   12.8541  -17.6219   22.8920 C   0  0  0  0  0  0  0  0  0  0  0  0
   14.2331  -17.6901   23.0344 O   0  0  0  0  0  0  0  0  0  0  0  0
   12.3384  -18.2757   21.9501 O   0  0  0  0  0  0  0  0  0  0  0  0
  2  1  1  1
  2 10  1  0
  3  2  1  0
  3  4  1  0
  4  5  2  0
  4  9  1  0
  5  6  1  0
  6  7  2  0
  8  7  1  0
  9  8  2  0
 10 11  2  0
 13 12  1  0
 13 15  1  0
 14 13  2  0
 16 15  1  0
 17 16  1  6
 17 19  1  0
 18 17  1  0
 18 10  1  0
 19 20  2  0
 22 21  1  1
 22 24  1  0
 23 22  1  0
 23 19  1  0
 24 26  2  0
 24 25  1  0
M  END
$$$$
