FQA.pdb
     RDKit          3D

 26 26  0  0  1  0  0  0  0  0999 V2000
    5.7486  -17.2232   24.8727 N   0  0  0  0  0  0  0  0  0  0  0  0
    6.7229  -16.1815   24.9524 C   0  0  1  0  0  0  0  0  0  0  0  0
    6.7974  -15.5350   26.3114 C   0  0  0  0  0  0  0  0  0  0  0  0
    6.6596  -14.0772   26.2758 C   0  0  0  0  0  0  0  0  0  0  0  0
    7.8030  -13.3244   26.0976 C   0  0  0  0  0  0  0  0  0  0  0  0
    7.7683  -11.9432   26.0512 C   0  0  0  0  0  0  0  0  0  0  0  0
    6.5762  -11.2778   26.1834 C   0  0  0  0  0  0  0  0  0  0  0  0
    5.4350  -12.0029   26.3602 C   0  0  0  0  0  0  0  0  0  0  0  0
    5.4676  -13.3954   26.4074 C   0  0  0  0  0  0  0  0  0  0  0  0
    8.1066  -16.6926   24.6426 C   0  0  0  0  0  0  0  0  0  0  0  0
    8.4590  -17.8467   24.9939 O   0  0  0  0  0  0  0  0  0  0  0  0
   11.6040  -17.5114   20.9673 N   0  0  0  0  0  0  0  0  0  0  0  0
   12.7177  -16.9251   21.6129 C   0  0  0  0  0  0  0  0  0  0  0  0
   13.8532  -17.4315   21.3394 O   0  0  0  0  0  0  0  0  0  0  0  0
   12.5759  -15.7849   22.5559 C   0  0  0  0  0  0  0  0  0  0  0  0
   11.1221  -15.4761   22.6937 C   0  0  0  0  0  0  0  0  0  0  0  0
   10.4476  -16.2817   23.7815 C   0  0  2  0  0  0  0  0  0  0  0  0
    9.0586  -15.9028   23.9497 N   0  0  0  0  0  0  0  0  0  0  0  0
   11.1707  -16.1355   25.0810 C   0  0  0  0  0  0  0  0  0  0  0  0
   12.3437  -16.5883   25.2025 O   0  0  0  0  0  0  0  0  0  0  0  0
   10.8550  -14.1170   28.1481 C   0  0  0  0  0  0  0  0  0  0  0  0
   11.2183  -15.4101   27.4830 C   0  0  2  0  0  0  0  0  0  0  0  0
   10.5784  -15.4956   26.2033 N   0  0  0  0  0  0  0  0  0  0  0  0
   10.9212  -16.5889   28.3432 C   0  0  0  0  0  0  0  0  0  0  0  0
   11.4322  -16.7301   29.6260 O   0  0  0  0  0  0  0  0  0  0  0  0
   10.1793  -17.5083   27.9132 O   0  0  0  0  0  0  0  0  0  0  0  0
  2  1  1  1
  2 10  1  0
  3  2  1  0
  3  4  1  0
  4  5  2  0
  4  9  1  0
  5  6  1  0
  6  7  2  0
  8  7  1  0
  9  8  2  0
 10 11  2  0
 13 12  1  0
 13 15  1  0
 14 13  2  0
 16 15  1  0
 17 16  1  6
 17 19  1  0
 18 17  1  0
 18 10  1  0
 19 20  2  0
 22 21  1  1
 22 24  1  0
 23 22  1  0
 23 19  1  0
 24 26  2  0
 24 25  1  0
M  END
$$$$
