FQA.pdb
     RDKit          3D

 26 26  0  0  1  0  0  0  0  0999 V2000
    9.6041  -16.4620   17.1547 N   0  0  0  0  0  0  0  0  0  0  0  0
   10.1532  -15.4958   18.0523 C   0  0  1  0  0  0  0  0  0  0  0  0
    9.3638  -15.3471   19.3271 C   0  0  0  0  0  0  0  0  0  0  0  0
    8.7613  -14.0224   19.4929 C   0  0  0  0  0  0  0  0  0  0  0  0
    7.4909  -13.8231   18.9907 C   0  0  0  0  0  0  0  0  0  0  0  0
    6.8443  -12.6062   19.1015 C   0  0  0  0  0  0  0  0  0  0  0  0
    7.4612  -11.5509   19.7237 C   0  0  0  0  0  0  0  0  0  0  0  0
    8.7162  -11.7270   20.2267 C   0  0  0  0  0  0  0  0  0  0  0  0
    9.3700  -12.9528   20.1162 C   0  0  0  0  0  0  0  0  0  0  0  0
   11.5606  -15.8526   18.4567 C   0  0  0  0  0  0  0  0  0  0  0  0
   11.8638  -17.0360   18.7525 O   0  0  0  0  0  0  0  0  0  0  0  0
   18.1197  -12.6534   18.4576 N   0  0  0  0  0  0  0  0  0  0  0  0
   17.1866  -13.4745   17.7824 C   0  0  0  0  0  0  0  0  0  0  0  0
   17.0987  -13.3034   16.5241 O   0  0  0  0  0  0  0  0  0  0  0  0
   16.3554  -14.4795   18.4956 C   0  0  0  0  0  0  0  0  0  0  0  0
   14.9211  -14.1795   18.2118 C   0  0  0  0  0  0  0  0  0  0  0  0
   13.9749  -15.1940   18.8140 C   0  0  2  0  0  0  0  0  0  0  0  0
   12.5906  -14.8804   18.5200 N   0  0  0  0  0  0  0  0  0  0  0  0
   14.1665  -15.2912   20.2928 C   0  0  0  0  0  0  0  0  0  0  0  0
   13.9396  -14.2863   21.0239 O   0  0  0  0  0  0  0  0  0  0  0  0
   14.7010  -18.0304   22.7562 C   0  0  0  0  0  0  0  0  0  0  0  0
   14.8325  -16.6001   22.3278 C   0  0  2  0  0  0  0  0  0  0  0  0
   14.6016  -16.4914   20.9175 N   0  0  0  0  0  0  0  0  0  0  0  0
   16.1373  -16.0082   22.7340 C   0  0  0  0  0  0  0  0  0  0  0  0
   17.0940  -15.5981   21.8158 O   0  0  0  0  0  0  0  0  0  0  0  0
   16.4080  -15.8630   23.9531 O   0  0  0  0  0  0  0  0  0  0  0  0
  2  1  1  6
  2 10  1  0
  3  2  1  0
  3  4  1  0
  4  5  2  0
  4  9  1  0
  5  6  1  0
  6  7  2  0
  8  7  1  0
  9  8  2  0
 10 11  2  0
 13 12  1  0
 13 15  1  0
 14 13  2  0
 16 15  1  0
 17 16  1  1
 17 19  1  0
 18 17  1  0
 18 10  1  0
 19 20  2  0
 22 21  1  6
 22 24  1  0
 23 22  1  0
 23 19  1  0
 24 26  2  0
 24 25  1  0
M  END
$$$$
