FQA.pdb
     RDKit          3D

 26 26  0  0  1  0  0  0  0  0999 V2000
    6.2903  -17.2418   25.5891 N   0  0  0  0  0  0  0  0  0  0  0  0
    6.7095  -16.0228   24.9732 C   0  0  1  0  0  0  0  0  0  0  0  0
    7.7464  -15.2754   25.7708 C   0  0  0  0  0  0  0  0  0  0  0  0
    7.2419  -14.0422   26.3793 C   0  0  0  0  0  0  0  0  0  0  0  0
    7.8977  -13.5559   27.4925 C   0  0  0  0  0  0  0  0  0  0  0  0
    7.4920  -12.3994   28.1319 C   0  0  0  0  0  0  0  0  0  0  0  0
    6.4099  -11.6966   27.6667 C   0  0  0  0  0  0  0  0  0  0  0  0
    5.7482  -12.1601   26.5683 C   0  0  0  0  0  0  0  0  0  0  0  0
    6.1553  -13.3258   25.9220 C   0  0  0  0  0  0  0  0  0  0  0  0
    7.3079  -16.2676   23.6116 C   0  0  0  0  0  0  0  0  0  0  0  0
    7.7290  -17.4074   23.2901 O   0  0  0  0  0  0  0  0  0  0  0  0
    6.8223  -15.5118   18.5982 N   0  0  0  0  0  0  0  0  0  0  0  0
    8.1087  -14.9961   18.3156 C   0  0  0  0  0  0  0  0  0  0  0  0
    8.5683  -15.2446   17.1548 O   0  0  0  0  0  0  0  0  0  0  0  0
    8.8825  -14.2097   19.3118 C   0  0  0  0  0  0  0  0  0  0  0  0
    8.0711  -14.1191   20.5613 C   0  0  0  0  0  0  0  0  0  0  0  0
    8.0865  -15.3972   21.3696 C   0  0  2  0  0  0  0  0  0  0  0  0
    7.4200  -15.2350   22.6466 N   0  0  0  0  0  0  0  0  0  0  0  0
    9.4857  -15.8741   21.5885 C   0  0  0  0  0  0  0  0  0  0  0  0
   10.0486  -16.5939   20.7163 O   0  0  0  0  0  0  0  0  0  0  0  0
   12.2394  -15.0672   23.9642 C   0  0  0  0  0  0  0  0  0  0  0  0
   11.5603  -15.9880   22.9961 C   0  0  2  0  0  0  0  0  0  0  0  0
   10.2186  -15.5425   22.7601 N   0  0  0  0  0  0  0  0  0  0  0  0
   11.6142  -17.4091   23.4378 C   0  0  0  0  0  0  0  0  0  0  0  0
   10.4753  -18.1767   23.6386 O   0  0  0  0  0  0  0  0  0  0  0  0
   12.7252  -17.9602   23.6445 O   0  0  0  0  0  0  0  0  0  0  0  0
  2  1  1  1
  2 10  1  0
  3  2  1  0
  3  4  1  0
  4  5  2  0
  4  9  1  0
  5  6  1  0
  6  7  2  0
  8  7  1  0
  9  8  2  0
 10 11  2  0
 13 12  1  0
 13 15  1  0
 14 13  2  0
 16 15  1  0
 17 16  1  1
 17 19  1  0
 18 17  1  0
 18 10  1  0
 19 20  2  0
 22 21  1  1
 22 24  1  0
 23 22  1  0
 23 19  1  0
 24 26  2  0
 24 25  1  0
M  END
$$$$
