TDG.pdb
     RDKit          3D

 20 19  0  0  1  0  0  0  0  0999 V2000
    9.9382  -12.6509   19.1478 C   0  0  0  0  0  0  0  0  0  0  0  0
    8.4876  -12.9801   18.9946 C   0  0  1  0  0  0  0  0  0  0  0  0
    7.9983  -12.4395   17.8228 O   0  0  0  0  0  0  0  0  0  0  0  0
    8.2221  -14.4717   19.0232 C   0  0  2  0  0  0  0  0  0  0  0  0
    6.7679  -14.6606   18.8725 N   0  0  0  0  0  0  0  0  0  0  0  0
    8.6904  -15.1146   20.2785 C   0  0  0  0  0  0  0  0  0  0  0  0
    8.0651  -14.8997   21.3248 O   0  0  0  0  0  0  0  0  0  0  0  0
    9.8218  -15.9594   20.3115 N   0  0  0  0  0  0  0  0  0  0  0  0
   10.2535  -16.6441   21.4949 C   0  0  1  0  0  0  0  0  0  0  0  0
   10.4044  -18.1166   21.3227 C   0  0  0  0  0  0  0  0  0  0  0  0
    9.2211  -18.7824   20.7397 C   0  0  0  0  0  0  0  0  0  0  0  0
    8.2814  -19.1899   21.4601 O   0  0  0  0  0  0  0  0  0  0  0  0
   11.5227  -16.0668   21.9936 C   0  0  0  0  0  0  0  0  0  0  0  0
   12.0131  -16.4127   23.0950 O   0  0  0  0  0  0  0  0  0  0  0  0
    9.0843  -18.9930   19.3674 O   0  0  0  0  0  0  0  0  0  0  0  0
   12.2249  -15.1009   21.2354 N   0  0  0  0  0  0  0  0  0  0  0  0
   13.4619  -14.5133   21.6549 C   0  0  0  0  0  0  0  0  0  0  0  0
   14.6271  -15.3078   21.1835 C   0  0  0  0  0  0  0  0  0  0  0  0
   14.4918  -16.5029   20.5072 O   0  0  0  0  0  0  0  0  0  0  0  0
   15.7782  -14.8625   21.4164 O   0  0  0  0  0  0  0  0  0  0  0  0
  2  1  1  6
  3  2  1  0
  4  5  1  1
  4  2  1  0
  6  4  1  0
  7  6  2  0
  8  6  1  0
  9 10  1  6
  9  8  1  0
 10 11  1  0
 11 12  2  0
 13 16  1  0
 13  9  1  0
 14 13  2  0
 15 11  1  0
 17 16  1  0
 18 17  1  0
 19 18  1  0
 20 18  2  0
M  END
$$$$
