TDG.pdb
     RDKit          3D

 20 19  0  0  1  0  0  0  0  0999 V2000
    8.6440  -12.3688   19.8712 C   0  0  0  0  0  0  0  0  0  0  0  0
    8.0198  -13.3978   18.9838 C   0  0  1  0  0  0  0  0  0  0  0  0
    7.2686  -12.7859   18.0010 O   0  0  0  0  0  0  0  0  0  0  0  0
    9.0427  -14.3194   18.3506 C   0  0  2  0  0  0  0  0  0  0  0  0
    8.3067  -15.2707   17.4984 N   0  0  0  0  0  0  0  0  0  0  0  0
    9.8507  -15.0577   19.3556 C   0  0  0  0  0  0  0  0  0  0  0  0
    9.4169  -16.1307   19.7941 O   0  0  0  0  0  0  0  0  0  0  0  0
   11.0928  -14.5731   19.8217 N   0  0  0  0  0  0  0  0  0  0  0  0
   11.8863  -15.2626   20.7966 C   0  0  1  0  0  0  0  0  0  0  0  0
   13.2929  -14.7787   20.8860 C   0  0  0  0  0  0  0  0  0  0  0  0
   14.0547  -14.8958   19.6253 C   0  0  0  0  0  0  0  0  0  0  0  0
   14.1915  -15.9976   19.0462 O   0  0  0  0  0  0  0  0  0  0  0  0
   11.2472  -15.1895   22.1304 C   0  0  0  0  0  0  0  0  0  0  0  0
   10.6602  -14.1521   22.5210 O   0  0  0  0  0  0  0  0  0  0  0  0
   14.6591  -13.7968   19.0143 O   0  0  0  0  0  0  0  0  0  0  0  0
   11.2799  -16.2971   23.0097 N   0  0  0  0  0  0  0  0  0  0  0  0
   10.6558  -16.3017   24.2987 C   0  0  0  0  0  0  0  0  0  0  0  0
   10.9502  -17.5571   25.0393 C   0  0  0  0  0  0  0  0  0  0  0  0
   10.5155  -17.7829   26.3293 O   0  0  0  0  0  0  0  0  0  0  0  0
   11.6240  -18.4423   24.4560 O   0  0  0  0  0  0  0  0  0  0  0  0
  2  1  1  6
  3  2  1  0
  4  5  1  6
  4  2  1  0
  6  4  1  0
  7  6  2  0
  8  6  1  0
  9 10  1  1
  9  8  1  0
 10 11  1  0
 11 12  2  0
 13 16  1  0
 13  9  1  0
 14 13  2  0
 15 11  1  0
 17 16  1  0
 18 17  1  0
 19 18  1  0
 20 18  2  0
M  END
$$$$
