TDG.pdb
     RDKit          3D

 20 19  0  0  1  0  0  0  0  0999 V2000
    9.1811  -12.3288   19.8400 C   0  0  0  0  0  0  0  0  0  0  0  0
    8.2928  -13.2174   19.0293 C   0  0  1  0  0  0  0  0  0  0  0  0
    7.2646  -12.4833   18.4738 O   0  0  0  0  0  0  0  0  0  0  0  0
    9.0443  -13.9561   17.9402 C   0  0  2  0  0  0  0  0  0  0  0  0
    8.0528  -14.7309   17.1723 N   0  0  0  0  0  0  0  0  0  0  0  0
   10.0912  -14.8630   18.4784 C   0  0  0  0  0  0  0  0  0  0  0  0
    9.7655  -16.0050   18.8272 O   0  0  0  0  0  0  0  0  0  0  0  0
   11.4397  -14.4616   18.6021 N   0  0  0  0  0  0  0  0  0  0  0  0
   12.4338  -15.2514   19.2680 C   0  0  1  0  0  0  0  0  0  0  0  0
   13.7984  -15.1293   18.6816 C   0  0  0  0  0  0  0  0  0  0  0  0
   13.9055  -15.6165   17.2907 C   0  0  0  0  0  0  0  0  0  0  0  0
   13.2817  -16.6318   16.9058 O   0  0  0  0  0  0  0  0  0  0  0  0
   12.4785  -14.9195   20.7105 C   0  0  0  0  0  0  0  0  0  0  0  0
   12.6751  -13.7464   21.1083 O   0  0  0  0  0  0  0  0  0  0  0  0
   14.6994  -14.9799   16.3365 O   0  0  0  0  0  0  0  0  0  0  0  0
   12.2984  -15.9245   21.6896 N   0  0  0  0  0  0  0  0  0  0  0  0
   12.2174  -15.6544   23.0938 C   0  0  0  0  0  0  0  0  0  0  0  0
   12.0734  -16.9085   23.8798 C   0  0  0  0  0  0  0  0  0  0  0  0
   12.0453  -16.9264   25.2592 O   0  0  0  0  0  0  0  0  0  0  0  0
   11.9738  -17.9912   23.2507 O   0  0  0  0  0  0  0  0  0  0  0  0
  2  1  1  6
  3  2  1  0
  4  5  1  1
  4  2  1  0
  6  4  1  0
  7  6  2  0
  8  6  1  0
  9 10  1  6
  9  8  1  0
 10 11  1  0
 11 12  2  0
 13 16  1  0
 13  9  1  0
 14 13  2  0
 15 11  1  0
 17 16  1  0
 18 17  1  0
 19 18  1  0
 20 18  2  0
M  END
$$$$
