TDG.pdb
     RDKit          3D

 20 19  0  0  1  0  0  0  0  0999 V2000
    9.5900  -21.7209   19.1032 C   0  0  0  0  0  0  0  0  0  0  0  0
    9.1901  -21.3907   20.5057 C   0  0  1  0  0  0  0  0  0  0  0  0
    9.9795  -20.3713   20.9980 O   0  0  0  0  0  0  0  0  0  0  0  0
    7.7277  -21.0104   20.6208 C   0  0  2  0  0  0  0  0  0  0  0  0
    7.5017  -19.8633   19.7230 N   0  0  0  0  0  0  0  0  0  0  0  0
    7.3342  -20.6544   22.0087 C   0  0  0  0  0  0  0  0  0  0  0  0
    7.1917  -19.4593   22.2975 O   0  0  0  0  0  0  0  0  0  0  0  0
    7.1188  -21.6350   23.0021 N   0  0  0  0  0  0  0  0  0  0  0  0
    6.7117  -21.3183   24.3398 C   0  0  1  0  0  0  0  0  0  0  0  0
    5.6804  -22.2401   24.8942 C   0  0  0  0  0  0  0  0  0  0  0  0
    4.4785  -22.3837   24.0468 C   0  0  0  0  0  0  0  0  0  0  0  0
    4.1079  -21.4657   23.2801 O   0  0  0  0  0  0  0  0  0  0  0  0
    7.8847  -21.2799   25.2429 C   0  0  0  0  0  0  0  0  0  0  0  0
    7.7606  -21.0562   26.4709 O   0  0  0  0  0  0  0  0  0  0  0  0
    3.6956  -23.5385   24.0524 O   0  0  0  0  0  0  0  0  0  0  0  0
    9.1899  -21.4968   24.7426 N   0  0  0  0  0  0  0  0  0  0  0  0
   10.3579  -21.5329   25.5707 C   0  0  0  0  0  0  0  0  0  0  0  0
   11.3082  -20.4456   25.2158 C   0  0  0  0  0  0  0  0  0  0  0  0
   11.0350  -19.5015   24.2473 O   0  0  0  0  0  0  0  0  0  0  0  0
   12.4026  -20.3943   25.8301 O   0  0  0  0  0  0  0  0  0  0  0  0
  2  1  1  6
  3  2  1  0
  4  5  1  6
  4  2  1  0
  6  4  1  0
  7  6  2  0
  8  6  1  0
  9 10  1  1
  9  8  1  0
 10 11  1  0
 11 12  2  0
 13 16  1  0
 13  9  1  0
 14 13  2  0
 15 11  1  0
 17 16  1  0
 18 17  1  0
 19 18  1  0
 20 18  2  0
M  END
$$$$
