TDG.pdb
     RDKit          3D

 20 19  0  0  1  0  0  0  0  0999 V2000
    7.1445  -14.3029   17.3855 C   0  0  0  0  0  0  0  0  0  0  0  0
    8.1297  -14.5361   18.4860 C   0  0  1  0  0  0  0  0  0  0  0  0
    9.4064  -14.2434   18.0514 O   0  0  0  0  0  0  0  0  0  0  0  0
    7.8134  -13.7330   19.7315 C   0  0  2  0  0  0  0  0  0  0  0  0
    7.8617  -12.3079   19.3575 N   0  0  0  0  0  0  0  0  0  0  0  0
    8.7630  -13.9988   20.8431 C   0  0  0  0  0  0  0  0  0  0  0  0
    9.5912  -13.1276   21.1377 O   0  0  0  0  0  0  0  0  0  0  0  0
    8.7474  -15.2102   21.5692 N   0  0  0  0  0  0  0  0  0  0  0  0
    9.5928  -15.4558   22.7007 C   0  0  1  0  0  0  0  0  0  0  0  0
    9.2094  -16.6570   23.4950 C   0  0  0  0  0  0  0  0  0  0  0  0
   10.0210  -16.8620   24.7126 C   0  0  0  0  0  0  0  0  0  0  0  0
   11.2096  -17.2503   24.6462 O   0  0  0  0  0  0  0  0  0  0  0  0
   11.0070  -15.5682   22.2761 C   0  0  0  0  0  0  0  0  0  0  0  0
   11.9473  -15.5154   23.1046 O   0  0  0  0  0  0  0  0  0  0  0  0
    9.5146  -16.6371   25.9930 O   0  0  0  0  0  0  0  0  0  0  0  0
   11.3410  -15.7404   20.9124 N   0  0  0  0  0  0  0  0  0  0  0  0
   12.6852  -15.7164   20.4187 C   0  0  0  0  0  0  0  0  0  0  0  0
   13.2941  -17.0729   20.4373 C   0  0  0  0  0  0  0  0  0  0  0  0
   12.6226  -18.1868   20.8978 O   0  0  0  0  0  0  0  0  0  0  0  0
   14.4700  -17.1979   20.0136 O   0  0  0  0  0  0  0  0  0  0  0  0
  2  1  1  6
  3  2  1  0
  4  5  1  6
  4  2  1  0
  6  4  1  0
  7  6  2  0
  8  6  1  0
  9 10  1  6
  9  8  1  0
 10 11  1  0
 11 12  2  0
 13 16  1  0
 13  9  1  0
 14 13  2  0
 15 11  1  0
 17 16  1  0
 18 17  1  0
 19 18  1  0
 20 18  2  0
M  END
$$$$
