TDG.pdb
     RDKit          3D

 20 19  0  0  1  0  0  0  0  0999 V2000
    9.7776  -12.7494   20.7359 C   0  0  0  0  0  0  0  0  0  0  0  0
    8.4802  -12.8610   20.0010 C   0  0  1  0  0  0  0  0  0  0  0  0
    7.9927  -11.6048   19.7029 O   0  0  0  0  0  0  0  0  0  0  0  0
    8.5975  -13.6817   18.7325 C   0  0  2  0  0  0  0  0  0  0  0  0
    7.2613  -13.7206   18.1110 N   0  0  0  0  0  0  0  0  0  0  0  0
    9.0806  -15.0640   18.9851 C   0  0  0  0  0  0  0  0  0  0  0  0
    8.2751  -15.9085   19.3974 O   0  0  0  0  0  0  0  0  0  0  0  0
   10.4248  -15.4399   18.7691 N   0  0  0  0  0  0  0  0  0  0  0  0
   10.9570  -16.7094   19.1699 C   0  0  1  0  0  0  0  0  0  0  0  0
   11.8587  -17.3347   18.1616 C   0  0  0  0  0  0  0  0  0  0  0  0
   11.1869  -17.7149   16.9017 C   0  0  0  0  0  0  0  0  0  0  0  0
   10.0608  -18.2625   16.9029 O   0  0  0  0  0  0  0  0  0  0  0  0
   11.6636  -16.5892   20.4657 C   0  0  0  0  0  0  0  0  0  0  0  0
   12.0120  -17.6012   21.1197 O   0  0  0  0  0  0  0  0  0  0  0  0
   11.7628  -17.4880   15.6515 O   0  0  0  0  0  0  0  0  0  0  0  0
   11.9692  -15.3188   21.0076 N   0  0  0  0  0  0  0  0  0  0  0  0
   12.6170  -15.1335   22.2714 C   0  0  0  0  0  0  0  0  0  0  0  0
   14.0923  -15.2750   22.1504 C   0  0  0  0  0  0  0  0  0  0  0  0
   14.9472  -15.1301   23.2238 O   0  0  0  0  0  0  0  0  0  0  0  0
   14.5693  -15.5375   21.0184 O   0  0  0  0  0  0  0  0  0  0  0  0
  2  1  1  6
  3  2  1  0
  4  5  1  1
  4  2  1  0
  6  4  1  0
  7  6  2  0
  8  6  1  0
  9 10  1  6
  9  8  1  0
 10 11  1  0
 11 12  2  0
 13 16  1  0
 13  9  1  0
 14 13  2  0
 15 11  1  0
 17 16  1  0
 18 17  1  0
 19 18  1  0
 20 18  2  0
M  END
$$$$
