TDG.pdb
     RDKit          3D

 20 19  0  0  1  0  0  0  0  0999 V2000
    8.7183  -12.6121   20.4536 C   0  0  0  0  0  0  0  0  0  0  0  0
    7.8365  -13.1269   19.3612 C   0  0  1  0  0  0  0  0  0  0  0  0
    7.5142  -12.1067   18.4894 O   0  0  0  0  0  0  0  0  0  0  0  0
    8.4638  -14.2764   18.5986 C   0  0  2  0  0  0  0  0  0  0  0  0
    7.4865  -14.7151   17.5859 N   0  0  0  0  0  0  0  0  0  0  0  0
    8.8309  -15.4167   19.4778 C   0  0  0  0  0  0  0  0  0  0  0  0
    7.9796  -16.2843   19.7116 O   0  0  0  0  0  0  0  0  0  0  0  0
   10.1161  -15.5386   20.0506 N   0  0  0  0  0  0  0  0  0  0  0  0
   10.4897  -16.6216   20.9125 C   0  0  1  0  0  0  0  0  0  0  0  0
   11.6080  -17.4558   20.3886 C   0  0  0  0  0  0  0  0  0  0  0  0
   11.4823  -18.8964   20.6920 C   0  0  0  0  0  0  0  0  0  0  0  0
   10.3710  -19.4731   20.6687 O   0  0  0  0  0  0  0  0  0  0  0  0
   10.8333  -16.1156   22.2611 C   0  0  0  0  0  0  0  0  0  0  0  0
   11.6902  -15.2144   22.4254 O   0  0  0  0  0  0  0  0  0  0  0  0
   12.5833  -19.6886   21.0185 O   0  0  0  0  0  0  0  0  0  0  0  0
   10.1993  -16.6379   23.4127 N   0  0  0  0  0  0  0  0  0  0  0  0
   10.4004  -16.1159   24.7311 C   0  0  0  0  0  0  0  0  0  0  0  0
   11.0510  -17.1170   25.6174 C   0  0  0  0  0  0  0  0  0  0  0  0
   11.3375  -16.8662   26.9437 O   0  0  0  0  0  0  0  0  0  0  0  0
   11.3478  -18.2348   25.1272 O   0  0  0  0  0  0  0  0  0  0  0  0
  2  1  1  1
  3  2  1  0
  4  5  1  6
  4  2  1  0
  6  4  1  0
  7  6  2  0
  8  6  1  0
  9 10  1  6
  9  8  1  0
 10 11  1  0
 11 12  2  0
 13 16  1  0
 13  9  1  0
 14 13  2  0
 15 11  1  0
 17 16  1  0
 18 17  1  0
 19 18  1  0
 20 18  2  0
M  END
$$$$
