TDG.pdb
     RDKit          3D

 20 19  0  0  1  0  0  0  0  0999 V2000
    7.6138  -12.3757   19.9320 C   0  0  0  0  0  0  0  0  0  0  0  0
    8.2415  -13.3899   20.8339 C   0  0  1  0  0  0  0  0  0  0  0  0
    7.5203  -13.4955   22.0058 O   0  0  0  0  0  0  0  0  0  0  0  0
    8.3660  -14.7522   20.1818 C   0  0  2  0  0  0  0  0  0  0  0  0
    7.0007  -15.2216   19.8843 N   0  0  0  0  0  0  0  0  0  0  0  0
    9.0661  -15.7397   21.0436 C   0  0  0  0  0  0  0  0  0  0  0  0
    8.4016  -16.6344   21.5820 O   0  0  0  0  0  0  0  0  0  0  0  0
   10.4602  -15.6873   21.2644 N   0  0  0  0  0  0  0  0  0  0  0  0
   11.1846  -16.7202   21.9453 C   0  0  1  0  0  0  0  0  0  0  0  0
   12.5791  -16.9076   21.4546 C   0  0  0  0  0  0  0  0  0  0  0  0
   12.6710  -17.3804   20.0577 C   0  0  0  0  0  0  0  0  0  0  0  0
   13.1833  -16.6713   19.1617 O   0  0  0  0  0  0  0  0  0  0  0  0
   11.1981  -16.4679   23.4044 C   0  0  0  0  0  0  0  0  0  0  0  0
   11.8600  -17.1886   24.1891 O   0  0  0  0  0  0  0  0  0  0  0  0
   12.1970  -18.6312   19.6609 O   0  0  0  0  0  0  0  0  0  0  0  0
   10.4592  -15.3972   23.9600 N   0  0  0  0  0  0  0  0  0  0  0  0
   10.4295  -15.1002   25.3608 C   0  0  0  0  0  0  0  0  0  0  0  0
    9.8167  -16.2102   26.1376 C   0  0  0  0  0  0  0  0  0  0  0  0
    9.7187  -16.1936   27.5139 O   0  0  0  0  0  0  0  0  0  0  0  0
    9.3728  -17.1996   25.5036 O   0  0  0  0  0  0  0  0  0  0  0  0
  2  1  1  6
  3  2  1  0
  4  5  1  1
  4  2  1  0
  6  4  1  0
  7  6  2  0
  8  6  1  0
  9 10  1  6
  9  8  1  0
 10 11  1  0
 11 12  2  0
 13 16  1  0
 13  9  1  0
 14 13  2  0
 15 11  1  0
 17 16  1  0
 18 17  1  0
 19 18  1  0
 20 18  2  0
M  END
$$$$
