TDG.pdb
     RDKit          3D

 20 19  0  0  1  0  0  0  0  0999 V2000
    9.0427  -12.5587   20.5739 C   0  0  0  0  0  0  0  0  0  0  0  0
    8.1725  -13.2996   19.6096 C   0  0  1  0  0  0  0  0  0  0  0  0
    7.1506  -12.4841   19.1675 O   0  0  0  0  0  0  0  0  0  0  0  0
    8.9459  -13.8432   18.4252 C   0  0  2  0  0  0  0  0  0  0  0  0
    7.9844  -14.5546   17.5636 N   0  0  0  0  0  0  0  0  0  0  0  0
   10.0429  -14.7611   18.8278 C   0  0  0  0  0  0  0  0  0  0  0  0
    9.8182  -15.9778   18.8578 O   0  0  0  0  0  0  0  0  0  0  0  0
   11.3276  -14.2876   19.1748 N   0  0  0  0  0  0  0  0  0  0  0  0
   12.3963  -15.1512   19.5840 C   0  0  1  0  0  0  0  0  0  0  0  0
   13.7545  -14.6320   19.2576 C   0  0  0  0  0  0  0  0  0  0  0  0
   14.1296  -14.7699   17.8351 C   0  0  0  0  0  0  0  0  0  0  0  0
   13.8124  -15.7841   17.1726 O   0  0  0  0  0  0  0  0  0  0  0  0
   12.3056  -15.4362   21.0343 C   0  0  0  0  0  0  0  0  0  0  0  0
   13.1530  -16.1551   21.6162 O   0  0  0  0  0  0  0  0  0  0  0  0
   14.8513  -13.7882   17.1555 O   0  0  0  0  0  0  0  0  0  0  0  0
   11.2522  -14.9010   21.8120 N   0  0  0  0  0  0  0  0  0  0  0  0
   11.1849  -15.0163   23.2380 C   0  0  0  0  0  0  0  0  0  0  0  0
   10.2886  -16.1288   23.6504 C   0  0  0  0  0  0  0  0  0  0  0  0
    9.9910  -16.3980   24.9706 O   0  0  0  0  0  0  0  0  0  0  0  0
    9.7869  -16.8471   22.7504 O   0  0  0  0  0  0  0  0  0  0  0  0
  2  1  1  1
  3  2  1  0
  4  5  1  6
  4  2  1  0
  6  4  1  0
  7  6  2  0
  8  6  1  0
  9 10  1  1
  9  8  1  0
 10 11  1  0
 11 12  2  0
 13 16  1  0
 13  9  1  0
 14 13  2  0
 15 11  1  0
 17 16  1  0
 18 17  1  0
 19 18  1  0
 20 18  2  0
M  END
$$$$
