FGK.pdb
     RDKit          3D

 25 25  0  0  1  0  0  0  0  0999 V2000
   25.4745  -20.6024   -7.2606 N   0  0  0  0  0  0  0  0  0  0  0  0
   26.4099  -20.2008   -8.2958 C   0  0  1  0  0  0  0  0  0  0  0  0
   27.7991  -20.5475   -7.8347 C   0  0  0  0  0  0  0  0  0  0  0  0
   28.1901  -19.9272   -6.5598 C   0  0  0  0  0  0  0  0  0  0  0  0
   28.0575  -18.5636   -6.3191 C   0  0  0  0  0  0  0  0  0  0  0  0
   28.4232  -18.0076   -5.1142 C   0  0  0  0  0  0  0  0  0  0  0  0
   28.9311  -18.7621   -4.1015 C   0  0  0  0  0  0  0  0  0  0  0  0
   29.0719  -20.1140   -4.3154 C   0  0  0  0  0  0  0  0  0  0  0  0
   28.7076  -20.6877   -5.5240 C   0  0  0  0  0  0  0  0  0  0  0  0
   26.1046  -20.8946   -9.5543 C   0  0  0  0  0  0  0  0  0  0  0  0
   25.3307  -21.8797   -9.6326 O   0  0  0  0  0  0  0  0  0  0  0  0
   26.6957  -20.4704  -10.8137 N   0  0  0  0  0  0  0  0  0  0  0  0
   26.2405  -21.0183  -12.0357 C   0  0  0  0  0  0  0  0  0  0  0  0
   25.1006  -20.2775  -12.5888 C   0  0  0  0  0  0  0  0  0  0  0  0
   24.3798  -19.5433  -11.8098 O   0  0  0  0  0  0  0  0  0  0  0  0
   24.7095  -20.2934  -13.9257 N   0  0  0  0  0  0  0  0  0  0  0  0
   23.6285  -19.4044  -14.3848 C   0  0  1  0  0  0  0  0  0  0  0  0
   24.1916  -18.4424  -15.3656 C   0  0  0  0  0  0  0  0  0  0  0  0
   23.2818  -17.4279  -15.9322 C   0  0  0  0  0  0  0  0  0  0  0  0
   23.8783  -16.5673  -17.0026 C   0  0  0  0  0  0  0  0  0  0  0  0
   22.8652  -15.5606  -17.5053 C   0  0  0  0  0  0  0  0  0  0  0  0
   23.4898  -14.8398  -18.6085 N   0  0  0  0  0  0  0  0  0  0  0  0
   22.6440  -20.2813  -15.0605 C   0  0  0  0  0  0  0  0  0  0  0  0
   21.3440  -19.9030  -15.2437 O   0  0  0  0  0  0  0  0  0  0  0  0
   23.0145  -21.3955  -15.4729 O   0  0  0  0  0  0  0  0  0  0  0  0
  2 10  1  0
  2  1  1  1
  3  2  1  0
  4  3  1  0
  5  4  2  0
  6  5  1  0
  7  8  1  0
  7  6  2  0
  8  9  2  0
  9  4  1  0
 10 12  1  0
 11 10  2  0
 12 13  1  0
 14 13  1  0
 14 15  2  0
 16 14  1  0
 17 16  1  0
 17 23  1  0
 17 18  1  6
 19 20  1  0
 19 18  1  0
 21 20  1  0
 22 21  1  0
 23 25  2  0
 23 24  1  0
M  END
$$$$
