FGK.pdb
     RDKit          3D

 25 25  0  0  1  0  0  0  0  0999 V2000
   24.9297  -14.5609  -15.9556 N   0  0  0  0  0  0  0  0  0  0  0  0
   24.7043  -13.2714  -16.5833 C   0  0  1  0  0  0  0  0  0  0  0  0
   24.1719  -13.5098  -17.9698 C   0  0  0  0  0  0  0  0  0  0  0  0
   24.9986  -14.4041  -18.7942 C   0  0  0  0  0  0  0  0  0  0  0  0
   24.9382  -15.7897  -18.6872 C   0  0  0  0  0  0  0  0  0  0  0  0
   25.7166  -16.6061  -19.4759 C   0  0  0  0  0  0  0  0  0  0  0  0
   26.5816  -16.0998  -20.3971 C   0  0  0  0  0  0  0  0  0  0  0  0
   26.6593  -14.7317  -20.5218 C   0  0  0  0  0  0  0  0  0  0  0  0
   25.8811  -13.8972  -19.7340 C   0  0  0  0  0  0  0  0  0  0  0  0
   23.7433  -12.4845  -15.7986 C   0  0  0  0  0  0  0  0  0  0  0  0
   22.9433  -12.9899  -14.9739 O   0  0  0  0  0  0  0  0  0  0  0  0
   23.6606  -11.0388  -15.9347 N   0  0  0  0  0  0  0  0  0  0  0  0
   22.7982  -10.2918  -15.0988 C   0  0  0  0  0  0  0  0  0  0  0  0
   22.9352   -8.8453  -15.3064 C   0  0  0  0  0  0  0  0  0  0  0  0
   23.6967   -8.4071  -16.2516 O   0  0  0  0  0  0  0  0  0  0  0  0
   22.2963   -7.8651  -14.5505 N   0  0  0  0  0  0  0  0  0  0  0  0
   22.3522   -6.4564  -14.9774 C   0  0  1  0  0  0  0  0  0  0  0  0
   21.5296   -6.3007  -16.2035 C   0  0  0  0  0  0  0  0  0  0  0  0
   20.1056   -6.6811  -16.1278 C   0  0  0  0  0  0  0  0  0  0  0  0
   19.2984   -6.3653  -17.3489 C   0  0  0  0  0  0  0  0  0  0  0  0
   17.8798   -6.8722  -17.1974 C   0  0  0  0  0  0  0  0  0  0  0  0
   17.1992   -6.6230  -18.4630 N   0  0  0  0  0  0  0  0  0  0  0  0
   21.7478   -5.6754  -13.8732 C   0  0  0  0  0  0  0  0  0  0  0  0
   21.1573   -6.2787  -12.7989 O   0  0  0  0  0  0  0  0  0  0  0  0
   21.7800   -4.4326  -13.9278 O   0  0  0  0  0  0  0  0  0  0  0  0
  2 10  1  0
  2  1  1  1
  3  2  1  0
  4  3  1  0
  5  4  2  0
  6  5  1  0
  7  8  1  0
  7  6  2  0
  8  9  2  0
  9  4  1  0
 10 12  1  0
 11 10  2  0
 12 13  1  0
 14 13  1  0
 14 15  2  0
 16 14  1  0
 17 16  1  0
 17 23  1  0
 17 18  1  6
 19 20  1  0
 19 18  1  0
 21 20  1  0
 22 21  1  0
 23 25  2  0
 23 24  1  0
M  END
$$$$
