FGK.pdb
     RDKit          3D

 25 25  0  0  1  0  0  0  0  0999 V2000
   24.8349  -15.1127  -19.2508 N   0  0  0  0  0  0  0  0  0  0  0  0
   25.9853  -15.3021  -18.3856 C   0  0  1  0  0  0  0  0  0  0  0  0
   26.7092  -13.9884  -18.2712 C   0  0  0  0  0  0  0  0  0  0  0  0
   27.1712  -13.4341  -19.5528 C   0  0  0  0  0  0  0  0  0  0  0  0
   26.6509  -12.2624  -20.0926 C   0  0  0  0  0  0  0  0  0  0  0  0
   27.1056  -11.7591  -21.2903 C   0  0  0  0  0  0  0  0  0  0  0  0
   28.0839  -12.3810  -22.0039 C   0  0  0  0  0  0  0  0  0  0  0  0
   28.6147  -13.5420  -21.4904 C   0  0  0  0  0  0  0  0  0  0  0  0
   28.1664  -14.0604  -20.2850 C   0  0  0  0  0  0  0  0  0  0  0  0
   25.5538  -15.7613  -17.0584 C   0  0  0  0  0  0  0  0  0  0  0  0
   24.4869  -15.3915  -16.5102 O   0  0  0  0  0  0  0  0  0  0  0  0
   26.3570  -16.6937  -16.2834 N   0  0  0  0  0  0  0  0  0  0  0  0
   25.8774  -17.1949  -15.0507 C   0  0  0  0  0  0  0  0  0  0  0  0
   24.9645  -18.3304  -15.2277 C   0  0  0  0  0  0  0  0  0  0  0  0
   24.3888  -18.5129  -16.3682 O   0  0  0  0  0  0  0  0  0  0  0  0
   24.6497  -19.2642  -14.2431 N   0  0  0  0  0  0  0  0  0  0  0  0
   23.8472  -20.4507  -14.5865 C   0  0  1  0  0  0  0  0  0  0  0  0
   24.2161  -21.5544  -13.6644 C   0  0  0  0  0  0  0  0  0  0  0  0
   23.5504  -22.8579  -13.8527 C   0  0  0  0  0  0  0  0  0  0  0  0
   23.9582  -23.9249  -12.8844 C   0  0  0  0  0  0  0  0  0  0  0  0
   23.1865  -25.2021  -13.1404 C   0  0  0  0  0  0  0  0  0  0  0  0
   23.6441  -26.1817  -12.1617 N   0  0  0  0  0  0  0  0  0  0  0  0
   22.4358  -20.0642  -14.3564 C   0  0  0  0  0  0  0  0  0  0  0  0
   22.0851  -19.1227  -13.4304 O   0  0  0  0  0  0  0  0  0  0  0  0
   21.5443  -20.6150  -15.0276 O   0  0  0  0  0  0  0  0  0  0  0  0
  2 10  1  0
  2  1  1  6
  3  2  1  0
  4  3  1  0
  5  4  2  0
  6  5  1  0
  7  8  1  0
  7  6  2  0
  8  9  2  0
  9  4  1  0
 10 12  1  0
 11 10  2  0
 12 13  1  0
 14 13  1  0
 14 15  2  0
 16 14  1  0
 17 16  1  0
 17 23  1  0
 17 18  1  1
 19 20  1  0
 19 18  1  0
 21 20  1  0
 22 21  1  0
 23 25  2  0
 23 24  1  0
M  END
$$$$
