FGK.pdb
     RDKit          3D

 25 25  0  0  1  0  0  0  0  0999 V2000
   25.4021  -20.7286   -7.2705 N   0  0  0  0  0  0  0  0  0  0  0  0
   26.3361  -20.2290   -8.2633 C   0  0  1  0  0  0  0  0  0  0  0  0
   27.7245  -20.6325   -7.8482 C   0  0  0  0  0  0  0  0  0  0  0  0
   28.1702  -20.0552   -6.5710 C   0  0  0  0  0  0  0  0  0  0  0  0
   28.8977  -20.7820   -5.6344 C   0  0  0  0  0  0  0  0  0  0  0  0
   29.3106  -20.2167   -4.4492 C   0  0  0  0  0  0  0  0  0  0  0  0
   29.0284  -18.9225   -4.1357 C   0  0  0  0  0  0  0  0  0  0  0  0
   28.3098  -18.1827   -5.0465 C   0  0  0  0  0  0  0  0  0  0  0  0
   27.8875  -18.7390   -6.2444 C   0  0  0  0  0  0  0  0  0  0  0  0
   26.0195  -20.7859   -9.5855 C   0  0  0  0  0  0  0  0  0  0  0  0
   25.6081  -21.9584   -9.7632 O   0  0  0  0  0  0  0  0  0  0  0  0
   26.1678  -19.9921  -10.7951 N   0  0  0  0  0  0  0  0  0  0  0  0
   25.8472  -20.5468  -12.0561 C   0  0  0  0  0  0  0  0  0  0  0  0
   24.4956  -20.1833  -12.4980 C   0  0  0  0  0  0  0  0  0  0  0  0
   23.7450  -19.4687  -11.7291 O   0  0  0  0  0  0  0  0  0  0  0  0
   23.9264  -20.5513  -13.7150 N   0  0  0  0  0  0  0  0  0  0  0  0
   22.5578  -20.1185  -14.0457 C   0  0  1  0  0  0  0  0  0  0  0  0
   22.2817  -20.4646  -15.4629 C   0  0  0  0  0  0  0  0  0  0  0  0
   22.5153  -21.8586  -15.8873 C   0  0  0  0  0  0  0  0  0  0  0  0
   22.2185  -22.1420  -17.3274 C   0  0  0  0  0  0  0  0  0  0  0  0
   22.4338  -23.6080  -17.6389 C   0  0  0  0  0  0  0  0  0  0  0  0
   22.0898  -23.8018  -19.0428 N   0  0  0  0  0  0  0  0  0  0  0  0
   21.6622  -20.9002  -13.1617 C   0  0  0  0  0  0  0  0  0  0  0  0
   22.0558  -22.0777  -12.5915 O   0  0  0  0  0  0  0  0  0  0  0  0
   20.5172  -20.4694  -12.9331 O   0  0  0  0  0  0  0  0  0  0  0  0
  2 10  1  0
  2  1  1  1
  3  2  1  0
  4  3  1  0
  5  4  2  0
  6  5  1  0
  7  8  1  0
  7  6  2  0
  8  9  2  0
  9  4  1  0
 10 12  1  0
 11 10  2  0
 12 13  1  0
 14 13  1  0
 14 15  2  0
 16 14  1  0
 17 16  1  0
 17 23  1  0
 17 18  1  6
 19 20  1  0
 19 18  1  0
 21 20  1  0
 22 21  1  0
 23 25  2  0
 23 24  1  0
M  END
$$$$
