FGK.pdb
     RDKit          3D

 25 25  0  0  1  0  0  0  0  0999 V2000
   22.8794  -17.7071  -16.7224 N   0  0  0  0  0  0  0  0  0  0  0  0
   23.3261  -16.3609  -17.0321 C   0  0  1  0  0  0  0  0  0  0  0  0
   22.2641  -15.3969  -16.5787 C   0  0  0  0  0  0  0  0  0  0  0  0
   21.1363  -15.2505  -17.5114 C   0  0  0  0  0  0  0  0  0  0  0  0
   21.2117  -14.4702  -18.6605 C   0  0  0  0  0  0  0  0  0  0  0  0
   20.1448  -14.3553  -19.5224 C   0  0  0  0  0  0  0  0  0  0  0  0
   18.9665  -14.9975  -19.2940 C   0  0  0  0  0  0  0  0  0  0  0  0
   18.8673  -15.7758  -18.1636 C   0  0  0  0  0  0  0  0  0  0  0  0
   19.9340  -15.9007  -17.2866 C   0  0  0  0  0  0  0  0  0  0  0  0
   24.5953  -16.0762  -16.3492 C   0  0  0  0  0  0  0  0  0  0  0  0
   25.1117  -14.9335  -16.2945 O   0  0  0  0  0  0  0  0  0  0  0  0
   25.3459  -17.1272  -15.6803 N   0  0  0  0  0  0  0  0  0  0  0  0
   26.5955  -16.8413  -15.0825 C   0  0  0  0  0  0  0  0  0  0  0  0
   27.1652  -18.0070  -14.3963 C   0  0  0  0  0  0  0  0  0  0  0  0
   28.3361  -17.9212  -13.8607 O   0  0  0  0  0  0  0  0  0  0  0  0
   26.5367  -19.2432  -14.2644 N   0  0  0  0  0  0  0  0  0  0  0  0
   27.3131  -20.4193  -13.8360 C   0  0  1  0  0  0  0  0  0  0  0  0
   26.5436  -21.1386  -12.7896 C   0  0  0  0  0  0  0  0  0  0  0  0
   26.2261  -20.4084  -11.5470 C   0  0  0  0  0  0  0  0  0  0  0  0
   25.3701  -21.1562  -10.5722 C   0  0  0  0  0  0  0  0  0  0  0  0
   25.1279  -20.3276   -9.3284 C   0  0  0  0  0  0  0  0  0  0  0  0
   24.2244  -21.0910   -8.4753 N   0  0  0  0  0  0  0  0  0  0  0  0
   27.4397  -21.2787  -15.0360 C   0  0  0  0  0  0  0  0  0  0  0  0
   28.3054  -22.3348  -15.0817 O   0  0  0  0  0  0  0  0  0  0  0  0
   26.7355  -21.0294  -16.0313 O   0  0  0  0  0  0  0  0  0  0  0  0
  2 10  1  0
  2  1  1  1
  3  2  1  0
  4  3  1  0
  5  4  2  0
  6  5  1  0
  7  8  1  0
  7  6  2  0
  8  9  2  0
  9  4  1  0
 10 12  1  0
 11 10  2  0
 12 13  1  0
 14 13  1  0
 14 15  2  0
 16 14  1  0
 17 16  1  0
 17 23  1  0
 17 18  1  1
 19 20  1  0
 19 18  1  0
 21 20  1  0
 22 21  1  0
 23 25  2  0
 23 24  1  0
M  END
$$$$
