GCM.pdb
     RDKit          3D

 19 18  0  0  1  0  0  0  0  0999 V2000
    3.8907  -19.1123   21.7727 N   0  0  0  0  0  0  0  0  0  0  0  0
    3.9875  -17.6937   21.4964 C   0  0  0  0  0  0  0  0  0  0  0  0
    5.4132  -17.3028   21.5835 C   0  0  0  0  0  0  0  0  0  0  0  0
    6.2529  -18.0956   22.0958 O   0  0  0  0  0  0  0  0  0  0  0  0
    5.9078  -16.0617   21.1157 N   0  0  0  0  0  0  0  0  0  0  0  0
    7.3167  -15.6525   21.2727 C   0  0  1  0  0  0  0  0  0  0  0  0
    7.6668  -14.6690   20.1922 C   0  0  0  0  0  0  0  0  0  0  0  0
    9.3854  -14.1542   20.1968 S   0  0  0  0  0  0  0  0  0  0  0  0
    7.5154  -15.0633   22.6057 C   0  0  0  0  0  0  0  0  0  0  0  0
    6.8911  -14.0054   22.9545 O   0  0  0  0  0  0  0  0  0  0  0  0
    7.7941  -11.5743   27.3890 C   0  0  0  0  0  0  0  0  0  0  0  0
    6.6150  -12.6848   26.5313 S   0  0  0  0  0  0  0  0  0  0  0  0
    7.1475  -14.4110   26.8539 C   0  0  0  0  0  0  0  0  0  0  0  0
    7.2167  -15.0892   25.5260 C   0  0  0  0  0  0  0  0  0  0  0  0
    8.5836  -15.0496   24.8777 C   0  0  2  0  0  0  0  0  0  0  0  0
    8.3846  -15.6332   23.5414 N   0  0  0  0  0  0  0  0  0  0  0  0
    9.5802  -15.8951   25.5735 C   0  0  0  0  0  0  0  0  0  0  0  0
    9.9669  -17.1577   25.1417 O   0  0  0  0  0  0  0  0  0  0  0  0
   10.1596  -15.5069   26.6386 O   0  0  0  0  0  0  0  0  0  0  0  0
  2  3  1  0
  2  1  1  0
  3  5  1  0
  4  3  2  0
  6  5  1  0
  6  9  1  0
  6  7  1  6
  7  8  1  0
  9 16  1  0
  9 10  2  0
 11 12  1  0
 13 12  1  0
 13 14  1  0
 15 14  1  1
 15 17  1  0
 16 15  1  0
 17 19  2  0
 17 18  1  0
M  END
$$$$
