GCM.pdb
     RDKit          3D

 19 18  0  0  1  0  0  0  0  0999 V2000
    9.0877  -18.0564   17.6971 N   0  0  0  0  0  0  0  0  0  0  0  0
    9.7251  -17.7652   18.9649 C   0  0  0  0  0  0  0  0  0  0  0  0
    8.6658  -17.4696   19.9567 C   0  0  0  0  0  0  0  0  0  0  0  0
    7.4588  -17.7228   19.6826 O   0  0  0  0  0  0  0  0  0  0  0  0
    8.9285  -16.9054   21.2281 N   0  0  0  0  0  0  0  0  0  0  0  0
    7.9152  -16.8413   22.2987 C   0  0  1  0  0  0  0  0  0  0  0  0
    7.3916  -18.2244   22.5641 C   0  0  0  0  0  0  0  0  0  0  0  0
    6.4760  -18.3808   24.0989 S   0  0  0  0  0  0  0  0  0  0  0  0
    8.5127  -16.2627   23.5118 C   0  0  0  0  0  0  0  0  0  0  0  0
    9.6962  -16.5773   23.8739 O   0  0  0  0  0  0  0  0  0  0  0  0
    5.8005  -11.1858   25.7979 C   0  0  0  0  0  0  0  0  0  0  0  0
    6.5174  -11.6411   27.4221 S   0  0  0  0  0  0  0  0  0  0  0  0
    7.8475  -12.8674   27.1146 C   0  0  0  0  0  0  0  0  0  0  0  0
    7.4257  -13.6615   25.9231 C   0  0  0  0  0  0  0  0  0  0  0  0
    8.4628  -14.6497   25.4350 C   0  0  2  0  0  0  0  0  0  0  0  0
    7.8192  -15.3481   24.3108 N   0  0  0  0  0  0  0  0  0  0  0  0
    8.8034  -15.6786   26.4438 C   0  0  0  0  0  0  0  0  0  0  0  0
    8.1524  -16.9005   26.5599 O   0  0  0  0  0  0  0  0  0  0  0  0
    9.7387  -15.5025   27.2894 O   0  0  0  0  0  0  0  0  0  0  0  0
  2  3  1  0
  2  1  1  0
  3  5  1  0
  4  3  2  0
  6  5  1  0
  6  9  1  0
  6  7  1  1
  7  8  1  0
  9 16  1  0
  9 10  2  0
 11 12  1  0
 13 12  1  0
 13 14  1  0
 15 14  1  1
 15 17  1  0
 16 15  1  0
 17 19  2  0
 17 18  1  0
M  END
$$$$
