GCM.pdb
     RDKit          3D

 19 18  0  0  1  0  0  0  0  0999 V2000
    6.0233  -21.6239   23.9510 N   0  0  0  0  0  0  0  0  0  0  0  0
    5.5592  -20.2861   24.2564 C   0  0  0  0  0  0  0  0  0  0  0  0
    6.2182  -19.3446   23.3223 C   0  0  0  0  0  0  0  0  0  0  0  0
    7.3910  -19.5792   22.9157 O   0  0  0  0  0  0  0  0  0  0  0  0
    5.5988  -18.1654   22.8434 N   0  0  0  0  0  0  0  0  0  0  0  0
    6.2898  -17.1983   21.9690 C   0  0  1  0  0  0  0  0  0  0  0  0
    5.2814  -16.5377   21.0723 C   0  0  0  0  0  0  0  0  0  0  0  0
    3.6379  -17.2513   21.1646 S   0  0  0  0  0  0  0  0  0  0  0  0
    6.9950  -16.2034   22.7913 C   0  0  0  0  0  0  0  0  0  0  0  0
    6.8938  -14.9553   22.5406 O   0  0  0  0  0  0  0  0  0  0  0  0
    6.8172  -11.0838   25.9247 C   0  0  0  0  0  0  0  0  0  0  0  0
    6.5235  -12.6838   26.7692 S   0  0  0  0  0  0  0  0  0  0  0  0
    7.9277  -13.7914   26.3581 C   0  0  0  0  0  0  0  0  0  0  0  0
    7.4466  -14.7046   25.2799 C   0  0  0  0  0  0  0  0  0  0  0  0
    8.5230  -15.5870   24.6857 C   0  0  2  0  0  0  0  0  0  0  0  0
    7.7951  -16.5770   23.8758 N   0  0  0  0  0  0  0  0  0  0  0  0
    9.2840  -16.3414   25.7074 C   0  0  0  0  0  0  0  0  0  0  0  0
    9.1231  -17.6994   25.9527 O   0  0  0  0  0  0  0  0  0  0  0  0
   10.1560  -15.7771   26.4438 O   0  0  0  0  0  0  0  0  0  0  0  0
  2  3  1  0
  2  1  1  0
  3  5  1  0
  4  3  2  0
  6  5  1  0
  6  9  1  0
  6  7  1  6
  7  8  1  0
  9 16  1  0
  9 10  2  0
 11 12  1  0
 13 12  1  0
 13 14  1  0
 15 14  1  1
 15 17  1  0
 16 15  1  0
 17 19  2  0
 17 18  1  0
M  END
$$$$
