GCM.pdb
     RDKit          3D

 19 18  0  0  1  0  0  0  0  0999 V2000
   -3.8202  -26.1780   23.8975 N   0  0  0  0  0  0  0  0  0  0  0  0
   -5.0282  -26.2754   24.6909 C   0  0  0  0  0  0  0  0  0  0  0  0
   -5.2808  -24.9545   25.3109 C   0  0  0  0  0  0  0  0  0  0  0  0
   -4.3433  -24.3462   25.8999 O   0  0  0  0  0  0  0  0  0  0  0  0
   -6.5424  -24.3130   25.2841 N   0  0  0  0  0  0  0  0  0  0  0  0
   -6.8146  -23.0550   26.0054 C   0  0  1  0  0  0  0  0  0  0  0  0
   -8.0204  -22.3925   25.4015 C   0  0  0  0  0  0  0  0  0  0  0  0
   -8.5409  -20.9005   26.2509 S   0  0  0  0  0  0  0  0  0  0  0  0
   -7.0294  -23.3391   27.4325 C   0  0  0  0  0  0  0  0  0  0  0  0
   -7.6347  -24.3997   27.8060 O   0  0  0  0  0  0  0  0  0  0  0  0
   -3.4255  -22.7766   34.2235 C   0  0  0  0  0  0  0  0  0  0  0  0
   -3.5235  -22.6613   32.3970 S   0  0  0  0  0  0  0  0  0  0  0  0
   -5.2912  -22.8121   31.9279 C   0  0  0  0  0  0  0  0  0  0  0  0
   -5.3487  -22.6837   30.4419 C   0  0  0  0  0  0  0  0  0  0  0  0
   -6.7437  -22.7775   29.8627 C   0  0  2  0  0  0  0  0  0  0  0  0
   -6.5802  -22.4709   28.4327 N   0  0  0  0  0  0  0  0  0  0  0  0
   -7.6711  -21.7654   30.4174 C   0  0  0  0  0  0  0  0  0  0  0  0
   -8.0437  -20.6036   29.7527 O   0  0  0  0  0  0  0  0  0  0  0  0
   -8.1985  -21.9008   31.5683 O   0  0  0  0  0  0  0  0  0  0  0  0
  2  3  1  0
  2  1  1  0
  3  5  1  0
  4  3  2  0
  6  5  1  0
  6  9  1  0
  6  7  1  6
  7  8  1  0
  9 16  1  0
  9 10  2  0
 11 12  1  0
 13 12  1  0
 13 14  1  0
 15 14  1  1
 15 17  1  0
 16 15  1  0
 17 19  2  0
 17 18  1  0
M  END
$$$$
