GCM.pdb
     RDKit          3D

 19 18  0  0  1  0  0  0  0  0999 V2000
   12.2778  -18.2377   18.5478 N   0  0  0  0  0  0  0  0  0  0  0  0
   12.2189  -18.6599   19.9321 C   0  0  0  0  0  0  0  0  0  0  0  0
   10.9436  -18.1755   20.5084 C   0  0  0  0  0  0  0  0  0  0  0  0
   10.2178  -17.3787   19.8495 O   0  0  0  0  0  0  0  0  0  0  0  0
   10.4739  -18.5603   21.7872 N   0  0  0  0  0  0  0  0  0  0  0  0
    9.2048  -18.0657   22.3544 C   0  0  1  0  0  0  0  0  0  0  0  0
    8.4137  -19.2301   22.8796 C   0  0  0  0  0  0  0  0  0  0  0  0
    9.2242  -20.1317   24.2020 S   0  0  0  0  0  0  0  0  0  0  0  0
    9.4853  -17.0947   23.4231 C   0  0  0  0  0  0  0  0  0  0  0  0
   10.6350  -17.0429   23.9766 O   0  0  0  0  0  0  0  0  0  0  0  0
    6.1619  -10.8481   26.9499 C   0  0  0  0  0  0  0  0  0  0  0  0
    6.0787  -12.2472   25.7688 S   0  0  0  0  0  0  0  0  0  0  0  0
    7.6044  -13.2438   25.9846 C   0  0  0  0  0  0  0  0  0  0  0  0
    7.6042  -14.2622   24.8934 C   0  0  0  0  0  0  0  0  0  0  0  0
    8.8110  -15.1754   24.8943 C   0  0  2  0  0  0  0  0  0  0  0  0
    8.5161  -16.1918   23.8717 N   0  0  0  0  0  0  0  0  0  0  0  0
    8.9937  -15.8937   26.1761 C   0  0  0  0  0  0  0  0  0  0  0  0
    8.4037  -17.1156   26.4747 O   0  0  0  0  0  0  0  0  0  0  0  0
    9.7220  -15.4235   27.1085 O   0  0  0  0  0  0  0  0  0  0  0  0
  2  3  1  0
  2  1  1  0
  3  5  1  0
  4  3  2  0
  6  5  1  0
  6  9  1  0
  6  7  1  1
  7  8  1  0
  9 16  1  0
  9 10  2  0
 11 12  1  0
 13 12  1  0
 13 14  1  0
 15 14  1  1
 15 17  1  0
 16 15  1  0
 17 19  2  0
 17 18  1  0
M  END
$$$$
