GCM.pdb
     RDKit          3D

 19 18  0  0  1  0  0  0  0  0999 V2000
    8.0092  -12.8975   17.4926 N   0  0  0  0  0  0  0  0  0  0  0  0
    9.0605  -13.5815   18.2172 C   0  0  0  0  0  0  0  0  0  0  0  0
    8.4275  -14.4929   19.1978 C   0  0  0  0  0  0  0  0  0  0  0  0
    7.4522  -15.2153   18.8471 O   0  0  0  0  0  0  0  0  0  0  0  0
    8.8590  -14.6086   20.5410 N   0  0  0  0  0  0  0  0  0  0  0  0
    8.5764  -15.7948   21.3718 C   0  0  1  0  0  0  0  0  0  0  0  0
    9.2370  -16.9956   20.7559 C   0  0  0  0  0  0  0  0  0  0  0  0
    9.0237  -18.5114   21.6915 S   0  0  0  0  0  0  0  0  0  0  0  0
    9.0655  -15.5687   22.7403 C   0  0  0  0  0  0  0  0  0  0  0  0
   10.3007  -15.3347   22.9648 O   0  0  0  0  0  0  0  0  0  0  0  0
    6.3893  -10.9770   28.0850 C   0  0  0  0  0  0  0  0  0  0  0  0
    6.2801  -11.9288   26.5225 S   0  0  0  0  0  0  0  0  0  0  0  0
    7.1782  -13.5092   26.7744 C   0  0  0  0  0  0  0  0  0  0  0  0
    7.1626  -14.2203   25.4621 C   0  0  0  0  0  0  0  0  0  0  0  0
    8.4898  -14.8332   25.0708 C   0  0  2  0  0  0  0  0  0  0  0  0
    8.2067  -15.5950   23.8438 N   0  0  0  0  0  0  0  0  0  0  0  0
    8.9996  -15.7993   26.0703 C   0  0  0  0  0  0  0  0  0  0  0  0
    9.2540  -17.1381   25.7996 O   0  0  0  0  0  0  0  0  0  0  0  0
    9.2428  -15.4537   27.2712 O   0  0  0  0  0  0  0  0  0  0  0  0
  2  3  1  0
  2  1  1  0
  3  5  1  0
  4  3  2  0
  6  5  1  0
  6  9  1  0
  6  7  1  6
  7  8  1  0
  9 16  1  0
  9 10  2  0
 11 12  1  0
 13 12  1  0
 13 14  1  0
 15 14  1  1
 15 17  1  0
 16 15  1  0
 17 19  2  0
 17 18  1  0
M  END
$$$$
