GCM.pdb
     RDKit          3D

 19 18  0  0  1  0  0  0  0  0999 V2000
    7.5900  -12.9559   17.8839 N   0  0  0  0  0  0  0  0  0  0  0  0
    8.7476  -13.4970   18.5660 C   0  0  0  0  0  0  0  0  0  0  0  0
    8.2722  -14.3006   19.7155 C   0  0  0  0  0  0  0  0  0  0  0  0
    7.3462  -13.8583   20.4523 O   0  0  0  0  0  0  0  0  0  0  0  0
    8.8052  -15.5687   20.0495 N   0  0  0  0  0  0  0  0  0  0  0  0
    8.3568  -16.3395   21.2250 C   0  0  1  0  0  0  0  0  0  0  0  0
    8.8384  -17.7570   21.0968 C   0  0  0  0  0  0  0  0  0  0  0  0
    8.4775  -18.7865   22.5210 S   0  0  0  0  0  0  0  0  0  0  0  0
    8.8748  -15.7164   22.4525 C   0  0  0  0  0  0  0  0  0  0  0  0
   10.0526  -15.2245   22.4915 O   0  0  0  0  0  0  0  0  0  0  0  0
    6.2290  -11.0363   27.9751 C   0  0  0  0  0  0  0  0  0  0  0  0
    5.9880  -12.1689   26.5544 S   0  0  0  0  0  0  0  0  0  0  0  0
    7.5520  -13.0992   26.3181 C   0  0  0  0  0  0  0  0  0  0  0  0
    7.3582  -13.9559   25.1112 C   0  0  0  0  0  0  0  0  0  0  0  0
    8.5386  -14.8442   24.7827 C   0  0  2  0  0  0  0  0  0  0  0  0
    8.1056  -15.6320   23.6175 N   0  0  0  0  0  0  0  0  0  0  0  0
    8.8570  -15.8080   25.8607 C   0  0  0  0  0  0  0  0  0  0  0  0
    9.6528  -15.5112   26.9601 O   0  0  0  0  0  0  0  0  0  0  0  0
    8.4091  -16.9997   25.8462 O   0  0  0  0  0  0  0  0  0  0  0  0
  2  3  1  0
  2  1  1  0
  3  5  1  0
  4  3  2  0
  6  5  1  0
  6  9  1  0
  6  7  1  6
  7  8  1  0
  9 16  1  0
  9 10  2  0
 11 12  1  0
 13 12  1  0
 13 14  1  0
 15 14  1  1
 15 17  1  0
 16 15  1  0
 17 19  2  0
 17 18  1  0
M  END
$$$$
