GCM.pdb
     RDKit          3D

 19 18  0  0  1  0  0  0  0  0999 V2000
    9.7465  -17.0859   18.5319 N   0  0  0  0  0  0  0  0  0  0  0  0
   10.5346  -16.7689   19.7053 C   0  0  0  0  0  0  0  0  0  0  0  0
    9.6556  -16.8709   20.8928 C   0  0  0  0  0  0  0  0  0  0  0  0
    8.4928  -17.3504   20.7756 O   0  0  0  0  0  0  0  0  0  0  0  0
   10.0481  -16.4532   22.1871 N   0  0  0  0  0  0  0  0  0  0  0  0
    9.2341  -16.7099   23.3906 C   0  0  1  0  0  0  0  0  0  0  0  0
    9.2631  -18.1799   23.7000 C   0  0  0  0  0  0  0  0  0  0  0  0
   10.9076  -18.8378   23.9850 S   0  0  0  0  0  0  0  0  0  0  0  0
    9.7568  -15.9240   24.5187 C   0  0  0  0  0  0  0  0  0  0  0  0
   11.0066  -15.6858   24.6285 O   0  0  0  0  0  0  0  0  0  0  0  0
    5.9966  -10.4370   26.0850 C   0  0  0  0  0  0  0  0  0  0  0  0
    6.3721  -11.9688   27.0186 S   0  0  0  0  0  0  0  0  0  0  0  0
    7.9346  -12.6569   26.3456 C   0  0  0  0  0  0  0  0  0  0  0  0
    8.2618  -13.8555   27.1728 C   0  0  0  0  0  0  0  0  0  0  0  0
    9.4385  -14.6600   26.6644 C   0  0  2  0  0  0  0  0  0  0  0  0
    8.9155  -15.4044   25.5077 N   0  0  0  0  0  0  0  0  0  0  0  0
    9.9203  -15.6633   27.6409 C   0  0  0  0  0  0  0  0  0  0  0  0
    9.6594  -17.0249   27.5510 O   0  0  0  0  0  0  0  0  0  0  0  0
   10.6221  -15.3313   28.6500 O   0  0  0  0  0  0  0  0  0  0  0  0
  2  3  1  0
  2  1  1  0
  3  5  1  0
  4  3  2  0
  6  5  1  0
  6  9  1  0
  6  7  1  1
  7  8  1  0
  9 16  1  0
  9 10  2  0
 11 12  1  0
 13 12  1  0
 13 14  1  0
 15 14  1  1
 15 17  1  0
 16 15  1  0
 17 19  2  0
 17 18  1  0
M  END
$$$$
