GCM.pdb
     RDKit          3D

 19 18  0  0  1  0  0  0  0  0999 V2000
    8.0704  -12.2955   18.5356 N   0  0  0  0  0  0  0  0  0  0  0  0
    8.9735  -13.3982   18.7940 C   0  0  0  0  0  0  0  0  0  0  0  0
    8.4756  -14.1346   19.9785 C   0  0  0  0  0  0  0  0  0  0  0  0
    7.5430  -13.6462   20.6768 O   0  0  0  0  0  0  0  0  0  0  0  0
    8.9938  -15.3864   20.3884 N   0  0  0  0  0  0  0  0  0  0  0  0
    8.4525  -16.1378   21.5371 C   0  0  1  0  0  0  0  0  0  0  0  0
    8.7111  -17.6037   21.3322 C   0  0  0  0  0  0  0  0  0  0  0  0
    8.2982  -18.6269   22.7468 S   0  0  0  0  0  0  0  0  0  0  0  0
    9.0787  -15.6614   22.7798 C   0  0  0  0  0  0  0  0  0  0  0  0
   10.3353  -15.4415   22.8383 O   0  0  0  0  0  0  0  0  0  0  0  0
    5.3539  -12.4040   26.3633 C   0  0  0  0  0  0  0  0  0  0  0  0
    6.9273  -11.7331   27.0216 S   0  0  0  0  0  0  0  0  0  0  0  0
    8.2129  -13.0242   26.8025 C   0  0  0  0  0  0  0  0  0  0  0  0
    7.9133  -13.7065   25.5092 C   0  0  0  0  0  0  0  0  0  0  0  0
    8.9137  -14.7743   25.1227 C   0  0  2  0  0  0  0  0  0  0  0  0
    8.3318  -15.4261   23.9385 N   0  0  0  0  0  0  0  0  0  0  0  0
    9.0726  -15.8218   26.1570 C   0  0  0  0  0  0  0  0  0  0  0  0
    9.9471  -15.7274   27.2325 O   0  0  0  0  0  0  0  0  0  0  0  0
    8.3999  -16.9022   26.1238 O   0  0  0  0  0  0  0  0  0  0  0  0
  2  3  1  0
  2  1  1  0
  3  5  1  0
  4  3  2  0
  6  5  1  0
  6  9  1  0
  6  7  1  6
  7  8  1  0
  9 16  1  0
  9 10  2  0
 11 12  1  0
 13 12  1  0
 13 14  1  0
 15 14  1  1
 15 17  1  0
 16 15  1  0
 17 19  2  0
 17 18  1  0
M  END
$$$$
