GPK.pdb
     RDKit          3D

 21 21  0  0  1  0  0  0  0  0999 V2000
   19.6148  -13.0117  -16.6240 N   0  0  0  0  0  0  0  0  0  0  0  0
   20.2735  -11.7465  -16.5429 C   0  0  0  0  0  0  0  0  0  0  0  0
   19.7361  -10.8084  -15.5594 C   0  0  0  0  0  0  0  0  0  0  0  0
   18.7126  -11.1655  -14.9252 O   0  0  0  0  0  0  0  0  0  0  0  0
   20.3139   -9.5538  -15.3074 N   0  0  0  0  0  0  0  0  0  0  0  0
   21.4808   -9.0780  -16.0692 C   0  0  0  0  0  0  0  0  0  0  0  0
   22.3120   -8.3216  -15.0824 C   0  0  0  0  0  0  0  0  0  0  0  0
   21.3499   -7.8367  -14.0504 C   0  0  0  0  0  0  0  0  0  0  0  0
   20.0286   -8.4896  -14.3941 C   0  0  1  0  0  0  0  0  0  0  0  0
   19.2247   -7.4698  -15.1627 C   0  0  0  0  0  0  0  0  0  0  0  0
   19.4013   -7.2501  -16.3823 O   0  0  0  0  0  0  0  0  0  0  0  0
   18.2312   -6.7233  -14.5045 N   0  0  0  0  0  0  0  0  0  0  0  0
   17.2832   -5.9496  -15.2825 C   0  0  1  0  0  0  0  0  0  0  0  0
   15.9184   -6.3877  -14.7299 C   0  0  0  0  0  0  0  0  0  0  0  0
   14.7944   -5.6672  -15.3768 C   0  0  0  0  0  0  0  0  0  0  0  0
   13.5021   -6.1678  -14.7117 C   0  0  0  0  0  0  0  0  0  0  0  0
   12.3743   -5.4262  -15.4354 C   0  0  0  0  0  0  0  0  0  0  0  0
   11.1444   -5.7658  -14.7505 N   0  0  0  0  0  0  0  0  0  0  0  0
   17.5097   -4.5116  -15.1785 C   0  0  0  0  0  0  0  0  0  0  0  0
   18.0992   -4.0166  -14.1914 O   0  0  0  0  0  0  0  0  0  0  0  0
   17.0733   -3.6726  -16.1786 O   0  0  0  0  0  0  0  0  0  0  0  0
  1  2  1  0
  3  2  1  0
  3  4  2  0
  5  3  1  0
  6  5  1  0
  7  8  1  0
  7  6  1  0
  8  9  1  0
  9  5  1  0
  9 10  1  6
 10 11  2  0
 12 10  1  0
 12 13  1  0
 13 14  1  1
 14 15  1  0
 15 16  1  0
 16 17  1  0
 18 17  1  0
 19 13  1  0
 19 21  1  0
 20 19  2  0
M  END
$$$$
