GPK.pdb
     RDKit          3D

 21 21  0  0  1  0  0  0  0  0999 V2000
   24.8046  -14.2118  -19.3468 N   0  0  0  0  0  0  0  0  0  0  0  0
   25.1238  -12.8506  -19.0529 C   0  0  0  0  0  0  0  0  0  0  0  0
   24.6255  -12.3386  -17.7779 C   0  0  0  0  0  0  0  0  0  0  0  0
   23.6255  -12.9129  -17.2802 O   0  0  0  0  0  0  0  0  0  0  0  0
   25.2150  -11.2538  -17.1091 N   0  0  0  0  0  0  0  0  0  0  0  0
   26.4197  -10.5897  -17.6345 C   0  0  0  0  0  0  0  0  0  0  0  0
   27.2241  -10.2239  -16.4280 C   0  0  0  0  0  0  0  0  0  0  0  0
   26.2303  -10.0756  -15.3252 C   0  0  0  0  0  0  0  0  0  0  0  0
   24.9124  -10.5398  -15.9064 C   0  0  1  0  0  0  0  0  0  0  0  0
   24.1581   -9.3008  -16.3223 C   0  0  0  0  0  0  0  0  0  0  0  0
   24.2042   -8.8403  -17.4854 O   0  0  0  0  0  0  0  0  0  0  0  0
   23.3645   -8.6180  -15.3834 N   0  0  0  0  0  0  0  0  0  0  0  0
   22.2481   -7.8130  -15.8397 C   0  0  1  0  0  0  0  0  0  0  0  0
   21.2729   -8.8454  -16.4256 C   0  0  0  0  0  0  0  0  0  0  0  0
   19.9862   -8.2313  -16.8355 C   0  0  0  0  0  0  0  0  0  0  0  0
   19.1508   -9.3423  -17.4918 C   0  0  0  0  0  0  0  0  0  0  0  0
   17.8090   -8.6824  -17.8228 C   0  0  0  0  0  0  0  0  0  0  0  0
   16.9642   -9.7141  -18.3875 N   0  0  0  0  0  0  0  0  0  0  0  0
   21.6601   -7.0092  -14.7729 C   0  0  0  0  0  0  0  0  0  0  0  0
   21.2244   -5.8564  -14.9929 O   0  0  0  0  0  0  0  0  0  0  0  0
   21.5754   -7.5168  -13.4962 O   0  0  0  0  0  0  0  0  0  0  0  0
  1  2  1  0
  3  2  1  0
  3  4  2  0
  5  3  1  0
  6  5  1  0
  7  8  1  0
  7  6  1  0
  8  9  1  0
  9  5  1  0
  9 10  1  6
 10 11  2  0
 12 10  1  0
 12 13  1  0
 13 14  1  1
 14 15  1  0
 15 16  1  0
 16 17  1  0
 18 17  1  0
 19 13  1  0
 19 21  1  0
 20 19  2  0
M  END
$$$$
