GPK.pdb
     RDKit          3D

 21 21  0  0  1  0  0  0  0  0999 V2000
   19.6999   -9.9706  -16.5416 N   0  0  0  0  0  0  0  0  0  0  0  0
   19.6605   -8.7612  -15.7819 C   0  0  0  0  0  0  0  0  0  0  0  0
   19.4784   -8.9180  -14.3403 C   0  0  0  0  0  0  0  0  0  0  0  0
   18.9347   -9.9780  -13.9425 O   0  0  0  0  0  0  0  0  0  0  0  0
   19.8826   -7.9465  -13.4106 N   0  0  0  0  0  0  0  0  0  0  0  0
   20.4546   -6.6602  -13.8426 C   0  0  0  0  0  0  0  0  0  0  0  0
   21.5084   -6.3396  -12.8310 C   0  0  0  0  0  0  0  0  0  0  0  0
   21.0764   -7.0329  -11.5825 C   0  0  0  0  0  0  0  0  0  0  0  0
   19.8820   -7.8724  -11.9815 C   0  0  1  0  0  0  0  0  0  0  0  0
   18.6505   -7.0914  -11.5937 C   0  0  0  0  0  0  0  0  0  0  0  0
   18.2291   -6.1195  -12.2606 O   0  0  0  0  0  0  0  0  0  0  0  0
   17.9297   -7.4505  -10.4409 N   0  0  0  0  0  0  0  0  0  0  0  0
   16.6543   -6.8174  -10.1673 C   0  0  1  0  0  0  0  0  0  0  0  0
   15.7334   -7.9956   -9.8151 C   0  0  0  0  0  0  0  0  0  0  0  0
   14.3908   -7.5448   -9.3734 C   0  0  0  0  0  0  0  0  0  0  0  0
   13.5994   -8.8066   -8.9932 C   0  0  0  0  0  0  0  0  0  0  0  0
   12.2526   -8.2872   -8.4817 C   0  0  0  0  0  0  0  0  0  0  0  0
   11.4365   -9.4498   -8.1996 N   0  0  0  0  0  0  0  0  0  0  0  0
   16.7376   -5.8174   -9.1075 C   0  0  0  0  0  0  0  0  0  0  0  0
   17.5821   -5.9135   -8.1886 O   0  0  0  0  0  0  0  0  0  0  0  0
   15.8781   -4.7423   -9.1074 O   0  0  0  0  0  0  0  0  0  0  0  0
  1  2  1  0
  3  2  1  0
  3  4  2  0
  5  3  1  0
  6  5  1  0
  7  8  1  0
  7  6  1  0
  8  9  1  0
  9  5  1  0
  9 10  1  6
 10 11  2  0
 12 10  1  0
 12 13  1  0
 13 14  1  1
 14 15  1  0
 15 16  1  0
 16 17  1  0
 18 17  1  0
 19 13  1  0
 19 21  1  0
 20 19  2  0
M  END
$$$$
