GPK.pdb
     RDKit          3D

 21 21  0  0  1  0  0  0  0  0999 V2000
   28.3333  -20.8218  -15.1718 N   0  0  0  0  0  0  0  0  0  0  0  0
   27.7674  -20.5896  -13.8806 C   0  0  0  0  0  0  0  0  0  0  0  0
   26.4644  -21.2040  -13.6344 C   0  0  0  0  0  0  0  0  0  0  0  0
   25.9767  -21.9043  -14.5558 O   0  0  0  0  0  0  0  0  0  0  0  0
   25.7597  -21.0409  -12.4309 N   0  0  0  0  0  0  0  0  0  0  0  0
   26.2805  -20.1949  -11.3439 C   0  0  0  0  0  0  0  0  0  0  0  0
   25.8939  -20.8963  -10.0809 C   0  0  0  0  0  0  0  0  0  0  0  0
   24.6754  -21.6841  -10.4278 C   0  0  0  0  0  0  0  0  0  0  0  0
   24.5179  -21.5421  -11.9263 C   0  0  1  0  0  0  0  0  0  0  0  0
   23.4934  -20.4585  -12.1568 C   0  0  0  0  0  0  0  0  0  0  0  0
   23.7992  -19.2481  -12.2486 O   0  0  0  0  0  0  0  0  0  0  0  0
   22.1337  -20.7967  -12.2768 N   0  0  0  0  0  0  0  0  0  0  0  0
   21.2957  -20.0739  -13.2137 C   0  0  1  0  0  0  0  0  0  0  0  0
   21.9066  -20.4130  -14.5819 C   0  0  0  0  0  0  0  0  0  0  0  0
   21.9768  -19.2291  -15.4731 C   0  0  0  0  0  0  0  0  0  0  0  0
   22.5682  -19.7102  -16.8080 C   0  0  0  0  0  0  0  0  0  0  0  0
   22.6119  -18.4605  -17.6922 C   0  0  0  0  0  0  0  0  0  0  0  0
   23.0456  -18.8925  -19.0047 N   0  0  0  0  0  0  0  0  0  0  0  0
   19.8869  -20.4398  -13.1077 C   0  0  0  0  0  0  0  0  0  0  0  0
   18.9925  -19.5668  -13.0368 O   0  0  0  0  0  0  0  0  0  0  0  0
   19.5207  -21.7665  -13.0858 O   0  0  0  0  0  0  0  0  0  0  0  0
  1  2  1  0
  3  2  1  0
  3  4  2  0
  5  3  1  0
  6  5  1  0
  7  8  1  0
  7  6  1  0
  8  9  1  0
  9  5  1  0
  9 10  1  1
 10 11  2  0
 12 10  1  0
 12 13  1  0
 13 14  1  6
 14 15  1  0
 15 16  1  0
 16 17  1  0
 18 17  1  0
 19 13  1  0
 19 21  1  0
 20 19  2  0
M  END
$$$$
