GPK.pdb
     RDKit          3D

 21 21  0  0  1  0  0  0  0  0999 V2000
   26.4618  -26.3940  -16.4329 N   0  0  0  0  0  0  0  0  0  0  0  0
   27.8187  -26.5316  -16.8587 C   0  0  0  0  0  0  0  0  0  0  0  0
   28.0623  -27.5217  -17.9058 C   0  0  0  0  0  0  0  0  0  0  0  0
   27.0577  -28.0771  -18.4154 O   0  0  0  0  0  0  0  0  0  0  0  0
   29.3506  -27.8616  -18.3489 N   0  0  0  0  0  0  0  0  0  0  0  0
   30.5552  -27.3201  -17.6977 C   0  0  0  0  0  0  0  0  0  0  0  0
   31.5348  -27.0991  -18.8058 C   0  0  0  0  0  0  0  0  0  0  0  0
   31.1547  -28.0781  -19.8654 C   0  0  0  0  0  0  0  0  0  0  0  0
   29.8577  -28.6986  -19.3930 C   0  0  1  0  0  0  0  0  0  0  0  0
   30.2131  -30.0169  -18.7505 C   0  0  0  0  0  0  0  0  0  0  0  0
   30.6638  -30.1009  -17.5857 O   0  0  0  0  0  0  0  0  0  0  0  0
   30.0400  -31.2133  -19.4689 N   0  0  0  0  0  0  0  0  0  0  0  0
   30.1208  -32.4837  -18.7746 C   0  0  1  0  0  0  0  0  0  0  0  0
   28.8671  -33.2352  -19.2479 C   0  0  0  0  0  0  0  0  0  0  0  0
   28.7162  -34.5505  -18.5785 C   0  0  0  0  0  0  0  0  0  0  0  0
   27.4414  -35.1958  -19.1457 C   0  0  0  0  0  0  0  0  0  0  0  0
   27.2835  -36.5053  -18.3674 C   0  0  0  0  0  0  0  0  0  0  0  0
   26.0606  -37.1242  -18.8351 N   0  0  0  0  0  0  0  0  0  0  0  0
   31.3602  -33.2014  -19.0554 C   0  0  0  0  0  0  0  0  0  0  0  0
   31.6127  -34.2997  -18.5105 O   0  0  0  0  0  0  0  0  0  0  0  0
   32.2769  -32.6723  -19.9355 O   0  0  0  0  0  0  0  0  0  0  0  0
  1  2  1  0
  3  2  1  0
  3  4  2  0
  5  3  1  0
  6  5  1  0
  7  8  1  0
  7  6  1  0
  8  9  1  0
  9  5  1  0
  9 10  1  1
 10 11  2  0
 12 10  1  0
 12 13  1  0
 13 14  1  6
 14 15  1  0
 15 16  1  0
 16 17  1  0
 18 17  1  0
 19 13  1  0
 19 21  1  0
 20 19  2  0
M  END
$$$$
