GPK.pdb
     RDKit          3D

 21 21  0  0  1  0  0  0  0  0999 V2000
   22.0664  -33.6119  -12.6413 N   0  0  0  0  0  0  0  0  0  0  0  0
   23.2253  -33.2863  -11.8717 C   0  0  0  0  0  0  0  0  0  0  0  0
   23.3459  -33.9622  -10.5814 C   0  0  0  0  0  0  0  0  0  0  0  0
   22.4716  -34.8181  -10.2979 O   0  0  0  0  0  0  0  0  0  0  0  0
   24.3821  -33.6922   -9.6732 N   0  0  0  0  0  0  0  0  0  0  0  0
   25.1899  -32.4648   -9.7714 C   0  0  0  0  0  0  0  0  0  0  0  0
   26.5746  -32.8741   -9.3821 C   0  0  0  0  0  0  0  0  0  0  0  0
   26.3969  -34.0527   -8.4848 C   0  0  0  0  0  0  0  0  0  0  0  0
   24.9208  -34.3817   -8.5409 C   0  0  1  0  0  0  0  0  0  0  0  0
   24.2883  -33.7597   -7.3201 C   0  0  0  0  0  0  0  0  0  0  0  0
   24.0162  -32.5400   -7.2475 O   0  0  0  0  0  0  0  0  0  0  0  0
   23.9829  -34.5618   -6.2061 N   0  0  0  0  0  0  0  0  0  0  0  0
   23.2609  -33.9884   -5.0870 C   0  0  1  0  0  0  0  0  0  0  0  0
   22.2275  -35.0682   -4.7314 C   0  0  0  0  0  0  0  0  0  0  0  0
   21.3841  -34.6775   -3.5752 C   0  0  0  0  0  0  0  0  0  0  0  0
   20.4906  -35.8845   -3.2469 C   0  0  0  0  0  0  0  0  0  0  0  0
   19.5801  -35.4034   -2.1133 C   0  0  0  0  0  0  0  0  0  0  0  0
   18.6498  -36.4790   -1.8399 N   0  0  0  0  0  0  0  0  0  0  0  0
   24.1350  -33.6410   -3.9712 C   0  0  0  0  0  0  0  0  0  0  0  0
   25.2896  -34.1156   -3.8782 O   0  0  0  0  0  0  0  0  0  0  0  0
   23.6944  -32.7748   -2.9963 O   0  0  0  0  0  0  0  0  0  0  0  0
  1  2  1  0
  3  2  1  0
  3  4  2  0
  5  3  1  0
  6  5  1  0
  7  8  1  0
  7  6  1  0
  8  9  1  0
  9  5  1  0
  9 10  1  1
 10 11  2  0
 12 10  1  0
 12 13  1  0
 13 14  1  1
 14 15  1  0
 15 16  1  0
 16 17  1  0
 18 17  1  0
 19 13  1  0
 19 21  1  0
 20 19  2  0
M  END
$$$$
