GPK.pdb
     RDKit          3D

 21 21  0  0  1  0  0  0  0  0999 V2000
   28.5599  -23.3449  -17.5033 N   0  0  0  0  0  0  0  0  0  0  0  0
   28.1156  -22.0494  -17.0962 C   0  0  0  0  0  0  0  0  0  0  0  0
   27.4566  -21.9802  -15.7936 C   0  0  0  0  0  0  0  0  0  0  0  0
   27.3041  -23.0594  -15.1695 O   0  0  0  0  0  0  0  0  0  0  0  0
   27.0013  -20.7763  -15.2324 N   0  0  0  0  0  0  0  0  0  0  0  0
   27.0437  -19.5123  -15.9866 C   0  0  0  0  0  0  0  0  0  0  0  0
   27.3796  -18.4629  -14.9755 C   0  0  0  0  0  0  0  0  0  0  0  0
   26.8804  -18.9980  -13.6753 C   0  0  0  0  0  0  0  0  0  0  0  0
   26.4384  -20.4157  -13.9672 C   0  0  1  0  0  0  0  0  0  0  0  0
   24.9423  -20.3755  -14.1599 C   0  0  0  0  0  0  0  0  0  0  0  0
   24.4098  -20.0913  -15.2565 O   0  0  0  0  0  0  0  0  0  0  0  0
   24.0907  -20.6652  -13.0790 N   0  0  0  0  0  0  0  0  0  0  0  0
   22.6644  -20.7951  -13.3057 C   0  0  1  0  0  0  0  0  0  0  0  0
   22.1218  -21.2544  -11.9438 C   0  0  0  0  0  0  0  0  0  0  0  0
   20.6401  -21.3261  -11.9262 C   0  0  0  0  0  0  0  0  0  0  0  0
   20.2416  -22.5332  -12.7905 C   0  0  0  0  0  0  0  0  0  0  0  0
   18.7121  -22.4855  -12.8520 C   0  0  0  0  0  0  0  0  0  0  0  0
   18.2961  -23.5557  -13.7345 N   0  0  0  0  0  0  0  0  0  0  0  0
   22.0541  -19.5566  -13.7785 C   0  0  0  0  0  0  0  0  0  0  0  0
   22.5022  -18.4392  -13.4354 O   0  0  0  0  0  0  0  0  0  0  0  0
   20.9654  -19.6037  -14.6194 O   0  0  0  0  0  0  0  0  0  0  0  0
  1  2  1  0
  3  2  1  0
  3  4  2  0
  5  3  1  0
  6  5  1  0
  7  8  1  0
  7  6  1  0
  8  9  1  0
  9  5  1  0
  9 10  1  6
 10 11  2  0
 12 10  1  0
 12 13  1  0
 13 14  1  1
 14 15  1  0
 15 16  1  0
 16 17  1  0
 18 17  1  0
 19 13  1  0
 19 21  1  0
 20 19  2  0
M  END
$$$$
