GPK.pdb
     RDKit          3D

 21 21  0  0  1  0  0  0  0  0999 V2000
   22.9028  -13.3245  -16.0850 N   0  0  0  0  0  0  0  0  0  0  0  0
   24.1712  -13.9111  -15.7877 C   0  0  0  0  0  0  0  0  0  0  0  0
   24.4761  -15.1600  -16.4827 C   0  0  0  0  0  0  0  0  0  0  0  0
   23.7001  -15.5063  -17.4076 O   0  0  0  0  0  0  0  0  0  0  0  0
   25.5810  -15.9633  -16.1579 N   0  0  0  0  0  0  0  0  0  0  0  0
   26.5208  -15.5823  -15.0902 C   0  0  0  0  0  0  0  0  0  0  0  0
   27.8660  -16.0179  -15.5773 C   0  0  0  0  0  0  0  0  0  0  0  0
   27.5969  -17.1531  -16.5071 C   0  0  0  0  0  0  0  0  0  0  0  0
   26.0915  -17.2049  -16.6534 C   0  0  1  0  0  0  0  0  0  0  0  0
   25.5982  -18.2767  -15.7127 C   0  0  0  0  0  0  0  0  0  0  0  0
   25.5216  -18.1061  -14.4749 O   0  0  0  0  0  0  0  0  0  0  0  0
   25.2028  -19.5260  -16.2228 N   0  0  0  0  0  0  0  0  0  0  0  0
   24.3314  -20.3775  -15.4365 C   0  0  1  0  0  0  0  0  0  0  0  0
   23.0090  -19.5971  -15.3891 C   0  0  0  0  0  0  0  0  0  0  0  0
   21.8280  -20.4948  -15.3949 C   0  0  0  0  0  0  0  0  0  0  0  0
   21.2116  -20.4299  -13.9882 C   0  0  0  0  0  0  0  0  0  0  0  0
   19.9507  -21.2953  -14.0707 C   0  0  0  0  0  0  0  0  0  0  0  0
   19.3141  -21.2307  -12.7716 N   0  0  0  0  0  0  0  0  0  0  0  0
   24.1887  -21.7146  -16.0038 C   0  0  0  0  0  0  0  0  0  0  0  0
   24.0609  -22.7212  -15.2707 O   0  0  0  0  0  0  0  0  0  0  0  0
   24.1914  -21.8860  -17.3696 O   0  0  0  0  0  0  0  0  0  0  0  0
  1  2  1  0
  3  2  1  0
  3  4  2  0
  5  3  1  0
  6  5  1  0
  7  8  1  0
  7  6  1  0
  8  9  1  0
  9  5  1  0
  9 10  1  1
 10 11  2  0
 12 10  1  0
 12 13  1  0
 13 14  1  6
 14 15  1  0
 15 16  1  0
 16 17  1  0
 18 17  1  0
 19 13  1  0
 19 21  1  0
 20 19  2  0
M  END
$$$$
