GNL.pdb
     RDKit          3D

 21 20  0  0  1  0  0  0  0  0999 V2000
   13.0916  -13.4256  -11.0312 N   0  0  0  0  0  0  0  0  0  0  0  0
   12.9019  -12.0354  -11.3910 C   0  0  0  0  0  0  0  0  0  0  0  0
   13.9423  -11.2214  -10.6909 C   0  0  0  0  0  0  0  0  0  0  0  0
   14.0537  -11.3937   -9.4756 O   0  0  0  0  0  0  0  0  0  0  0  0
   18.4900   -7.2234  -11.4521 N   0  0  0  0  0  0  0  0  0  0  0  0
   17.9973   -8.4444  -10.9403 C   0  0  0  0  0  0  0  0  0  0  0  0
   18.4470   -8.7576   -9.7784 O   0  0  0  0  0  0  0  0  0  0  0  0
   17.0558   -9.3151  -11.6309 C   0  0  0  0  0  0  0  0  0  0  0  0
   15.7235   -9.3857  -10.9208 C   0  0  2  0  0  0  0  0  0  0  0  0
   14.7622  -10.3046  -11.3494 N   0  0  0  0  0  0  0  0  0  0  0  0
   15.2532   -8.0584  -10.4901 C   0  0  0  0  0  0  0  0  0  0  0  0
   14.5846   -7.3166  -11.2993 O   0  0  0  0  0  0  0  0  0  0  0  0
   14.0041   -4.0655   -6.3572 C   0  0  0  0  0  0  0  0  0  0  0  0
   13.4276   -5.3580   -6.8380 C   0  0  1  0  0  0  0  0  0  0  0  0
   12.2322   -4.9972   -7.7198 C   0  0  0  0  0  0  0  0  0  0  0  0
   14.3293   -6.3260   -7.4531 C   0  0  0  0  0  0  0  0  0  0  0  0
   14.8291   -6.2251   -8.8183 C   0  0  2  0  0  0  0  0  0  0  0  0
   15.4904   -7.5173   -9.2021 N   0  0  0  0  0  0  0  0  0  0  0  0
   15.6802   -5.1127   -9.2408 C   0  0  0  0  0  0  0  0  0  0  0  0
   17.0357   -5.1539   -9.5072 O   0  0  0  0  0  0  0  0  0  0  0  0
   15.1926   -3.9215   -9.4011 O   0  0  0  0  0  0  0  0  0  0  0  0
  1  2  1  0
  3  4  2  0
  3  2  1  0
  5  6  1  0
  6  7  2  0
  6  8  1  0
  9  8  1  6
  9 10  1  0
 10  3  1  0
 11  9  1  0
 11 12  2  0
 14 13  1  6
 14 15  1  0
 16 14  1  0
 17 18  1  0
 17 16  1  1
 18 11  1  0
 19 17  1  0
 20 19  1  0
 21 19  2  0
M  END
$$$$
