GNL.pdb
     RDKit          3D

 21 20  0  0  1  0  0  0  0  0999 V2000
   21.3606  -25.5874  -16.4718 N   0  0  0  0  0  0  0  0  0  0  0  0
   21.7678  -25.1281  -15.1598 C   0  0  0  0  0  0  0  0  0  0  0  0
   21.7832  -23.6332  -15.1678 C   0  0  0  0  0  0  0  0  0  0  0  0
   22.2250  -23.0903  -16.1823 O   0  0  0  0  0  0  0  0  0  0  0  0
   18.3678  -22.1947  -11.8732 N   0  0  0  0  0  0  0  0  0  0  0  0
   19.0423  -21.6101  -12.9681 C   0  0  0  0  0  0  0  0  0  0  0  0
   18.4414  -21.7376  -14.0964 O   0  0  0  0  0  0  0  0  0  0  0  0
   20.3159  -20.9088  -12.8809 C   0  0  0  0  0  0  0  0  0  0  0  0
   21.3497  -21.4931  -13.8159 C   0  0  2  0  0  0  0  0  0  0  0  0
   21.3282  -22.8613  -14.0985 N   0  0  0  0  0  0  0  0  0  0  0  0
   22.6653  -20.8500  -13.6602 C   0  0  0  0  0  0  0  0  0  0  0  0
   22.7546  -19.5692  -13.6012 O   0  0  0  0  0  0  0  0  0  0  0  0
   25.9666  -21.6025   -9.7705 C   0  0  0  0  0  0  0  0  0  0  0  0
   25.1862  -21.1212  -10.9509 C   0  0  1  0  0  0  0  0  0  0  0  0
   24.5781  -19.7775  -10.5492 C   0  0  0  0  0  0  0  0  0  0  0  0
   25.8521  -21.0904  -12.2486 C   0  0  0  0  0  0  0  0  0  0  0  0
   25.1772  -20.8000  -13.5071 C   0  0  2  0  0  0  0  0  0  0  0  0
   23.8858  -21.5637  -13.5662 N   0  0  0  0  0  0  0  0  0  0  0  0
   25.8651  -20.9309  -14.7917 C   0  0  0  0  0  0  0  0  0  0  0  0
   25.4424  -21.6477  -15.8950 O   0  0  0  0  0  0  0  0  0  0  0  0
   27.0050  -20.3487  -15.0017 O   0  0  0  0  0  0  0  0  0  0  0  0
  1  2  1  0
  3  4  2  0
  3  2  1  0
  5  6  1  0
  6  7  2  0
  6  8  1  0
  9  8  1  1
  9 10  1  0
 10  3  1  0
 11  9  1  0
 11 12  2  0
 14 13  1  1
 14 15  1  0
 16 14  1  0
 17 18  1  0
 17 16  1  1
 18 11  1  0
 19 17  1  0
 20 19  1  0
 21 19  2  0
M  END
$$$$
