GNL.pdb
     RDKit          3D

 21 20  0  0  1  0  0  0  0  0999 V2000
   21.1176  -27.8483  -12.1115 N   0  0  0  0  0  0  0  0  0  0  0  0
   21.0789  -26.9992  -13.2844 C   0  0  0  0  0  0  0  0  0  0  0  0
   22.3543  -26.2214  -13.3452 C   0  0  0  0  0  0  0  0  0  0  0  0
   23.0254  -26.1785  -12.3123 O   0  0  0  0  0  0  0  0  0  0  0  0
   24.0991  -26.5254  -17.7057 N   0  0  0  0  0  0  0  0  0  0  0  0
   24.7737  -25.8421  -16.6696 C   0  0  0  0  0  0  0  0  0  0  0  0
   25.7932  -26.4631  -16.1947 O   0  0  0  0  0  0  0  0  0  0  0  0
   24.3880  -24.5392  -16.1449 C   0  0  0  0  0  0  0  0  0  0  0  0
   23.8050  -24.6383  -14.7541 C   0  0  2  0  0  0  0  0  0  0  0  0
   22.7920  -25.5655  -14.4961 N   0  0  0  0  0  0  0  0  0  0  0  0
   23.7088  -23.3237  -14.0977 C   0  0  0  0  0  0  0  0  0  0  0  0
   22.5801  -22.7114  -14.0415 O   0  0  0  0  0  0  0  0  0  0  0  0
   25.9918  -20.3629   -9.3708 C   0  0  0  0  0  0  0  0  0  0  0  0
   24.9874  -20.8305  -10.3740 C   0  0  1  0  0  0  0  0  0  0  0  0
   23.8642  -19.7936  -10.3778 C   0  0  0  0  0  0  0  0  0  0  0  0
   25.4605  -21.1762  -11.7101 C   0  0  0  0  0  0  0  0  0  0  0  0
   24.5947  -21.3099  -12.8747 C   0  0  2  0  0  0  0  0  0  0  0  0
   24.8079  -22.6582  -13.5001 N   0  0  0  0  0  0  0  0  0  0  0  0
   24.5697  -20.2963  -13.9294 C   0  0  0  0  0  0  0  0  0  0  0  0
   25.1107  -20.3979  -15.1971 O   0  0  0  0  0  0  0  0  0  0  0  0
   24.0046  -19.1449  -13.7364 O   0  0  0  0  0  0  0  0  0  0  0  0
  1  2  1  0
  3  4  2  0
  3  2  1  0
  5  6  1  0
  6  7  2  0
  6  8  1  0
  9  8  1  6
  9 10  1  0
 10  3  1  0
 11  9  1  0
 11 12  2  0
 14 13  1  1
 14 15  1  0
 16 14  1  0
 17 18  1  0
 17 16  1  1
 18 11  1  0
 19 17  1  0
 20 19  1  0
 21 19  2  0
M  END
$$$$
