GNL.pdb
     RDKit          3D

 21 20  0  0  1  0  0  0  0  0999 V2000
   10.4466  -13.3610    6.1531 N   0  0  0  0  0  0  0  0  0  0  0  0
   11.1719  -14.1546    5.1824 C   0  0  0  0  0  0  0  0  0  0  0  0
   12.2945  -14.8482    5.8851 C   0  0  0  0  0  0  0  0  0  0  0  0
   12.3992  -14.6434    7.0960 O   0  0  0  0  0  0  0  0  0  0  0  0
   12.0236  -18.8838    6.8359 N   0  0  0  0  0  0  0  0  0  0  0  0
   13.3761  -18.6164    6.5282 C   0  0  0  0  0  0  0  0  0  0  0  0
   13.9798  -19.5630    5.9038 O   0  0  0  0  0  0  0  0  0  0  0  0
   14.0777  -17.3859    6.8674 C   0  0  0  0  0  0  0  0  0  0  0  0
   14.2592  -16.4875    5.6657 C   0  0  2  0  0  0  0  0  0  0  0  0
   13.1956  -15.6909    5.2339 N   0  0  0  0  0  0  0  0  0  0  0  0
   15.1105  -17.1048    4.6348 C   0  0  0  0  0  0  0  0  0  0  0  0
   14.7212  -17.1366    3.4103 O   0  0  0  0  0  0  0  0  0  0  0  0
   19.0298  -15.0951    1.7009 C   0  0  0  0  0  0  0  0  0  0  0  0
   18.0006  -16.1305    2.0215 C   0  0  1  0  0  0  0  0  0  0  0  0
   18.1601  -17.2368    0.9788 C   0  0  0  0  0  0  0  0  0  0  0  0
   17.9324  -16.6306    3.3903 C   0  0  0  0  0  0  0  0  0  0  0  0
   17.3334  -17.9048    3.7662 C   0  0  2  0  0  0  0  0  0  0  0  0
   16.3745  -17.6876    4.9010 N   0  0  0  0  0  0  0  0  0  0  0  0
   18.1551  -19.0797    4.0577 C   0  0  0  0  0  0  0  0  0  0  0  0
   18.6740  -19.9813    3.1479 O   0  0  0  0  0  0  0  0  0  0  0  0
   18.4736  -19.3867    5.2770 O   0  0  0  0  0  0  0  0  0  0  0  0
  1  2  1  0
  3  4  2  0
  3  2  1  0
  5  6  1  0
  6  7  2  0
  6  8  1  0
  9  8  1  6
  9 10  1  0
 10  3  1  0
 11  9  1  0
 11 12  2  0
 14 13  1  1
 14 15  1  0
 16 14  1  0
 17 18  1  0
 17 16  1  1
 18 11  1  0
 19 17  1  0
 20 19  1  0
 21 19  2  0
M  END
$$$$
