GNL.pdb
     RDKit          3D

 21 20  0  0  1  0  0  0  0  0999 V2000
   13.6913  -13.6854  -13.3536 N   0  0  0  0  0  0  0  0  0  0  0  0
   13.2189  -12.6716  -12.4332 C   0  0  0  0  0  0  0  0  0  0  0  0
   14.3577  -11.7567  -12.1151 C   0  0  0  0  0  0  0  0  0  0  0  0
   14.7715  -11.7721  -10.9542 O   0  0  0  0  0  0  0  0  0  0  0  0
   18.3819  -11.7405  -14.6929 N   0  0  0  0  0  0  0  0  0  0  0  0
   17.1770  -11.0179  -14.8396 C   0  0  0  0  0  0  0  0  0  0  0  0
   16.3206  -11.5605  -15.6287 O   0  0  0  0  0  0  0  0  0  0  0  0
   16.8782   -9.7570  -14.1745 C   0  0  0  0  0  0  0  0  0  0  0  0
   15.9472   -9.9433  -12.9986 C   0  0  2  0  0  0  0  0  0  0  0  0
   14.9455  -10.9155  -13.0601 N   0  0  0  0  0  0  0  0  0  0  0  0
   15.6179   -8.6661  -12.3437 C   0  0  0  0  0  0  0  0  0  0  0  0
   14.6067   -7.9791  -12.7405 O   0  0  0  0  0  0  0  0  0  0  0  0
   14.6849   -6.6773   -6.9606 C   0  0  0  0  0  0  0  0  0  0  0  0
   14.6370   -6.5261   -8.4469 C   0  0  1  0  0  0  0  0  0  0  0  0
   14.2477   -5.0736   -8.7219 C   0  0  0  0  0  0  0  0  0  0  0  0
   15.7905   -6.9725   -9.2204 C   0  0  0  0  0  0  0  0  0  0  0  0
   15.9172   -6.8157  -10.6637 C   0  0  2  0  0  0  0  0  0  0  0  0
   16.3593   -8.1172  -11.2680 N   0  0  0  0  0  0  0  0  0  0  0  0
   16.7037   -5.7296  -11.2488 C   0  0  0  0  0  0  0  0  0  0  0  0
   16.3308   -4.4050  -11.3769 O   0  0  0  0  0  0  0  0  0  0  0  0
   17.8885   -5.9465  -11.7299 O   0  0  0  0  0  0  0  0  0  0  0  0
  1  2  1  0
  3  4  2  0
  3  2  1  0
  5  6  1  0
  6  7  2  0
  6  8  1  0
  9  8  1  6
  9 10  1  0
 10  3  1  0
 11  9  1  0
 11 12  2  0
 14 13  1  1
 14 15  1  0
 16 14  1  0
 17 18  1  0
 17 16  1  1
 18 11  1  0
 19 17  1  0
 20 19  1  0
 21 19  2  0
M  END
$$$$
