GNL.pdb
     RDKit          3D

 21 20  0  0  1  0  0  0  0  0999 V2000
   15.0538  -22.5592   -1.8126 N   0  0  0  0  0  0  0  0  0  0  0  0
   14.3721  -22.3481   -0.5521 C   0  0  0  0  0  0  0  0  0  0  0  0
   15.3884  -21.9628    0.4744 C   0  0  0  0  0  0  0  0  0  0  0  0
   16.5719  -22.0597    0.1441 O   0  0  0  0  0  0  0  0  0  0  0  0
   17.6516  -19.5851    4.3934 N   0  0  0  0  0  0  0  0  0  0  0  0
   16.2673  -19.3340    4.5211 C   0  0  0  0  0  0  0  0  0  0  0  0
   15.9644  -18.4382    5.3908 O   0  0  0  0  0  0  0  0  0  0  0  0
   15.2269  -20.0061    3.7550 C   0  0  0  0  0  0  0  0  0  0  0  0
   15.7914  -21.0781    2.8515 C   0  0  2  0  0  0  0  0  0  0  0  0
   15.0489  -21.5126    1.7505 N   0  0  0  0  0  0  0  0  0  0  0  0
   16.5546  -22.0902    3.6009 C   0  0  0  0  0  0  0  0  0  0  0  0
   15.9445  -23.0676    4.1705 O   0  0  0  0  0  0  0  0  0  0  0  0
   21.0055  -24.7771    1.9732 C   0  0  0  0  0  0  0  0  0  0  0  0
   19.7228  -24.4005    2.6416 C   0  0  1  0  0  0  0  0  0  0  0  0
   18.9059  -25.6865    2.7666 C   0  0  0  0  0  0  0  0  0  0  0  0
   19.7931  -23.6365    3.8825 C   0  0  0  0  0  0  0  0  0  0  0  0
   18.6297  -23.1162    4.5893 C   0  0  2  0  0  0  0  0  0  0  0  0
   17.9641  -22.0674    3.7460 N   0  0  0  0  0  0  0  0  0  0  0  0
   18.7260  -22.6282    5.9652 C   0  0  0  0  0  0  0  0  0  0  0  0
   18.4309  -21.3577    6.4222 O   0  0  0  0  0  0  0  0  0  0  0  0
   19.1300  -23.4041    6.9228 O   0  0  0  0  0  0  0  0  0  0  0  0
  1  2  1  0
  3  4  2  0
  3  2  1  0
  5  6  1  0
  6  7  2  0
  6  8  1  0
  9  8  1  1
  9 10  1  0
 10  3  1  0
 11  9  1  0
 11 12  2  0
 14 13  1  1
 14 15  1  0
 16 14  1  0
 17 18  1  0
 17 16  1  6
 18 11  1  0
 19 17  1  0
 20 19  1  0
 21 19  2  0
M  END
$$$$
