GNL.pdb
     RDKit          3D

 21 20  0  0  1  0  0  0  0  0999 V2000
   17.5093  -13.8441  -15.4870 N   0  0  0  0  0  0  0  0  0  0  0  0
   16.5903  -12.7437  -15.2805 C   0  0  0  0  0  0  0  0  0  0  0  0
   17.2044  -11.5043  -15.8477 C   0  0  0  0  0  0  0  0  0  0  0  0
   18.0343  -11.6595  -16.7457 O   0  0  0  0  0  0  0  0  0  0  0  0
   15.3319   -7.7006  -18.3691 N   0  0  0  0  0  0  0  0  0  0  0  0
   15.3422   -8.2339  -17.0610 C   0  0  0  0  0  0  0  0  0  0  0  0
   14.4310   -9.1105  -16.8337 O   0  0  0  0  0  0  0  0  0  0  0  0
   16.2854   -7.8565  -16.0173 C   0  0  0  0  0  0  0  0  0  0  0  0
   17.3070   -8.9397  -15.7581 C   0  0  2  0  0  0  0  0  0  0  0  0
   16.8776  -10.2219  -15.4062 N   0  0  0  0  0  0  0  0  0  0  0  0
   18.5122   -8.4179  -15.0920 C   0  0  0  0  0  0  0  0  0  0  0  0
   18.4546   -8.0232  -13.8702 O   0  0  0  0  0  0  0  0  0  0  0  0
   23.5821  -10.6012  -15.0344 C   0  0  0  0  0  0  0  0  0  0  0  0
   22.2872   -9.9144  -14.7420 C   0  0  1  0  0  0  0  0  0  0  0  0
   22.0273  -10.0989  -13.2470 C   0  0  0  0  0  0  0  0  0  0  0  0
   22.1234   -8.5364  -15.1922 C   0  0  0  0  0  0  0  0  0  0  0  0
   20.9306   -7.7343  -14.9522 C   0  0  2  0  0  0  0  0  0  0  0  0
   19.7784   -8.3152  -15.7199 N   0  0  0  0  0  0  0  0  0  0  0  0
   20.9366   -6.2823  -15.1320 C   0  0  0  0  0  0  0  0  0  0  0  0
   20.1373   -5.5439  -15.9839 O   0  0  0  0  0  0  0  0  0  0  0  0
   21.7543   -5.5296  -14.4633 O   0  0  0  0  0  0  0  0  0  0  0  0
  1  2  1  0
  3  4  2  0
  3  2  1  0
  5  6  1  0
  6  7  2  0
  6  8  1  0
  9  8  1  1
  9 10  1  0
 10  3  1  0
 11  9  1  0
 11 12  2  0
 14 13  1  1
 14 15  1  0
 16 14  1  0
 17 18  1  0
 17 16  1  6
 18 11  1  0
 19 17  1  0
 20 19  1  0
 21 19  2  0
M  END
$$$$
