GNL.pdb
     RDKit          3D

 21 20  0  0  1  0  0  0  0  0999 V2000
   14.9011  -12.8452  -10.9586 N   0  0  0  0  0  0  0  0  0  0  0  0
   14.5214  -11.6793  -10.1875 C   0  0  0  0  0  0  0  0  0  0  0  0
   15.0226  -10.4621  -10.8962 C   0  0  0  0  0  0  0  0  0  0  0  0
   15.0432  -10.5086  -12.1277 O   0  0  0  0  0  0  0  0  0  0  0  0
   15.6562   -6.4035   -7.5433 N   0  0  0  0  0  0  0  0  0  0  0  0
   14.9585   -7.0177   -8.6071 C   0  0  0  0  0  0  0  0  0  0  0  0
   14.0054   -7.7977   -8.2418 O   0  0  0  0  0  0  0  0  0  0  0  0
   15.2539   -6.8180  -10.0193 C   0  0  0  0  0  0  0  0  0  0  0  0
   15.8644   -8.0483  -10.6500 C   0  0  2  0  0  0  0  0  0  0  0  0
   15.4526   -9.3152  -10.2284 N   0  0  0  0  0  0  0  0  0  0  0  0
   17.2924   -7.8634  -10.9582 C   0  0  0  0  0  0  0  0  0  0  0  0
   18.1687   -7.9270  -10.0201 O   0  0  0  0  0  0  0  0  0  0  0  0
   21.5455  -10.4111  -13.7785 C   0  0  0  0  0  0  0  0  0  0  0  0
   21.1809   -9.0561  -13.2639 C   0  0  1  0  0  0  0  0  0  0  0  0
   21.7844   -8.0457  -14.2394 C   0  0  0  0  0  0  0  0  0  0  0  0
   19.7801   -8.7937  -12.9517 C   0  0  0  0  0  0  0  0  0  0  0  0
   19.2760   -7.5148  -12.4681 C   0  0  2  0  0  0  0  0  0  0  0  0
   17.7921   -7.6121  -12.2602 N   0  0  0  0  0  0  0  0  0  0  0  0
   19.5767   -6.2624  -13.1620 C   0  0  0  0  0  0  0  0  0  0  0  0
   20.6972   -5.4691  -13.0035 O   0  0  0  0  0  0  0  0  0  0  0  0
   18.7532   -5.7664  -14.0328 O   0  0  0  0  0  0  0  0  0  0  0  0
  1  2  1  0
  3  4  2  0
  3  2  1  0
  5  6  1  0
  6  7  2  0
  6  8  1  0
  9  8  1  1
  9 10  1  0
 10  3  1  0
 11  9  1  0
 11 12  2  0
 14 13  1  6
 14 15  1  0
 16 14  1  0
 17 18  1  0
 17 16  1  6
 18 11  1  0
 19 17  1  0
 20 19  1  0
 21 19  2  0
M  END
$$$$
