GNL.pdb
     RDKit          3D

 21 20  0  0  1  0  0  0  0  0999 V2000
   26.0880  -14.0788  -19.7148 N   0  0  0  0  0  0  0  0  0  0  0  0
   26.4456  -12.9168  -20.5023 C   0  0  0  0  0  0  0  0  0  0  0  0
   26.5417  -11.7387  -19.5869 C   0  0  0  0  0  0  0  0  0  0  0  0
   25.4779  -11.2482  -19.2036 O   0  0  0  0  0  0  0  0  0  0  0  0
   28.0044  -11.8801  -15.4796 N   0  0  0  0  0  0  0  0  0  0  0  0
   28.8714  -11.6326  -16.5671 C   0  0  0  0  0  0  0  0  0  0  0  0
   29.5122  -12.6644  -16.9857 O   0  0  0  0  0  0  0  0  0  0  0  0
   29.0611  -10.3344  -17.1996 C   0  0  0  0  0  0  0  0  0  0  0  0
   28.1043  -10.1192  -18.3496 C   0  0  2  0  0  0  0  0  0  0  0  0
   27.7572  -11.1970  -19.1682 N   0  0  0  0  0  0  0  0  0  0  0  0
   28.2962   -8.8087  -18.9933 C   0  0  0  0  0  0  0  0  0  0  0  0
   29.3614   -8.5733  -19.6730 O   0  0  0  0  0  0  0  0  0  0  0  0
   27.9981   -5.3230  -22.7174 C   0  0  0  0  0  0  0  0  0  0  0  0
   26.8079   -5.3271  -21.8133 C   0  0  1  0  0  0  0  0  0  0  0  0
   25.5770   -5.2670  -22.7179 C   0  0  0  0  0  0  0  0  0  0  0  0
   26.7249   -6.3648  -20.7913 C   0  0  0  0  0  0  0  0  0  0  0  0
   27.6369   -6.4727  -19.6598 C   0  0  2  0  0  0  0  0  0  0  0  0
   27.3594   -7.7482  -18.9178 N   0  0  0  0  0  0  0  0  0  0  0  0
   27.7884   -5.3849  -18.6933 C   0  0  0  0  0  0  0  0  0  0  0  0
   28.6271   -4.2910  -18.7933 O   0  0  0  0  0  0  0  0  0  0  0  0
   27.1040   -5.3695  -17.5916 O   0  0  0  0  0  0  0  0  0  0  0  0
  1  2  1  0
  3  4  2  0
  3  2  1  0
  5  6  1  0
  6  7  2  0
  6  8  1  0
  9  8  1  6
  9 10  1  0
 10  3  1  0
 11  9  1  0
 11 12  2  0
 14 13  1  6
 14 15  1  0
 16 14  1  0
 17 18  1  0
 17 16  1  6
 18 11  1  0
 19 17  1  0
 20 19  1  0
 21 19  2  0
M  END
$$$$
