GNL.pdb
     RDKit          3D

 21 20  0  0  1  0  0  0  0  0999 V2000
   13.7197  -13.1580  -13.1618 N   0  0  0  0  0  0  0  0  0  0  0  0
   14.0664  -11.9706  -13.9155 C   0  0  0  0  0  0  0  0  0  0  0  0
   14.9087  -11.0912  -13.0482 C   0  0  0  0  0  0  0  0  0  0  0  0
   14.7273  -11.1771  -11.8321 O   0  0  0  0  0  0  0  0  0  0  0  0
   18.4595  -11.3226  -13.8815 N   0  0  0  0  0  0  0  0  0  0  0  0
   18.7866   -9.9678  -14.1118 C   0  0  0  0  0  0  0  0  0  0  0  0
   19.9046   -9.7831  -14.7171 O   0  0  0  0  0  0  0  0  0  0  0  0
   17.9608   -8.8350  -13.7166 C   0  0  0  0  0  0  0  0  0  0  0  0
   16.7188   -9.2708  -12.9740 C   0  0  2  0  0  0  0  0  0  0  0  0
   15.8606  -10.2070  -13.5565 N   0  0  0  0  0  0  0  0  0  0  0  0
   16.1082   -8.1652  -12.2169 C   0  0  0  0  0  0  0  0  0  0  0  0
   15.1598   -7.4721  -12.7387 O   0  0  0  0  0  0  0  0  0  0  0  0
   13.3012   -6.5187   -7.8351 C   0  0  0  0  0  0  0  0  0  0  0  0
   14.7916   -6.4181   -7.7841 C   0  0  1  0  0  0  0  0  0  0  0  0
   15.1973   -6.7283   -6.3433 C   0  0  0  0  0  0  0  0  0  0  0  0
   15.5646   -7.1588   -8.7752 C   0  0  0  0  0  0  0  0  0  0  0  0
   15.7038   -6.7580  -10.1694 C   0  0  2  0  0  0  0  0  0  0  0  0
   16.5015   -7.7945  -10.9070 N   0  0  0  0  0  0  0  0  0  0  0  0
   16.1952   -5.4302  -10.5380 C   0  0  0  0  0  0  0  0  0  0  0  0
   15.4762   -4.2501  -10.5561 O   0  0  0  0  0  0  0  0  0  0  0  0
   17.4257   -5.2517  -10.9072 O   0  0  0  0  0  0  0  0  0  0  0  0
  1  2  1  0
  3  4  2  0
  3  2  1  0
  5  6  1  0
  6  7  2  0
  6  8  1  0
  9  8  1  6
  9 10  1  0
 10  3  1  0
 11  9  1  0
 11 12  2  0
 14 13  1  1
 14 15  1  0
 16 14  1  0
 17 18  1  0
 17 16  1  1
 18 11  1  0
 19 17  1  0
 20 19  1  0
 21 19  2  0
M  END
$$$$
