KYT.pdb
     RDKit          3D

 29 29  0  0  1  0  0  0  0  0999 V2000
   19.8372  -15.9981  -15.7790 N   0  0  0  0  0  0  0  0  0  0  0  0
   19.8029  -17.4181  -15.7999 C   0  0  1  0  0  0  0  0  0  0  0  0
   19.2705  -17.8851  -17.1684 C   0  0  0  0  0  0  0  0  0  0  0  0
   18.1334  -16.9869  -17.5017 C   0  0  0  0  0  0  0  0  0  0  0  0
   17.4777  -17.1838  -18.8174 C   0  0  0  0  0  0  0  0  0  0  0  0
   16.3545  -16.2352  -19.1001 C   0  0  0  0  0  0  0  0  0  0  0  0
   15.6944  -16.4068  -20.3508 N   0  0  0  0  0  0  0  0  0  0  0  0
   21.1176  -18.0794  -15.6143 C   0  0  0  0  0  0  0  0  0  0  0  0
   22.1154  -17.7231  -16.3231 O   0  0  0  0  0  0  0  0  0  0  0  0
   27.9873  -22.6092  -12.2338 O   0  0  0  0  0  0  0  0  0  0  0  0
   26.7804  -21.9367  -12.4588 C   0  0  0  0  0  0  0  0  0  0  0  0
   26.7381  -20.5760  -12.6778 C   0  0  0  0  0  0  0  0  0  0  0  0
   25.5210  -19.9827  -12.8913 C   0  0  0  0  0  0  0  0  0  0  0  0
   24.3300  -20.6757  -12.8990 C   0  0  0  0  0  0  0  0  0  0  0  0
   23.0189  -20.0426  -13.1247 C   0  0  0  0  0  0  0  0  0  0  0  0
   22.7095  -19.7110  -14.5420 C   0  0  2  0  0  0  0  0  0  0  0  0
   21.3847  -19.1150  -14.6846 N   0  0  0  0  0  0  0  0  0  0  0  0
   22.8570  -20.8968  -15.4079 C   0  0  0  0  0  0  0  0  0  0  0  0
   22.0104  -21.8148  -15.3394 O   0  0  0  0  0  0  0  0  0  0  0  0
   24.4125  -22.0369  -12.6760 C   0  0  0  0  0  0  0  0  0  0  0  0
   25.6141  -22.6760  -12.4569 C   0  0  0  0  0  0  0  0  0  0  0  0
   22.5035  -21.6688  -18.9435 C   0  0  0  0  0  0  0  0  0  0  0  0
   23.9435  -21.8870  -18.5875 C   0  0  1  0  0  0  0  0  0  0  0  0
   24.7036  -20.7669  -18.9446 O   0  0  0  0  0  0  0  0  0  0  0  0
   24.0951  -22.1888  -17.1136 C   0  0  2  0  0  0  0  0  0  0  0  0
   23.9471  -20.9962  -16.3091 N   0  0  0  0  0  0  0  0  0  0  0  0
   25.4163  -22.8032  -16.8235 C   0  0  0  0  0  0  0  0  0  0  0  0
   26.3557  -22.0746  -16.1145 O   0  0  0  0  0  0  0  0  0  0  0  0
   25.6861  -23.9610  -17.2096 O   0  0  0  0  0  0  0  0  0  0  0  0
  2  1  1  6
  2  3  1  0
  4  3  1  0
  4  5  1  0
  6  5  1  0
  6  7  1  0
  8  2  1  0
  9  8  2  0
 10 11  1  0
 11 12  2  0
 12 13  1  0
 14 15  1  0
 14 13  2  0
 16 15  1  1
 16 17  1  0
 17  8  1  0
 18 16  1  0
 18 19  2  0
 20 14  1  0
 21 20  2  0
 21 11  1  0
 23 22  1  1
 23 25  1  0
 24 23  1  0
 25 26  1  1
 25 27  1  0
 26 18  1  0
 27 28  1  0
 29 27  2  0
M  END
$$$$
