KYT.pdb
     RDKit          3D

 29 29  0  0  1  0  0  0  0  0999 V2000
   21.2011  -18.5347  -14.5494 N   0  0  0  0  0  0  0  0  0  0  0  0
   21.4958  -19.6353  -15.3980 C   0  0  1  0  0  0  0  0  0  0  0  0
   21.4474  -19.1631  -16.8639 C   0  0  0  0  0  0  0  0  0  0  0  0
   20.0374  -19.3251  -17.3075 C   0  0  0  0  0  0  0  0  0  0  0  0
   19.2210  -18.0933  -17.4325 C   0  0  0  0  0  0  0  0  0  0  0  0
   19.4550  -17.3178  -18.6916 C   0  0  0  0  0  0  0  0  0  0  0  0
   18.5089  -17.5259  -19.7361 N   0  0  0  0  0  0  0  0  0  0  0  0
   22.8351  -20.2403  -15.1969 C   0  0  0  0  0  0  0  0  0  0  0  0
   23.8654  -19.4941  -15.1159 O   0  0  0  0  0  0  0  0  0  0  0  0
   24.2974  -20.0149   -8.8075 O   0  0  0  0  0  0  0  0  0  0  0  0
   24.3983  -20.7455   -9.9974 C   0  0  0  0  0  0  0  0  0  0  0  0
   25.6201  -21.0881  -10.5367 C   0  0  0  0  0  0  0  0  0  0  0  0
   25.6445  -21.8047  -11.7050 C   0  0  0  0  0  0  0  0  0  0  0  0
   24.5081  -22.2038  -12.3742 C   0  0  0  0  0  0  0  0  0  0  0  0
   24.5286  -22.9712  -13.6317 C   0  0  0  0  0  0  0  0  0  0  0  0
   24.4377  -22.1570  -14.8740 C   0  0  2  0  0  0  0  0  0  0  0  0
   23.0927  -21.6290  -15.0812 N   0  0  0  0  0  0  0  0  0  0  0  0
   24.8950  -22.9271  -16.0469 C   0  0  0  0  0  0  0  0  0  0  0  0
   24.1085  -23.7276  -16.5990 O   0  0  0  0  0  0  0  0  0  0  0  0
   23.3028  -21.8421  -11.8033 C   0  0  0  0  0  0  0  0  0  0  0  0
   23.2301  -21.1220  -10.6301 C   0  0  0  0  0  0  0  0  0  0  0  0
   26.2654  -21.5267  -19.3073 C   0  0  0  0  0  0  0  0  0  0  0  0
   27.2622  -22.4907  -18.7371 C   0  0  1  0  0  0  0  0  0  0  0  0
   28.3071  -21.7943  -18.1184 O   0  0  0  0  0  0  0  0  0  0  0  0
   26.5998  -23.4384  -17.7626 C   0  0  2  0  0  0  0  0  0  0  0  0
   26.2125  -22.7624  -16.5442 N   0  0  0  0  0  0  0  0  0  0  0  0
   27.4977  -24.5711  -17.4192 C   0  0  0  0  0  0  0  0  0  0  0  0
   27.9298  -25.4161  -18.4268 O   0  0  0  0  0  0  0  0  0  0  0  0
   27.8638  -24.7673  -16.2403 O   0  0  0  0  0  0  0  0  0  0  0  0
  2  1  1  1
  2  3  1  0
  4  3  1  0
  4  5  1  0
  6  5  1  0
  6  7  1  0
  8  2  1  0
  9  8  2  0
 10 11  1  0
 11 12  2  0
 12 13  1  0
 14 15  1  0
 14 13  2  0
 16 15  1  1
 16 17  1  0
 17  8  1  0
 18 16  1  0
 18 19  2  0
 20 14  1  0
 21 20  2  0
 21 11  1  0
 23 22  1  1
 23 25  1  0
 24 23  1  0
 25 26  1  1
 25 27  1  0
 26 18  1  0
 27 28  1  0
 29 27  2  0
M  END
$$$$
