KYT.pdb
     RDKit          3D

 29 29  0  0  1  0  0  0  0  0999 V2000
   28.7170  -24.2587  -17.1612 N   0  0  0  0  0  0  0  0  0  0  0  0
   28.3222  -22.9221  -16.8863 C   0  0  1  0  0  0  0  0  0  0  0  0
   27.6603  -22.3276  -18.1444 C   0  0  0  0  0  0  0  0  0  0  0  0
   28.6991  -22.3426  -19.2083 C   0  0  0  0  0  0  0  0  0  0  0  0
   28.7307  -21.1895  -20.1405 C   0  0  0  0  0  0  0  0  0  0  0  0
   29.7917  -21.2706  -21.1935 C   0  0  0  0  0  0  0  0  0  0  0  0
   29.9209  -20.1294  -22.0366 N   0  0  0  0  0  0  0  0  0  0  0  0
   27.3388  -22.7730  -15.7858 C   0  0  0  0  0  0  0  0  0  0  0  0
   26.5296  -23.7219  -15.5220 O   0  0  0  0  0  0  0  0  0  0  0  0
   23.2531  -20.4055   -8.2909 O   0  0  0  0  0  0  0  0  0  0  0  0
   24.1343  -20.4953   -9.3749 C   0  0  0  0  0  0  0  0  0  0  0  0
   25.3326  -21.1711   -9.2815 C   0  0  0  0  0  0  0  0  0  0  0  0
   26.1471  -21.2189  -10.3830 C   0  0  0  0  0  0  0  0  0  0  0  0
   25.8323  -20.6249  -11.5859 C   0  0  0  0  0  0  0  0  0  0  0  0
   26.7055  -20.6704  -12.7717 C   0  0  0  0  0  0  0  0  0  0  0  0
   26.2412  -21.5631  -13.8681 C   0  0  2  0  0  0  0  0  0  0  0  0
   27.2051  -21.6274  -14.9624 N   0  0  0  0  0  0  0  0  0  0  0  0
   24.9086  -21.1562  -14.3543 C   0  0  0  0  0  0  0  0  0  0  0  0
   24.7912  -20.0934  -15.0030 O   0  0  0  0  0  0  0  0  0  0  0  0
   24.6238  -19.9571  -11.6410 C   0  0  0  0  0  0  0  0  0  0  0  0
   23.7731  -19.8832  -10.5588 C   0  0  0  0  0  0  0  0  0  0  0  0
   22.8401  -22.3345  -16.8757 C   0  0  0  0  0  0  0  0  0  0  0  0
   21.9585  -22.4209  -15.6660 C   0  0  1  0  0  0  0  0  0  0  0  0
   21.8655  -23.7482  -15.2308 O   0  0  0  0  0  0  0  0  0  0  0  0
   22.4733  -21.5294  -14.5584 C   0  0  2  0  0  0  0  0  0  0  0  0
   23.7716  -21.9608  -14.0895 N   0  0  0  0  0  0  0  0  0  0  0  0
   21.5322  -21.5013  -13.4092 C   0  0  0  0  0  0  0  0  0  0  0  0
   20.2723  -20.9557  -13.5849 O   0  0  0  0  0  0  0  0  0  0  0  0
   21.8633  -21.9612  -12.2951 O   0  0  0  0  0  0  0  0  0  0  0  0
  2  1  1  6
  2  3  1  0
  4  3  1  0
  4  5  1  0
  6  5  1  0
  6  7  1  0
  8  2  1  0
  9  8  2  0
 10 11  1  0
 11 12  2  0
 12 13  1  0
 14 15  1  0
 14 13  2  0
 16 15  1  1
 16 17  1  0
 17  8  1  0
 18 16  1  0
 18 19  2  0
 20 14  1  0
 21 20  2  0
 21 11  1  0
 23 22  1  6
 23 25  1  0
 24 23  1  0
 25 26  1  1
 25 27  1  0
 26 18  1  0
 27 28  1  0
 29 27  2  0
M  END
$$$$
