KYT.pdb
     RDKit          3D

 29 29  0  0  1  0  0  0  0  0999 V2000
   25.8687  -23.8733  -16.0735 N   0  0  0  0  0  0  0  0  0  0  0  0
   25.9000  -22.6572  -15.3397 C   0  0  1  0  0  0  0  0  0  0  0  0
   25.6388  -21.4845  -16.3045 C   0  0  0  0  0  0  0  0  0  0  0  0
   26.7606  -21.4901  -17.2805 C   0  0  0  0  0  0  0  0  0  0  0  0
   27.3429  -20.1773  -17.6508 C   0  0  0  0  0  0  0  0  0  0  0  0
   28.4280  -20.2469  -18.6799 C   0  0  0  0  0  0  0  0  0  0  0  0
   29.0330  -19.0060  -19.0316 N   0  0  0  0  0  0  0  0  0  0  0  0
   24.8847  -22.5484  -14.2639 C   0  0  0  0  0  0  0  0  0  0  0  0
   23.7934  -23.2016  -14.3496 O   0  0  0  0  0  0  0  0  0  0  0  0
   30.0227  -20.3391  -10.3362 O   0  0  0  0  0  0  0  0  0  0  0  0
   28.6582  -20.6214  -10.4711 C   0  0  0  0  0  0  0  0  0  0  0  0
   28.1891  -21.4908  -11.4329 C   0  0  0  0  0  0  0  0  0  0  0  0
   26.8398  -21.7209  -11.5081 C   0  0  0  0  0  0  0  0  0  0  0  0
   25.9209  -21.1273  -10.6702 C   0  0  0  0  0  0  0  0  0  0  0  0
   24.4696  -21.3685  -10.7488 C   0  0  0  0  0  0  0  0  0  0  0  0
   23.9425  -21.6299  -12.1156 C   0  0  2  0  0  0  0  0  0  0  0  0
   25.0151  -21.7535  -13.0979 N   0  0  0  0  0  0  0  0  0  0  0  0
   22.9698  -20.5946  -12.5153 C   0  0  0  0  0  0  0  0  0  0  0  0
   23.2803  -19.3878  -12.4077 O   0  0  0  0  0  0  0  0  0  0  0  0
   26.4287  -20.2625   -9.7195 C   0  0  0  0  0  0  0  0  0  0  0  0
   27.7776  -20.0011   -9.6071 C   0  0  0  0  0  0  0  0  0  0  0  0
   20.4045  -21.3661  -15.5485 C   0  0  0  0  0  0  0  0  0  0  0  0
   20.7868  -19.9968  -15.0723 C   0  0  1  0  0  0  0  0  0  0  0  0
   19.8951  -19.0438  -15.5787 O   0  0  0  0  0  0  0  0  0  0  0  0
   20.8271  -19.9426  -13.5617 C   0  0  2  0  0  0  0  0  0  0  0  0
   21.6956  -20.9624  -13.0166 N   0  0  0  0  0  0  0  0  0  0  0  0
   19.4694  -20.1070  -12.9812 C   0  0  0  0  0  0  0  0  0  0  0  0
   18.4697  -19.2225  -13.3475 O   0  0  0  0  0  0  0  0  0  0  0  0
   19.2227  -21.0276  -12.1725 O   0  0  0  0  0  0  0  0  0  0  0  0
  2  1  1  6
  2  3  1  0
  4  3  1  0
  4  5  1  0
  6  5  1  0
  6  7  1  0
  8  2  1  0
  9  8  2  0
 10 11  1  0
 11 12  2  0
 12 13  1  0
 14 15  1  0
 14 13  2  0
 16 15  1  1
 16 17  1  0
 17  8  1  0
 18 16  1  0
 18 19  2  0
 20 14  1  0
 21 20  2  0
 21 11  1  0
 23 22  1  1
 23 25  1  0
 24 23  1  0
 25 26  1  1
 25 27  1  0
 26 18  1  0
 27 28  1  0
 29 27  2  0
M  END
$$$$
