KYT.pdb
     RDKit          3D

 29 29  0  0  1  0  0  0  0  0999 V2000
   28.7856  -22.5780  -17.7235 N   0  0  0  0  0  0  0  0  0  0  0  0
   28.3907  -21.3302  -17.1712 C   0  0  1  0  0  0  0  0  0  0  0  0
   27.4862  -20.5998  -18.1825 C   0  0  0  0  0  0  0  0  0  0  0  0
   28.3670  -20.1873  -19.3073 C   0  0  0  0  0  0  0  0  0  0  0  0
   28.5099  -21.1356  -20.4386 C   0  0  0  0  0  0  0  0  0  0  0  0
   29.3210  -20.6172  -21.5852 C   0  0  0  0  0  0  0  0  0  0  0  0
   29.5337  -21.5282  -22.6596 N   0  0  0  0  0  0  0  0  0  0  0  0
   27.6187  -21.4204  -15.9079 C   0  0  0  0  0  0  0  0  0  0  0  0
   26.7084  -22.3034  -15.7795 O   0  0  0  0  0  0  0  0  0  0  0  0
   25.0025  -20.4755   -7.4386 O   0  0  0  0  0  0  0  0  0  0  0  0
   25.7025  -20.4402   -8.6504 C   0  0  0  0  0  0  0  0  0  0  0  0
   26.5264  -21.4740   -9.0424 C   0  0  0  0  0  0  0  0  0  0  0  0
   27.1816  -21.3727  -10.2422 C   0  0  0  0  0  0  0  0  0  0  0  0
   27.0613  -20.2878  -11.0832 C   0  0  0  0  0  0  0  0  0  0  0  0
   27.7655  -20.1723  -12.3722 C   0  0  0  0  0  0  0  0  0  0  0  0
   27.0640  -20.7796  -13.5356 C   0  0  2  0  0  0  0  0  0  0  0  0
   27.8025  -20.5833  -14.7793 N   0  0  0  0  0  0  0  0  0  0  0  0
   25.6842  -20.2683  -13.6481 C   0  0  0  0  0  0  0  0  0  0  0  0
   25.4963  -19.0870  -14.0134 O   0  0  0  0  0  0  0  0  0  0  0  0
   26.2270  -19.2722  -10.6565 C   0  0  0  0  0  0  0  0  0  0  0  0
   25.5484  -19.3309   -9.4581 C   0  0  0  0  0  0  0  0  0  0  0  0
   23.1502  -20.6334  -15.9083 C   0  0  0  0  0  0  0  0  0  0  0  0
   22.5054  -21.1048  -14.6394 C   0  0  1  0  0  0  0  0  0  0  0  0
   22.4580  -22.5037  -14.6134 O   0  0  0  0  0  0  0  0  0  0  0  0
   23.2404  -20.5717  -13.4303 C   0  0  2  0  0  0  0  0  0  0  0  0
   24.5814  -21.1065  -13.3454 N   0  0  0  0  0  0  0  0  0  0  0  0
   22.5144  -20.8931  -12.1746 C   0  0  0  0  0  0  0  0  0  0  0  0
   21.2467  -20.3731  -11.9788 O   0  0  0  0  0  0  0  0  0  0  0  0
   23.0320  -21.6217  -11.3007 O   0  0  0  0  0  0  0  0  0  0  0  0
  2  1  1  6
  2  3  1  0
  4  3  1  0
  4  5  1  0
  6  5  1  0
  6  7  1  0
  8  2  1  0
  9  8  2  0
 10 11  1  0
 11 12  2  0
 12 13  1  0
 14 15  1  0
 14 13  2  0
 16 15  1  1
 16 17  1  0
 17  8  1  0
 18 16  1  0
 18 19  2  0
 20 14  1  0
 21 20  2  0
 21 11  1  0
 23 22  1  6
 23 25  1  0
 24 23  1  0
 25 26  1  1
 25 27  1  0
 26 18  1  0
 27 28  1  0
 29 27  2  0
M  END
$$$$
