KYT.pdb
     RDKit          3D

 29 29  0  0  1  0  0  0  0  0999 V2000
   22.0936  -12.5195  -18.3917 N   0  0  0  0  0  0  0  0  0  0  0  0
   22.0246  -11.1057  -18.5115 C   0  0  1  0  0  0  0  0  0  0  0  0
   20.5513  -10.6904  -18.6885 C   0  0  0  0  0  0  0  0  0  0  0  0
   19.8345  -11.8968  -19.1804 C   0  0  0  0  0  0  0  0  0  0  0  0
   18.3674  -11.7843  -19.3661 C   0  0  0  0  0  0  0  0  0  0  0  0
   17.6975  -13.0498  -19.8030 C   0  0  0  0  0  0  0  0  0  0  0  0
   16.2735  -13.0221  -19.8336 N   0  0  0  0  0  0  0  0  0  0  0  0
   22.5341  -10.3520  -17.3399 C   0  0  0  0  0  0  0  0  0  0  0  0
   22.3700  -10.8157  -16.1639 O   0  0  0  0  0  0  0  0  0  0  0  0
   27.9314  -13.1714  -16.5599 O   0  0  0  0  0  0  0  0  0  0  0  0
   27.2370  -11.9656  -16.4068 C   0  0  0  0  0  0  0  0  0  0  0  0
   26.9025  -11.4742  -15.1626 C   0  0  0  0  0  0  0  0  0  0  0  0
   26.2219  -10.2867  -15.0869 C   0  0  0  0  0  0  0  0  0  0  0  0
   25.8514   -9.5526  -16.1926 C   0  0  0  0  0  0  0  0  0  0  0  0
   25.1172   -8.2775  -16.1170 C   0  0  0  0  0  0  0  0  0  0  0  0
   23.6360   -8.3916  -16.2047 C   0  0  2  0  0  0  0  0  0  0  0  0
   23.2158   -9.1113  -17.4031 N   0  0  0  0  0  0  0  0  0  0  0  0
   22.9969   -7.0636  -16.1283 C   0  0  0  0  0  0  0  0  0  0  0  0
   23.1345   -6.2617  -17.0782 O   0  0  0  0  0  0  0  0  0  0  0  0
   26.2041  -10.0768  -17.4215 C   0  0  0  0  0  0  0  0  0  0  0  0
   26.8884  -11.2670  -17.5457 C   0  0  0  0  0  0  0  0  0  0  0  0
   19.7781   -6.0914  -16.5792 C   0  0  0  0  0  0  0  0  0  0  0  0
   20.0619   -5.5923  -15.1942 C   0  0  1  0  0  0  0  0  0  0  0  0
   19.5162   -6.4654  -14.2457 O   0  0  0  0  0  0  0  0  0  0  0  0
   21.5487   -5.4254  -14.9750 C   0  0  2  0  0  0  0  0  0  0  0  0
   22.2342   -6.6987  -14.9902 N   0  0  0  0  0  0  0  0  0  0  0  0
   21.8290   -4.7441  -13.6848 C   0  0  0  0  0  0  0  0  0  0  0  0
   21.4733   -3.4148  -13.5351 O   0  0  0  0  0  0  0  0  0  0  0  0
   22.3779   -5.3534  -12.7415 O   0  0  0  0  0  0  0  0  0  0  0  0
  2  1  1  1
  2  3  1  0
  4  3  1  0
  4  5  1  0
  6  5  1  0
  6  7  1  0
  8  2  1  0
  9  8  2  0
 10 11  1  0
 11 12  2  0
 12 13  1  0
 14 15  1  0
 14 13  2  0
 16 15  1  6
 16 17  1  0
 17  8  1  0
 18 16  1  0
 18 19  2  0
 20 14  1  0
 21 20  2  0
 21 11  1  0
 23 22  1  6
 23 25  1  0
 24 23  1  0
 25 26  1  1
 25 27  1  0
 26 18  1  0
 27 28  1  0
 29 27  2  0
M  END
$$$$
