APC.pdb
     RDKit          3D

 19 19  0  0  1  0  0  0  0  0999 V2000
   22.7516  -12.1425  -19.2375 C   0  0  0  0  0  0  0  0  0  0  0  0
   23.1475  -12.6573  -17.8947 C   0  0  2  0  0  0  0  0  0  0  0  0
   22.2797  -13.7427  -17.5236 N   0  0  0  0  0  0  0  0  0  0  0  0
   23.1381  -11.6052  -16.8432 C   0  0  0  0  0  0  0  0  0  0  0  0
   22.0534  -11.3268  -16.2702 O   0  0  0  0  0  0  0  0  0  0  0  0
   24.2941  -10.8933  -16.4483 N   0  0  0  0  0  0  0  0  0  0  0  0
   25.6325  -11.3115  -16.8731 C   0  0  0  0  0  0  0  0  0  0  0  0
   26.5519  -10.6317  -15.8532 C   0  0  0  0  0  0  0  0  0  0  0  0
   25.8381   -9.3050  -15.7428 C   0  0  0  0  0  0  0  0  0  0  0  0
   24.3980   -9.7452  -15.6335 C   0  0  1  0  0  0  0  0  0  0  0  0
   23.4673   -8.6426  -15.9631 C   0  0  0  0  0  0  0  0  0  0  0  0
   23.1395   -8.4381  -17.1359 O   0  0  0  0  0  0  0  0  0  0  0  0
   22.9781   -7.8466  -14.8918 N   0  0  0  0  0  0  0  0  0  0  0  0
   22.1602   -6.6687  -15.1085 C   0  0  1  0  0  0  0  0  0  0  0  0
   20.7426   -7.0509  -14.6650 C   0  0  0  0  0  0  0  0  0  0  0  0
   19.7113   -5.5882  -14.8674 S   0  0  0  0  0  0  0  0  0  0  0  0
   22.6369   -5.4953  -14.3897 C   0  0  0  0  0  0  0  0  0  0  0  0
   22.9818   -5.5672  -13.0571 O   0  0  0  0  0  0  0  0  0  0  0  0
   22.7405   -4.3976  -14.9769 O   0  0  0  0  0  0  0  0  0  0  0  0
  2  1  1  6
  2  3  1  0
  4  5  2  0
  4  2  1  0
  6  4  1  0
  7  6  1  0
  8  7  1  0
  9  8  1  0
  9 10  1  0
 10  6  1  0
 10 11  1  6
 11 12  2  0
 13 11  1  0
 13 14  1  0
 14 15  1  1
 16 15  1  0
 17 14  1  0
 17 18  1  0
 19 17  2  0
M  END
$$$$
