APC.pdb
     RDKit          3D

 19 19  0  0  1  0  0  0  0  0999 V2000
   17.5025  -10.5755  -18.3940 C   0  0  0  0  0  0  0  0  0  0  0  0
   18.9132  -10.8895  -18.7632 C   0  0  2  0  0  0  0  0  0  0  0  0
   19.2000  -12.2601  -18.4345 N   0  0  0  0  0  0  0  0  0  0  0  0
   19.8989   -9.9848  -18.1132 C   0  0  0  0  0  0  0  0  0  0  0  0
   20.4257  -10.3382  -17.0270 O   0  0  0  0  0  0  0  0  0  0  0  0
   20.2803   -8.7359  -18.6554 N   0  0  0  0  0  0  0  0  0  0  0  0
   19.9299   -8.3582  -20.0269 C   0  0  0  0  0  0  0  0  0  0  0  0
   20.9289   -7.2419  -20.3487 C   0  0  0  0  0  0  0  0  0  0  0  0
   20.9222   -6.5309  -19.0160 C   0  0  0  0  0  0  0  0  0  0  0  0
   21.0151   -7.6911  -18.0543 C   0  0  1  0  0  0  0  0  0  0  0  0
   20.5784   -7.3044  -16.6941 C   0  0  0  0  0  0  0  0  0  0  0  0
   19.3760   -7.2717  -16.4152 O   0  0  0  0  0  0  0  0  0  0  0  0
   21.5840   -6.9794  -15.7434 N   0  0  0  0  0  0  0  0  0  0  0  0
   21.2691   -6.5443  -14.3962 C   0  0  1  0  0  0  0  0  0  0  0  0
   21.6616   -7.7055  -13.4743 C   0  0  0  0  0  0  0  0  0  0  0  0
   21.3096   -7.1848  -11.7864 S   0  0  0  0  0  0  0  0  0  0  0  0
   21.9505   -5.3158  -14.0127 C   0  0  0  0  0  0  0  0  0  0  0  0
   23.2769   -5.1091  -14.3256 O   0  0  0  0  0  0  0  0  0  0  0  0
   21.3362   -4.4246  -13.3892 O   0  0  0  0  0  0  0  0  0  0  0  0
  2  1  1  1
  2  3  1  0
  4  5  2  0
  4  2  1  0
  6  4  1  0
  7  6  1  0
  8  7  1  0
  9  8  1  0
  9 10  1  0
 10  6  1  0
 10 11  1  1
 11 12  2  0
 13 11  1  0
 13 14  1  0
 14 15  1  1
 16 15  1  0
 17 14  1  0
 17 18  1  0
 19 17  2  0
M  END
$$$$
