APC.pdb
     RDKit          3D

 19 19  0  0  1  0  0  0  0  0999 V2000
   26.5624  -22.0872  -18.1086 C   0  0  0  0  0  0  0  0  0  0  0  0
   27.8414  -21.5251  -17.5859 C   0  0  2  0  0  0  0  0  0  0  0  0
   28.9172  -22.4352  -17.8744 N   0  0  0  0  0  0  0  0  0  0  0  0
   27.7928  -21.2273  -16.1293 C   0  0  0  0  0  0  0  0  0  0  0  0
   28.0772  -22.1397  -15.3115 O   0  0  0  0  0  0  0  0  0  0  0  0
   27.4407  -19.9610  -15.6081 N   0  0  0  0  0  0  0  0  0  0  0  0
   27.3141  -18.7857  -16.4737 C   0  0  0  0  0  0  0  0  0  0  0  0
   27.4400  -17.6143  -15.4941 C   0  0  0  0  0  0  0  0  0  0  0  0
   26.6365  -18.1811  -14.3475 C   0  0  0  0  0  0  0  0  0  0  0  0
   27.1703  -19.5914  -14.2728 C   0  0  1  0  0  0  0  0  0  0  0  0
   26.2450  -20.4834  -13.5388 C   0  0  0  0  0  0  0  0  0  0  0  0
   25.4153  -21.1585  -14.1556 O   0  0  0  0  0  0  0  0  0  0  0  0
   26.3523  -20.5271  -12.1220 N   0  0  0  0  0  0  0  0  0  0  0  0
   25.4349  -21.2882  -11.2957 C   0  0  1  0  0  0  0  0  0  0  0  0
   25.9574  -21.1640   -9.8591 C   0  0  0  0  0  0  0  0  0  0  0  0
   25.6529  -19.4700   -9.3286 S   0  0  0  0  0  0  0  0  0  0  0  0
   24.0556  -20.8316  -11.3942 C   0  0  0  0  0  0  0  0  0  0  0  0
   23.0119  -21.6158  -10.9518 O   0  0  0  0  0  0  0  0  0  0  0  0
   23.7975  -19.7125  -11.8856 O   0  0  0  0  0  0  0  0  0  0  0  0
  2  1  1  1
  2  3  1  0
  4  5  2  0
  4  2  1  0
  6  4  1  0
  7  6  1  0
  8  7  1  0
  9  8  1  0
  9 10  1  0
 10  6  1  0
 10 11  1  6
 11 12  2  0
 13 11  1  0
 13 14  1  0
 14 15  1  1
 16 15  1  0
 17 14  1  0
 17 18  1  0
 19 17  2  0
M  END
$$$$
