APC.pdb
     RDKit          3D

 19 19  0  0  1  0  0  0  0  0999 V2000
   16.1917  -10.0387  -13.5930 C   0  0  0  0  0  0  0  0  0  0  0  0
   16.5847  -10.0316  -15.0319 C   0  0  2  0  0  0  0  0  0  0  0  0
   17.2272  -11.2764  -15.3585 N   0  0  0  0  0  0  0  0  0  0  0  0
   17.4647   -8.8865  -15.3881 C   0  0  0  0  0  0  0  0  0  0  0  0
   18.7122   -9.0337  -15.3218 O   0  0  0  0  0  0  0  0  0  0  0  0
   16.9704   -7.6280  -15.8016 N   0  0  0  0  0  0  0  0  0  0  0  0
   15.5581   -7.4344  -16.1400 C   0  0  0  0  0  0  0  0  0  0  0  0
   15.5728   -6.1578  -16.9872 C   0  0  0  0  0  0  0  0  0  0  0  0
   16.5957   -5.3693  -16.2039 C   0  0  0  0  0  0  0  0  0  0  0  0
   17.6641   -6.4100  -15.9690 C   0  0  1  0  0  0  0  0  0  0  0  0
   18.5587   -6.0268  -14.8540 C   0  0  0  0  0  0  0  0  0  0  0  0
   18.2359   -6.2730  -13.6879 O   0  0  0  0  0  0  0  0  0  0  0  0
   19.7803   -5.3765  -15.1790 N   0  0  0  0  0  0  0  0  0  0  0  0
   20.6992   -4.8960  -14.1650 C   0  0  1  0  0  0  0  0  0  0  0  0
   22.0660   -5.4983  -14.5134 C   0  0  0  0  0  0  0  0  0  0  0  0
   23.2383   -4.8992  -13.2844 S   0  0  0  0  0  0  0  0  0  0  0  0
   20.7688   -3.4432  -14.0917 C   0  0  0  0  0  0  0  0  0  0  0  0
   20.9775   -2.7994  -12.8908 O   0  0  0  0  0  0  0  0  0  0  0  0
   20.6391   -2.7547  -15.1259 O   0  0  0  0  0  0  0  0  0  0  0  0
  2  1  1  1
  2  3  1  0
  4  5  2  0
  4  2  1  0
  6  4  1  0
  7  6  1  0
  8  7  1  0
  9  8  1  0
  9 10  1  0
 10  6  1  0
 10 11  1  1
 11 12  2  0
 13 11  1  0
 13 14  1  0
 14 15  1  6
 16 15  1  0
 17 14  1  0
 17 18  1  0
 19 17  2  0
M  END
$$$$
