APC.pdb
     RDKit          3D

 19 19  0  0  1  0  0  0  0  0999 V2000
   27.6460  -18.7922  -14.3978 C   0  0  0  0  0  0  0  0  0  0  0  0
   27.7395  -20.2345  -14.0290 C   0  0  2  0  0  0  0  0  0  0  0  0
   28.3649  -20.9627  -15.1003 N   0  0  0  0  0  0  0  0  0  0  0  0
   26.4204  -20.8358  -13.6961 C   0  0  0  0  0  0  0  0  0  0  0  0
   25.7634  -21.4042  -14.6058 O   0  0  0  0  0  0  0  0  0  0  0  0
   25.8584  -20.8031  -12.3991 N   0  0  0  0  0  0  0  0  0  0  0  0
   26.6460  -20.3918  -11.2342 C   0  0  0  0  0  0  0  0  0  0  0  0
   25.8615  -20.9786  -10.0562 C   0  0  0  0  0  0  0  0  0  0  0  0
   24.4603  -20.6967  -10.5448 C   0  0  0  0  0  0  0  0  0  0  0  0
   24.5496  -21.1348  -11.9870 C   0  0  1  0  0  0  0  0  0  0  0  0
   23.4580  -20.5525  -12.7993 C   0  0  0  0  0  0  0  0  0  0  0  0
   23.4990  -19.3639  -13.1314 O   0  0  0  0  0  0  0  0  0  0  0  0
   22.3832  -21.4048  -13.1721 N   0  0  0  0  0  0  0  0  0  0  0  0
   21.2649  -20.9421  -13.9712 C   0  0  1  0  0  0  0  0  0  0  0  0
   21.1796  -21.8942  -15.1706 C   0  0  0  0  0  0  0  0  0  0  0  0
   19.7763  -21.3658  -16.1684 S   0  0  0  0  0  0  0  0  0  0  0  0
   20.0072  -20.9074  -13.2378 C   0  0  0  0  0  0  0  0  0  0  0  0
   19.0687  -19.9269  -13.4784 O   0  0  0  0  0  0  0  0  0  0  0  0
   19.7600  -21.7740  -12.3727 O   0  0  0  0  0  0  0  0  0  0  0  0
  2  1  1  6
  2  3  1  0
  4  5  2  0
  4  2  1  0
  6  4  1  0
  7  6  1  0
  8  7  1  0
  9  8  1  0
  9 10  1  0
 10  6  1  0
 10 11  1  6
 11 12  2  0
 13 11  1  0
 13 14  1  0
 14 15  1  6
 16 15  1  0
 17 14  1  0
 17 18  1  0
 19 17  2  0
M  END
$$$$
