APC.pdb
     RDKit          3D

 19 19  0  0  1  0  0  0  0  0999 V2000
   16.9396  -10.6880  -15.4899 C   0  0  0  0  0  0  0  0  0  0  0  0
   18.0693  -11.0569  -16.3914 C   0  0  2  0  0  0  0  0  0  0  0  0
   18.6613  -12.2869  -15.9378 N   0  0  0  0  0  0  0  0  0  0  0  0
   19.1032   -9.9923  -16.4929 C   0  0  0  0  0  0  0  0  0  0  0  0
   20.0846  -10.0197  -15.7065 O   0  0  0  0  0  0  0  0  0  0  0  0
   19.0424   -8.9398  -17.4350 N   0  0  0  0  0  0  0  0  0  0  0  0
   18.0952   -8.9669  -18.5524 C   0  0  0  0  0  0  0  0  0  0  0  0
   18.6989   -7.9706  -19.5476 C   0  0  0  0  0  0  0  0  0  0  0  0
   19.1599   -6.9147  -18.5707 C   0  0  0  0  0  0  0  0  0  0  0  0
   19.8109   -7.7573  -17.5002 C   0  0  1  0  0  0  0  0  0  0  0  0
   19.9433   -7.0116  -16.2287 C   0  0  0  0  0  0  0  0  0  0  0  0
   19.0174   -7.0102  -15.4118 O   0  0  0  0  0  0  0  0  0  0  0  0
   21.1585   -6.3120  -15.9951 N   0  0  0  0  0  0  0  0  0  0  0  0
   21.3632   -5.4773  -14.8269 C   0  0  1  0  0  0  0  0  0  0  0  0
   22.2828   -6.2744  -13.8935 C   0  0  0  0  0  0  0  0  0  0  0  0
   22.5728   -5.2549  -12.4373 S   0  0  0  0  0  0  0  0  0  0  0  0
   21.9349   -4.1754  -15.1413 C   0  0  0  0  0  0  0  0  0  0  0  0
   21.5721   -3.0484  -14.4354 O   0  0  0  0  0  0  0  0  0  0  0  0
   22.7695   -4.0616  -16.0638 O   0  0  0  0  0  0  0  0  0  0  0  0
  2  1  1  1
  2  3  1  0
  4  5  2  0
  4  2  1  0
  6  4  1  0
  7  6  1  0
  8  7  1  0
  9  8  1  0
  9 10  1  0
 10  6  1  0
 10 11  1  1
 11 12  2  0
 13 11  1  0
 13 14  1  0
 14 15  1  1
 16 15  1  0
 17 14  1  0
 17 18  1  0
 19 17  2  0
M  END
$$$$
