FSF.pdb
     RDKit          3D

 29 30  0  0  1  0  0  0  0  0999 V2000
   24.8364  -21.1939   -6.8141 N   0  0  0  0  0  0  0  0  0  0  0  0
   25.5939  -20.5550   -7.8680 C   0  0  1  0  0  0  0  0  0  0  0  0
   27.0881  -20.6889   -7.6377 C   0  0  0  0  0  0  0  0  0  0  0  0
   27.3772  -20.0870   -6.3181 C   0  0  0  0  0  0  0  0  0  0  0  0
   27.2440  -18.7316   -6.1285 C   0  0  0  0  0  0  0  0  0  0  0  0
   27.5092  -18.1376   -4.8974 C   0  0  0  0  0  0  0  0  0  0  0  0
   27.9205  -18.9537   -3.8376 C   0  0  0  0  0  0  0  0  0  0  0  0
   28.0577  -20.3106   -4.0141 C   0  0  0  0  0  0  0  0  0  0  0  0
   27.7854  -20.8613   -5.2487 C   0  0  0  0  0  0  0  0  0  0  0  0
   25.2759  -21.0553   -9.2000 C   0  0  0  0  0  0  0  0  0  0  0  0
   25.6304  -22.2039   -9.5472 O   0  0  0  0  0  0  0  0  0  0  0  0
   22.5516  -19.1653  -11.3019 O   0  0  0  0  0  0  0  0  0  0  0  0
   22.9586  -20.3667  -11.8833 C   0  0  0  0  0  0  0  0  0  0  0  0
   24.3989  -20.5958  -11.4911 C   0  0  2  0  0  0  0  0  0  0  0  0
   24.5606  -20.2274  -10.0983 N   0  0  0  0  0  0  0  0  0  0  0  0
   25.2767  -19.7928  -12.3766 C   0  0  0  0  0  0  0  0  0  0  0  0
   25.5984  -18.6012  -12.1238 O   0  0  0  0  0  0  0  0  0  0  0  0
   25.7674  -20.4126  -13.5590 N   0  0  0  0  0  0  0  0  0  0  0  0
   26.6547  -19.7408  -14.4806 C   0  0  1  0  0  0  0  0  0  0  0  0
   27.8349  -20.6637  -14.7091 C   0  0  0  0  0  0  0  0  0  0  0  0
   28.6370  -20.7670  -13.4711 C   0  0  0  0  0  0  0  0  0  0  0  0
   28.3241  -21.7299  -12.5375 C   0  0  0  0  0  0  0  0  0  0  0  0
   29.0926  -21.8138  -11.3706 C   0  0  0  0  0  0  0  0  0  0  0  0
   30.1406  -20.9495  -11.1622 C   0  0  0  0  0  0  0  0  0  0  0  0
   30.4503  -19.9861  -12.1010 C   0  0  0  0  0  0  0  0  0  0  0  0
   29.7015  -19.8948  -13.2513 C   0  0  0  0  0  0  0  0  0  0  0  0
   25.9085  -19.4539  -15.7253 C   0  0  0  0  0  0  0  0  0  0  0  0
   26.3674  -18.6034  -16.7210 O   0  0  0  0  0  0  0  0  0  0  0  0
   24.7925  -20.0053  -15.9055 O   0  0  0  0  0  0  0  0  0  0  0  0
  2  1  1  1
  2 10  1  0
  2  3  1  0
  3  4  1  0
  4  9  2  0
  5  6  2  0
  5  4  1  0
  6  7  1  0
  7  8  2  0
  9  8  1  0
 10 11  2  0
 14 13  1  6
 13 12  1  0
 15 14  1  0
 15 10  1  0
 16 18  1  0
 16 14  1  0
 17 16  2  0
 19 18  1  0
 19 20  1  6
 21 20  1  0
 21 22  2  0
 23 22  1  0
 24 23  2  0
 25 26  2  0
 25 24  1  0
 26 21  1  0
 27 19  1  0
 28 27  1  0
 29 27  2  0
M  END
$$$$
