FSF.pdb
     RDKit          3D

 29 30  0  0  1  0  0  0  0  0999 V2000
   24.9024  -17.6043  -15.2978 N   0  0  0  0  0  0  0  0  0  0  0  0
   25.8964  -18.1703  -14.4123 C   0  0  1  0  0  0  0  0  0  0  0  0
   26.7885  -17.0952  -13.8191 C   0  0  0  0  0  0  0  0  0  0  0  0
   27.6781  -16.6257  -14.9032 C   0  0  0  0  0  0  0  0  0  0  0  0
   28.7075  -17.4201  -15.3503 C   0  0  0  0  0  0  0  0  0  0  0  0
   29.5606  -17.0043  -16.3691 C   0  0  0  0  0  0  0  0  0  0  0  0
   29.3517  -15.7444  -16.9415 C   0  0  0  0  0  0  0  0  0  0  0  0
   28.3258  -14.9402  -16.5035 C   0  0  0  0  0  0  0  0  0  0  0  0
   27.5023  -15.3879  -15.4921 C   0  0  0  0  0  0  0  0  0  0  0  0
   25.3279  -18.9619  -13.3279 C   0  0  0  0  0  0  0  0  0  0  0  0
   24.2252  -18.6500  -12.8257 O   0  0  0  0  0  0  0  0  0  0  0  0
   26.4956  -22.5810  -13.0757 O   0  0  0  0  0  0  0  0  0  0  0  0
   25.3958  -22.3273  -12.2553 C   0  0  0  0  0  0  0  0  0  0  0  0
   25.5114  -20.9023  -11.7688 C   0  0  2  0  0  0  0  0  0  0  0  0
   26.0371  -20.0891  -12.8477 N   0  0  0  0  0  0  0  0  0  0  0  0
   26.3916  -20.8666  -10.5757 C   0  0  0  0  0  0  0  0  0  0  0  0
   27.6468  -20.7905  -10.6530 O   0  0  0  0  0  0  0  0  0  0  0  0
   25.7729  -20.9216   -9.2962 N   0  0  0  0  0  0  0  0  0  0  0  0
   26.5281  -21.0294   -8.0690 C   0  0  1  0  0  0  0  0  0  0  0  0
   27.4174  -19.8048   -7.9892 C   0  0  0  0  0  0  0  0  0  0  0  0
   28.0732  -19.7476   -6.6651 C   0  0  0  0  0  0  0  0  0  0  0  0
   28.0406  -18.5765   -5.9411 C   0  0  0  0  0  0  0  0  0  0  0  0
   28.6670  -18.5387   -4.6898 C   0  0  0  0  0  0  0  0  0  0  0  0
   29.3027  -19.6518   -4.1944 C   0  0  0  0  0  0  0  0  0  0  0  0
   29.3327  -20.8233   -4.9239 C   0  0  0  0  0  0  0  0  0  0  0  0
   28.7203  -20.8714   -6.1547 C   0  0  0  0  0  0  0  0  0  0  0  0
   25.5773  -21.1157   -6.9391 C   0  0  0  0  0  0  0  0  0  0  0  0
   24.2091  -20.9230   -7.0660 O   0  0  0  0  0  0  0  0  0  0  0  0
   26.0198  -21.3782   -5.7913 O   0  0  0  0  0  0  0  0  0  0  0  0
  2  1  1  1
  2 10  1  0
  2  3  1  0
  3  4  1  0
  4  9  2  0
  5  6  2  0
  5  4  1  0
  6  7  1  0
  7  8  2  0
  9  8  1  0
 10 11  2  0
 14 13  1  6
 13 12  1  0
 15 14  1  0
 15 10  1  0
 16 18  1  0
 16 14  1  0
 17 16  2  0
 19 18  1  0
 19 20  1  1
 21 20  1  0
 21 22  2  0
 23 22  1  0
 24 23  2  0
 25 26  2  0
 25 24  1  0
 26 21  1  0
 27 19  1  0
 28 27  1  0
 29 27  2  0
M  END
$$$$
