FSF.pdb
     RDKit          3D

 29 30  0  0  1  0  0  0  0  0999 V2000
   22.0845  -19.2488  -16.6988 N   0  0  0  0  0  0  0  0  0  0  0  0
   23.1267  -18.9061  -15.7559 C   0  0  1  0  0  0  0  0  0  0  0  0
   23.0105  -17.4632  -15.2998 C   0  0  0  0  0  0  0  0  0  0  0  0
   23.1387  -16.6173  -16.5061 C   0  0  0  0  0  0  0  0  0  0  0  0
   24.3638  -16.4432  -17.1056 C   0  0  0  0  0  0  0  0  0  0  0  0
   24.5144  -15.6528  -18.2420 C   0  0  0  0  0  0  0  0  0  0  0  0
   23.3813  -15.0273  -18.7745 C   0  0  0  0  0  0  0  0  0  0  0  0
   22.1503  -15.1933  -18.1845 C   0  0  0  0  0  0  0  0  0  0  0  0
   22.0422  -15.9842  -17.0600 C   0  0  0  0  0  0  0  0  0  0  0  0
   23.1579  -19.7701  -14.5819 C   0  0  0  0  0  0  0  0  0  0  0  0
   22.1167  -19.9784  -13.9201 O   0  0  0  0  0  0  0  0  0  0  0  0
   26.0296  -22.6166  -14.3426 O   0  0  0  0  0  0  0  0  0  0  0  0
   24.7474  -22.7132  -13.8007 C   0  0  0  0  0  0  0  0  0  0  0  0
   24.4240  -21.3843  -13.1604 C   0  0  2  0  0  0  0  0  0  0  0  0
   24.3801  -20.3724  -14.1976 N   0  0  0  0  0  0  0  0  0  0  0  0
   25.4515  -21.0761  -12.1362 C   0  0  0  0  0  0  0  0  0  0  0  0
   26.5808  -20.5965  -12.4222 O   0  0  0  0  0  0  0  0  0  0  0  0
   25.1292  -21.3406  -10.7764 N   0  0  0  0  0  0  0  0  0  0  0  0
   26.0936  -21.2140   -9.7078 C   0  0  1  0  0  0  0  0  0  0  0  0
   26.6277  -19.7967   -9.7610 C   0  0  0  0  0  0  0  0  0  0  0  0
   27.4988  -19.5456   -8.5927 C   0  0  0  0  0  0  0  0  0  0  0  0
   27.2052  -18.5069   -7.7374 C   0  0  0  0  0  0  0  0  0  0  0  0
   28.0403  -18.2821   -6.6367 C   0  0  0  0  0  0  0  0  0  0  0  0
   29.1334  -19.0850   -6.4153 C   0  0  0  0  0  0  0  0  0  0  0  0
   29.4235  -20.1249   -7.2755 C   0  0  0  0  0  0  0  0  0  0  0  0
   28.6095  -20.3547   -8.3603 C   0  0  0  0  0  0  0  0  0  0  0  0
   25.4181  -21.5190   -8.4276 C   0  0  0  0  0  0  0  0  0  0  0  0
   26.0457  -22.1278   -7.3503 O   0  0  0  0  0  0  0  0  0  0  0  0
   24.2050  -21.2148   -8.2932 O   0  0  0  0  0  0  0  0  0  0  0  0
  2  1  1  6
  2 10  1  0
  2  3  1  0
  3  4  1  0
  4  9  2  0
  5  6  2  0
  5  4  1  0
  6  7  1  0
  7  8  2  0
  9  8  1  0
 10 11  2  0
 14 13  1  6
 13 12  1  0
 15 14  1  0
 15 10  1  0
 16 18  1  0
 16 14  1  0
 17 16  2  0
 19 18  1  0
 19 20  1  1
 21 20  1  0
 21 22  2  0
 23 22  1  0
 24 23  2  0
 25 26  2  0
 25 24  1  0
 26 21  1  0
 27 19  1  0
 28 27  1  0
 29 27  2  0
M  END
$$$$
