FSF.pdb
     RDKit          3D

 29 30  0  0  1  0  0  0  0  0999 V2000
   19.4059  -12.3847  -17.0466 N   0  0  0  0  0  0  0  0  0  0  0  0
   19.6194  -11.0331  -17.5157 C   0  0  1  0  0  0  0  0  0  0  0  0
   18.3043  -10.3148  -17.7576 C   0  0  0  0  0  0  0  0  0  0  0  0
   17.6833  -10.9398  -18.9453 C   0  0  0  0  0  0  0  0  0  0  0  0
   17.5185  -10.2180  -20.1041 C   0  0  0  0  0  0  0  0  0  0  0  0
   16.9372  -10.7802  -21.2375 C   0  0  0  0  0  0  0  0  0  0  0  0
   16.5156  -12.1134  -21.1796 C   0  0  0  0  0  0  0  0  0  0  0  0
   16.6745  -12.8462  -20.0268 C   0  0  0  0  0  0  0  0  0  0  0  0
   17.2549  -12.2536  -18.9252 C   0  0  0  0  0  0  0  0  0  0  0  0
   20.4381  -10.2270  -16.6181 C   0  0  0  0  0  0  0  0  0  0  0  0
   20.3871  -10.4060  -15.3808 O   0  0  0  0  0  0  0  0  0  0  0  0
   22.4012   -6.9951  -18.1539 O   0  0  0  0  0  0  0  0  0  0  0  0
   23.1183   -7.6757  -17.1692 C   0  0  0  0  0  0  0  0  0  0  0  0
   22.1197   -8.4093  -16.3058 C   0  0  2  0  0  0  0  0  0  0  0  0
   21.2931   -9.2380  -17.1612 N   0  0  0  0  0  0  0  0  0  0  0  0
   21.3109   -7.4206  -15.5521 C   0  0  0  0  0  0  0  0  0  0  0  0
   20.2776   -6.8777  -16.0260 O   0  0  0  0  0  0  0  0  0  0  0  0
   21.7366   -7.0832  -14.2376 N   0  0  0  0  0  0  0  0  0  0  0  0
   21.0325   -6.1300  -13.4108 C   0  0  1  0  0  0  0  0  0  0  0  0
   20.8748   -6.7636  -12.0432 C   0  0  0  0  0  0  0  0  0  0  0  0
   20.0946   -5.8675  -11.1629 C   0  0  0  0  0  0  0  0  0  0  0  0
   20.3354   -5.8692   -9.8069 C   0  0  0  0  0  0  0  0  0  0  0  0
   19.5876   -5.0155   -8.9874 C   0  0  0  0  0  0  0  0  0  0  0  0
   18.6305   -4.1910   -9.5286 C   0  0  0  0  0  0  0  0  0  0  0  0
   18.3930   -4.1929  -10.8884 C   0  0  0  0  0  0  0  0  0  0  0  0
   19.1221   -5.0278  -11.7029 C   0  0  0  0  0  0  0  0  0  0  0  0
   21.8164   -4.8762  -13.3691 C   0  0  0  0  0  0  0  0  0  0  0  0
   23.1511   -4.8132  -12.9948 O   0  0  0  0  0  0  0  0  0  0  0  0
   21.2544   -3.7972  -13.6885 O   0  0  0  0  0  0  0  0  0  0  0  0
  2  1  1  1
  2 10  1  0
  2  3  1  0
  3  4  1  0
  4  9  2  0
  5  6  2  0
  5  4  1  0
  6  7  1  0
  7  8  2  0
  9  8  1  0
 10 11  2  0
 14 13  1  6
 13 12  1  0
 15 14  1  0
 15 10  1  0
 16 18  1  0
 16 14  1  0
 17 16  2  0
 19 18  1  0
 19 20  1  1
 21 20  1  0
 21 22  2  0
 23 22  1  0
 24 23  2  0
 25 26  2  0
 25 24  1  0
 26 21  1  0
 27 19  1  0
 28 27  1  0
 29 27  2  0
M  END
$$$$
