FSF.pdb
     RDKit          3D

 29 30  0  0  1  0  0  0  0  0999 V2000
   17.5413  -11.1508  -17.7806 N   0  0  0  0  0  0  0  0  0  0  0  0
   18.7726  -10.4028  -17.9110 C   0  0  1  0  0  0  0  0  0  0  0  0
   18.6710   -9.3512  -19.0007 C   0  0  0  0  0  0  0  0  0  0  0  0
   18.3502  -10.0615  -20.2575 C   0  0  0  0  0  0  0  0  0  0  0  0
   19.2925  -10.8568  -20.8661 C   0  0  0  0  0  0  0  0  0  0  0  0
   19.0187  -11.5372  -22.0496 C   0  0  0  0  0  0  0  0  0  0  0  0
   17.7487  -11.3977  -22.6208 C   0  0  0  0  0  0  0  0  0  0  0  0
   16.7974  -10.6055  -22.0222 C   0  0  0  0  0  0  0  0  0  0  0  0
   17.1071   -9.9477  -20.8505 C   0  0  0  0  0  0  0  0  0  0  0  0
   19.1976   -9.7593  -16.6736 C   0  0  0  0  0  0  0  0  0  0  0  0
   18.3512   -9.3032  -15.8729 O   0  0  0  0  0  0  0  0  0  0  0  0
   22.9587  -10.3201  -15.1138 O   0  0  0  0  0  0  0  0  0  0  0  0
   21.8474   -9.9325  -14.3642 C   0  0  0  0  0  0  0  0  0  0  0  0
   21.0500   -8.9623  -15.2030 C   0  0  2  0  0  0  0  0  0  0  0  0
   20.5799   -9.6555  -16.3863 N   0  0  0  0  0  0  0  0  0  0  0  0
   21.9071   -7.8029  -15.5506 C   0  0  0  0  0  0  0  0  0  0  0  0
   22.6887   -7.8011  -16.5387 O   0  0  0  0  0  0  0  0  0  0  0  0
   21.8292   -6.6510  -14.7198 N   0  0  0  0  0  0  0  0  0  0  0  0
   22.5672   -5.4397  -14.9955 C   0  0  1  0  0  0  0  0  0  0  0  0
   22.0883   -4.9273  -16.3390 C   0  0  0  0  0  0  0  0  0  0  0  0
   20.7539   -4.3074  -16.1919 C   0  0  0  0  0  0  0  0  0  0  0  0
   20.6559   -2.9939  -15.7895 C   0  0  0  0  0  0  0  0  0  0  0  0
   19.3853   -2.4223  -15.6543 C   0  0  0  0  0  0  0  0  0  0  0  0
   18.2568   -3.1606  -15.9191 C   0  0  0  0  0  0  0  0  0  0  0  0
   18.3603   -4.4767  -16.3222 C   0  0  0  0  0  0  0  0  0  0  0  0
   19.6040   -5.0484  -16.4583 C   0  0  0  0  0  0  0  0  0  0  0  0
   22.3176   -4.4785  -13.8991 C   0  0  0  0  0  0  0  0  0  0  0  0
   22.9125   -3.2275  -13.8198 O   0  0  0  0  0  0  0  0  0  0  0  0
   21.5228   -4.7997  -12.9786 O   0  0  0  0  0  0  0  0  0  0  0  0
  2  1  1  1
  2 10  1  0
  2  3  1  0
  3  4  1  0
  4  9  2  0
  5  6  2  0
  5  4  1  0
  6  7  1  0
  7  8  2  0
  9  8  1  0
 10 11  2  0
 14 13  1  1
 13 12  1  0
 15 14  1  0
 15 10  1  0
 16 18  1  0
 16 14  1  0
 17 16  2  0
 19 18  1  0
 19 20  1  6
 21 20  1  0
 21 22  2  0
 23 22  1  0
 24 23  2  0
 25 26  2  0
 25 24  1  0
 26 21  1  0
 27 19  1  0
 28 27  1  0
 29 27  2  0
M  END
$$$$
