FSF.pdb
     RDKit          3D

 29 30  0  0  1  0  0  0  0  0999 V2000
   22.7277  -19.3364  -15.7885 N   0  0  0  0  0  0  0  0  0  0  0  0
   23.6285  -18.8641  -14.7599 C   0  0  1  0  0  0  0  0  0  0  0  0
   23.2708  -17.4592  -14.3104 C   0  0  0  0  0  0  0  0  0  0  0  0
   23.3815  -16.5847  -15.4979 C   0  0  0  0  0  0  0  0  0  0  0  0
   24.6129  -16.3037  -16.0414 C   0  0  0  0  0  0  0  0  0  0  0  0
   24.7475  -15.4839  -17.1587 C   0  0  0  0  0  0  0  0  0  0  0  0
   23.5915  -14.9406  -17.7307 C   0  0  0  0  0  0  0  0  0  0  0  0
   22.3540  -15.2138  -17.1969 C   0  0  0  0  0  0  0  0  0  0  0  0
   22.2623  -16.0305  -16.0895 C   0  0  0  0  0  0  0  0  0  0  0  0
   23.6845  -19.7328  -13.5903 C   0  0  0  0  0  0  0  0  0  0  0  0
   22.6386  -20.2381  -13.1251 O   0  0  0  0  0  0  0  0  0  0  0  0
   27.0425  -21.7630  -12.8215 O   0  0  0  0  0  0  0  0  0  0  0  0
   25.7792  -22.1693  -12.3902 C   0  0  0  0  0  0  0  0  0  0  0  0
   25.0540  -20.9425  -11.8902 C   0  0  2  0  0  0  0  0  0  0  0  0
   24.9361  -19.9996  -12.9850 N   0  0  0  0  0  0  0  0  0  0  0  0
   25.8049  -20.3665  -10.7483 C   0  0  0  0  0  0  0  0  0  0  0  0
   26.4193  -19.2688  -10.8169 O   0  0  0  0  0  0  0  0  0  0  0  0
   25.8206  -21.1005   -9.5301 N   0  0  0  0  0  0  0  0  0  0  0  0
   26.7384  -20.8051   -8.4538 C   0  0  1  0  0  0  0  0  0  0  0  0
   26.3975  -19.4164   -7.9517 C   0  0  0  0  0  0  0  0  0  0  0  0
   27.2189  -19.0975   -6.7642 C   0  0  0  0  0  0  0  0  0  0  0  0
   28.2585  -18.2014   -6.8782 C   0  0  0  0  0  0  0  0  0  0  0  0
   29.0269  -17.9111   -5.7447 C   0  0  0  0  0  0  0  0  0  0  0  0
   28.7471  -18.5109   -4.5403 C   0  0  0  0  0  0  0  0  0  0  0  0
   27.7040  -19.4083   -4.4311 C   0  0  0  0  0  0  0  0  0  0  0  0
   26.9425  -19.7008   -5.5387 C   0  0  0  0  0  0  0  0  0  0  0  0
   26.5847  -21.8407   -7.4087 C   0  0  0  0  0  0  0  0  0  0  0  0
   27.6246  -22.2857   -6.6051 O   0  0  0  0  0  0  0  0  0  0  0  0
   25.4522  -22.3567   -7.2266 O   0  0  0  0  0  0  0  0  0  0  0  0
  2  1  1  6
  2 10  1  0
  2  3  1  0
  3  4  1  0
  4  9  2  0
  5  6  2  0
  5  4  1  0
  6  7  1  0
  7  8  2  0
  9  8  1  0
 10 11  2  0
 14 13  1  6
 13 12  1  0
 15 14  1  0
 15 10  1  0
 16 18  1  0
 16 14  1  0
 17 16  2  0
 19 18  1  0
 19 20  1  1
 21 20  1  0
 21 22  2  0
 23 22  1  0
 24 23  2  0
 25 26  2  0
 25 24  1  0
 26 21  1  0
 27 19  1  0
 28 27  1  0
 29 27  2  0
M  END
$$$$
