FSF.pdb
     RDKit          3D

 29 30  0  0  1  0  0  0  0  0999 V2000
   19.2472   -9.3735  -18.4023 N   0  0  0  0  0  0  0  0  0  0  0  0
   19.6643   -9.3249  -17.0180 C   0  0  1  0  0  0  0  0  0  0  0  0
   21.1609   -9.5374  -16.8810 C   0  0  0  0  0  0  0  0  0  0  0  0
   21.4558  -10.8859  -17.4119 C   0  0  0  0  0  0  0  0  0  0  0  0
   21.2354  -12.0008  -16.6380 C   0  0  0  0  0  0  0  0  0  0  0  0
   21.5038  -13.2824  -17.1114 C   0  0  0  0  0  0  0  0  0  0  0  0
   22.0098  -13.4220  -18.4087 C   0  0  0  0  0  0  0  0  0  0  0  0
   22.2348  -12.3150  -19.1930 C   0  0  0  0  0  0  0  0  0  0  0  0
   21.9562  -11.0625  -18.6880 C   0  0  0  0  0  0  0  0  0  0  0  0
   19.3010   -8.0847  -16.3429 C   0  0  0  0  0  0  0  0  0  0  0  0
   19.1784   -7.0219  -16.9918 O   0  0  0  0  0  0  0  0  0  0  0  0
   16.4563   -7.7012  -14.5780 O   0  0  0  0  0  0  0  0  0  0  0  0
   17.2489   -6.5632  -14.7318 C   0  0  0  0  0  0  0  0  0  0  0  0
   18.6365   -6.9072  -14.2450 C   0  0  2  0  0  0  0  0  0  0  0  0
   19.0878   -8.0947  -14.9434 N   0  0  0  0  0  0  0  0  0  0  0  0
   18.5982   -7.1153  -12.7771 C   0  0  0  0  0  0  0  0  0  0  0  0
   18.1081   -8.1463  -12.2443 O   0  0  0  0  0  0  0  0  0  0  0  0
   19.1439   -6.0944  -11.9505 N   0  0  0  0  0  0  0  0  0  0  0  0
   19.3048   -6.2501  -10.5230 C   0  0  1  0  0  0  0  0  0  0  0  0
   20.7790   -6.0676  -10.2225 C   0  0  0  0  0  0  0  0  0  0  0  0
   21.5447   -7.2144  -10.7565 C   0  0  0  0  0  0  0  0  0  0  0  0
   22.1021   -7.1328  -12.0132 C   0  0  0  0  0  0  0  0  0  0  0  0
   22.8232   -8.2275  -12.5043 C   0  0  0  0  0  0  0  0  0  0  0  0
   22.9712   -9.3628  -11.7440 C   0  0  0  0  0  0  0  0  0  0  0  0
   22.4107   -9.4396  -10.4849 C   0  0  0  0  0  0  0  0  0  0  0  0
   21.7000   -8.3697   -9.9925 C   0  0  0  0  0  0  0  0  0  0  0  0
   18.4578   -5.2457   -9.8432 C   0  0  0  0  0  0  0  0  0  0  0  0
   17.8074   -4.2123  -10.5022 O   0  0  0  0  0  0  0  0  0  0  0  0
   18.3093   -5.3199   -8.5964 O   0  0  0  0  0  0  0  0  0  0  0  0
  2  1  1  6
  2 10  1  0
  2  3  1  0
  3  4  1  0
  4  9  2  0
  5  6  2  0
  5  4  1  0
  6  7  1  0
  7  8  2  0
  9  8  1  0
 10 11  2  0
 14 13  1  6
 13 12  1  0
 15 14  1  0
 15 10  1  0
 16 18  1  0
 16 14  1  0
 17 16  2  0
 19 18  1  0
 19 20  1  6
 21 20  1  0
 21 22  2  0
 23 22  1  0
 24 23  2  0
 25 26  2  0
 25 24  1  0
 26 21  1  0
 27 19  1  0
 28 27  1  0
 29 27  2  0
M  END
$$$$
