FSF.pdb
     RDKit          3D

 29 30  0  0  1  0  0  0  0  0999 V2000
   14.7294  -12.9718    3.5779 N   0  0  0  0  0  0  0  0  0  0  0  0
   15.4044  -14.2493    3.5079 C   0  0  1  0  0  0  0  0  0  0  0  0
   16.3483  -14.3146    2.3211 C   0  0  0  0  0  0  0  0  0  0  0  0
   16.8834  -15.6924    2.2704 C   0  0  0  0  0  0  0  0  0  0  0  0
   16.0715  -16.7401    1.9047 C   0  0  0  0  0  0  0  0  0  0  0  0
   16.5478  -18.0472    1.8482 C   0  0  0  0  0  0  0  0  0  0  0  0
   17.8880  -18.2836    2.1746 C   0  0  0  0  0  0  0  0  0  0  0  0
   18.7106  -17.2446    2.5420 C   0  0  0  0  0  0  0  0  0  0  0  0
   18.2012  -15.9639    2.5860 C   0  0  0  0  0  0  0  0  0  0  0  0
   16.1454  -14.5842    4.7181 C   0  0  0  0  0  0  0  0  0  0  0  0
   16.9552  -13.7683    5.2119 O   0  0  0  0  0  0  0  0  0  0  0  0
   14.8735  -17.6322    7.1030 O   0  0  0  0  0  0  0  0  0  0  0  0
   15.6464  -16.5812    7.5979 C   0  0  0  0  0  0  0  0  0  0  0  0
   16.6550  -16.2193    6.5337 C   0  0  2  0  0  0  0  0  0  0  0  0
   15.9392  -15.8440    5.3301 N   0  0  0  0  0  0  0  0  0  0  0  0
   17.5514  -17.3776    6.3004 C   0  0  0  0  0  0  0  0  0  0  0  0
   17.3537  -18.2233    5.3878 O   0  0  0  0  0  0  0  0  0  0  0  0
   18.6789  -17.5232    7.1550 N   0  0  0  0  0  0  0  0  0  0  0  0
   19.5778  -18.6517    7.0742 C   0  0  1  0  0  0  0  0  0  0  0  0
   20.8506  -18.1561    6.4177 C   0  0  0  0  0  0  0  0  0  0  0  0
   21.4529  -17.0838    7.2387 C   0  0  0  0  0  0  0  0  0  0  0  0
   22.4130  -17.4022    8.1732 C   0  0  0  0  0  0  0  0  0  0  0  0
   22.9726  -16.3755    8.9429 C   0  0  0  0  0  0  0  0  0  0  0  0
   22.5695  -15.0734    8.7674 C   0  0  0  0  0  0  0  0  0  0  0  0
   21.6068  -14.7595    7.8293 C   0  0  0  0  0  0  0  0  0  0  0  0
   21.0503  -15.7606    7.0675 C   0  0  0  0  0  0  0  0  0  0  0  0
   19.8074  -19.1674    8.4416 C   0  0  0  0  0  0  0  0  0  0  0  0
   20.3952  -20.3943    8.7145 O   0  0  0  0  0  0  0  0  0  0  0  0
   19.4549  -18.4644    9.4232 O   0  0  0  0  0  0  0  0  0  0  0  0
  2  1  1  1
  2 10  1  0
  2  3  1  0
  3  4  1  0
  4  9  2  0
  5  6  2  0
  5  4  1  0
  6  7  1  0
  7  8  2  0
  9  8  1  0
 10 11  2  0
 14 13  1  1
 13 12  1  0
 15 14  1  0
 15 10  1  0
 16 18  1  0
 16 14  1  0
 17 16  2  0
 19 18  1  0
 19 20  1  1
 21 20  1  0
 21 22  2  0
 23 22  1  0
 24 23  2  0
 25 26  2  0
 25 24  1  0
 26 21  1  0
 27 19  1  0
 28 27  1  0
 29 27  2  0
M  END
$$$$
