IWY.pdb
     RDKit          3D

 35 37  0  0  1  0  0  0  0  0999 V2000
   31.2926  -23.8202  -18.1621 C   0  0  0  0  0  0  0  0  0  0  0  0
   30.1197  -22.8281  -18.2459 C   0  0  0  0  0  0  0  0  0  0  0  0
   29.3129  -23.0241  -17.0146 C   0  0  2  0  0  0  0  0  0  0  0  0
   29.0262  -24.4947  -16.8309 C   0  0  0  0  0  0  0  0  0  0  0  0
   28.1110  -22.1484  -16.8576 C   0  0  2  0  0  0  0  0  0  0  0  0
   28.6122  -20.7722  -17.0301 N   0  0  0  0  0  0  0  0  0  0  0  0
   27.4523  -22.2057  -15.5427 C   0  0  0  0  0  0  0  0  0  0  0  0
   26.6070  -23.1235  -15.2561 O   0  0  0  0  0  0  0  0  0  0  0  0
   27.6794  -21.2790  -14.4878 N   0  0  0  0  0  0  0  0  0  0  0  0
   26.9769  -21.2949  -13.2275 C   0  0  1  0  0  0  0  0  0  0  0  0
   27.7626  -20.6524  -12.0985 C   0  0  0  0  0  0  0  0  0  0  0  0
   27.0189  -20.5651  -10.8241 C   0  0  0  0  0  0  0  0  0  0  0  0
   25.6461  -20.4165  -10.6377 C   0  0  0  0  0  0  0  0  0  0  0  0
   25.3560  -20.3569   -9.3252 N   0  0  0  0  0  0  0  0  0  0  0  0
   26.4948  -20.4615   -8.6220 C   0  0  0  0  0  0  0  0  0  0  0  0
   26.7236  -20.4622   -7.2626 C   0  0  0  0  0  0  0  0  0  0  0  0
   27.9894  -20.5924   -6.7603 C   0  0  0  0  0  0  0  0  0  0  0  0
   29.0351  -20.7234   -7.6417 C   0  0  0  0  0  0  0  0  0  0  0  0
   28.7892  -20.7204   -8.9951 C   0  0  0  0  0  0  0  0  0  0  0  0
   27.5324  -20.5914   -9.5450 C   0  0  0  0  0  0  0  0  0  0  0  0
   25.6029  -20.7693  -13.3369 C   0  0  0  0  0  0  0  0  0  0  0  0
   25.3476  -19.5946  -13.7340 O   0  0  0  0  0  0  0  0  0  0  0  0
   24.3808  -24.5512  -18.7571 O   0  0  0  0  0  0  0  0  0  0  0  0
   23.9393  -24.1137  -17.4999 C   0  0  0  0  0  0  0  0  0  0  0  0
   23.1532  -22.9706  -17.4135 C   0  0  0  0  0  0  0  0  0  0  0  0
   22.6955  -22.5010  -16.2045 C   0  0  0  0  0  0  0  0  0  0  0  0
   23.0125  -23.1653  -15.0385 C   0  0  0  0  0  0  0  0  0  0  0  0
   22.5244  -22.6472  -13.7462 C   0  0  0  0  0  0  0  0  0  0  0  0
   23.1353  -21.2873  -13.3856 C   0  0  2  0  0  0  0  0  0  0  0  0
   24.5037  -21.5979  -12.9885 N   0  0  0  0  0  0  0  0  0  0  0  0
   22.4202  -20.7494  -12.2242 C   0  0  0  0  0  0  0  0  0  0  0  0
   21.2455  -20.3403  -12.3313 O   0  0  0  0  0  0  0  0  0  0  0  0
   23.8023  -24.3131  -15.1293 C   0  0  0  0  0  0  0  0  0  0  0  0
   24.2545  -24.7734  -16.3442 C   0  0  0  0  0  0  0  0  0  0  0  0
   23.0387  -20.6892  -10.9959 O   0  0  0  0  0  0  0  0  0  0  0  0
  2  1  1  0
  3  4  1  6
  3  5  1  0
  3  2  1  0
  5  6  1  1
  7  8  2  0
  7  5  1  0
  9  7  1  0
 10 21  1  0
 10  9  1  0
 10 11  1  1
 12 11  1  0
 13 12  2  0
 14 15  1  0
 14 13  1  0
 15 20  2  0
 16 15  1  0
 16 17  2  0
 17 18  1  0
 18 19  2  0
 20 12  1  0
 20 19  1  0
 21 30  1  0
 22 21  2  0
 23 24  1  0
 24 25  2  0
 24 34  1  0
 25 26  1  0
 26 27  2  0
 27 28  1  0
 29 28  1  1
 29 31  1  0
 30 29  1  0
 31 32  2  0
 31 35  1  0
 33 27  1  0
 34 33  2  0
M  END
$$$$
