IWY.pdb
     RDKit          3D

 35 37  0  0  1  0  0  0  0  0999 V2000
   30.0767  -22.6612  -14.7993 C   0  0  0  0  0  0  0  0  0  0  0  0
   29.0528  -21.7007  -14.1699 C   0  0  0  0  0  0  0  0  0  0  0  0
   27.7552  -21.9694  -14.8403 C   0  0  2  0  0  0  0  0  0  0  0  0
   27.9257  -21.8398  -16.3345 C   0  0  0  0  0  0  0  0  0  0  0  0
   26.5630  -21.2450  -14.3016 C   0  0  2  0  0  0  0  0  0  0  0  0
   26.8376  -19.8168  -14.5457 N   0  0  0  0  0  0  0  0  0  0  0  0
   26.3280  -21.3980  -12.8567 C   0  0  0  0  0  0  0  0  0  0  0  0
   25.9353  -22.5087  -12.3555 O   0  0  0  0  0  0  0  0  0  0  0  0
   26.5076  -20.3625  -11.8982 N   0  0  0  0  0  0  0  0  0  0  0  0
   25.8884  -20.3460  -10.5948 C   0  0  1  0  0  0  0  0  0  0  0  0
   26.6300  -19.4792   -9.5932 C   0  0  0  0  0  0  0  0  0  0  0  0
   27.7238  -20.1798   -8.8879 C   0  0  0  0  0  0  0  0  0  0  0  0
   28.6462  -21.0829   -9.4125 C   0  0  0  0  0  0  0  0  0  0  0  0
   29.4742  -21.5201   -8.4464 N   0  0  0  0  0  0  0  0  0  0  0  0
   29.1361  -20.9367   -7.2855 C   0  0  0  0  0  0  0  0  0  0  0  0
   29.6776  -21.0498   -6.0229 C   0  0  0  0  0  0  0  0  0  0  0  0
   29.1670  -20.3409   -4.9701 C   0  0  0  0  0  0  0  0  0  0  0  0
   28.0975  -19.5088   -5.1962 C   0  0  0  0  0  0  0  0  0  0  0  0
   27.5690  -19.4079   -6.4623 C   0  0  0  0  0  0  0  0  0  0  0  0
   28.0501  -20.1026   -7.5507 C   0  0  0  0  0  0  0  0  0  0  0  0
   24.4465  -20.0408  -10.6553 C   0  0  0  0  0  0  0  0  0  0  0  0
   23.9976  -18.8585  -10.7146 O   0  0  0  0  0  0  0  0  0  0  0  0
   17.2482  -19.5213  -15.0512 O   0  0  0  0  0  0  0  0  0  0  0  0
   18.4703  -19.7597  -14.4058 C   0  0  0  0  0  0  0  0  0  0  0  0
   19.4972  -20.3873  -15.1014 C   0  0  0  0  0  0  0  0  0  0  0  0
   20.7139  -20.6433  -14.5133 C   0  0  0  0  0  0  0  0  0  0  0  0
   20.9410  -20.2767  -13.2036 C   0  0  0  0  0  0  0  0  0  0  0  0
   22.2464  -20.5651  -12.5796 C   0  0  0  0  0  0  0  0  0  0  0  0
   22.1251  -20.9237  -11.0933 C   0  0  2  0  0  0  0  0  0  0  0  0
   23.5027  -21.1016  -10.6492 N   0  0  0  0  0  0  0  0  0  0  0  0
   21.4259  -22.2074  -10.9800 C   0  0  0  0  0  0  0  0  0  0  0  0
   20.3431  -22.2922  -10.3642 O   0  0  0  0  0  0  0  0  0  0  0  0
   19.9072  -19.6466  -12.5082 C   0  0  0  0  0  0  0  0  0  0  0  0
   18.6943  -19.3956  -13.1068 C   0  0  0  0  0  0  0  0  0  0  0  0
   21.9577  -23.3397  -11.5544 O   0  0  0  0  0  0  0  0  0  0  0  0
  2  1  1  0
  3  4  1  6
  3  5  1  0
  3  2  1  0
  5  6  1  1
  7  8  2  0
  7  5  1  0
  9  7  1  0
 10 21  1  0
 10  9  1  0
 10 11  1  1
 12 11  1  0
 13 12  2  0
 14 15  1  0
 14 13  1  0
 15 20  2  0
 16 15  1  0
 16 17  2  0
 17 18  1  0
 18 19  2  0
 20 12  1  0
 20 19  1  0
 21 30  1  0
 22 21  2  0
 23 24  1  0
 24 25  2  0
 24 34  1  0
 25 26  1  0
 26 27  2  0
 27 28  1  0
 29 28  1  6
 29 31  1  0
 30 29  1  0
 31 32  2  0
 31 35  1  0
 33 27  1  0
 34 33  2  0
M  END
$$$$
