IWY.pdb
     RDKit          3D

 35 37  0  0  1  0  0  0  0  0999 V2000
   30.6525  -24.0565  -18.5248 C   0  0  0  0  0  0  0  0  0  0  0  0
   29.3363  -23.2809  -18.7068 C   0  0  0  0  0  0  0  0  0  0  0  0
   28.6809  -23.2443  -17.3747 C   0  0  2  0  0  0  0  0  0  0  0  0
   28.5309  -24.6516  -16.8500 C   0  0  0  0  0  0  0  0  0  0  0  0
   27.4373  -22.4212  -17.2650 C   0  0  2  0  0  0  0  0  0  0  0  0
   27.8471  -21.0535  -17.6340 N   0  0  0  0  0  0  0  0  0  0  0  0
   26.8438  -22.3454  -15.9203 C   0  0  0  0  0  0  0  0  0  0  0  0
   26.4231  -23.3913  -15.3136 O   0  0  0  0  0  0  0  0  0  0  0  0
   26.6821  -21.1425  -15.1787 N   0  0  0  0  0  0  0  0  0  0  0  0
   26.0037  -21.0568  -13.9080 C   0  0  1  0  0  0  0  0  0  0  0  0
   26.5581  -19.9669  -13.0082 C   0  0  0  0  0  0  0  0  0  0  0  0
   27.4948  -20.4598  -11.9765 C   0  0  0  0  0  0  0  0  0  0  0  0
   28.7983  -20.9211  -12.1478 C   0  0  0  0  0  0  0  0  0  0  0  0
   29.3187  -21.3022  -10.9671 N   0  0  0  0  0  0  0  0  0  0  0  0
   28.4026  -21.1102  -10.0047 C   0  0  0  0  0  0  0  0  0  0  0  0
   28.4544  -21.3366   -8.6459 C   0  0  0  0  0  0  0  0  0  0  0  0
   27.3842  -21.0536   -7.8422 C   0  0  0  0  0  0  0  0  0  0  0  0
   26.2494  -20.5362   -8.4182 C   0  0  0  0  0  0  0  0  0  0  0  0
   26.2143  -20.3167   -9.7758 C   0  0  0  0  0  0  0  0  0  0  0  0
   27.2669  -20.5871  -10.6228 C   0  0  0  0  0  0  0  0  0  0  0  0
   24.5373  -20.9866  -14.0511 C   0  0  0  0  0  0  0  0  0  0  0  0
   23.9656  -20.2340  -14.8935 O   0  0  0  0  0  0  0  0  0  0  0  0
   16.1427  -23.2398  -11.9959 O   0  0  0  0  0  0  0  0  0  0  0  0
   17.5385  -23.1096  -12.0358 C   0  0  0  0  0  0  0  0  0  0  0  0
   18.2491  -23.7047  -13.0717 C   0  0  0  0  0  0  0  0  0  0  0  0
   19.6183  -23.6059  -13.1555 C   0  0  0  0  0  0  0  0  0  0  0  0
   20.3220  -22.9044  -12.1995 C   0  0  0  0  0  0  0  0  0  0  0  0
   21.7916  -22.8133  -12.2936 C   0  0  0  0  0  0  0  0  0  0  0  0
   22.2550  -21.7467  -13.2937 C   0  0  2  0  0  0  0  0  0  0  0  0
   23.7109  -21.7888  -13.2205 N   0  0  0  0  0  0  0  0  0  0  0  0
   21.7990  -20.4361  -12.8207 C   0  0  0  0  0  0  0  0  0  0  0  0
   22.3927  -19.8510  -11.8911 O   0  0  0  0  0  0  0  0  0  0  0  0
   19.6049  -22.3081  -11.1604 C   0  0  0  0  0  0  0  0  0  0  0  0
   18.2352  -22.4136  -11.0869 C   0  0  0  0  0  0  0  0  0  0  0  0
   20.7058  -19.8320  -13.3992 O   0  0  0  0  0  0  0  0  0  0  0  0
  2  1  1  0
  3  4  1  6
  3  5  1  0
  3  2  1  0
  5  6  1  1
  7  8  2  0
  7  5  1  0
  9  7  1  0
 10 21  1  0
 10  9  1  0
 10 11  1  6
 12 11  1  0
 13 12  2  0
 14 15  1  0
 14 13  1  0
 15 20  2  0
 16 15  1  0
 16 17  2  0
 17 18  1  0
 18 19  2  0
 20 12  1  0
 20 19  1  0
 21 30  1  0
 22 21  2  0
 23 24  1  0
 24 25  2  0
 24 34  1  0
 25 26  1  0
 26 27  2  0
 27 28  1  0
 29 28  1  1
 29 31  1  0
 30 29  1  0
 31 32  2  0
 31 35  1  0
 33 27  1  0
 34 33  2  0
M  END
$$$$
