IWY.pdb
     RDKit          3D

 35 37  0  0  1  0  0  0  0  0999 V2000
   30.2859  -19.4022  -20.4100 C   0  0  0  0  0  0  0  0  0  0  0  0
   29.6432  -18.4727  -19.3660 C   0  0  0  0  0  0  0  0  0  0  0  0
   28.6469  -19.2913  -18.6293 C   0  0  2  0  0  0  0  0  0  0  0  0
   27.8816  -20.1503  -19.6066 C   0  0  0  0  0  0  0  0  0  0  0  0
   27.7787  -18.5657  -17.6517 C   0  0  2  0  0  0  0  0  0  0  0  0
   28.6608  -17.5660  -17.0215 N   0  0  0  0  0  0  0  0  0  0  0  0
   27.2179  -19.3896  -16.5686 C   0  0  0  0  0  0  0  0  0  0  0  0
   26.3161  -20.2699  -16.7944 O   0  0  0  0  0  0  0  0  0  0  0  0
   27.6072  -19.2977  -15.2036 N   0  0  0  0  0  0  0  0  0  0  0  0
   26.9129  -19.9434  -14.1158 C   0  0  1  0  0  0  0  0  0  0  0  0
   27.7383  -20.0212  -12.8440 C   0  0  0  0  0  0  0  0  0  0  0  0
   27.0535  -20.7030  -11.7255 C   0  0  0  0  0  0  0  0  0  0  0  0
   26.5266  -21.9926  -11.6973 C   0  0  0  0  0  0  0  0  0  0  0  0
   25.9631  -22.2416  -10.5012 N   0  0  0  0  0  0  0  0  0  0  0  0
   26.0957  -21.1561   -9.7224 C   0  0  0  0  0  0  0  0  0  0  0  0
   25.6958  -20.9172   -8.4250 C   0  0  0  0  0  0  0  0  0  0  0  0
   25.9496  -19.7177   -7.8181 C   0  0  0  0  0  0  0  0  0  0  0  0
   26.6149  -18.7494   -8.5303 C   0  0  0  0  0  0  0  0  0  0  0  0
   27.0066  -19.0042   -9.8241 C   0  0  0  0  0  0  0  0  0  0  0  0
   26.7721  -20.1959  -10.4748 C   0  0  0  0  0  0  0  0  0  0  0  0
   25.5675  -19.3826  -13.8888 C   0  0  0  0  0  0  0  0  0  0  0  0
   25.3665  -18.1541  -13.6582 O   0  0  0  0  0  0  0  0  0  0  0  0
   17.6806  -16.5541  -14.7122 O   0  0  0  0  0  0  0  0  0  0  0  0
   18.8411  -17.3401  -14.7601 C   0  0  0  0  0  0  0  0  0  0  0  0
   18.7717  -18.6805  -14.3987 C   0  0  0  0  0  0  0  0  0  0  0  0
   19.8812  -19.4928  -14.4289 C   0  0  0  0  0  0  0  0  0  0  0  0
   21.1008  -18.9852  -14.8239 C   0  0  0  0  0  0  0  0  0  0  0  0
   22.2865  -19.8630  -14.8429 C   0  0  0  0  0  0  0  0  0  0  0  0
   23.1015  -19.7842  -13.5460 C   0  0  2  0  0  0  0  0  0  0  0  0
   24.4343  -20.2374  -13.9267 N   0  0  0  0  0  0  0  0  0  0  0  0
   22.5388  -20.7370  -12.5843 C   0  0  0  0  0  0  0  0  0  0  0  0
   21.7129  -20.3642  -11.7252 O   0  0  0  0  0  0  0  0  0  0  0  0
   21.1666  -17.6384  -15.1861 C   0  0  0  0  0  0  0  0  0  0  0  0
   20.0502  -16.8354  -15.1521 C   0  0  0  0  0  0  0  0  0  0  0  0
   22.9159  -22.0604  -12.6175 O   0  0  0  0  0  0  0  0  0  0  0  0
  2  1  1  0
  3  4  1  6
  3  5  1  0
  3  2  1  0
  5  6  1  1
  7  8  2  0
  7  5  1  0
  9  7  1  0
 10 21  1  0
 10  9  1  0
 10 11  1  1
 12 11  1  0
 13 12  2  0
 14 15  1  0
 14 13  1  0
 15 20  2  0
 16 15  1  0
 16 17  2  0
 17 18  1  0
 18 19  2  0
 20 12  1  0
 20 19  1  0
 21 30  1  0
 22 21  2  0
 23 24  1  0
 24 25  2  0
 24 34  1  0
 25 26  1  0
 26 27  2  0
 27 28  1  0
 29 28  1  6
 29 31  1  0
 30 29  1  0
 31 32  2  0
 31 35  1  0
 33 27  1  0
 34 33  2  0
M  END
$$$$
