IWY.pdb
     RDKit          3D

 35 37  0  0  1  0  0  0  0  0999 V2000
   24.7007  -22.5532  -19.0634 C   0  0  0  0  0  0  0  0  0  0  0  0
   25.8002  -23.3588  -18.3499 C   0  0  0  0  0  0  0  0  0  0  0  0
   26.9040  -22.4065  -18.0667 C   0  0  2  0  0  0  0  0  0  0  0  0
   27.9582  -22.5260  -19.1405 C   0  0  0  0  0  0  0  0  0  0  0  0
   27.4527  -22.4153  -16.6757 C   0  0  2  0  0  0  0  0  0  0  0  0
   27.9160  -23.7975  -16.4533 N   0  0  0  0  0  0  0  0  0  0  0  0
   26.4844  -22.1085  -15.6105 C   0  0  0  0  0  0  0  0  0  0  0  0
   25.9936  -23.0272  -14.8660 O   0  0  0  0  0  0  0  0  0  0  0  0
   26.0096  -20.8026  -15.3062 N   0  0  0  0  0  0  0  0  0  0  0  0
   25.0146  -20.5138  -14.3018 C   0  0  1  0  0  0  0  0  0  0  0  0
   25.5196  -19.5854  -13.2118 C   0  0  0  0  0  0  0  0  0  0  0  0
   26.8187  -19.9896  -12.6342 C   0  0  0  0  0  0  0  0  0  0  0  0
   28.0662  -20.0125  -13.2545 C   0  0  0  0  0  0  0  0  0  0  0  0
   29.0046  -20.4619  -12.4015 N   0  0  0  0  0  0  0  0  0  0  0  0
   28.4246  -20.7422  -11.2236 C   0  0  0  0  0  0  0  0  0  0  0  0
   28.9542  -21.2176  -10.0430 C   0  0  0  0  0  0  0  0  0  0  0  0
   28.1619  -21.4244   -8.9471 C   0  0  0  0  0  0  0  0  0  0  0  0
   26.8199  -21.1475   -9.0457 C   0  0  0  0  0  0  0  0  0  0  0  0
   26.3077  -20.6739  -10.2313 C   0  0  0  0  0  0  0  0  0  0  0  0
   27.0672  -20.4515  -11.3592 C   0  0  0  0  0  0  0  0  0  0  0  0
   23.7345  -20.0673  -14.8829 C   0  0  0  0  0  0  0  0  0  0  0  0
   23.6678  -19.3126  -15.8973 O   0  0  0  0  0  0  0  0  0  0  0  0
   18.5382  -24.0708  -10.5387 O   0  0  0  0  0  0  0  0  0  0  0  0
   19.0634  -23.4210  -11.6652 C   0  0  0  0  0  0  0  0  0  0  0  0
   18.1986  -22.7977  -12.5572 C   0  0  0  0  0  0  0  0  0  0  0  0
   18.6642  -22.1474  -13.6762 C   0  0  0  0  0  0  0  0  0  0  0  0
   20.0172  -22.1010  -13.9377 C   0  0  0  0  0  0  0  0  0  0  0  0
   20.5049  -21.4093  -15.1462 C   0  0  0  0  0  0  0  0  0  0  0  0
   21.2133  -20.0872  -14.8256 C   0  0  2  0  0  0  0  0  0  0  0  0
   22.5117  -20.4898  -14.2977 N   0  0  0  0  0  0  0  0  0  0  0  0
   20.4664  -19.4046  -13.7646 C   0  0  0  0  0  0  0  0  0  0  0  0
   20.9421  -19.3003  -12.6149 O   0  0  0  0  0  0  0  0  0  0  0  0
   20.8827  -22.7283  -13.0395 C   0  0  0  0  0  0  0  0  0  0  0  0
   20.4056  -23.3758  -11.9234 C   0  0  0  0  0  0  0  0  0  0  0  0
   19.2259  -18.8678  -14.0250 O   0  0  0  0  0  0  0  0  0  0  0  0
  2  1  1  0
  3  4  1  6
  3  5  1  0
  3  2  1  0
  5  6  1  1
  7  8  2  0
  7  5  1  0
  9  7  1  0
 10 21  1  0
 10  9  1  0
 10 11  1  1
 12 11  1  0
 13 12  2  0
 14 15  1  0
 14 13  1  0
 15 20  2  0
 16 15  1  0
 16 17  2  0
 17 18  1  0
 18 19  2  0
 20 12  1  0
 20 19  1  0
 21 30  1  0
 22 21  2  0
 23 24  1  0
 24 25  2  0
 24 34  1  0
 25 26  1  0
 26 27  2  0
 27 28  1  0
 29 28  1  1
 29 31  1  0
 30 29  1  0
 31 32  2  0
 31 35  1  0
 33 27  1  0
 34 33  2  0
M  END
$$$$
