IWY.pdb
     RDKit          3D

 35 37  0  0  1  0  0  0  0  0999 V2000
   23.3882  -24.5432  -21.9475 C   0  0  0  0  0  0  0  0  0  0  0  0
   22.4108  -23.3952  -21.6410 C   0  0  0  0  0  0  0  0  0  0  0  0
   21.9951  -23.5622  -20.2251 C   0  0  2  0  0  0  0  0  0  0  0  0
   21.5349  -24.9823  -20.0010 C   0  0  0  0  0  0  0  0  0  0  0  0
   21.0627  -22.5297  -19.6769 C   0  0  2  0  0  0  0  0  0  0  0  0
   21.7149  -21.2363  -19.9537 N   0  0  0  0  0  0  0  0  0  0  0  0
   20.8295  -22.5930  -18.2251 C   0  0  0  0  0  0  0  0  0  0  0  0
   20.1949  -23.5678  -17.6902 O   0  0  0  0  0  0  0  0  0  0  0  0
   21.2711  -21.6110  -17.2956 N   0  0  0  0  0  0  0  0  0  0  0  0
   20.9839  -21.6438  -15.8818 C   0  0  1  0  0  0  0  0  0  0  0  0
   21.8865  -20.7333  -15.0687 C   0  0  0  0  0  0  0  0  0  0  0  0
   21.6534  -20.8043  -13.6108 C   0  0  0  0  0  0  0  0  0  0  0  0
   21.9635  -21.8466  -12.7397 C   0  0  0  0  0  0  0  0  0  0  0  0
   21.5757  -21.5414  -11.4881 N   0  0  0  0  0  0  0  0  0  0  0  0
   21.0133  -20.3224  -11.4911 C   0  0  0  0  0  0  0  0  0  0  0  0
   20.4723  -19.5714  -10.4696 C   0  0  0  0  0  0  0  0  0  0  0  0
   19.9533  -18.3280  -10.7065 C   0  0  0  0  0  0  0  0  0  0  0  0
   19.9816  -17.8385  -11.9899 C   0  0  0  0  0  0  0  0  0  0  0  0
   20.5248  -18.6012  -12.9976 C   0  0  0  0  0  0  0  0  0  0  0  0
   21.0576  -19.8572  -12.8053 C   0  0  0  0  0  0  0  0  0  0  0  0
   19.5530  -21.4378  -15.5884 C   0  0  0  0  0  0  0  0  0  0  0  0
   18.8465  -20.5768  -16.1903 O   0  0  0  0  0  0  0  0  0  0  0  0
   18.7789  -24.4058   -8.3895 O   0  0  0  0  0  0  0  0  0  0  0  0
   18.3961  -24.1800   -9.7197 C   0  0  0  0  0  0  0  0  0  0  0  0
   17.1771  -23.5662   -9.9833 C   0  0  0  0  0  0  0  0  0  0  0  0
   16.7567  -23.3228  -11.2700 C   0  0  0  0  0  0  0  0  0  0  0  0
   17.5482  -23.6885  -12.3382 C   0  0  0  0  0  0  0  0  0  0  0  0
   17.0830  -23.4317  -13.7145 C   0  0  0  0  0  0  0  0  0  0  0  0
   17.5150  -22.0562  -14.2378 C   0  0  2  0  0  0  0  0  0  0  0  0
   18.9189  -22.2276  -14.5933 N   0  0  0  0  0  0  0  0  0  0  0  0
   17.4237  -21.0906  -13.1385 C   0  0  0  0  0  0  0  0  0  0  0  0
   18.4433  -20.7457  -12.5057 O   0  0  0  0  0  0  0  0  0  0  0  0
   18.7719  -24.3049  -12.0696 C   0  0  0  0  0  0  0  0  0  0  0  0
   19.1821  -24.5433  -10.7783 C   0  0  0  0  0  0  0  0  0  0  0  0
   16.2069  -20.5499  -12.7896 O   0  0  0  0  0  0  0  0  0  0  0  0
  2  1  1  0
  3  4  1  6
  3  5  1  0
  3  2  1  0
  5  6  1  1
  7  8  2  0
  7  5  1  0
  9  7  1  0
 10 21  1  0
 10  9  1  0
 10 11  1  1
 12 11  1  0
 13 12  2  0
 14 15  1  0
 14 13  1  0
 15 20  2  0
 16 15  1  0
 16 17  2  0
 17 18  1  0
 18 19  2  0
 20 12  1  0
 20 19  1  0
 21 30  1  0
 22 21  2  0
 23 24  1  0
 24 25  2  0
 24 34  1  0
 25 26  1  0
 26 27  2  0
 27 28  1  0
 29 28  1  1
 29 31  1  0
 30 29  1  0
 31 32  2  0
 31 35  1  0
 33 27  1  0
 34 33  2  0
M  END
$$$$
