IWY.pdb
     RDKit          3D

 35 37  0  0  1  0  0  0  0  0999 V2000
   30.5632  -22.3776  -21.4781 C   0  0  0  0  0  0  0  0  0  0  0  0
   30.2895  -23.1437  -20.1723 C   0  0  0  0  0  0  0  0  0  0  0  0
   29.4538  -22.2525  -19.3279 C   0  0  2  0  0  0  0  0  0  0  0  0
   30.0337  -20.8589  -19.3418 C   0  0  0  0  0  0  0  0  0  0  0  0
   29.1146  -22.7538  -17.9606 C   0  0  2  0  0  0  0  0  0  0  0  0
   28.4297  -24.0410  -18.1814 N   0  0  0  0  0  0  0  0  0  0  0  0
   28.1970  -21.9049  -17.1838 C   0  0  0  0  0  0  0  0  0  0  0  0
   28.5075  -20.7067  -16.8567 O   0  0  0  0  0  0  0  0  0  0  0  0
   26.9116  -22.3131  -16.7314 N   0  0  0  0  0  0  0  0  0  0  0  0
   26.0497  -21.5077  -15.9002 C   0  0  1  0  0  0  0  0  0  0  0  0
   24.6245  -21.4305  -16.4177 C   0  0  0  0  0  0  0  0  0  0  0  0
   23.7380  -20.5695  -15.6068 C   0  0  0  0  0  0  0  0  0  0  0  0
   23.7980  -19.1874  -15.4405 C   0  0  0  0  0  0  0  0  0  0  0  0
   22.8263  -18.7740  -14.6068 N   0  0  0  0  0  0  0  0  0  0  0  0
   22.1129  -19.8386  -14.2069 C   0  0  0  0  0  0  0  0  0  0  0  0
   21.0236  -19.9362  -13.3678 C   0  0  0  0  0  0  0  0  0  0  0  0
   20.4420  -21.1462  -13.1047 C   0  0  0  0  0  0  0  0  0  0  0  0
   20.9671  -22.2694  -13.6962 C   0  0  0  0  0  0  0  0  0  0  0  0
   22.0546  -22.1543  -14.5307 C   0  0  0  0  0  0  0  0  0  0  0  0
   22.6721  -20.9578  -14.8234 C   0  0  0  0  0  0  0  0  0  0  0  0
   26.1193  -21.8860  -14.4762 C   0  0  0  0  0  0  0  0  0  0  0  0
   25.9580  -23.0755  -14.0738 O   0  0  0  0  0  0  0  0  0  0  0  0
   27.6959  -20.4070   -5.8188 O   0  0  0  0  0  0  0  0  0  0  0  0
   27.5877  -20.3373   -7.2154 C   0  0  0  0  0  0  0  0  0  0  0  0
   28.5609  -20.9384   -8.0052 C   0  0  0  0  0  0  0  0  0  0  0  0
   28.4998  -20.8979   -9.3786 C   0  0  0  0  0  0  0  0  0  0  0  0
   27.4568  -20.2508  -10.0068 C   0  0  0  0  0  0  0  0  0  0  0  0
   27.4065  -20.2050  -11.4806 C   0  0  0  0  0  0  0  0  0  0  0  0
   26.3829  -21.1846  -12.0682 C   0  0  2  0  0  0  0  0  0  0  0  0
   26.3781  -20.8912  -13.4967 N   0  0  0  0  0  0  0  0  0  0  0  0
   25.0624  -20.8628  -11.5185 C   0  0  0  0  0  0  0  0  0  0  0  0
   24.4110  -19.8893  -11.9509 O   0  0  0  0  0  0  0  0  0  0  0  0
   26.4812  -19.6482   -9.2102 C   0  0  0  0  0  0  0  0  0  0  0  0
   26.5527  -19.6951   -7.8372 C   0  0  0  0  0  0  0  0  0  0  0  0
   24.5224  -21.6344  -10.5146 O   0  0  0  0  0  0  0  0  0  0  0  0
  2  1  1  0
  3  4  1  1
  3  5  1  0
  3  2  1  0
  5  6  1  6
  7  8  2  0
  7  5  1  0
  9  7  1  0
 10 21  1  0
 10  9  1  0
 10 11  1  6
 12 11  1  0
 13 12  2  0
 14 15  1  0
 14 13  1  0
 15 20  2  0
 16 15  1  0
 16 17  2  0
 17 18  1  0
 18 19  2  0
 20 12  1  0
 20 19  1  0
 21 30  1  0
 22 21  2  0
 23 24  1  0
 24 25  2  0
 24 34  1  0
 25 26  1  0
 26 27  2  0
 27 28  1  0
 29 28  1  1
 29 31  1  0
 30 29  1  0
 31 32  2  0
 31 35  1  0
 33 27  1  0
 34 33  2  0
M  END
$$$$
