IWY.pdb
     RDKit          3D

 35 37  0  0  1  0  0  0  0  0999 V2000
   25.4141  -17.4980  -16.0396 C   0  0  0  0  0  0  0  0  0  0  0  0
   25.8650  -18.9034  -15.6053 C   0  0  0  0  0  0  0  0  0  0  0  0
   27.0571  -18.7150  -14.7398 C   0  0  2  0  0  0  0  0  0  0  0  0
   28.1190  -17.9627  -15.5046 C   0  0  0  0  0  0  0  0  0  0  0  0
   27.5665  -19.9295  -14.0317 C   0  0  2  0  0  0  0  0  0  0  0  0
   27.9438  -20.8699  -15.1031 N   0  0  0  0  0  0  0  0  0  0  0  0
   26.5889  -20.6209  -13.1758 C   0  0  0  0  0  0  0  0  0  0  0  0
   25.9414  -21.6447  -13.5900 O   0  0  0  0  0  0  0  0  0  0  0  0
   26.2729  -20.2373  -11.8430 N   0  0  0  0  0  0  0  0  0  0  0  0
   25.2440  -20.8558  -11.0422 C   0  0  1  0  0  0  0  0  0  0  0  0
   25.4845  -20.7149   -9.5499 C   0  0  0  0  0  0  0  0  0  0  0  0
   26.9021  -20.8541   -9.1551 C   0  0  0  0  0  0  0  0  0  0  0  0
   27.9222  -21.5195   -9.8319 C   0  0  0  0  0  0  0  0  0  0  0  0
   29.0731  -21.4386   -9.1397 N   0  0  0  0  0  0  0  0  0  0  0  0
   28.8573  -20.7370   -8.0156 C   0  0  0  0  0  0  0  0  0  0  0  0
   29.7099  -20.3781   -6.9936 C   0  0  0  0  0  0  0  0  0  0  0  0
   29.2658  -19.6401   -5.9308 C   0  0  0  0  0  0  0  0  0  0  0  0
   27.9457  -19.2606   -5.9009 C   0  0  0  0  0  0  0  0  0  0  0  0
   27.1085  -19.6274   -6.9289 C   0  0  0  0  0  0  0  0  0  0  0  0
   27.5117  -20.3699   -8.0173 C   0  0  0  0  0  0  0  0  0  0  0  0
   23.8865  -20.4403  -11.4426 C   0  0  0  0  0  0  0  0  0  0  0  0
   23.5033  -19.2339  -11.4178 O   0  0  0  0  0  0  0  0  0  0  0  0
   23.6038  -18.3185  -17.8330 O   0  0  0  0  0  0  0  0  0  0  0  0
   23.1304  -19.1873  -16.8390 C   0  0  0  0  0  0  0  0  0  0  0  0
   21.9982  -18.8387  -16.1119 C   0  0  0  0  0  0  0  0  0  0  0  0
   21.4947  -19.6562  -15.1271 C   0  0  0  0  0  0  0  0  0  0  0  0
   22.1127  -20.8546  -14.8386 C   0  0  0  0  0  0  0  0  0  0  0  0
   21.5700  -21.7192  -13.7735 C   0  0  0  0  0  0  0  0  0  0  0  0
   21.6332  -21.0624  -12.3890 C   0  0  2  0  0  0  0  0  0  0  0  0
   22.9526  -21.4168  -11.8789 N   0  0  0  0  0  0  0  0  0  0  0  0
   20.6171  -21.6824  -11.5331 C   0  0  0  0  0  0  0  0  0  0  0  0
   20.9150  -22.6220  -10.7668 O   0  0  0  0  0  0  0  0  0  0  0  0
   23.2498  -21.2014  -15.5710 C   0  0  0  0  0  0  0  0  0  0  0  0
   23.7443  -20.3756  -16.5538 C   0  0  0  0  0  0  0  0  0  0  0  0
   19.3163  -21.2332  -11.5641 O   0  0  0  0  0  0  0  0  0  0  0  0
  2  1  1  0
  3  4  1  6
  3  5  1  0
  3  2  1  0
  5  6  1  6
  7  8  2  0
  7  5  1  0
  9  7  1  0
 10 21  1  0
 10  9  1  0
 10 11  1  1
 12 11  1  0
 13 12  2  0
 14 15  1  0
 14 13  1  0
 15 20  2  0
 16 15  1  0
 16 17  2  0
 17 18  1  0
 18 19  2  0
 20 12  1  0
 20 19  1  0
 21 30  1  0
 22 21  2  0
 23 24  1  0
 24 25  2  0
 24 34  1  0
 25 26  1  0
 26 27  2  0
 27 28  1  0
 29 28  1  6
 29 31  1  0
 30 29  1  0
 31 32  2  0
 31 35  1  0
 33 27  1  0
 34 33  2  0
M  END
$$$$
