IWY.pdb
     RDKit          3D

 35 37  0  0  1  0  0  0  0  0999 V2000
   29.3485  -19.4200  -13.7908 C   0  0  0  0  0  0  0  0  0  0  0  0
   27.8121  -19.4977  -13.7687 C   0  0  0  0  0  0  0  0  0  0  0  0
   27.4609  -20.6553  -12.9072 C   0  0  2  0  0  0  0  0  0  0  0  0
   28.2077  -21.8786  -13.3810 C   0  0  0  0  0  0  0  0  0  0  0  0
   26.0040  -20.8904  -12.6665 C   0  0  2  0  0  0  0  0  0  0  0  0
   25.3471  -19.6140  -13.0042 N   0  0  0  0  0  0  0  0  0  0  0  0
   25.6345  -21.2114  -11.2785 C   0  0  0  0  0  0  0  0  0  0  0  0
   25.5730  -22.4211  -10.8640 O   0  0  0  0  0  0  0  0  0  0  0  0
   25.3188  -20.2432  -10.2854 N   0  0  0  0  0  0  0  0  0  0  0  0
   24.8173  -20.5624   -8.9704 C   0  0  1  0  0  0  0  0  0  0  0  0
   25.3670  -19.6535   -7.8857 C   0  0  0  0  0  0  0  0  0  0  0  0
   26.7898  -19.8944   -7.5656 C   0  0  0  0  0  0  0  0  0  0  0  0
   27.8592  -20.0302   -8.4485 C   0  0  0  0  0  0  0  0  0  0  0  0
   28.9985  -20.2611   -7.7711 N   0  0  0  0  0  0  0  0  0  0  0  0
   28.7271  -20.2844   -6.4566 C   0  0  0  0  0  0  0  0  0  0  0  0
   29.5470  -20.4759   -5.3652 C   0  0  0  0  0  0  0  0  0  0  0  0
   29.0453  -20.4497   -4.0927 C   0  0  0  0  0  0  0  0  0  0  0  0
   27.7004  -20.2275   -3.9217 C   0  0  0  0  0  0  0  0  0  0  0  0
   26.8964  -20.0386   -5.0218 C   0  0  0  0  0  0  0  0  0  0  0  0
   27.3577  -20.0572   -6.3200 C   0  0  0  0  0  0  0  0  0  0  0  0
   23.3465  -20.6681   -8.9342 C   0  0  0  0  0  0  0  0  0  0  0  0
   22.5838  -19.8103   -9.4684 O   0  0  0  0  0  0  0  0  0  0  0  0
   15.3316  -23.7697   -9.7782 O   0  0  0  0  0  0  0  0  0  0  0  0
   16.7009  -23.4950   -9.6502 C   0  0  0  0  0  0  0  0  0  0  0  0
   17.5814  -23.9505  -10.6246 C   0  0  0  0  0  0  0  0  0  0  0  0
   18.9327  -23.7070  -10.5447 C   0  0  0  0  0  0  0  0  0  0  0  0
   19.4467  -22.9961   -9.4809 C   0  0  0  0  0  0  0  0  0  0  0  0
   20.8990  -22.7494   -9.4000 C   0  0  0  0  0  0  0  0  0  0  0  0
   21.2896  -21.9139   -8.1744 C   0  0  2  0  0  0  0  0  0  0  0  0
   22.7371  -21.7706   -8.2791 N   0  0  0  0  0  0  0  0  0  0  0  0
   20.9805  -22.6863   -6.9672 C   0  0  0  0  0  0  0  0  0  0  0  0
   21.7343  -23.6065   -6.5879 O   0  0  0  0  0  0  0  0  0  0  0  0
   18.5593  -22.5403   -8.5041 C   0  0  0  0  0  0  0  0  0  0  0  0
   17.2095  -22.7898   -8.5946 C   0  0  0  0  0  0  0  0  0  0  0  0
   19.8502  -22.4043   -6.2340 O   0  0  0  0  0  0  0  0  0  0  0  0
  2  1  1  0
  3  4  1  6
  3  5  1  0
  3  2  1  0
  5  6  1  1
  7  8  2  0
  7  5  1  0
  9  7  1  0
 10 21  1  0
 10  9  1  0
 10 11  1  1
 12 11  1  0
 13 12  2  0
 14 15  1  0
 14 13  1  0
 15 20  2  0
 16 15  1  0
 16 17  2  0
 17 18  1  0
 18 19  2  0
 20 12  1  0
 20 19  1  0
 21 30  1  0
 22 21  2  0
 23 24  1  0
 24 25  2  0
 24 34  1  0
 25 26  1  0
 26 27  2  0
 27 28  1  0
 29 28  1  6
 29 31  1  0
 30 29  1  0
 31 32  2  0
 31 35  1  0
 33 27  1  0
 34 33  2  0
M  END
$$$$
