IYK.pdb
     RDKit          3D

 30 30  0  0  1  0  0  0  0  0999 V2000
    7.4914  -12.2248   18.3332 C   0  0  0  0  0  0  0  0  0  0  0  0
    7.1700  -13.5192   19.0140 C   0  0  0  0  0  0  0  0  0  0  0  0
    7.7769  -13.5848   20.3989 C   0  0  2  0  0  0  0  0  0  0  0  0
    9.2821  -13.4500   20.3526 C   0  0  0  0  0  0  0  0  0  0  0  0
    7.4053  -14.9040   21.0430 C   0  0  2  0  0  0  0  0  0  0  0  0
    6.0001  -15.1519   20.9514 N   0  0  0  0  0  0  0  0  0  0  0  0
    7.8960  -14.8554   22.4393 C   0  0  0  0  0  0  0  0  0  0  0  0
    7.6680  -13.8622   23.1724 O   0  0  0  0  0  0  0  0  0  0  0  0
    6.2192  -11.0055   27.5382 O   0  0  0  0  0  0  0  0  0  0  0  0
    6.5967  -12.2131   26.9557 C   0  0  0  0  0  0  0  0  0  0  0  0
    5.6815  -13.1552   26.5569 C   0  0  0  0  0  0  0  0  0  0  0  0
    6.0700  -14.3442   25.9827 C   0  0  0  0  0  0  0  0  0  0  0  0
    7.4159  -14.6517   25.7769 C   0  0  0  0  0  0  0  0  0  0  0  0
    7.7693  -15.9470   25.2112 C   0  0  0  0  0  0  0  0  0  0  0  0
    9.0170  -15.9370   24.3842 C   0  0  2  0  0  0  0  0  0  0  0  0
    8.6265  -15.9340   22.9521 N   0  0  0  0  0  0  0  0  0  0  0  0
    9.8017  -17.1605   24.5678 C   0  0  0  0  0  0  0  0  0  0  0  0
    9.2898  -18.2633   24.1659 O   0  0  0  0  0  0  0  0  0  0  0  0
    8.3144  -13.6917   26.1845 C   0  0  0  0  0  0  0  0  0  0  0  0
    7.9299  -12.4991   26.7604 C   0  0  0  0  0  0  0  0  0  0  0  0
   11.0932  -17.2564   25.1452 N   0  0  0  0  0  0  0  0  0  0  0  0
   11.7149  -18.5815   25.2005 C   0  0  1  0  0  0  0  0  0  0  0  0
   13.0277  -18.5048   24.3896 C   0  0  0  0  0  0  0  0  0  0  0  0
   13.7161  -19.8185   24.4902 C   0  0  0  0  0  0  0  0  0  0  0  0
   15.0060  -19.9693   23.7668 C   0  0  0  0  0  0  0  0  0  0  0  0
   15.5817  -21.3280   23.8747 C   0  0  0  0  0  0  0  0  0  0  0  0
   16.7305  -21.5138   23.0514 N   0  0  0  0  0  0  0  0  0  0  0  0
   11.9363  -19.0009   26.5811 C   0  0  0  0  0  0  0  0  0  0  0  0
   12.4357  -20.1563   26.8120 O   0  0  0  0  0  0  0  0  0  0  0  0
   11.6597  -18.2565   27.7180 O   0  0  0  0  0  0  0  0  0  0  0  0
  2  3  1  0
  2  1  1  0
  3  4  1  6
  5  3  1  0
  5  6  1  1
  7  5  1  0
  8  7  2  0
  9 10  1  0
 10 20  2  0
 10 11  1  0
 11 12  2  0
 12 13  1  0
 13 14  1  0
 15 14  1  1
 15 16  1  0
 16  7  1  0
 17 15  1  0
 17 18  2  0
 19 13  2  0
 20 19  1  0
 21 17  1  0
 22 21  1  0
 22 28  1  0
 22 23  1  6
 24 23  1  0
 25 24  1  0
 26 25  1  0
 26 27  1  0
 28 29  2  0
 28 30  1  0
M  END
$$$$
