IYK.pdb
     RDKit          3D

 30 30  0  0  1  0  0  0  0  0999 V2000
    7.1872  -16.8868   17.7935 C   0  0  0  0  0  0  0  0  0  0  0  0
    6.9246  -15.5937   18.5016 C   0  0  0  0  0  0  0  0  0  0  0  0
    7.7458  -15.4762   19.7675 C   0  0  2  0  0  0  0  0  0  0  0  0
    7.5146  -16.6512   20.6906 C   0  0  0  0  0  0  0  0  0  0  0  0
    7.3797  -14.1913   20.4804 C   0  0  2  0  0  0  0  0  0  0  0  0
    7.5399  -13.0564   19.6256 N   0  0  0  0  0  0  0  0  0  0  0  0
    8.2165  -14.1216   21.7002 C   0  0  0  0  0  0  0  0  0  0  0  0
    9.4296  -13.8048   21.6369 O   0  0  0  0  0  0  0  0  0  0  0  0
   10.3325  -15.0071   30.2684 O   0  0  0  0  0  0  0  0  0  0  0  0
    9.6562  -14.8024   29.0680 C   0  0  0  0  0  0  0  0  0  0  0  0
    9.0257  -15.8200   28.3963 C   0  0  0  0  0  0  0  0  0  0  0  0
    8.3615  -15.6023   27.2106 C   0  0  0  0  0  0  0  0  0  0  0  0
    8.2958  -14.3341   26.6313 C   0  0  0  0  0  0  0  0  0  0  0  0
    7.6218  -14.1735   25.3497 C   0  0  0  0  0  0  0  0  0  0  0  0
    8.5009  -14.4023   24.1598 C   0  0  2  0  0  0  0  0  0  0  0  0
    7.6473  -14.4135   22.9454 N   0  0  0  0  0  0  0  0  0  0  0  0
    9.1358  -15.7220   24.1976 C   0  0  0  0  0  0  0  0  0  0  0  0
    8.3913  -16.7475   24.0136 O   0  0  0  0  0  0  0  0  0  0  0  0
    8.9350  -13.3302   27.3233 C   0  0  0  0  0  0  0  0  0  0  0  0
    9.6018  -13.5436   28.5114 C   0  0  0  0  0  0  0  0  0  0  0  0
   10.5114  -15.9912   24.4114 N   0  0  0  0  0  0  0  0  0  0  0  0
   10.9503  -17.3862   24.3303 C   0  0  1  0  0  0  0  0  0  0  0  0
   11.8576  -17.5085   23.0857 C   0  0  0  0  0  0  0  0  0  0  0  0
   12.3064  -18.9211   22.9720 C   0  0  0  0  0  0  0  0  0  0  0  0
   13.1955  -19.2641   21.8310 C   0  0  0  0  0  0  0  0  0  0  0  0
   13.5054  -20.7083   21.7447 C   0  0  0  0  0  0  0  0  0  0  0  0
   14.2968  -21.0416   20.6069 N   0  0  0  0  0  0  0  0  0  0  0  0
   11.6282  -17.7961   25.5564 C   0  0  0  0  0  0  0  0  0  0  0  0
   12.2758  -16.9254   26.2348 O   0  0  0  0  0  0  0  0  0  0  0  0
   11.6467  -19.0741   26.0945 O   0  0  0  0  0  0  0  0  0  0  0  0
  2  3  1  0
  2  1  1  0
  3  4  1  1
  5  3  1  0
  5  6  1  6
  7  5  1  0
  8  7  2  0
  9 10  1  0
 10 20  2  0
 10 11  1  0
 11 12  2  0
 12 13  1  0
 13 14  1  0
 15 14  1  1
 15 16  1  0
 16  7  1  0
 17 15  1  0
 17 18  2  0
 19 13  2  0
 20 19  1  0
 21 17  1  0
 22 21  1  0
 22 28  1  0
 22 23  1  6
 24 23  1  0
 25 24  1  0
 26 25  1  0
 26 27  1  0
 28 29  2  0
 28 30  1  0
M  END
$$$$
