IYK.pdb
     RDKit          3D

 30 30  0  0  1  0  0  0  0  0999 V2000
    8.8209  -20.7223   18.4110 C   0  0  0  0  0  0  0  0  0  0  0  0
    8.7162  -19.2493   18.1628 C   0  0  0  0  0  0  0  0  0  0  0  0
    8.9344  -18.4546   19.4322 C   0  0  2  0  0  0  0  0  0  0  0  0
    7.9711  -18.8711   20.5206 C   0  0  0  0  0  0  0  0  0  0  0  0
    8.7557  -16.9808   19.1334 C   0  0  2  0  0  0  0  0  0  0  0  0
    9.6027  -16.5593   18.0614 N   0  0  0  0  0  0  0  0  0  0  0  0
    9.0114  -16.2508   20.3962 C   0  0  0  0  0  0  0  0  0  0  0  0
   10.1732  -16.1444   20.8596 O   0  0  0  0  0  0  0  0  0  0  0  0
    7.1108  -12.0574   27.9793 O   0  0  0  0  0  0  0  0  0  0  0  0
    7.0619  -12.5727   26.6862 C   0  0  0  0  0  0  0  0  0  0  0  0
    6.3798  -13.7235   26.3784 C   0  0  0  0  0  0  0  0  0  0  0  0
    6.3406  -14.2207   25.0955 C   0  0  0  0  0  0  0  0  0  0  0  0
    6.9936  -13.5785   24.0421 C   0  0  0  0  0  0  0  0  0  0  0  0
    6.9593  -14.1786   22.7149 C   0  0  0  0  0  0  0  0  0  0  0  0
    8.1996  -14.9325   22.3488 C   0  0  2  0  0  0  0  0  0  0  0  0
    7.9411  -15.6692   21.0862 N   0  0  0  0  0  0  0  0  0  0  0  0
    8.5221  -15.9637   23.3382 C   0  0  0  0  0  0  0  0  0  0  0  0
    7.7950  -17.0175   23.3600 O   0  0  0  0  0  0  0  0  0  0  0  0
    7.6702  -12.4268   24.3753 C   0  0  0  0  0  0  0  0  0  0  0  0
    7.7123  -11.9251   25.6591 C   0  0  0  0  0  0  0  0  0  0  0  0
    9.5760  -15.9241   24.2859 N   0  0  0  0  0  0  0  0  0  0  0  0
    9.7878  -17.1128   25.1151 C   0  0  1  0  0  0  0  0  0  0  0  0
   10.6771  -18.0826   24.3054 C   0  0  0  0  0  0  0  0  0  0  0  0
   10.9324  -19.2873   25.1380 C   0  0  0  0  0  0  0  0  0  0  0  0
   11.7875  -20.3526   24.5514 C   0  0  0  0  0  0  0  0  0  0  0  0
   11.9708  -21.5153   25.4479 C   0  0  0  0  0  0  0  0  0  0  0  0
   12.8735  -22.4863   24.9241 N   0  0  0  0  0  0  0  0  0  0  0  0
   10.3786  -16.7575   26.4018 C   0  0  0  0  0  0  0  0  0  0  0  0
   10.0048  -17.3799   27.4557 O   0  0  0  0  0  0  0  0  0  0  0  0
   11.3426  -15.7847   26.6202 O   0  0  0  0  0  0  0  0  0  0  0  0
  2  3  1  0
  2  1  1  0
  3  4  1  1
  5  3  1  0
  5  6  1  6
  7  5  1  0
  8  7  2  0
  9 10  1  0
 10 20  2  0
 10 11  1  0
 11 12  2  0
 12 13  1  0
 13 14  1  0
 15 14  1  1
 15 16  1  0
 16  7  1  0
 17 15  1  0
 17 18  2  0
 19 13  2  0
 20 19  1  0
 21 17  1  0
 22 21  1  0
 22 28  1  0
 22 23  1  6
 24 23  1  0
 25 24  1  0
 26 25  1  0
 26 27  1  0
 28 29  2  0
 28 30  1  0
M  END
$$$$
