IYK.pdb
     RDKit          3D

 30 30  0  0  1  0  0  0  0  0999 V2000
    8.8404  -20.7158   19.2442 C   0  0  0  0  0  0  0  0  0  0  0  0
    8.7478  -19.2502   18.9511 C   0  0  0  0  0  0  0  0  0  0  0  0
    8.9253  -18.4203   20.2042 C   0  0  2  0  0  0  0  0  0  0  0  0
    7.8796  -18.7538   21.2441 C   0  0  0  0  0  0  0  0  0  0  0  0
    8.8337  -16.9518   19.8455 C   0  0  2  0  0  0  0  0  0  0  0  0
    9.7528  -16.6106   18.8048 N   0  0  0  0  0  0  0  0  0  0  0  0
    9.0609  -16.1882   21.0938 C   0  0  0  0  0  0  0  0  0  0  0  0
   10.2159  -16.0427   21.5636 O   0  0  0  0  0  0  0  0  0  0  0  0
    7.0489  -11.3653   28.2772 O   0  0  0  0  0  0  0  0  0  0  0  0
    7.0166  -12.0066   27.0412 C   0  0  0  0  0  0  0  0  0  0  0  0
    6.2352  -13.1103   26.8055 C   0  0  0  0  0  0  0  0  0  0  0  0
    6.2140  -13.7336   25.5784 C   0  0  0  0  0  0  0  0  0  0  0  0
    6.9870  -13.2736   24.5111 C   0  0  0  0  0  0  0  0  0  0  0  0
    6.9622  -14.0039   23.2506 C   0  0  0  0  0  0  0  0  0  0  0  0
    8.2077  -14.7845   22.9675 C   0  0  2  0  0  0  0  0  0  0  0  0
    7.9710  -15.6182   21.7623 N   0  0  0  0  0  0  0  0  0  0  0  0
    8.5106  -15.7345   24.0408 C   0  0  0  0  0  0  0  0  0  0  0  0
    7.6493  -16.6492   24.2882 O   0  0  0  0  0  0  0  0  0  0  0  0
    7.7617  -12.1658   24.7716 C   0  0  0  0  0  0  0  0  0  0  0  0
    7.7863  -11.5383   25.9993 C   0  0  0  0  0  0  0  0  0  0  0  0
    9.6787  -15.7564   24.8442 N   0  0  0  0  0  0  0  0  0  0  0  0
    9.7552  -16.7657   25.9029 C   0  0  1  0  0  0  0  0  0  0  0  0
   10.9066  -17.7279   25.5349 C   0  0  0  0  0  0  0  0  0  0  0  0
   10.3227  -18.9216   24.8687 C   0  0  0  0  0  0  0  0  0  0  0  0
   11.2683  -19.9546   24.3699 C   0  0  0  0  0  0  0  0  0  0  0  0
   10.6128  -21.0052   23.5602 C   0  0  0  0  0  0  0  0  0  0  0  0
   11.5326  -21.9587   23.0339 N   0  0  0  0  0  0  0  0  0  0  0  0
    9.9452  -16.1432   27.2095 C   0  0  0  0  0  0  0  0  0  0  0  0
    9.9121  -16.8720   28.2610 O   0  0  0  0  0  0  0  0  0  0  0  0
   10.1716  -14.7964   27.4505 O   0  0  0  0  0  0  0  0  0  0  0  0
  2  3  1  0
  2  1  1  0
  3  4  1  1
  5  3  1  0
  5  6  1  6
  7  5  1  0
  8  7  2  0
  9 10  1  0
 10 20  2  0
 10 11  1  0
 11 12  2  0
 12 13  1  0
 13 14  1  0
 15 14  1  1
 15 16  1  0
 16  7  1  0
 17 15  1  0
 17 18  2  0
 19 13  2  0
 20 19  1  0
 21 17  1  0
 22 21  1  0
 22 28  1  0
 22 23  1  6
 24 23  1  0
 25 24  1  0
 26 25  1  0
 26 27  1  0
 28 29  2  0
 28 30  1  0
M  END
$$$$
