IYK.pdb
     RDKit          3D

 30 30  0  0  1  0  0  0  0  0999 V2000
    6.6871  -17.0630   17.7577 C   0  0  0  0  0  0  0  0  0  0  0  0
    6.7278  -15.7441   18.4655 C   0  0  0  0  0  0  0  0  0  0  0  0
    7.5561  -15.8169   19.7301 C   0  0  2  0  0  0  0  0  0  0  0  0
    7.0669  -16.9107   20.6523 C   0  0  0  0  0  0  0  0  0  0  0  0
    7.4908  -14.4836   20.4451 C   0  0  2  0  0  0  0  0  0  0  0  0
    7.8076  -13.4029   19.5640 N   0  0  0  0  0  0  0  0  0  0  0  0
    8.4050  -14.5721   21.6067 C   0  0  0  0  0  0  0  0  0  0  0  0
    9.6502  -14.5170   21.4574 O   0  0  0  0  0  0  0  0  0  0  0  0
   10.5834  -14.8807   30.2869 O   0  0  0  0  0  0  0  0  0  0  0  0
    9.9689  -14.7229   29.0468 C   0  0  0  0  0  0  0  0  0  0  0  0
    9.9007  -13.5093   28.4089 C   0  0  0  0  0  0  0  0  0  0  0  0
    9.2899  -13.3690   27.1835 C   0  0  0  0  0  0  0  0  0  0  0  0
    8.7086  -14.4553   26.5274 C   0  0  0  0  0  0  0  0  0  0  0  0
    8.0320  -14.2368   25.2558 C   0  0  0  0  0  0  0  0  0  0  0  0
    8.7870  -14.7364   24.0636 C   0  0  2  0  0  0  0  0  0  0  0  0
    7.8737  -14.7197   22.8935 N   0  0  0  0  0  0  0  0  0  0  0  0
    9.1879  -16.1367   24.2206 C   0  0  0  0  0  0  0  0  0  0  0  0
    8.4469  -17.0329   23.6844 O   0  0  0  0  0  0  0  0  0  0  0  0
    8.7900  -15.6612   27.1864 C   0  0  0  0  0  0  0  0  0  0  0  0
    9.4008  -15.8065   28.4142 C   0  0  0  0  0  0  0  0  0  0  0  0
   10.3323  -16.6152   24.9074 N   0  0  0  0  0  0  0  0  0  0  0  0
   10.9064  -17.8879   24.4645 C   0  0  1  0  0  0  0  0  0  0  0  0
   11.2626  -17.7332   22.9691 C   0  0  0  0  0  0  0  0  0  0  0  0
   11.9307  -18.9816   22.5167 C   0  0  0  0  0  0  0  0  0  0  0  0
   12.4293  -19.0191   21.1167 C   0  0  0  0  0  0  0  0  0  0  0  0
   13.0413  -20.3148   20.7483 C   0  0  0  0  0  0  0  0  0  0  0  0
   13.4251  -20.3802   19.3769 N   0  0  0  0  0  0  0  0  0  0  0  0
   12.0620  -18.2544   25.2776 C   0  0  0  0  0  0  0  0  0  0  0  0
   12.7854  -17.3312   25.7897 O   0  0  0  0  0  0  0  0  0  0  0  0
   12.4796  -19.5431   25.5745 O   0  0  0  0  0  0  0  0  0  0  0  0
  2  3  1  0
  2  1  1  0
  3  4  1  1
  5  3  1  0
  5  6  1  6
  7  5  1  0
  8  7  2  0
  9 10  1  0
 10 20  2  0
 10 11  1  0
 11 12  2  0
 12 13  1  0
 13 14  1  0
 15 14  1  1
 15 16  1  0
 16  7  1  0
 17 15  1  0
 17 18  2  0
 19 13  2  0
 20 19  1  0
 21 17  1  0
 22 21  1  0
 22 28  1  0
 22 23  1  6
 24 23  1  0
 25 24  1  0
 26 25  1  0
 26 27  1  0
 28 29  2  0
 28 30  1  0
M  END
$$$$
