IYK.pdb
     RDKit          3D

 30 30  0  0  1  0  0  0  0  0999 V2000
    6.7762  -16.5170   17.9191 C   0  0  0  0  0  0  0  0  0  0  0  0
    6.8849  -15.2304   18.6776 C   0  0  0  0  0  0  0  0  0  0  0  0
    7.6532  -15.4095   19.9691 C   0  0  2  0  0  0  0  0  0  0  0  0
    7.0321  -16.4771   20.8413 C   0  0  0  0  0  0  0  0  0  0  0  0
    7.6796  -14.0940   20.7188 C   0  0  2  0  0  0  0  0  0  0  0  0
    8.0862  -13.0177   19.8698 N   0  0  0  0  0  0  0  0  0  0  0  0
    8.5716  -14.2809   21.8861 C   0  0  0  0  0  0  0  0  0  0  0  0
    9.8181  -14.3340   21.7475 O   0  0  0  0  0  0  0  0  0  0  0  0
   10.7381  -15.2798   30.5086 O   0  0  0  0  0  0  0  0  0  0  0  0
   10.1196  -15.0099   29.2901 C   0  0  0  0  0  0  0  0  0  0  0  0
   10.2045  -13.7844   28.6776 C   0  0  0  0  0  0  0  0  0  0  0  0
    9.5874  -13.5326   27.4733 C   0  0  0  0  0  0  0  0  0  0  0  0
    8.8435  -14.5124   26.8138 C   0  0  0  0  0  0  0  0  0  0  0  0
    8.1710  -14.1731   25.5668 C   0  0  0  0  0  0  0  0  0  0  0  0
    8.9123  -14.5903   24.3350 C   0  0  2  0  0  0  0  0  0  0  0  0
    8.0173  -14.4004   23.1661 N   0  0  0  0  0  0  0  0  0  0  0  0
    9.2307  -16.0202   24.3492 C   0  0  0  0  0  0  0  0  0  0  0  0
    8.4320  -16.8152   23.7411 O   0  0  0  0  0  0  0  0  0  0  0  0
    8.7732  -15.7328   27.4472 C   0  0  0  0  0  0  0  0  0  0  0  0
    9.3896  -15.9895   28.6537 C   0  0  0  0  0  0  0  0  0  0  0  0
   10.3520  -16.6293   24.9675 N   0  0  0  0  0  0  0  0  0  0  0  0
   10.6680  -18.0091   24.5909 C   0  0  1  0  0  0  0  0  0  0  0  0
   11.0046  -18.0058   23.0830 C   0  0  0  0  0  0  0  0  0  0  0  0
   11.4309  -19.3764   22.6967 C   0  0  0  0  0  0  0  0  0  0  0  0
   11.9017  -19.5759   21.3008 C   0  0  0  0  0  0  0  0  0  0  0  0
   12.2557  -20.9803   20.9980 C   0  0  0  0  0  0  0  0  0  0  0  0
   12.7362  -21.1598   19.6680 N   0  0  0  0  0  0  0  0  0  0  0  0
   11.7583  -18.5391   25.4040 C   0  0  0  0  0  0  0  0  0  0  0  0
   12.5674  -17.7269   25.9727 O   0  0  0  0  0  0  0  0  0  0  0  0
   12.0251  -19.8787   25.6441 O   0  0  0  0  0  0  0  0  0  0  0  0
  2  3  1  0
  2  1  1  0
  3  4  1  1
  5  3  1  0
  5  6  1  6
  7  5  1  0
  8  7  2  0
  9 10  1  0
 10 20  2  0
 10 11  1  0
 11 12  2  0
 12 13  1  0
 13 14  1  0
 15 14  1  1
 15 16  1  0
 16  7  1  0
 17 15  1  0
 17 18  2  0
 19 13  2  0
 20 19  1  0
 21 17  1  0
 22 21  1  0
 22 28  1  0
 22 23  1  6
 24 23  1  0
 25 24  1  0
 26 25  1  0
 26 27  1  0
 28 29  2  0
 28 30  1  0
M  END
$$$$
