IYK.pdb
     RDKit          3D

 30 30  0  0  1  0  0  0  0  0999 V2000
    7.3366  -11.7584   20.0909 C   0  0  0  0  0  0  0  0  0  0  0  0
    7.3853  -13.1108   20.7320 C   0  0  0  0  0  0  0  0  0  0  0  0
    8.0930  -14.1182   19.8519 C   0  0  2  0  0  0  0  0  0  0  0  0
    7.3944  -14.2806   18.5208 C   0  0  0  0  0  0  0  0  0  0  0  0
    8.1429  -15.4534   20.5648 C   0  0  2  0  0  0  0  0  0  0  0  0
    6.8297  -15.9443   20.8456 N   0  0  0  0  0  0  0  0  0  0  0  0
    8.9632  -15.2614   21.7826 C   0  0  0  0  0  0  0  0  0  0  0  0
   10.1485  -14.8546   21.7084 O   0  0  0  0  0  0  0  0  0  0  0  0
   10.8545  -15.1199   30.5164 O   0  0  0  0  0  0  0  0  0  0  0  0
   10.2438  -15.1573   29.2650 C   0  0  0  0  0  0  0  0  0  0  0  0
    9.9976  -14.0229   28.5325 C   0  0  0  0  0  0  0  0  0  0  0  0
    9.3930  -14.0759   27.2972 C   0  0  0  0  0  0  0  0  0  0  0  0
    8.9995  -15.2876   26.7269 C   0  0  0  0  0  0  0  0  0  0  0  0
    8.3184  -15.2776   25.4390 C   0  0  0  0  0  0  0  0  0  0  0  0
    9.2352  -15.3515   24.2579 C   0  0  2  0  0  0  0  0  0  0  0  0
    8.4095  -15.5375   23.0384 N   0  0  0  0  0  0  0  0  0  0  0  0
   10.1062  -16.5279   24.3175 C   0  0  0  0  0  0  0  0  0  0  0  0
    9.5627  -17.6798   24.1854 O   0  0  0  0  0  0  0  0  0  0  0  0
    9.2571  -16.4109   27.4799 C   0  0  0  0  0  0  0  0  0  0  0  0
    9.8625  -16.3626   28.7180 C   0  0  0  0  0  0  0  0  0  0  0  0
   11.5123  -16.5288   24.5009 N   0  0  0  0  0  0  0  0  0  0  0  0
   12.1955  -17.8244   24.5014 C   0  0  1  0  0  0  0  0  0  0  0  0
   13.1894  -17.8177   23.3185 C   0  0  0  0  0  0  0  0  0  0  0  0
   12.7470  -18.8370   22.3312 C   0  0  0  0  0  0  0  0  0  0  0  0
   13.5742  -19.0047   21.1073 C   0  0  0  0  0  0  0  0  0  0  0  0
   12.9819  -19.9387   20.1245 C   0  0  0  0  0  0  0  0  0  0  0  0
   13.7077  -19.9924   18.8988 N   0  0  0  0  0  0  0  0  0  0  0  0
   12.8536  -18.0710   25.7808 C   0  0  0  0  0  0  0  0  0  0  0  0
   13.3811  -17.0911   26.4127 O   0  0  0  0  0  0  0  0  0  0  0  0
   12.9728  -19.2969   26.4181 O   0  0  0  0  0  0  0  0  0  0  0  0
  2  3  1  0
  2  1  1  0
  3  4  1  6
  5  3  1  0
  5  6  1  1
  7  5  1  0
  8  7  2  0
  9 10  1  0
 10 20  2  0
 10 11  1  0
 11 12  2  0
 12 13  1  0
 13 14  1  0
 15 14  1  1
 15 16  1  0
 16  7  1  0
 17 15  1  0
 17 18  2  0
 19 13  2  0
 20 19  1  0
 21 17  1  0
 22 21  1  0
 22 28  1  0
 22 23  1  6
 24 23  1  0
 25 24  1  0
 26 25  1  0
 26 27  1  0
 28 29  2  0
 28 30  1  0
M  END
$$$$
