GPL.pdb
     RDKit          3D

 20 20  0  0  1  0  0  0  0  0999 V2000
    6.7957  -18.5875   19.6804 N   0  0  0  0  0  0  0  0  0  0  0  0
    6.4818  -17.3626   20.3438 C   0  0  0  0  0  0  0  0  0  0  0  0
    7.6197  -16.5062   20.6930 C   0  0  0  0  0  0  0  0  0  0  0  0
    8.5980  -17.0500   21.2962 O   0  0  0  0  0  0  0  0  0  0  0  0
    7.7322  -15.1163   20.4195 N   0  0  0  0  0  0  0  0  0  0  0  0
    6.7746  -14.4004   19.6569 C   0  0  0  0  0  0  0  0  0  0  0  0
    7.4724  -13.1108   19.2878 C   0  0  0  0  0  0  0  0  0  0  0  0
    8.4842  -12.8970   20.3822 C   0  0  0  0  0  0  0  0  0  0  0  0
    8.7719  -14.2832   20.8678 C   0  0  1  0  0  0  0  0  0  0  0  0
    8.9824  -14.3109   22.3407 C   0  0  0  0  0  0  0  0  0  0  0  0
   10.0957  -13.9215   22.7484 O   0  0  0  0  0  0  0  0  0  0  0  0
    7.5859  -11.9049   26.7155 C   0  0  0  0  0  0  0  0  0  0  0  0
    6.6202  -13.1124   26.4183 C   0  0  1  0  0  0  0  0  0  0  0  0
    5.2722  -12.5927   26.7520 C   0  0  0  0  0  0  0  0  0  0  0  0
    6.9069  -13.5825   25.0649 C   0  0  0  0  0  0  0  0  0  0  0  0
    8.1524  -14.2688   24.6957 C   0  0  2  0  0  0  0  0  0  0  0  0
    8.0259  -14.7382   23.2689 N   0  0  0  0  0  0  0  0  0  0  0  0
    8.4109  -15.4886   25.4720 C   0  0  0  0  0  0  0  0  0  0  0  0
    8.9950  -15.5129   26.5805 O   0  0  0  0  0  0  0  0  0  0  0  0
    7.9968  -16.7617   24.9918 O   0  0  0  0  0  0  0  0  0  0  0  0
  2  1  1  0
  3  2  1  0
  4  3  2  0
  5  6  1  0
  5  3  1  0
  7  6  1  0
  8  9  1  0
  8  7  1  0
  9 10  1  1
  9  5  1  0
 10 17  1  0
 11 10  2  0
 13 12  1  6
 13 14  1  0
 15 13  1  0
 16 15  1  1
 17 16  1  0
 18 20  1  0
 18 16  1  0
 19 18  2  0
M  END
$$$$
