GPL.pdb
     RDKit          3D

 20 20  0  0  1  0  0  0  0  0999 V2000
    6.0396  -18.0979   18.8776 N   0  0  0  0  0  0  0  0  0  0  0  0
    6.1448  -16.8285   19.5230 C   0  0  0  0  0  0  0  0  0  0  0  0
    7.4937  -16.2616   19.6189 C   0  0  0  0  0  0  0  0  0  0  0  0
    8.4697  -17.0758   19.6520 O   0  0  0  0  0  0  0  0  0  0  0  0
    7.8147  -14.8786   19.6796 N   0  0  0  0  0  0  0  0  0  0  0  0
    6.8445  -13.8546   19.5338 C   0  0  0  0  0  0  0  0  0  0  0  0
    7.6514  -12.6044   19.2658 C   0  0  0  0  0  0  0  0  0  0  0  0
    8.9830  -12.8613   19.9200 C   0  0  0  0  0  0  0  0  0  0  0  0
    9.0997  -14.3533   19.9006 C   0  0  1  0  0  0  0  0  0  0  0  0
    9.7626  -14.8632   21.1316 C   0  0  0  0  0  0  0  0  0  0  0  0
    9.0357  -14.9967   22.1371 O   0  0  0  0  0  0  0  0  0  0  0  0
   10.5138  -17.3103   25.1973 C   0  0  0  0  0  0  0  0  0  0  0  0
   11.3723  -17.8158   23.9782 C   0  0  1  0  0  0  0  0  0  0  0  0
   11.1320  -19.2786   23.9438 C   0  0  0  0  0  0  0  0  0  0  0  0
   11.0244  -16.9915   22.8229 C   0  0  0  0  0  0  0  0  0  0  0  0
   11.6505  -15.6929   22.5400 C   0  0  2  0  0  0  0  0  0  0  0  0
   11.1201  -15.1922   21.2209 N   0  0  0  0  0  0  0  0  0  0  0  0
   13.1064  -15.7626   22.3585 C   0  0  0  0  0  0  0  0  0  0  0  0
   13.6724  -16.1214   21.2994 O   0  0  0  0  0  0  0  0  0  0  0  0
   13.9919  -15.4132   23.4151 O   0  0  0  0  0  0  0  0  0  0  0  0
  2  1  1  0
  3  2  1  0
  4  3  2  0
  5  6  1  0
  5  3  1  0
  7  6  1  0
  8  9  1  0
  8  7  1  0
  9 10  1  1
  9  5  1  0
 10 17  1  0
 11 10  2  0
 13 12  1  1
 13 14  1  0
 15 13  1  0
 16 15  1  6
 17 16  1  0
 18 20  1  0
 18 16  1  0
 19 18  2  0
M  END
$$$$
