GPL.pdb
     RDKit          3D

 20 20  0  0  1  0  0  0  0  0999 V2000
   12.1400  -17.5365   19.9837 N   0  0  0  0  0  0  0  0  0  0  0  0
   10.8140  -17.7884   20.4497 C   0  0  0  0  0  0  0  0  0  0  0  0
   10.0694  -16.6250   20.9417 C   0  0  0  0  0  0  0  0  0  0  0  0
   10.7104  -15.7671   21.6271 O   0  0  0  0  0  0  0  0  0  0  0  0
    8.6895  -16.3650   20.7239 N   0  0  0  0  0  0  0  0  0  0  0  0
    7.8733  -17.1762   19.8950 C   0  0  0  0  0  0  0  0  0  0  0  0
    6.6438  -16.3353   19.6355 C   0  0  0  0  0  0  0  0  0  0  0  0
    6.5466  -15.4220   20.8287 C   0  0  0  0  0  0  0  0  0  0  0  0
    7.9636  -15.3061   21.2963 C   0  0  1  0  0  0  0  0  0  0  0  0
    8.0432  -15.2457   22.7811 C   0  0  0  0  0  0  0  0  0  0  0  0
    8.6357  -16.1894   23.3427 O   0  0  0  0  0  0  0  0  0  0  0  0
    8.2062  -12.3995   27.6927 C   0  0  0  0  0  0  0  0  0  0  0  0
    6.8495  -12.9164   27.0837 C   0  0  1  0  0  0  0  0  0  0  0  0
    5.8374  -11.9501   27.5742 C   0  0  0  0  0  0  0  0  0  0  0  0
    7.0516  -13.0961   25.6479 C   0  0  0  0  0  0  0  0  0  0  0  0
    7.6310  -14.3116   25.0602 C   0  0  2  0  0  0  0  0  0  0  0  0
    7.5043  -14.2160   23.5612 N   0  0  0  0  0  0  0  0  0  0  0  0
    6.9174  -15.5438   25.4207 C   0  0  0  0  0  0  0  0  0  0  0  0
    7.2704  -16.3260   26.3341 O   0  0  0  0  0  0  0  0  0  0  0  0
    5.7391  -15.9353   24.7271 O   0  0  0  0  0  0  0  0  0  0  0  0
  2  1  1  0
  3  2  1  0
  4  3  2  0
  5  6  1  0
  5  3  1  0
  7  6  1  0
  8  9  1  0
  8  7  1  0
  9 10  1  1
  9  5  1  0
 10 17  1  0
 11 10  2  0
 13 12  1  1
 13 14  1  0
 15 13  1  0
 16 15  1  1
 17 16  1  0
 18 20  1  0
 18 16  1  0
 19 18  2  0
M  END
$$$$
