GPL.pdb
     RDKit          3D

 20 20  0  0  1  0  0  0  0  0999 V2000
   11.5375  -16.9359   19.3836 N   0  0  0  0  0  0  0  0  0  0  0  0
   10.2358  -16.9672   19.9698 C   0  0  0  0  0  0  0  0  0  0  0  0
   10.0736  -16.2263   21.2247 C   0  0  0  0  0  0  0  0  0  0  0  0
   11.1258  -15.9585   21.8863 O   0  0  0  0  0  0  0  0  0  0  0  0
    8.8428  -15.7773   21.7750 N   0  0  0  0  0  0  0  0  0  0  0  0
    7.6017  -15.9154   21.1031 C   0  0  0  0  0  0  0  0  0  0  0  0
    6.6691  -14.9764   21.8343 C   0  0  0  0  0  0  0  0  0  0  0  0
    7.2347  -14.8835   23.2266 C   0  0  0  0  0  0  0  0  0  0  0  0
    8.6916  -15.1654   23.0315 C   0  0  1  0  0  0  0  0  0  0  0  0
    9.2496  -15.9534   24.1638 C   0  0  0  0  0  0  0  0  0  0  0  0
    9.5183  -17.1488   23.9271 O   0  0  0  0  0  0  0  0  0  0  0  0
   10.9510  -13.9320   29.4144 C   0  0  0  0  0  0  0  0  0  0  0  0
   10.0406  -14.4822   28.2537 C   0  0  1  0  0  0  0  0  0  0  0  0
    9.4130  -13.2695   27.6756 C   0  0  0  0  0  0  0  0  0  0  0  0
   10.8696  -15.3454   27.4155 C   0  0  0  0  0  0  0  0  0  0  0  0
   10.3198  -16.2537   26.4001 C   0  0  2  0  0  0  0  0  0  0  0  0
    9.4833  -15.4410   25.4452 N   0  0  0  0  0  0  0  0  0  0  0  0
    9.4000  -17.2628   26.9415 C   0  0  0  0  0  0  0  0  0  0  0  0
    9.7397  -18.1902   27.7131 O   0  0  0  0  0  0  0  0  0  0  0  0
    8.0174  -17.2446   26.6087 O   0  0  0  0  0  0  0  0  0  0  0  0
  2  1  1  0
  3  2  1  0
  4  3  2  0
  5  6  1  0
  5  3  1  0
  7  6  1  0
  8  9  1  0
  8  7  1  0
  9 10  1  1
  9  5  1  0
 10 17  1  0
 11 10  2  0
 13 12  1  1
 13 14  1  0
 15 13  1  0
 16 15  1  1
 17 16  1  0
 18 20  1  0
 18 16  1  0
 19 18  2  0
M  END
$$$$
