GPL.pdb
     RDKit          3D

 20 20  0  0  1  0  0  0  0  0999 V2000
   11.4209  -17.6366   19.1645 N   0  0  0  0  0  0  0  0  0  0  0  0
   10.0587  -17.3032   19.4336 C   0  0  0  0  0  0  0  0  0  0  0  0
    9.8326  -16.0682   20.1911 C   0  0  0  0  0  0  0  0  0  0  0  0
   10.6315  -15.8133   21.1468 O   0  0  0  0  0  0  0  0  0  0  0  0
    8.7972  -15.1238   19.9563 N   0  0  0  0  0  0  0  0  0  0  0  0
    7.9359  -15.1872   18.8316 C   0  0  0  0  0  0  0  0  0  0  0  0
    7.2920  -13.8205   18.7705 C   0  0  0  0  0  0  0  0  0  0  0  0
    7.3159  -13.3230   20.1914 C   0  0  0  0  0  0  0  0  0  0  0  0
    8.4861  -14.0371   20.7921 C   0  0  1  0  0  0  0  0  0  0  0  0
    8.2256  -14.4129   22.2082 C   0  0  0  0  0  0  0  0  0  0  0  0
    8.3389  -15.6234   22.4897 O   0  0  0  0  0  0  0  0  0  0  0  0
    8.3709  -12.5145   27.6682 C   0  0  0  0  0  0  0  0  0  0  0  0
    7.0990  -13.0690   26.9242 C   0  0  1  0  0  0  0  0  0  0  0  0
    5.9633  -12.3683   27.5706 C   0  0  0  0  0  0  0  0  0  0  0  0
    7.3280  -12.9186   25.4890 C   0  0  0  0  0  0  0  0  0  0  0  0
    7.8871  -13.9832   24.6449 C   0  0  2  0  0  0  0  0  0  0  0  0
    7.8699  -13.5075   23.2146 N   0  0  0  0  0  0  0  0  0  0  0  0
    7.0912  -15.2176   24.6409 C   0  0  0  0  0  0  0  0  0  0  0  0
    7.2877  -16.1902   25.4065 O   0  0  0  0  0  0  0  0  0  0  0  0
    6.0096  -15.3866   23.7330 O   0  0  0  0  0  0  0  0  0  0  0  0
  2  1  1  0
  3  2  1  0
  4  3  2  0
  5  6  1  0
  5  3  1  0
  7  6  1  0
  8  9  1  0
  8  7  1  0
  9 10  1  1
  9  5  1  0
 10 17  1  0
 11 10  2  0
 13 12  1  1
 13 14  1  0
 15 13  1  0
 16 15  1  1
 17 16  1  0
 18 20  1  0
 18 16  1  0
 19 18  2  0
M  END
$$$$
