GPL.pdb
     RDKit          3D

 20 20  0  0  1  0  0  0  0  0999 V2000
    6.7999  -19.0359   20.6108 N   0  0  0  0  0  0  0  0  0  0  0  0
    6.4783  -17.7387   21.1137 C   0  0  0  0  0  0  0  0  0  0  0  0
    7.6148  -16.8739   21.4464 C   0  0  0  0  0  0  0  0  0  0  0  0
    8.6134  -17.4143   22.0184 O   0  0  0  0  0  0  0  0  0  0  0  0
    7.7051  -15.4794   21.1887 N   0  0  0  0  0  0  0  0  0  0  0  0
    6.7111  -14.7607   20.4770 C   0  0  0  0  0  0  0  0  0  0  0  0
    7.3830  -13.4603   20.0980 C   0  0  0  0  0  0  0  0  0  0  0  0
    8.4378  -13.2536   21.1525 C   0  0  0  0  0  0  0  0  0  0  0  0
    8.7561  -14.6441   21.6056 C   0  0  1  0  0  0  0  0  0  0  0  0
    9.0278  -14.6910   23.0679 C   0  0  0  0  0  0  0  0  0  0  0  0
   10.1710  -14.3457   23.4300 O   0  0  0  0  0  0  0  0  0  0  0  0
    5.3841  -12.7256   26.5337 C   0  0  0  0  0  0  0  0  0  0  0  0
    6.8375  -12.8764   25.9473 C   0  0  1  0  0  0  0  0  0  0  0  0
    7.6069  -11.7858   26.5933 C   0  0  0  0  0  0  0  0  0  0  0  0
    7.2453  -14.2670   26.1336 C   0  0  0  0  0  0  0  0  0  0  0  0
    8.4251  -14.8559   25.4858 C   0  0  2  0  0  0  0  0  0  0  0  0
    8.0965  -15.0904   24.0335 N   0  0  0  0  0  0  0  0  0  0  0  0
    8.7905  -16.1794   26.0076 C   0  0  0  0  0  0  0  0  0  0  0  0
    8.4906  -17.2654   25.4587 O   0  0  0  0  0  0  0  0  0  0  0  0
    9.5349  -16.3095   27.2125 O   0  0  0  0  0  0  0  0  0  0  0  0
  2  1  1  0
  3  2  1  0
  4  3  2  0
  5  6  1  0
  5  3  1  0
  7  6  1  0
  8  9  1  0
  8  7  1  0
  9 10  1  1
  9  5  1  0
 10 17  1  0
 11 10  2  0
 13 12  1  1
 13 14  1  0
 15 13  1  0
 16 15  1  1
 17 16  1  0
 18 20  1  0
 18 16  1  0
 19 18  2  0
M  END
$$$$
