WMK.pdb
     RDKit          3D

 32 33  0  0  1  0  0  0  0  0999 V2000
   28.5963  -20.9357  -15.5550 N   0  0  0  0  0  0  0  0  0  0  0  0
   27.6088  -20.1488  -14.8166 C   0  0  1  0  0  0  0  0  0  0  0  0
   26.6799  -19.5451  -15.8664 C   0  0  0  0  0  0  0  0  0  0  0  0
   27.3729  -18.4127  -16.5173 C   0  0  0  0  0  0  0  0  0  0  0  0
   28.0494  -18.3607  -17.7239 C   0  0  0  0  0  0  0  0  0  0  0  0
   28.5232  -17.1144  -17.9103 N   0  0  0  0  0  0  0  0  0  0  0  0
   28.1859  -16.3318  -16.8691 C   0  0  0  0  0  0  0  0  0  0  0  0
   28.4438  -15.0044  -16.6181 C   0  0  0  0  0  0  0  0  0  0  0  0
   27.9590  -14.4511  -15.4333 C   0  0  0  0  0  0  0  0  0  0  0  0
   27.2453  -15.2352  -14.5576 C   0  0  0  0  0  0  0  0  0  0  0  0
   27.0060  -16.5492  -14.8350 C   0  0  0  0  0  0  0  0  0  0  0  0
   27.4695  -17.1372  -15.9998 C   0  0  0  0  0  0  0  0  0  0  0  0
   26.8694  -21.0534  -13.9065 C   0  0  0  0  0  0  0  0  0  0  0  0
   26.6458  -22.2482  -14.2518 O   0  0  0  0  0  0  0  0  0  0  0  0
   26.9359  -18.6807   -7.3277 C   0  0  0  0  0  0  0  0  0  0  0  0
   26.7350  -20.3289   -8.0640 S   0  0  0  0  0  0  0  0  0  0  0  0
   26.1344  -20.1623   -9.8019 C   0  0  0  0  0  0  0  0  0  0  0  0
   25.9969  -21.5305  -10.4100 C   0  0  0  0  0  0  0  0  0  0  0  0
   25.5213  -21.4964  -11.8269 C   0  0  2  0  0  0  0  0  0  0  0  0
   26.3883  -20.6345  -12.6359 N   0  0  0  0  0  0  0  0  0  0  0  0
   24.1172  -20.9982  -11.9403 C   0  0  0  0  0  0  0  0  0  0  0  0
   23.8963  -19.7486  -11.9502 O   0  0  0  0  0  0  0  0  0  0  0  0
   23.0359  -21.9119  -12.0364 N   0  0  0  0  0  0  0  0  0  0  0  0
   21.7502  -21.4524  -12.4714 C   0  0  1  0  0  0  0  0  0  0  0  0
   21.0978  -22.3834  -13.4445 C   0  0  0  0  0  0  0  0  0  0  0  0
   21.8713  -22.8201  -14.6090 C   0  0  0  0  0  0  0  0  0  0  0  0
   21.2888  -23.7504  -15.5898 C   0  0  0  0  0  0  0  0  0  0  0  0
   22.1244  -24.1182  -16.7670 C   0  0  0  0  0  0  0  0  0  0  0  0
   21.4390  -25.0805  -17.6407 N   0  0  0  0  0  0  0  0  0  0  0  0
   20.9377  -21.0936  -11.3039 C   0  0  0  0  0  0  0  0  0  0  0  0
   19.8686  -20.4571  -11.4661 O   0  0  0  0  0  0  0  0  0  0  0  0
   21.3067  -21.4364  -10.0286 O   0  0  0  0  0  0  0  0  0  0  0  0
  2  1  1  6
  2 13  1  0
  2  3  1  0
  4  3  1  0
  4  5  2  0
  6  5  1  0
  7 12  2  0
  7  6  1  0
  8  7  1  0
  9 10  1  0
  9  8  2  0
 10 11  2  0
 11 12  1  0
 12  4  1  0
 13 14  2  0
 16 15  1  0
 17 16  1  0
 18 17  1  0
 19 18  1  1
 20 19  1  0
 20 13  1  0
 21 19  1  0
 22 21  2  0
 23 21  1  0
 24 23  1  0
 24 25  1  1
 25 26  1  0
 26 27  1  0
 27 28  1  0
 28 29  1  0
 30 24  1  0
 31 30  2  0
 32 30  1  0
M  END
$$$$
