WMK.pdb
     RDKit          3D

 32 33  0  0  1  0  0  0  0  0999 V2000
   27.5258  -22.2328  -16.8419 N   0  0  0  0  0  0  0  0  0  0  0  0
   26.1885  -22.7657  -17.1014 C   0  0  1  0  0  0  0  0  0  0  0  0
   26.3824  -24.2371  -17.4575 C   0  0  0  0  0  0  0  0  0  0  0  0
   25.0684  -24.8168  -17.8091 C   0  0  0  0  0  0  0  0  0  0  0  0
   24.2078  -24.5018  -18.8467 C   0  0  0  0  0  0  0  0  0  0  0  0
   23.1209  -25.2928  -18.7734 N   0  0  0  0  0  0  0  0  0  0  0  0
   23.2262  -26.1257  -17.7220 C   0  0  0  0  0  0  0  0  0  0  0  0
   22.3745  -27.0989  -17.2538 C   0  0  0  0  0  0  0  0  0  0  0  0
   22.7545  -27.8183  -16.1211 C   0  0  0  0  0  0  0  0  0  0  0  0
   23.9541  -27.5408  -15.5089 C   0  0  0  0  0  0  0  0  0  0  0  0
   24.7774  -26.5690  -15.9974 C   0  0  0  0  0  0  0  0  0  0  0  0
   24.4378  -25.8319  -17.1194 C   0  0  0  0  0  0  0  0  0  0  0  0
   25.3746  -22.6166  -15.8731 C   0  0  0  0  0  0  0  0  0  0  0  0
   25.9097  -22.7795  -14.7400 O   0  0  0  0  0  0  0  0  0  0  0  0
   20.3033  -18.2740  -11.9961 C   0  0  0  0  0  0  0  0  0  0  0  0
   21.1158  -18.7139  -13.5599 S   0  0  0  0  0  0  0  0  0  0  0  0
   21.8353  -20.4092  -13.4291 C   0  0  0  0  0  0  0  0  0  0  0  0
   22.6837  -20.6803  -14.6405 C   0  0  0  0  0  0  0  0  0  0  0  0
   23.2290  -22.0718  -14.6739 C   0  0  2  0  0  0  0  0  0  0  0  0
   23.9908  -22.2922  -15.9069 N   0  0  0  0  0  0  0  0  0  0  0  0
   22.1515  -23.1037  -14.5906 C   0  0  0  0  0  0  0  0  0  0  0  0
   21.3246  -23.2223  -15.5459 O   0  0  0  0  0  0  0  0  0  0  0  0
   22.0500  -23.9466  -13.4537 N   0  0  0  0  0  0  0  0  0  0  0  0
   21.0262  -24.9476  -13.3971 C   0  0  1  0  0  0  0  0  0  0  0  0
   21.3111  -26.0154  -12.3881 C   0  0  0  0  0  0  0  0  0  0  0  0
   20.3495  -27.1114  -12.2506 C   0  0  0  0  0  0  0  0  0  0  0  0
   20.6304  -28.2476  -11.3579 C   0  0  0  0  0  0  0  0  0  0  0  0
   19.5900  -29.3083  -11.2490 C   0  0  0  0  0  0  0  0  0  0  0  0
   20.0042  -30.3844  -10.3381 N   0  0  0  0  0  0  0  0  0  0  0  0
   19.7153  -24.3008  -13.2740 C   0  0  0  0  0  0  0  0  0  0  0  0
   19.6129  -23.2272  -12.6325 O   0  0  0  0  0  0  0  0  0  0  0  0
   18.5868  -24.8310  -13.8444 O   0  0  0  0  0  0  0  0  0  0  0  0
  2  1  1  1
  2 13  1  0
  2  3  1  0
  4  3  1  0
  4  5  2  0
  6  5  1  0
  7 12  2  0
  7  6  1  0
  8  7  1  0
  9 10  1  0
  9  8  2  0
 10 11  2  0
 11 12  1  0
 12  4  1  0
 13 14  2  0
 16 15  1  0
 17 16  1  0
 18 17  1  0
 19 18  1  6
 20 19  1  0
 20 13  1  0
 21 19  1  0
 22 21  2  0
 23 21  1  0
 24 23  1  0
 24 25  1  1
 25 26  1  0
 26 27  1  0
 27 28  1  0
 28 29  1  0
 30 24  1  0
 31 30  2  0
 32 30  1  0
M  END
$$$$
