WMK.pdb
     RDKit          3D

 32 33  0  0  1  0  0  0  0  0999 V2000
   20.0665  -13.4412  -18.1691 N   0  0  0  0  0  0  0  0  0  0  0  0
   20.5594  -12.2357  -18.8351 C   0  0  1  0  0  0  0  0  0  0  0  0
   19.3382  -11.5739  -19.4678 C   0  0  0  0  0  0  0  0  0  0  0  0
   18.9915  -12.3043  -20.7058 C   0  0  0  0  0  0  0  0  0  0  0  0
   18.4951  -13.5859  -20.8714 C   0  0  0  0  0  0  0  0  0  0  0  0
   18.3309  -13.8286  -22.1854 N   0  0  0  0  0  0  0  0  0  0  0  0
   18.7007  -12.7524  -22.9034 C   0  0  0  0  0  0  0  0  0  0  0  0
   18.7091  -12.5339  -24.2612 C   0  0  0  0  0  0  0  0  0  0  0  0
   19.1535  -11.2968  -24.7272 C   0  0  0  0  0  0  0  0  0  0  0  0
   19.5664  -10.3396  -23.8303 C   0  0  0  0  0  0  0  0  0  0  0  0
   19.5464  -10.5868  -22.4889 C   0  0  0  0  0  0  0  0  0  0  0  0
   19.1126  -11.8014  -21.9850 C   0  0  0  0  0  0  0  0  0  0  0  0
   21.1775  -11.3540  -17.8183 C   0  0  0  0  0  0  0  0  0  0  0  0
   20.6567  -11.2547  -16.6713 O   0  0  0  0  0  0  0  0  0  0  0  0
   26.7496  -11.2060  -15.4221 C   0  0  0  0  0  0  0  0  0  0  0  0
   25.7379   -9.8774  -14.7076 S   0  0  0  0  0  0  0  0  0  0  0  0
   25.0340   -8.8380  -16.0615 C   0  0  0  0  0  0  0  0  0  0  0  0
   24.4018   -9.7317  -17.0922 C   0  0  0  0  0  0  0  0  0  0  0  0
   22.9077   -9.6853  -17.0700 C   0  0  2  0  0  0  0  0  0  0  0  0
   22.3536  -10.5975  -18.0749 N   0  0  0  0  0  0  0  0  0  0  0  0
   22.3806   -8.3121  -17.3332 C   0  0  0  0  0  0  0  0  0  0  0  0
   22.4749   -7.8192  -18.4987 O   0  0  0  0  0  0  0  0  0  0  0  0
   21.7784   -7.5614  -16.2905 N   0  0  0  0  0  0  0  0  0  0  0  0
   21.1805   -6.2916  -16.5794 C   0  0  1  0  0  0  0  0  0  0  0  0
   19.7807   -6.1762  -16.0629 C   0  0  0  0  0  0  0  0  0  0  0  0
   19.1021   -4.8842  -16.1865 C   0  0  0  0  0  0  0  0  0  0  0  0
   17.7022   -4.7288  -15.7589 C   0  0  0  0  0  0  0  0  0  0  0  0
   17.0684   -3.3951  -15.9566 C   0  0  0  0  0  0  0  0  0  0  0  0
   15.6610   -3.3943  -15.5342 N   0  0  0  0  0  0  0  0  0  0  0  0
   22.0915   -5.2170  -16.1705 C   0  0  0  0  0  0  0  0  0  0  0  0
   22.9685   -5.4462  -15.3029 O   0  0  0  0  0  0  0  0  0  0  0  0
   22.0207   -3.9591  -16.7113 O   0  0  0  0  0  0  0  0  0  0  0  0
  2  1  1  1
  2 13  1  0
  2  3  1  0
  4  3  1  0
  4  5  2  0
  6  5  1  0
  7 12  2  0
  7  6  1  0
  8  7  1  0
  9 10  1  0
  9  8  2  0
 10 11  2  0
 11 12  1  0
 12  4  1  0
 13 14  2  0
 16 15  1  0
 17 16  1  0
 18 17  1  0
 19 18  1  6
 20 19  1  0
 20 13  1  0
 21 19  1  0
 22 21  2  0
 23 21  1  0
 24 23  1  0
 24 25  1  1
 25 26  1  0
 26 27  1  0
 27 28  1  0
 28 29  1  0
 30 24  1  0
 31 30  2  0
 32 30  1  0
M  END
$$$$
