WMK.pdb
     RDKit          3D

 32 33  0  0  1  0  0  0  0  0999 V2000
   28.6872  -20.8597  -15.6613 N   0  0  0  0  0  0  0  0  0  0  0  0
   27.6509  -19.9955  -15.0964 C   0  0  1  0  0  0  0  0  0  0  0  0
   26.8637  -19.4489  -16.2842 C   0  0  0  0  0  0  0  0  0  0  0  0
   27.5793  -18.2743  -16.8268 C   0  0  0  0  0  0  0  0  0  0  0  0
   28.2294  -18.1119  -18.0382 C   0  0  0  0  0  0  0  0  0  0  0  0
   28.7403  -16.8680  -18.1011 N   0  0  0  0  0  0  0  0  0  0  0  0
   28.4535  -16.1936  -16.9727 C   0  0  0  0  0  0  0  0  0  0  0  0
   28.7615  -14.9101  -16.5864 C   0  0  0  0  0  0  0  0  0  0  0  0
   28.3229  -14.4746  -15.3362 C   0  0  0  0  0  0  0  0  0  0  0  0
   27.6035  -15.3270  -14.5320 C   0  0  0  0  0  0  0  0  0  0  0  0
   27.3139  -16.5949  -14.9436 C   0  0  0  0  0  0  0  0  0  0  0  0
   27.7305  -17.0664  -16.1771 C   0  0  0  0  0  0  0  0  0  0  0  0
   26.7863  -20.8110  -14.2128 C   0  0  0  0  0  0  0  0  0  0  0  0
   26.5859  -22.0299  -14.4792 O   0  0  0  0  0  0  0  0  0  0  0  0
   25.4648  -20.6286   -7.6352 C   0  0  0  0  0  0  0  0  0  0  0  0
   27.0787  -20.6155   -8.4686 S   0  0  0  0  0  0  0  0  0  0  0  0
   26.8845  -21.2122  -10.2049 C   0  0  0  0  0  0  0  0  0  0  0  0
   25.5617  -20.7422  -10.7435 C   0  0  0  0  0  0  0  0  0  0  0  0
   25.3436  -21.1211  -12.1731 C   0  0  2  0  0  0  0  0  0  0  0  0
   26.1571  -20.2783  -13.0545 N   0  0  0  0  0  0  0  0  0  0  0  0
   23.9118  -20.9911  -12.5804 C   0  0  0  0  0  0  0  0  0  0  0  0
   23.4225  -19.8382  -12.7849 O   0  0  0  0  0  0  0  0  0  0  0  0
   23.1020  -22.1454  -12.7387 N   0  0  0  0  0  0  0  0  0  0  0  0
   21.7099  -22.0032  -13.0474 C   0  0  1  0  0  0  0  0  0  0  0  0
   21.0261  -23.3154  -13.2709 C   0  0  0  0  0  0  0  0  0  0  0  0
   19.5939  -23.3058  -13.5767 C   0  0  0  0  0  0  0  0  0  0  0  0
   18.8945  -24.5518  -13.9304 C   0  0  0  0  0  0  0  0  0  0  0  0
   17.4325  -24.4644  -14.2030 C   0  0  0  0  0  0  0  0  0  0  0  0
   16.8634  -25.7761  -14.5419 N   0  0  0  0  0  0  0  0  0  0  0  0
   21.0761  -21.1251  -12.0579 C   0  0  0  0  0  0  0  0  0  0  0  0
   20.3293  -20.1941  -12.4452 O   0  0  0  0  0  0  0  0  0  0  0  0
   21.2696  -21.2897  -10.7105 O   0  0  0  0  0  0  0  0  0  0  0  0
  2  1  1  6
  2 13  1  0
  2  3  1  0
  4  3  1  0
  4  5  2  0
  6  5  1  0
  7 12  2  0
  7  6  1  0
  8  7  1  0
  9 10  1  0
  9  8  2  0
 10 11  2  0
 11 12  1  0
 12  4  1  0
 13 14  2  0
 16 15  1  0
 17 16  1  0
 18 17  1  0
 19 18  1  1
 20 19  1  0
 20 13  1  0
 21 19  1  0
 22 21  2  0
 23 21  1  0
 24 23  1  0
 24 25  1  1
 25 26  1  0
 26 27  1  0
 27 28  1  0
 28 29  1  0
 30 24  1  0
 31 30  2  0
 32 30  1  0
M  END
$$$$
