WMK.pdb
     RDKit          3D

 32 33  0  0  1  0  0  0  0  0999 V2000
   27.9690  -21.6546  -15.1761 N   0  0  0  0  0  0  0  0  0  0  0  0
   27.4345  -20.5284  -14.4108 C   0  0  1  0  0  0  0  0  0  0  0  0
   26.3629  -19.8908  -15.2909 C   0  0  0  0  0  0  0  0  0  0  0  0
   27.0142  -18.9394  -16.2165 C   0  0  0  0  0  0  0  0  0  0  0  0
   27.5522  -19.1511  -17.4743 C   0  0  0  0  0  0  0  0  0  0  0  0
   28.0416  -17.9890  -17.9459 N   0  0  0  0  0  0  0  0  0  0  0  0
   27.8486  -17.0078  -17.0457 C   0  0  0  0  0  0  0  0  0  0  0  0
   28.1754  -15.6724  -17.0836 C   0  0  0  0  0  0  0  0  0  0  0  0
   27.8448  -14.8812  -15.9837 C   0  0  0  0  0  0  0  0  0  0  0  0
   27.2094  -15.4477  -14.9037 C   0  0  0  0  0  0  0  0  0  0  0  0
   26.8986  -16.7759  -14.8961 C   0  0  0  0  0  0  0  0  0  0  0  0
   27.2091  -17.5962  -15.9676 C   0  0  0  0  0  0  0  0  0  0  0  0
   26.8521  -21.0473  -13.1519 C   0  0  0  0  0  0  0  0  0  0  0  0
   26.2609  -22.1640  -13.1455 O   0  0  0  0  0  0  0  0  0  0  0  0
   26.1900  -20.7486   -5.2647 C   0  0  0  0  0  0  0  0  0  0  0  0
   26.9902  -20.1215   -6.7699 S   0  0  0  0  0  0  0  0  0  0  0  0
   26.0730  -20.7219   -8.2555 C   0  0  0  0  0  0  0  0  0  0  0  0
   26.8122  -20.3014   -9.4954 C   0  0  0  0  0  0  0  0  0  0  0  0
   26.1415  -20.7449  -10.7557 C   0  0  2  0  0  0  0  0  0  0  0  0
   26.9272  -20.3353  -11.9236 N   0  0  0  0  0  0  0  0  0  0  0  0
   24.7631  -20.1841  -10.8903 C   0  0  0  0  0  0  0  0  0  0  0  0
   24.6124  -18.9715  -11.2327 O   0  0  0  0  0  0  0  0  0  0  0  0
   23.6284  -20.9978  -10.6381 N   0  0  0  0  0  0  0  0  0  0  0  0
   22.3988  -20.7406  -11.3276 C   0  0  1  0  0  0  0  0  0  0  0  0
   22.4219  -21.2021  -12.7510 C   0  0  0  0  0  0  0  0  0  0  0  0
   21.7660  -22.4701  -13.0778 C   0  0  0  0  0  0  0  0  0  0  0  0
   22.4720  -23.5004  -13.8569 C   0  0  0  0  0  0  0  0  0  0  0  0
   21.7548  -24.7815  -14.1092 C   0  0  0  0  0  0  0  0  0  0  0  0
   22.5820  -25.7263  -14.8722 N   0  0  0  0  0  0  0  0  0  0  0  0
   21.2747  -21.2351  -10.5252 C   0  0  0  0  0  0  0  0  0  0  0  0
   21.5013  -21.9276   -9.5036 O   0  0  0  0  0  0  0  0  0  0  0  0
   19.9718  -20.9613  -10.8529 O   0  0  0  0  0  0  0  0  0  0  0  0
  2  1  1  6
  2 13  1  0
  2  3  1  0
  4  3  1  0
  4  5  2  0
  6  5  1  0
  7 12  2  0
  7  6  1  0
  8  7  1  0
  9 10  1  0
  9  8  2  0
 10 11  2  0
 11 12  1  0
 12  4  1  0
 13 14  2  0
 16 15  1  0
 17 16  1  0
 18 17  1  0
 19 18  1  1
 20 19  1  0
 20 13  1  0
 21 19  1  0
 22 21  2  0
 23 21  1  0
 24 23  1  0
 24 25  1  6
 25 26  1  0
 26 27  1  0
 27 28  1  0
 28 29  1  0
 30 24  1  0
 31 30  2  0
 32 30  1  0
M  END
$$$$
