WMK.pdb
     RDKit          3D

 32 33  0  0  1  0  0  0  0  0999 V2000
   28.2440  -20.7547  -14.9588 N   0  0  0  0  0  0  0  0  0  0  0  0
   27.3132  -19.8781  -14.2483 C   0  0  1  0  0  0  0  0  0  0  0  0
   26.4978  -19.1672  -15.3249 C   0  0  0  0  0  0  0  0  0  0  0  0
   27.3087  -18.0635  -15.8821 C   0  0  0  0  0  0  0  0  0  0  0  0
   27.5525  -16.7979  -15.3770 C   0  0  0  0  0  0  0  0  0  0  0  0
   28.3513  -16.1292  -16.2298 N   0  0  0  0  0  0  0  0  0  0  0  0
   28.6496  -16.9053  -17.2876 C   0  0  0  0  0  0  0  0  0  0  0  0
   29.4217  -16.6575  -18.3985 C   0  0  0  0  0  0  0  0  0  0  0  0
   29.5540  -17.6699  -19.3486 C   0  0  0  0  0  0  0  0  0  0  0  0
   28.9184  -18.8737  -19.1541 C   0  0  0  0  0  0  0  0  0  0  0  0
   28.1591  -19.0889  -18.0414 C   0  0  0  0  0  0  0  0  0  0  0  0
   28.0020  -18.1105  -17.0743 C   0  0  0  0  0  0  0  0  0  0  0  0
   26.4455  -20.7118  -13.3849 C   0  0  0  0  0  0  0  0  0  0  0  0
   26.1225  -21.8761  -13.7545 O   0  0  0  0  0  0  0  0  0  0  0  0
   26.4939  -19.0969   -7.3719 C   0  0  0  0  0  0  0  0  0  0  0  0
   26.6004  -20.9072   -7.4753 S   0  0  0  0  0  0  0  0  0  0  0  0
   26.4539  -21.4370   -9.2378 C   0  0  0  0  0  0  0  0  0  0  0  0
   25.2601  -20.7651   -9.8577 C   0  0  0  0  0  0  0  0  0  0  0  0
   25.0839  -21.1018  -11.3035 C   0  0  2  0  0  0  0  0  0  0  0  0
   25.9473  -20.2565  -12.1335 N   0  0  0  0  0  0  0  0  0  0  0  0
   23.6709  -20.9271  -11.7568 C   0  0  0  0  0  0  0  0  0  0  0  0
   23.2416  -19.7647  -12.0306 O   0  0  0  0  0  0  0  0  0  0  0  0
   22.8120  -22.0496  -11.8813 N   0  0  0  0  0  0  0  0  0  0  0  0
   21.4654  -21.8704  -12.3373 C   0  0  1  0  0  0  0  0  0  0  0  0
   20.8219  -23.1502  -12.7700 C   0  0  0  0  0  0  0  0  0  0  0  0
   19.4259  -23.1082  -13.2107 C   0  0  0  0  0  0  0  0  0  0  0  0
   18.7002  -24.3505  -13.5219 C   0  0  0  0  0  0  0  0  0  0  0  0
   17.3173  -24.2209  -14.0603 C   0  0  0  0  0  0  0  0  0  0  0  0
   16.7438  -25.5289  -14.4059 N   0  0  0  0  0  0  0  0  0  0  0  0
   20.7127  -21.0922  -11.3473 C   0  0  0  0  0  0  0  0  0  0  0  0
   19.8293  -20.2892  -11.7334 O   0  0  0  0  0  0  0  0  0  0  0  0
   20.9400  -21.2155  -10.0008 O   0  0  0  0  0  0  0  0  0  0  0  0
  2  1  1  6
  2 13  1  0
  2  3  1  0
  4  3  1  0
  4  5  2  0
  6  5  1  0
  7 12  2  0
  7  6  1  0
  8  7  1  0
  9 10  1  0
  9  8  2  0
 10 11  2  0
 11 12  1  0
 12  4  1  0
 13 14  2  0
 16 15  1  0
 17 16  1  0
 18 17  1  0
 19 18  1  1
 20 19  1  0
 20 13  1  0
 21 19  1  0
 22 21  2  0
 23 21  1  0
 24 23  1  0
 24 25  1  1
 25 26  1  0
 26 27  1  0
 27 28  1  0
 28 29  1  0
 30 24  1  0
 31 30  2  0
 32 30  1  0
M  END
$$$$
