WMK.pdb
     RDKit          3D

 32 33  0  0  1  0  0  0  0  0999 V2000
   26.0639  -22.6185  -10.9075 N   0  0  0  0  0  0  0  0  0  0  0  0
   25.4286  -21.4886  -10.2295 C   0  0  1  0  0  0  0  0  0  0  0  0
   26.3367  -20.2861  -10.4723 C   0  0  0  0  0  0  0  0  0  0  0  0
   27.5891  -20.4765   -9.7096 C   0  0  0  0  0  0  0  0  0  0  0  0
   28.7726  -21.0891  -10.0842 C   0  0  0  0  0  0  0  0  0  0  0  0
   29.6441  -21.0279   -9.0599 N   0  0  0  0  0  0  0  0  0  0  0  0
   29.0829  -20.3949   -8.0135 C   0  0  0  0  0  0  0  0  0  0  0  0
   29.5808  -20.0987   -6.7662 C   0  0  0  0  0  0  0  0  0  0  0  0
   28.7546  -19.4205   -5.8704 C   0  0  0  0  0  0  0  0  0  0  0  0
   27.4806  -19.0697   -6.2509 C   0  0  0  0  0  0  0  0  0  0  0  0
   27.0154  -19.3780   -7.4957 C   0  0  0  0  0  0  0  0  0  0  0  0
   27.8032  -20.0502   -8.4148 C   0  0  0  0  0  0  0  0  0  0  0  0
   24.0891  -21.2744  -10.8236 C   0  0  0  0  0  0  0  0  0  0  0  0
   23.9058  -21.4867  -12.0557 O   0  0  0  0  0  0  0  0  0  0  0  0
   18.2798  -23.2630   -7.7170 C   0  0  0  0  0  0  0  0  0  0  0  0
   20.0088  -23.1191   -7.1792 S   0  0  0  0  0  0  0  0  0  0  0  0
   21.0925  -22.8340   -8.6466 C   0  0  0  0  0  0  0  0  0  0  0  0
   20.7832  -21.4850   -9.2341 C   0  0  0  0  0  0  0  0  0  0  0  0
   21.6022  -21.1721  -10.4451 C   0  0  2  0  0  0  0  0  0  0  0  0
   22.9749  -20.8321  -10.0591 N   0  0  0  0  0  0  0  0  0  0  0  0
   21.0352  -20.0363  -11.2332 C   0  0  0  0  0  0  0  0  0  0  0  0
   21.6424  -18.9221  -11.2490 O   0  0  0  0  0  0  0  0  0  0  0  0
   19.8272  -20.1979  -11.9598 N   0  0  0  0  0  0  0  0  0  0  0  0
   19.7410  -19.7332  -13.3126 C   0  0  1  0  0  0  0  0  0  0  0  0
   20.8217  -20.2856  -14.1880 C   0  0  0  0  0  0  0  0  0  0  0  0
   21.9268  -19.4012  -14.5642 C   0  0  0  0  0  0  0  0  0  0  0  0
   22.9938  -19.8746  -15.4609 C   0  0  0  0  0  0  0  0  0  0  0  0
   24.0669  -18.9062  -15.8217 C   0  0  0  0  0  0  0  0  0  0  0  0
   25.1119  -19.5338  -16.6422 N   0  0  0  0  0  0  0  0  0  0  0  0
   18.3732  -19.9212  -13.8086 C   0  0  0  0  0  0  0  0  0  0  0  0
   17.9686  -19.2392  -14.7810 O   0  0  0  0  0  0  0  0  0  0  0  0
   17.5136  -20.8280  -13.2440 O   0  0  0  0  0  0  0  0  0  0  0  0
  2  1  1  6
  2 13  1  0
  2  3  1  0
  4  3  1  0
  4  5  2  0
  6  5  1  0
  7 12  2  0
  7  6  1  0
  8  7  1  0
  9 10  1  0
  9  8  2  0
 10 11  2  0
 11 12  1  0
 12  4  1  0
 13 14  2  0
 16 15  1  0
 17 16  1  0
 18 17  1  0
 19 18  1  1
 20 19  1  0
 20 13  1  0
 21 19  1  0
 22 21  2  0
 23 21  1  0
 24 23  1  0
 24 25  1  6
 25 26  1  0
 26 27  1  0
 27 28  1  0
 28 29  1  0
 30 24  1  0
 31 30  2  0
 32 30  1  0
M  END
$$$$
