WMK.pdb
     RDKit          3D

 32 33  0  0  1  0  0  0  0  0999 V2000
   28.3161  -20.1754  -15.3874 N   0  0  0  0  0  0  0  0  0  0  0  0
   27.2487  -19.4717  -14.6765 C   0  0  1  0  0  0  0  0  0  0  0  0
   26.2852  -18.9722  -15.7496 C   0  0  0  0  0  0  0  0  0  0  0  0
   26.9565  -17.9130  -16.5332 C   0  0  0  0  0  0  0  0  0  0  0  0
   27.3997  -17.9243  -17.8446 C   0  0  0  0  0  0  0  0  0  0  0  0
   27.9541  -16.7319  -18.1329 N   0  0  0  0  0  0  0  0  0  0  0  0
   27.8961  -15.9241  -17.0584 C   0  0  0  0  0  0  0  0  0  0  0  0
   28.3287  -14.6310  -16.8781 C   0  0  0  0  0  0  0  0  0  0  0  0
   28.1300  -14.0370  -15.6320 C   0  0  0  0  0  0  0  0  0  0  0  0
   27.5153  -14.7486  -14.6286 C   0  0  0  0  0  0  0  0  0  0  0  0
   27.0974  -16.0301  -14.8385 C   0  0  0  0  0  0  0  0  0  0  0  0
   27.2755  -16.6565  -16.0605 C   0  0  0  0  0  0  0  0  0  0  0  0
   26.5811  -20.4269  -13.7626 C   0  0  0  0  0  0  0  0  0  0  0  0
   26.4288  -21.6314  -14.1130 O   0  0  0  0  0  0  0  0  0  0  0  0
   28.2360  -20.7035   -7.0201 C   0  0  0  0  0  0  0  0  0  0  0  0
   26.6368  -20.3537   -7.8070 S   0  0  0  0  0  0  0  0  0  0  0  0
   26.6927  -20.8671   -9.5796 C   0  0  0  0  0  0  0  0  0  0  0  0
   25.3663  -20.5691  -10.2220 C   0  0  0  0  0  0  0  0  0  0  0  0
   25.3084  -20.9730  -11.6602 C   0  0  2  0  0  0  0  0  0  0  0  0
   26.0926  -20.0469  -12.4826 N   0  0  0  0  0  0  0  0  0  0  0  0
   23.9090  -21.0041  -12.1829 C   0  0  0  0  0  0  0  0  0  0  0  0
   23.2909  -19.9133  -12.3793 O   0  0  0  0  0  0  0  0  0  0  0  0
   23.2722  -22.2416  -12.4591 N   0  0  0  0  0  0  0  0  0  0  0  0
   21.8887  -22.2643  -12.8320 C   0  0  1  0  0  0  0  0  0  0  0  0
   21.3847  -23.6446  -13.1154 C   0  0  0  0  0  0  0  0  0  0  0  0
   19.9628  -23.8120  -13.4236 C   0  0  0  0  0  0  0  0  0  0  0  0
   19.4145  -25.1424  -13.7338 C   0  0  0  0  0  0  0  0  0  0  0  0
   17.9531  -25.2356  -14.0076 C   0  0  0  0  0  0  0  0  0  0  0  0
   17.5338  -26.6220  -14.2551 N   0  0  0  0  0  0  0  0  0  0  0  0
   21.1060  -21.4977  -11.8565 C   0  0  0  0  0  0  0  0  0  0  0  0
   20.1621  -20.7725  -12.2534 O   0  0  0  0  0  0  0  0  0  0  0  0
   21.3694  -21.5492  -10.5119 O   0  0  0  0  0  0  0  0  0  0  0  0
  2  1  1  6
  2 13  1  0
  2  3  1  0
  4  3  1  0
  4  5  2  0
  6  5  1  0
  7 12  2  0
  7  6  1  0
  8  7  1  0
  9 10  1  0
  9  8  2  0
 10 11  2  0
 11 12  1  0
 12  4  1  0
 13 14  2  0
 16 15  1  0
 17 16  1  0
 18 17  1  0
 19 18  1  1
 20 19  1  0
 20 13  1  0
 21 19  1  0
 22 21  2  0
 23 21  1  0
 24 23  1  0
 24 25  1  1
 25 26  1  0
 26 27  1  0
 27 28  1  0
 28 29  1  0
 30 24  1  0
 31 30  2  0
 32 30  1  0
M  END
$$$$
