WMK.pdb
     RDKit          3D

 32 33  0  0  1  0  0  0  0  0999 V2000
   25.7729  -20.7293  -13.8355 N   0  0  0  0  0  0  0  0  0  0  0  0
   24.6027  -20.3399  -13.0489 C   0  0  1  0  0  0  0  0  0  0  0  0
   23.3858  -20.7977  -13.8481 C   0  0  0  0  0  0  0  0  0  0  0  0
   23.2592  -19.9445  -15.0491 C   0  0  0  0  0  0  0  0  0  0  0  0
   23.9067  -20.0277  -16.2698 C   0  0  0  0  0  0  0  0  0  0  0  0
   23.4742  -19.0327  -17.0669 N   0  0  0  0  0  0  0  0  0  0  0  0
   22.5595  -18.2876  -16.4201 C   0  0  0  0  0  0  0  0  0  0  0  0
   21.8489  -17.1813  -16.8238 C   0  0  0  0  0  0  0  0  0  0  0  0
   20.9527  -16.6082  -15.9219 C   0  0  0  0  0  0  0  0  0  0  0  0
   20.8037  -17.1554  -14.6692 C   0  0  0  0  0  0  0  0  0  0  0  0
   21.5232  -18.2534  -14.2983 C   0  0  0  0  0  0  0  0  0  0  0  0
   22.4232  -18.8527  -15.1633 C   0  0  0  0  0  0  0  0  0  0  0  0
   24.6675  -21.0234  -11.7367 C   0  0  0  0  0  0  0  0  0  0  0  0
   24.8584  -22.2715  -11.6860 O   0  0  0  0  0  0  0  0  0  0  0  0
   26.9899  -17.8182   -6.9347 C   0  0  0  0  0  0  0  0  0  0  0  0
   27.0801  -19.6025   -6.6072 S   0  0  0  0  0  0  0  0  0  0  0  0
   26.3980  -20.5326   -8.0489 C   0  0  0  0  0  0  0  0  0  0  0  0
   24.9086  -20.3347   -8.1042 C   0  0  0  0  0  0  0  0  0  0  0  0
   24.2656  -21.0455   -9.2515 C   0  0  2  0  0  0  0  0  0  0  0  0
   24.5224  -20.3292  -10.5044 N   0  0  0  0  0  0  0  0  0  0  0  0
   22.7880  -21.1813   -9.0762 C   0  0  0  0  0  0  0  0  0  0  0  0
   22.0216  -20.2617   -9.4976 O   0  0  0  0  0  0  0  0  0  0  0  0
   22.2415  -22.3280   -8.4440 N   0  0  0  0  0  0  0  0  0  0  0  0
   20.8201  -22.4987   -8.3813 C   0  0  1  0  0  0  0  0  0  0  0  0
   20.4164  -23.8979   -8.0371 C   0  0  0  0  0  0  0  0  0  0  0  0
   19.5826  -24.1053   -6.8510 C   0  0  0  0  0  0  0  0  0  0  0  0
   19.1347  -25.4566   -6.4765 C   0  0  0  0  0  0  0  0  0  0  0  0
   18.1805  -25.5723   -5.3383 C   0  0  0  0  0  0  0  0  0  0  0  0
   17.7803  -26.9666   -5.1042 N   0  0  0  0  0  0  0  0  0  0  0  0
   20.2380  -21.4508   -7.5357 C   0  0  0  0  0  0  0  0  0  0  0  0
   20.9721  -20.8236   -6.7343 O   0  0  0  0  0  0  0  0  0  0  0  0
   18.9071  -21.1263   -7.5933 O   0  0  0  0  0  0  0  0  0  0  0  0
  2  1  1  6
  2 13  1  0
  2  3  1  0
  4  3  1  0
  4  5  2  0
  6  5  1  0
  7 12  2  0
  7  6  1  0
  8  7  1  0
  9 10  1  0
  9  8  2  0
 10 11  2  0
 11 12  1  0
 12  4  1  0
 13 14  2  0
 16 15  1  0
 17 16  1  0
 18 17  1  0
 19 18  1  1
 20 19  1  0
 20 13  1  0
 21 19  1  0
 22 21  2  0
 23 21  1  0
 24 23  1  0
 24 25  1  1
 25 26  1  0
 26 27  1  0
 27 28  1  0
 28 29  1  0
 30 24  1  0
 31 30  2  0
 32 30  1  0
M  END
$$$$
