RHN.pdb
     RDKit          3D

 30 30  0  0  1  0  0  0  0  0999 V2000
   27.4754  -20.9883  -12.1719 N   0  0  0  0  0  0  0  0  0  0  0  0
   26.1962  -21.3166  -11.6540 C   0  0  0  0  0  0  0  0  0  0  0  0
   26.0286  -21.5717  -10.3853 N   0  0  0  0  0  0  0  0  0  0  0  0
   25.0969  -21.3612  -12.5534 N   0  0  0  0  0  0  0  0  0  0  0  0
   25.3047  -21.0584  -13.9477 C   0  0  0  0  0  0  0  0  0  0  0  0
   24.9864  -19.6406  -14.2967 C   0  0  0  0  0  0  0  0  0  0  0  0
   23.6397  -19.4980  -14.9752 C   0  0  0  0  0  0  0  0  0  0  0  0
   23.7726  -18.8904  -16.3524 C   0  0  2  0  0  0  0  0  0  0  0  0
   25.0549  -18.2560  -16.4625 N   0  0  0  0  0  0  0  0  0  0  0  0
   22.6806  -17.9316  -16.5821 C   0  0  0  0  0  0  0  0  0  0  0  0
   22.6152  -16.9291  -15.8162 O   0  0  0  0  0  0  0  0  0  0  0  0
   25.0822  -21.8524  -10.0638 N   0  0  0  0  0  0  0  0  0  0  0  0
   21.7051  -18.0510  -17.5925 C   0  0  2  0  0  0  0  0  0  0  0  0
   20.6424  -17.0902  -17.6852 C   0  0  0  0  0  0  0  0  0  0  0  0
   20.2419  -16.6891  -19.0506 C   0  0  0  0  0  0  0  0  0  0  0  0
   19.1964  -15.6868  -19.1665 C   0  0  0  0  0  0  0  0  0  0  0  0
   19.2907  -14.3426  -19.4040 N   0  0  0  0  0  0  0  0  0  0  0  0
   18.0307  -13.8073  -19.4153 C   0  0  0  0  0  0  0  0  0  0  0  0
   17.1810  -14.7956  -19.1904 N   0  0  0  0  0  0  0  0  0  0  0  0
   17.8568  -15.9316  -19.0381 C   0  0  0  0  0  0  0  0  0  0  0  0
   19.4111  -17.6093  -16.9786 O   0  0  0  0  0  0  0  0  0  0  0  0
   19.3135  -18.8199  -16.6481 N   0  0  0  0  0  0  0  0  0  0  0  0
   14.9175  -18.0265  -14.4759 C   0  0  0  0  0  0  0  0  0  0  0  0
   16.2199  -18.1811  -13.8902 O   0  0  0  0  0  0  0  0  0  0  0  0
   16.1986  -18.6631  -12.7233 C   0  0  0  0  0  0  0  0  0  0  0  0
   17.4451  -17.8003  -14.6171 C   0  0  1  0  0  0  0  0  0  0  0  0
   17.1198  -17.2752  -15.9676 N   0  0  0  0  0  0  0  0  0  0  0  0
   18.3136  -16.7749  -16.6524 C   0  0  0  0  0  0  0  0  0  0  0  0
   16.2537  -16.0522  -15.8050 O   0  0  0  0  0  0  0  0  0  0  0  0
   14.9577  -16.1929  -15.2791 O   0  0  0  0  0  0  0  0  0  0  0  0
  2  3  2  0
  2  1  1  0
  4  2  1  0
  5  4  1  0
  6  5  1  0
  7  6  1  0
  8  7  1  0
  8  9  1  1
 10 11  2  0
 10  8  1  0
 12 10  1  0
 13 20  1  0
 13 12  1  0
 13 14  1  6
 15 14  1  0
 15 19  1  0
 16 15  2  0
 17 16  1  0
 17 18  1  0
 18 19  2  0
 20 21  2  0
 23 22  1  0
 24 23  2  0
 25 23  1  0
 26 25  1  6
 27 26  1  0
 27 20  1  0
 28 26  1  0
 29 28  1  0
 30 28  2  0
M  END
$$$$
