RHN.pdb
     RDKit          3D

 30 30  0  0  1  0  0  0  0  0999 V2000
   24.3438  -14.4684  -17.2314 N   0  0  0  0  0  0  0  0  0  0  0  0
   25.2085  -14.1502  -16.1528 C   0  0  0  0  0  0  0  0  0  0  0  0
   24.8445  -13.3094  -15.2236 N   0  0  0  0  0  0  0  0  0  0  0  0
   26.4856  -14.7715  -16.1078 N   0  0  0  0  0  0  0  0  0  0  0  0
   26.8665  -15.6928  -17.1496 C   0  0  0  0  0  0  0  0  0  0  0  0
   26.4870  -17.1075  -16.8529 C   0  0  0  0  0  0  0  0  0  0  0  0
   27.6381  -17.9101  -16.2828 C   0  0  0  0  0  0  0  0  0  0  0  0
   27.6761  -19.3093  -16.8523 C   0  0  2  0  0  0  0  0  0  0  0  0
   28.1950  -19.2569  -18.1891 N   0  0  0  0  0  0  0  0  0  0  0  0
   26.3270  -19.8955  -16.8255 C   0  0  0  0  0  0  0  0  0  0  0  0
   25.6710  -19.8967  -17.9052 O   0  0  0  0  0  0  0  0  0  0  0  0
   25.5532  -13.0177  -14.5233 N   0  0  0  0  0  0  0  0  0  0  0  0
   25.7157  -20.4543  -15.6849 C   0  0  1  0  0  0  0  0  0  0  0  0
   24.4369  -21.0975  -15.7949 C   0  0  0  0  0  0  0  0  0  0  0  0
   24.3817  -22.5162  -15.3827 C   0  0  0  0  0  0  0  0  0  0  0  0
   25.0407  -23.4824  -16.2449 C   0  0  0  0  0  0  0  0  0  0  0  0
   26.2101  -24.1690  -16.0619 N   0  0  0  0  0  0  0  0  0  0  0  0
   26.4323  -24.9610  -17.1563 C   0  0  0  0  0  0  0  0  0  0  0  0
   25.4262  -24.7678  -17.9929 N   0  0  0  0  0  0  0  0  0  0  0  0
   24.5798  -23.8855  -17.4679 C   0  0  0  0  0  0  0  0  0  0  0  0
   23.4060  -20.3433  -14.9865 O   0  0  0  0  0  0  0  0  0  0  0  0
   23.6501  -19.9689  -13.8097 N   0  0  0  0  0  0  0  0  0  0  0  0
   17.9414  -17.6359  -15.0520 C   0  0  0  0  0  0  0  0  0  0  0  0
   19.3671  -17.5661  -14.8922 O   0  0  0  0  0  0  0  0  0  0  0  0
   19.7427  -16.7030  -14.0505 C   0  0  0  0  0  0  0  0  0  0  0  0
   20.2751  -18.4391  -15.6590 C   0  0  2  0  0  0  0  0  0  0  0  0
   21.1572  -19.2160  -14.7513 N   0  0  0  0  0  0  0  0  0  0  0  0
   22.1260  -20.0192  -15.4999 C   0  0  0  0  0  0  0  0  0  0  0  0
   20.3149  -20.2384  -14.0319 O   0  0  0  0  0  0  0  0  0  0  0  0
   19.5798  -19.8487  -12.8989 O   0  0  0  0  0  0  0  0  0  0  0  0
  2  3  2  0
  2  1  1  0
  4  2  1  0
  5  4  1  0
  6  5  1  0
  7  6  1  0
  8  7  1  0
  8  9  1  6
 10 11  2  0
 10  8  1  0
 12 10  1  0
 13 20  1  0
 13 12  1  0
 13 14  1  1
 15 14  1  0
 15 19  1  0
 16 15  2  0
 17 16  1  0
 17 18  1  0
 18 19  2  0
 20 21  2  0
 23 22  1  0
 24 23  2  0
 25 23  1  0
 26 25  1  1
 27 26  1  0
 27 20  1  0
 28 26  1  0
 29 28  1  0
 30 28  2  0
M  END
$$$$
