RHN.pdb
     RDKit          3D

 30 30  0  0  1  0  0  0  0  0999 V2000
   28.0459  -24.9487  -19.6151 N   0  0  0  0  0  0  0  0  0  0  0  0
   27.4360  -23.9415  -20.4063 C   0  0  0  0  0  0  0  0  0  0  0  0
   27.3504  -24.0635  -21.7027 N   0  0  0  0  0  0  0  0  0  0  0  0
   26.9184  -22.7918  -19.7510 N   0  0  0  0  0  0  0  0  0  0  0  0
   25.8032  -22.9288  -18.8474 C   0  0  0  0  0  0  0  0  0  0  0  0
   25.9150  -24.1179  -17.9491 C   0  0  0  0  0  0  0  0  0  0  0  0
   25.6572  -23.7746  -16.4966 C   0  0  0  0  0  0  0  0  0  0  0  0
   25.7694  -22.2882  -16.2483 C   0  0  2  0  0  0  0  0  0  0  0  0
   27.1522  -21.9084  -16.2974 N   0  0  0  0  0  0  0  0  0  0  0  0
   25.1691  -21.9531  -14.9475 C   0  0  0  0  0  0  0  0  0  0  0  0
   24.2892  -22.7375  -14.4929 O   0  0  0  0  0  0  0  0  0  0  0  0
   26.9735  -23.2627  -22.2453 N   0  0  0  0  0  0  0  0  0  0  0  0
   25.5043  -20.8231  -14.1746 C   0  0  1  0  0  0  0  0  0  0  0  0
   24.7886  -20.5412  -12.9624 C   0  0  0  0  0  0  0  0  0  0  0  0
   25.5266  -19.7838  -11.9293 C   0  0  0  0  0  0  0  0  0  0  0  0
   26.8413  -20.2788  -11.5581 C   0  0  0  0  0  0  0  0  0  0  0  0
   28.0114  -20.2814  -12.2674 N   0  0  0  0  0  0  0  0  0  0  0  0
   28.9873  -20.8666  -11.5062 C   0  0  0  0  0  0  0  0  0  0  0  0
   28.4336  -21.2162  -10.3570 N   0  0  0  0  0  0  0  0  0  0  0  0
   27.1478  -20.8739  -10.3653 C   0  0  0  0  0  0  0  0  0  0  0  0
   23.5211  -19.7787  -13.2740 O   0  0  0  0  0  0  0  0  0  0  0  0
   23.4566  -19.0019  -14.2623 N   0  0  0  0  0  0  0  0  0  0  0  0
   18.5394  -20.7089  -14.1179 C   0  0  0  0  0  0  0  0  0  0  0  0
   19.5971  -21.6641  -14.2966 O   0  0  0  0  0  0  0  0  0  0  0  0
   19.2516  -22.6893  -14.9478 C   0  0  0  0  0  0  0  0  0  0  0  0
   20.9486  -21.4323  -13.7541 C   0  0  1  0  0  0  0  0  0  0  0  0
   21.0263  -20.1189  -13.0653 N   0  0  0  0  0  0  0  0  0  0  0  0
   22.3511  -19.8940  -12.4835 C   0  0  0  0  0  0  0  0  0  0  0  0
   20.1057  -20.1540  -11.8722 O   0  0  0  0  0  0  0  0  0  0  0  0
   18.7150  -20.1295  -12.0763 O   0  0  0  0  0  0  0  0  0  0  0  0
  2  3  2  0
  2  1  1  0
  4  2  1  0
  5  4  1  0
  6  5  1  0
  7  6  1  0
  8  7  1  0
  8  9  1  1
 10 11  2  0
 10  8  1  0
 12 10  1  0
 13 20  1  0
 13 12  1  0
 13 14  1  1
 15 14  1  0
 15 19  1  0
 16 15  2  0
 17 16  1  0
 17 18  1  0
 18 19  2  0
 20 21  2  0
 23 22  1  0
 24 23  2  0
 25 23  1  0
 26 25  1  6
 27 26  1  0
 27 20  1  0
 28 26  1  0
 29 28  1  0
 30 28  2  0
M  END
$$$$
