RHN.pdb
     RDKit          3D

 30 30  0  0  1  0  0  0  0  0999 V2000
   16.0397  -26.7524   -4.7379 N   0  0  0  0  0  0  0  0  0  0  0  0
   15.3254  -25.5289   -4.6672 C   0  0  0  0  0  0  0  0  0  0  0  0
   14.5530  -25.2579   -3.6508 N   0  0  0  0  0  0  0  0  0  0  0  0
   15.4715  -24.6013   -5.7337 N   0  0  0  0  0  0  0  0  0  0  0  0
   15.5527  -25.0829   -7.0903 C   0  0  0  0  0  0  0  0  0  0  0  0
   16.9247  -25.5339   -7.4745 C   0  0  0  0  0  0  0  0  0  0  0  0
   17.4339  -24.8446   -8.7234 C   0  0  0  0  0  0  0  0  0  0  0  0
   18.8675  -24.3938   -8.5643 C   0  0  2  0  0  0  0  0  0  0  0  0
   19.0822  -23.9866   -7.2052 N   0  0  0  0  0  0  0  0  0  0  0  0
   19.1524  -23.2967   -9.5022 C   0  0  0  0  0  0  0  0  0  0  0  0
   18.9922  -22.1157   -9.0829 O   0  0  0  0  0  0  0  0  0  0  0  0
   14.1021  -24.3235   -3.6149 N   0  0  0  0  0  0  0  0  0  0  0  0
   19.5900  -23.4682  -10.8310 C   0  0  1  0  0  0  0  0  0  0  0  0
   19.9293  -22.3254  -11.6311 C   0  0  0  0  0  0  0  0  0  0  0  0
   21.0811  -22.4858  -12.5438 C   0  0  0  0  0  0  0  0  0  0  0  0
   21.5013  -21.3135  -13.2923 C   0  0  0  0  0  0  0  0  0  0  0  0
   20.9704  -20.0527  -13.3206 N   0  0  0  0  0  0  0  0  0  0  0  0
   21.7018  -19.2855  -14.1870 C   0  0  0  0  0  0  0  0  0  0  0  0
   22.6591  -20.0532  -14.6807 N   0  0  0  0  0  0  0  0  0  0  0  0
   22.5587  -21.2730  -14.1589 C   0  0  0  0  0  0  0  0  0  0  0  0
   18.7394  -21.9027  -12.4621 O   0  0  0  0  0  0  0  0  0  0  0  0
   17.9894  -22.7560  -13.0040 N   0  0  0  0  0  0  0  0  0  0  0  0
   14.8874  -20.8552  -12.2300 C   0  0  0  0  0  0  0  0  0  0  0  0
   15.2775  -19.4732  -12.1945 O   0  0  0  0  0  0  0  0  0  0  0  0
   14.4648  -18.7314  -11.5752 C   0  0  0  0  0  0  0  0  0  0  0  0
   16.5202  -19.0036  -12.8345 C   0  0  2  0  0  0  0  0  0  0  0  0
   17.2482  -20.1303  -13.4714 N   0  0  0  0  0  0  0  0  0  0  0  0
   18.4055  -20.5423  -12.6744 C   0  0  0  0  0  0  0  0  0  0  0  0
   17.8516  -19.6364  -14.7614 O   0  0  0  0  0  0  0  0  0  0  0  0
   18.8763  -18.6751  -14.7171 O   0  0  0  0  0  0  0  0  0  0  0  0
  2  3  2  0
  2  1  1  0
  4  2  1  0
  5  4  1  0
  6  5  1  0
  7  6  1  0
  8  7  1  0
  8  9  1  1
 10 11  2  0
 10  8  1  0
 12 10  1  0
 13 20  1  0
 13 12  1  0
 13 14  1  6
 15 14  1  0
 15 19  1  0
 16 15  2  0
 17 16  1  0
 17 18  1  0
 18 19  2  0
 20 21  2  0
 23 22  1  0
 24 23  2  0
 25 23  1  0
 26 25  1  1
 27 26  1  0
 27 20  1  0
 28 26  1  0
 29 28  1  0
 30 28  2  0
M  END
$$$$
