RHN.pdb
     RDKit          3D

 30 30  0  0  1  0  0  0  0  0999 V2000
   27.6892  -27.1140  -17.8780 N   0  0  0  0  0  0  0  0  0  0  0  0
   26.7910  -28.1630  -17.5533 C   0  0  0  0  0  0  0  0  0  0  0  0
   27.1794  -29.4088  -17.5623 N   0  0  0  0  0  0  0  0  0  0  0  0
   25.4529  -27.8237  -17.2166 N   0  0  0  0  0  0  0  0  0  0  0  0
   25.1336  -26.4669  -16.8475 C   0  0  0  0  0  0  0  0  0  0  0  0
   25.1262  -26.2444  -15.3697 C   0  0  0  0  0  0  0  0  0  0  0  0
   23.8412  -25.6055  -14.8852 C   0  0  0  0  0  0  0  0  0  0  0  0
   23.8367  -24.1137  -15.1262 C   0  0  2  0  0  0  0  0  0  0  0  0
   25.1553  -23.5978  -14.8936 N   0  0  0  0  0  0  0  0  0  0  0  0
   22.8482  -23.4694  -14.2474 C   0  0  0  0  0  0  0  0  0  0  0  0
   23.2080  -23.1973  -13.0674 O   0  0  0  0  0  0  0  0  0  0  0  0
   26.4878  -30.1384  -17.3035 N   0  0  0  0  0  0  0  0  0  0  0  0
   21.5325  -23.1350  -14.6266 C   0  0  1  0  0  0  0  0  0  0  0  0
   20.6414  -22.5284  -13.6783 C   0  0  0  0  0  0  0  0  0  0  0  0
   19.9593  -21.2936  -14.1204 C   0  0  0  0  0  0  0  0  0  0  0  0
   20.7898  -20.1229  -14.3462 C   0  0  0  0  0  0  0  0  0  0  0  0
   22.1127  -19.9167  -14.0638 N   0  0  0  0  0  0  0  0  0  0  0  0
   22.4533  -18.6478  -14.4486 C   0  0  0  0  0  0  0  0  0  0  0  0
   21.3685  -18.0855  -14.9551 N   0  0  0  0  0  0  0  0  0  0  0  0
   20.3589  -18.9507  -14.9041 C   0  0  0  0  0  0  0  0  0  0  0  0
   19.5772  -23.5174  -13.2609 O   0  0  0  0  0  0  0  0  0  0  0  0
   19.0837  -24.3283  -14.0875 N   0  0  0  0  0  0  0  0  0  0  0  0
   19.7203  -24.9467   -8.1723 C   0  0  0  0  0  0  0  0  0  0  0  0
   19.2044  -25.3179   -9.4604 O   0  0  0  0  0  0  0  0  0  0  0  0
   19.8663  -26.2303  -10.0294 C   0  0  0  0  0  0  0  0  0  0  0  0
   18.0094  -24.6694  -10.0312 C   0  0  2  0  0  0  0  0  0  0  0  0
   18.1038  -24.5904  -11.5111 N   0  0  0  0  0  0  0  0  0  0  0  0
   19.0826  -23.5872  -11.9351 C   0  0  0  0  0  0  0  0  0  0  0  0
   16.7935  -24.0684  -12.0428 O   0  0  0  0  0  0  0  0  0  0  0  0
   16.5280  -22.6892  -11.9827 O   0  0  0  0  0  0  0  0  0  0  0  0
  2  3  2  0
  2  1  1  0
  4  2  1  0
  5  4  1  0
  6  5  1  0
  7  6  1  0
  8  7  1  0
  8  9  1  1
 10 11  2  0
 10  8  1  0
 12 10  1  0
 13 20  1  0
 13 12  1  0
 13 14  1  1
 15 14  1  0
 15 19  1  0
 16 15  2  0
 17 16  1  0
 17 18  1  0
 18 19  2  0
 20 21  2  0
 23 22  1  0
 24 23  2  0
 25 23  1  0
 26 25  1  1
 27 26  1  0
 27 20  1  0
 28 26  1  0
 29 28  1  0
 30 28  2  0
M  END
$$$$
