RHN.pdb
     RDKit          3D

 30 30  0  0  1  0  0  0  0  0999 V2000
   11.6775  -10.7194  -10.7137 N   0  0  0  0  0  0  0  0  0  0  0  0
   11.1496  -11.7707  -11.5065 C   0  0  0  0  0  0  0  0  0  0  0  0
    9.9808  -12.2892  -11.2455 N   0  0  0  0  0  0  0  0  0  0  0  0
   11.9269  -12.2480  -12.5960 N   0  0  0  0  0  0  0  0  0  0  0  0
   13.2656  -11.7480  -12.7888 C   0  0  0  0  0  0  0  0  0  0  0  0
   13.9232  -12.2836  -14.0193 C   0  0  0  0  0  0  0  0  0  0  0  0
   15.3624  -11.8307  -14.1523 C   0  0  0  0  0  0  0  0  0  0  0  0
   15.9929  -12.3486  -15.4242 C   0  0  2  0  0  0  0  0  0  0  0  0
   16.0128  -13.7829  -15.3867 N   0  0  0  0  0  0  0  0  0  0  0  0
   17.3500  -11.7990  -15.5680 C   0  0  0  0  0  0  0  0  0  0  0  0
   18.2992  -12.4465  -15.0428 O   0  0  0  0  0  0  0  0  0  0  0  0
    9.6849  -13.1248  -11.7859 N   0  0  0  0  0  0  0  0  0  0  0  0
   17.6662  -10.6053  -16.2476 C   0  0  1  0  0  0  0  0  0  0  0  0
   19.0362  -10.2033  -16.3985 C   0  0  0  0  0  0  0  0  0  0  0  0
   19.5641  -10.1886  -17.7793 C   0  0  0  0  0  0  0  0  0  0  0  0
   19.6371  -11.4628  -18.4739 C   0  0  0  0  0  0  0  0  0  0  0  0
   20.6904  -12.3236  -18.6216 N   0  0  0  0  0  0  0  0  0  0  0  0
   20.2828  -13.3950  -19.3700 C   0  0  0  0  0  0  0  0  0  0  0  0
   19.0109  -13.2002  -19.6763 N   0  0  0  0  0  0  0  0  0  0  0  0
   18.6024  -12.0485  -19.1501 C   0  0  0  0  0  0  0  0  0  0  0  0
   19.2391   -8.8241  -15.8140 O   0  0  0  0  0  0  0  0  0  0  0  0
   18.2617   -8.0635  -15.5892 N   0  0  0  0  0  0  0  0  0  0  0  0
   22.6580   -4.7476  -13.8252 C   0  0  0  0  0  0  0  0  0  0  0  0
   21.9966   -5.8161  -13.1295 O   0  0  0  0  0  0  0  0  0  0  0  0
   21.6451   -5.5167  -11.9542 C   0  0  0  0  0  0  0  0  0  0  0  0
   21.7680   -7.1276  -13.7639 C   0  0  2  0  0  0  0  0  0  0  0  0
   20.7130   -7.0371  -14.8052 N   0  0  0  0  0  0  0  0  0  0  0  0
   20.5217   -8.3172  -15.4900 C   0  0  0  0  0  0  0  0  0  0  0  0
   21.1974   -6.1115  -15.8918 O   0  0  0  0  0  0  0  0  0  0  0  0
   21.1442   -4.7220  -15.6853 O   0  0  0  0  0  0  0  0  0  0  0  0
  2  3  2  0
  2  1  1  0
  4  2  1  0
  5  4  1  0
  6  5  1  0
  7  6  1  0
  8  7  1  0
  8  9  1  1
 10 11  2  0
 10  8  1  0
 12 10  1  0
 13 20  1  0
 13 12  1  0
 13 14  1  1
 15 14  1  0
 15 19  1  0
 16 15  2  0
 17 16  1  0
 17 18  1  0
 18 19  2  0
 20 21  2  0
 23 22  1  0
 24 23  2  0
 25 23  1  0
 26 25  1  1
 27 26  1  0
 27 20  1  0
 28 26  1  0
 29 28  1  0
 30 28  2  0
M  END
$$$$
