RHN.pdb
     RDKit          3D

 30 30  0  0  1  0  0  0  0  0999 V2000
   37.5495  -40.4408   -8.2359 N   0  0  0  0  0  0  0  0  0  0  0  0
   38.5318  -39.9439   -7.3412 C   0  0  0  0  0  0  0  0  0  0  0  0
   39.0779  -40.7177   -6.4434 N   0  0  0  0  0  0  0  0  0  0  0  0
   38.9086  -38.5778   -7.4460 N   0  0  0  0  0  0  0  0  0  0  0  0
   38.2662  -37.7349   -8.4237 C   0  0  0  0  0  0  0  0  0  0  0  0
   36.8518  -37.4009   -8.0755 C   0  0  0  0  0  0  0  0  0  0  0  0
   36.2006  -36.4939   -9.0989 C   0  0  0  0  0  0  0  0  0  0  0  0
   34.7570  -36.2113   -8.7527 C   0  0  2  0  0  0  0  0  0  0  0  0
   34.1458  -35.4996   -9.8385 N   0  0  0  0  0  0  0  0  0  0  0  0
   34.6858  -35.4407   -7.5015 C   0  0  0  0  0  0  0  0  0  0  0  0
   35.0879  -34.2435   -7.5311 O   0  0  0  0  0  0  0  0  0  0  0  0
   39.8015  -40.3094   -5.8210 N   0  0  0  0  0  0  0  0  0  0  0  0
   34.2024  -35.9410   -6.2756 C   0  0  2  0  0  0  0  0  0  0  0  0
   32.9402  -35.4904   -5.7609 C   0  0  0  0  0  0  0  0  0  0  0  0
   31.7778  -35.6356   -6.6627 C   0  0  0  0  0  0  0  0  0  0  0  0
   30.5045  -35.1191   -6.1903 C   0  0  0  0  0  0  0  0  0  0  0  0
   30.1430  -33.8413   -5.8602 N   0  0  0  0  0  0  0  0  0  0  0  0
   28.8354  -33.8438   -5.4547 C   0  0  0  0  0  0  0  0  0  0  0  0
   28.4014  -35.0908   -5.5324 N   0  0  0  0  0  0  0  0  0  0  0  0
   29.3845  -35.8729   -5.9708 C   0  0  0  0  0  0  0  0  0  0  0  0
   32.6169  -36.2143   -4.4738 O   0  0  0  0  0  0  0  0  0  0  0  0
   31.4919  -36.0897   -3.9232 N   0  0  0  0  0  0  0  0  0  0  0  0
   32.7661  -38.9468   -0.1136 C   0  0  0  0  0  0  0  0  0  0  0  0
   32.8150  -37.5132   -0.1868 O   0  0  0  0  0  0  0  0  0  0  0  0
   32.7411  -36.9439    0.9378 C   0  0  0  0  0  0  0  0  0  0  0  0
   32.9405  -36.8083   -1.4760 C   0  0  2  0  0  0  0  0  0  0  0  0
   33.2387  -37.7612   -2.5754 N   0  0  0  0  0  0  0  0  0  0  0  0
   33.5478  -37.0621   -3.8243 C   0  0  0  0  0  0  0  0  0  0  0  0
   31.9812  -38.5305   -2.8902 O   0  0  0  0  0  0  0  0  0  0  0  0
   30.7478  -37.8563   -2.9019 O   0  0  0  0  0  0  0  0  0  0  0  0
  2  3  2  0
  2  1  1  0
  4  2  1  0
  5  4  1  0
  6  5  1  0
  7  6  1  0
  8  7  1  0
  8  9  1  6
 10 11  2  0
 10  8  1  0
 12 10  1  0
 13 20  1  0
 13 12  1  0
 13 14  1  6
 15 14  1  0
 15 19  1  0
 16 15  2  0
 17 16  1  0
 17 18  1  0
 18 19  2  0
 20 21  2  0
 23 22  1  0
 24 23  2  0
 25 23  1  0
 26 25  1  1
 27 26  1  0
 27 20  1  0
 28 26  1  0
 29 28  1  0
 30 28  2  0
M  END
$$$$
