RHN.pdb
     RDKit          3D

 30 30  0  0  1  0  0  0  0  0999 V2000
   30.1799  -20.7951   -8.9839 N   0  0  0  0  0  0  0  0  0  0  0  0
   30.7767  -21.3899  -10.1251 C   0  0  0  0  0  0  0  0  0  0  0  0
   31.8810  -22.0781  -10.0259 N   0  0  0  0  0  0  0  0  0  0  0  0
   30.1408  -21.2180  -11.3842 N   0  0  0  0  0  0  0  0  0  0  0  0
   28.7820  -20.7383  -11.4362 C   0  0  0  0  0  0  0  0  0  0  0  0
   27.8057  -21.6612  -10.7815 C   0  0  0  0  0  0  0  0  0  0  0  0
   26.3844  -21.1412  -10.8428 C   0  0  0  0  0  0  0  0  0  0  0  0
   25.5770  -21.8538  -11.9030 C   0  0  2  0  0  0  0  0  0  0  0  0
   26.4605  -22.3062  -12.9391 N   0  0  0  0  0  0  0  0  0  0  0  0
   24.5463  -20.9496  -12.4366 C   0  0  0  0  0  0  0  0  0  0  0  0
   23.7290  -20.4482  -11.6140 O   0  0  0  0  0  0  0  0  0  0  0  0
   32.2968  -22.4633  -10.8956 N   0  0  0  0  0  0  0  0  0  0  0  0
   24.4058  -20.6038  -13.7958 C   0  0  1  0  0  0  0  0  0  0  0  0
   23.2934  -19.8037  -14.2244 C   0  0  0  0  0  0  0  0  0  0  0  0
   23.4901  -19.0224  -15.4640 C   0  0  0  0  0  0  0  0  0  0  0  0
   22.4606  -18.0566  -15.8084 C   0  0  0  0  0  0  0  0  0  0  0  0
   21.3282  -17.6998  -15.1283 N   0  0  0  0  0  0  0  0  0  0  0  0
   20.6575  -16.7528  -15.8547 C   0  0  0  0  0  0  0  0  0  0  0  0
   21.3580  -16.5312  -16.9546 N   0  0  0  0  0  0  0  0  0  0  0  0
   22.4429  -17.3015  -16.9487 C   0  0  0  0  0  0  0  0  0  0  0  0
   22.0729  -20.6743  -14.4184 O   0  0  0  0  0  0  0  0  0  0  0  0
   22.1226  -21.7145  -15.1253 N   0  0  0  0  0  0  0  0  0  0  0  0
   19.2079  -20.8570  -10.3329 C   0  0  0  0  0  0  0  0  0  0  0  0
   19.2691  -21.5999  -11.5607 O   0  0  0  0  0  0  0  0  0  0  0  0
   19.8342  -22.7234  -11.4475 C   0  0  0  0  0  0  0  0  0  0  0  0
   18.7118  -21.0652  -12.8170 C   0  0  2  0  0  0  0  0  0  0  0  0
   19.6608  -21.2568  -13.9430 N   0  0  0  0  0  0  0  0  0  0  0  0
   20.8227  -20.3736  -13.8236 C   0  0  0  0  0  0  0  0  0  0  0  0
   18.9875  -20.8034  -15.2131 O   0  0  0  0  0  0  0  0  0  0  0  0
   19.4178  -19.6176  -15.8335 O   0  0  0  0  0  0  0  0  0  0  0  0
  2  3  2  0
  2  1  1  0
  4  2  1  0
  5  4  1  0
  6  5  1  0
  7  6  1  0
  8  7  1  0
  8  9  1  6
 10 11  2  0
 10  8  1  0
 12 10  1  0
 13 20  1  0
 13 12  1  0
 13 14  1  1
 15 14  1  0
 15 19  1  0
 16 15  2  0
 17 16  1  0
 17 18  1  0
 18 19  2  0
 20 21  2  0
 23 22  1  0
 24 23  2  0
 25 23  1  0
 26 25  1  1
 27 26  1  0
 27 20  1  0
 28 26  1  0
 29 28  1  0
 30 28  2  0
M  END
$$$$
