HCA.pdb
     RDKit          3D

 22 22  0  0  1  0  0  0  0  0999 V2000
    9.3442  -15.4658   20.1068 N   0  0  0  0  0  0  0  0  0  0  0  0
    9.4127  -16.2333   21.3628 C   0  0  1  0  0  0  0  0  0  0  0  0
   10.7343  -16.8809   21.4937 C   0  0  0  0  0  0  0  0  0  0  0  0
   10.9979  -18.0211   20.5919 C   0  0  0  0  0  0  0  0  0  0  0  0
   10.2485  -18.5682   19.5798 C   0  0  0  0  0  0  0  0  0  0  0  0
   10.9571  -19.5662   18.9960 N   0  0  0  0  0  0  0  0  0  0  0  0
   12.1266  -19.6503   19.6196 C   0  0  0  0  0  0  0  0  0  0  0  0
   12.1716  -18.7331   20.5791 N   0  0  0  0  0  0  0  0  0  0  0  0
    9.1633  -15.2314   22.4674 C   0  0  0  0  0  0  0  0  0  0  0  0
    9.5385  -14.0754   22.3903 O   0  0  0  0  0  0  0  0  0  0  0  0
    8.4714  -15.5812   23.6701 N   0  0  0  0  0  0  0  0  0  0  0  0
    8.2219  -14.6863   24.7466 C   0  0  1  0  0  0  0  0  0  0  0  0
    6.7977  -14.6441   25.2159 C   0  0  0  0  0  0  0  0  0  0  0  0
    6.5452  -13.5993   26.6458 S   0  0  0  0  0  0  0  0  0  0  0  0
    9.0834  -14.9212   25.9308 C   0  0  0  0  0  0  0  0  0  0  0  0
    9.5159  -16.1040   26.0821 O   0  0  0  0  0  0  0  0  0  0  0  0
   10.4701  -13.0438   28.8698 C   0  0  0  0  0  0  0  0  0  0  0  0
   10.3466  -14.2317   27.9196 C   0  0  2  0  0  0  0  0  0  0  0  0
    9.4312  -13.9169   26.8663 N   0  0  0  0  0  0  0  0  0  0  0  0
    9.9650  -15.4583   28.6643 C   0  0  0  0  0  0  0  0  0  0  0  0
   10.7691  -15.8585   29.5447 O   0  0  0  0  0  0  0  0  0  0  0  0
    8.8111  -16.1704   28.4565 O   0  0  0  0  0  0  0  0  0  0  0  0
  2  1  1  6
  2  9  1  0
  2  3  1  0
  3  4  1  0
  4  8  1  0
  4  5  2  0
  5  6  1  0
  7  6  1  0
  8  7  2  0
  9 11  1  0
 10  9  2  0
 11 12  1  0
 12 15  1  0
 12 13  1  1
 13 14  1  0
 15 16  2  0
 15 19  1  0
 18 20  1  0
 18 17  1  1
 19 18  1  0
 20 22  1  0
 21 20  2  0
M  END
$$$$
