HCA.pdb
     RDKit          3D

 22 22  0  0  1  0  0  0  0  0999 V2000
    9.1132  -17.6377   15.9050 N   0  0  0  0  0  0  0  0  0  0  0  0
    8.2795  -17.8066   17.1083 C   0  0  1  0  0  0  0  0  0  0  0  0
    8.1599  -19.2393   17.4493 C   0  0  0  0  0  0  0  0  0  0  0  0
    7.3166  -20.0581   16.5542 C   0  0  0  0  0  0  0  0  0  0  0  0
    5.9663  -20.0320   16.3067 C   0  0  0  0  0  0  0  0  0  0  0  0
    5.6765  -20.9420   15.3439 N   0  0  0  0  0  0  0  0  0  0  0  0
    6.8128  -21.5300   14.9879 C   0  0  0  0  0  0  0  0  0  0  0  0
    7.8079  -21.0147   15.7008 N   0  0  0  0  0  0  0  0  0  0  0  0
    8.9738  -17.0229   18.1991 C   0  0  0  0  0  0  0  0  0  0  0  0
   10.1775  -17.0829   18.3739 O   0  0  0  0  0  0  0  0  0  0  0  0
    8.2583  -16.1636   19.0919 N   0  0  0  0  0  0  0  0  0  0  0  0
    8.8657  -15.3420   20.0807 C   0  0  1  0  0  0  0  0  0  0  0  0
    8.0026  -14.2272   20.5932 C   0  0  0  0  0  0  0  0  0  0  0  0
    7.3760  -13.1559   19.3048 S   0  0  0  0  0  0  0  0  0  0  0  0
    9.3772  -16.0951   21.2516 C   0  0  0  0  0  0  0  0  0  0  0  0
    8.8356  -17.2207   21.4727 O   0  0  0  0  0  0  0  0  0  0  0  0
   11.6149  -17.7086   22.3650 C   0  0  0  0  0  0  0  0  0  0  0  0
   10.9708  -16.5184   23.0703 C   0  0  2  0  0  0  0  0  0  0  0  0
   10.4078  -15.6279   22.1026 N   0  0  0  0  0  0  0  0  0  0  0  0
   11.9492  -15.8498   23.9650 C   0  0  0  0  0  0  0  0  0  0  0  0
   12.3536  -14.7126   23.6114 O   0  0  0  0  0  0  0  0  0  0  0  0
   12.4316  -16.3846   25.1325 O   0  0  0  0  0  0  0  0  0  0  0  0
  2  1  1  6
  2  9  1  0
  2  3  1  0
  3  4  1  0
  4  8  1  0
  4  5  2  0
  5  6  1  0
  7  6  1  0
  8  7  2  0
  9 11  1  0
 10  9  2  0
 11 12  1  0
 12 15  1  0
 12 13  1  1
 13 14  1  0
 15 16  2  0
 15 19  1  0
 18 20  1  0
 18 17  1  6
 19 18  1  0
 20 22  1  0
 21 20  2  0
M  END
$$$$
