HCA.pdb
     RDKit          3D

 22 22  0  0  1  0  0  0  0  0999 V2000
   11.5793  -19.3253   17.3955 N   0  0  0  0  0  0  0  0  0  0  0  0
   12.1598  -18.8775   18.6738 C   0  0  1  0  0  0  0  0  0  0  0  0
   13.1653  -17.8213   18.4355 C   0  0  0  0  0  0  0  0  0  0  0  0
   14.4787  -18.2689   17.9281 C   0  0  0  0  0  0  0  0  0  0  0  0
   14.9522  -19.5200   17.6185 C   0  0  0  0  0  0  0  0  0  0  0  0
   16.2078  -19.4055   17.1194 N   0  0  0  0  0  0  0  0  0  0  0  0
   16.5236  -18.1156   17.1105 C   0  0  0  0  0  0  0  0  0  0  0  0
   15.5011  -17.4172   17.5908 N   0  0  0  0  0  0  0  0  0  0  0  0
   10.9956  -18.3731   19.4962 C   0  0  0  0  0  0  0  0  0  0  0  0
    9.8962  -18.1770   19.0105 O   0  0  0  0  0  0  0  0  0  0  0  0
   11.1156  -18.0957   20.8948 N   0  0  0  0  0  0  0  0  0  0  0  0
   10.0225  -17.8027   21.7558 C   0  0  1  0  0  0  0  0  0  0  0  0
    9.0125  -18.9035   21.8915 C   0  0  0  0  0  0  0  0  0  0  0  0
    9.6996  -20.4336   22.5135 S   0  0  0  0  0  0  0  0  0  0  0  0
   10.4308  -17.3902   23.1207 C   0  0  0  0  0  0  0  0  0  0  0  0
   11.4947  -17.9157   23.5690 O   0  0  0  0  0  0  0  0  0  0  0  0
    9.4318  -14.9171   25.7531 C   0  0  0  0  0  0  0  0  0  0  0  0
   10.2300  -16.0918   25.1943 C   0  0  2  0  0  0  0  0  0  0  0  0
    9.7091  -16.4678   23.9162 N   0  0  0  0  0  0  0  0  0  0  0  0
   10.2469  -17.2185   26.1614 C   0  0  0  0  0  0  0  0  0  0  0  0
    9.5126  -18.2039   25.8943 O   0  0  0  0  0  0  0  0  0  0  0  0
   10.9998  -17.2520   27.3077 O   0  0  0  0  0  0  0  0  0  0  0  0
  2  1  1  6
  2  9  1  0
  2  3  1  0
  3  4  1  0
  4  8  1  0
  4  5  2  0
  5  6  1  0
  7  6  1  0
  8  7  2  0
  9 11  1  0
 10  9  2  0
 11 12  1  0
 12 15  1  0
 12 13  1  1
 13 14  1  0
 15 16  2  0
 15 19  1  0
 18 20  1  0
 18 17  1  1
 19 18  1  0
 20 22  1  0
 21 20  2  0
M  END
$$$$
