HCA.pdb
     RDKit          3D

 22 22  0  0  1  0  0  0  0  0999 V2000
   10.4600  -13.9148   20.7900 N   0  0  0  0  0  0  0  0  0  0  0  0
    9.0728  -13.9678   21.2840 C   0  0  1  0  0  0  0  0  0  0  0  0
    8.2768  -14.9100   20.4703 C   0  0  0  0  0  0  0  0  0  0  0  0
    7.9491  -14.4752   19.0969 C   0  0  0  0  0  0  0  0  0  0  0  0
    8.3013  -13.3493   18.3943 C   0  0  0  0  0  0  0  0  0  0  0  0
    7.8068  -13.4423   17.1351 N   0  0  0  0  0  0  0  0  0  0  0  0
    7.1586  -14.5974   17.0392 C   0  0  0  0  0  0  0  0  0  0  0  0
    7.2321  -15.2320   18.2037 N   0  0  0  0  0  0  0  0  0  0  0  0
    9.1699  -14.4105   22.7264 C   0  0  0  0  0  0  0  0  0  0  0  0
   10.0287  -15.1840   23.1102 O   0  0  0  0  0  0  0  0  0  0  0  0
    8.2584  -13.9474   23.7276 N   0  0  0  0  0  0  0  0  0  0  0  0
    8.3289  -14.2937   25.1049 C   0  0  1  0  0  0  0  0  0  0  0  0
    7.4034  -13.5222   25.9985 C   0  0  0  0  0  0  0  0  0  0  0  0
    5.6886  -13.6036   25.4955 S   0  0  0  0  0  0  0  0  0  0  0  0
    8.1169  -15.7375   25.3696 C   0  0  0  0  0  0  0  0  0  0  0  0
    7.3817  -16.3560   24.5414 O   0  0  0  0  0  0  0  0  0  0  0  0
    9.1322  -18.5609   25.4142 C   0  0  0  0  0  0  0  0  0  0  0  0
    8.4706  -17.8405   26.5857 C   0  0  2  0  0  0  0  0  0  0  0  0
    8.6801  -16.4303   26.4685 N   0  0  0  0  0  0  0  0  0  0  0  0
    8.9575  -18.3878   27.8773 C   0  0  0  0  0  0  0  0  0  0  0  0
    9.5416  -17.5837   28.6480 O   0  0  0  0  0  0  0  0  0  0  0  0
    8.8130  -19.6924   28.2763 O   0  0  0  0  0  0  0  0  0  0  0  0
  2  1  1  6
  2  9  1  0
  2  3  1  0
  3  4  1  0
  4  8  1  0
  4  5  2  0
  5  6  1  0
  7  6  1  0
  8  7  2  0
  9 11  1  0
 10  9  2  0
 11 12  1  0
 12 15  1  0
 12 13  1  1
 13 14  1  0
 15 16  2  0
 15 19  1  0
 18 20  1  0
 18 17  1  6
 19 18  1  0
 20 22  1  0
 21 20  2  0
M  END
$$$$
