HCA.pdb
     RDKit          3D

 22 22  0  0  1  0  0  0  0  0999 V2000
   11.5313  -16.4179   14.4515 N   0  0  0  0  0  0  0  0  0  0  0  0
   11.0600  -15.4489   15.4567 C   0  0  1  0  0  0  0  0  0  0  0  0
    9.5961  -15.5592   15.6248 C   0  0  0  0  0  0  0  0  0  0  0  0
    8.7681  -15.0454   14.5143 C   0  0  0  0  0  0  0  0  0  0  0  0
    9.1108  -14.5757   13.2704 C   0  0  0  0  0  0  0  0  0  0  0  0
    7.9795  -14.2840   12.5819 N   0  0  0  0  0  0  0  0  0  0  0  0
    6.9450  -14.5623   13.3668 C   0  0  0  0  0  0  0  0  0  0  0  0
    7.3956  -15.0202   14.5293 N   0  0  0  0  0  0  0  0  0  0  0  0
   11.8014  -15.7885   16.7299 C   0  0  0  0  0  0  0  0  0  0  0  0
   12.0664  -16.9363   17.0388 O   0  0  0  0  0  0  0  0  0  0  0  0
   12.2363  -14.7816   17.6489 N   0  0  0  0  0  0  0  0  0  0  0  0
   13.0038  -15.0345   18.8189 C   0  0  1  0  0  0  0  0  0  0  0  0
   14.2018  -14.1486   18.9923 C   0  0  0  0  0  0  0  0  0  0  0  0
   15.4608  -14.3938   17.7453 S   0  0  0  0  0  0  0  0  0  0  0  0
   12.2150  -14.9822   20.0738 C   0  0  0  0  0  0  0  0  0  0  0  0
   11.0922  -14.3960   20.0047 O   0  0  0  0  0  0  0  0  0  0  0  0
   10.5488  -16.5316   21.9869 C   0  0  0  0  0  0  0  0  0  0  0  0
   11.7197  -15.6382   22.3869 C   0  0  2  0  0  0  0  0  0  0  0  0
   12.6467  -15.5389   21.3020 N   0  0  0  0  0  0  0  0  0  0  0  0
   12.3500  -16.1325   23.6372 C   0  0  0  0  0  0  0  0  0  0  0  0
   11.6319  -16.1354   24.6697 O   0  0  0  0  0  0  0  0  0  0  0  0
   13.6436  -16.5786   23.7357 O   0  0  0  0  0  0  0  0  0  0  0  0
  2  1  1  6
  2  9  1  0
  2  3  1  0
  3  4  1  0
  4  8  1  0
  4  5  2  0
  5  6  1  0
  7  6  1  0
  8  7  2  0
  9 11  1  0
 10  9  2  0
 11 12  1  0
 12 15  1  0
 12 13  1  1
 13 14  1  0
 15 16  2  0
 15 19  1  0
 18 20  1  0
 18 17  1  6
 19 18  1  0
 20 22  1  0
 21 20  2  0
M  END
$$$$
