HCA.pdb
     RDKit          3D

 22 22  0  0  1  0  0  0  0  0999 V2000
    7.7918  -15.8842   21.3200 N   0  0  0  0  0  0  0  0  0  0  0  0
    8.6466  -14.6838   21.3121 C   0  0  1  0  0  0  0  0  0  0  0  0
    8.2017  -13.7475   20.2591 C   0  0  0  0  0  0  0  0  0  0  0  0
    8.3610  -14.2063   18.8638 C   0  0  0  0  0  0  0  0  0  0  0  0
    8.8693  -15.3717   18.3454 C   0  0  0  0  0  0  0  0  0  0  0  0
    8.7340  -15.3505   16.9963 N   0  0  0  0  0  0  0  0  0  0  0  0
    8.1536  -14.2025   16.6660 C   0  0  0  0  0  0  0  0  0  0  0  0
    7.9214  -13.5023   17.7704 N   0  0  0  0  0  0  0  0  0  0  0  0
    8.5180  -14.0823   22.6933 C   0  0  0  0  0  0  0  0  0  0  0  0
    9.0731  -13.0430   23.0014 O   0  0  0  0  0  0  0  0  0  0  0  0
    7.7366  -14.6979   23.7218 N   0  0  0  0  0  0  0  0  0  0  0  0
    7.6413  -14.2202   25.0577 C   0  0  1  0  0  0  0  0  0  0  0  0
    6.2929  -14.3866   25.6935 C   0  0  0  0  0  0  0  0  0  0  0  0
    5.5840  -12.8531   26.2817 S   0  0  0  0  0  0  0  0  0  0  0  0
    8.6507  -14.8039   25.9744 C   0  0  0  0  0  0  0  0  0  0  0  0
    9.1322  -15.9270   25.6341 O   0  0  0  0  0  0  0  0  0  0  0  0
   10.4949  -13.9064   29.1172 C   0  0  0  0  0  0  0  0  0  0  0  0
   10.0970  -14.8158   27.9579 C   0  0  2  0  0  0  0  0  0  0  0  0
    9.0841  -14.1828   27.1706 N   0  0  0  0  0  0  0  0  0  0  0  0
    9.6835  -16.1507   28.4597 C   0  0  0  0  0  0  0  0  0  0  0  0
    8.4473  -16.3737   28.5210 O   0  0  0  0  0  0  0  0  0  0  0  0
   10.5495  -17.1389   28.8539 O   0  0  0  0  0  0  0  0  0  0  0  0
  2  1  1  1
  2  9  1  0
  2  3  1  0
  3  4  1  0
  4  8  1  0
  4  5  2  0
  5  6  1  0
  7  6  1  0
  8  7  2  0
  9 11  1  0
 10  9  2  0
 11 12  1  0
 12 15  1  0
 12 13  1  1
 13 14  1  0
 15 16  2  0
 15 19  1  0
 18 20  1  0
 18 17  1  1
 19 18  1  0
 20 22  1  0
 21 20  2  0
M  END
$$$$
