HCA.pdb
     RDKit          3D

 22 22  0  0  1  0  0  0  0  0999 V2000
    8.6673  -14.3874   20.6360 N   0  0  0  0  0  0  0  0  0  0  0  0
    7.9735  -15.1728   21.6720 C   0  0  1  0  0  0  0  0  0  0  0  0
    8.2248  -16.6152   21.4726 C   0  0  0  0  0  0  0  0  0  0  0  0
    7.6740  -17.2122   20.2385 C   0  0  0  0  0  0  0  0  0  0  0  0
    6.3934  -17.2529   19.7447 C   0  0  0  0  0  0  0  0  0  0  0  0
    6.4073  -17.8591   18.5318 N   0  0  0  0  0  0  0  0  0  0  0  0
    7.6637  -18.1936   18.2610 C   0  0  0  0  0  0  0  0  0  0  0  0
    8.4389  -17.8146   19.2707 N   0  0  0  0  0  0  0  0  0  0  0  0
    8.5223  -14.6816   22.9924 C   0  0  0  0  0  0  0  0  0  0  0  0
    9.6582  -14.2566   23.1040 O   0  0  0  0  0  0  0  0  0  0  0  0
    7.7402  -14.6866   24.1907 N   0  0  0  0  0  0  0  0  0  0  0  0
    8.2126  -14.2657   25.4640 C   0  0  1  0  0  0  0  0  0  0  0  0
    7.1498  -13.7722   26.4006 C   0  0  0  0  0  0  0  0  0  0  0  0
    6.0073  -12.6214   25.6454 S   0  0  0  0  0  0  0  0  0  0  0  0
    9.0043  -15.2965   26.1783 C   0  0  0  0  0  0  0  0  0  0  0  0
    8.6321  -16.4985   26.0177 O   0  0  0  0  0  0  0  0  0  0  0  0
   11.9827  -15.5356   28.4517 C   0  0  0  0  0  0  0  0  0  0  0  0
   10.7808  -16.0767   27.6823 C   0  0  2  0  0  0  0  0  0  0  0  0
   10.1184  -15.0064   27.0026 N   0  0  0  0  0  0  0  0  0  0  0  0
    9.8762  -16.8283   28.5886 C   0  0  0  0  0  0  0  0  0  0  0  0
   10.2897  -17.9405   29.0053 O   0  0  0  0  0  0  0  0  0  0  0  0
    8.6394  -16.3939   28.9933 O   0  0  0  0  0  0  0  0  0  0  0  0
  2  1  1  6
  2  9  1  0
  2  3  1  0
  3  4  1  0
  4  8  1  0
  4  5  2  0
  5  6  1  0
  7  6  1  0
  8  7  2  0
  9 11  1  0
 10  9  2  0
 11 12  1  0
 12 15  1  0
 12 13  1  1
 13 14  1  0
 15 16  2  0
 15 19  1  0
 18 20  1  0
 18 17  1  1
 19 18  1  0
 20 22  1  0
 21 20  2  0
M  END
$$$$
