PQK.pdb
     RDKit          3D

 26 26  0  0  1  0  0  0  0  0999 V2000
   10.4400  -19.1346   16.7921 N   0  0  0  0  0  0  0  0  0  0  0  0
    9.2836  -18.9656   15.9010 C   0  0  0  0  0  0  0  0  0  0  0  0
    9.1994  -20.3750   15.3097 C   0  0  0  0  0  0  0  0  0  0  0  0
    9.3462  -21.2251   16.5634 C   0  0  0  0  0  0  0  0  0  0  0  0
   10.0464  -20.3233   17.5209 C   0  0  1  0  0  0  0  0  0  0  0  0
   11.1706  -20.9444   18.2388 C   0  0  0  0  0  0  0  0  0  0  0  0
   10.9181  -21.9394   18.9668 O   0  0  0  0  0  0  0  0  0  0  0  0
   17.0529  -20.5938   16.1516 N   0  0  0  0  0  0  0  0  0  0  0  0
   16.1022  -21.5573   15.7167 C   0  0  0  0  0  0  0  0  0  0  0  0
   16.2445  -22.1149   14.6205 O   0  0  0  0  0  0  0  0  0  0  0  0
   14.9613  -21.8635   16.6011 C   0  0  0  0  0  0  0  0  0  0  0  0
   14.7621  -20.9039   17.7100 C   0  0  0  0  0  0  0  0  0  0  0  0
   13.6592  -21.2133   18.6915 C   0  0  2  0  0  0  0  0  0  0  0  0
   12.4898  -20.4910   18.1545 N   0  0  0  0  0  0  0  0  0  0  0  0
   13.9827  -20.6702   20.0284 C   0  0  0  0  0  0  0  0  0  0  0  0
   13.8612  -19.4248   20.2816 O   0  0  0  0  0  0  0  0  0  0  0  0
   14.4287  -21.4883   21.0754 N   0  0  0  0  0  0  0  0  0  0  0  0
   14.6822  -20.8999   22.4277 C   0  0  1  0  0  0  0  0  0  0  0  0
   14.2942  -21.9305   23.4569 C   0  0  0  0  0  0  0  0  0  0  0  0
   14.5371  -21.4266   24.8395 C   0  0  0  0  0  0  0  0  0  0  0  0
   14.1534  -22.4419   25.9096 C   0  0  0  0  0  0  0  0  0  0  0  0
   14.3687  -21.8079   27.2568 C   0  0  0  0  0  0  0  0  0  0  0  0
   13.9900  -22.7832   28.2875 N   0  0  0  0  0  0  0  0  0  0  0  0
   16.1079  -20.5761   22.5494 C   0  0  0  0  0  0  0  0  0  0  0  0
   17.1011  -21.2999   21.9407 O   0  0  0  0  0  0  0  0  0  0  0  0
   16.4589  -19.5914   23.2453 O   0  0  0  0  0  0  0  0  0  0  0  0
  1  2  1  0
  3  2  1  0
  4  3  1  0
  5  4  1  0
  5  1  1  0
  6 14  1  0
  5  6  1  6
  7  6  2  0
  8  9  1  0
  9 10  2  0
 11  9  1  0
 11 12  1  0
 13 12  1  6
 13 14  1  0
 15 17  1  0
 15 13  1  0
 16 15  2  0
 18 17  1  0
 18 24  1  0
 18 19  1  1
 20 19  1  0
 21 20  1  0
 22 21  1  0
 23 22  1  0
 24 25  1  0
 26 24  2  0
M  END
$$$$
