PQK.pdb
     RDKit          3D

 26 26  0  0  1  0  0  0  0  0999 V2000
    8.1048  -13.6386   19.5557 N   0  0  0  0  0  0  0  0  0  0  0  0
    7.1131  -12.7674   18.9100 C   0  0  0  0  0  0  0  0  0  0  0  0
    7.9243  -12.2978   17.6998 C   0  0  0  0  0  0  0  0  0  0  0  0
    8.5216  -13.6136   17.2224 C   0  0  0  0  0  0  0  0  0  0  0  0
    8.4966  -14.4740   18.4387 C   0  0  1  0  0  0  0  0  0  0  0  0
    9.7440  -15.2113   18.6945 C   0  0  0  0  0  0  0  0  0  0  0  0
    9.8722  -16.3426   18.1584 O   0  0  0  0  0  0  0  0  0  0  0  0
   14.9669  -13.5759   17.1188 N   0  0  0  0  0  0  0  0  0  0  0  0
   15.4364  -14.1882   18.3128 C   0  0  0  0  0  0  0  0  0  0  0  0
   16.6121  -14.0301   18.6674 O   0  0  0  0  0  0  0  0  0  0  0  0
   14.4911  -15.0035   19.0998 C   0  0  0  0  0  0  0  0  0  0  0  0
   13.0717  -14.6063   18.9678 C   0  0  0  0  0  0  0  0  0  0  0  0
   12.0590  -15.4276   19.7264 C   0  0  2  0  0  0  0  0  0  0  0  0
   10.7824  -14.7250   19.4936 N   0  0  0  0  0  0  0  0  0  0  0  0
   12.3544  -15.4123   21.1754 C   0  0  0  0  0  0  0  0  0  0  0  0
   12.2792  -14.3327   21.8526 O   0  0  0  0  0  0  0  0  0  0  0  0
   12.7224  -16.5718   21.8716 N   0  0  0  0  0  0  0  0  0  0  0  0
   12.9098  -16.5248   23.3554 C   0  0  1  0  0  0  0  0  0  0  0  0
   12.4226  -17.8341   23.9214 C   0  0  0  0  0  0  0  0  0  0  0  0
   12.6798  -17.9139   25.3883 C   0  0  0  0  0  0  0  0  0  0  0  0
   12.3566  -19.2867   25.9666 C   0  0  0  0  0  0  0  0  0  0  0  0
   12.5622  -19.2288   27.4558 C   0  0  0  0  0  0  0  0  0  0  0  0
   12.1567  -20.5208   28.0245 N   0  0  0  0  0  0  0  0  0  0  0  0
   14.3352  -16.3451   23.6525 C   0  0  0  0  0  0  0  0  0  0  0  0
   14.7984  -15.7494   24.7977 O   0  0  0  0  0  0  0  0  0  0  0  0
   15.1921  -16.7468   22.8271 O   0  0  0  0  0  0  0  0  0  0  0  0
  1  2  1  0
  3  2  1  0
  4  3  1  0
  5  4  1  0
  5  1  1  0
  6 14  1  0
  5  6  1  1
  7  6  2  0
  8  9  1  0
  9 10  2  0
 11  9  1  0
 11 12  1  0
 13 12  1  6
 13 14  1  0
 15 17  1  0
 15 13  1  0
 16 15  2  0
 18 17  1  0
 18 24  1  0
 18 19  1  1
 20 19  1  0
 21 20  1  0
 22 21  1  0
 23 22  1  0
 24 25  1  0
 26 24  2  0
M  END
$$$$
