PQK.pdb
     RDKit          3D

 26 26  0  0  1  0  0  0  0  0999 V2000
    7.5467  -14.7271   17.8937 N   0  0  0  0  0  0  0  0  0  0  0  0
    7.8515  -13.5460   17.0740 C   0  0  0  0  0  0  0  0  0  0  0  0
    7.4783  -12.4375   18.0614 C   0  0  0  0  0  0  0  0  0  0  0  0
    8.1500  -12.9410   19.3307 C   0  0  0  0  0  0  0  0  0  0  0  0
    8.2747  -14.4086   19.1052 C   0  0  1  0  0  0  0  0  0  0  0  0
    7.8649  -15.2419   20.2466 C   0  0  0  0  0  0  0  0  0  0  0  0
    6.6839  -15.1183   20.6635 O   0  0  0  0  0  0  0  0  0  0  0  0
    6.5907  -19.9704   24.5420 N   0  0  0  0  0  0  0  0  0  0  0  0
    6.8546  -19.6007   23.1948 C   0  0  0  0  0  0  0  0  0  0  0  0
    5.9231  -19.5145   22.3838 O   0  0  0  0  0  0  0  0  0  0  0  0
    8.2514  -19.3285   22.8045 C   0  0  0  0  0  0  0  0  0  0  0  0
    8.4093  -18.3297   21.7240 C   0  0  0  0  0  0  0  0  0  0  0  0
    8.3776  -16.8764   22.1270 C   0  0  2  0  0  0  0  0  0  0  0  0
    8.7106  -16.1536   20.8844 N   0  0  0  0  0  0  0  0  0  0  0  0
    9.4190  -16.5921   23.1378 C   0  0  0  0  0  0  0  0  0  0  0  0
   10.6590  -16.6357   22.8375 O   0  0  0  0  0  0  0  0  0  0  0  0
    9.0996  -16.2586   24.4611 N   0  0  0  0  0  0  0  0  0  0  0  0
   10.1914  -16.0026   25.4517 C   0  0  1  0  0  0  0  0  0  0  0  0
    9.5507  -15.5109   26.7245 C   0  0  0  0  0  0  0  0  0  0  0  0
   10.5607  -15.3635   27.8119 C   0  0  0  0  0  0  0  0  0  0  0  0
    9.9650  -14.7875   29.0913 C   0  0  0  0  0  0  0  0  0  0  0  0
   11.0793  -14.5997   30.0845 C   0  0  0  0  0  0  0  0  0  0  0  0
   10.5189  -13.9705   31.2875 N   0  0  0  0  0  0  0  0  0  0  0  0
   10.9149  -17.2543   25.7010 C   0  0  0  0  0  0  0  0  0  0  0  0
   10.2933  -18.4654   25.8664 O   0  0  0  0  0  0  0  0  0  0  0  0
   12.1685  -17.2372   25.7743 O   0  0  0  0  0  0  0  0  0  0  0  0
  1  2  1  0
  3  2  1  0
  4  3  1  0
  5  4  1  0
  5  1  1  0
  6 14  1  0
  5  6  1  1
  7  6  2  0
  8  9  1  0
  9 10  2  0
 11  9  1  0
 11 12  1  0
 13 12  1  6
 13 14  1  0
 15 17  1  0
 15 13  1  0
 16 15  2  0
 18 17  1  0
 18 24  1  0
 18 19  1  1
 20 19  1  0
 21 20  1  0
 22 21  1  0
 23 22  1  0
 24 25  1  0
 26 24  2  0
M  END
$$$$
