PQK.pdb
     RDKit          3D

 26 26  0  0  1  0  0  0  0  0999 V2000
    9.4881  -14.5979   18.2186 N   0  0  0  0  0  0  0  0  0  0  0  0
    9.2350  -13.7721   17.0297 C   0  0  0  0  0  0  0  0  0  0  0  0
    7.7061  -13.7125   17.0718 C   0  0  0  0  0  0  0  0  0  0  0  0
    7.4681  -13.4006   18.5422 C   0  0  0  0  0  0  0  0  0  0  0  0
    8.7077  -13.8869   19.2109 C   0  0  1  0  0  0  0  0  0  0  0  0
    8.4772  -14.6839   20.4261 C   0  0  0  0  0  0  0  0  0  0  0  0
    7.7169  -14.2000   21.3044 O   0  0  0  0  0  0  0  0  0  0  0  0
   11.5229  -20.0490   21.3640 N   0  0  0  0  0  0  0  0  0  0  0  0
   10.7455  -20.0438   22.5542 C   0  0  0  0  0  0  0  0  0  0  0  0
   10.8757  -20.9557   23.3815 O   0  0  0  0  0  0  0  0  0  0  0  0
    9.7957  -18.9342   22.7650 C   0  0  0  0  0  0  0  0  0  0  0  0
    9.8024  -17.9030   21.7036 C   0  0  0  0  0  0  0  0  0  0  0  0
    8.8571  -16.7400   21.8749 C   0  0  2  0  0  0  0  0  0  0  0  0
    9.0530  -15.9371   20.6524 N   0  0  0  0  0  0  0  0  0  0  0  0
    9.2399  -15.9244   23.0476 C   0  0  0  0  0  0  0  0  0  0  0  0
   10.3054  -15.2212   23.0425 O   0  0  0  0  0  0  0  0  0  0  0  0
    8.4570  -15.8789   24.2093 N   0  0  0  0  0  0  0  0  0  0  0  0
    8.6764  -14.7942   25.2164 C   0  0  1  0  0  0  0  0  0  0  0  0
    7.3760  -14.0498   25.3801 C   0  0  0  0  0  0  0  0  0  0  0  0
    7.4923  -12.9883   26.4213 C   0  0  0  0  0  0  0  0  0  0  0  0
    6.1752  -12.2619   26.6679 C   0  0  0  0  0  0  0  0  0  0  0  0
    6.4289  -11.1506   27.6498 C   0  0  0  0  0  0  0  0  0  0  0  0
    5.1419  -10.5192   27.9690 N   0  0  0  0  0  0  0  0  0  0  0  0
    9.0767  -15.3988   26.4918 C   0  0  0  0  0  0  0  0  0  0  0  0
    9.7358  -14.7118   27.4789 O   0  0  0  0  0  0  0  0  0  0  0  0
    8.8153  -16.6076   26.7095 O   0  0  0  0  0  0  0  0  0  0  0  0
  1  2  1  0
  3  2  1  0
  4  3  1  0
  5  4  1  0
  5  1  1  0
  6 14  1  0
  5  6  1  1
  7  6  2  0
  8  9  1  0
  9 10  2  0
 11  9  1  0
 11 12  1  0
 13 12  1  6
 13 14  1  0
 15 17  1  0
 15 13  1  0
 16 15  2  0
 18 17  1  0
 18 24  1  0
 18 19  1  1
 20 19  1  0
 21 20  1  0
 22 21  1  0
 23 22  1  0
 24 25  1  0
 26 24  2  0
M  END
$$$$
