PQK.pdb
     RDKit          3D

 26 26  0  0  1  0  0  0  0  0999 V2000
    7.4605  -14.4683   19.5537 N   0  0  0  0  0  0  0  0  0  0  0  0
    6.7062  -13.2757   19.1435 C   0  0  0  0  0  0  0  0  0  0  0  0
    7.8157  -12.2239   19.2202 C   0  0  0  0  0  0  0  0  0  0  0  0
    8.9517  -12.9481   18.5126 C   0  0  0  0  0  0  0  0  0  0  0  0
    8.5976  -14.3880   18.6594 C   0  0  1  0  0  0  0  0  0  0  0  0
    9.7102  -15.2538   19.0806 C   0  0  0  0  0  0  0  0  0  0  0  0
   10.4886  -15.6777   18.1872 O   0  0  0  0  0  0  0  0  0  0  0  0
   14.9152  -13.9378   21.0893 N   0  0  0  0  0  0  0  0  0  0  0  0
   14.6748  -14.9242   20.0941 C   0  0  0  0  0  0  0  0  0  0  0  0
   15.3491  -14.9316   19.0557 O   0  0  0  0  0  0  0  0  0  0  0  0
   13.6134  -15.9200   20.3375 C   0  0  0  0  0  0  0  0  0  0  0  0
   12.2726  -15.3470   20.5904 C   0  0  0  0  0  0  0  0  0  0  0  0
   11.1572  -16.3202   20.8805 C   0  0  2  0  0  0  0  0  0  0  0  0
    9.9444  -15.6253   20.4073 N   0  0  0  0  0  0  0  0  0  0  0  0
   11.0350  -16.5556   22.3354 C   0  0  0  0  0  0  0  0  0  0  0  0
   10.5724  -15.6549   23.1128 O   0  0  0  0  0  0  0  0  0  0  0  0
   11.4118  -17.7693   22.9265 N   0  0  0  0  0  0  0  0  0  0  0  0
   11.2567  -17.9618   24.4023 C   0  0  1  0  0  0  0  0  0  0  0  0
   11.4831  -19.4217   24.7013 C   0  0  0  0  0  0  0  0  0  0  0  0
   10.4352  -20.2694   24.0628 C   0  0  0  0  0  0  0  0  0  0  0  0
   10.5988  -21.7493   24.3892 C   0  0  0  0  0  0  0  0  0  0  0  0
    9.5716  -22.5192   23.6047 C   0  0  0  0  0  0  0  0  0  0  0  0
    9.7605  -23.9489   23.8827 N   0  0  0  0  0  0  0  0  0  0  0  0
   12.2543  -17.1425   25.0995 C   0  0  0  0  0  0  0  0  0  0  0  0
   12.1726  -16.8245   26.4310 O   0  0  0  0  0  0  0  0  0  0  0  0
   13.2396  -16.6963   24.4616 O   0  0  0  0  0  0  0  0  0  0  0  0
  1  2  1  0
  3  2  1  0
  4  3  1  0
  5  4  1  0
  5  1  1  0
  6 14  1  0
  5  6  1  1
  7  6  2  0
  8  9  1  0
  9 10  2  0
 11  9  1  0
 11 12  1  0
 13 12  1  1
 13 14  1  0
 15 17  1  0
 15 13  1  0
 16 15  2  0
 18 17  1  0
 18 24  1  0
 18 19  1  6
 20 19  1  0
 21 20  1  0
 22 21  1  0
 23 22  1  0
 24 25  1  0
 26 24  2  0
M  END
$$$$
