PQK.pdb
     RDKit          3D

 26 26  0  0  1  0  0  0  0  0999 V2000
    7.0341  -14.5857   20.9288 N   0  0  0  0  0  0  0  0  0  0  0  0
    6.5260  -14.1114   19.6340 C   0  0  0  0  0  0  0  0  0  0  0  0
    7.1430  -12.7108   19.6067 C   0  0  0  0  0  0  0  0  0  0  0  0
    8.5699  -13.0136   20.0406 C   0  0  0  0  0  0  0  0  0  0  0  0
    8.4469  -14.2988   20.7846 C   0  0  1  0  0  0  0  0  0  0  0  0
    9.1652  -14.3359   22.0682 C   0  0  0  0  0  0  0  0  0  0  0  0
   10.4207  -14.2572   22.0354 O   0  0  0  0  0  0  0  0  0  0  0  0
    6.8702  -11.7290   26.9331 N   0  0  0  0  0  0  0  0  0  0  0  0
    6.1994  -12.8782   26.4327 C   0  0  0  0  0  0  0  0  0  0  0  0
    5.0016  -13.0561   26.6910 O   0  0  0  0  0  0  0  0  0  0  0  0
    6.9663  -13.8337   25.6102 C   0  0  0  0  0  0  0  0  0  0  0  0
    8.4016  -13.5071   25.4579 C   0  0  0  0  0  0  0  0  0  0  0  0
    9.2284  -14.4406   24.6091 C   0  0  2  0  0  0  0  0  0  0  0  0
    8.5315  -14.4527   23.3084 N   0  0  0  0  0  0  0  0  0  0  0  0
    9.2134  -15.8085   25.1710 C   0  0  0  0  0  0  0  0  0  0  0  0
    8.2197  -16.5877   24.9834 O   0  0  0  0  0  0  0  0  0  0  0  0
   10.2810  -16.3144   25.9251 N   0  0  0  0  0  0  0  0  0  0  0  0
   10.2481  -17.7291   26.4115 C   0  0  1  0  0  0  0  0  0  0  0  0
   11.3586  -18.4782   25.7202 C   0  0  0  0  0  0  0  0  0  0  0  0
   11.4001  -19.9028   26.1597 C   0  0  0  0  0  0  0  0  0  0  0  0
   12.5628  -20.6727   25.5444 C   0  0  0  0  0  0  0  0  0  0  0  0
   12.4632  -22.1067   25.9882 C   0  0  0  0  0  0  0  0  0  0  0  0
   13.5360  -22.8648   25.3313 N   0  0  0  0  0  0  0  0  0  0  0  0
   10.4580  -17.7412   27.8635 C   0  0  0  0  0  0  0  0  0  0  0  0
   10.6737  -16.6075   28.6044 O   0  0  0  0  0  0  0  0  0  0  0  0
   10.4472  -18.8360   28.4784 O   0  0  0  0  0  0  0  0  0  0  0  0
  1  2  1  0
  3  2  1  0
  4  3  1  0
  5  4  1  0
  5  1  1  0
  6 14  1  0
  5  6  1  1
  7  6  2  0
  8  9  1  0
  9 10  2  0
 11  9  1  0
 11 12  1  0
 13 12  1  1
 13 14  1  0
 15 17  1  0
 15 13  1  0
 16 15  2  0
 18 17  1  0
 18 24  1  0
 18 19  1  6
 20 19  1  0
 21 20  1  0
 22 21  1  0
 23 22  1  0
 24 25  1  0
 26 24  2  0
M  END
$$$$
