PQK.pdb
     RDKit          3D

 26 26  0  0  1  0  0  0  0  0999 V2000
    7.2472  -20.4041   19.6117 N   0  0  0  0  0  0  0  0  0  0  0  0
    6.0247  -20.9787   19.0329 C   0  0  0  0  0  0  0  0  0  0  0  0
    5.2732  -19.6934   18.6774 C   0  0  0  0  0  0  0  0  0  0  0  0
    6.3782  -18.8854   18.0126 C   0  0  0  0  0  0  0  0  0  0  0  0
    7.6290  -19.4760   18.5667 C   0  0  1  0  0  0  0  0  0  0  0  0
    8.6238  -18.4915   19.0206 C   0  0  0  0  0  0  0  0  0  0  0  0
    9.8268  -18.8580   19.0663 O   0  0  0  0  0  0  0  0  0  0  0  0
    7.2694  -12.4501   19.2744 N   0  0  0  0  0  0  0  0  0  0  0  0
    7.7304  -13.1074   18.1011 C   0  0  0  0  0  0  0  0  0  0  0  0
    7.5020  -12.6166   16.9876 O   0  0  0  0  0  0  0  0  0  0  0  0
    8.4763  -14.3714   18.2542 C   0  0  0  0  0  0  0  0  0  0  0  0
    8.5838  -14.8625   19.6460 C   0  0  0  0  0  0  0  0  0  0  0  0
    9.2868  -16.1810   19.8530 C   0  0  2  0  0  0  0  0  0  0  0  0
    8.3047  -17.1847   19.3996 N   0  0  0  0  0  0  0  0  0  0  0  0
    9.5681  -16.4032   21.2877 C   0  0  0  0  0  0  0  0  0  0  0  0
    8.6220  -16.4764   22.1417 O   0  0  0  0  0  0  0  0  0  0  0  0
   10.8739  -16.5486   21.7757 N   0  0  0  0  0  0  0  0  0  0  0  0
   11.0993  -16.9797   23.1907 C   0  0  1  0  0  0  0  0  0  0  0  0
   11.4267  -18.4510   23.1759 C   0  0  0  0  0  0  0  0  0  0  0  0
   11.7134  -18.9512   24.5513 C   0  0  0  0  0  0  0  0  0  0  0  0
   12.1909  -20.3987   24.5612 C   0  0  0  0  0  0  0  0  0  0  0  0
   12.3718  -20.8233   25.9931 C   0  0  0  0  0  0  0  0  0  0  0  0
   12.6430  -22.2667   26.0118 N   0  0  0  0  0  0  0  0  0  0  0  0
   12.2213  -16.2180   23.7504 C   0  0  0  0  0  0  0  0  0  0  0  0
   12.4185  -16.0434   25.0963 O   0  0  0  0  0  0  0  0  0  0  0  0
   13.0536  -15.6869   22.9743 O   0  0  0  0  0  0  0  0  0  0  0  0
  1  2  1  0
  3  2  1  0
  4  3  1  0
  5  4  1  0
  5  1  1  0
  6 14  1  0
  5  6  1  1
  7  6  2  0
  8  9  1  0
  9 10  2  0
 11  9  1  0
 11 12  1  0
 13 12  1  1
 13 14  1  0
 15 17  1  0
 15 13  1  0
 16 15  2  0
 18 17  1  0
 18 24  1  0
 18 19  1  6
 20 19  1  0
 21 20  1  0
 22 21  1  0
 23 22  1  0
 24 25  1  0
 26 24  2  0
M  END
$$$$
