PQK.pdb
     RDKit          3D

 26 26  0  0  1  0  0  0  0  0999 V2000
    7.3194  -15.2009   20.5170 N   0  0  0  0  0  0  0  0  0  0  0  0
    6.9267  -14.8934   19.1347 C   0  0  0  0  0  0  0  0  0  0  0  0
    7.0319  -13.3666   19.1651 C   0  0  0  0  0  0  0  0  0  0  0  0
    8.3732  -13.1818   19.8600 C   0  0  0  0  0  0  0  0  0  0  0  0
    8.5551  -14.4514   20.6185 C   0  0  1  0  0  0  0  0  0  0  0  0
    8.9974  -14.2764   22.0109 C   0  0  0  0  0  0  0  0  0  0  0  0
   10.2180  -14.0433   22.2092 O   0  0  0  0  0  0  0  0  0  0  0  0
    5.1745  -12.1108   26.1736 N   0  0  0  0  0  0  0  0  0  0  0  0
    6.1973  -12.4703   27.0933 C   0  0  0  0  0  0  0  0  0  0  0  0
    6.1323  -12.0895   28.2696 O   0  0  0  0  0  0  0  0  0  0  0  0
    7.3179  -13.2974   26.6059 C   0  0  0  0  0  0  0  0  0  0  0  0
    7.2462  -13.6543   25.1715 C   0  0  0  0  0  0  0  0  0  0  0  0
    8.5362  -14.0602   24.5031 C   0  0  2  0  0  0  0  0  0  0  0  0
    8.1408  -14.3550   23.1123 N   0  0  0  0  0  0  0  0  0  0  0  0
    9.0769  -15.2923   25.1167 C   0  0  0  0  0  0  0  0  0  0  0  0
    9.4195  -15.3215   26.3461 O   0  0  0  0  0  0  0  0  0  0  0  0
    9.2332  -16.4792   24.3877 N   0  0  0  0  0  0  0  0  0  0  0  0
    9.8017  -17.6942   25.0508 C   0  0  1  0  0  0  0  0  0  0  0  0
    9.6747  -18.8455   24.0862 C   0  0  0  0  0  0  0  0  0  0  0  0
   10.2380  -20.0980   24.6679 C   0  0  0  0  0  0  0  0  0  0  0  0
   10.2309  -21.2584   23.6797 C   0  0  0  0  0  0  0  0  0  0  0  0
   10.8489  -22.4529   24.3541 C   0  0  0  0  0  0  0  0  0  0  0  0
   10.7853  -23.5876   23.4238 N   0  0  0  0  0  0  0  0  0  0  0  0
   11.2141  -17.4515   25.3649 C   0  0  0  0  0  0  0  0  0  0  0  0
   11.8009  -17.8309   26.5449 O   0  0  0  0  0  0  0  0  0  0  0  0
   11.9399  -16.8641   24.5251 O   0  0  0  0  0  0  0  0  0  0  0  0
  1  2  1  0
  3  2  1  0
  4  3  1  0
  5  4  1  0
  5  1  1  0
  6 14  1  0
  5  6  1  1
  7  6  2  0
  8  9  1  0
  9 10  2  0
 11  9  1  0
 11 12  1  0
 13 12  1  1
 13 14  1  0
 15 17  1  0
 15 13  1  0
 16 15  2  0
 18 17  1  0
 18 24  1  0
 18 19  1  6
 20 19  1  0
 21 20  1  0
 22 21  1  0
 23 22  1  0
 24 25  1  0
 26 24  2  0
M  END
$$$$
