PQK.pdb
     RDKit          3D

 26 26  0  0  1  0  0  0  0  0999 V2000
    7.0522  -14.8108   20.0060 N   0  0  0  0  0  0  0  0  0  0  0  0
    6.7259  -14.2794   18.6753 C   0  0  0  0  0  0  0  0  0  0  0  0
    7.1163  -12.8129   18.8751 C   0  0  0  0  0  0  0  0  0  0  0  0
    8.4675  -12.9626   19.5589 C   0  0  0  0  0  0  0  0  0  0  0  0
    8.4067  -14.3221   20.1660 C   0  0  1  0  0  0  0  0  0  0  0  0
    8.8723  -14.3931   21.5600 C   0  0  0  0  0  0  0  0  0  0  0  0
   10.1018  -14.2292   21.7723 O   0  0  0  0  0  0  0  0  0  0  0  0
    6.2009  -11.9759   26.1245 N   0  0  0  0  0  0  0  0  0  0  0  0
    6.8559  -12.9535   26.9223 C   0  0  0  0  0  0  0  0  0  0  0  0
    7.0744  -12.7285   28.1200 O   0  0  0  0  0  0  0  0  0  0  0  0
    7.2588  -14.2219   26.2846 C   0  0  0  0  0  0  0  0  0  0  0  0
    7.1875  -14.2220   24.8065 C   0  0  0  0  0  0  0  0  0  0  0  0
    8.4498  -14.5785   24.0616 C   0  0  2  0  0  0  0  0  0  0  0  0
    8.0283  -14.6305   22.6483 N   0  0  0  0  0  0  0  0  0  0  0  0
    8.9336  -15.9167   24.4646 C   0  0  0  0  0  0  0  0  0  0  0  0
    8.2574  -16.9681   24.2057 O   0  0  0  0  0  0  0  0  0  0  0  0
   10.1491  -16.0960   25.1390 N   0  0  0  0  0  0  0  0  0  0  0  0
   10.6094  -17.4742   25.4960 C   0  0  1  0  0  0  0  0  0  0  0  0
   12.0941  -17.5420   25.2444 C   0  0  0  0  0  0  0  0  0  0  0  0
   12.6511  -18.8589   25.6686 C   0  0  0  0  0  0  0  0  0  0  0  0
   14.1513  -18.9678   25.4224 C   0  0  0  0  0  0  0  0  0  0  0  0
   14.6041  -20.3282   25.8782 C   0  0  0  0  0  0  0  0  0  0  0  0
   16.0567  -20.4172   25.6807 N   0  0  0  0  0  0  0  0  0  0  0  0
   10.3254  -17.7216   26.9139 C   0  0  0  0  0  0  0  0  0  0  0  0
   10.1330  -18.9743   27.4379 O   0  0  0  0  0  0  0  0  0  0  0  0
   10.2464  -16.7497   27.7052 O   0  0  0  0  0  0  0  0  0  0  0  0
  1  2  1  0
  3  2  1  0
  4  3  1  0
  5  4  1  0
  5  1  1  0
  6 14  1  0
  5  6  1  1
  7  6  2  0
  8  9  1  0
  9 10  2  0
 11  9  1  0
 11 12  1  0
 13 12  1  1
 13 14  1  0
 15 17  1  0
 15 13  1  0
 16 15  2  0
 18 17  1  0
 18 24  1  0
 18 19  1  1
 20 19  1  0
 21 20  1  0
 22 21  1  0
 23 22  1  0
 24 25  1  0
 26 24  2  0
M  END
$$$$
