PQK.pdb
     RDKit          3D

 26 26  0  0  1  0  0  0  0  0999 V2000
    7.1908  -14.8944   20.1463 N   0  0  0  0  0  0  0  0  0  0  0  0
    6.8745  -14.3547   18.8165 C   0  0  0  0  0  0  0  0  0  0  0  0
    7.2196  -12.8806   19.0424 C   0  0  0  0  0  0  0  0  0  0  0  0
    8.5615  -13.0016   19.7498 C   0  0  0  0  0  0  0  0  0  0  0  0
    8.5277  -14.3701   20.3383 C   0  0  1  0  0  0  0  0  0  0  0  0
    8.9691  -14.4466   21.7398 C   0  0  0  0  0  0  0  0  0  0  0  0
   10.2011  -14.3321   21.9694 O   0  0  0  0  0  0  0  0  0  0  0  0
    5.5995  -13.4299   27.0449 N   0  0  0  0  0  0  0  0  0  0  0  0
    6.2667  -12.3760   26.3628 C   0  0  0  0  0  0  0  0  0  0  0  0
    6.0643  -11.2001   26.6934 O   0  0  0  0  0  0  0  0  0  0  0  0
    7.1913  -12.7262   25.2674 C   0  0  0  0  0  0  0  0  0  0  0  0
    7.2837  -14.1737   24.9737 C   0  0  0  0  0  0  0  0  0  0  0  0
    8.5116  -14.6439   24.2343 C   0  0  2  0  0  0  0  0  0  0  0  0
    8.0998  -14.6377   22.8173 N   0  0  0  0  0  0  0  0  0  0  0  0
    8.8578  -16.0278   24.6243 C   0  0  0  0  0  0  0  0  0  0  0  0
    8.0951  -17.0073   24.3269 O   0  0  0  0  0  0  0  0  0  0  0  0
   10.0317  -16.3305   25.3278 N   0  0  0  0  0  0  0  0  0  0  0  0
   10.3565  -17.7521   25.6630 C   0  0  1  0  0  0  0  0  0  0  0  0
   11.7632  -18.0244   25.1946 C   0  0  0  0  0  0  0  0  0  0  0  0
   12.1633  -19.4313   25.4859 C   0  0  0  0  0  0  0  0  0  0  0  0
   13.6135  -19.7176   25.1141 C   0  0  0  0  0  0  0  0  0  0  0  0
   13.8786  -21.1795   25.3501 C   0  0  0  0  0  0  0  0  0  0  0  0
   15.2265  -21.4863   24.8539 N   0  0  0  0  0  0  0  0  0  0  0  0
   10.2634  -17.9349   27.1157 C   0  0  0  0  0  0  0  0  0  0  0  0
   10.1103  -19.1593   27.7141 O   0  0  0  0  0  0  0  0  0  0  0  0
   10.3206  -16.9310   27.8679 O   0  0  0  0  0  0  0  0  0  0  0  0
  1  2  1  0
  3  2  1  0
  4  3  1  0
  5  4  1  0
  5  1  1  0
  6 14  1  0
  5  6  1  1
  7  6  2  0
  8  9  1  0
  9 10  2  0
 11  9  1  0
 11 12  1  0
 13 12  1  1
 13 14  1  0
 15 17  1  0
 15 13  1  0
 16 15  2  0
 18 17  1  0
 18 24  1  0
 18 19  1  1
 20 19  1  0
 21 20  1  0
 22 21  1  0
 23 22  1  0
 24 25  1  0
 26 24  2  0
M  END
$$$$
