PQK.pdb
     RDKit          3D

 26 26  0  0  1  0  0  0  0  0999 V2000
    8.5061  -15.5418   18.7629 N   0  0  0  0  0  0  0  0  0  0  0  0
    8.6561  -14.8880   17.4554 C   0  0  0  0  0  0  0  0  0  0  0  0
    7.5596  -13.8255   17.5656 C   0  0  0  0  0  0  0  0  0  0  0  0
    7.8225  -13.2809   18.9621 C   0  0  0  0  0  0  0  0  0  0  0  0
    8.5434  -14.3924   19.6441 C   0  0  1  0  0  0  0  0  0  0  0  0
    8.0551  -14.7015   20.9973 C   0  0  0  0  0  0  0  0  0  0  0  0
    8.0239  -13.7619   21.8338 O   0  0  0  0  0  0  0  0  0  0  0  0
    6.8649  -20.5816   22.6998 N   0  0  0  0  0  0  0  0  0  0  0  0
    6.5900  -19.9450   23.9409 C   0  0  0  0  0  0  0  0  0  0  0  0
    6.2360  -20.6201   24.9167 O   0  0  0  0  0  0  0  0  0  0  0  0
    6.7382  -18.4792   24.0238 C   0  0  0  0  0  0  0  0  0  0  0  0
    7.0644  -17.8162   22.7416 C   0  0  0  0  0  0  0  0  0  0  0  0
    7.1759  -16.3119   22.7592 C   0  0  2  0  0  0  0  0  0  0  0  0
    7.6288  -15.9711   21.3968 N   0  0  0  0  0  0  0  0  0  0  0  0
    8.2056  -15.8760   23.7271 C   0  0  0  0  0  0  0  0  0  0  0  0
    9.4455  -16.0922   23.5133 O   0  0  0  0  0  0  0  0  0  0  0  0
    7.8753  -15.2056   24.9128 N   0  0  0  0  0  0  0  0  0  0  0  0
    8.9587  -14.6745   25.7978 C   0  0  1  0  0  0  0  0  0  0  0  0
    8.6524  -13.2258   26.0798 C   0  0  0  0  0  0  0  0  0  0  0  0
    7.2549  -13.0585   26.5730 C   0  0  0  0  0  0  0  0  0  0  0  0
    6.9137  -11.6066   26.8871 C   0  0  0  0  0  0  0  0  0  0  0  0
    5.4707  -11.5441   27.3080 C   0  0  0  0  0  0  0  0  0  0  0  0
    5.1687  -10.1624   27.7039 N   0  0  0  0  0  0  0  0  0  0  0  0
    8.9736  -15.4406   27.0489 C   0  0  0  0  0  0  0  0  0  0  0  0
    9.9118  -15.2611   28.0328 O   0  0  0  0  0  0  0  0  0  0  0  0
    8.0928  -16.3135   27.2473 O   0  0  0  0  0  0  0  0  0  0  0  0
  1  2  1  0
  3  2  1  0
  4  3  1  0
  5  4  1  0
  5  1  1  0
  6 14  1  0
  5  6  1  1
  7  6  2  0
  8  9  1  0
  9 10  2  0
 11  9  1  0
 11 12  1  0
 13 12  1  6
 13 14  1  0
 15 17  1  0
 15 13  1  0
 16 15  2  0
 18 17  1  0
 18 24  1  0
 18 19  1  1
 20 19  1  0
 21 20  1  0
 22 21  1  0
 23 22  1  0
 24 25  1  0
 26 24  2  0
M  END
$$$$
