YIV.pdb
     RDKit          3D

 28 28  0  0  1  0  0  0  0  0999 V2000
    2.2853  -19.3787   19.2480 O   0  0  0  0  0  0  0  0  0  0  0  0
    3.3118  -18.9005   20.0369 C   0  0  0  0  0  0  0  0  0  0  0  0
    3.9281  -17.7003   19.6817 C   0  0  0  0  0  0  0  0  0  0  0  0
    4.9471  -17.2705   20.5055 C   0  0  0  0  0  0  0  0  0  0  0  0
    5.3490  -17.9731   21.6220 C   0  0  0  0  0  0  0  0  0  0  0  0
    6.4474  -17.4471   22.4529 C   0  0  0  0  0  0  0  0  0  0  0  0
    6.7860  -16.0136   22.0984 C   0  0  2  0  0  0  0  0  0  0  0  0
    7.4248  -16.0421   20.7957 N   0  0  0  0  0  0  0  0  0  0  0  0
    7.7400  -15.5119   23.1437 C   0  0  0  0  0  0  0  0  0  0  0  0
    8.9786  -15.6407   22.9267 O   0  0  0  0  0  0  0  0  0  0  0  0
    4.7315  -19.1545   21.9588 C   0  0  0  0  0  0  0  0  0  0  0  0
    3.7011  -19.6070   21.1420 C   0  0  0  0  0  0  0  0  0  0  0  0
    6.1915  -11.6258   26.3657 C   0  0  0  0  0  0  0  0  0  0  0  0
    7.1645  -12.4030   25.4598 C   0  0  0  0  0  0  0  0  0  0  0  0
    7.6474  -13.5568   26.2611 C   0  0  2  0  0  0  0  0  0  0  0  0
    8.6311  -13.1825   27.3364 C   0  0  0  0  0  0  0  0  0  0  0  0
    8.2646  -14.6164   25.3754 C   0  0  2  0  0  0  0  0  0  0  0  0
    7.2844  -14.9101   24.3422 N   0  0  0  0  0  0  0  0  0  0  0  0
    8.6992  -15.8273   26.0773 C   0  0  0  0  0  0  0  0  0  0  0  0
    7.8875  -16.5399   26.7076 O   0  0  0  0  0  0  0  0  0  0  0  0
   12.7558  -17.5736   25.7349 C   0  0  0  0  0  0  0  0  0  0  0  0
   11.4368  -18.2927   25.8924 C   0  0  2  0  0  0  0  0  0  0  0  0
   10.8308  -18.4759   24.5232 C   0  0  0  0  0  0  0  0  0  0  0  0
   10.4911  -17.4816   26.7280 C   0  0  2  0  0  0  0  0  0  0  0  0
   10.0570  -16.2708   26.0905 N   0  0  0  0  0  0  0  0  0  0  0  0
   11.0151  -17.2467   28.0966 C   0  0  0  0  0  0  0  0  0  0  0  0
   11.1909  -18.2501   29.0228 O   0  0  0  0  0  0  0  0  0  0  0  0
   11.3209  -16.0714   28.4475 O   0  0  0  0  0  0  0  0  0  0  0  0
  2 12  2  0
  2  1  1  0
  3  2  1  0
  4  5  1  0
  4  3  2  0
  5 11  2  0
  6  5  1  0
  7  6  1  0
  7  8  1  6
  9 18  1  0
  9  7  1  0
 10  9  2  0
 11 12  1  0
 13 14  1  0
 15 16  1  1
 15 14  1  0
 17 18  1  6
 17 15  1  0
 19 17  1  0
 20 19  2  0
 22 21  1  6
 22 24  1  0
 23 22  1  0
 24 26  1  0
 24 25  1  6
 25 19  1  0
 26 27  1  0
 28 26  2  0
M  END
$$$$
