YIV.pdb
     RDKit          3D

 28 28  0  0  1  0  0  0  0  0999 V2000
   12.2065  -17.1244   32.5989 O   0  0  0  0  0  0  0  0  0  0  0  0
   11.6491  -17.1101   31.3364 C   0  0  0  0  0  0  0  0  0  0  0  0
   11.7145  -18.2679   30.5607 C   0  0  0  0  0  0  0  0  0  0  0  0
   11.1415  -18.1965   29.3084 C   0  0  0  0  0  0  0  0  0  0  0  0
   10.5335  -17.0543   28.8314 C   0  0  0  0  0  0  0  0  0  0  0  0
    9.9436  -17.0574   27.4803 C   0  0  0  0  0  0  0  0  0  0  0  0
    8.4356  -17.1974   27.5237 C   0  0  2  0  0  0  0  0  0  0  0  0
    8.1477  -18.6159   27.6287 N   0  0  0  0  0  0  0  0  0  0  0  0
    7.9017  -16.6441   26.2340 C   0  0  0  0  0  0  0  0  0  0  0  0
    7.1422  -17.3806   25.5423 O   0  0  0  0  0  0  0  0  0  0  0  0
   10.4772  -15.9212   29.6082 C   0  0  0  0  0  0  0  0  0  0  0  0
   11.0488  -15.9706   30.8749 C   0  0  0  0  0  0  0  0  0  0  0  0
    6.2161  -11.6856   26.1908 C   0  0  0  0  0  0  0  0  0  0  0  0
    6.3587  -13.2045   25.9804 C   0  0  0  0  0  0  0  0  0  0  0  0
    7.2847  -13.3803   24.8323 C   0  0  2  0  0  0  0  0  0  0  0  0
    6.7944  -12.7576   23.5533 C   0  0  0  0  0  0  0  0  0  0  0  0
    7.5788  -14.8438   24.5873 C   0  0  2  0  0  0  0  0  0  0  0  0
    8.2283  -15.3393   25.7902 N   0  0  0  0  0  0  0  0  0  0  0  0
    8.3707  -15.1186   23.3851 C   0  0  0  0  0  0  0  0  0  0  0  0
    7.9830  -14.7530   22.2538 O   0  0  0  0  0  0  0  0  0  0  0  0
   11.9795  -17.7175   23.2447 C   0  0  0  0  0  0  0  0  0  0  0  0
   11.8520  -16.3739   22.5663 C   0  0  2  0  0  0  0  0  0  0  0  0
   12.3689  -15.3162   23.5094 C   0  0  0  0  0  0  0  0  0  0  0  0
   10.4152  -16.0750   22.2554 C   0  0  2  0  0  0  0  0  0  0  0  0
    9.6194  -15.8114   23.4208 N   0  0  0  0  0  0  0  0  0  0  0  0
    9.8084  -17.1033   21.3738 C   0  0  0  0  0  0  0  0  0  0  0  0
   10.3071  -17.4259   20.1317 O   0  0  0  0  0  0  0  0  0  0  0  0
    8.7803  -17.7251   21.7670 O   0  0  0  0  0  0  0  0  0  0  0  0
  2 12  2  0
  2  1  1  0
  3  2  1  0
  4  5  1  0
  4  3  2  0
  5 11  2  0
  6  5  1  0
  7  6  1  0
  7  8  1  6
  9 18  1  0
  9  7  1  0
 10  9  2  0
 11 12  1  0
 13 14  1  0
 15 16  1  6
 15 14  1  0
 17 18  1  1
 17 15  1  0
 19 17  1  0
 20 19  2  0
 22 21  1  1
 22 24  1  0
 23 22  1  0
 24 26  1  0
 24 25  1  1
 25 19  1  0
 26 27  1  0
 28 26  2  0
M  END
$$$$
