YIV.pdb
     RDKit          3D

 28 28  0  0  1  0  0  0  0  0999 V2000
    6.7817  -13.7664   15.9308 O   0  0  0  0  0  0  0  0  0  0  0  0
    7.0062  -14.0823   17.2555 C   0  0  0  0  0  0  0  0  0  0  0  0
    7.1379  -15.4246   17.6124 C   0  0  0  0  0  0  0  0  0  0  0  0
    7.3610  -15.6816   18.9488 C   0  0  0  0  0  0  0  0  0  0  0  0
    7.4519  -14.6820   19.8945 C   0  0  0  0  0  0  0  0  0  0  0  0
    7.6920  -15.0382   21.3048 C   0  0  0  0  0  0  0  0  0  0  0  0
    9.0640  -14.5971   21.7722 C   0  0  2  0  0  0  0  0  0  0  0  0
   10.0340  -15.3391   20.9883 N   0  0  0  0  0  0  0  0  0  0  0  0
    9.1739  -14.9562   23.2260 C   0  0  0  0  0  0  0  0  0  0  0  0
   10.1326  -15.6989   23.5823 O   0  0  0  0  0  0  0  0  0  0  0  0
    7.3200  -13.3638   19.5268 C   0  0  0  0  0  0  0  0  0  0  0  0
    7.0945  -13.0814   18.1840 C   0  0  0  0  0  0  0  0  0  0  0  0
    6.1872  -11.7010   26.1913 C   0  0  0  0  0  0  0  0  0  0  0  0
    7.4660  -12.3342   25.6125 C   0  0  0  0  0  0  0  0  0  0  0  0
    7.6445  -13.6296   26.3171 C   0  0  2  0  0  0  0  0  0  0  0  0
    8.0848  -13.4886   27.7490 C   0  0  0  0  0  0  0  0  0  0  0  0
    8.6251  -14.5187   25.5850 C   0  0  2  0  0  0  0  0  0  0  0  0
    8.2411  -14.4865   24.1828 N   0  0  0  0  0  0  0  0  0  0  0  0
    8.7128  -15.8892   26.0969 C   0  0  0  0  0  0  0  0  0  0  0  0
    7.6938  -16.6035   26.2199 O   0  0  0  0  0  0  0  0  0  0  0  0
   12.4805  -18.0384   26.6683 C   0  0  0  0  0  0  0  0  0  0  0  0
   11.1224  -18.6498   26.4165 C   0  0  2  0  0  0  0  0  0  0  0  0
   10.8920  -18.6945   24.9265 C   0  0  0  0  0  0  0  0  0  0  0  0
   10.0445  -17.8143   27.0412 C   0  0  2  0  0  0  0  0  0  0  0  0
    9.9473  -16.4945   26.4846 N   0  0  0  0  0  0  0  0  0  0  0  0
   10.1355  -17.8007   28.5226 C   0  0  0  0  0  0  0  0  0  0  0  0
    9.9857  -18.9265   29.3009 O   0  0  0  0  0  0  0  0  0  0  0  0
   10.3615  -16.7084   29.1175 O   0  0  0  0  0  0  0  0  0  0  0  0
  2 12  2  0
  2  1  1  0
  3  2  1  0
  4  5  1  0
  4  3  2  0
  5 11  2  0
  6  5  1  0
  7  6  1  0
  7  8  1  6
  9 18  1  0
  9  7  1  0
 10  9  2  0
 11 12  1  0
 13 14  1  0
 15 16  1  1
 15 14  1  0
 17 18  1  6
 17 15  1  0
 19 17  1  0
 20 19  2  0
 22 21  1  6
 22 24  1  0
 23 22  1  0
 24 26  1  0
 24 25  1  6
 25 19  1  0
 26 27  1  0
 28 26  2  0
M  END
$$$$
