YIV.pdb
     RDKit          3D

 28 28  0  0  1  0  0  0  0  0999 V2000
    2.9613  -21.9792   21.3952 O   0  0  0  0  0  0  0  0  0  0  0  0
    3.9223  -21.1149   21.8795 C   0  0  0  0  0  0  0  0  0  0  0  0
    3.8273  -20.6780   23.2010 C   0  0  0  0  0  0  0  0  0  0  0  0
    4.8141  -19.8161   23.6311 C   0  0  0  0  0  0  0  0  0  0  0  0
    5.8450  -19.3979   22.8162 C   0  0  0  0  0  0  0  0  0  0  0  0
    6.8625  -18.4745   23.3506 C   0  0  0  0  0  0  0  0  0  0  0  0
    6.5785  -17.0374   22.9638 C   0  0  2  0  0  0  0  0  0  0  0  0
    6.7935  -16.9369   21.5321 N   0  0  0  0  0  0  0  0  0  0  0  0
    7.5587  -16.1762   23.7068 C   0  0  0  0  0  0  0  0  0  0  0  0
    8.7380  -16.0985   23.2588 O   0  0  0  0  0  0  0  0  0  0  0  0
    5.9247  -19.8376   21.5159 C   0  0  0  0  0  0  0  0  0  0  0  0
    4.9400  -20.7075   21.0608 C   0  0  0  0  0  0  0  0  0  0  0  0
    5.8495  -12.0636   26.7144 C   0  0  0  0  0  0  0  0  0  0  0  0
    6.6552  -12.8982   25.7016 C   0  0  0  0  0  0  0  0  0  0  0  0
    7.5517  -13.7714   26.5018 C   0  0  2  0  0  0  0  0  0  0  0  0
    8.5914  -13.0197   27.2880 C   0  0  0  0  0  0  0  0  0  0  0  0
    8.2402  -14.7953   25.6266 C   0  0  2  0  0  0  0  0  0  0  0  0
    7.1909  -15.4657   24.8755 N   0  0  0  0  0  0  0  0  0  0  0  0
    9.0909  -15.7468   26.3468 C   0  0  0  0  0  0  0  0  0  0  0  0
    8.6358  -16.4547   27.2718 O   0  0  0  0  0  0  0  0  0  0  0  0
   13.4756  -16.1228   25.7825 C   0  0  0  0  0  0  0  0  0  0  0  0
   12.5199  -17.2843   25.9207 C   0  0  2  0  0  0  0  0  0  0  0  0
   12.0683  -17.6929   24.5407 C   0  0  0  0  0  0  0  0  0  0  0  0
   11.3143  -16.8826   26.7178 C   0  0  2  0  0  0  0  0  0  0  0  0
   10.4758  -15.9292   26.0478 N   0  0  0  0  0  0  0  0  0  0  0  0
   11.6705  -16.4572   28.0944 C   0  0  0  0  0  0  0  0  0  0  0  0
   12.1584  -17.3189   29.0510 O   0  0  0  0  0  0  0  0  0  0  0  0
   11.5251  -15.2453   28.4234 O   0  0  0  0  0  0  0  0  0  0  0  0
  2 12  2  0
  2  1  1  0
  3  2  1  0
  4  5  1  0
  4  3  2  0
  5 11  2  0
  6  5  1  0
  7  6  1  0
  7  8  1  6
  9 18  1  0
  9  7  1  0
 10  9  2  0
 11 12  1  0
 13 14  1  0
 15 16  1  6
 15 14  1  0
 17 18  1  1
 17 15  1  0
 19 17  1  0
 20 19  2  0
 22 21  1  6
 22 24  1  0
 23 22  1  0
 24 26  1  0
 24 25  1  6
 25 19  1  0
 26 27  1  0
 28 26  2  0
M  END
$$$$
