ACP.pdb
     RDKit          3D

 19 19  0  0  1  0  0  0  0  0999 V2000
   19.8713  -12.9166  -17.4405 C   0  0  0  0  0  0  0  0  0  0  0  0
   20.2106  -11.5635  -17.9722 C   0  0  2  0  0  0  0  0  0  0  0  0
   21.5426  -11.6625  -18.5773 N   0  0  0  0  0  0  0  0  0  0  0  0
   20.2313  -10.5009  -16.9642 C   0  0  0  0  0  0  0  0  0  0  0  0
   19.2314  -10.1991  -16.2484 O   0  0  0  0  0  0  0  0  0  0  0  0
   21.4041   -9.7147  -16.7089 N   0  0  0  0  0  0  0  0  0  0  0  0
   21.4331   -8.6897  -15.7439 C   0  0  1  0  0  0  0  0  0  0  0  0
   22.6686   -8.7961  -14.8316 C   0  0  0  0  0  0  0  0  0  0  0  0
   22.4955  -10.2241  -13.7359 S   0  0  0  0  0  0  0  0  0  0  0  0
   21.2247   -7.3227  -16.1737 C   0  0  0  0  0  0  0  0  0  0  0  0
   21.9677   -6.8393  -17.1152 O   0  0  0  0  0  0  0  0  0  0  0  0
   20.2724   -6.4428  -15.6614 N   0  0  0  0  0  0  0  0  0  0  0  0
   19.2839   -6.7142  -14.6561 C   0  0  0  0  0  0  0  0  0  0  0  0
   18.9896   -5.3139  -14.0903 C   0  0  0  0  0  0  0  0  0  0  0  0
   18.9305   -4.5134  -15.3682 C   0  0  0  0  0  0  0  0  0  0  0  0
   20.1445   -5.0345  -16.0901 C   0  0  1  0  0  0  0  0  0  0  0  0
   21.3350   -4.2608  -15.7297 C   0  0  0  0  0  0  0  0  0  0  0  0
   22.1317   -4.7156  -14.8722 O   0  0  0  0  0  0  0  0  0  0  0  0
   21.6053   -3.0374  -16.3120 O   0  0  0  0  0  0  0  0  0  0  0  0
  2  1  1  1
  2  3  1  0
  4  2  1  0
  5  4  2  0
  6  4  1  0
  7  8  1  6
  7  6  1  0
  9  8  1  0
 10 12  1  0
 10  7  1  0
 11 10  2  0
 12 16  1  0
 13 14  1  0
 13 12  1  0
 14 15  1  0
 15 16  1  0
 16 17  1  1
 17 18  2  0
 17 19  1  0
M  END
$$$$
