ACP.pdb
     RDKit          3D

 19 19  0  0  1  0  0  0  0  0999 V2000
   19.3488  -15.3535  -18.7635 C   0  0  0  0  0  0  0  0  0  0  0  0
   18.9227  -14.4339  -17.6673 C   0  0  2  0  0  0  0  0  0  0  0  0
   17.5359  -14.0478  -17.9466 N   0  0  0  0  0  0  0  0  0  0  0  0
   19.7317  -13.2192  -17.5429 C   0  0  0  0  0  0  0  0  0  0  0  0
   20.9057  -13.2086  -17.0688 O   0  0  0  0  0  0  0  0  0  0  0  0
   19.2465  -11.9340  -17.9577 N   0  0  0  0  0  0  0  0  0  0  0  0
   20.0010  -10.7549  -17.8056 C   0  0  1  0  0  0  0  0  0  0  0  0
   19.9430   -9.8710  -19.0648 C   0  0  0  0  0  0  0  0  0  0  0  0
   18.3468   -9.0245  -19.1416 S   0  0  0  0  0  0  0  0  0  0  0  0
   19.8185   -9.9610  -16.6085 C   0  0  0  0  0  0  0  0  0  0  0  0
   18.6296   -9.8269  -16.1181 O   0  0  0  0  0  0  0  0  0  0  0  0
   20.8263   -9.3040  -15.9039 N   0  0  0  0  0  0  0  0  0  0  0  0
   22.2298   -9.2801  -16.2057 C   0  0  0  0  0  0  0  0  0  0  0  0
   22.6957   -7.9811  -15.5253 C   0  0  0  0  0  0  0  0  0  0  0  0
   21.9501   -8.0792  -14.2170 C   0  0  0  0  0  0  0  0  0  0  0  0
   20.5829   -8.4894  -14.6954 C   0  0  1  0  0  0  0  0  0  0  0  0
   19.7664   -7.3133  -15.0049 C   0  0  0  0  0  0  0  0  0  0  0  0
   19.6366   -6.9477  -16.1992 O   0  0  0  0  0  0  0  0  0  0  0  0
   19.1321   -6.5924  -14.0115 O   0  0  0  0  0  0  0  0  0  0  0  0
  2  1  1  6
  2  3  1  0
  4  2  1  0
  5  4  2  0
  6  4  1  0
  7  8  1  6
  7  6  1  0
  9  8  1  0
 10 12  1  0
 10  7  1  0
 11 10  2  0
 12 16  1  0
 13 14  1  0
 13 12  1  0
 14 15  1  0
 15 16  1  0
 16 17  1  6
 17 18  2  0
 17 19  1  0
M  END
$$$$
