ACP.pdb
     RDKit          3D

 19 19  0  0  1  0  0  0  0  0999 V2000
   26.4619  -22.8435  -18.2896 C   0  0  0  0  0  0  0  0  0  0  0  0
   27.6425  -22.1306  -17.7180 C   0  0  2  0  0  0  0  0  0  0  0  0
   28.7675  -23.0707  -17.7499 N   0  0  0  0  0  0  0  0  0  0  0  0
   27.4627  -21.6609  -16.3423 C   0  0  0  0  0  0  0  0  0  0  0  0
   27.8239  -22.3243  -15.3261 O   0  0  0  0  0  0  0  0  0  0  0  0
   26.8575  -20.3951  -16.0416 N   0  0  0  0  0  0  0  0  0  0  0  0
   26.6774  -19.9365  -14.7225 C   0  0  1  0  0  0  0  0  0  0  0  0
   26.6212  -18.3996  -14.6528 C   0  0  0  0  0  0  0  0  0  0  0  0
   28.1886  -17.7061  -15.2292 S   0  0  0  0  0  0  0  0  0  0  0  0
   25.6303  -20.5286  -13.9164 C   0  0  0  0  0  0  0  0  0  0  0  0
   24.5377  -20.9150  -14.4899 O   0  0  0  0  0  0  0  0  0  0  0  0
   25.6794  -20.7340  -12.5383 N   0  0  0  0  0  0  0  0  0  0  0  0
   26.7799  -20.4703  -11.6547 C   0  0  0  0  0  0  0  0  0  0  0  0
   26.0816  -20.2917  -10.2954 C   0  0  0  0  0  0  0  0  0  0  0  0
   25.0869  -21.4251  -10.3519 C   0  0  0  0  0  0  0  0  0  0  0  0
   24.5492  -21.2661  -11.7491 C   0  0  1  0  0  0  0  0  0  0  0  0
   23.4109  -20.3444  -11.7659 C   0  0  0  0  0  0  0  0  0  0  0  0
   23.5869  -19.1508  -12.1141 O   0  0  0  0  0  0  0  0  0  0  0  0
   22.1421  -20.7565  -11.4067 O   0  0  0  0  0  0  0  0  0  0  0  0
  2  1  1  1
  2  3  1  0
  4  2  1  0
  5  4  2  0
  6  4  1  0
  7  8  1  6
  7  6  1  0
  9  8  1  0
 10 12  1  0
 10  7  1  0
 11 10  2  0
 12 16  1  0
 13 14  1  0
 13 12  1  0
 14 15  1  0
 15 16  1  0
 16 17  1  1
 17 18  2  0
 17 19  1  0
M  END
$$$$
