ACP.pdb
     RDKit          3D

 19 19  0  0  1  0  0  0  0  0999 V2000
   15.4157  -10.5685  -15.1718 C   0  0  0  0  0  0  0  0  0  0  0  0
   16.5830  -11.2968  -15.7513 C   0  0  2  0  0  0  0  0  0  0  0  0
   16.6503  -12.5998  -15.0820 N   0  0  0  0  0  0  0  0  0  0  0  0
   17.8693  -10.6165  -15.5836 C   0  0  0  0  0  0  0  0  0  0  0  0
   18.5009  -10.5794  -14.4868 O   0  0  0  0  0  0  0  0  0  0  0  0
   18.5181   -9.9345  -16.6666 N   0  0  0  0  0  0  0  0  0  0  0  0
   19.6991   -9.1878  -16.4918 C   0  0  1  0  0  0  0  0  0  0  0  0
   20.5636   -9.1760  -17.7656 C   0  0  0  0  0  0  0  0  0  0  0  0
   21.2447  -10.8260  -18.0547 S   0  0  0  0  0  0  0  0  0  0  0  0
   19.6057   -7.8612  -15.9188 C   0  0  0  0  0  0  0  0  0  0  0  0
   18.6460   -7.0802  -16.2943 O   0  0  0  0  0  0  0  0  0  0  0  0
   20.4721   -7.3195  -14.9703 N   0  0  0  0  0  0  0  0  0  0  0  0
   21.6107   -7.9515  -14.3657 C   0  0  0  0  0  0  0  0  0  0  0  0
   22.4718   -6.7503  -13.9382 C   0  0  0  0  0  0  0  0  0  0  0  0
   21.4071   -5.8429  -13.3721 C   0  0  0  0  0  0  0  0  0  0  0  0
   20.3452   -5.9485  -14.4340 C   0  0  1  0  0  0  0  0  0  0  0  0
   20.5575   -4.9478  -15.4824 C   0  0  0  0  0  0  0  0  0  0  0  0
   20.1858   -3.7637  -15.2911 O   0  0  0  0  0  0  0  0  0  0  0  0
   21.1592   -5.2748  -16.6822 O   0  0  0  0  0  0  0  0  0  0  0  0
  2  1  1  1
  2  3  1  0
  4  2  1  0
  5  4  2  0
  6  4  1  0
  7  8  1  6
  7  6  1  0
  9  8  1  0
 10 12  1  0
 10  7  1  0
 11 10  2  0
 12 16  1  0
 13 14  1  0
 13 12  1  0
 14 15  1  0
 15 16  1  0
 16 17  1  6
 17 18  2  0
 17 19  1  0
M  END
$$$$
