ACP.pdb
     RDKit          3D

 19 19  0  0  1  0  0  0  0  0999 V2000
   18.8554  -10.0726  -19.5878 C   0  0  0  0  0  0  0  0  0  0  0  0
   20.0794  -10.7463  -19.0618 C   0  0  2  0  0  0  0  0  0  0  0  0
   19.7816  -12.1803  -18.9892 N   0  0  0  0  0  0  0  0  0  0  0  0
   20.5048  -10.2881  -17.7371 C   0  0  0  0  0  0  0  0  0  0  0  0
   19.7667  -10.3430  -16.7099 O   0  0  0  0  0  0  0  0  0  0  0  0
   21.8092   -9.7380  -17.5031 N   0  0  0  0  0  0  0  0  0  0  0  0
   22.2280   -9.2967  -16.2332 C   0  0  1  0  0  0  0  0  0  0  0  0
   23.7503   -9.4369  -16.0510 C   0  0  0  0  0  0  0  0  0  0  0  0
   24.1765  -11.1767  -15.8035 S   0  0  0  0  0  0  0  0  0  0  0  0
   21.7672   -8.0094  -15.7564 C   0  0  0  0  0  0  0  0  0  0  0  0
   21.8673   -6.9793  -16.5316 O   0  0  0  0  0  0  0  0  0  0  0  0
   21.2061   -7.7560  -14.5056 N   0  0  0  0  0  0  0  0  0  0  0  0
   20.9015   -8.7089  -13.4758 C   0  0  0  0  0  0  0  0  0  0  0  0
   20.9152   -7.8427  -12.2043 C   0  0  0  0  0  0  0  0  0  0  0  0
   20.1732   -6.6253  -12.6991 C   0  0  0  0  0  0  0  0  0  0  0  0
   20.8378   -6.4057  -14.0319 C   0  0  1  0  0  0  0  0  0  0  0  0
   22.0206   -5.5537  -13.8884 C   0  0  0  0  0  0  0  0  0  0  0  0
   23.1633   -6.0741  -13.9061 O   0  0  0  0  0  0  0  0  0  0  0  0
   21.9109   -4.1852  -13.7333 O   0  0  0  0  0  0  0  0  0  0  0  0
  2  1  1  1
  2  3  1  0
  4  2  1  0
  5  4  2  0
  6  4  1  0
  7  8  1  6
  7  6  1  0
  9  8  1  0
 10 12  1  0
 10  7  1  0
 11 10  2  0
 12 16  1  0
 13 14  1  0
 13 12  1  0
 14 15  1  0
 15 16  1  0
 16 17  1  1
 17 18  2  0
 17 19  1  0
M  END
$$$$
