ACP.pdb
     RDKit          3D

 19 19  0  0  1  0  0  0  0  0999 V2000
   13.7761   -7.4368  -14.6032 C   0  0  0  0  0  0  0  0  0  0  0  0
   14.0354   -7.1656  -13.1581 C   0  0  2  0  0  0  0  0  0  0  0  0
   13.0207   -6.2049  -12.7136 N   0  0  0  0  0  0  0  0  0  0  0  0
   15.3614   -6.6137  -12.8707 C   0  0  0  0  0  0  0  0  0  0  0  0
   15.7943   -5.5380  -13.3793 O   0  0  0  0  0  0  0  0  0  0  0  0
   16.2790   -7.2600  -11.9767 N   0  0  0  0  0  0  0  0  0  0  0  0
   17.5935   -6.7968  -11.7760 C   0  0  1  0  0  0  0  0  0  0  0  0
   18.1084   -7.1276  -10.3634 C   0  0  0  0  0  0  0  0  0  0  0  0
   17.0894   -6.2837   -9.1306 S   0  0  0  0  0  0  0  0  0  0  0  0
   18.5977   -7.0972  -12.7752 C   0  0  0  0  0  0  0  0  0  0  0  0
   18.6258   -8.2770  -13.3036 O   0  0  0  0  0  0  0  0  0  0  0  0
   19.5708   -6.2158  -13.2442 N   0  0  0  0  0  0  0  0  0  0  0  0
   19.8112   -4.8686  -12.8100 C   0  0  0  0  0  0  0  0  0  0  0  0
   21.2873   -4.6543  -13.1873 C   0  0  0  0  0  0  0  0  0  0  0  0
   21.3108   -5.2887  -14.5564 C   0  0  0  0  0  0  0  0  0  0  0  0
   20.5488   -6.5608  -14.2967 C   0  0  1  0  0  0  0  0  0  0  0  0
   21.4515   -7.6256  -13.8526 C   0  0  0  0  0  0  0  0  0  0  0  0
   21.5786   -7.8563  -12.6248 O   0  0  0  0  0  0  0  0  0  0  0  0
   22.1704   -8.3864  -14.7544 O   0  0  0  0  0  0  0  0  0  0  0  0
  2  1  1  6
  2  3  1  0
  4  2  1  0
  5  4  2  0
  6  4  1  0
  7  8  1  1
  7  6  1  0
  9  8  1  0
 10 12  1  0
 10  7  1  0
 11 10  2  0
 12 16  1  0
 13 14  1  0
 13 12  1  0
 14 15  1  0
 15 16  1  0
 16 17  1  1
 17 18  2  0
 17 19  1  0
M  END
$$$$
