HRF.pdb
     RDKit          3D

 33 34  0  0  1  0  0  0  0  0999 V2000
    7.1250  -20.2296   21.1893 N   0  0  0  0  0  0  0  0  0  0  0  0
    6.9277  -19.1657   22.1450 C   0  0  1  0  0  0  0  0  0  0  0  0
    6.9763  -19.7661   23.5330 C   0  0  0  0  0  0  0  0  0  0  0  0
    5.8229  -20.6834   23.7054 C   0  0  0  0  0  0  0  0  0  0  0  0
    4.8680  -21.0486   22.7798 C   0  0  0  0  0  0  0  0  0  0  0  0
    4.0064  -21.9009   23.3618 N   0  0  0  0  0  0  0  0  0  0  0  0
    4.3924  -22.0835   24.6314 C   0  0  0  0  0  0  0  0  0  0  0  0
    5.4909  -21.3458   24.8350 N   0  0  0  0  0  0  0  0  0  0  0  0
    7.9494  -18.0809   21.9968 C   0  0  0  0  0  0  0  0  0  0  0  0
    9.1260  -18.4403   21.7980 O   0  0  0  0  0  0  0  0  0  0  0  0
    8.6375  -13.3940   16.0765 N   0  0  0  0  0  0  0  0  0  0  0  0
    8.7276  -14.1168   17.3109 C   0  0  0  0  0  0  0  0  0  0  0  0
    8.6384  -15.3988   17.3333 N   0  0  0  0  0  0  0  0  0  0  0  0
    8.9223  -13.3982   18.5099 N   0  0  0  0  0  0  0  0  0  0  0  0
    7.8256  -13.2003   19.4155 C   0  0  0  0  0  0  0  0  0  0  0  0
    7.4331  -14.4825   20.1051 C   0  0  0  0  0  0  0  0  0  0  0  0
    7.7559  -14.4043   21.5627 C   0  0  0  0  0  0  0  0  0  0  0  0
    8.4599  -15.6203   22.0694 C   0  0  2  0  0  0  0  0  0  0  0  0
    7.5118  -16.7491   22.0917 N   0  0  0  0  0  0  0  0  0  0  0  0
    8.9378  -15.4579   23.4509 C   0  0  0  0  0  0  0  0  0  0  0  0
    9.9767  -14.7178   23.6282 O   0  0  0  0  0  0  0  0  0  0  0  0
    8.7888  -15.8845   18.2425 N   0  0  0  0  0  0  0  0  0  0  0  0
    8.3561  -16.0366   24.6020 C   0  0  1  0  0  0  0  0  0  0  0  0
    8.9372  -15.8260   25.9288 C   0  0  0  0  0  0  0  0  0  0  0  0
    7.8691  -15.2939   26.8565 C   0  0  0  0  0  0  0  0  0  0  0  0
    7.5305  -13.8943   26.5939 C   0  0  0  0  0  0  0  0  0  0  0  0
    8.4528  -12.8598   26.6477 C   0  0  0  0  0  0  0  0  0  0  0  0
    8.1179  -11.5482   26.3942 C   0  0  0  0  0  0  0  0  0  0  0  0
    6.7992  -11.2746   26.0745 C   0  0  0  0  0  0  0  0  0  0  0  0
    5.8383  -12.2585   26.0055 C   0  0  0  0  0  0  0  0  0  0  0  0
    6.2148  -13.5576   26.2660 C   0  0  0  0  0  0  0  0  0  0  0  0
    9.5916  -17.0538   26.4212 O   0  0  0  0  0  0  0  0  0  0  0  0
    9.5949  -18.1357   25.7381 O   0  0  0  0  0  0  0  0  0  0  0  0
  2  1  1  6
  2  3  1  0
  3  4  1  0
  4  8  1  0
  5  6  1  0
  5  4  2  0
  6  7  1  0
  7  8  2  0
  9  2  1  0
  9 10  2  0
 11 12  1  0
 12 14  1  0
 13 12  2  0
 14 15  1  0
 16 17  1  0
 16 15  1  0
 18 19  1  0
 18 17  1  1
 19  9  1  0
 20 18  1  0
 21 20  2  0
 22 20  1  0
 23 24  1  1
 23 22  1  0
 24 25  1  0
 25 30  2  0
 26 27  2  0
 26 25  1  0
 27 28  1  0
 28 29  2  0
 30 29  1  0
 31 33  1  0
 31 23  1  0
 32 31  2  0
M  END
$$$$
