HRF.pdb
     RDKit          3D

 33 34  0  0  1  0  0  0  0  0999 V2000
    8.7350  -19.1263   19.5655 N   0  0  0  0  0  0  0  0  0  0  0  0
    7.9505  -18.3884   20.5269 C   0  0  1  0  0  0  0  0  0  0  0  0
    7.4639  -19.3591   21.5805 C   0  0  0  0  0  0  0  0  0  0  0  0
    6.5021  -20.3045   20.9619 C   0  0  0  0  0  0  0  0  0  0  0  0
    6.0581  -20.3495   19.6570 C   0  0  0  0  0  0  0  0  0  0  0  0
    5.1901  -21.3685   19.5312 N   0  0  0  0  0  0  0  0  0  0  0  0
    5.0742  -21.9684   20.7232 C   0  0  0  0  0  0  0  0  0  0  0  0
    5.8691  -21.3222   21.5853 N   0  0  0  0  0  0  0  0  0  0  0  0
    8.7302  -17.2717   21.1495 C   0  0  0  0  0  0  0  0  0  0  0  0
    9.7659  -17.5857   21.7674 O   0  0  0  0  0  0  0  0  0  0  0  0
    7.7712  -15.2037   16.0361 N   0  0  0  0  0  0  0  0  0  0  0  0
    8.2246  -14.1205   16.8577 C   0  0  0  0  0  0  0  0  0  0  0  0
    9.3392  -13.5286   16.6141 N   0  0  0  0  0  0  0  0  0  0  0  0
    7.4233  -13.7051   17.9428 N   0  0  0  0  0  0  0  0  0  0  0  0
    7.8808  -12.6609   18.8159 C   0  0  0  0  0  0  0  0  0  0  0  0
    8.9447  -13.1529   19.7645 C   0  0  0  0  0  0  0  0  0  0  0  0
    8.3301  -13.5499   21.0681 C   0  0  0  0  0  0  0  0  0  0  0  0
    8.9083  -14.8095   21.6250 C   0  0  2  0  0  0  0  0  0  0  0  0
    8.2424  -15.9633   20.9936 N   0  0  0  0  0  0  0  0  0  0  0  0
    8.6766  -14.9423   23.0714 C   0  0  0  0  0  0  0  0  0  0  0  0
    7.7957  -14.1642   23.5975 O   0  0  0  0  0  0  0  0  0  0  0  0
    9.8335  -13.7608   15.7270 N   0  0  0  0  0  0  0  0  0  0  0  0
    9.3301  -15.8511   23.9348 C   0  0  1  0  0  0  0  0  0  0  0  0
    9.3537  -15.6336   25.3821 C   0  0  0  0  0  0  0  0  0  0  0  0
    7.9391  -15.6842   25.9118 C   0  0  0  0  0  0  0  0  0  0  0  0
    7.3658  -14.3563   26.1366 C   0  0  0  0  0  0  0  0  0  0  0  0
    6.1808  -13.9255   25.5588 C   0  0  0  0  0  0  0  0  0  0  0  0
    5.6533  -12.6733   25.7839 C   0  0  0  0  0  0  0  0  0  0  0  0
    6.3528  -11.8260   26.6258 C   0  0  0  0  0  0  0  0  0  0  0  0
    7.5342  -12.1965   27.2286 C   0  0  0  0  0  0  0  0  0  0  0  0
    8.0275  -13.4577   26.9772 C   0  0  0  0  0  0  0  0  0  0  0  0
   10.2690  -16.5825   26.0453 O   0  0  0  0  0  0  0  0  0  0  0  0
   10.9045  -17.4770   25.3873 O   0  0  0  0  0  0  0  0  0  0  0  0
  2  1  1  6
  2  3  1  0
  3  4  1  0
  4  8  1  0
  5  6  1  0
  5  4  2  0
  6  7  1  0
  7  8  2  0
  9  2  1  0
  9 10  2  0
 11 12  1  0
 12 14  1  0
 13 12  2  0
 14 15  1  0
 16 17  1  0
 16 15  1  0
 18 19  1  0
 18 17  1  6
 19  9  1  0
 20 18  1  0
 21 20  2  0
 22 20  1  0
 23 24  1  1
 23 22  1  0
 24 25  1  0
 25 30  2  0
 26 27  2  0
 26 25  1  0
 27 28  1  0
 28 29  2  0
 30 29  1  0
 31 33  1  0
 31 23  1  0
 32 31  2  0
M  END
$$$$
