HRF.pdb
     RDKit          3D

 33 34  0  0  1  0  0  0  0  0999 V2000
    7.6944  -21.7431   23.8624 N   0  0  0  0  0  0  0  0  0  0  0  0
    6.6688  -20.7380   24.0110 C   0  0  1  0  0  0  0  0  0  0  0  0
    5.9532  -20.9868   25.3207 C   0  0  0  0  0  0  0  0  0  0  0  0
    5.1953  -22.2589   25.2253 C   0  0  0  0  0  0  0  0  0  0  0  0
    4.3448  -22.6809   24.2251 C   0  0  0  0  0  0  0  0  0  0  0  0
    3.8732  -23.8987   24.5447 N   0  0  0  0  0  0  0  0  0  0  0  0
    4.4040  -24.2569   25.7212 C   0  0  0  0  0  0  0  0  0  0  0  0
    5.2027  -23.2629   26.1292 N   0  0  0  0  0  0  0  0  0  0  0  0
    7.2311  -19.3508   23.9653 C   0  0  0  0  0  0  0  0  0  0  0  0
    8.0679  -19.0545   24.8399 O   0  0  0  0  0  0  0  0  0  0  0  0
    9.7605  -14.3594   19.6450 N   0  0  0  0  0  0  0  0  0  0  0  0
    8.8900  -13.2428   19.4226 C   0  0  0  0  0  0  0  0  0  0  0  0
    9.3622  -12.0905   19.1043 N   0  0  0  0  0  0  0  0  0  0  0  0
    7.4968  -13.4269   19.5532 N   0  0  0  0  0  0  0  0  0  0  0  0
    6.9688  -14.7277   19.8551 C   0  0  0  0  0  0  0  0  0  0  0  0
    7.3799  -15.1915   21.2297 C   0  0  0  0  0  0  0  0  0  0  0  0
    6.8882  -16.5820   21.4736 C   0  0  0  0  0  0  0  0  0  0  0  0
    7.3095  -17.1245   22.8000 C   0  0  2  0  0  0  0  0  0  0  0  0
    6.7788  -18.4918   22.9495 N   0  0  0  0  0  0  0  0  0  0  0  0
    6.7647  -16.3472   23.9235 C   0  0  0  0  0  0  0  0  0  0  0  0
    5.5169  -16.5094   24.1975 O   0  0  0  0  0  0  0  0  0  0  0  0
    8.6914  -11.3034   18.9803 N   0  0  0  0  0  0  0  0  0  0  0  0
    7.4889  -15.4422   24.7328 C   0  0  2  0  0  0  0  0  0  0  0  0
    6.8099  -14.6051   25.7231 C   0  0  0  0  0  0  0  0  0  0  0  0
    7.0995  -15.1429   27.1056 C   0  0  0  0  0  0  0  0  0  0  0  0
    8.4598  -14.8489   27.5591 C   0  0  0  0  0  0  0  0  0  0  0  0
    9.4808  -15.7874   27.5779 C   0  0  0  0  0  0  0  0  0  0  0  0
   10.7568  -15.4930   28.0046 C   0  0  0  0  0  0  0  0  0  0  0  0
   11.0074  -14.1993   28.4282 C   0  0  0  0  0  0  0  0  0  0  0  0
   10.0353  -13.2240   28.4327 C   0  0  0  0  0  0  0  0  0  0  0  0
    8.7721  -13.5599   27.9981 C   0  0  0  0  0  0  0  0  0  0  0  0
    7.1710  -13.1844   25.5523 O   0  0  0  0  0  0  0  0  0  0  0  0
    8.0395  -12.8089   24.6910 O   0  0  0  0  0  0  0  0  0  0  0  0
  2  1  1  1
  2  3  1  0
  3  4  1  0
  4  8  1  0
  5  6  1  0
  5  4  2  0
  6  7  1  0
  7  8  2  0
  9  2  1  0
  9 10  2  0
 11 12  1  0
 12 14  1  0
 13 12  2  0
 14 15  1  0
 16 17  1  0
 16 15  1  0
 18 19  1  0
 18 17  1  6
 19  9  1  0
 20 18  1  0
 21 20  2  0
 22 20  1  0
 23 24  1  6
 23 22  1  0
 24 25  1  0
 25 30  2  0
 26 27  2  0
 26 25  1  0
 27 28  1  0
 28 29  2  0
 30 29  1  0
 31 33  1  0
 31 23  1  0
 32 31  2  0
M  END
$$$$
