HRF.pdb
     RDKit          3D

 33 34  0  0  1  0  0  0  0  0999 V2000
    9.8945  -15.7299   18.0260 N   0  0  0  0  0  0  0  0  0  0  0  0
    8.6287  -15.4100   18.6423 C   0  0  1  0  0  0  0  0  0  0  0  0
    7.5250  -15.8762   17.7183 C   0  0  0  0  0  0  0  0  0  0  0  0
    7.5935  -15.1044   16.4529 C   0  0  0  0  0  0  0  0  0  0  0  0
    8.5361  -14.1775   16.0602 C   0  0  0  0  0  0  0  0  0  0  0  0
    8.2113  -13.7229   14.8373 N   0  0  0  0  0  0  0  0  0  0  0  0
    7.0876  -14.3389   14.4473 C   0  0  0  0  0  0  0  0  0  0  0  0
    6.7175  -15.1733   15.4268 N   0  0  0  0  0  0  0  0  0  0  0  0
    8.4899  -16.0339   19.9966 C   0  0  0  0  0  0  0  0  0  0  0  0
    7.4153  -15.8405   20.5971 O   0  0  0  0  0  0  0  0  0  0  0  0
   11.8848  -23.0959   23.6347 N   0  0  0  0  0  0  0  0  0  0  0  0
   10.6646  -22.5828   24.1841 C   0  0  0  0  0  0  0  0  0  0  0  0
    9.8500  -23.3511   24.8151 N   0  0  0  0  0  0  0  0  0  0  0  0
   10.3688  -21.2117   24.0271 N   0  0  0  0  0  0  0  0  0  0  0  0
   11.2049  -20.3858   23.2020 C   0  0  0  0  0  0  0  0  0  0  0  0
   10.8348  -18.9284   23.3147 C   0  0  0  0  0  0  0  0  0  0  0  0
   10.7286  -18.3164   21.9549 C   0  0  0  0  0  0  0  0  0  0  0  0
    9.5054  -17.4754   21.7887 C   0  0  2  0  0  0  0  0  0  0  0  0
    9.5712  -16.7851   20.4876 N   0  0  0  0  0  0  0  0  0  0  0  0
    9.4061  -16.4206   22.8089 C   0  0  0  0  0  0  0  0  0  0  0  0
   10.2896  -15.4843   22.7714 O   0  0  0  0  0  0  0  0  0  0  0  0
    9.0017  -22.9218   25.2406 N   0  0  0  0  0  0  0  0  0  0  0  0
    8.4250  -16.3393   23.8234 C   0  0  2  0  0  0  0  0  0  0  0  0
    8.4079  -15.2226   24.7695 C   0  0  0  0  0  0  0  0  0  0  0  0
    7.2922  -14.2746   24.3939 C   0  0  0  0  0  0  0  0  0  0  0  0
    7.0987  -13.2041   25.3731 C   0  0  0  0  0  0  0  0  0  0  0  0
    6.1751  -13.2681   26.4058 C   0  0  0  0  0  0  0  0  0  0  0  0
    6.0082  -12.2527   27.3212 C   0  0  0  0  0  0  0  0  0  0  0  0
    6.8070  -11.1304   27.1848 C   0  0  0  0  0  0  0  0  0  0  0  0
    7.7413  -11.0085   26.1807 C   0  0  0  0  0  0  0  0  0  0  0  0
    7.8767  -12.0469   25.2859 C   0  0  0  0  0  0  0  0  0  0  0  0
    8.3292  -15.7086   26.1608 O   0  0  0  0  0  0  0  0  0  0  0  0
    7.6101  -16.7166   26.4825 O   0  0  0  0  0  0  0  0  0  0  0  0
  2  1  1  6
  2  3  1  0
  3  4  1  0
  4  8  1  0
  5  6  1  0
  5  4  2  0
  6  7  1  0
  7  8  2  0
  9  2  1  0
  9 10  2  0
 11 12  1  0
 12 14  1  0
 13 12  2  0
 14 15  1  0
 16 17  1  0
 16 15  1  0
 18 19  1  0
 18 17  1  1
 19  9  1  0
 20 18  1  0
 21 20  2  0
 22 20  1  0
 23 24  1  6
 23 22  1  0
 24 25  1  0
 25 30  2  0
 26 27  2  0
 26 25  1  0
 27 28  1  0
 28 29  2  0
 30 29  1  0
 31 33  1  0
 31 23  1  0
 32 31  2  0
M  END
$$$$
