HRF.pdb
     RDKit          3D

 33 34  0  0  1  0  0  0  0  0999 V2000
    7.9585  -16.4704   19.1999 N   0  0  0  0  0  0  0  0  0  0  0  0
    8.1303  -15.6354   20.3650 C   0  0  1  0  0  0  0  0  0  0  0  0
    7.2267  -14.4309   20.2171 C   0  0  0  0  0  0  0  0  0  0  0  0
    7.6593  -13.6420   19.0373 C   0  0  0  0  0  0  0  0  0  0  0  0
    8.4580  -12.5184   18.9992 C   0  0  0  0  0  0  0  0  0  0  0  0
    8.5941  -12.1286   17.7196 N   0  0  0  0  0  0  0  0  0  0  0  0
    7.9017  -12.9771   16.9484 C   0  0  0  0  0  0  0  0  0  0  0  0
    7.3382  -13.8905   17.7488 N   0  0  0  0  0  0  0  0  0  0  0  0
    7.8325  -16.3733   21.6336 C   0  0  0  0  0  0  0  0  0  0  0  0
    6.6939  -16.8680   21.7421 O   0  0  0  0  0  0  0  0  0  0  0  0
   10.1924  -23.4784   25.3869 N   0  0  0  0  0  0  0  0  0  0  0  0
    9.2893  -22.9283   24.4196 C   0  0  0  0  0  0  0  0  0  0  0  0
    8.1148  -23.4240   24.2559 N   0  0  0  0  0  0  0  0  0  0  0  0
    9.7069  -21.8236   23.6467 N   0  0  0  0  0  0  0  0  0  0  0  0
   10.4328  -20.7486   24.2627 C   0  0  0  0  0  0  0  0  0  0  0  0
    9.5340  -19.5821   24.5869 C   0  0  0  0  0  0  0  0  0  0  0  0
    9.4957  -18.6255   23.4388 C   0  0  0  0  0  0  0  0  0  0  0  0
    8.7500  -17.3697   23.7517 C   0  0  2  0  0  0  0  0  0  0  0  0
    8.8488  -16.4537   22.6007 N   0  0  0  0  0  0  0  0  0  0  0  0
    9.3201  -16.6492   24.9002 C   0  0  0  0  0  0  0  0  0  0  0  0
   10.4685  -16.0915   24.7305 O   0  0  0  0  0  0  0  0  0  0  0  0
    7.5057  -23.0084   23.5202 N   0  0  0  0  0  0  0  0  0  0  0  0
    8.7185  -16.5093   26.1718 C   0  0  2  0  0  0  0  0  0  0  0  0
    9.4134  -15.8277   27.2650 C   0  0  0  0  0  0  0  0  0  0  0  0
    8.4650  -14.8484   27.9178 C   0  0  0  0  0  0  0  0  0  0  0  0
    8.1599  -13.6963   27.0680 C   0  0  0  0  0  0  0  0  0  0  0  0
    9.0439  -12.6502   26.8493 C   0  0  0  0  0  0  0  0  0  0  0  0
    8.7420  -11.5748   26.0435 C   0  0  0  0  0  0  0  0  0  0  0  0
    7.4979  -11.5589   25.4368 C   0  0  0  0  0  0  0  0  0  0  0  0
    6.5780  -12.5679   25.6155 C   0  0  0  0  0  0  0  0  0  0  0  0
    6.9194  -13.6255   26.4293 C   0  0  0  0  0  0  0  0  0  0  0  0
   10.0014  -16.8003   28.2064 O   0  0  0  0  0  0  0  0  0  0  0  0
    9.6721  -18.0365   28.1910 O   0  0  0  0  0  0  0  0  0  0  0  0
  2  1  1  6
  2  3  1  0
  3  4  1  0
  4  8  1  0
  5  6  1  0
  5  4  2  0
  6  7  1  0
  7  8  2  0
  9  2  1  0
  9 10  2  0
 11 12  1  0
 12 14  1  0
 13 12  2  0
 14 15  1  0
 16 17  1  0
 16 15  1  0
 18 19  1  0
 18 17  1  6
 19  9  1  0
 20 18  1  0
 21 20  2  0
 22 20  1  0
 23 24  1  6
 23 22  1  0
 24 25  1  0
 25 30  2  0
 26 27  2  0
 26 25  1  0
 27 28  1  0
 28 29  2  0
 30 29  1  0
 31 33  1  0
 31 23  1  0
 32 31  2  0
M  END
$$$$
