HRF.pdb
     RDKit          3D

 33 34  0  0  1  0  0  0  0  0999 V2000
    7.6542  -16.5053   19.4911 N   0  0  0  0  0  0  0  0  0  0  0  0
    8.1263  -15.4912   20.4038 C   0  0  1  0  0  0  0  0  0  0  0  0
    7.3082  -14.2385   20.1784 C   0  0  0  0  0  0  0  0  0  0  0  0
    7.6178  -13.6925   18.8339 C   0  0  0  0  0  0  0  0  0  0  0  0
    8.4871  -14.1860   17.8839 C   0  0  0  0  0  0  0  0  0  0  0  0
    8.4583  -13.3768   16.8106 N   0  0  0  0  0  0  0  0  0  0  0  0
    7.5932  -12.3846   17.0582 C   0  0  0  0  0  0  0  0  0  0  0  0
    7.0872  -12.5792   18.2824 N   0  0  0  0  0  0  0  0  0  0  0  0
    8.0394  -15.9357   21.8312 C   0  0  0  0  0  0  0  0  0  0  0  0
    6.9092  -16.2442   22.2559 O   0  0  0  0  0  0  0  0  0  0  0  0
   13.5529  -21.1027   20.6207 N   0  0  0  0  0  0  0  0  0  0  0  0
   12.2601  -21.1348   20.0028 C   0  0  0  0  0  0  0  0  0  0  0  0
   12.0359  -21.8792   18.9792 N   0  0  0  0  0  0  0  0  0  0  0  0
   11.2271  -20.3369   20.5396 N   0  0  0  0  0  0  0  0  0  0  0  0
   11.4686  -19.5393   21.7089 C   0  0  0  0  0  0  0  0  0  0  0  0
   10.2682  -18.7014   22.0705 C   0  0  0  0  0  0  0  0  0  0  0  0
   10.5683  -17.8605   23.2695 C   0  0  0  0  0  0  0  0  0  0  0  0
    9.4353  -16.9650   23.6512 C   0  0  2  0  0  0  0  0  0  0  0  0
    9.2270  -15.9724   22.5812 N   0  0  0  0  0  0  0  0  0  0  0  0
    9.7134  -16.1979   24.8749 C   0  0  0  0  0  0  0  0  0  0  0  0
   10.6722  -15.3396   24.8230 O   0  0  0  0  0  0  0  0  0  0  0  0
   11.0791  -21.8706   18.5674 N   0  0  0  0  0  0  0  0  0  0  0  0
    9.0194  -16.3141   26.1010 C   0  0  1  0  0  0  0  0  0  0  0  0
    9.5036  -15.6443   27.3091 C   0  0  0  0  0  0  0  0  0  0  0  0
    8.3820  -14.8216   27.9002 C   0  0  0  0  0  0  0  0  0  0  0  0
    7.9088  -13.7701   26.9986 C   0  0  0  0  0  0  0  0  0  0  0  0
    6.7738  -13.8901   26.2106 C   0  0  0  0  0  0  0  0  0  0  0  0
    6.3403  -12.8891   25.3698 C   0  0  0  0  0  0  0  0  0  0  0  0
    7.0849  -11.7230   25.3258 C   0  0  0  0  0  0  0  0  0  0  0  0
    8.2204  -11.5447   26.0842 C   0  0  0  0  0  0  0  0  0  0  0  0
    8.6197  -12.5705   26.9122 C   0  0  0  0  0  0  0  0  0  0  0  0
   10.0882  -16.6152   28.2544 O   0  0  0  0  0  0  0  0  0  0  0  0
   10.5940  -16.2476   29.3707 O   0  0  0  0  0  0  0  0  0  0  0  0
  2  1  1  6
  2  3  1  0
  3  4  1  0
  4  8  1  0
  5  6  1  0
  5  4  2  0
  6  7  1  0
  7  8  2  0
  9  2  1  0
  9 10  2  0
 11 12  1  0
 12 14  1  0
 13 12  2  0
 14 15  1  0
 16 17  1  0
 16 15  1  0
 18 19  1  0
 18 17  1  6
 19  9  1  0
 20 18  1  0
 21 20  2  0
 22 20  1  0
 23 24  1  1
 23 22  1  0
 24 25  1  0
 25 30  2  0
 26 27  2  0
 26 25  1  0
 27 28  1  0
 28 29  2  0
 30 29  1  0
 31 33  1  0
 31 23  1  0
 32 31  2  0
M  END
$$$$
