HRF.pdb
     RDKit          3D

 33 34  0  0  1  0  0  0  0  0999 V2000
    6.5673  -15.9657   19.4890 N   0  0  0  0  0  0  0  0  0  0  0  0
    7.1728  -15.3915   20.6671 C   0  0  1  0  0  0  0  0  0  0  0  0
    7.0277  -13.8877   20.5844 C   0  0  0  0  0  0  0  0  0  0  0  0
    7.8892  -13.3767   19.4897 C   0  0  0  0  0  0  0  0  0  0  0  0
    8.6710  -14.0901   18.6056 C   0  0  0  0  0  0  0  0  0  0  0  0
    9.2855  -13.2263   17.7787 N   0  0  0  0  0  0  0  0  0  0  0  0
    8.9120  -11.9855   18.1177 C   0  0  0  0  0  0  0  0  0  0  0  0
    8.0678  -12.0808   19.1524 N   0  0  0  0  0  0  0  0  0  0  0  0
    6.5592  -15.9183   21.9275 C   0  0  0  0  0  0  0  0  0  0  0  0
    5.3576  -15.6510   22.1221 O   0  0  0  0  0  0  0  0  0  0  0  0
   10.6471  -20.5360   24.5435 N   0  0  0  0  0  0  0  0  0  0  0  0
   10.1658  -21.6603   23.7962 C   0  0  0  0  0  0  0  0  0  0  0  0
   10.7151  -22.8162   23.9151 N   0  0  0  0  0  0  0  0  0  0  0  0
    9.0694  -21.4822   22.9254 N   0  0  0  0  0  0  0  0  0  0  0  0
    7.8722  -20.8454   23.3978 C   0  0  0  0  0  0  0  0  0  0  0  0
    8.0473  -19.3531   23.5258 C   0  0  0  0  0  0  0  0  0  0  0  0
    6.7542  -18.7137   23.9182 C   0  0  0  0  0  0  0  0  0  0  0  0
    6.8554  -17.2295   24.0520 C   0  0  2  0  0  0  0  0  0  0  0  0
    7.3748  -16.6686   22.7913 N   0  0  0  0  0  0  0  0  0  0  0  0
    7.8012  -16.8234   25.1027 C   0  0  0  0  0  0  0  0  0  0  0  0
    9.0519  -16.8204   24.7958 O   0  0  0  0  0  0  0  0  0  0  0  0
   10.2857  -23.6173   23.4064 N   0  0  0  0  0  0  0  0  0  0  0  0
    7.4603  -16.4311   26.4174 C   0  0  1  0  0  0  0  0  0  0  0  0
    8.4951  -16.1354   27.4094 C   0  0  0  0  0  0  0  0  0  0  0  0
    8.0372  -14.9812   28.2711 C   0  0  0  0  0  0  0  0  0  0  0  0
    7.6993  -13.7876   27.4940 C   0  0  0  0  0  0  0  0  0  0  0  0
    6.4030  -13.4472   27.1374 C   0  0  0  0  0  0  0  0  0  0  0  0
    6.1021  -12.3179   26.4086 C   0  0  0  0  0  0  0  0  0  0  0  0
    7.1542  -11.5034   26.0268 C   0  0  0  0  0  0  0  0  0  0  0  0
    8.4619  -11.7884   26.3506 C   0  0  0  0  0  0  0  0  0  0  0  0
    8.7198  -12.9276   27.0807 C   0  0  0  0  0  0  0  0  0  0  0  0
    8.8522  -17.3435   28.1782 O   0  0  0  0  0  0  0  0  0  0  0  0
    9.7719  -17.3287   29.0675 O   0  0  0  0  0  0  0  0  0  0  0  0
  2  1  1  6
  2  3  1  0
  3  4  1  0
  4  8  1  0
  5  6  1  0
  5  4  2  0
  6  7  1  0
  7  8  2  0
  9  2  1  0
  9 10  2  0
 11 12  1  0
 12 14  1  0
 13 12  2  0
 14 15  1  0
 16 17  1  0
 16 15  1  0
 18 19  1  0
 18 17  1  6
 19  9  1  0
 20 18  1  0
 21 20  2  0
 22 20  1  0
 23 24  1  1
 23 22  1  0
 24 25  1  0
 25 30  2  0
 26 27  2  0
 26 25  1  0
 27 28  1  0
 28 29  2  0
 30 29  1  0
 31 33  1  0
 31 23  1  0
 32 31  2  0
M  END
$$$$
