HRF.pdb
     RDKit          3D

 33 34  0  0  1  0  0  0  0  0999 V2000
    7.6895  -16.5468   19.9199 N   0  0  0  0  0  0  0  0  0  0  0  0
    8.3692  -15.6968   20.8685 C   0  0  1  0  0  0  0  0  0  0  0  0
    7.6434  -14.3700   20.9146 C   0  0  0  0  0  0  0  0  0  0  0  0
    7.8413  -13.6638   19.6248 C   0  0  0  0  0  0  0  0  0  0  0  0
    8.5700  -14.0673   18.5257 C   0  0  0  0  0  0  0  0  0  0  0  0
    8.4784  -13.1204   17.5756 N   0  0  0  0  0  0  0  0  0  0  0  0
    7.7105  -12.1290   18.0463 C   0  0  0  0  0  0  0  0  0  0  0  0
    7.3274  -12.4614   19.2853 N   0  0  0  0  0  0  0  0  0  0  0  0
    8.4361  -16.3161   22.2303 C   0  0  0  0  0  0  0  0  0  0  0  0
    7.3521  -16.5090   22.8139 O   0  0  0  0  0  0  0  0  0  0  0  0
   10.3393  -22.5367   23.4031 N   0  0  0  0  0  0  0  0  0  0  0  0
   10.9564  -22.5037   22.1100 C   0  0  0  0  0  0  0  0  0  0  0  0
   10.7244  -23.4246   21.2439 N   0  0  0  0  0  0  0  0  0  0  0  0
   11.8245  -21.4363   21.7951 N   0  0  0  0  0  0  0  0  0  0  0  0
   12.0209  -20.3683   22.7346 C   0  0  0  0  0  0  0  0  0  0  0  0
   10.7674  -19.5511   22.9206 C   0  0  0  0  0  0  0  0  0  0  0  0
   11.0525  -18.3552   23.7710 C   0  0  0  0  0  0  0  0  0  0  0  0
    9.8625  -17.4701   23.9490 C   0  0  2  0  0  0  0  0  0  0  0  0
    9.7042  -16.6317   22.7467 N   0  0  0  0  0  0  0  0  0  0  0  0
   10.0170  -16.5420   25.0796 C   0  0  0  0  0  0  0  0  0  0  0  0
   10.9173  -15.6280   24.9683 O   0  0  0  0  0  0  0  0  0  0  0  0
   11.2506  -23.3959   20.3454 N   0  0  0  0  0  0  0  0  0  0  0  0
    9.2624  -16.5598   26.2749 C   0  0  1  0  0  0  0  0  0  0  0  0
    9.5826  -15.6593   27.3834 C   0  0  0  0  0  0  0  0  0  0  0  0
    8.3043  -15.0426   27.9032 C   0  0  0  0  0  0  0  0  0  0  0  0
    7.7022  -14.0978   26.9613 C   0  0  0  0  0  0  0  0  0  0  0  0
    6.6322  -14.4140   26.1374 C   0  0  0  0  0  0  0  0  0  0  0  0
    6.0751  -13.5114   25.2589 C   0  0  0  0  0  0  0  0  0  0  0  0
    6.6228  -12.2409   25.2134 C   0  0  0  0  0  0  0  0  0  0  0  0
    7.6851  -11.8676   26.0063 C   0  0  0  0  0  0  0  0  0  0  0  0
    8.2129  -12.8005   26.8714 C   0  0  0  0  0  0  0  0  0  0  0  0
   10.3692  -16.3549   28.4204 O   0  0  0  0  0  0  0  0  0  0  0  0
   10.8300  -15.7390   29.4427 O   0  0  0  0  0  0  0  0  0  0  0  0
  2  1  1  6
  2  3  1  0
  3  4  1  0
  4  8  1  0
  5  6  1  0
  5  4  2  0
  6  7  1  0
  7  8  2  0
  9  2  1  0
  9 10  2  0
 11 12  1  0
 12 14  1  0
 13 12  2  0
 14 15  1  0
 16 17  1  0
 16 15  1  0
 18 19  1  0
 18 17  1  6
 19  9  1  0
 20 18  1  0
 21 20  2  0
 22 20  1  0
 23 24  1  1
 23 22  1  0
 24 25  1  0
 25 30  2  0
 26 27  2  0
 26 25  1  0
 27 28  1  0
 28 29  2  0
 30 29  1  0
 31 33  1  0
 31 23  1  0
 32 31  2  0
M  END
$$$$
