HRF.pdb
     RDKit          3D

 33 34  0  0  1  0  0  0  0  0999 V2000
   11.1548  -18.1877   18.6999 N   0  0  0  0  0  0  0  0  0  0  0  0
   11.4422  -18.3147   20.1089 C   0  0  1  0  0  0  0  0  0  0  0  0
   12.9447  -18.2922   20.2859 C   0  0  0  0  0  0  0  0  0  0  0  0
   13.4748  -19.6665   20.1070 C   0  0  0  0  0  0  0  0  0  0  0  0
   12.9893  -20.8500   20.6222 C   0  0  0  0  0  0  0  0  0  0  0  0
   13.7775  -21.8570   20.2072 N   0  0  0  0  0  0  0  0  0  0  0  0
   14.7486  -21.3400   19.4430 C   0  0  0  0  0  0  0  0  0  0  0  0
   14.5619  -20.0156   19.3849 N   0  0  0  0  0  0  0  0  0  0  0  0
   10.7937  -17.2315   20.9143 C   0  0  0  0  0  0  0  0  0  0  0  0
   11.3308  -16.1075   20.8801 O   0  0  0  0  0  0  0  0  0  0  0  0
    8.2169  -13.9139   17.2767 N   0  0  0  0  0  0  0  0  0  0  0  0
    7.9605  -13.2047   18.4954 C   0  0  0  0  0  0  0  0  0  0  0  0
    8.3940  -12.0067   18.6659 N   0  0  0  0  0  0  0  0  0  0  0  0
    7.2157  -13.8408   19.5116 N   0  0  0  0  0  0  0  0  0  0  0  0
    7.7390  -15.0092   20.1620 C   0  0  0  0  0  0  0  0  0  0  0  0
    6.7801  -15.5511   21.1919 C   0  0  0  0  0  0  0  0  0  0  0  0
    7.3789  -16.7340   21.8825 C   0  0  0  0  0  0  0  0  0  0  0  0
    8.8038  -16.5191   22.2757 C   0  0  2  0  0  0  0  0  0  0  0  0
    9.6377  -17.5576   21.6434 N   0  0  0  0  0  0  0  0  0  0  0  0
    9.0123  -16.6513   23.7257 C   0  0  0  0  0  0  0  0  0  0  0  0
    9.2007  -17.8397   24.1846 O   0  0  0  0  0  0  0  0  0  0  0  0
    8.2563  -11.5641   19.5988 N   0  0  0  0  0  0  0  0  0  0  0  0
    9.0300  -15.5905   24.6600 C   0  0  1  0  0  0  0  0  0  0  0  0
    9.1762  -15.8490   26.0933 C   0  0  0  0  0  0  0  0  0  0  0  0
    9.3711  -14.5350   26.8142 C   0  0  0  0  0  0  0  0  0  0  0  0
    8.2525  -13.6097   26.6270 C   0  0  0  0  0  0  0  0  0  0  0  0
    7.2129  -13.4709   27.5345 C   0  0  0  0  0  0  0  0  0  0  0  0
    6.1693  -12.5924   27.3445 C   0  0  0  0  0  0  0  0  0  0  0  0
    6.1796  -11.8261   26.1918 C   0  0  0  0  0  0  0  0  0  0  0  0
    7.1837  -11.9191   25.2540 C   0  0  0  0  0  0  0  0  0  0  0  0
    8.2091  -12.8100   25.4822 C   0  0  0  0  0  0  0  0  0  0  0  0
    8.0434  -16.6439   26.6061 O   0  0  0  0  0  0  0  0  0  0  0  0
    6.9468  -16.7514   25.9558 O   0  0  0  0  0  0  0  0  0  0  0  0
  2  1  1  6
  2  3  1  0
  3  4  1  0
  4  8  1  0
  5  6  1  0
  5  4  2  0
  6  7  1  0
  7  8  2  0
  9  2  1  0
  9 10  2  0
 11 12  1  0
 12 14  1  0
 13 12  2  0
 14 15  1  0
 16 17  1  0
 16 15  1  0
 18 19  1  0
 18 17  1  1
 19  9  1  0
 20 18  1  0
 21 20  2  0
 22 20  1  0
 23 24  1  1
 23 22  1  0
 24 25  1  0
 25 30  2  0
 26 27  2  0
 26 25  1  0
 27 28  1  0
 28 29  2  0
 30 29  1  0
 31 33  1  0
 31 23  1  0
 32 31  2  0
M  END
$$$$
