HRF.pdb
     RDKit          3D

 33 34  0  0  1  0  0  0  0  0999 V2000
   12.5960  -18.8758   18.7962 N   0  0  0  0  0  0  0  0  0  0  0  0
   12.3814  -18.9377   20.2225 C   0  0  1  0  0  0  0  0  0  0  0  0
   13.7251  -19.1269   20.8920 C   0  0  0  0  0  0  0  0  0  0  0  0
   13.9963  -20.5788   21.0335 C   0  0  0  0  0  0  0  0  0  0  0  0
   13.3921  -21.6345   20.3838 C   0  0  0  0  0  0  0  0  0  0  0  0
   13.9462  -22.7810   20.8151 N   0  0  0  0  0  0  0  0  0  0  0  0
   14.8851  -22.4767   21.7206 C   0  0  0  0  0  0  0  0  0  0  0  0
   14.9123  -21.1444   21.8497 N   0  0  0  0  0  0  0  0  0  0  0  0
   11.6948  -17.7121   20.7410 C   0  0  0  0  0  0  0  0  0  0  0  0
   12.2136  -16.6150   20.4579 O   0  0  0  0  0  0  0  0  0  0  0  0
    6.7232  -12.6465   18.8034 N   0  0  0  0  0  0  0  0  0  0  0  0
    8.0544  -12.9142   19.2619 C   0  0  0  0  0  0  0  0  0  0  0  0
    9.0614  -12.2856   18.7691 N   0  0  0  0  0  0  0  0  0  0  0  0
    8.2468  -13.8801   20.2728 N   0  0  0  0  0  0  0  0  0  0  0  0
    7.1374  -14.6634   20.7392 C   0  0  0  0  0  0  0  0  0  0  0  0
    7.5452  -15.6073   21.8421 C   0  0  0  0  0  0  0  0  0  0  0  0
    8.4477  -16.6706   21.3037 C   0  0  0  0  0  0  0  0  0  0  0  0
    9.7595  -16.7361   22.0149 C   0  0  2  0  0  0  0  0  0  0  0  0
   10.5264  -17.8860   21.5019 N   0  0  0  0  0  0  0  0  0  0  0  0
    9.6042  -16.9580   23.4606 C   0  0  0  0  0  0  0  0  0  0  0  0
    8.8027  -17.8972   23.8264 O   0  0  0  0  0  0  0  0  0  0  0  0
   10.0163  -12.5967   19.0457 N   0  0  0  0  0  0  0  0  0  0  0  0
   10.2597  -16.2365   24.4844 C   0  0  1  0  0  0  0  0  0  0  0  0
    9.5060  -15.4022   25.4216 C   0  0  0  0  0  0  0  0  0  0  0  0
    8.7354  -14.3597   24.6444 C   0  0  0  0  0  0  0  0  0  0  0  0
    7.9175  -13.4987   25.5001 C   0  0  0  0  0  0  0  0  0  0  0  0
    8.4466  -12.5451   26.3570 C   0  0  0  0  0  0  0  0  0  0  0  0
    7.6621  -11.7404   27.1531 C   0  0  0  0  0  0  0  0  0  0  0  0
    6.2901  -11.9084   27.0781 C   0  0  0  0  0  0  0  0  0  0  0  0
    5.7058  -12.8378   26.2469 C   0  0  0  0  0  0  0  0  0  0  0  0
    6.5263  -13.6228   25.4671 C   0  0  0  0  0  0  0  0  0  0  0  0
    8.6599  -16.2289   26.3040 O   0  0  0  0  0  0  0  0  0  0  0  0
    8.8106  -16.2297   27.5745 O   0  0  0  0  0  0  0  0  0  0  0  0
  2  1  1  6
  2  3  1  0
  3  4  1  0
  4  8  1  0
  5  6  1  0
  5  4  2  0
  6  7  1  0
  7  8  2  0
  9  2  1  0
  9 10  2  0
 11 12  1  0
 12 14  1  0
 13 12  2  0
 14 15  1  0
 16 17  1  0
 16 15  1  0
 18 19  1  0
 18 17  1  6
 19  9  1  0
 20 18  1  0
 21 20  2  0
 22 20  1  0
 23 24  1  1
 23 22  1  0
 24 25  1  0
 25 30  2  0
 26 27  2  0
 26 25  1  0
 27 28  1  0
 28 29  2  0
 30 29  1  0
 31 33  1  0
 31 23  1  0
 32 31  2  0
M  END
$$$$
