HRF.pdb
     RDKit          3D

 33 34  0  0  1  0  0  0  0  0999 V2000
    8.2011  -16.8690   18.8050 N   0  0  0  0  0  0  0  0  0  0  0  0
    8.4741  -15.9092   19.8483 C   0  0  1  0  0  0  0  0  0  0  0  0
    7.5501  -14.7271   19.6528 C   0  0  0  0  0  0  0  0  0  0  0  0
    7.8624  -14.0766   18.3563 C   0  0  0  0  0  0  0  0  0  0  0  0
    8.5659  -12.9134   18.1246 C   0  0  0  0  0  0  0  0  0  0  0  0
    8.6103  -12.6924   16.7991 N   0  0  0  0  0  0  0  0  0  0  0  0
    7.9527  -13.6863   16.1875 C   0  0  0  0  0  0  0  0  0  0  0  0
    7.5022  -14.5210   17.1324 N   0  0  0  0  0  0  0  0  0  0  0  0
    8.3032  -16.5000   21.2137 C   0  0  0  0  0  0  0  0  0  0  0  0
    7.1341  -16.6737   21.6087 O   0  0  0  0  0  0  0  0  0  0  0  0
   12.1131  -23.2949   23.9615 N   0  0  0  0  0  0  0  0  0  0  0  0
   10.6942  -23.0927   23.9658 C   0  0  0  0  0  0  0  0  0  0  0  0
    9.8851  -24.0913   23.9771 N   0  0  0  0  0  0  0  0  0  0  0  0
   10.1927  -21.7735   23.9630 N   0  0  0  0  0  0  0  0  0  0  0  0
   11.0023  -20.6956   24.4577 C   0  0  0  0  0  0  0  0  0  0  0  0
   10.2178  -19.4123   24.5651 C   0  0  0  0  0  0  0  0  0  0  0  0
   10.1443  -18.7395   23.2322 C   0  0  0  0  0  0  0  0  0  0  0  0
    9.3913  -17.4501   23.2713 C   0  0  2  0  0  0  0  0  0  0  0  0
    9.4623  -16.8127   21.9439 N   0  0  0  0  0  0  0  0  0  0  0  0
    9.9729  -16.4887   24.2204 C   0  0  0  0  0  0  0  0  0  0  0  0
   11.1019  -15.9587   23.8996 O   0  0  0  0  0  0  0  0  0  0  0  0
    8.8625  -23.8932   23.9865 N   0  0  0  0  0  0  0  0  0  0  0  0
    9.4014  -16.0901   25.4504 C   0  0  2  0  0  0  0  0  0  0  0  0
   10.1212  -15.2024   26.3650 C   0  0  0  0  0  0  0  0  0  0  0  0
    9.9328  -13.7720   25.9144 C   0  0  0  0  0  0  0  0  0  0  0  0
    8.6005  -13.2482   26.2192 C   0  0  0  0  0  0  0  0  0  0  0  0
    8.3131  -12.4948   27.3476 C   0  0  0  0  0  0  0  0  0  0  0  0
    7.0540  -12.0064   27.6176 C   0  0  0  0  0  0  0  0  0  0  0  0
    6.0485  -12.2923   26.7102 C   0  0  0  0  0  0  0  0  0  0  0  0
    6.2720  -13.0350   25.5723 C   0  0  0  0  0  0  0  0  0  0  0  0
    7.5458  -13.5047   25.3396 C   0  0  0  0  0  0  0  0  0  0  0  0
    9.7154  -15.4414   27.7636 O   0  0  0  0  0  0  0  0  0  0  0  0
   10.2225  -14.7801   28.7345 O   0  0  0  0  0  0  0  0  0  0  0  0
  2  1  1  6
  2  3  1  0
  3  4  1  0
  4  8  1  0
  5  6  1  0
  5  4  2  0
  6  7  1  0
  7  8  2  0
  9  2  1  0
  9 10  2  0
 11 12  1  0
 12 14  1  0
 13 12  2  0
 14 15  1  0
 16 17  1  0
 16 15  1  0
 18 19  1  0
 18 17  1  6
 19  9  1  0
 20 18  1  0
 21 20  2  0
 22 20  1  0
 23 24  1  6
 23 22  1  0
 24 25  1  0
 25 30  2  0
 26 27  2  0
 26 25  1  0
 27 28  1  0
 28 29  2  0
 30 29  1  0
 31 33  1  0
 31 23  1  0
 32 31  2  0
M  END
$$$$
