HRF.pdb
     RDKit          3D

 33 34  0  0  1  0  0  0  0  0999 V2000
    9.3874  -16.2822   18.5371 N   0  0  0  0  0  0  0  0  0  0  0  0
    9.0273  -15.2640   19.4952 C   0  0  1  0  0  0  0  0  0  0  0  0
    7.6808  -14.6999   19.0976 C   0  0  0  0  0  0  0  0  0  0  0  0
    7.7407  -14.2518   17.6844 C   0  0  0  0  0  0  0  0  0  0  0  0
    7.9239  -12.9764   17.1930 C   0  0  0  0  0  0  0  0  0  0  0  0
    7.9118  -13.0254   15.8495 N   0  0  0  0  0  0  0  0  0  0  0  0
    7.7256  -14.2992   15.4794 C   0  0  0  0  0  0  0  0  0  0  0  0
    7.6227  -15.0374   16.5916 N   0  0  0  0  0  0  0  0  0  0  0  0
    8.9906  -15.7969   20.8941 C   0  0  0  0  0  0  0  0  0  0  0  0
    7.9483  -15.5933   21.5460 O   0  0  0  0  0  0  0  0  0  0  0  0
   12.5771  -20.8348   20.7292 N   0  0  0  0  0  0  0  0  0  0  0  0
   11.8189  -21.7887   21.4836 C   0  0  0  0  0  0  0  0  0  0  0  0
   11.3142  -22.8268   20.9181 N   0  0  0  0  0  0  0  0  0  0  0  0
   11.6363  -21.5752   22.8667 N   0  0  0  0  0  0  0  0  0  0  0  0
   12.1402  -20.3797   23.4822 C   0  0  0  0  0  0  0  0  0  0  0  0
   11.0626  -19.3369   23.6406 C   0  0  0  0  0  0  0  0  0  0  0  0
   11.0104  -18.4608   22.4305 C   0  0  0  0  0  0  0  0  0  0  0  0
   10.0750  -17.3068   22.5868 C   0  0  2  0  0  0  0  0  0  0  0  0
   10.1234  -16.4814   21.3661 N   0  0  0  0  0  0  0  0  0  0  0  0
   10.4567  -16.4209   23.6971 C   0  0  0  0  0  0  0  0  0  0  0  0
   11.2170  -15.4209   23.4139 O   0  0  0  0  0  0  0  0  0  0  0  0
   10.7650  -23.4874   21.5073 N   0  0  0  0  0  0  0  0  0  0  0  0
   10.0594  -16.5654   25.0461 C   0  0  2  0  0  0  0  0  0  0  0  0
    9.4973  -15.4387   25.7925 C   0  0  0  0  0  0  0  0  0  0  0  0
    8.3527  -14.8459   25.0031 C   0  0  0  0  0  0  0  0  0  0  0  0
    7.7376  -13.6951   25.6663 C   0  0  0  0  0  0  0  0  0  0  0  0
    6.3909  -13.6277   25.9912 C   0  0  0  0  0  0  0  0  0  0  0  0
    5.8286  -12.5382   26.6186 C   0  0  0  0  0  0  0  0  0  0  0  0
    6.6621  -11.4773   26.9282 C   0  0  0  0  0  0  0  0  0  0  0  0
    8.0067  -11.4855   26.6311 C   0  0  0  0  0  0  0  0  0  0  0  0
    8.5294  -12.5945   26.0033 C   0  0  0  0  0  0  0  0  0  0  0  0
    9.1254  -15.8437   27.1621 O   0  0  0  0  0  0  0  0  0  0  0  0
    8.4984  -16.9344   27.3952 O   0  0  0  0  0  0  0  0  0  0  0  0
  2  1  1  6
  2  3  1  0
  3  4  1  0
  4  8  1  0
  5  6  1  0
  5  4  2  0
  6  7  1  0
  7  8  2  0
  9  2  1  0
  9 10  2  0
 11 12  1  0
 12 14  1  0
 13 12  2  0
 14 15  1  0
 16 17  1  0
 16 15  1  0
 18 19  1  0
 18 17  1  6
 19  9  1  0
 20 18  1  0
 21 20  2  0
 22 20  1  0
 23 24  1  6
 23 22  1  0
 24 25  1  0
 25 30  2  0
 26 27  2  0
 26 25  1  0
 27 28  1  0
 28 29  2  0
 30 29  1  0
 31 33  1  0
 31 23  1  0
 32 31  2  0
M  END
$$$$
