CGA.pdb
     RDKit          3D

 16 15  0  0  1  0  0  0  0  0999 V2000
    7.0589  -12.1603   27.4237 N   0  0  0  0  0  0  0  0  0  0  0  0
    6.5983  -12.8384   26.2355 C   0  0  1  0  0  0  0  0  0  0  0  0
    5.8117  -11.8981   25.3520 C   0  0  0  0  0  0  0  0  0  0  0  0
    4.4004  -11.1940   26.2437 S   0  0  0  0  0  0  0  0  0  0  0  0
    7.7097  -13.3957   25.4428 C   0  0  0  0  0  0  0  0  0  0  0  0
    8.7445  -12.6995   25.3022 O   0  0  0  0  0  0  0  0  0  0  0  0
    7.6193  -14.6787   24.8541 N   0  0  0  0  0  0  0  0  0  0  0  0
    8.7203  -15.2283   24.1359 C   0  0  0  0  0  0  0  0  0  0  0  0
    9.8505  -15.6239   24.9830 C   0  0  0  0  0  0  0  0  0  0  0  0
   10.9128  -16.1398   24.5452 O   0  0  0  0  0  0  0  0  0  0  0  0
   11.0663  -14.6395   28.2902 C   0  0  0  0  0  0  0  0  0  0  0  0
   10.9050  -15.7261   27.2493 C   0  0  2  0  0  0  0  0  0  0  0  0
    9.7632  -15.4216   26.3878 N   0  0  0  0  0  0  0  0  0  0  0  0
   10.6434  -17.0247   27.9223 C   0  0  0  0  0  0  0  0  0  0  0  0
    9.5365  -17.6084   27.7847 O   0  0  0  0  0  0  0  0  0  0  0  0
   11.5853  -17.6596   28.7274 O   0  0  0  0  0  0  0  0  0  0  0  0
  2  1  1  1
  3  2  1  0
  4  3  1  0
  5  2  1  0
  5  6  2  0
  7  5  1  0
  8  7  1  0
  9  8  1  0
 10  9  2  0
 12 13  1  0
 12 11  1  1
 13  9  1  0
 14 12  1  0
 15 14  2  0
 16 14  1  0
M  END
$$$$
