CGA.pdb
     RDKit          3D

 16 15  0  0  1  0  0  0  0  0999 V2000
   -1.3167  -24.2676   26.9168 N   0  0  0  0  0  0  0  0  0  0  0  0
   -1.7622  -25.6399   26.9623 C   0  0  1  0  0  0  0  0  0  0  0  0
   -0.9329  -26.4411   27.9390 C   0  0  0  0  0  0  0  0  0  0  0  0
    0.8150  -25.9731   27.8466 S   0  0  0  0  0  0  0  0  0  0  0  0
   -3.1786  -25.7558   27.3554 C   0  0  0  0  0  0  0  0  0  0  0  0
   -3.7314  -26.8781   27.2550 O   0  0  0  0  0  0  0  0  0  0  0  0
   -3.9007  -24.6374   27.8334 N   0  0  0  0  0  0  0  0  0  0  0  0
   -5.2878  -24.7449   28.1408 C   0  0  0  0  0  0  0  0  0  0  0  0
   -5.8866  -23.5060   28.6488 C   0  0  0  0  0  0  0  0  0  0  0  0
   -5.2535  -22.6313   29.2972 O   0  0  0  0  0  0  0  0  0  0  0  0
   -9.2808  -21.8955   28.2850 C   0  0  0  0  0  0  0  0  0  0  0  0
   -7.8727  -21.9958   28.8303 C   0  0  2  0  0  0  0  0  0  0  0  0
   -7.2653  -23.2565   28.4058 N   0  0  0  0  0  0  0  0  0  0  0  0
   -7.9123  -21.9785   30.3156 C   0  0  0  0  0  0  0  0  0  0  0  0
   -8.0920  -20.9010   30.9413 O   0  0  0  0  0  0  0  0  0  0  0  0
   -7.7564  -23.1270   31.0871 O   0  0  0  0  0  0  0  0  0  0  0  0
  2  1  1  1
  3  2  1  0
  4  3  1  0
  5  2  1  0
  5  6  2  0
  7  5  1  0
  8  7  1  0
  9  8  1  0
 10  9  2  0
 12 13  1  0
 12 11  1  6
 13  9  1  0
 14 12  1  0
 15 14  2  0
 16 14  1  0
M  END
$$$$
