TRN.pdb
     RDKit          3D

 27 26  0  0  1  0  0  0  0  0999 V2000
   27.5344  -19.3636  -17.1908 C   0  0  0  0  0  0  0  0  0  0  0  0
   28.0545  -20.6582  -17.7820 C   0  0  1  0  0  0  0  0  0  0  0  0
   29.1576  -20.4752  -18.5912 O   0  0  0  0  0  0  0  0  0  0  0  0
   28.3336  -21.5968  -16.6191 C   0  0  2  0  0  0  0  0  0  0  0  0
   28.9293  -22.7966  -17.1288 N   0  0  0  0  0  0  0  0  0  0  0  0
   27.0633  -21.8129  -15.9040 C   0  0  0  0  0  0  0  0  0  0  0  0
   26.2134  -22.5595  -16.4517 O   0  0  0  0  0  0  0  0  0  0  0  0
   22.6939  -19.9795   -9.9638 N   0  0  0  0  0  0  0  0  0  0  0  0
   23.2583  -20.9391   -9.0833 C   0  0  0  0  0  0  0  0  0  0  0  0
   22.5703  -21.5036   -8.1406 N   0  0  0  0  0  0  0  0  0  0  0  0
   24.6345  -21.3363   -9.1980 N   0  0  0  0  0  0  0  0  0  0  0  0
   25.4962  -20.6057  -10.1333 C   0  0  0  0  0  0  0  0  0  0  0  0
   24.9833  -20.9260  -11.5024 C   0  0  0  0  0  0  0  0  0  0  0  0
   25.9121  -21.3383  -12.5446 C   0  0  0  0  0  0  0  0  0  0  0  0
   25.5455  -21.5227  -13.9601 C   0  0  2  0  0  0  0  0  0  0  0  0
   26.8297  -21.2087  -14.6754 N   0  0  0  0  0  0  0  0  0  0  0  0
   24.5212  -20.7668  -14.6097 C   0  0  0  0  0  0  0  0  0  0  0  0
   24.6572  -19.5056  -14.7787 O   0  0  0  0  0  0  0  0  0  0  0  0
   23.0767  -22.2066   -7.5568 N   0  0  0  0  0  0  0  0  0  0  0  0
   23.5982  -19.7252  -18.0952 C   0  0  0  0  0  0  0  0  0  0  0  0
   22.6753  -20.7955  -18.1963 O   0  0  0  0  0  0  0  0  0  0  0  0
   22.5307  -21.3246  -19.3131 C   0  0  0  0  0  0  0  0  0  0  0  0
   21.9509  -21.2249  -17.0260 C   0  0  2  0  0  0  0  0  0  0  0  0
   22.2902  -20.4771  -15.7278 N   0  0  0  0  0  0  0  0  0  0  0  0
   23.3258  -21.3292  -15.1146 C   0  0  0  0  0  0  0  0  0  0  0  0
   21.1350  -20.4363  -14.8300 O   0  0  0  0  0  0  0  0  0  0  0  0
   21.0530  -21.2733  -13.8625 O   0  0  0  0  0  0  0  0  0  0  0  0
  2  1  1  1
  2  3  1  0
  4  2  1  0
  4  6  1  0
  4  5  1  6
  6  7  2  0
  9  8  1  0
  9 10  2  0
 11  9  1  0
 12 11  1  0
 13 12  1  0
 14 13  1  0
 15 14  1  1
 16  6  1  0
 16 15  1  0
 17 15  1  0
 17 18  2  0
 19 20  1  0
 20 21  2  0
 20 22  1  0
 23 22  1  6
 23 25  1  0
 23 24  1  0
 24 17  1  0
 25 27  1  0
 26 25  2  0
M  END
$$$$
