TRN.pdb
     RDKit          3D

 27 26  0  0  1  0  0  0  0  0999 V2000
   27.3500  -20.6075  -18.9883 C   0  0  0  0  0  0  0  0  0  0  0  0
   28.0832  -21.9319  -19.0522 C   0  0  1  0  0  0  0  0  0  0  0  0
   28.9995  -21.9904  -20.0829 O   0  0  0  0  0  0  0  0  0  0  0  0
   28.7225  -22.1518  -17.6905 C   0  0  2  0  0  0  0  0  0  0  0  0
   29.3415  -23.4443  -17.6759 N   0  0  0  0  0  0  0  0  0  0  0  0
   27.6735  -21.9758  -16.6704 C   0  0  0  0  0  0  0  0  0  0  0  0
   26.8745  -22.9300  -16.4949 O   0  0  0  0  0  0  0  0  0  0  0  0
   25.1864  -20.2464   -8.8779 N   0  0  0  0  0  0  0  0  0  0  0  0
   24.7887  -20.8455  -10.1015 C   0  0  0  0  0  0  0  0  0  0  0  0
   23.5433  -21.0351  -10.4076 N   0  0  0  0  0  0  0  0  0  0  0  0
   25.7591  -21.2732  -11.0711 N   0  0  0  0  0  0  0  0  0  0  0  0
   26.9722  -20.4678  -11.2468 C   0  0  0  0  0  0  0  0  0  0  0  0
   26.7497  -19.6512  -12.4812 C   0  0  0  0  0  0  0  0  0  0  0  0
   27.3294  -20.0794  -13.7459 C   0  0  0  0  0  0  0  0  0  0  0  0
   26.5699  -20.7192  -14.8348 C   0  0  2  0  0  0  0  0  0  0  0  0
   27.5846  -20.7972  -15.9410 N   0  0  0  0  0  0  0  0  0  0  0  0
   25.3878  -20.1528  -15.4044 C   0  0  0  0  0  0  0  0  0  0  0  0
   25.4522  -19.0693  -16.0824 O   0  0  0  0  0  0  0  0  0  0  0  0
   22.8449  -20.8037   -9.6659 N   0  0  0  0  0  0  0  0  0  0  0  0
   20.5045  -19.5798  -17.2291 C   0  0  0  0  0  0  0  0  0  0  0  0
   20.8413  -20.9405  -17.0223 O   0  0  0  0  0  0  0  0  0  0  0  0
   20.0296  -21.7982  -17.4143 C   0  0  0  0  0  0  0  0  0  0  0  0
   22.0865  -21.2766  -16.3779 C   0  0  1  0  0  0  0  0  0  0  0  0
   22.9258  -20.0825  -15.8989 N   0  0  0  0  0  0  0  0  0  0  0  0
   24.1011  -20.7276  -15.2850 C   0  0  0  0  0  0  0  0  0  0  0  0
   22.2191  -19.3284  -14.8623 O   0  0  0  0  0  0  0  0  0  0  0  0
   22.2347  -19.7471  -13.6508 O   0  0  0  0  0  0  0  0  0  0  0  0
  2  1  1  1
  2  3  1  0
  4  2  1  0
  4  6  1  0
  4  5  1  6
  6  7  2  0
  9  8  1  0
  9 10  2  0
 11  9  1  0
 12 11  1  0
 13 12  1  0
 14 13  1  0
 15 14  1  1
 16  6  1  0
 16 15  1  0
 17 15  1  0
 17 18  2  0
 19 20  1  0
 20 21  2  0
 20 22  1  0
 23 22  1  6
 23 25  1  0
 23 24  1  0
 24 17  1  0
 25 27  1  0
 26 25  2  0
M  END
$$$$
