TRN.pdb
     RDKit          3D

 27 26  0  0  1  0  0  0  0  0999 V2000
   22.9152  -21.6043  -10.7935 C   0  0  0  0  0  0  0  0  0  0  0  0
   23.6940  -20.6505   -9.9104 C   0  0  1  0  0  0  0  0  0  0  0  0
   23.4745  -20.8628   -8.5643 O   0  0  0  0  0  0  0  0  0  0  0  0
   25.1592  -20.7887  -10.2913 C   0  0  2  0  0  0  0  0  0  0  0  0
   25.9469  -20.0115   -9.3804 N   0  0  0  0  0  0  0  0  0  0  0  0
   25.2950  -20.3827  -11.7014 C   0  0  0  0  0  0  0  0  0  0  0  0
   25.3832  -19.1520  -11.9408 O   0  0  0  0  0  0  0  0  0  0  0  0
   25.9165  -25.4649  -15.5834 N   0  0  0  0  0  0  0  0  0  0  0  0
   25.5695  -24.9863  -16.8737 C   0  0  0  0  0  0  0  0  0  0  0  0
   24.5578  -25.4527  -17.5368 N   0  0  0  0  0  0  0  0  0  0  0  0
   26.3308  -23.9484  -17.5125 N   0  0  0  0  0  0  0  0  0  0  0  0
   27.3098  -23.2067  -16.7108 C   0  0  0  0  0  0  0  0  0  0  0  0
   26.5824  -22.0154  -16.1706 C   0  0  0  0  0  0  0  0  0  0  0  0
   26.1908  -21.9814  -14.7691 C   0  0  0  0  0  0  0  0  0  0  0  0
   25.4783  -20.8599  -14.1315 C   0  0  2  0  0  0  0  0  0  0  0  0
   25.3227  -21.3335  -12.7135 N   0  0  0  0  0  0  0  0  0  0  0  0
   24.1902  -20.4074  -14.5543 C   0  0  0  0  0  0  0  0  0  0  0  0
   23.1334  -21.0247  -14.1804 O   0  0  0  0  0  0  0  0  0  0  0  0
   24.4379  -25.0927  -18.5102 N   0  0  0  0  0  0  0  0  0  0  0  0
   20.4183  -17.1138  -16.1194 C   0  0  0  0  0  0  0  0  0  0  0  0
   21.6818  -16.6275  -16.5375 O   0  0  0  0  0  0  0  0  0  0  0  0
   21.7120  -15.5176  -17.0989 C   0  0  0  0  0  0  0  0  0  0  0  0
   22.8635  -17.4196  -16.3031 C   0  0  2  0  0  0  0  0  0  0  0  0
   22.6192  -18.8019  -15.6792 N   0  0  0  0  0  0  0  0  0  0  0  0
   23.9824  -19.2750  -15.3759 C   0  0  0  0  0  0  0  0  0  0  0  0
   22.0190  -19.7164  -16.6517 O   0  0  0  0  0  0  0  0  0  0  0  0
   22.7603  -20.2868  -17.5283 O   0  0  0  0  0  0  0  0  0  0  0  0
  2  1  1  6
  2  3  1  0
  4  2  1  0
  4  6  1  0
  4  5  1  1
  6  7  2  0
  9  8  1  0
  9 10  2  0
 11  9  1  0
 12 11  1  0
 13 12  1  0
 14 13  1  0
 15 14  1  6
 16  6  1  0
 16 15  1  0
 17 15  1  0
 17 18  2  0
 19 20  1  0
 20 21  2  0
 20 22  1  0
 23 22  1  1
 23 25  1  0
 23 24  1  0
 24 17  1  0
 25 27  1  0
 26 25  2  0
M  END
$$$$
