TRN.pdb
     RDKit          3D

 27 26  0  0  1  0  0  0  0  0999 V2000
   26.4688  -17.1618  -17.8124 C   0  0  0  0  0  0  0  0  0  0  0  0
   27.1403  -18.2077  -18.6791 C   0  0  1  0  0  0  0  0  0  0  0  0
   27.9248  -17.6593  -19.6736 O   0  0  0  0  0  0  0  0  0  0  0  0
   27.9284  -19.1159  -17.7489 C   0  0  2  0  0  0  0  0  0  0  0  0
   28.7257  -20.0056  -18.5407 N   0  0  0  0  0  0  0  0  0  0  0  0
   26.9644  -19.7967  -16.8661 C   0  0  0  0  0  0  0  0  0  0  0  0
   26.4482  -20.8618  -17.2891 O   0  0  0  0  0  0  0  0  0  0  0  0
   24.8015  -21.5891  -10.4936 N   0  0  0  0  0  0  0  0  0  0  0  0
   25.9185  -20.8773   -9.9835 C   0  0  0  0  0  0  0  0  0  0  0  0
   25.8891  -20.2704   -8.8382 N   0  0  0  0  0  0  0  0  0  0  0  0
   27.1496  -20.7965  -10.7200 N   0  0  0  0  0  0  0  0  0  0  0  0
   27.3593  -21.7279  -11.8334 C   0  0  0  0  0  0  0  0  0  0  0  0
   27.4629  -20.8825  -13.0641 C   0  0  0  0  0  0  0  0  0  0  0  0
   26.3599  -20.0087  -13.4363 C   0  0  0  0  0  0  0  0  0  0  0  0
   25.6888  -20.0289  -14.7483 C   0  0  2  0  0  0  0  0  0  0  0  0
   26.6496  -19.2700  -15.6201 N   0  0  0  0  0  0  0  0  0  0  0  0
   24.3963  -19.4634  -14.9767 C   0  0  0  0  0  0  0  0  0  0  0  0
   24.2200  -18.1987  -14.8922 O   0  0  0  0  0  0  0  0  0  0  0  0
   26.7091  -19.6621   -8.6166 N   0  0  0  0  0  0  0  0  0  0  0  0
   22.6999  -21.0862  -18.7976 C   0  0  0  0  0  0  0  0  0  0  0  0
   22.2782  -19.9885  -18.0071 O   0  0  0  0  0  0  0  0  0  0  0  0
   22.6440  -18.8530  -18.3607 C   0  0  0  0  0  0  0  0  0  0  0  0
   21.4574  -20.2208  -16.8448 C   0  0  2  0  0  0  0  0  0  0  0  0
   21.9515  -19.5663  -15.5458 N   0  0  0  0  0  0  0  0  0  0  0  0
   23.2523  -20.2221  -15.3175 C   0  0  0  0  0  0  0  0  0  0  0  0
   21.0672  -19.8927  -14.4260 O   0  0  0  0  0  0  0  0  0  0  0  0
   19.8829  -19.4035  -14.3890 O   0  0  0  0  0  0  0  0  0  0  0  0
  2  1  1  1
  2  3  1  0
  4  2  1  0
  4  6  1  0
  4  5  1  6
  6  7  2  0
  9  8  1  0
  9 10  2  0
 11  9  1  0
 12 11  1  0
 13 12  1  0
 14 13  1  0
 15 14  1  1
 16  6  1  0
 16 15  1  0
 17 15  1  0
 17 18  2  0
 19 20  1  0
 20 21  2  0
 20 22  1  0
 23 22  1  6
 23 25  1  0
 23 24  1  0
 24 17  1  0
 25 27  1  0
 26 25  2  0
M  END
$$$$
