TRN.pdb
     RDKit          3D

 27 26  0  0  1  0  0  0  0  0999 V2000
   20.4625  -15.0021  -17.1031 C   0  0  0  0  0  0  0  0  0  0  0  0
   21.6003  -14.9027  -18.0988 C   0  0  1  0  0  0  0  0  0  0  0  0
   21.7900  -13.6201  -18.5726 O   0  0  0  0  0  0  0  0  0  0  0  0
   22.8383  -15.4610  -17.4156 C   0  0  2  0  0  0  0  0  0  0  0  0
   23.9527  -15.3354  -18.3081 N   0  0  0  0  0  0  0  0  0  0  0  0
   22.5413  -16.8480  -17.0159 C   0  0  0  0  0  0  0  0  0  0  0  0
   22.5919  -17.7291  -17.9108 O   0  0  0  0  0  0  0  0  0  0  0  0
   25.2514  -23.8052  -15.3795 N   0  0  0  0  0  0  0  0  0  0  0  0
   24.3316  -23.7799  -14.2988 C   0  0  0  0  0  0  0  0  0  0  0  0
   23.9253  -24.8608  -13.7093 N   0  0  0  0  0  0  0  0  0  0  0  0
   23.8030  -22.5405  -13.7997 N   0  0  0  0  0  0  0  0  0  0  0  0
   23.8920  -21.3501  -14.6519 C   0  0  0  0  0  0  0  0  0  0  0  0
   23.2920  -20.2306  -13.8602 C   0  0  0  0  0  0  0  0  0  0  0  0
   23.0922  -18.9303  -14.4831 C   0  0  0  0  0  0  0  0  0  0  0  0
   21.9483  -18.5889  -15.3473 C   0  0  2  0  0  0  0  0  0  0  0  0
   22.2199  -17.1531  -15.6996 N   0  0  0  0  0  0  0  0  0  0  0  0
   20.5890  -18.6518  -14.9102 C   0  0  0  0  0  0  0  0  0  0  0  0
   20.1512  -17.8228  -14.0391 O   0  0  0  0  0  0  0  0  0  0  0  0
   23.2568  -24.7314  -12.9170 N   0  0  0  0  0  0  0  0  0  0  0  0
   17.5635  -20.3932  -18.4780 C   0  0  0  0  0  0  0  0  0  0  0  0
   17.4344  -19.6494  -17.2790 O   0  0  0  0  0  0  0  0  0  0  0  0
   17.2719  -18.4201  -17.3814 C   0  0  0  0  0  0  0  0  0  0  0  0
   17.4949  -20.3286  -16.0087 C   0  0  2  0  0  0  0  0  0  0  0  0
   18.2581  -19.5887  -14.8997 N   0  0  0  0  0  0  0  0  0  0  0  0
   19.6467  -19.5879  -15.3959 C   0  0  0  0  0  0  0  0  0  0  0  0
   18.2169  -20.3407  -13.6446 O   0  0  0  0  0  0  0  0  0  0  0  0
   19.1721  -21.1450  -13.3548 O   0  0  0  0  0  0  0  0  0  0  0  0
  2  1  1  1
  2  3  1  0
  4  2  1  0
  4  6  1  0
  4  5  1  6
  6  7  2  0
  9  8  1  0
  9 10  2  0
 11  9  1  0
 12 11  1  0
 13 12  1  0
 14 13  1  0
 15 14  1  1
 16  6  1  0
 16 15  1  0
 17 15  1  0
 17 18  2  0
 19 20  1  0
 20 21  2  0
 20 22  1  0
 23 22  1  6
 23 25  1  0
 23 24  1  0
 24 17  1  0
 25 27  1  0
 26 25  2  0
M  END
$$$$
