TRN.pdb
     RDKit          3D

 27 26  0  0  1  0  0  0  0  0999 V2000
   28.4323  -18.4685  -17.3362 C   0  0  0  0  0  0  0  0  0  0  0  0
   27.1985  -19.1393  -16.7673 C   0  0  1  0  0  0  0  0  0  0  0  0
   26.1867  -19.2808  -17.6956 O   0  0  0  0  0  0  0  0  0  0  0  0
   27.6455  -20.4703  -16.1845 C   0  0  2  0  0  0  0  0  0  0  0  0
   28.0112  -21.3441  -17.2600 N   0  0  0  0  0  0  0  0  0  0  0  0
   26.5492  -20.9801  -15.3417 C   0  0  0  0  0  0  0  0  0  0  0  0
   25.7193  -21.7543  -15.8817 O   0  0  0  0  0  0  0  0  0  0  0  0
   22.8095  -19.8383   -9.3792 N   0  0  0  0  0  0  0  0  0  0  0  0
   23.1302  -20.8173   -8.4029 C   0  0  0  0  0  0  0  0  0  0  0  0
   22.2691  -21.2288   -7.5253 N   0  0  0  0  0  0  0  0  0  0  0  0
   24.4391  -21.4071   -8.3417 N   0  0  0  0  0  0  0  0  0  0  0  0
   25.4615  -20.9361   -9.2819 C   0  0  0  0  0  0  0  0  0  0  0  0
   24.8978  -21.1600  -10.6501 C   0  0  0  0  0  0  0  0  0  0  0  0
   25.7347  -20.9445  -11.8214 C   0  0  0  0  0  0  0  0  0  0  0  0
   25.2786  -21.1153  -13.2124 C   0  0  2  0  0  0  0  0  0  0  0  0
   26.4509  -20.6106  -14.0065 N   0  0  0  0  0  0  0  0  0  0  0  0
   24.1186  -20.4700  -13.7421 C   0  0  0  0  0  0  0  0  0  0  0  0
   24.1175  -19.2064  -13.9443 O   0  0  0  0  0  0  0  0  0  0  0  0
   22.6075  -21.9493   -6.8488 N   0  0  0  0  0  0  0  0  0  0  0  0
   19.9382  -21.1625  -17.8662 C   0  0  0  0  0  0  0  0  0  0  0  0
   20.2846  -20.5968  -16.6141 O   0  0  0  0  0  0  0  0  0  0  0  0
   19.6447  -19.5978  -16.2393 C   0  0  0  0  0  0  0  0  0  0  0  0
   21.3448  -21.1861  -15.8346 C   0  0  2  0  0  0  0  0  0  0  0  0
   21.7489  -20.4071  -14.5738 N   0  0  0  0  0  0  0  0  0  0  0  0
   22.9273  -21.1490  -14.0885 C   0  0  0  0  0  0  0  0  0  0  0  0
   20.7026  -20.4841  -13.5532 O   0  0  0  0  0  0  0  0  0  0  0  0
   20.6744  -21.4803  -12.7468 O   0  0  0  0  0  0  0  0  0  0  0  0
  2  1  1  6
  2  3  1  0
  4  2  1  0
  4  6  1  0
  4  5  1  6
  6  7  2  0
  9  8  1  0
  9 10  2  0
 11  9  1  0
 12 11  1  0
 13 12  1  0
 14 13  1  0
 15 14  1  1
 16  6  1  0
 16 15  1  0
 17 15  1  0
 17 18  2  0
 19 20  1  0
 20 21  2  0
 20 22  1  0
 23 22  1  6
 23 25  1  0
 23 24  1  0
 24 17  1  0
 25 27  1  0
 26 25  2  0
M  END
$$$$
