TRN.pdb
     RDKit          3D

 27 26  0  0  1  0  0  0  0  0999 V2000
   21.8320  -17.4582  -14.6979 C   0  0  0  0  0  0  0  0  0  0  0  0
   22.4618  -16.8508  -15.9350 C   0  0  1  0  0  0  0  0  0  0  0  0
   22.9140  -15.5627  -15.7312 O   0  0  0  0  0  0  0  0  0  0  0  0
   23.5685  -17.7940  -16.3786 C   0  0  2  0  0  0  0  0  0  0  0  0
   24.2595  -17.2038  -17.4869 N   0  0  0  0  0  0  0  0  0  0  0  0
   22.9508  -19.0976  -16.6802 C   0  0  0  0  0  0  0  0  0  0  0  0
   22.1037  -19.1330  -17.6081 O   0  0  0  0  0  0  0  0  0  0  0  0
   28.1259  -23.5739  -16.8682 N   0  0  0  0  0  0  0  0  0  0  0  0
   26.9436  -24.2648  -16.4953 C   0  0  0  0  0  0  0  0  0  0  0  0
   26.9214  -25.1286  -15.5287 N   0  0  0  0  0  0  0  0  0  0  0  0
   25.7002  -24.0352  -17.1780 N   0  0  0  0  0  0  0  0  0  0  0  0
   25.6547  -23.0001  -18.2161 C   0  0  0  0  0  0  0  0  0  0  0  0
   24.6186  -22.0158  -17.7715 C   0  0  0  0  0  0  0  0  0  0  0  0
   23.6601  -22.3900  -16.7419 C   0  0  0  0  0  0  0  0  0  0  0  0
   22.5778  -21.5157  -16.2557 C   0  0  2  0  0  0  0  0  0  0  0  0
   23.3011  -20.2318  -15.9593 N   0  0  0  0  0  0  0  0  0  0  0  0
   21.7867  -21.8139  -15.1035 C   0  0  0  0  0  0  0  0  0  0  0  0
   21.9124  -21.1197  -14.0358 O   0  0  0  0  0  0  0  0  0  0  0  0
   25.9900  -25.5436  -15.3014 N   0  0  0  0  0  0  0  0  0  0  0  0
   18.4271  -22.3527  -11.6069 C   0  0  0  0  0  0  0  0  0  0  0  0
   18.4705  -21.3709  -12.6275 O   0  0  0  0  0  0  0  0  0  0  0  0
   17.8365  -20.3173  -12.4372 C   0  0  0  0  0  0  0  0  0  0  0  0
   19.2315  -21.6218  -13.8261 C   0  0  2  0  0  0  0  0  0  0  0  0
   19.9260  -22.9904  -13.8932 N   0  0  0  0  0  0  0  0  0  0  0  0
   20.8252  -22.8500  -15.0534 C   0  0  0  0  0  0  0  0  0  0  0  0
   18.9617  -24.0529  -14.1826 O   0  0  0  0  0  0  0  0  0  0  0  0
   18.4710  -24.1609  -15.3619 O   0  0  0  0  0  0  0  0  0  0  0  0
  2  1  1  1
  2  3  1  0
  4  2  1  0
  4  6  1  0
  4  5  1  6
  6  7  2  0
  9  8  1  0
  9 10  2  0
 11  9  1  0
 12 11  1  0
 13 12  1  0
 14 13  1  0
 15 14  1  1
 16  6  1  0
 16 15  1  0
 17 15  1  0
 17 18  2  0
 19 20  1  0
 20 21  2  0
 20 22  1  0
 23 22  1  1
 23 25  1  0
 23 24  1  0
 24 17  1  0
 25 27  1  0
 26 25  2  0
M  END
$$$$
