TRN.pdb
     RDKit          3D

 27 26  0  0  1  0  0  0  0  0999 V2000
   25.2168  -14.0101  -15.3231 C   0  0  0  0  0  0  0  0  0  0  0  0
   24.3090  -15.1874  -15.6161 C   0  0  1  0  0  0  0  0  0  0  0  0
   23.3743  -14.9155  -16.5949 O   0  0  0  0  0  0  0  0  0  0  0  0
   25.2058  -16.3609  -15.9762 C   0  0  2  0  0  0  0  0  0  0  0  0
   25.7887  -16.1170  -17.2626 N   0  0  0  0  0  0  0  0  0  0  0  0
   24.3886  -17.5854  -15.9086 C   0  0  0  0  0  0  0  0  0  0  0  0
   23.9149  -18.0224  -16.9877 O   0  0  0  0  0  0  0  0  0  0  0  0
   23.4959  -24.6136  -14.4325 N   0  0  0  0  0  0  0  0  0  0  0  0
   24.8664  -24.2646  -14.5514 C   0  0  0  0  0  0  0  0  0  0  0  0
   25.6434  -24.8005  -15.4402 N   0  0  0  0  0  0  0  0  0  0  0  0
   25.4640  -23.2877  -13.6834 N   0  0  0  0  0  0  0  0  0  0  0  0
   24.6087  -22.6061  -12.7062 C   0  0  0  0  0  0  0  0  0  0  0  0
   23.6912  -21.7307  -13.5011 C   0  0  0  0  0  0  0  0  0  0  0  0
   24.1377  -20.4122  -13.9264 C   0  0  0  0  0  0  0  0  0  0  0  0
   23.3099  -19.4587  -14.6864 C   0  0  2  0  0  0  0  0  0  0  0  0
   24.1602  -18.2192  -14.6941 N   0  0  0  0  0  0  0  0  0  0  0  0
   22.0023  -19.0541  -14.2752 C   0  0  0  0  0  0  0  0  0  0  0  0
   21.8460  -18.3512  -13.2173 O   0  0  0  0  0  0  0  0  0  0  0  0
   26.5940  -24.3783  -15.5375 N   0  0  0  0  0  0  0  0  0  0  0  0
   19.6725  -16.7584  -17.3507 C   0  0  0  0  0  0  0  0  0  0  0  0
   19.2219  -17.0327  -16.0356 O   0  0  0  0  0  0  0  0  0  0  0  0
   19.2064  -16.0882  -15.2259 C   0  0  0  0  0  0  0  0  0  0  0  0
   18.8062  -18.3690  -15.6888 C   0  0  2  0  0  0  0  0  0  0  0  0
   19.4980  -18.9780  -14.4599 N   0  0  0  0  0  0  0  0  0  0  0  0
   20.8195  -19.3705  -14.9833 C   0  0  0  0  0  0  0  0  0  0  0  0
   18.8019  -20.1851  -14.0119 O   0  0  0  0  0  0  0  0  0  0  0  0
   19.3243  -21.3358  -14.2268 O   0  0  0  0  0  0  0  0  0  0  0  0
  2  1  1  6
  2  3  1  0
  4  2  1  0
  4  6  1  0
  4  5  1  6
  6  7  2  0
  9  8  1  0
  9 10  2  0
 11  9  1  0
 12 11  1  0
 13 12  1  0
 14 13  1  0
 15 14  1  1
 16  6  1  0
 16 15  1  0
 17 15  1  0
 17 18  2  0
 19 20  1  0
 20 21  2  0
 20 22  1  0
 23 22  1  1
 23 25  1  0
 23 24  1  0
 24 17  1  0
 25 27  1  0
 26 25  2  0
M  END
$$$$
