TRN.pdb
     RDKit          3D

 27 26  0  0  1  0  0  0  0  0999 V2000
   17.9274  -20.7411  -16.4414 C   0  0  0  0  0  0  0  0  0  0  0  0
   17.1266  -21.1431  -15.2195 C   0  0  1  0  0  0  0  0  0  0  0  0
   16.0075  -21.8887  -15.5313 O   0  0  0  0  0  0  0  0  0  0  0  0
   18.0766  -21.8789  -14.2883 C   0  0  2  0  0  0  0  0  0  0  0  0
   17.3508  -22.2931  -13.1239 N   0  0  0  0  0  0  0  0  0  0  0  0
   19.2088  -20.9797  -14.0029 C   0  0  0  0  0  0  0  0  0  0  0  0
   19.2324  -20.4223  -12.8766 O   0  0  0  0  0  0  0  0  0  0  0  0
   25.1304  -20.5031  -10.0642 N   0  0  0  0  0  0  0  0  0  0  0  0
   25.9478  -21.1278  -11.0419 C   0  0  0  0  0  0  0  0  0  0  0  0
   27.2416  -21.0486  -11.0167 N   0  0  0  0  0  0  0  0  0  0  0  0
   25.3733  -21.8884  -12.1173 N   0  0  0  0  0  0  0  0  0  0  0  0
   23.9145  -22.0303  -12.1702 C   0  0  0  0  0  0  0  0  0  0  0  0
   23.4424  -21.0529  -13.2006 C   0  0  0  0  0  0  0  0  0  0  0  0
   22.0260  -20.9732  -13.5266 C   0  0  0  0  0  0  0  0  0  0  0  0
   21.4525  -20.0515  -14.5234 C   0  0  2  0  0  0  0  0  0  0  0  0
   20.2016  -20.7670  -14.9506 N   0  0  0  0  0  0  0  0  0  0  0  0
   22.1329  -19.6688  -15.7205 C   0  0  0  0  0  0  0  0  0  0  0  0
   22.3759  -20.5347  -16.6308 O   0  0  0  0  0  0  0  0  0  0  0  0
   27.7473  -21.4942  -11.8149 N   0  0  0  0  0  0  0  0  0  0  0  0
   23.3342  -16.6416  -19.7125 C   0  0  0  0  0  0  0  0  0  0  0  0
   23.2664  -15.8510  -18.5387 O   0  0  0  0  0  0  0  0  0  0  0  0
   23.1867  -14.6176  -18.6817 C   0  0  0  0  0  0  0  0  0  0  0  0
   23.2920  -16.4900  -17.2464 C   0  0  2  0  0  0  0  0  0  0  0  0
   23.2357  -18.0250  -17.2674 N   0  0  0  0  0  0  0  0  0  0  0  0
   22.5637  -18.3501  -15.9958 C   0  0  0  0  0  0  0  0  0  0  0  0
   24.5821  -18.5985  -17.2377 O   0  0  0  0  0  0  0  0  0  0  0  0
   25.2311  -18.6379  -16.1329 O   0  0  0  0  0  0  0  0  0  0  0  0
  2  1  1  6
  2  3  1  0
  4  2  1  0
  4  6  1  0
  4  5  1  1
  6  7  2  0
  9  8  1  0
  9 10  2  0
 11  9  1  0
 12 11  1  0
 13 12  1  0
 14 13  1  0
 15 14  1  1
 16  6  1  0
 16 15  1  0
 17 15  1  0
 17 18  2  0
 19 20  1  0
 20 21  2  0
 20 22  1  0
 23 22  1  6
 23 25  1  0
 23 24  1  0
 24 17  1  0
 25 27  1  0
 26 25  2  0
M  END
$$$$
