TRN.pdb
     RDKit          3D

 27 26  0  0  1  0  0  0  0  0999 V2000
   34.2475  -38.2397   -2.3994 C   0  0  0  0  0  0  0  0  0  0  0  0
   33.8302  -38.3581   -3.8512 C   0  0  1  0  0  0  0  0  0  0  0  0
   32.5223  -38.7725   -4.0029 O   0  0  0  0  0  0  0  0  0  0  0  0
   34.0934  -37.0089   -4.5004 C   0  0  2  0  0  0  0  0  0  0  0  0
   35.5095  -36.7991   -4.5683 N   0  0  0  0  0  0  0  0  0  0  0  0
   33.3710  -35.9886   -3.7199 C   0  0  0  0  0  0  0  0  0  0  0  0
   34.0087  -35.4006   -2.8103 O   0  0  0  0  0  0  0  0  0  0  0  0
   26.5050  -32.7353   -3.8028 N   0  0  0  0  0  0  0  0  0  0  0  0
   26.2505  -33.5241   -4.9549 C   0  0  0  0  0  0  0  0  0  0  0  0
   25.0815  -34.0243   -5.2079 N   0  0  0  0  0  0  0  0  0  0  0  0
   27.2883  -33.8069   -5.9078 N   0  0  0  0  0  0  0  0  0  0  0  0
   28.6174  -33.2282   -5.6846 C   0  0  0  0  0  0  0  0  0  0  0  0
   29.2892  -34.1133   -4.6819 C   0  0  0  0  0  0  0  0  0  0  0  0
   30.6668  -33.8498   -4.2927 C   0  0  0  0  0  0  0  0  0  0  0  0
   31.3857  -34.5788   -3.2326 C   0  0  2  0  0  0  0  0  0  0  0  0
   32.0397  -35.6999   -3.9907 N   0  0  0  0  0  0  0  0  0  0  0  0
   30.7330  -35.1726   -2.1083 C   0  0  0  0  0  0  0  0  0  0  0  0
   30.2395  -36.3502   -2.1951 O   0  0  0  0  0  0  0  0  0  0  0  0
   25.0032  -34.5990   -6.0768 N   0  0  0  0  0  0  0  0  0  0  0  0
   30.6029  -34.0847    3.8575 C   0  0  0  0  0  0  0  0  0  0  0  0
   30.3176  -34.8823    2.7217 O   0  0  0  0  0  0  0  0  0  0  0  0
   30.2493  -36.1135    2.8879 C   0  0  0  0  0  0  0  0  0  0  0  0
   30.1210  -34.2526    1.4397 C   0  0  2  0  0  0  0  0  0  0  0  0
   29.8969  -35.2111    0.2604 N   0  0  0  0  0  0  0  0  0  0  0  0
   30.5972  -34.5404   -0.8505 C   0  0  0  0  0  0  0  0  0  0  0  0
   28.4756  -35.3017   -0.0777 O   0  0  0  0  0  0  0  0  0  0  0  0
   27.9523  -34.4310   -0.8595 O   0  0  0  0  0  0  0  0  0  0  0  0
  2  1  1  1
  2  3  1  0
  4  2  1  0
  4  6  1  0
  4  5  1  1
  6  7  2  0
  9  8  1  0
  9 10  2  0
 11  9  1  0
 12 11  1  0
 13 12  1  0
 14 13  1  0
 15 14  1  6
 16  6  1  0
 16 15  1  0
 17 15  1  0
 17 18  2  0
 19 20  1  0
 20 21  2  0
 20 22  1  0
 23 22  1  1
 23 25  1  0
 23 24  1  0
 24 17  1  0
 25 27  1  0
 26 25  2  0
M  END
$$$$
