TRN.pdb
     RDKit          3D

 27 26  0  0  1  0  0  0  0  0999 V2000
   26.8545  -21.9737  -12.9566 C   0  0  0  0  0  0  0  0  0  0  0  0
   25.3528  -21.8628  -13.1260 C   0  0  1  0  0  0  0  0  0  0  0  0
   24.6945  -23.0508  -12.8797 O   0  0  0  0  0  0  0  0  0  0  0  0
   24.8853  -20.7378  -12.2167 C   0  0  2  0  0  0  0  0  0  0  0  0
   25.0746  -21.1386  -10.8538 N   0  0  0  0  0  0  0  0  0  0  0  0
   23.4861  -20.4334  -12.5652 C   0  0  0  0  0  0  0  0  0  0  0  0
   22.6345  -20.5020  -11.6433 O   0  0  0  0  0  0  0  0  0  0  0  0
   18.5385  -16.6062  -16.8122 N   0  0  0  0  0  0  0  0  0  0  0  0
   19.7671  -15.9265  -17.0195 C   0  0  0  0  0  0  0  0  0  0  0  0
   19.8811  -14.6427  -16.8790 N   0  0  0  0  0  0  0  0  0  0  0  0
   20.9571  -16.6379  -17.3972 N   0  0  0  0  0  0  0  0  0  0  0  0
   20.8642  -18.0845  -17.6207 C   0  0  0  0  0  0  0  0  0  0  0  0
   20.6478  -18.6969  -16.2722 C   0  0  0  0  0  0  0  0  0  0  0  0
   21.7925  -19.0324  -15.4380 C   0  0  0  0  0  0  0  0  0  0  0  0
   21.7032  -19.7428  -14.1499 C   0  0  2  0  0  0  0  0  0  0  0  0
   23.1384  -20.0864  -13.8644 N   0  0  0  0  0  0  0  0  0  0  0  0
   20.9518  -20.9448  -13.9677 C   0  0  0  0  0  0  0  0  0  0  0  0
   21.4581  -22.0774  -14.2814 O   0  0  0  0  0  0  0  0  0  0  0  0
   20.8332  -14.2434  -17.0385 N   0  0  0  0  0  0  0  0  0  0  0  0
   19.1898  -21.9159   -9.7967 C   0  0  0  0  0  0  0  0  0  0  0  0
   18.9044  -22.7292  -10.9212 O   0  0  0  0  0  0  0  0  0  0  0  0
   19.3097  -23.9053  -10.8962 C   0  0  0  0  0  0  0  0  0  0  0  0
   18.1699  -22.1770  -12.0323 C   0  0  2  0  0  0  0  0  0  0  0  0
   18.8803  -22.2447  -13.3927 N   0  0  0  0  0  0  0  0  0  0  0  0
   19.6434  -20.9835  -13.4319 C   0  0  0  0  0  0  0  0  0  0  0  0
   17.9119  -22.2324  -14.4900 O   0  0  0  0  0  0  0  0  0  0  0  0
   17.2949  -23.3113  -14.8043 O   0  0  0  0  0  0  0  0  0  0  0  0
  2  1  1  1
  2  3  1  0
  4  2  1  0
  4  6  1  0
  4  5  1  1
  6  7  2  0
  9  8  1  0
  9 10  2  0
 11  9  1  0
 12 11  1  0
 13 12  1  0
 14 13  1  0
 15 14  1  6
 16  6  1  0
 16 15  1  0
 17 15  1  0
 17 18  2  0
 19 20  1  0
 20 21  2  0
 20 22  1  0
 23 22  1  1
 23 25  1  0
 23 24  1  0
 24 17  1  0
 25 27  1  0
 26 25  2  0
M  END
$$$$
