SNK.pdb
     RDKit          3D

 24 23  0  0  1  0  0  0  0  0999 V2000
   26.4586  -19.3050  -16.6911 O   0  0  0  0  0  0  0  0  0  0  0  0
   27.6676  -19.3659  -15.9995 C   0  0  0  0  0  0  0  0  0  0  0  0
   27.8861  -20.7790  -15.5766 C   0  0  2  0  0  0  0  0  0  0  0  0
   27.9544  -21.6660  -16.6951 N   0  0  0  0  0  0  0  0  0  0  0  0
   26.8113  -21.2203  -14.6167 C   0  0  0  0  0  0  0  0  0  0  0  0
   26.0018  -22.1256  -14.9330 O   0  0  0  0  0  0  0  0  0  0  0  0
   25.1732  -21.5463   -8.9567 N   0  0  0  0  0  0  0  0  0  0  0  0
   24.8303  -20.7852  -10.0969 C   0  0  0  0  0  0  0  0  0  0  0  0
   23.6331  -20.4740  -10.2752 O   0  0  0  0  0  0  0  0  0  0  0  0
   25.8547  -20.3567  -11.0704 C   0  0  0  0  0  0  0  0  0  0  0  0
   25.6403  -20.9719  -12.4286 C   0  0  2  0  0  0  0  0  0  0  0  0
   26.6955  -20.6226  -13.3431 N   0  0  0  0  0  0  0  0  0  0  0  0
   24.3493  -20.3847  -12.9495 C   0  0  0  0  0  0  0  0  0  0  0  0
   24.2846  -19.1588  -13.2329 O   0  0  0  0  0  0  0  0  0  0  0  0
   23.2008  -21.1738  -13.1309 N   0  0  0  0  0  0  0  0  0  0  0  0
   21.9620  -20.5307  -13.6188 C   0  0  1  0  0  0  0  0  0  0  0  0
   21.7781  -20.8456  -15.0653 C   0  0  0  0  0  0  0  0  0  0  0  0
   21.5034  -19.5893  -15.8439 C   0  0  0  0  0  0  0  0  0  0  0  0
   21.4221  -20.0249  -17.3109 C   0  0  0  0  0  0  0  0  0  0  0  0
   21.3175  -18.8125  -18.2192 C   0  0  0  0  0  0  0  0  0  0  0  0
   21.1821  -19.1843  -19.5940 N   0  0  0  0  0  0  0  0  0  0  0  0
   20.8562  -20.9225  -12.7343 C   0  0  0  0  0  0  0  0  0  0  0  0
   20.9094  -21.9293  -11.7950 O   0  0  0  0  0  0  0  0  0  0  0  0
   19.7364  -20.3084  -12.8093 O   0  0  0  0  0  0  0  0  0  0  0  0
  2  1  1  0
  3  5  1  0
  3  2  1  0
  3  4  1  6
  5  6  2  0
  7  8  1  0
  8  9  2  0
  8 10  1  0
 11 10  1  1
 11 13  1  0
 12 11  1  0
 12  5  1  0
 13 14  2  0
 13 15  1  0
 15 16  1  0
 16 22  1  0
 16 17  1  6
 18 17  1  0
 19 18  1  0
 20 19  1  0
 21 20  1  0
 22 24  2  0
 22 23  1  0
M  END
$$$$
