SNK.pdb
     RDKit          3D

 24 23  0  0  1  0  0  0  0  0999 V2000
   20.9232  -12.8839  -17.3547 O   0  0  0  0  0  0  0  0  0  0  0  0
   20.4658  -11.6797  -16.8212 C   0  0  0  0  0  0  0  0  0  0  0  0
   21.3452  -10.5873  -17.3281 C   0  0  2  0  0  0  0  0  0  0  0  0
   22.7263  -10.8536  -17.0751 N   0  0  0  0  0  0  0  0  0  0  0  0
   20.9448   -9.2616  -16.7335 C   0  0  0  0  0  0  0  0  0  0  0  0
   19.7851   -8.8104  -16.8957 O   0  0  0  0  0  0  0  0  0  0  0  0
   20.9622   -4.7784  -14.2124 N   0  0  0  0  0  0  0  0  0  0  0  0
   22.0254   -5.5465  -13.6865 C   0  0  0  0  0  0  0  0  0  0  0  0
   22.6241   -5.1304  -12.6715 O   0  0  0  0  0  0  0  0  0  0  0  0
   22.4350   -6.8200  -14.3118 C   0  0  0  0  0  0  0  0  0  0  0  0
   21.5436   -7.1989  -15.4656 C   0  0  2  0  0  0  0  0  0  0  0  0
   21.8680   -8.5026  -15.9823 N   0  0  0  0  0  0  0  0  0  0  0  0
   21.8133   -6.1804  -16.5485 C   0  0  0  0  0  0  0  0  0  0  0  0
   22.8612   -6.2627  -17.2433 O   0  0  0  0  0  0  0  0  0  0  0  0
   20.9195   -5.1280  -16.8098 N   0  0  0  0  0  0  0  0  0  0  0  0
   21.1769   -4.2427  -17.9658 C   0  0  1  0  0  0  0  0  0  0  0  0
   20.2786   -4.6275  -19.0929 C   0  0  0  0  0  0  0  0  0  0  0  0
   20.4564   -3.6840  -20.2498 C   0  0  0  0  0  0  0  0  0  0  0  0
   19.6487   -4.2906  -21.4022 C   0  0  0  0  0  0  0  0  0  0  0  0
   19.8045   -3.4517  -22.6583 C   0  0  0  0  0  0  0  0  0  0  0  0
   19.0583   -3.9874  -23.7551 N   0  0  0  0  0  0  0  0  0  0  0  0
   21.0739   -2.8483  -17.5145 C   0  0  0  0  0  0  0  0  0  0  0  0
   21.6146   -1.7610  -18.1659 O   0  0  0  0  0  0  0  0  0  0  0  0
   20.4428   -2.5762  -16.4355 O   0  0  0  0  0  0  0  0  0  0  0  0
  2  1  1  0
  3  5  1  0
  3  2  1  0
  3  4  1  1
  5  6  2  0
  7  8  1  0
  8  9  2  0
  8 10  1  0
 11 10  1  1
 11 13  1  0
 12 11  1  0
 12  5  1  0
 13 14  2  0
 13 15  1  0
 15 16  1  0
 16 22  1  0
 16 17  1  6
 18 17  1  0
 19 18  1  0
 20 19  1  0
 21 20  1  0
 22 24  2  0
 22 23  1  0
M  END
$$$$
