SNK.pdb
     RDKit          3D

 24 23  0  0  1  0  0  0  0  0999 V2000
   17.9052   -9.4470  -15.8538 O   0  0  0  0  0  0  0  0  0  0  0  0
   17.7455   -9.2648  -14.4808 C   0  0  0  0  0  0  0  0  0  0  0  0
   18.9214   -8.4980  -13.9777 C   0  0  2  0  0  0  0  0  0  0  0  0
   20.1417   -9.2231  -14.1436 N   0  0  0  0  0  0  0  0  0  0  0  0
   18.7278   -8.1121  -12.5338 C   0  0  0  0  0  0  0  0  0  0  0  0
   19.2433   -8.7925  -11.6139 O   0  0  0  0  0  0  0  0  0  0  0  0
   17.6789   -5.7134   -8.1670 N   0  0  0  0  0  0  0  0  0  0  0  0
   18.1738   -4.8124   -9.1366 C   0  0  0  0  0  0  0  0  0  0  0  0
   18.4619   -3.6482   -8.7850 O   0  0  0  0  0  0  0  0  0  0  0  0
   18.3535   -5.2216  -10.5440 C   0  0  0  0  0  0  0  0  0  0  0  0
   17.7605   -6.5783  -10.8213 C   0  0  2  0  0  0  0  0  0  0  0  0
   17.9622   -6.9772  -12.1895 N   0  0  0  0  0  0  0  0  0  0  0  0
   16.2751   -6.4369  -10.5840 C   0  0  0  0  0  0  0  0  0  0  0  0
   15.5544   -5.8518  -11.4359 O   0  0  0  0  0  0  0  0  0  0  0  0
   15.6619   -6.9445   -9.4260 N   0  0  0  0  0  0  0  0  0  0  0  0
   14.1929   -6.8426   -9.2923 C   0  0  1  0  0  0  0  0  0  0  0  0
   13.7248   -7.7935   -8.2426 C   0  0  0  0  0  0  0  0  0  0  0  0
   12.2299   -7.7221   -8.1005 C   0  0  0  0  0  0  0  0  0  0  0  0
   11.8689   -8.7604   -7.0327 C   0  0  0  0  0  0  0  0  0  0  0  0
   10.3788   -8.7264   -6.7421 C   0  0  0  0  0  0  0  0  0  0  0  0
    9.9881   -9.7572   -5.8304 N   0  0  0  0  0  0  0  0  0  0  0  0
   13.8431   -5.4318   -9.0778 C   0  0  0  0  0  0  0  0  0  0  0  0
   12.7245   -4.8055   -9.5831 O   0  0  0  0  0  0  0  0  0  0  0  0
   14.6104   -4.6884   -8.3741 O   0  0  0  0  0  0  0  0  0  0  0  0
  2  1  1  0
  3  5  1  0
  3  2  1  0
  3  4  1  1
  5  6  2  0
  7  8  1  0
  8  9  2  0
  8 10  1  0
 11 10  1  6
 11 13  1  0
 12 11  1  0
 12  5  1  0
 13 14  2  0
 13 15  1  0
 15 16  1  0
 16 22  1  0
 16 17  1  1
 18 17  1  0
 19 18  1  0
 20 19  1  0
 21 20  1  0
 22 24  2  0
 22 23  1  0
M  END
$$$$
