SNK.pdb
     RDKit          3D

 24 23  0  0  1  0  0  0  0  0999 V2000
   20.4728  -10.8867  -20.1396 O   0  0  0  0  0  0  0  0  0  0  0  0
   21.7326  -10.3157  -19.9641 C   0  0  0  0  0  0  0  0  0  0  0  0
   22.2418  -10.7255  -18.6238 C   0  0  2  0  0  0  0  0  0  0  0  0
   22.4239  -12.1400  -18.5321 N   0  0  0  0  0  0  0  0  0  0  0  0
   21.3229  -10.2389  -17.5329 C   0  0  0  0  0  0  0  0  0  0  0  0
   20.6026  -11.0444  -16.8949 O   0  0  0  0  0  0  0  0  0  0  0  0
   21.7992   -9.6048  -14.0867 N   0  0  0  0  0  0  0  0  0  0  0  0
   21.8261   -8.1930  -14.1409 C   0  0  0  0  0  0  0  0  0  0  0  0
   22.4375   -7.5678  -13.2480 O   0  0  0  0  0  0  0  0  0  0  0  0
   21.1495   -7.4533  -15.2253 C   0  0  0  0  0  0  0  0  0  0  0  0
   20.4044   -8.3705  -16.1595 C   0  0  2  0  0  0  0  0  0  0  0  0
   21.2556   -8.8666  -17.2088 N   0  0  0  0  0  0  0  0  0  0  0  0
   19.3200   -7.5276  -16.7890 C   0  0  0  0  0  0  0  0  0  0  0  0
   19.5768   -6.8272  -17.8044 O   0  0  0  0  0  0  0  0  0  0  0  0
   18.0141   -7.4992  -16.2708 N   0  0  0  0  0  0  0  0  0  0  0  0
   16.9841   -6.7038  -16.9729 C   0  0  1  0  0  0  0  0  0  0  0  0
   15.6300   -7.1851  -16.5729 C   0  0  0  0  0  0  0  0  0  0  0  0
   14.5643   -6.4183  -17.3052 C   0  0  0  0  0  0  0  0  0  0  0  0
   13.2320   -6.9827  -16.8003 C   0  0  0  0  0  0  0  0  0  0  0  0
   12.0683   -6.2922  -17.4893 C   0  0  0  0  0  0  0  0  0  0  0  0
   10.8062   -6.7866  -17.0317 N   0  0  0  0  0  0  0  0  0  0  0  0
   17.2528   -5.2797  -16.7312 C   0  0  0  0  0  0  0  0  0  0  0  0
   17.7536   -4.7538  -15.5601 O   0  0  0  0  0  0  0  0  0  0  0  0
   17.0160   -4.4246  -17.6529 O   0  0  0  0  0  0  0  0  0  0  0  0
  2  1  1  0
  3  5  1  0
  3  2  1  0
  3  4  1  6
  5  6  2  0
  7  8  1  0
  8  9  2  0
  8 10  1  0
 11 10  1  1
 11 13  1  0
 12 11  1  0
 12  5  1  0
 13 14  2  0
 13 15  1  0
 15 16  1  0
 16 22  1  0
 16 17  1  1
 18 17  1  0
 19 18  1  0
 20 19  1  0
 21 20  1  0
 22 24  2  0
 22 23  1  0
M  END
$$$$
