SNK.pdb
     RDKit          3D

 24 23  0  0  1  0  0  0  0  0999 V2000
   29.0660  -19.0249  -17.5680 O   0  0  0  0  0  0  0  0  0  0  0  0
   27.9340  -19.6341  -17.0282 C   0  0  0  0  0  0  0  0  0  0  0  0
   28.3661  -20.8876  -16.3459 C   0  0  2  0  0  0  0  0  0  0  0  0
   28.6034  -21.9466  -17.2758 N   0  0  0  0  0  0  0  0  0  0  0  0
   27.3528  -21.3084  -15.3127 C   0  0  0  0  0  0  0  0  0  0  0  0
   26.5215  -22.2147  -15.5622 O   0  0  0  0  0  0  0  0  0  0  0  0
   25.2169  -22.0912  -10.5230 N   0  0  0  0  0  0  0  0  0  0  0  0
   25.6288  -20.7511  -10.6999 C   0  0  0  0  0  0  0  0  0  0  0  0
   25.1363  -19.8680   -9.9654 O   0  0  0  0  0  0  0  0  0  0  0  0
   26.6219  -20.3827  -11.7288 C   0  0  0  0  0  0  0  0  0  0  0  0
   26.3162  -21.0099  -13.0638 C   0  0  2  0  0  0  0  0  0  0  0  0
   27.3204  -20.6900  -14.0441 N   0  0  0  0  0  0  0  0  0  0  0  0
   25.0064  -20.4064  -13.5142 C   0  0  0  0  0  0  0  0  0  0  0  0
   24.9743  -19.2236  -13.9472 O   0  0  0  0  0  0  0  0  0  0  0  0
   23.8044  -21.1326  -13.4651 N   0  0  0  0  0  0  0  0  0  0  0  0
   22.5607  -20.4883  -13.9387 C   0  0  1  0  0  0  0  0  0  0  0  0
   22.4469  -20.6593  -15.4162 C   0  0  0  0  0  0  0  0  0  0  0  0
   21.1348  -20.1137  -15.9070 C   0  0  0  0  0  0  0  0  0  0  0  0
   21.4568  -19.3859  -17.2165 C   0  0  0  0  0  0  0  0  0  0  0  0
   20.2117  -18.7168  -17.7716 C   0  0  0  0  0  0  0  0  0  0  0  0
   20.4432  -18.1421  -19.0611 N   0  0  0  0  0  0  0  0  0  0  0  0
   21.4377  -21.0091  -13.1472 C   0  0  0  0  0  0  0  0  0  0  0  0
   21.5284  -22.0072  -12.2014 O   0  0  0  0  0  0  0  0  0  0  0  0
   20.2647  -20.5280  -13.3183 O   0  0  0  0  0  0  0  0  0  0  0  0
  2  1  1  0
  3  5  1  0
  3  2  1  0
  3  4  1  6
  5  6  2  0
  7  8  1  0
  8  9  2  0
  8 10  1  0
 11 10  1  1
 11 13  1  0
 12 11  1  0
 12  5  1  0
 13 14  2  0
 13 15  1  0
 15 16  1  0
 16 22  1  0
 16 17  1  6
 18 17  1  0
 19 18  1  0
 20 19  1  0
 21 20  1  0
 22 24  2  0
 22 23  1  0
M  END
$$$$
