SNK.pdb
     RDKit          3D

 24 23  0  0  1  0  0  0  0  0999 V2000
   15.9826  -11.1751  -11.3621 O   0  0  0  0  0  0  0  0  0  0  0  0
   15.6732  -10.9627  -10.0194 C   0  0  0  0  0  0  0  0  0  0  0  0
   14.6482   -9.8820   -9.9479 C   0  0  2  0  0  0  0  0  0  0  0  0
   13.4903  -10.1927  -10.7257 N   0  0  0  0  0  0  0  0  0  0  0  0
   15.2349   -8.5618  -10.3772 C   0  0  0  0  0  0  0  0  0  0  0  0
   14.9213   -8.0490  -11.4788 O   0  0  0  0  0  0  0  0  0  0  0  0
   17.5918   -4.0043  -10.4294 N   0  0  0  0  0  0  0  0  0  0  0  0
   17.1552   -4.2962   -9.1175 C   0  0  0  0  0  0  0  0  0  0  0  0
   17.1085   -3.3709   -8.2788 O   0  0  0  0  0  0  0  0  0  0  0  0
   16.7574   -5.6638   -8.7273 C   0  0  0  0  0  0  0  0  0  0  0  0
   16.6977   -6.5969   -9.9084 C   0  0  2  0  0  0  0  0  0  0  0  0
   16.1488   -7.8775   -9.5471 N   0  0  0  0  0  0  0  0  0  0  0  0
   18.1291   -6.8023  -10.3461 C   0  0  0  0  0  0  0  0  0  0  0  0
   18.7663   -7.8178   -9.9585 O   0  0  0  0  0  0  0  0  0  0  0  0
   18.7829   -5.8833  -11.1843 N   0  0  0  0  0  0  0  0  0  0  0  0
   19.9606   -6.3334  -11.9568 C   0  0  1  0  0  0  0  0  0  0  0  0
   19.5808   -7.5035  -12.8005 C   0  0  0  0  0  0  0  0  0  0  0  0
   20.7534   -7.9577  -13.6244 C   0  0  0  0  0  0  0  0  0  0  0  0
   20.2319   -9.1214  -14.4742 C   0  0  0  0  0  0  0  0  0  0  0  0
   21.3084   -9.6039  -15.4304 C   0  0  0  0  0  0  0  0  0  0  0  0
   20.8311  -10.6394  -16.2945 N   0  0  0  0  0  0  0  0  0  0  0  0
   20.5117   -5.1781  -12.6781 C   0  0  0  0  0  0  0  0  0  0  0  0
   21.8530   -4.8925  -12.8129 O   0  0  0  0  0  0  0  0  0  0  0  0
   19.7199   -4.3445  -13.2392 O   0  0  0  0  0  0  0  0  0  0  0  0
  2  1  1  0
  3  5  1  0
  3  2  1  0
  3  4  1  6
  5  6  2  0
  7  8  1  0
  8  9  2  0
  8 10  1  0
 11 10  1  1
 11 13  1  0
 12 11  1  0
 12  5  1  0
 13 14  2  0
 13 15  1  0
 15 16  1  0
 16 22  1  0
 16 17  1  6
 18 17  1  0
 19 18  1  0
 20 19  1  0
 21 20  1  0
 22 24  2  0
 22 23  1  0
M  END
$$$$
