SNK.pdb
     RDKit          3D

 24 23  0  0  1  0  0  0  0  0999 V2000
   18.6212  -13.5229  -18.9378 O   0  0  0  0  0  0  0  0  0  0  0  0
   18.5345  -12.3500  -18.1890 C   0  0  0  0  0  0  0  0  0  0  0  0
   19.5431  -12.4270  -17.0933 C   0  0  2  0  0  0  0  0  0  0  0  0
   19.4525  -13.6563  -16.3702 N   0  0  0  0  0  0  0  0  0  0  0  0
   19.4055  -11.2525  -16.1589 C   0  0  0  0  0  0  0  0  0  0  0  0
   18.5215  -11.2422  -15.2683 O   0  0  0  0  0  0  0  0  0  0  0  0
   23.4711  -10.1594  -14.5326 N   0  0  0  0  0  0  0  0  0  0  0  0
   22.3421   -9.4271  -14.1012 C   0  0  0  0  0  0  0  0  0  0  0  0
   21.9643   -9.5463  -12.9159 O   0  0  0  0  0  0  0  0  0  0  0  0
   21.6099   -8.5329  -15.0204 C   0  0  0  0  0  0  0  0  0  0  0  0
   20.2294   -9.0476  -15.3341 C   0  0  2  0  0  0  0  0  0  0  0  0
   20.2694  -10.1416  -16.2687 N   0  0  0  0  0  0  0  0  0  0  0  0
   19.4967   -7.8971  -15.9838 C   0  0  0  0  0  0  0  0  0  0  0  0
   19.7182   -7.6110  -17.1907 O   0  0  0  0  0  0  0  0  0  0  0  0
   18.5619   -7.1238  -15.2747 N   0  0  0  0  0  0  0  0  0  0  0  0
   17.8247   -6.0605  -15.9904 C   0  0  1  0  0  0  0  0  0  0  0  0
   16.3596   -6.2493  -15.7833 C   0  0  0  0  0  0  0  0  0  0  0  0
   15.5922   -5.1179  -16.4087 C   0  0  0  0  0  0  0  0  0  0  0  0
   14.1158   -5.4196  -16.1302 C   0  0  0  0  0  0  0  0  0  0  0  0
   13.2310   -4.3460  -16.7388 C   0  0  0  0  0  0  0  0  0  0  0  0
   11.8510   -4.5456  -16.4190 N   0  0  0  0  0  0  0  0  0  0  0  0
   18.3661   -4.7596  -15.5742 C   0  0  0  0  0  0  0  0  0  0  0  0
   19.2020   -4.5551  -14.4979 O   0  0  0  0  0  0  0  0  0  0  0  0
   18.0621   -3.7062  -16.2335 O   0  0  0  0  0  0  0  0  0  0  0  0
  2  1  1  0
  3  5  1  0
  3  2  1  0
  3  4  1  1
  5  6  2  0
  7  8  1  0
  8  9  2  0
  8 10  1  0
 11 10  1  6
 11 13  1  0
 12 11  1  0
 12  5  1  0
 13 14  2  0
 13 15  1  0
 15 16  1  0
 16 22  1  0
 16 17  1  1
 18 17  1  0
 19 18  1  0
 20 19  1  0
 21 20  1  0
 22 24  2  0
 22 23  1  0
M  END
$$$$
