SNK.pdb
     RDKit          3D

 24 23  0  0  1  0  0  0  0  0999 V2000
   18.3630  -13.4857  -17.1787 O   0  0  0  0  0  0  0  0  0  0  0  0
   18.6621  -12.3233  -17.8880 C   0  0  0  0  0  0  0  0  0  0  0  0
   19.7855  -11.6338  -17.1906 C   0  0  2  0  0  0  0  0  0  0  0  0
   20.8325  -12.5411  -16.8398 N   0  0  0  0  0  0  0  0  0  0  0  0
   19.2870  -10.9042  -15.9698 C   0  0  0  0  0  0  0  0  0  0  0  0
   18.8043  -11.5352  -14.9985 O   0  0  0  0  0  0  0  0  0  0  0  0
   21.2286   -9.0526  -13.2597 N   0  0  0  0  0  0  0  0  0  0  0  0
   20.9305   -7.7683  -13.7684 C   0  0  0  0  0  0  0  0  0  0  0  0
   21.7427   -6.8392  -13.5709 O   0  0  0  0  0  0  0  0  0  0  0  0
   19.6868   -7.5106  -14.5217 C   0  0  0  0  0  0  0  0  0  0  0  0
   18.8878   -8.7678  -14.7461 C   0  0  2  0  0  0  0  0  0  0  0  0
   19.3543   -9.4960  -15.8967 N   0  0  0  0  0  0  0  0  0  0  0  0
   17.4716   -8.3154  -15.0150 C   0  0  0  0  0  0  0  0  0  0  0  0
   17.1644   -7.8452  -16.1429 O   0  0  0  0  0  0  0  0  0  0  0  0
   16.4705   -8.4034  -14.0328 N   0  0  0  0  0  0  0  0  0  0  0  0
   15.0962   -7.9774  -14.3734 C   0  0  1  0  0  0  0  0  0  0  0  0
   14.1236   -8.7090  -13.5107 C   0  0  0  0  0  0  0  0  0  0  0  0
   12.7143   -8.3357  -13.8775 C   0  0  0  0  0  0  0  0  0  0  0  0
   11.8205   -9.0669  -12.8702 C   0  0  0  0  0  0  0  0  0  0  0  0
   10.3566   -8.8880  -13.2323 C   0  0  0  0  0  0  0  0  0  0  0  0
    9.4937   -9.5920  -12.3343 N   0  0  0  0  0  0  0  0  0  0  0  0
   15.0341   -6.5111  -14.3041 C   0  0  0  0  0  0  0  0  0  0  0  0
   15.5577   -5.7414  -13.2881 O   0  0  0  0  0  0  0  0  0  0  0  0
   14.4559   -5.8562  -15.2388 O   0  0  0  0  0  0  0  0  0  0  0  0
  2  1  1  0
  3  5  1  0
  3  2  1  0
  3  4  1  1
  5  6  2  0
  7  8  1  0
  8  9  2  0
  8 10  1  0
 11 10  1  6
 11 13  1  0
 12 11  1  0
 12  5  1  0
 13 14  2  0
 13 15  1  0
 15 16  1  0
 16 22  1  0
 16 17  1  1
 18 17  1  0
 19 18  1  0
 20 19  1  0
 21 20  1  0
 22 24  2  0
 22 23  1  0
M  END
$$$$
