SNK.pdb
     RDKit          3D

 24 23  0  0  1  0  0  0  0  0999 V2000
   25.1762   -8.3040  -20.0151 O   0  0  0  0  0  0  0  0  0  0  0  0
   24.2568   -7.7607  -19.1188 C   0  0  0  0  0  0  0  0  0  0  0  0
   23.7264   -8.8691  -18.2739 C   0  0  2  0  0  0  0  0  0  0  0  0
   22.7265   -9.6286  -18.9564 N   0  0  0  0  0  0  0  0  0  0  0  0
   23.1876   -8.3353  -16.9715 C   0  0  0  0  0  0  0  0  0  0  0  0
   23.0656   -9.0854  -15.9729 O   0  0  0  0  0  0  0  0  0  0  0  0
   22.3076   -5.0569  -12.8896 N   0  0  0  0  0  0  0  0  0  0  0  0
   22.0164   -4.4998  -14.1552 C   0  0  0  0  0  0  0  0  0  0  0  0
   21.2286   -3.5318  -14.2199 O   0  0  0  0  0  0  0  0  0  0  0  0
   22.6227   -5.0388  -15.3891 C   0  0  0  0  0  0  0  0  0  0  0  0
   22.2016   -6.4605  -15.6549 C   0  0  2  0  0  0  0  0  0  0  0  0
   22.8101   -6.9805  -16.8512 N   0  0  0  0  0  0  0  0  0  0  0  0
   20.7062   -6.4165  -15.8656 C   0  0  0  0  0  0  0  0  0  0  0  0
   20.2345   -5.9396  -16.9322 O   0  0  0  0  0  0  0  0  0  0  0  0
   19.8105   -6.8976  -14.8957 N   0  0  0  0  0  0  0  0  0  0  0  0
   18.3646   -6.9153  -15.2046 C   0  0  1  0  0  0  0  0  0  0  0  0
   17.7793   -8.2125  -14.7576 C   0  0  0  0  0  0  0  0  0  0  0  0
   16.3388   -8.3091  -15.1767 C   0  0  0  0  0  0  0  0  0  0  0  0
   15.8610   -9.6817  -14.6907 C   0  0  0  0  0  0  0  0  0  0  0  0
   14.4249   -9.9259  -15.1197 C   0  0  0  0  0  0  0  0  0  0  0  0
   13.9328  -11.1840  -14.6491 N   0  0  0  0  0  0  0  0  0  0  0  0
   17.7530   -5.7079  -14.6329 C   0  0  0  0  0  0  0  0  0  0  0  0
   16.7338   -4.9838  -15.2122 O   0  0  0  0  0  0  0  0  0  0  0  0
   18.1701   -5.2566  -13.5109 O   0  0  0  0  0  0  0  0  0  0  0  0
  2  1  1  0
  3  5  1  0
  3  2  1  0
  3  4  1  6
  5  6  2  0
  7  8  1  0
  8  9  2  0
  8 10  1  0
 11 10  1  6
 11 13  1  0
 12 11  1  0
 12  5  1  0
 13 14  2  0
 13 15  1  0
 15 16  1  0
 16 22  1  0
 16 17  1  1
 18 17  1  0
 19 18  1  0
 20 19  1  0
 21 20  1  0
 22 24  2  0
 22 23  1  0
M  END
$$$$
