SNK.pdb
     RDKit          3D

 24 23  0  0  1  0  0  0  0  0999 V2000
   15.2287  -10.6410  -16.0129 O   0  0  0  0  0  0  0  0  0  0  0  0
   16.1846   -9.6839  -15.6750 C   0  0  0  0  0  0  0  0  0  0  0  0
   17.3932  -10.3974  -15.1713 C   0  0  2  0  0  0  0  0  0  0  0  0
   17.2194  -11.8159  -15.1841 N   0  0  0  0  0  0  0  0  0  0  0  0
   17.7550   -9.9216  -13.7877 C   0  0  0  0  0  0  0  0  0  0  0  0
   17.5575  -10.6521  -12.7867 O   0  0  0  0  0  0  0  0  0  0  0  0
   21.7168   -7.3331  -13.9422 N   0  0  0  0  0  0  0  0  0  0  0  0
   21.0701   -7.7090  -12.7433 C   0  0  0  0  0  0  0  0  0  0  0  0
   21.6173   -8.5551  -12.0040 O   0  0  0  0  0  0  0  0  0  0  0  0
   19.7714   -7.1230  -12.3552 C   0  0  0  0  0  0  0  0  0  0  0  0
   18.6793   -8.1582  -12.2854 C   0  0  2  0  0  0  0  0  0  0  0  0
   18.3231   -8.6441  -13.5927 N   0  0  0  0  0  0  0  0  0  0  0  0
   17.4782   -7.4535  -11.6994 C   0  0  0  0  0  0  0  0  0  0  0  0
   16.8222   -6.6382  -12.4012 O   0  0  0  0  0  0  0  0  0  0  0  0
   17.0626   -7.6815  -10.3765 N   0  0  0  0  0  0  0  0  0  0  0  0
   15.8798   -6.9569   -9.8645 C   0  0  1  0  0  0  0  0  0  0  0  0
   14.9403   -7.9282   -9.2327 C   0  0  0  0  0  0  0  0  0  0  0  0
   13.7418   -7.2112   -8.6761 C   0  0  0  0  0  0  0  0  0  0  0  0
   12.8427   -8.3063   -8.0923 C   0  0  0  0  0  0  0  0  0  0  0  0
   11.6148   -7.6937   -7.4420 C   0  0  0  0  0  0  0  0  0  0  0  0
   10.7325   -8.6913   -6.9195 N   0  0  0  0  0  0  0  0  0  0  0  0
   16.3437   -5.8629   -9.0005 C   0  0  0  0  0  0  0  0  0  0  0  0
   15.6165   -4.7348   -8.6883 O   0  0  0  0  0  0  0  0  0  0  0  0
   17.5095   -5.9196   -8.4767 O   0  0  0  0  0  0  0  0  0  0  0  0
  2  1  1  0
  3  5  1  0
  3  2  1  0
  3  4  1  1
  5  6  2  0
  7  8  1  0
  8  9  2  0
  8 10  1  0
 11 10  1  6
 11 13  1  0
 12 11  1  0
 12  5  1  0
 13 14  2  0
 13 15  1  0
 15 16  1  0
 16 22  1  0
 16 17  1  1
 18 17  1  0
 19 18  1  0
 20 19  1  0
 21 20  1  0
 22 24  2  0
 22 23  1  0
M  END
$$$$
