DAM.pdb
     RDKit          3D

 22 21  0  0  1  0  0  0  0  0999 V2000
   17.9453  -12.8514  -17.6257 N   0  0  0  0  0  0  0  0  0  0  0  0
   17.6832  -12.1033  -16.4095 C   0  0  1  0  0  0  0  0  0  0  0  0
   18.1673  -12.8934  -15.2134 C   0  0  0  0  0  0  0  0  0  0  0  0
   17.2497  -14.0554  -15.0716 C   0  0  0  0  0  0  0  0  0  0  0  0
   15.9765  -13.9189  -15.0842 O   0  0  0  0  0  0  0  0  0  0  0  0
   18.2596  -10.7617  -16.5152 C   0  0  0  0  0  0  0  0  0  0  0  0
   19.4016  -10.6356  -17.0257 O   0  0  0  0  0  0  0  0  0  0  0  0
   17.7199  -15.3570  -14.9190 O   0  0  0  0  0  0  0  0  0  0  0  0
   17.3107   -7.2048  -15.7985 C   0  0  0  0  0  0  0  0  0  0  0  0
   18.2604   -8.3284  -16.1174 C   0  0  2  0  0  0  0  0  0  0  0  0
   17.5857   -9.5800  -16.0660 N   0  0  0  0  0  0  0  0  0  0  0  0
   19.4293   -8.2645  -15.1876 C   0  0  0  0  0  0  0  0  0  0  0  0
   19.5557   -9.0080  -14.1804 O   0  0  0  0  0  0  0  0  0  0  0  0
   26.5200   -9.8994  -14.4526 C   0  0  0  0  0  0  0  0  0  0  0  0
   24.9425   -9.7079  -15.2673 S   0  0  0  0  0  0  0  0  0  0  0  0
   23.8870   -8.4404  -14.5115 C   0  0  0  0  0  0  0  0  0  0  0  0
   22.5683   -8.3199  -15.1863 C   0  0  0  0  0  0  0  0  0  0  0  0
   21.6688   -7.2268  -14.6751 C   0  0  2  0  0  0  0  0  0  0  0  0
   20.4376   -7.3072  -15.4789 N   0  0  0  0  0  0  0  0  0  0  0  0
   22.3356   -5.9189  -14.8772 C   0  0  0  0  0  0  0  0  0  0  0  0
   22.3139   -5.2476  -15.9228 O   0  0  0  0  0  0  0  0  0  0  0  0
   23.0522   -5.4032  -13.7778 O   0  0  0  0  0  0  0  0  0  0  0  0
  2  1  1  6
  3  2  1  0
  4  3  1  0
  4  5  2  0
  6  2  1  0
  6 11  1  0
  7  6  2  0
  8  4  1  0
 10 11  1  0
 10 12  1  0
 10  9  1  1
 12 13  2  0
 14 15  1  0
 16 15  1  0
 17 16  1  0
 18 17  1  6
 18 20  1  0
 19 12  1  0
 19 18  1  0
 20 21  2  0
 20 22  1  0
M  END
$$$$
