DAM.pdb
     RDKit          3D

 22 21  0  0  1  0  0  0  0  0999 V2000
   13.8337   -9.4323   -9.5644 N   0  0  0  0  0  0  0  0  0  0  0  0
   15.2148   -9.4362  -10.0114 C   0  0  1  0  0  0  0  0  0  0  0  0
   15.3834  -10.4408  -11.1301 C   0  0  0  0  0  0  0  0  0  0  0  0
   15.1972  -11.7866  -10.5249 C   0  0  0  0  0  0  0  0  0  0  0  0
   15.9013  -12.1869   -9.5329 O   0  0  0  0  0  0  0  0  0  0  0  0
   15.6303   -8.0760  -10.3592 C   0  0  0  0  0  0  0  0  0  0  0  0
   15.0367   -7.4867  -11.2977 O   0  0  0  0  0  0  0  0  0  0  0  0
   14.2473  -12.6877  -10.9987 O   0  0  0  0  0  0  0  0  0  0  0  0
   16.7124   -5.0298   -9.1619 C   0  0  0  0  0  0  0  0  0  0  0  0
   17.0894   -6.0995  -10.1518 C   0  0  2  0  0  0  0  0  0  0  0  0
   16.6822   -7.3789   -9.6811 N   0  0  0  0  0  0  0  0  0  0  0  0
   18.5577   -6.0249  -10.4226 C   0  0  0  0  0  0  0  0  0  0  0  0
   19.4350   -6.3749   -9.5912 O   0  0  0  0  0  0  0  0  0  0  0  0
   21.6142  -10.6617  -13.3449 C   0  0  0  0  0  0  0  0  0  0  0  0
   21.2604   -9.0115  -13.9284 S   0  0  0  0  0  0  0  0  0  0  0  0
   20.9701   -7.8186  -12.5926 C   0  0  0  0  0  0  0  0  0  0  0  0
   20.6306   -6.4640  -13.1014 C   0  0  0  0  0  0  0  0  0  0  0  0
   20.3814   -5.4140  -12.0522 C   0  0  2  0  0  0  0  0  0  0  0  0
   18.9583   -5.5311  -11.6929 N   0  0  0  0  0  0  0  0  0  0  0  0
   20.6624   -4.0784  -12.6296 C   0  0  0  0  0  0  0  0  0  0  0  0
   19.8226   -3.3174  -13.1394 O   0  0  0  0  0  0  0  0  0  0  0  0
   22.0041   -3.6466  -12.5886 O   0  0  0  0  0  0  0  0  0  0  0  0
  2  1  1  6
  3  2  1  0
  4  3  1  0
  4  5  2  0
  6  2  1  0
  6 11  1  0
  7  6  2  0
  8  4  1  0
 10 11  1  0
 10 12  1  0
 10  9  1  1
 12 13  2  0
 14 15  1  0
 16 15  1  0
 17 16  1  0
 18 17  1  6
 18 20  1  0
 19 12  1  0
 19 18  1  0
 20 21  2  0
 20 22  1  0
M  END
$$$$
