DAM.pdb
     RDKit          3D

 22 21  0  0  1  0  0  0  0  0999 V2000
   18.5313  -22.0065  -14.6363 N   0  0  0  0  0  0  0  0  0  0  0  0
   19.5890  -21.0572  -14.9321 C   0  0  1  0  0  0  0  0  0  0  0  0
   19.2384  -19.7075  -14.3453 C   0  0  0  0  0  0  0  0  0  0  0  0
   18.2258  -19.1004  -15.2499 C   0  0  0  0  0  0  0  0  0  0  0  0
   18.3296  -19.1664  -16.5246 O   0  0  0  0  0  0  0  0  0  0  0  0
   20.8770  -21.5899  -14.4838 C   0  0  0  0  0  0  0  0  0  0  0  0
   21.0664  -21.7488  -13.2511 O   0  0  0  0  0  0  0  0  0  0  0  0
   17.1071  -18.4279  -14.7653 O   0  0  0  0  0  0  0  0  0  0  0  0
   24.0208  -23.0073  -15.9374 C   0  0  0  0  0  0  0  0  0  0  0  0
   23.1813  -22.3850  -14.8539 C   0  0  2  0  0  0  0  0  0  0  0  0
   21.9364  -21.9420  -15.3815 N   0  0  0  0  0  0  0  0  0  0  0  0
   23.9554  -21.2852  -14.2011 C   0  0  0  0  0  0  0  0  0  0  0  0
   23.8901  -20.0818  -14.5627 O   0  0  0  0  0  0  0  0  0  0  0  0
   25.1431  -21.1294   -7.8405 C   0  0  0  0  0  0  0  0  0  0  0  0
   26.7540  -20.7121   -8.4886 S   0  0  0  0  0  0  0  0  0  0  0  0
   26.7231  -20.1999  -10.2287 C   0  0  0  0  0  0  0  0  0  0  0  0
   25.8453  -21.0627  -11.0617 C   0  0  0  0  0  0  0  0  0  0  0  0
   25.7155  -20.6632  -12.5070 C   0  0  2  0  0  0  0  0  0  0  0  0
   24.8006  -21.6427  -13.1168 N   0  0  0  0  0  0  0  0  0  0  0  0
   27.0498  -20.7306  -13.1482 C   0  0  0  0  0  0  0  0  0  0  0  0
   27.5886  -21.7574  -13.5952 O   0  0  0  0  0  0  0  0  0  0  0  0
   27.7573  -19.5155  -13.2544 O   0  0  0  0  0  0  0  0  0  0  0  0
  2  1  1  1
  3  2  1  0
  4  3  1  0
  4  5  2  0
  6  2  1  0
  6 11  1  0
  7  6  2  0
  8  4  1  0
 10 11  1  0
 10 12  1  0
 10  9  1  6
 12 13  2  0
 14 15  1  0
 16 15  1  0
 17 16  1  0
 18 17  1  1
 18 20  1  0
 19 12  1  0
 19 18  1  0
 20 21  2  0
 20 22  1  0
M  END
$$$$
