DAM.pdb
     RDKit          3D

 22 21  0  0  1  0  0  0  0  0999 V2000
   17.5854  -12.1937  -17.6391 N   0  0  0  0  0  0  0  0  0  0  0  0
   17.3529  -11.3438  -16.4854 C   0  0  1  0  0  0  0  0  0  0  0  0
   17.6381  -12.1192  -15.2180 C   0  0  0  0  0  0  0  0  0  0  0  0
   16.6155  -13.1964  -15.1391 C   0  0  0  0  0  0  0  0  0  0  0  0
   15.3616  -12.9472  -15.2135 O   0  0  0  0  0  0  0  0  0  0  0  0
   18.1213  -10.1044  -16.6160 C   0  0  0  0  0  0  0  0  0  0  0  0
   19.3221  -10.1764  -16.9811 O   0  0  0  0  0  0  0  0  0  0  0  0
   16.9605  -14.5361  -14.9821 O   0  0  0  0  0  0  0  0  0  0  0  0
   17.6078   -6.4045  -16.2558 C   0  0  0  0  0  0  0  0  0  0  0  0
   18.4153   -7.6644  -16.4191 C   0  0  2  0  0  0  0  0  0  0  0  0
   17.5723   -8.8084  -16.3491 N   0  0  0  0  0  0  0  0  0  0  0  0
   19.5051   -7.6873  -15.3961 C   0  0  0  0  0  0  0  0  0  0  0  0
   19.3393   -8.0879  -14.2149 O   0  0  0  0  0  0  0  0  0  0  0  0
   26.8265   -9.8317  -14.5892 C   0  0  0  0  0  0  0  0  0  0  0  0
   25.3247   -9.5608  -15.5165 S   0  0  0  0  0  0  0  0  0  0  0  0
   24.2357   -8.3102  -14.7805 C   0  0  0  0  0  0  0  0  0  0  0  0
   22.9422   -8.1848  -15.5017 C   0  0  0  0  0  0  0  0  0  0  0  0
   21.9347   -7.2539  -14.8822 C   0  0  2  0  0  0  0  0  0  0  0  0
   20.7865   -7.2293  -15.8038 N   0  0  0  0  0  0  0  0  0  0  0  0
   22.5338   -5.9037  -14.7638 C   0  0  0  0  0  0  0  0  0  0  0  0
   22.5397   -5.0326  -15.6502 O   0  0  0  0  0  0  0  0  0  0  0  0
   23.1458   -5.5944  -13.5317 O   0  0  0  0  0  0  0  0  0  0  0  0
  2  1  1  6
  3  2  1  0
  4  3  1  0
  4  5  2  0
  6  2  1  0
  6 11  1  0
  7  6  2  0
  8  4  1  0
 10 11  1  0
 10 12  1  0
 10  9  1  1
 12 13  2  0
 14 15  1  0
 16 15  1  0
 17 16  1  0
 18 17  1  6
 18 20  1  0
 19 12  1  0
 19 18  1  0
 20 21  2  0
 20 22  1  0
M  END
$$$$
