DAM.pdb
     RDKit          3D

 22 21  0  0  1  0  0  0  0  0999 V2000
   17.1659  -10.2941  -18.3128 N   0  0  0  0  0  0  0  0  0  0  0  0
   16.5865   -9.2971  -17.4308 C   0  0  1  0  0  0  0  0  0  0  0  0
   16.1593   -9.9522  -16.1356 C   0  0  0  0  0  0  0  0  0  0  0  0
   15.0076  -10.8340  -16.4646 C   0  0  0  0  0  0  0  0  0  0  0  0
   14.0823  -10.4678  -17.2706 O   0  0  0  0  0  0  0  0  0  0  0  0
   17.5184   -8.1810  -17.2595 C   0  0  0  0  0  0  0  0  0  0  0  0
   18.7520   -8.4233  -17.2466 O   0  0  0  0  0  0  0  0  0  0  0  0
   14.8690  -12.1073  -15.9185 O   0  0  0  0  0  0  0  0  0  0  0  0
   17.4283   -4.4451  -16.9269 C   0  0  0  0  0  0  0  0  0  0  0  0
   18.0677   -5.8072  -16.8821 C   0  0  2  0  0  0  0  0  0  0  0  0
   17.0949   -6.8210  -17.1063 N   0  0  0  0  0  0  0  0  0  0  0  0
   18.7841   -5.9728  -15.5805 C   0  0  0  0  0  0  0  0  0  0  0  0
   18.2829   -6.5508  -14.5816 O   0  0  0  0  0  0  0  0  0  0  0  0
   24.0480   -9.8273  -12.3381 C   0  0  0  0  0  0  0  0  0  0  0  0
   22.9138   -9.2628  -13.5967 S   0  0  0  0  0  0  0  0  0  0  0  0
   22.3770   -7.5448  -13.3689 C   0  0  0  0  0  0  0  0  0  0  0  0
   21.4594   -7.0867  -14.4446 C   0  0  0  0  0  0  0  0  0  0  0  0
   20.9403   -5.6806  -14.3076 C   0  0  2  0  0  0  0  0  0  0  0  0
   20.0991   -5.4428  -15.4926 N   0  0  0  0  0  0  0  0  0  0  0  0
   22.0871   -4.7423  -14.2888 C   0  0  0  0  0  0  0  0  0  0  0  0
   22.5071   -4.0908  -15.2601 O   0  0  0  0  0  0  0  0  0  0  0  0
   22.7486   -4.5843  -13.0535 O   0  0  0  0  0  0  0  0  0  0  0  0
  2  1  1  6
  3  2  1  0
  4  3  1  0
  4  5  2  0
  6  2  1  0
  6 11  1  0
  7  6  2  0
  8  4  1  0
 10 11  1  0
 10 12  1  0
 10  9  1  1
 12 13  2  0
 14 15  1  0
 16 15  1  0
 17 16  1  0
 18 17  1  6
 18 20  1  0
 19 12  1  0
 19 18  1  0
 20 21  2  0
 20 22  1  0
M  END
$$$$
