DAM.pdb
     RDKit          3D

 22 21  0  0  1  0  0  0  0  0999 V2000
   17.4665  -12.8210  -16.7689 N   0  0  0  0  0  0  0  0  0  0  0  0
   17.0062  -11.6398  -16.0616 C   0  0  1  0  0  0  0  0  0  0  0  0
   16.8921  -11.9453  -14.5841 C   0  0  0  0  0  0  0  0  0  0  0  0
   15.7931  -12.9368  -14.4384 C   0  0  0  0  0  0  0  0  0  0  0  0
   15.9690  -14.0623  -13.8534 O   0  0  0  0  0  0  0  0  0  0  0  0
   17.8734  -10.5022  -16.3736 C   0  0  0  0  0  0  0  0  0  0  0  0
   19.1146  -10.6913  -16.4382 O   0  0  0  0  0  0  0  0  0  0  0  0
   14.5109  -12.6994  -14.9265 O   0  0  0  0  0  0  0  0  0  0  0  0
   17.5476   -6.8978  -17.3562 C   0  0  0  0  0  0  0  0  0  0  0  0
   18.2910   -8.1401  -16.9437 C   0  0  2  0  0  0  0  0  0  0  0  0
   17.3778   -9.1792  -16.6113 N   0  0  0  0  0  0  0  0  0  0  0  0
   19.2209   -7.8081  -15.8212 C   0  0  0  0  0  0  0  0  0  0  0  0
   18.8868   -7.8489  -14.6088 O   0  0  0  0  0  0  0  0  0  0  0  0
   25.5491  -10.8045  -14.3986 C   0  0  0  0  0  0  0  0  0  0  0  0
   24.9017   -9.4670  -15.3892 S   0  0  0  0  0  0  0  0  0  0  0  0
   23.3840   -8.7365  -14.7151 C   0  0  0  0  0  0  0  0  0  0  0  0
   22.8382   -7.6571  -15.5788 C   0  0  0  0  0  0  0  0  0  0  0  0
   21.5289   -7.0623  -15.1347 C   0  0  2  0  0  0  0  0  0  0  0  0
   20.5461   -7.4314  -16.1672 N   0  0  0  0  0  0  0  0  0  0  0  0
   21.6699   -5.5892  -15.0558 C   0  0  0  0  0  0  0  0  0  0  0  0
   21.3225   -4.7794  -15.9322 O   0  0  0  0  0  0  0  0  0  0  0  0
   22.2493   -5.0764  -13.8770 O   0  0  0  0  0  0  0  0  0  0  0  0
  2  1  1  6
  3  2  1  0
  4  3  1  0
  4  5  2  0
  6  2  1  0
  6 11  1  0
  7  6  2  0
  8  4  1  0
 10 11  1  0
 10 12  1  0
 10  9  1  1
 12 13  2  0
 14 15  1  0
 16 15  1  0
 17 16  1  0
 18 17  1  6
 18 20  1  0
 19 12  1  0
 19 18  1  0
 20 21  2  0
 20 22  1  0
M  END
$$$$
