DAM.pdb
     RDKit          3D

 22 21  0  0  1  0  0  0  0  0999 V2000
   24.7339  -17.8940  -16.2552 N   0  0  0  0  0  0  0  0  0  0  0  0
   25.1719  -19.0881  -15.5553 C   0  0  1  0  0  0  0  0  0  0  0  0
   26.6537  -19.2937  -15.7808 C   0  0  0  0  0  0  0  0  0  0  0  0
   26.8090  -19.7678  -17.1821 C   0  0  0  0  0  0  0  0  0  0  0  0
   25.8075  -19.8905  -17.9708 O   0  0  0  0  0  0  0  0  0  0  0  0
   24.7850  -19.0099  -14.1454 C   0  0  0  0  0  0  0  0  0  0  0  0
   25.2657  -18.0873  -13.4395 O   0  0  0  0  0  0  0  0  0  0  0  0
   28.0493  -20.1034  -17.7181 O   0  0  0  0  0  0  0  0  0  0  0  0
   22.2099  -20.2843  -11.8325 C   0  0  0  0  0  0  0  0  0  0  0  0
   23.6093  -19.8192  -12.1350 C   0  0  2  0  0  0  0  0  0  0  0  0
   23.8819  -19.9340  -13.5267 N   0  0  0  0  0  0  0  0  0  0  0  0
   24.5767  -20.5868  -11.2924 C   0  0  0  0  0  0  0  0  0  0  0  0
   24.9283  -21.7688  -11.5423 O   0  0  0  0  0  0  0  0  0  0  0  0
   29.2165  -19.3962   -4.9018 C   0  0  0  0  0  0  0  0  0  0  0  0
   28.3618  -18.8328   -6.3651 S   0  0  0  0  0  0  0  0  0  0  0  0
   27.3125  -20.1032   -7.1243 C   0  0  0  0  0  0  0  0  0  0  0  0
   26.6560  -19.6303   -8.3710 C   0  0  0  0  0  0  0  0  0  0  0  0
   25.8626  -20.6631   -9.1255 C   0  0  2  0  0  0  0  0  0  0  0  0
   25.1144  -19.9245  -10.1565 N   0  0  0  0  0  0  0  0  0  0  0  0
   24.9306  -21.3346   -8.1893 C   0  0  0  0  0  0  0  0  0  0  0  0
   25.1915  -22.3342   -7.4985 O   0  0  0  0  0  0  0  0  0  0  0  0
   23.6391  -20.7787   -8.0829 O   0  0  0  0  0  0  0  0  0  0  0  0
  2  1  1  6
  3  2  1  0
  4  3  1  0
  4  5  2  0
  6  2  1  0
  6 11  1  0
  7  6  2  0
  8  4  1  0
 10 11  1  0
 10 12  1  0
 10  9  1  6
 12 13  2  0
 14 15  1  0
 16 15  1  0
 17 16  1  0
 18 17  1  1
 18 20  1  0
 19 12  1  0
 19 18  1  0
 20 21  2  0
 20 22  1  0
M  END
$$$$
