DAM.pdb
     RDKit          3D

 22 21  0  0  1  0  0  0  0  0999 V2000
   17.7025  -11.5454  -15.3358 N   0  0  0  0  0  0  0  0  0  0  0  0
   18.2799  -10.4684  -16.1194 C   0  0  1  0  0  0  0  0  0  0  0  0
   17.4178  -10.2064  -17.3347 C   0  0  0  0  0  0  0  0  0  0  0  0
   17.5311  -11.4082  -18.2038 C   0  0  0  0  0  0  0  0  0  0  0  0
   16.9105  -12.4967  -17.9391 O   0  0  0  0  0  0  0  0  0  0  0  0
   18.4941   -9.2941  -15.2716 C   0  0  0  0  0  0  0  0  0  0  0  0
   18.6041   -8.1680  -15.8195 O   0  0  0  0  0  0  0  0  0  0  0  0
   18.3151  -11.4199  -19.3543 O   0  0  0  0  0  0  0  0  0  0  0  0
   18.8314   -8.4651  -11.6250 C   0  0  0  0  0  0  0  0  0  0  0  0
   18.8567   -8.1790  -13.1027 C   0  0  2  0  0  0  0  0  0  0  0  0
   18.5841   -9.3627  -13.8435 N   0  0  0  0  0  0  0  0  0  0  0  0
   20.1702   -7.5626  -13.4630 C   0  0  0  0  0  0  0  0  0  0  0  0
   21.1594   -8.2258  -13.8687 O   0  0  0  0  0  0  0  0  0  0  0  0
   20.8634   -4.3203  -18.4599 C   0  0  0  0  0  0  0  0  0  0  0  0
   22.4007   -4.9719  -17.8266 S   0  0  0  0  0  0  0  0  0  0  0  0
   22.5531   -4.8426  -16.0234 C   0  0  0  0  0  0  0  0  0  0  0  0
   21.4725   -5.5685  -15.3062 C   0  0  0  0  0  0  0  0  0  0  0  0
   21.4768   -5.4345  -13.8072 C   0  0  2  0  0  0  0  0  0  0  0  0
   20.2816   -6.1524  -13.3335 N   0  0  0  0  0  0  0  0  0  0  0  0
   21.3945   -3.9984  -13.4506 C   0  0  0  0  0  0  0  0  0  0  0  0
   20.3466   -3.3504  -13.2881 O   0  0  0  0  0  0  0  0  0  0  0  0
   22.6204   -3.3221  -13.2832 O   0  0  0  0  0  0  0  0  0  0  0  0
  2  1  1  1
  3  2  1  0
  4  3  1  0
  4  5  2  0
  6  2  1  0
  6 11  1  0
  7  6  2  0
  8  4  1  0
 10 11  1  0
 10 12  1  0
 10  9  1  1
 12 13  2  0
 14 15  1  0
 16 15  1  0
 17 16  1  0
 18 17  1  6
 18 20  1  0
 19 12  1  0
 19 18  1  0
 20 21  2  0
 20 22  1  0
M  END
$$$$
