DAM.pdb
     RDKit          3D

 22 21  0  0  1  0  0  0  0  0999 V2000
   17.2646  -11.9841  -17.1168 N   0  0  0  0  0  0  0  0  0  0  0  0
   17.2327  -11.2260  -15.8792 C   0  0  1  0  0  0  0  0  0  0  0  0
   17.7817  -12.0721  -14.7514 C   0  0  0  0  0  0  0  0  0  0  0  0
   16.8200  -13.1888  -14.5504 C   0  0  0  0  0  0  0  0  0  0  0  0
   15.5626  -12.9847  -14.4187 O   0  0  0  0  0  0  0  0  0  0  0  0
   17.9221   -9.9471  -16.0599 C   0  0  0  0  0  0  0  0  0  0  0  0
   19.0547   -9.9456  -16.6057 O   0  0  0  0  0  0  0  0  0  0  0  0
   17.2288  -14.5186  -14.4958 O   0  0  0  0  0  0  0  0  0  0  0  0
   17.3257   -6.2944  -15.4487 C   0  0  0  0  0  0  0  0  0  0  0  0
   18.1567   -7.5117  -15.7552 C   0  0  2  0  0  0  0  0  0  0  0  0
   17.3695   -8.6918  -15.6461 N   0  0  0  0  0  0  0  0  0  0  0  0
   19.3524   -7.5308  -14.8581 C   0  0  0  0  0  0  0  0  0  0  0  0
   19.3768   -8.1216  -13.7475 O   0  0  0  0  0  0  0  0  0  0  0  0
   26.2533  -10.2038  -14.6715 C   0  0  0  0  0  0  0  0  0  0  0  0
   24.6994   -9.7624  -15.4328 S   0  0  0  0  0  0  0  0  0  0  0  0
   23.9023   -8.3231  -14.6683 C   0  0  0  0  0  0  0  0  0  0  0  0
   22.5427   -8.0684  -15.2121 C   0  0  0  0  0  0  0  0  0  0  0  0
   21.7853   -6.9338  -14.5762 C   0  0  2  0  0  0  0  0  0  0  0  0
   20.5098   -6.8398  -15.3061 N   0  0  0  0  0  0  0  0  0  0  0  0
   22.5661   -5.6841  -14.7333 C   0  0  0  0  0  0  0  0  0  0  0  0
   22.5028   -4.9060  -15.7002 O   0  0  0  0  0  0  0  0  0  0  0  0
   23.4530   -5.3624  -13.6853 O   0  0  0  0  0  0  0  0  0  0  0  0
  2  1  1  6
  3  2  1  0
  4  3  1  0
  4  5  2  0
  6  2  1  0
  6 11  1  0
  7  6  2  0
  8  4  1  0
 10 11  1  0
 10 12  1  0
 10  9  1  1
 12 13  2  0
 14 15  1  0
 16 15  1  0
 17 16  1  0
 18 17  1  6
 18 20  1  0
 19 12  1  0
 19 18  1  0
 20 21  2  0
 20 22  1  0
M  END
$$$$
