SFA.pdb
     RDKit          3D

 23 23  0  0  1  0  0  0  0  0999 V2000
   11.2605  -18.8102   23.7295 O   0  0  0  0  0  0  0  0  0  0  0  0
   10.0905  -19.1366   23.0901 C   0  0  0  0  0  0  0  0  0  0  0  0
    9.5716  -18.0522   22.1769 C   0  0  2  0  0  0  0  0  0  0  0  0
   10.5329  -17.8834   21.1035 N   0  0  0  0  0  0  0  0  0  0  0  0
    9.4657  -16.7611   22.9032 C   0  0  0  0  0  0  0  0  0  0  0  0
   10.4403  -15.9626   22.7619 O   0  0  0  0  0  0  0  0  0  0  0  0
    8.3761  -16.4069   23.7044 N   0  0  0  0  0  0  0  0  0  0  0  0
    8.3435  -15.1067   24.3620 C   0  0  1  0  0  0  0  0  0  0  0  0
    7.0139  -14.9205   25.0718 C   0  0  0  0  0  0  0  0  0  0  0  0
    6.7480  -13.5710   25.5548 C   0  0  0  0  0  0  0  0  0  0  0  0
    5.9805  -13.2790   26.6637 C   0  0  0  0  0  0  0  0  0  0  0  0
    5.7662  -12.0001   27.1043 C   0  0  0  0  0  0  0  0  0  0  0  0
    6.3314  -10.9564   26.4252 C   0  0  0  0  0  0  0  0  0  0  0  0
    7.1029  -11.2128   25.3146 C   0  0  0  0  0  0  0  0  0  0  0  0
    7.3063  -12.5023   24.8883 C   0  0  0  0  0  0  0  0  0  0  0  0
    9.4146  -14.9423   25.3381 C   0  0  0  0  0  0  0  0  0  0  0  0
   10.2393  -14.0046   25.2447 O   0  0  0  0  0  0  0  0  0  0  0  0
   10.2414  -14.3801   28.2427 C   0  0  0  0  0  0  0  0  0  0  0  0
   10.6172  -15.6115   27.4138 C   0  0  2  0  0  0  0  0  0  0  0  0
    9.5739  -15.8336   26.4372 N   0  0  0  0  0  0  0  0  0  0  0  0
   10.6824  -16.7568   28.3603 C   0  0  0  0  0  0  0  0  0  0  0  0
   11.1680  -18.0008   27.9922 O   0  0  0  0  0  0  0  0  0  0  0  0
   10.2803  -16.6056   29.5606 O   0  0  0  0  0  0  0  0  0  0  0  0
  2  1  1  0
  3  4  1  6
  3  2  1  0
  5  3  1  0
  6  5  2  0
  7  5  1  0
  8  9  1  1
  8  7  1  0
  9 10  1  0
 10 15  2  0
 11 12  2  0
 11 10  1  0
 12 13  1  0
 13 14  2  0
 15 14  1  0
 16  8  1  0
 17 16  2  0
 19 18  1  1
 19 20  1  0
 20 16  1  0
 21 19  1  0
 21 22  1  0
 23 21  2  0
M  END
$$$$
