SFA.pdb
     RDKit          3D

 23 23  0  0  1  0  0  0  0  0999 V2000
    8.4447  -15.8225   19.4780 O   0  0  0  0  0  0  0  0  0  0  0  0
    7.2674  -15.1209   19.5566 C   0  0  0  0  0  0  0  0  0  0  0  0
    7.3905  -13.8024   20.2814 C   0  0  2  0  0  0  0  0  0  0  0  0
    8.2583  -12.9468   19.4942 N   0  0  0  0  0  0  0  0  0  0  0  0
    8.0208  -13.9925   21.6126 C   0  0  0  0  0  0  0  0  0  0  0  0
    9.2450  -13.6737   21.6984 O   0  0  0  0  0  0  0  0  0  0  0  0
    7.3431  -14.4896   22.7299 N   0  0  0  0  0  0  0  0  0  0  0  0
    8.0746  -14.7968   23.9525 C   0  0  1  0  0  0  0  0  0  0  0  0
    7.1318  -14.7547   25.1423 C   0  0  0  0  0  0  0  0  0  0  0  0
    6.9672  -13.4455   25.7620 C   0  0  0  0  0  0  0  0  0  0  0  0
    7.9388  -12.4658   25.7797 C   0  0  0  0  0  0  0  0  0  0  0  0
    7.7457  -11.2370   26.3527 C   0  0  0  0  0  0  0  0  0  0  0  0
    6.5420  -10.9543   26.9369 C   0  0  0  0  0  0  0  0  0  0  0  0
    5.5510  -11.9095   26.9366 C   0  0  0  0  0  0  0  0  0  0  0  0
    5.7637  -13.1361   26.3568 C   0  0  0  0  0  0  0  0  0  0  0  0
    8.7103  -16.1088   23.9137 C   0  0  0  0  0  0  0  0  0  0  0  0
    8.0746  -17.1277   23.5589 O   0  0  0  0  0  0  0  0  0  0  0  0
   11.9924  -17.4550   23.3831 C   0  0  0  0  0  0  0  0  0  0  0  0
   10.6882  -17.6001   24.1722 C   0  0  2  0  0  0  0  0  0  0  0  0
   10.0753  -16.2942   24.2748 N   0  0  0  0  0  0  0  0  0  0  0  0
   11.0623  -18.0959   25.5234 C   0  0  0  0  0  0  0  0  0  0  0  0
   10.8564  -17.3516   26.6735 O   0  0  0  0  0  0  0  0  0  0  0  0
   11.5938  -19.2481   25.6467 O   0  0  0  0  0  0  0  0  0  0  0  0
  2  1  1  0
  3  4  1  6
  3  2  1  0
  5  3  1  0
  6  5  2  0
  7  5  1  0
  8  9  1  1
  8  7  1  0
  9 10  1  0
 10 15  2  0
 11 12  2  0
 11 10  1  0
 12 13  1  0
 13 14  2  0
 15 14  1  0
 16  8  1  0
 17 16  2  0
 19 18  1  6
 19 20  1  0
 20 16  1  0
 21 19  1  0
 21 22  1  0
 23 21  2  0
M  END
$$$$
