SFA.pdb
     RDKit          3D

 23 23  0  0  1  0  0  0  0  0999 V2000
    9.5397  -19.2462   20.7063 O   0  0  0  0  0  0  0  0  0  0  0  0
   10.3637  -18.2504   21.1687 C   0  0  0  0  0  0  0  0  0  0  0  0
    9.9212  -16.8614   20.7763 C   0  0  2  0  0  0  0  0  0  0  0  0
   10.9615  -16.2867   19.9443 N   0  0  0  0  0  0  0  0  0  0  0  0
    9.7684  -16.0009   21.9770 C   0  0  0  0  0  0  0  0  0  0  0  0
   10.8422  -15.5480   22.4764 O   0  0  0  0  0  0  0  0  0  0  0  0
    8.5352  -15.6838   22.5545 N   0  0  0  0  0  0  0  0  0  0  0  0
    8.4809  -14.8783   23.7679 C   0  0  1  0  0  0  0  0  0  0  0  0
    7.0803  -14.3224   23.9561 C   0  0  0  0  0  0  0  0  0  0  0  0
    6.9191  -13.4030   25.0758 C   0  0  0  0  0  0  0  0  0  0  0  0
    5.8359  -13.4008   25.9306 C   0  0  0  0  0  0  0  0  0  0  0  0
    5.7238  -12.5365   26.9871 C   0  0  0  0  0  0  0  0  0  0  0  0
    6.7216  -11.6302   27.2172 C   0  0  0  0  0  0  0  0  0  0  0  0
    7.8163  -11.6056   26.3833 C   0  0  0  0  0  0  0  0  0  0  0  0
    7.9107  -12.4805   25.3290 C   0  0  0  0  0  0  0  0  0  0  0  0
    8.8418  -15.6340   24.9620 C   0  0  0  0  0  0  0  0  0  0  0  0
    8.8718  -15.0902   26.0896 O   0  0  0  0  0  0  0  0  0  0  0  0
    9.3964  -19.2311   25.8362 C   0  0  0  0  0  0  0  0  0  0  0  0
    9.5443  -17.7313   26.1068 C   0  0  2  0  0  0  0  0  0  0  0  0
    9.1752  -17.0172   24.9045 N   0  0  0  0  0  0  0  0  0  0  0  0
   10.9789  -17.4957   26.4202 C   0  0  0  0  0  0  0  0  0  0  0  0
   11.7987  -16.7184   25.6185 O   0  0  0  0  0  0  0  0  0  0  0  0
   11.4904  -18.0215   27.4628 O   0  0  0  0  0  0  0  0  0  0  0  0
  2  1  1  0
  3  4  1  6
  3  2  1  0
  5  3  1  0
  6  5  2  0
  7  5  1  0
  8  9  1  1
  8  7  1  0
  9 10  1  0
 10 15  2  0
 11 12  2  0
 11 10  1  0
 12 13  1  0
 13 14  2  0
 15 14  1  0
 16  8  1  0
 17 16  2  0
 19 18  1  6
 19 20  1  0
 20 16  1  0
 21 19  1  0
 21 22  1  0
 23 21  2  0
M  END
$$$$
