SFA.pdb
     RDKit          3D

 23 23  0  0  1  0  0  0  0  0999 V2000
    8.1715  -18.2309   21.0069 O   0  0  0  0  0  0  0  0  0  0  0  0
    9.2229  -17.3483   21.0214 C   0  0  0  0  0  0  0  0  0  0  0  0
    8.8415  -15.9526   21.4520 C   0  0  2  0  0  0  0  0  0  0  0  0
    9.5514  -15.0191   20.5980 N   0  0  0  0  0  0  0  0  0  0  0  0
    9.2640  -15.7023   22.8536 C   0  0  0  0  0  0  0  0  0  0  0  0
   10.3846  -15.1280   23.0021 O   0  0  0  0  0  0  0  0  0  0  0  0
    8.5037  -16.0612   23.9707 N   0  0  0  0  0  0  0  0  0  0  0  0
    8.9881  -15.7620   25.3123 C   0  0  1  0  0  0  0  0  0  0  0  0
    7.8154  -15.4625   26.2295 C   0  0  0  0  0  0  0  0  0  0  0  0
    7.3417  -14.0841   26.2068 C   0  0  0  0  0  0  0  0  0  0  0  0
    6.1021  -13.6953   25.7414 C   0  0  0  0  0  0  0  0  0  0  0  0
    5.6782  -12.3930   25.7526 C   0  0  0  0  0  0  0  0  0  0  0  0
    6.5093  -11.4245   26.2437 C   0  0  0  0  0  0  0  0  0  0  0  0
    7.7528  -11.7783   26.7159 C   0  0  0  0  0  0  0  0  0  0  0  0
    8.1600  -13.0896   26.6964 C   0  0  0  0  0  0  0  0  0  0  0  0
    9.7580  -16.8575   25.8904 C   0  0  0  0  0  0  0  0  0  0  0  0
   10.2144  -16.7865   27.0543 O   0  0  0  0  0  0  0  0  0  0  0  0
   10.4690  -20.4128   24.9338 C   0  0  0  0  0  0  0  0  0  0  0  0
   10.6636  -19.1763   25.8157 C   0  0  2  0  0  0  0  0  0  0  0  0
   10.0264  -18.0530   25.1647 N   0  0  0  0  0  0  0  0  0  0  0  0
   12.1301  -18.9476   25.9088 C   0  0  0  0  0  0  0  0  0  0  0  0
   12.9398  -19.6515   26.7851 O   0  0  0  0  0  0  0  0  0  0  0  0
   12.6801  -18.0740   25.1607 O   0  0  0  0  0  0  0  0  0  0  0  0
  2  1  1  0
  3  4  1  6
  3  2  1  0
  5  3  1  0
  6  5  2  0
  7  5  1  0
  8  9  1  1
  8  7  1  0
  9 10  1  0
 10 15  2  0
 11 12  2  0
 11 10  1  0
 12 13  1  0
 13 14  2  0
 15 14  1  0
 16  8  1  0
 17 16  2  0
 19 18  1  6
 19 20  1  0
 20 16  1  0
 21 19  1  0
 21 22  1  0
 23 21  2  0
M  END
$$$$
