SFA.pdb
     RDKit          3D

 23 23  0  0  1  0  0  0  0  0999 V2000
    9.6300  -20.2151   18.1542 O   0  0  0  0  0  0  0  0  0  0  0  0
    8.3441  -19.7978   17.9161 C   0  0  0  0  0  0  0  0  0  0  0  0
    8.1989  -18.2988   17.8121 C   0  0  2  0  0  0  0  0  0  0  0  0
    8.7157  -17.8954   16.5179 N   0  0  0  0  0  0  0  0  0  0  0  0
    9.0051  -17.6198   18.8583 C   0  0  0  0  0  0  0  0  0  0  0  0
   10.0983  -17.1069   18.4718 O   0  0  0  0  0  0  0  0  0  0  0  0
    8.6201  -17.5284   20.1993 N   0  0  0  0  0  0  0  0  0  0  0  0
    9.4746  -16.8432   21.1608 C   0  0  1  0  0  0  0  0  0  0  0  0
    8.6372  -15.9223   22.0308 C   0  0  0  0  0  0  0  0  0  0  0  0
    8.0915  -14.7514   21.3554 C   0  0  0  0  0  0  0  0  0  0  0  0
    6.8567  -14.7133   20.7406 C   0  0  0  0  0  0  0  0  0  0  0  0
    6.3631  -13.5902   20.1317 C   0  0  0  0  0  0  0  0  0  0  0  0
    7.1161  -12.4487   20.1250 C   0  0  0  0  0  0  0  0  0  0  0  0
    8.3527  -12.4525   20.7295 C   0  0  0  0  0  0  0  0  0  0  0  0
    8.8304  -13.5887   21.3350 C   0  0  0  0  0  0  0  0  0  0  0  0
   10.1986  -17.7654   22.0282 C   0  0  0  0  0  0  0  0  0  0  0  0
    9.6137  -18.7147   22.5980 O   0  0  0  0  0  0  0  0  0  0  0  0
   13.7517  -18.6499   22.6360 C   0  0  0  0  0  0  0  0  0  0  0  0
   12.2914  -18.5950   23.0933 C   0  0  2  0  0  0  0  0  0  0  0  0
   11.5960  -17.6324   22.2679 N   0  0  0  0  0  0  0  0  0  0  0  0
   12.3064  -18.1375   24.5083 C   0  0  0  0  0  0  0  0  0  0  0  0
   11.8346  -16.8936   24.8941 O   0  0  0  0  0  0  0  0  0  0  0  0
   12.7677  -18.9069   25.4141 O   0  0  0  0  0  0  0  0  0  0  0  0
  2  1  1  0
  3  4  1  6
  3  2  1  0
  5  3  1  0
  6  5  2  0
  7  5  1  0
  8  9  1  1
  8  7  1  0
  9 10  1  0
 10 15  2  0
 11 12  2  0
 11 10  1  0
 12 13  1  0
 13 14  2  0
 15 14  1  0
 16  8  1  0
 17 16  2  0
 19 18  1  6
 19 20  1  0
 20 16  1  0
 21 19  1  0
 21 22  1  0
 23 21  2  0
M  END
$$$$
