SFA.pdb
     RDKit          3D

 23 23  0  0  1  0  0  0  0  0999 V2000
    8.4167  -18.9621   21.1455 O   0  0  0  0  0  0  0  0  0  0  0  0
    9.0448  -18.3944   20.0648 C   0  0  0  0  0  0  0  0  0  0  0  0
    8.6540  -16.9573   19.8181 C   0  0  2  0  0  0  0  0  0  0  0  0
    9.5334  -16.4323   18.7905 N   0  0  0  0  0  0  0  0  0  0  0  0
    8.8472  -16.1431   21.0449 C   0  0  0  0  0  0  0  0  0  0  0  0
   10.0270  -15.7304   21.2579 O   0  0  0  0  0  0  0  0  0  0  0  0
    7.8192  -15.8269   21.9382 N   0  0  0  0  0  0  0  0  0  0  0  0
    8.1154  -15.1041   23.1686 C   0  0  1  0  0  0  0  0  0  0  0  0
    6.8991  -14.3057   23.6037 C   0  0  0  0  0  0  0  0  0  0  0  0
    7.0549  -13.5580   24.8453 C   0  0  0  0  0  0  0  0  0  0  0  0
    7.6539  -12.3183   24.9367 C   0  0  0  0  0  0  0  0  0  0  0  0
    7.7666  -11.6317   26.1164 C   0  0  0  0  0  0  0  0  0  0  0  0
    7.2680  -12.1869   27.2624 C   0  0  0  0  0  0  0  0  0  0  0  0
    6.6642  -13.4224   27.2063 C   0  0  0  0  0  0  0  0  0  0  0  0
    6.5607  -14.0955   26.0137 C   0  0  0  0  0  0  0  0  0  0  0  0
    8.5020  -15.9885   24.2620 C   0  0  0  0  0  0  0  0  0  0  0  0
    7.7674  -16.9374   24.6198 O   0  0  0  0  0  0  0  0  0  0  0  0
   11.6746  -17.0846   25.6127 C   0  0  0  0  0  0  0  0  0  0  0  0
   10.1885  -16.8367   25.8864 C   0  0  2  0  0  0  0  0  0  0  0  0
    9.7251  -15.8174   24.9710 N   0  0  0  0  0  0  0  0  0  0  0  0
   10.0906  -16.3472   27.2873 C   0  0  0  0  0  0  0  0  0  0  0  0
   10.4514  -17.1251   28.3752 O   0  0  0  0  0  0  0  0  0  0  0  0
    9.6603  -15.1688   27.5141 O   0  0  0  0  0  0  0  0  0  0  0  0
  2  1  1  0
  3  4  1  6
  3  2  1  0
  5  3  1  0
  6  5  2  0
  7  5  1  0
  8  9  1  1
  8  7  1  0
  9 10  1  0
 10 15  2  0
 11 12  2  0
 11 10  1  0
 12 13  1  0
 13 14  2  0
 15 14  1  0
 16  8  1  0
 17 16  2  0
 19 18  1  6
 19 20  1  0
 20 16  1  0
 21 19  1  0
 21 22  1  0
 23 21  2  0
M  END
$$$$
