HLW.pdb
     RDKit          3D

 33 35  0  0  1  0  0  0  0  0999 V2000
   24.9759  -17.4633  -13.2855 N   0  0  0  0  0  0  0  0  0  0  0  0
   24.6943  -18.7481  -13.8697 C   0  0  1  0  0  0  0  0  0  0  0  0
   24.8942  -18.7195  -15.3493 C   0  0  0  0  0  0  0  0  0  0  0  0
   24.3869  -17.4766  -15.9540 C   0  0  0  0  0  0  0  0  0  0  0  0
   25.0353  -16.3183  -16.2812 C   0  0  0  0  0  0  0  0  0  0  0  0
   24.1564  -15.4433  -16.7942 N   0  0  0  0  0  0  0  0  0  0  0  0
   22.9552  -16.0387  -16.7936 C   0  0  0  0  0  0  0  0  0  0  0  0
   23.1020  -17.2679  -16.2841 N   0  0  0  0  0  0  0  0  0  0  0  0
   25.3407  -19.8833  -13.1922 C   0  0  0  0  0  0  0  0  0  0  0  0
   24.9168  -21.0787  -13.3557 O   0  0  0  0  0  0  0  0  0  0  0  0
   30.7900  -20.0694  -12.5366 C   0  0  0  0  0  0  0  0  0  0  0  0
   29.3092  -20.3728  -12.7715 C   0  0  1  0  0  0  0  0  0  0  0  0
   29.1230  -21.2472  -13.9601 C   0  0  0  0  0  0  0  0  0  0  0  0
   28.5985  -20.7394  -11.5293 C   0  0  0  0  0  0  0  0  0  0  0  0
   27.0950  -20.8217  -11.6186 C   0  0  2  0  0  0  0  0  0  0  0  0
   26.4562  -19.7610  -12.3233 N   0  0  0  0  0  0  0  0  0  0  0  0
   26.4905  -21.1370  -10.3045 C   0  0  0  0  0  0  0  0  0  0  0  0
   26.8633  -22.1620   -9.6967 O   0  0  0  0  0  0  0  0  0  0  0  0
   25.5056  -20.3114   -9.7222 N   0  0  0  0  0  0  0  0  0  0  0  0
   24.8023  -20.6688   -8.4797 C   0  0  1  0  0  0  0  0  0  0  0  0
   24.9809  -19.5996   -7.4629 C   0  0  0  0  0  0  0  0  0  0  0  0
   26.3711  -19.3082   -7.1352 C   0  0  0  0  0  0  0  0  0  0  0  0
   27.1954  -18.4491   -7.8267 C   0  0  0  0  0  0  0  0  0  0  0  0
   28.4039  -18.4789   -7.2489 N   0  0  0  0  0  0  0  0  0  0  0  0
   28.4131  -19.3163   -6.2091 C   0  0  0  0  0  0  0  0  0  0  0  0
   29.4244  -19.6525   -5.3106 C   0  0  0  0  0  0  0  0  0  0  0  0
   29.1885  -20.5378   -4.2882 C   0  0  0  0  0  0  0  0  0  0  0  0
   27.9071  -21.0593   -4.2151 C   0  0  0  0  0  0  0  0  0  0  0  0
   26.9080  -20.7450   -5.0812 C   0  0  0  0  0  0  0  0  0  0  0  0
   27.1551  -19.8470   -6.1165 C   0  0  0  0  0  0  0  0  0  0  0  0
   23.4147  -21.0731   -8.6859 C   0  0  0  0  0  0  0  0  0  0  0  0
   22.6114  -21.5671   -7.6404 O   0  0  0  0  0  0  0  0  0  0  0  0
   22.7989  -21.0306   -9.8058 O   0  0  0  0  0  0  0  0  0  0  0  0
  2  9  1  0
  2  1  1  1
  2  3  1  0
  4  3  1  0
  4  5  2  0
  6  5  1  0
  7  6  1  0
  8  7  2  0
  8  4  1  0
  9 16  1  0
 10  9  2  0
 12 11  1  1
 12 13  1  0
 14 12  1  0
 15 14  1  1
 16 15  1  0
 17 15  1  0
 18 17  2  0
 19 17  1  0
 20 31  1  0
 20 19  1  0
 21 22  1  0
 20 21  1  1
 22 23  2  0
 22 30  1  0
 23 24  1  0
 24 25  1  0
 25 26  2  0
 27 26  1  0
 28 27  2  0
 29 28  1  0
 30 29  2  0
 30 25  1  0
 31 32  1  0
 33 31  2  0
M  END
$$$$
