HLW.pdb
     RDKit          3D

 33 35  0  0  1  0  0  0  0  0999 V2000
   18.1480   -9.4434  -14.1941 N   0  0  0  0  0  0  0  0  0  0  0  0
   16.8576   -9.0051  -13.7311 C   0  0  1  0  0  0  0  0  0  0  0  0
   16.3105   -9.9409  -12.7040 C   0  0  0  0  0  0  0  0  0  0  0  0
   16.1016  -11.2952  -13.2422 C   0  0  0  0  0  0  0  0  0  0  0  0
   16.7113  -12.4788  -12.9317 C   0  0  0  0  0  0  0  0  0  0  0  0
   16.2062  -13.4571  -13.6991 N   0  0  0  0  0  0  0  0  0  0  0  0
   15.2809  -12.9016  -14.4947 C   0  0  0  0  0  0  0  0  0  0  0  0
   15.2231  -11.5941  -14.2130 N   0  0  0  0  0  0  0  0  0  0  0  0
   16.7935   -7.5844  -13.3527 C   0  0  0  0  0  0  0  0  0  0  0  0
   17.5574   -7.1076  -12.4446 O   0  0  0  0  0  0  0  0  0  0  0  0
   15.6093   -3.3161  -16.9553 C   0  0  0  0  0  0  0  0  0  0  0  0
   16.2304   -4.1523  -15.8351 C   0  0  1  0  0  0  0  0  0  0  0  0
   17.6160   -3.7024  -15.5352 C   0  0  0  0  0  0  0  0  0  0  0  0
   15.3105   -4.3530  -14.6966 C   0  0  0  0  0  0  0  0  0  0  0  0
   15.7956   -5.2653  -13.5977 C   0  0  2  0  0  0  0  0  0  0  0  0
   15.9076   -6.6438  -13.9397 N   0  0  0  0  0  0  0  0  0  0  0  0
   15.0869   -5.0044  -12.3244 C   0  0  0  0  0  0  0  0  0  0  0  0
   13.9629   -5.5162  -12.1411 O   0  0  0  0  0  0  0  0  0  0  0  0
   15.6471   -4.1936  -11.3147 N   0  0  0  0  0  0  0  0  0  0  0  0
   14.9089   -3.8148  -10.0990 C   0  0  1  0  0  0  0  0  0  0  0  0
   15.5129   -4.4666   -8.9077 C   0  0  0  0  0  0  0  0  0  0  0  0
   15.2627   -5.8998   -8.8152 C   0  0  0  0  0  0  0  0  0  0  0  0
   16.1930   -6.8921   -9.0288 C   0  0  0  0  0  0  0  0  0  0  0  0
   15.5770   -8.0742   -8.8932 N   0  0  0  0  0  0  0  0  0  0  0  0
   14.2855   -7.9062   -8.5994 C   0  0  0  0  0  0  0  0  0  0  0  0
   13.2724   -8.8317   -8.3542 C   0  0  0  0  0  0  0  0  0  0  0  0
   12.0017   -8.4149   -8.0437 C   0  0  0  0  0  0  0  0  0  0  0  0
   11.8036   -7.0446   -7.9927 C   0  0  0  0  0  0  0  0  0  0  0  0
   12.7774   -6.1265   -8.2291 C   0  0  0  0  0  0  0  0  0  0  0  0
   14.0637   -6.5570   -8.5446 C   0  0  0  0  0  0  0  0  0  0  0  0
   14.7098   -2.3755   -9.9575 C   0  0  0  0  0  0  0  0  0  0  0  0
   13.9401   -1.8209   -8.9172 O   0  0  0  0  0  0  0  0  0  0  0  0
   15.1922   -1.4893  -10.7431 O   0  0  0  0  0  0  0  0  0  0  0  0
  2  9  1  0
  2  1  1  1
  2  3  1  0
  4  3  1  0
  4  5  2  0
  6  5  1  0
  7  6  1  0
  8  7  2  0
  8  4  1  0
  9 16  1  0
 10  9  2  0
 12 11  1  6
 12 13  1  0
 14 12  1  0
 15 14  1  6
 16 15  1  0
 17 15  1  0
 18 17  2  0
 19 17  1  0
 20 31  1  0
 20 19  1  0
 21 22  1  0
 20 21  1  1
 22 23  2  0
 22 30  1  0
 23 24  1  0
 24 25  1  0
 25 26  2  0
 27 26  1  0
 28 27  2  0
 29 28  1  0
 30 29  2  0
 30 25  1  0
 31 32  1  0
 33 31  2  0
M  END
$$$$
