HLW.pdb
     RDKit          3D

 33 35  0  0  1  0  0  0  0  0999 V2000
   21.1722  -13.8185  -17.7399 N   0  0  0  0  0  0  0  0  0  0  0  0
   20.8561  -12.4145  -17.7545 C   0  0  1  0  0  0  0  0  0  0  0  0
   19.3842  -12.1979  -17.8835 C   0  0  0  0  0  0  0  0  0  0  0  0
   18.8431  -12.7848  -19.1206 C   0  0  0  0  0  0  0  0  0  0  0  0
   18.1998  -12.1987  -20.1749 C   0  0  0  0  0  0  0  0  0  0  0  0
   17.8685  -13.1376  -21.0749 N   0  0  0  0  0  0  0  0  0  0  0  0
   18.2967  -14.3152  -20.5978 C   0  0  0  0  0  0  0  0  0  0  0  0
   18.8849  -14.0942  -19.4157 N   0  0  0  0  0  0  0  0  0  0  0  0
   21.4925  -11.6328  -16.6823 C   0  0  0  0  0  0  0  0  0  0  0  0
   21.1872  -11.8237  -15.4553 O   0  0  0  0  0  0  0  0  0  0  0  0
   26.8074   -9.5770  -16.6283 C   0  0  0  0  0  0  0  0  0  0  0  0
   25.4756  -10.1716  -16.1671 C   0  0  1  0  0  0  0  0  0  0  0  0
   25.6486  -10.9789  -14.9299 C   0  0  0  0  0  0  0  0  0  0  0  0
   24.3717   -9.1904  -16.1998 C   0  0  0  0  0  0  0  0  0  0  0  0
   22.9896   -9.7296  -15.9270 C   0  0  2  0  0  0  0  0  0  0  0  0
   22.4703  -10.6281  -16.9031 N   0  0  0  0  0  0  0  0  0  0  0  0
   22.0568   -8.6520  -15.5267 C   0  0  0  0  0  0  0  0  0  0  0  0
   21.4650   -8.0027  -16.4139 O   0  0  0  0  0  0  0  0  0  0  0  0
   21.8198   -8.3397  -14.1713 N   0  0  0  0  0  0  0  0  0  0  0  0
   20.9201   -7.2530  -13.7518 C   0  0  1  0  0  0  0  0  0  0  0  0
   20.2239   -7.6207  -12.4913 C   0  0  0  0  0  0  0  0  0  0  0  0
   19.3131   -6.5998  -11.9880 C   0  0  0  0  0  0  0  0  0  0  0  0
   18.1862   -6.1414  -12.6329 C   0  0  0  0  0  0  0  0  0  0  0  0
   17.6383   -5.1800  -11.8775 N   0  0  0  0  0  0  0  0  0  0  0  0
   18.3510   -4.9851  -10.7656 C   0  0  0  0  0  0  0  0  0  0  0  0
   18.1583   -4.1162   -9.6926 C   0  0  0  0  0  0  0  0  0  0  0  0
   19.0276   -4.1103   -8.6301 C   0  0  0  0  0  0  0  0  0  0  0  0
   20.0822   -5.0062   -8.6984 C   0  0  0  0  0  0  0  0  0  0  0  0
   20.2878   -5.8604   -9.7353 C   0  0  0  0  0  0  0  0  0  0  0  0
   19.4024   -5.8599  -10.8102 C   0  0  0  0  0  0  0  0  0  0  0  0
   21.5587   -5.9405  -13.7221 C   0  0  0  0  0  0  0  0  0  0  0  0
   20.9634   -4.8007  -14.2954 O   0  0  0  0  0  0  0  0  0  0  0  0
   22.6968   -5.6923  -13.1944 O   0  0  0  0  0  0  0  0  0  0  0  0
  2  9  1  0
  2  1  1  1
  2  3  1  0
  4  3  1  0
  4  5  2  0
  6  5  1  0
  7  6  1  0
  8  7  2  0
  8  4  1  0
  9 16  1  0
 10  9  2  0
 12 11  1  1
 12 13  1  0
 14 12  1  0
 15 14  1  6
 16 15  1  0
 17 15  1  0
 18 17  2  0
 19 17  1  0
 20 31  1  0
 20 19  1  0
 21 22  1  0
 20 21  1  1
 22 23  2  0
 22 30  1  0
 23 24  1  0
 24 25  1  0
 25 26  2  0
 27 26  1  0
 28 27  2  0
 29 28  1  0
 30 29  2  0
 30 25  1  0
 31 32  1  0
 33 31  2  0
M  END
$$$$
