HLW.pdb
     RDKit          3D

 33 35  0  0  1  0  0  0  0  0999 V2000
   15.2543  -27.4045  -12.6839 N   0  0  0  0  0  0  0  0  0  0  0  0
   15.6369  -26.8999  -11.3914 C   0  0  1  0  0  0  0  0  0  0  0  0
   14.4550  -26.3593  -10.6559 C   0  0  0  0  0  0  0  0  0  0  0  0
   13.8988  -25.1602  -11.3043 C   0  0  0  0  0  0  0  0  0  0  0  0
   14.5101  -24.0103  -11.7203 C   0  0  0  0  0  0  0  0  0  0  0  0
   13.5937  -23.1799  -12.2418 N   0  0  0  0  0  0  0  0  0  0  0  0
   12.4054  -23.7952  -12.1584 C   0  0  0  0  0  0  0  0  0  0  0  0
   12.5974  -24.9921  -11.5904 N   0  0  0  0  0  0  0  0  0  0  0  0
   16.4764  -27.8147  -10.6015 C   0  0  0  0  0  0  0  0  0  0  0  0
   16.0074  -28.9131  -10.1444 O   0  0  0  0  0  0  0  0  0  0  0  0
   19.5116  -30.1171  -11.5341 C   0  0  0  0  0  0  0  0  0  0  0  0
   20.4791  -29.7235  -10.4165 C   0  0  1  0  0  0  0  0  0  0  0  0
   21.8928  -29.8706  -10.8547 C   0  0  0  0  0  0  0  0  0  0  0  0
   20.0938  -28.4647   -9.7462 C   0  0  0  0  0  0  0  0  0  0  0  0
   18.6385  -28.3225   -9.3760 C   0  0  2  0  0  0  0  0  0  0  0  0
   17.8379  -27.5707  -10.2836 N   0  0  0  0  0  0  0  0  0  0  0  0
   18.4755  -27.9431   -7.9543 C   0  0  0  0  0  0  0  0  0  0  0  0
   18.9210  -28.7032   -7.0697 O   0  0  0  0  0  0  0  0  0  0  0  0
   17.8305  -26.7473   -7.5737 N   0  0  0  0  0  0  0  0  0  0  0  0
   17.8374  -26.2467   -6.1896 C   0  0  1  0  0  0  0  0  0  0  0  0
   17.9968  -24.7691   -6.1789 C   0  0  0  0  0  0  0  0  0  0  0  0
   16.9054  -24.0423   -6.8159 C   0  0  0  0  0  0  0  0  0  0  0  0
   15.7223  -23.6800   -6.2119 C   0  0  0  0  0  0  0  0  0  0  0  0
   14.9601  -23.0667   -7.1275 N   0  0  0  0  0  0  0  0  0  0  0  0
   15.5865  -23.0076   -8.3049 C   0  0  0  0  0  0  0  0  0  0  0  0
   15.1980  -22.4547   -9.5242 C   0  0  0  0  0  0  0  0  0  0  0  0
   16.0355  -22.4951  -10.6112 C   0  0  0  0  0  0  0  0  0  0  0  0
   17.2623  -23.1082  -10.4150 C   0  0  0  0  0  0  0  0  0  0  0  0
   17.6593  -23.6535   -9.2350 C   0  0  0  0  0  0  0  0  0  0  0  0
   16.8038  -23.6098   -8.1370 C   0  0  0  0  0  0  0  0  0  0  0  0
   16.7223  -26.7344   -5.3832 C   0  0  0  0  0  0  0  0  0  0  0  0
   15.6096  -27.3832   -5.9517 O   0  0  0  0  0  0  0  0  0  0  0  0
   16.6343  -26.6222   -4.1124 O   0  0  0  0  0  0  0  0  0  0  0  0
  2  9  1  0
  2  1  1  6
  2  3  1  0
  4  3  1  0
  4  5  2  0
  6  5  1  0
  7  6  1  0
  8  7  2  0
  8  4  1  0
  9 16  1  0
 10  9  2  0
 12 11  1  6
 12 13  1  0
 14 12  1  0
 15 14  1  6
 16 15  1  0
 17 15  1  0
 18 17  2  0
 19 17  1  0
 20 31  1  0
 20 19  1  0
 21 22  1  0
 20 21  1  6
 22 23  2  0
 22 30  1  0
 23 24  1  0
 24 25  1  0
 25 26  2  0
 27 26  1  0
 28 27  2  0
 29 28  1  0
 30 29  2  0
 30 25  1  0
 31 32  1  0
 33 31  2  0
M  END
$$$$
