HLW.pdb
     RDKit          3D

 33 35  0  0  1  0  0  0  0  0999 V2000
   27.4795  -21.6578  -15.2708 N   0  0  0  0  0  0  0  0  0  0  0  0
   26.3337  -20.8848  -14.8695 C   0  0  1  0  0  0  0  0  0  0  0  0
   25.4324  -20.6203  -16.0304 C   0  0  0  0  0  0  0  0  0  0  0  0
   26.1383  -19.9624  -17.1424 C   0  0  0  0  0  0  0  0  0  0  0  0
   26.1026  -20.2078  -18.4869 C   0  0  0  0  0  0  0  0  0  0  0  0
   26.9331  -19.3633  -19.1180 N   0  0  0  0  0  0  0  0  0  0  0  0
   27.4958  -18.5847  -18.1826 C   0  0  0  0  0  0  0  0  0  0  0  0
   27.0106  -18.9527  -16.9904 N   0  0  0  0  0  0  0  0  0  0  0  0
   25.6457  -21.3882  -13.6699 C   0  0  0  0  0  0  0  0  0  0  0  0
   25.2276  -22.5951  -13.6058 O   0  0  0  0  0  0  0  0  0  0  0  0
   26.5942  -19.2857   -8.5009 C   0  0  0  0  0  0  0  0  0  0  0  0
   26.3532  -20.2282   -9.6813 C   0  0  1  0  0  0  0  0  0  0  0  0
   27.0629  -21.5211   -9.4888 C   0  0  0  0  0  0  0  0  0  0  0  0
   24.9349  -20.2762  -10.0919 C   0  0  0  0  0  0  0  0  0  0  0  0
   24.6345  -21.0113  -11.3743 C   0  0  2  0  0  0  0  0  0  0  0  0
   25.3902  -20.6074  -12.5126 N   0  0  0  0  0  0  0  0  0  0  0  0
   23.1768  -21.1154  -11.6107 C   0  0  0  0  0  0  0  0  0  0  0  0
   22.4322  -21.4481  -10.6654 O   0  0  0  0  0  0  0  0  0  0  0  0
   22.6081  -20.8493  -12.8743 N   0  0  0  0  0  0  0  0  0  0  0  0
   21.1789  -21.0531  -13.1611 C   0  0  1  0  0  0  0  0  0  0  0  0
   20.7976  -20.3353  -14.4054 C   0  0  0  0  0  0  0  0  0  0  0  0
   20.6206  -18.8979  -14.2397 C   0  0  0  0  0  0  0  0  0  0  0  0
   19.9429  -18.2864  -13.2090 C   0  0  0  0  0  0  0  0  0  0  0  0
   19.9621  -16.9644  -13.4266 N   0  0  0  0  0  0  0  0  0  0  0  0
   20.6216  -16.6774  -14.5513 C   0  0  0  0  0  0  0  0  0  0  0  0
   20.9089  -15.4570  -15.1606 C   0  0  0  0  0  0  0  0  0  0  0  0
   21.6358  -15.4079  -16.3241 C   0  0  0  0  0  0  0  0  0  0  0  0
   22.0526  -16.6260  -16.8361 C   0  0  0  0  0  0  0  0  0  0  0  0
   21.7823  -17.8259  -16.2579 C   0  0  0  0  0  0  0  0  0  0  0  0
   21.0434  -17.8678  -15.0783 C   0  0  0  0  0  0  0  0  0  0  0  0
   20.7671  -22.4533  -13.1276 C   0  0  0  0  0  0  0  0  0  0  0  0
   19.4133  -22.8399  -13.1312 O   0  0  0  0  0  0  0  0  0  0  0  0
   21.5667  -23.4504  -13.0854 O   0  0  0  0  0  0  0  0  0  0  0  0
  2  9  1  0
  2  1  1  6
  2  3  1  0
  4  3  1  0
  4  5  2  0
  6  5  1  0
  7  6  1  0
  8  7  2  0
  8  4  1  0
  9 16  1  0
 10  9  2  0
 12 11  1  1
 12 13  1  0
 14 12  1  0
 15 14  1  1
 16 15  1  0
 17 15  1  0
 18 17  2  0
 19 17  1  0
 20 31  1  0
 20 19  1  0
 21 22  1  0
 20 21  1  6
 22 23  2  0
 22 30  1  0
 23 24  1  0
 24 25  1  0
 25 26  2  0
 27 26  1  0
 28 27  2  0
 29 28  1  0
 30 29  2  0
 30 25  1  0
 31 32  1  0
 33 31  2  0
M  END
$$$$
