HLW.pdb
     RDKit          3D

 33 35  0  0  1  0  0  0  0  0999 V2000
   27.4117  -16.2981  -18.3346 N   0  0  0  0  0  0  0  0  0  0  0  0
   28.0492  -17.0102  -17.2585 C   0  0  1  0  0  0  0  0  0  0  0  0
   29.3237  -16.3441  -16.8560 C   0  0  0  0  0  0  0  0  0  0  0  0
   30.2438  -16.1736  -17.9926 C   0  0  0  0  0  0  0  0  0  0  0  0
   30.7188  -15.0388  -18.5890 C   0  0  0  0  0  0  0  0  0  0  0  0
   31.5227  -15.3730  -19.6104 N   0  0  0  0  0  0  0  0  0  0  0  0
   31.5599  -16.7121  -19.6661 C   0  0  0  0  0  0  0  0  0  0  0  0
   30.7842  -17.1895  -18.6850 N   0  0  0  0  0  0  0  0  0  0  0  0
   27.1595  -17.3463  -16.1354 C   0  0  0  0  0  0  0  0  0  0  0  0
   26.8795  -16.4839  -15.2336 O   0  0  0  0  0  0  0  0  0  0  0  0
   22.1713  -17.8889  -16.4229 C   0  0  0  0  0  0  0  0  0  0  0  0
   23.5498  -17.7199  -15.7817 C   0  0  1  0  0  0  0  0  0  0  0  0
   23.5411  -16.6283  -14.7715 C   0  0  0  0  0  0  0  0  0  0  0  0
   24.1612  -19.0086  -15.3970 C   0  0  0  0  0  0  0  0  0  0  0  0
   25.6010  -18.9586  -14.9500 C   0  0  2  0  0  0  0  0  0  0  0  0
   26.5511  -18.6157  -15.9546 N   0  0  0  0  0  0  0  0  0  0  0  0
   25.9603  -20.1484  -14.1458 C   0  0  0  0  0  0  0  0  0  0  0  0
   25.9568  -21.2716  -14.6911 O   0  0  0  0  0  0  0  0  0  0  0  0
   26.3056  -20.0466  -12.7815 N   0  0  0  0  0  0  0  0  0  0  0  0
   26.5673  -21.2242  -11.9381 C   0  0  1  0  0  0  0  0  0  0  0  0
   27.4299  -20.8498  -10.7872 C   0  0  0  0  0  0  0  0  0  0  0  0
   26.6995  -20.5439   -9.5633 C   0  0  0  0  0  0  0  0  0  0  0  0
   25.3328  -20.6046   -9.4080 C   0  0  0  0  0  0  0  0  0  0  0  0
   25.0393  -20.2134   -8.1606 N   0  0  0  0  0  0  0  0  0  0  0  0
   26.1487  -19.8993   -7.4876 C   0  0  0  0  0  0  0  0  0  0  0  0
   26.3345  -19.4667   -6.1755 C   0  0  0  0  0  0  0  0  0  0  0  0
   27.5950  -19.2236   -5.6890 C   0  0  0  0  0  0  0  0  0  0  0  0
   28.6418  -19.4335   -6.5720 C   0  0  0  0  0  0  0  0  0  0  0  0
   28.4816  -19.8540   -7.8545 C   0  0  0  0  0  0  0  0  0  0  0  0
   27.1997  -20.0975   -8.3413 C   0  0  0  0  0  0  0  0  0  0  0  0
   25.3626  -21.9612  -11.5684 C   0  0  0  0  0  0  0  0  0  0  0  0
   25.3941  -23.3207  -11.2039 O   0  0  0  0  0  0  0  0  0  0  0  0
   24.1826  -21.4690  -11.5432 O   0  0  0  0  0  0  0  0  0  0  0  0
  2  9  1  0
  2  1  1  6
  2  3  1  0
  4  3  1  0
  4  5  2  0
  6  5  1  0
  7  6  1  0
  8  7  2  0
  8  4  1  0
  9 16  1  0
 10  9  2  0
 12 11  1  1
 12 13  1  0
 14 12  1  0
 15 14  1  6
 16 15  1  0
 17 15  1  0
 18 17  2  0
 19 17  1  0
 20 31  1  0
 20 19  1  0
 21 22  1  0
 20 21  1  1
 22 23  2  0
 22 30  1  0
 23 24  1  0
 24 25  1  0
 25 26  2  0
 27 26  1  0
 28 27  2  0
 29 28  1  0
 30 29  2  0
 30 25  1  0
 31 32  1  0
 33 31  2  0
M  END
$$$$
