HLW.pdb
     RDKit          3D

 33 35  0  0  1  0  0  0  0  0999 V2000
   22.1714  -19.5995  -15.8395 N   0  0  0  0  0  0  0  0  0  0  0  0
   22.8568  -19.3682  -14.5952 C   0  0  1  0  0  0  0  0  0  0  0  0
   21.9352  -19.5488  -13.4341 C   0  0  0  0  0  0  0  0  0  0  0  0
   20.7651  -18.6585  -13.5105 C   0  0  0  0  0  0  0  0  0  0  0  0
   19.4573  -18.9325  -13.7998 C   0  0  0  0  0  0  0  0  0  0  0  0
   18.7453  -17.7952  -13.7719 N   0  0  0  0  0  0  0  0  0  0  0  0
   19.5929  -16.8020  -13.4676 C   0  0  0  0  0  0  0  0  0  0  0  0
   20.8125  -17.3313  -13.3111 N   0  0  0  0  0  0  0  0  0  0  0  0
   24.1423  -20.0726  -14.4645 C   0  0  0  0  0  0  0  0  0  0  0  0
   24.2006  -21.3499  -14.4849 O   0  0  0  0  0  0  0  0  0  0  0  0
   27.1462  -18.8624  -16.6413 C   0  0  0  0  0  0  0  0  0  0  0  0
   28.3134  -19.0317  -15.6673 C   0  0  1  0  0  0  0  0  0  0  0  0
   29.3873  -18.0394  -15.9395 C   0  0  0  0  0  0  0  0  0  0  0  0
   27.8688  -19.1982  -14.2683 C   0  0  0  0  0  0  0  0  0  0  0  0
   26.6451  -20.0534  -14.0529 C   0  0  2  0  0  0  0  0  0  0  0  0
   25.3939  -19.4219  -14.3083 N   0  0  0  0  0  0  0  0  0  0  0  0
   26.7133  -20.7827  -12.7663 C   0  0  0  0  0  0  0  0  0  0  0  0
   27.6315  -21.6095  -12.5868 O   0  0  0  0  0  0  0  0  0  0  0  0
   25.7692  -20.5686  -11.7399 N   0  0  0  0  0  0  0  0  0  0  0  0
   26.0726  -20.8057  -10.3193 C   0  0  1  0  0  0  0  0  0  0  0  0
   26.9108  -19.7021   -9.7822 C   0  0  0  0  0  0  0  0  0  0  0  0
   27.8748  -20.1173   -8.7706 C   0  0  0  0  0  0  0  0  0  0  0  0
   28.8894  -21.0296   -8.9556 C   0  0  0  0  0  0  0  0  0  0  0  0
   29.5323  -21.1769   -7.7893 N   0  0  0  0  0  0  0  0  0  0  0  0
   28.9892  -20.4036   -6.8462 C   0  0  0  0  0  0  0  0  0  0  0  0
   29.3287  -20.2137   -5.5076 C   0  0  0  0  0  0  0  0  0  0  0  0
   28.6255  -19.3327   -4.7239 C   0  0  0  0  0  0  0  0  0  0  0  0
   27.5820  -18.6634   -5.3423 C   0  0  0  0  0  0  0  0  0  0  0  0
   27.2349  -18.8350   -6.6451 C   0  0  0  0  0  0  0  0  0  0  0  0
   27.9522  -19.7312   -7.4335 C   0  0  0  0  0  0  0  0  0  0  0  0
   24.8963  -21.1119   -9.5107 C   0  0  0  0  0  0  0  0  0  0  0  0
   24.9928  -21.6836   -8.2277 O   0  0  0  0  0  0  0  0  0  0  0  0
   23.6867  -20.9070   -9.8718 O   0  0  0  0  0  0  0  0  0  0  0  0
  2  9  1  0
  2  1  1  6
  2  3  1  0
  4  3  1  0
  4  5  2  0
  6  5  1  0
  7  6  1  0
  8  7  2  0
  8  4  1  0
  9 16  1  0
 10  9  2  0
 12 11  1  6
 12 13  1  0
 14 12  1  0
 15 14  1  1
 16 15  1  0
 17 15  1  0
 18 17  2  0
 19 17  1  0
 20 31  1  0
 20 19  1  0
 21 22  1  0
 20 21  1  1
 22 23  2  0
 22 30  1  0
 23 24  1  0
 24 25  1  0
 25 26  2  0
 27 26  1  0
 28 27  2  0
 29 28  1  0
 30 29  2  0
 30 25  1  0
 31 32  1  0
 33 31  2  0
M  END
$$$$
