SSW.pdb
     RDKit          3D

 27 28  0  0  1  0  0  0  0  0999 V2000
   23.9301  -21.8037  -15.8424 O   0  0  0  0  0  0  0  0  0  0  0  0
   24.7199  -21.1988  -16.8455 C   0  0  0  0  0  0  0  0  0  0  0  0
   26.0647  -21.9252  -16.9131 C   0  0  2  0  0  0  0  0  0  0  0  0
   25.8779  -23.3253  -17.1691 N   0  0  0  0  0  0  0  0  0  0  0  0
   26.7017  -21.7561  -15.5874 C   0  0  0  0  0  0  0  0  0  0  0  0
   26.9983  -22.7944  -14.9096 O   0  0  0  0  0  0  0  0  0  0  0  0
   27.5320  -18.0449  -13.7617 O   0  0  0  0  0  0  0  0  0  0  0  0
   28.4487  -19.0829  -13.6186 C   0  0  0  0  0  0  0  0  0  0  0  0
   27.7850  -20.4254  -13.7800 C   0  0  2  0  0  0  0  0  0  0  0  0
   27.0157  -20.5198  -14.9960 N   0  0  0  0  0  0  0  0  0  0  0  0
   26.9171  -20.7777  -12.6422 C   0  0  0  0  0  0  0  0  0  0  0  0
   25.6786  -20.6613  -12.7894 O   0  0  0  0  0  0  0  0  0  0  0  0
   27.4041  -21.2388  -11.3985 N   0  0  0  0  0  0  0  0  0  0  0  0
   26.4838  -21.4058  -10.2687 C   0  0  1  0  0  0  0  0  0  0  0  0
   27.3460  -21.7366   -9.0617 C   0  0  0  0  0  0  0  0  0  0  0  0
   27.3305  -20.6085   -8.1384 C   0  0  0  0  0  0  0  0  0  0  0  0
   26.4960  -19.4843   -8.2332 C   0  0  0  0  0  0  0  0  0  0  0  0
   26.7356  -18.7049   -7.1951 N   0  0  0  0  0  0  0  0  0  0  0  0
   27.6797  -19.2264   -6.4012 C   0  0  0  0  0  0  0  0  0  0  0  0
   28.2642  -18.7759   -5.2199 C   0  0  0  0  0  0  0  0  0  0  0  0
   29.2459  -19.4992   -4.5848 C   0  0  0  0  0  0  0  0  0  0  0  0
   29.6325  -20.6913   -5.1622 C   0  0  0  0  0  0  0  0  0  0  0  0
   29.0407  -21.1293   -6.3408 C   0  0  0  0  0  0  0  0  0  0  0  0
   28.0548  -20.4263   -6.9969 C   0  0  0  0  0  0  0  0  0  0  0  0
   25.5995  -20.2688  -10.1347 C   0  0  0  0  0  0  0  0  0  0  0  0
   24.2466  -20.3654   -9.8681 O   0  0  0  0  0  0  0  0  0  0  0  0
   26.0788  -19.1030  -10.2721 O   0  0  0  0  0  0  0  0  0  0  0  0
  1  2  1  0
  2  3  1  0
  3  4  1  1
  5  6  2  0
  5  3  1  0
  7  8  1  0
  9  8  1  1
  9 10  1  0
 10  5  1  0
 11 13  1  0
 11  9  1  0
 12 11  2  0
 14 25  1  0
 14 13  1  0
 15 16  1  0
 14 15  1  1
 16 17  2  0
 16 24  1  0
 17 18  1  0
 18 19  1  0
 19 20  2  0
 20 21  1  0
 22 21  2  0
 23 22  1  0
 24 23  2  0
 24 19  1  0
 25 26  1  0
 27 25  2  0
M  END
$$$$
