SSW.pdb
     RDKit          3D

 27 28  0  0  1  0  0  0  0  0999 V2000
   26.8406  -20.4561  -18.5071 O   0  0  0  0  0  0  0  0  0  0  0  0
   27.6722  -19.3614  -18.8332 C   0  0  0  0  0  0  0  0  0  0  0  0
   28.9783  -19.4886  -18.0467 C   0  0  2  0  0  0  0  0  0  0  0  0
   29.6439  -20.7224  -18.3557 N   0  0  0  0  0  0  0  0  0  0  0  0
   28.6088  -19.4836  -16.6130 C   0  0  0  0  0  0  0  0  0  0  0  0
   29.1453  -20.3399  -15.8358 O   0  0  0  0  0  0  0  0  0  0  0  0
   25.6876  -16.9969  -14.8422 O   0  0  0  0  0  0  0  0  0  0  0  0
   26.8757  -17.2290  -14.1545 C   0  0  0  0  0  0  0  0  0  0  0  0
   27.5170  -18.5204  -14.5904 C   0  0  2  0  0  0  0  0  0  0  0  0
   27.6951  -18.5950  -16.0194 N   0  0  0  0  0  0  0  0  0  0  0  0
   26.7726  -19.7112  -14.1433 C   0  0  0  0  0  0  0  0  0  0  0  0
   26.0138  -20.2734  -14.9663 O   0  0  0  0  0  0  0  0  0  0  0  0
   26.8682  -20.2519  -12.8414 N   0  0  0  0  0  0  0  0  0  0  0  0
   26.0331  -21.3963  -12.4613 C   0  0  1  0  0  0  0  0  0  0  0  0
   26.6971  -22.0239  -11.2468 C   0  0  0  0  0  0  0  0  0  0  0  0
   26.4617  -21.1790  -10.0823 C   0  0  0  0  0  0  0  0  0  0  0  0
   25.2838  -20.4653   -9.8132 C   0  0  0  0  0  0  0  0  0  0  0  0
   25.4266  -19.8589   -8.6494 N   0  0  0  0  0  0  0  0  0  0  0  0
   26.6258  -20.1137   -8.1104 C   0  0  0  0  0  0  0  0  0  0  0  0
   27.2274  -19.6986   -6.9248 C   0  0  0  0  0  0  0  0  0  0  0  0
   28.5019  -20.0924   -6.5916 C   0  0  0  0  0  0  0  0  0  0  0  0
   29.1655  -20.9161   -7.4777 C   0  0  0  0  0  0  0  0  0  0  0  0
   28.5534  -21.3232   -8.6569 C   0  0  0  0  0  0  0  0  0  0  0  0
   27.2782  -20.9455   -9.0147 C   0  0  0  0  0  0  0  0  0  0  0  0
   24.6469  -21.0118  -12.3091 C   0  0  0  0  0  0  0  0  0  0  0  0
   24.2189  -19.7110  -12.1205 O   0  0  0  0  0  0  0  0  0  0  0  0
   23.7559  -21.9131  -12.3440 O   0  0  0  0  0  0  0  0  0  0  0  0
  1  2  1  0
  2  3  1  0
  3  4  1  6
  5  6  2  0
  5  3  1  0
  7  8  1  0
  9  8  1  6
  9 10  1  0
 10  5  1  0
 11 13  1  0
 11  9  1  0
 12 11  2  0
 14 25  1  0
 14 13  1  0
 15 16  1  0
 14 15  1  1
 16 17  2  0
 16 24  1  0
 17 18  1  0
 18 19  1  0
 19 20  2  0
 20 21  1  0
 22 21  2  0
 23 22  1  0
 24 23  2  0
 24 19  1  0
 25 26  1  0
 27 25  2  0
M  END
$$$$
