SSW.pdb
     RDKit          3D

 27 28  0  0  1  0  0  0  0  0999 V2000
   21.0011  -18.5111  -11.7060 O   0  0  0  0  0  0  0  0  0  0  0  0
   20.4256  -19.0570  -12.8751 C   0  0  0  0  0  0  0  0  0  0  0  0
   20.1558  -20.5443  -12.6384 C   0  0  2  0  0  0  0  0  0  0  0  0
   19.4093  -20.7428  -11.4285 N   0  0  0  0  0  0  0  0  0  0  0  0
   21.4783  -21.1961  -12.5040 C   0  0  0  0  0  0  0  0  0  0  0  0
   21.8666  -21.5686  -11.3483 O   0  0  0  0  0  0  0  0  0  0  0  0
   24.1221  -22.1691  -15.7237 O   0  0  0  0  0  0  0  0  0  0  0  0
   23.9108  -23.0181  -14.6406 C   0  0  0  0  0  0  0  0  0  0  0  0
   23.5552  -22.2431  -13.3989 C   0  0  2  0  0  0  0  0  0  0  0  0
   22.3652  -21.4460  -13.5659 N   0  0  0  0  0  0  0  0  0  0  0  0
   24.6480  -21.3704  -12.9336 C   0  0  0  0  0  0  0  0  0  0  0  0
   24.5543  -20.1414  -13.1566 O   0  0  0  0  0  0  0  0  0  0  0  0
   25.7916  -21.8430  -12.2515 N   0  0  0  0  0  0  0  0  0  0  0  0
   26.9047  -20.9302  -11.9697 C   0  0  1  0  0  0  0  0  0  0  0  0
   27.6713  -21.5388  -10.8071 C   0  0  0  0  0  0  0  0  0  0  0  0
   27.1809  -20.9676   -9.5587 C   0  0  0  0  0  0  0  0  0  0  0  0
   25.8595  -20.5705   -9.3034 C   0  0  0  0  0  0  0  0  0  0  0  0
   25.7900  -20.1502   -8.0539 N   0  0  0  0  0  0  0  0  0  0  0  0
   26.9791  -20.2350   -7.4438 C   0  0  0  0  0  0  0  0  0  0  0  0
   27.3971  -19.9068   -6.1564 C   0  0  0  0  0  0  0  0  0  0  0  0
   28.7034  -20.0756   -5.7621 C   0  0  0  0  0  0  0  0  0  0  0  0
   29.5880  -20.5834   -6.6913 C   0  0  0  0  0  0  0  0  0  0  0  0
   29.1577  -20.9072   -7.9724 C   0  0  0  0  0  0  0  0  0  0  0  0
   27.8558  -20.7499   -8.3933 C   0  0  0  0  0  0  0  0  0  0  0  0
   27.6689  -20.6439  -13.1641 C   0  0  0  0  0  0  0  0  0  0  0  0
   28.2480  -19.4194  -13.4396 O   0  0  0  0  0  0  0  0  0  0  0  0
   27.8230  -21.5619  -14.0250 O   0  0  0  0  0  0  0  0  0  0  0  0
  1  2  1  0
  2  3  1  0
  3  4  1  1
  5  6  2  0
  5  3  1  0
  7  8  1  0
  9  8  1  6
  9 10  1  0
 10  5  1  0
 11 13  1  0
 11  9  1  0
 12 11  2  0
 14 25  1  0
 14 13  1  0
 15 16  1  0
 14 15  1  1
 16 17  2  0
 16 24  1  0
 17 18  1  0
 18 19  1  0
 19 20  2  0
 20 21  1  0
 22 21  2  0
 23 22  1  0
 24 23  2  0
 24 19  1  0
 25 26  1  0
 27 25  2  0
M  END
$$$$
