SSW.pdb
     RDKit          3D

 27 28  0  0  1  0  0  0  0  0999 V2000
   30.3888  -21.3797  -17.7140 O   0  0  0  0  0  0  0  0  0  0  0  0
   30.2618  -22.7602  -17.4416 C   0  0  0  0  0  0  0  0  0  0  0  0
   29.0265  -23.2907  -18.1720 C   0  0  2  0  0  0  0  0  0  0  0  0
   29.0707  -22.9506  -19.5660 N   0  0  0  0  0  0  0  0  0  0  0  0
   27.8548  -22.6333  -17.5501 C   0  0  0  0  0  0  0  0  0  0  0  0
   27.2895  -21.6710  -18.1662 O   0  0  0  0  0  0  0  0  0  0  0  0
   24.8776  -24.5032  -15.7597 O   0  0  0  0  0  0  0  0  0  0  0  0
   24.8556  -23.2127  -16.2819 C   0  0  0  0  0  0  0  0  0  0  0  0
   26.0575  -22.4215  -15.8367 C   0  0  2  0  0  0  0  0  0  0  0  0
   27.2975  -22.9864  -16.3085 N   0  0  0  0  0  0  0  0  0  0  0  0
   26.1341  -22.2675  -14.3729 C   0  0  0  0  0  0  0  0  0  0  0  0
   27.0883  -22.8145  -13.7734 O   0  0  0  0  0  0  0  0  0  0  0  0
   25.1933  -21.5385  -13.6115 N   0  0  0  0  0  0  0  0  0  0  0  0
   25.2921  -21.5213  -12.1481 C   0  0  1  0  0  0  0  0  0  0  0  0
   26.6583  -20.9419  -11.8199 C   0  0  0  0  0  0  0  0  0  0  0  0
   26.7011  -20.5877  -10.4063 C   0  0  0  0  0  0  0  0  0  0  0  0
   25.6746  -19.9539   -9.6896 C   0  0  0  0  0  0  0  0  0  0  0  0
   26.0580  -19.8444   -8.4311 N   0  0  0  0  0  0  0  0  0  0  0  0
   27.2792  -20.3621   -8.2465 C   0  0  0  0  0  0  0  0  0  0  0  0
   28.0916  -20.4675   -7.1200 C   0  0  0  0  0  0  0  0  0  0  0  0
   29.3397  -21.0404   -7.1875 C   0  0  0  0  0  0  0  0  0  0  0  0
   29.7595  -21.5084   -8.4158 C   0  0  0  0  0  0  0  0  0  0  0  0
   28.9387  -21.3975   -9.5316 C   0  0  0  0  0  0  0  0  0  0  0  0
   27.6844  -20.8300   -9.4923 C   0  0  0  0  0  0  0  0  0  0  0  0
   24.1530  -20.8608  -11.5491 C   0  0  0  0  0  0  0  0  0  0  0  0
   23.6205  -21.1964  -10.3184 O   0  0  0  0  0  0  0  0  0  0  0  0
   23.5931  -19.9153  -12.1817 O   0  0  0  0  0  0  0  0  0  0  0  0
  1  2  1  0
  2  3  1  0
  3  4  1  6
  5  6  2  0
  5  3  1  0
  7  8  1  0
  9  8  1  1
  9 10  1  0
 10  5  1  0
 11 13  1  0
 11  9  1  0
 12 11  2  0
 14 25  1  0
 14 13  1  0
 15 16  1  0
 14 15  1  6
 16 17  2  0
 16 24  1  0
 17 18  1  0
 18 19  1  0
 19 20  2  0
 20 21  1  0
 22 21  2  0
 23 22  1  0
 24 23  2  0
 24 19  1  0
 25 26  1  0
 27 25  2  0
M  END
$$$$
