SSW.pdb
     RDKit          3D

 27 28  0  0  1  0  0  0  0  0999 V2000
   28.1002  -16.6521  -15.8501 O   0  0  0  0  0  0  0  0  0  0  0  0
   29.2593  -17.2318  -16.4126 C   0  0  0  0  0  0  0  0  0  0  0  0
   28.9240  -17.7266  -17.8210 C   0  0  2  0  0  0  0  0  0  0  0  0
   28.4481  -16.6496  -18.6421 N   0  0  0  0  0  0  0  0  0  0  0  0
   27.8478  -18.7319  -17.6692 C   0  0  0  0  0  0  0  0  0  0  0  0
   26.6498  -18.3989  -17.9509 O   0  0  0  0  0  0  0  0  0  0  0  0
   28.2969  -22.9878  -17.1383 O   0  0  0  0  0  0  0  0  0  0  0  0
   27.3023  -22.3133  -17.8414 C   0  0  0  0  0  0  0  0  0  0  0  0
   26.9543  -21.0061  -17.1789 C   0  0  2  0  0  0  0  0  0  0  0  0
   28.0363  -20.0542  -17.2304 N   0  0  0  0  0  0  0  0  0  0  0  0
   26.5322  -21.1674  -15.7760 C   0  0  0  0  0  0  0  0  0  0  0  0
   27.4052  -21.0632  -14.8838 O   0  0  0  0  0  0  0  0  0  0  0  0
   25.2007  -21.4316  -15.3838 N   0  0  0  0  0  0  0  0  0  0  0  0
   24.8847  -21.6505  -13.9684 C   0  0  1  0  0  0  0  0  0  0  0  0
   25.2564  -20.3667  -13.2450 C   0  0  0  0  0  0  0  0  0  0  0  0
   25.0590  -20.5500  -11.8122 C   0  0  0  0  0  0  0  0  0  0  0  0
   26.0411  -20.9555  -10.8956 C   0  0  0  0  0  0  0  0  0  0  0  0
   25.5026  -20.9604   -9.6904 N   0  0  0  0  0  0  0  0  0  0  0  0
   24.2176  -20.5852   -9.7287 C   0  0  0  0  0  0  0  0  0  0  0  0
   23.2511  -20.4498   -8.7350 C   0  0  0  0  0  0  0  0  0  0  0  0
   21.9683  -20.0542   -9.0320 C   0  0  0  0  0  0  0  0  0  0  0  0
   21.6722  -19.7958  -10.3547 C   0  0  0  0  0  0  0  0  0  0  0  0
   22.6461  -19.9345  -11.3362 C   0  0  0  0  0  0  0  0  0  0  0  0
   23.9383  -20.3272  -11.0669 C   0  0  0  0  0  0  0  0  0  0  0  0
   23.5256  -22.1151  -13.7959 C   0  0  0  0  0  0  0  0  0  0  0  0
   23.1517  -23.1077  -12.9095 O   0  0  0  0  0  0  0  0  0  0  0  0
   22.6080  -21.5925  -14.4976 O   0  0  0  0  0  0  0  0  0  0  0  0
  1  2  1  0
  2  3  1  0
  3  4  1  6
  5  6  2  0
  5  3  1  0
  7  8  1  0
  9  8  1  1
  9 10  1  0
 10  5  1  0
 11 13  1  0
 11  9  1  0
 12 11  2  0
 14 25  1  0
 14 13  1  0
 15 16  1  0
 14 15  1  1
 16 17  2  0
 16 24  1  0
 17 18  1  0
 18 19  1  0
 19 20  2  0
 20 21  1  0
 22 21  2  0
 23 22  1  0
 24 23  2  0
 24 19  1  0
 25 26  1  0
 27 25  2  0
M  END
$$$$
