SSW.pdb
     RDKit          3D

 27 28  0  0  1  0  0  0  0  0999 V2000
   28.3486  -21.5545  -20.0538 O   0  0  0  0  0  0  0  0  0  0  0  0
   27.9154  -21.6434  -18.7120 C   0  0  0  0  0  0  0  0  0  0  0  0
   29.1413  -21.8148  -17.8129 C   0  0  2  0  0  0  0  0  0  0  0  0
   29.5623  -23.1867  -17.7775 N   0  0  0  0  0  0  0  0  0  0  0  0
   28.7277  -21.3999  -16.4532 C   0  0  0  0  0  0  0  0  0  0  0  0
   29.2940  -21.9385  -15.4460 O   0  0  0  0  0  0  0  0  0  0  0  0
   27.0571  -17.7435  -13.7842 O   0  0  0  0  0  0  0  0  0  0  0  0
   27.3769  -18.3057  -15.0171 C   0  0  0  0  0  0  0  0  0  0  0  0
   27.6595  -19.7797  -14.8897 C   0  0  2  0  0  0  0  0  0  0  0  0
   27.7403  -20.4402  -16.1690 N   0  0  0  0  0  0  0  0  0  0  0  0
   26.6703  -20.4843  -14.0547 C   0  0  0  0  0  0  0  0  0  0  0  0
   25.6039  -20.8577  -14.5956 O   0  0  0  0  0  0  0  0  0  0  0  0
   26.8589  -20.7614  -12.6821 N   0  0  0  0  0  0  0  0  0  0  0  0
   25.8627  -21.5524  -11.9517 C   0  0  1  0  0  0  0  0  0  0  0  0
   26.5559  -22.0576  -10.6971 C   0  0  0  0  0  0  0  0  0  0  0  0
   26.5491  -21.0043   -9.6892 C   0  0  0  0  0  0  0  0  0  0  0  0
   25.4951  -20.1105   -9.4461 C   0  0  0  0  0  0  0  0  0  0  0  0
   25.8355  -19.3388   -8.4306 N   0  0  0  0  0  0  0  0  0  0  0  0
   27.0533  -19.6499   -7.9683 C   0  0  0  0  0  0  0  0  0  0  0  0
   27.8282  -19.1202   -6.9393 C   0  0  0  0  0  0  0  0  0  0  0  0
   29.0817  -19.6116   -6.6602 C   0  0  0  0  0  0  0  0  0  0  0  0
   29.5454  -20.6517   -7.4393 C   0  0  0  0  0  0  0  0  0  0  0  0
   28.7616  -21.1712   -8.4625 C   0  0  0  0  0  0  0  0  0  0  0  0
   27.5029  -20.6996   -8.7627 C   0  0  0  0  0  0  0  0  0  0  0  0
   24.6382  -20.8080  -11.7541 C   0  0  0  0  0  0  0  0  0  0  0  0
   24.5454  -19.4313  -11.8361 O   0  0  0  0  0  0  0  0  0  0  0  0
   23.5747  -21.4429  -11.4832 O   0  0  0  0  0  0  0  0  0  0  0  0
  1  2  1  0
  2  3  1  0
  3  4  1  1
  5  6  2  0
  5  3  1  0
  7  8  1  0
  9  8  1  6
  9 10  1  0
 10  5  1  0
 11 13  1  0
 11  9  1  0
 12 11  2  0
 14 25  1  0
 14 13  1  0
 15 16  1  0
 14 15  1  1
 16 17  2  0
 16 24  1  0
 17 18  1  0
 18 19  1  0
 19 20  2  0
 20 21  1  0
 22 21  2  0
 23 22  1  0
 24 23  2  0
 24 19  1  0
 25 26  1  0
 27 25  2  0
M  END
$$$$
