SSW.pdb
     RDKit          3D

 27 28  0  0  1  0  0  0  0  0999 V2000
   24.1858  -16.6741  -13.8886 O   0  0  0  0  0  0  0  0  0  0  0  0
   25.4808  -16.8971  -14.4075 C   0  0  0  0  0  0  0  0  0  0  0  0
   25.4615  -18.1853  -15.2327 C   0  0  2  0  0  0  0  0  0  0  0  0
   24.3759  -18.1753  -16.1719 N   0  0  0  0  0  0  0  0  0  0  0  0
   25.2627  -19.2963  -14.2745 C   0  0  0  0  0  0  0  0  0  0  0  0
   24.0947  -19.7876  -14.1350 O   0  0  0  0  0  0  0  0  0  0  0  0
   28.3007  -21.7230  -13.1041 O   0  0  0  0  0  0  0  0  0  0  0  0
   26.9853  -22.1708  -13.0167 C   0  0  0  0  0  0  0  0  0  0  0  0
   26.0447  -21.0438  -12.6791 C   0  0  2  0  0  0  0  0  0  0  0  0
   26.2747  -19.8707  -13.4855 N   0  0  0  0  0  0  0  0  0  0  0  0
   26.0963  -20.6587  -11.2575 C   0  0  0  0  0  0  0  0  0  0  0  0
   27.0753  -19.9819  -10.8670 O   0  0  0  0  0  0  0  0  0  0  0  0
   25.1045  -21.0095  -10.3142 N   0  0  0  0  0  0  0  0  0  0  0  0
   25.4283  -21.0251   -8.8836 C   0  0  1  0  0  0  0  0  0  0  0  0
   25.8960  -19.6212   -8.5370 C   0  0  0  0  0  0  0  0  0  0  0  0
   27.2221  -19.6931   -7.9357 C   0  0  0  0  0  0  0  0  0  0  0  0
   28.4394  -19.6824   -8.6337 C   0  0  0  0  0  0  0  0  0  0  0  0
   29.4205  -19.7123   -7.7510 N   0  0  0  0  0  0  0  0  0  0  0  0
   28.9486  -19.7434   -6.4981 C   0  0  0  0  0  0  0  0  0  0  0  0
   29.5829  -19.7913   -5.2590 C   0  0  0  0  0  0  0  0  0  0  0  0
   28.8648  -19.8314   -4.0872 C   0  0  0  0  0  0  0  0  0  0  0  0
   27.4884  -19.8229   -4.1839 C   0  0  0  0  0  0  0  0  0  0  0  0
   26.8682  -19.7745   -5.4265 C   0  0  0  0  0  0  0  0  0  0  0  0
   27.5625  -19.7320   -6.6152 C   0  0  0  0  0  0  0  0  0  0  0  0
   24.3318  -21.5493   -8.0992 C   0  0  0  0  0  0  0  0  0  0  0  0
   24.3988  -21.7975   -6.7410 O   0  0  0  0  0  0  0  0  0  0  0  0
   23.2343  -21.8071   -8.6794 O   0  0  0  0  0  0  0  0  0  0  0  0
  1  2  1  0
  2  3  1  0
  3  4  1  6
  5  6  2  0
  5  3  1  0
  7  8  1  0
  9  8  1  1
  9 10  1  0
 10  5  1  0
 11 13  1  0
 11  9  1  0
 12 11  2  0
 14 25  1  0
 14 13  1  0
 15 16  1  0
 14 15  1  1
 16 17  2  0
 16 24  1  0
 17 18  1  0
 18 19  1  0
 19 20  2  0
 20 21  1  0
 22 21  2  0
 23 22  1  0
 24 23  2  0
 24 19  1  0
 25 26  1  0
 27 25  2  0
M  END
$$$$
