SSW.pdb
     RDKit          3D

 27 28  0  0  1  0  0  0  0  0999 V2000
   11.3164   -9.9397   -8.4810 O   0  0  0  0  0  0  0  0  0  0  0  0
   12.6784   -9.7093   -8.7774 C   0  0  0  0  0  0  0  0  0  0  0  0
   12.9596  -10.2023  -10.1982 C   0  0  2  0  0  0  0  0  0  0  0  0
   12.8634  -11.6327  -10.2721 N   0  0  0  0  0  0  0  0  0  0  0  0
   14.3456   -9.7929  -10.5195 C   0  0  0  0  0  0  0  0  0  0  0  0
   15.3056  -10.5720  -10.2087 O   0  0  0  0  0  0  0  0  0  0  0  0
   15.1557   -7.7187  -13.7703 O   0  0  0  0  0  0  0  0  0  0  0  0
   16.1437   -8.4660  -13.1349 C   0  0  0  0  0  0  0  0  0  0  0  0
   16.0408   -8.3477  -11.6368 C   0  0  2  0  0  0  0  0  0  0  0  0
   14.7043   -8.5900  -11.1530 N   0  0  0  0  0  0  0  0  0  0  0  0
   16.4977   -7.0410  -11.1309 C   0  0  0  0  0  0  0  0  0  0  0  0
   15.6506   -6.1249  -11.0196 O   0  0  0  0  0  0  0  0  0  0  0  0
   17.8346   -6.7662  -10.7652 N   0  0  0  0  0  0  0  0  0  0  0  0
   18.2384   -5.3926  -10.4464 C   0  0  1  0  0  0  0  0  0  0  0  0
   19.7034   -5.4606  -10.0477 C   0  0  0  0  0  0  0  0  0  0  0  0
   20.5073   -5.7579  -11.2270 C   0  0  0  0  0  0  0  0  0  0  0  0
   20.9904   -4.8153  -12.1475 C   0  0  0  0  0  0  0  0  0  0  0  0
   21.7148   -5.4532  -13.0481 N   0  0  0  0  0  0  0  0  0  0  0  0
   21.7545   -6.7685  -12.7996 C   0  0  0  0  0  0  0  0  0  0  0  0
   22.3691   -7.8288  -13.4614 C   0  0  0  0  0  0  0  0  0  0  0  0
   22.2492   -9.1218  -13.0096 C   0  0  0  0  0  0  0  0  0  0  0  0
   21.4951   -9.3315  -11.8732 C   0  0  0  0  0  0  0  0  0  0  0  0
   20.8877   -8.2645  -11.2223 C   0  0  0  0  0  0  0  0  0  0  0  0
   20.9924   -6.9601  -11.6517 C   0  0  0  0  0  0  0  0  0  0  0  0
   17.9058   -4.4813  -11.5194 C   0  0  0  0  0  0  0  0  0  0  0  0
   17.8089   -3.1105  -11.3709 O   0  0  0  0  0  0  0  0  0  0  0  0
   17.6817   -4.9539  -12.6744 O   0  0  0  0  0  0  0  0  0  0  0  0
  1  2  1  0
  2  3  1  0
  3  4  1  1
  5  6  2  0
  5  3  1  0
  7  8  1  0
  9  8  1  6
  9 10  1  0
 10  5  1  0
 11 13  1  0
 11  9  1  0
 12 11  2  0
 14 25  1  0
 14 13  1  0
 15 16  1  0
 14 15  1  6
 16 17  2  0
 16 24  1  0
 17 18  1  0
 18 19  1  0
 19 20  2  0
 20 21  1  0
 22 21  2  0
 23 22  1  0
 24 23  2  0
 24 19  1  0
 25 26  1  0
 27 25  2  0
M  END
$$$$
