SSW.pdb
     RDKit          3D

 27 28  0  0  1  0  0  0  0  0999 V2000
   21.3864  -22.6843  -16.5767 O   0  0  0  0  0  0  0  0  0  0  0  0
   20.1415  -22.3176  -16.0183 C   0  0  0  0  0  0  0  0  0  0  0  0
   19.9949  -23.0034  -14.6585 C   0  0  2  0  0  0  0  0  0  0  0  0
   18.9677  -22.3754  -13.8766 N   0  0  0  0  0  0  0  0  0  0  0  0
   21.2941  -22.8474  -13.9660 C   0  0  0  0  0  0  0  0  0  0  0  0
   21.4375  -21.8927  -13.1334 O   0  0  0  0  0  0  0  0  0  0  0  0
   24.8913  -25.1205  -14.6227 O   0  0  0  0  0  0  0  0  0  0  0  0
   24.4344  -24.8087  -13.3450 C   0  0  0  0  0  0  0  0  0  0  0  0
   23.6045  -23.5517  -13.3522 C   0  0  2  0  0  0  0  0  0  0  0  0
   22.4112  -23.6809  -14.1512 N   0  0  0  0  0  0  0  0  0  0  0  0
   24.3559  -22.3697  -13.8112 C   0  0  0  0  0  0  0  0  0  0  0  0
   24.2231  -22.0161  -15.0055 O   0  0  0  0  0  0  0  0  0  0  0  0
   25.2147  -21.6159  -12.9801 N   0  0  0  0  0  0  0  0  0  0  0  0
   25.9404  -20.4657  -13.5294 C   0  0  1  0  0  0  0  0  0  0  0  0
   26.3026  -19.5848  -12.3451 C   0  0  0  0  0  0  0  0  0  0  0  0
   27.3552  -20.2318  -11.5713 C   0  0  0  0  0  0  0  0  0  0  0  0
   28.5436  -20.7661  -12.0922 C   0  0  0  0  0  0  0  0  0  0  0  0
   29.2666  -21.2207  -11.0856 N   0  0  0  0  0  0  0  0  0  0  0  0
   28.6460  -21.0305   -9.9142 C   0  0  0  0  0  0  0  0  0  0  0  0
   29.0002  -21.3451   -8.6044 C   0  0  0  0  0  0  0  0  0  0  0  0
   28.1696  -21.0546   -7.5479 C   0  0  0  0  0  0  0  0  0  0  0  0
   26.9685  -20.4384   -7.8335 C   0  0  0  0  0  0  0  0  0  0  0  0
   26.6277  -20.1297   -9.1448 C   0  0  0  0  0  0  0  0  0  0  0  0
   27.4407  -20.4076  -10.2212 C   0  0  0  0  0  0  0  0  0  0  0  0
   27.0352  -20.8867  -14.3760 C   0  0  0  0  0  0  0  0  0  0  0  0
   27.7325  -20.0424  -15.2197 O   0  0  0  0  0  0  0  0  0  0  0  0
   27.3873  -22.1046  -14.3583 O   0  0  0  0  0  0  0  0  0  0  0  0
  1  2  1  0
  2  3  1  0
  3  4  1  1
  5  6  2  0
  5  3  1  0
  7  8  1  0
  9  8  1  6
  9 10  1  0
 10  5  1  0
 11 13  1  0
 11  9  1  0
 12 11  2  0
 14 25  1  0
 14 13  1  0
 15 16  1  0
 14 15  1  1
 16 17  2  0
 16 24  1  0
 17 18  1  0
 18 19  1  0
 19 20  2  0
 20 21  1  0
 22 21  2  0
 23 22  1  0
 24 23  2  0
 24 19  1  0
 25 26  1  0
 27 25  2  0
M  END
$$$$
