HCG.pdb
     RDKit          3D

 21 21  0  0  1  0  0  0  0  0999 V2000
   25.1340  -13.8922  -15.7763 N   0  0  0  0  0  0  0  0  0  0  0  0
   25.6538  -12.6461  -16.2884 C   0  0  1  0  0  0  0  0  0  0  0  0
   25.1786  -11.5368  -15.3514 C   0  0  0  0  0  0  0  0  0  0  0  0
   23.7116  -11.4260  -15.5301 C   0  0  0  0  0  0  0  0  0  0  0  0
   22.9222  -12.2192  -16.3137 C   0  0  0  0  0  0  0  0  0  0  0  0
   21.6564  -11.7764  -16.1880 N   0  0  0  0  0  0  0  0  0  0  0  0
   21.6619  -10.7359  -15.3483 C   0  0  0  0  0  0  0  0  0  0  0  0
   22.9269  -10.5145  -14.9389 N   0  0  0  0  0  0  0  0  0  0  0  0
   27.1331  -12.6946  -16.2706 C   0  0  0  0  0  0  0  0  0  0  0  0
   27.7003  -13.6244  -15.6266 O   0  0  0  0  0  0  0  0  0  0  0  0
   27.9313  -11.7305  -16.9534 N   0  0  0  0  0  0  0  0  0  0  0  0
   29.3492  -11.9534  -17.0232 C   0  0  1  0  0  0  0  0  0  0  0  0
   29.5888  -13.2456  -17.8161 C   0  0  0  0  0  0  0  0  0  0  0  0
   31.3772  -13.5147  -18.0372 S   0  0  0  0  0  0  0  0  0  0  0  0
   30.0486  -10.8263  -17.7165 C   0  0  0  0  0  0  0  0  0  0  0  0
   29.6060  -10.5131  -18.8493 O   0  0  0  0  0  0  0  0  0  0  0  0
   31.1459  -10.1292  -17.1637 N   0  0  0  0  0  0  0  0  0  0  0  0
   31.7168   -9.0202  -17.8863 C   0  0  0  0  0  0  0  0  0  0  0  0
   31.0425   -7.7599  -17.5052 C   0  0  0  0  0  0  0  0  0  0  0  0
   29.8150   -7.6471  -17.6976 O   0  0  0  0  0  0  0  0  0  0  0  0
   31.7510   -6.7134  -16.9426 O   0  0  0  0  0  0  0  0  0  0  0  0
  2  3  1  0
  2  1  1  1
  3  4  1  0
  4  5  2  0
  5  6  1  0
  7  6  1  0
  8  4  1  0
  8  7  2  0
  9  2  1  0
 10  9  2  0
 11  9  1  0
 12 13  1  6
 12 11  1  0
 13 14  1  0
 15 17  1  0
 15 12  1  0
 16 15  2  0
 18 17  1  0
 19 18  1  0
 20 19  2  0
 21 19  1  0
M  END
$$$$
