HCG.pdb
     RDKit          3D

 21 21  0  0  1  0  0  0  0  0999 V2000
   17.8235  -10.2363  -14.7729 N   0  0  0  0  0  0  0  0  0  0  0  0
   18.8984   -9.6548  -15.5420 C   0  0  1  0  0  0  0  0  0  0  0  0
   18.3849   -9.4647  -16.9683 C   0  0  0  0  0  0  0  0  0  0  0  0
   18.2541  -10.8175  -17.5591 C   0  0  0  0  0  0  0  0  0  0  0  0
   17.0910  -11.4717  -17.8519 C   0  0  0  0  0  0  0  0  0  0  0  0
   17.4228  -12.6690  -18.3718 N   0  0  0  0  0  0  0  0  0  0  0  0
   18.7569  -12.7541  -18.4002 C   0  0  0  0  0  0  0  0  0  0  0  0
   19.2758  -11.6150  -17.9001 N   0  0  0  0  0  0  0  0  0  0  0  0
   19.2426   -8.3332  -14.9710 C   0  0  0  0  0  0  0  0  0  0  0  0
   18.3567   -7.7055  -14.3213 O   0  0  0  0  0  0  0  0  0  0  0  0
   20.5345   -7.7516  -15.1309 N   0  0  0  0  0  0  0  0  0  0  0  0
   20.8018   -6.5048  -14.4684 C   0  0  1  0  0  0  0  0  0  0  0  0
   22.0981   -6.6634  -13.6620 C   0  0  0  0  0  0  0  0  0  0  0  0
   22.5447   -5.0758  -12.8875 S   0  0  0  0  0  0  0  0  0  0  0  0
   20.9787   -5.3886  -15.4498 C   0  0  0  0  0  0  0  0  0  0  0  0
   21.7674   -5.6083  -16.4021 O   0  0  0  0  0  0  0  0  0  0  0  0
   20.3160   -4.1453  -15.3473 N   0  0  0  0  0  0  0  0  0  0  0  0
   20.5017   -3.1567  -16.3799 C   0  0  0  0  0  0  0  0  0  0  0  0
   19.7179   -1.9407  -16.0708 C   0  0  0  0  0  0  0  0  0  0  0  0
   18.9015   -1.9694  -15.1279 O   0  0  0  0  0  0  0  0  0  0  0  0
   19.8783   -0.7817  -16.8088 O   0  0  0  0  0  0  0  0  0  0  0  0
  2  3  1  0
  2  1  1  1
  3  4  1  0
  4  5  2  0
  5  6  1  0
  7  6  1  0
  8  4  1  0
  8  7  2  0
  9  2  1  0
 10  9  2  0
 11  9  1  0
 12 13  1  6
 12 11  1  0
 13 14  1  0
 15 17  1  0
 15 12  1  0
 16 15  2  0
 18 17  1  0
 19 18  1  0
 20 19  2  0
 21 19  1  0
M  END
$$$$
