HCG.pdb
     RDKit          3D

 21 21  0  0  1  0  0  0  0  0999 V2000
   21.0889  -11.3416  -18.2002 N   0  0  0  0  0  0  0  0  0  0  0  0
   21.5968   -9.9936  -18.3016 C   0  0  1  0  0  0  0  0  0  0  0  0
   20.9399   -9.3516  -19.5224 C   0  0  0  0  0  0  0  0  0  0  0  0
   21.5138  -10.0169  -20.7158 C   0  0  0  0  0  0  0  0  0  0  0  0
   22.8373  -10.2458  -20.9657 C   0  0  0  0  0  0  0  0  0  0  0  0
   22.9195  -10.8725  -22.1550 N   0  0  0  0  0  0  0  0  0  0  0  0
   21.6791  -11.0277  -22.6293 C   0  0  0  0  0  0  0  0  0  0  0  0
   20.8071  -10.5020  -21.7460 N   0  0  0  0  0  0  0  0  0  0  0  0
   21.2095   -9.2376  -17.0894 C   0  0  0  0  0  0  0  0  0  0  0  0
   20.0662   -9.4432  -16.5877 O   0  0  0  0  0  0  0  0  0  0  0  0
   22.0815   -8.2913  -16.4754 N   0  0  0  0  0  0  0  0  0  0  0  0
   21.6614   -7.6851  -15.2421 C   0  0  1  0  0  0  0  0  0  0  0  0
   22.6812   -8.0584  -14.1574 C   0  0  0  0  0  0  0  0  0  0  0  0
   22.5727   -9.8399  -13.7912 S   0  0  0  0  0  0  0  0  0  0  0  0
   21.6030   -6.1938  -15.3554 C   0  0  0  0  0  0  0  0  0  0  0  0
   22.5483   -5.6482  -15.9765 O   0  0  0  0  0  0  0  0  0  0  0  0
   20.5630   -5.4086  -14.8100 N   0  0  0  0  0  0  0  0  0  0  0  0
   20.6232   -3.9732  -14.9278 C   0  0  0  0  0  0  0  0  0  0  0  0
   19.4061   -3.3611  -14.3512 C   0  0  0  0  0  0  0  0  0  0  0  0
   18.4659   -4.1003  -13.9963 O   0  0  0  0  0  0  0  0  0  0  0  0
   19.2991   -1.9899  -14.2021 O   0  0  0  0  0  0  0  0  0  0  0  0
  2  3  1  0
  2  1  1  1
  3  4  1  0
  4  5  2  0
  5  6  1  0
  7  6  1  0
  8  4  1  0
  8  7  2  0
  9  2  1  0
 10  9  2  0
 11  9  1  0
 12 13  1  1
 12 11  1  0
 13 14  1  0
 15 17  1  0
 15 12  1  0
 16 15  2  0
 18 17  1  0
 19 18  1  0
 20 19  2  0
 21 19  1  0
M  END
$$$$
