HCG.pdb
     RDKit          3D

 21 21  0  0  1  0  0  0  0  0999 V2000
   22.6661  -34.1497   -9.8622 N   0  0  0  0  0  0  0  0  0  0  0  0
   23.9595  -33.6240   -9.4933 C   0  0  1  0  0  0  0  0  0  0  0  0
   24.1930  -32.3659  -10.3279 C   0  0  0  0  0  0  0  0  0  0  0  0
   24.5753  -32.8192  -11.6861 C   0  0  0  0  0  0  0  0  0  0  0  0
   25.8300  -33.1505  -12.1134 C   0  0  0  0  0  0  0  0  0  0  0  0
   25.7329  -33.5061  -13.4089 N   0  0  0  0  0  0  0  0  0  0  0  0
   24.4512  -33.3979  -13.7743 C   0  0  0  0  0  0  0  0  0  0  0  0
   23.7318  -32.9745  -12.7160 N   0  0  0  0  0  0  0  0  0  0  0  0
   23.9422  -33.2576   -8.0592 C   0  0  0  0  0  0  0  0  0  0  0  0
   22.8851  -32.7585   -7.5750 O   0  0  0  0  0  0  0  0  0  0  0  0
   25.0744  -33.4497   -7.2141 N   0  0  0  0  0  0  0  0  0  0  0  0
   24.9117  -33.2257   -5.8040 C   0  0  1  0  0  0  0  0  0  0  0  0
   23.8359  -34.1923   -5.2902 C   0  0  0  0  0  0  0  0  0  0  0  0
   23.7636  -34.1290   -3.4707 S   0  0  0  0  0  0  0  0  0  0  0  0
   26.1839  -33.4801   -5.0576 C   0  0  0  0  0  0  0  0  0  0  0  0
   26.7983  -34.5347   -5.3535 O   0  0  0  0  0  0  0  0  0  0  0  0
   26.6983  -32.6102   -4.0705 N   0  0  0  0  0  0  0  0  0  0  0  0
   28.0110  -32.8535   -3.5269 C   0  0  0  0  0  0  0  0  0  0  0  0
   27.9204  -33.7475   -2.3517 C   0  0  0  0  0  0  0  0  0  0  0  0
   26.7991  -34.1503   -1.9817 O   0  0  0  0  0  0  0  0  0  0  0  0
   29.0551  -34.1390   -1.6639 O   0  0  0  0  0  0  0  0  0  0  0  0
  2  3  1  0
  2  1  1  6
  3  4  1  0
  4  5  2  0
  5  6  1  0
  7  6  1  0
  8  4  1  0
  8  7  2  0
  9  2  1  0
 10  9  2  0
 11  9  1  0
 12 13  1  1
 12 11  1  0
 13 14  1  0
 15 17  1  0
 15 12  1  0
 16 15  2  0
 18 17  1  0
 19 18  1  0
 20 19  2  0
 21 19  1  0
M  END
$$$$
