HCG.pdb
     RDKit          3D

 21 21  0  0  1  0  0  0  0  0999 V2000
   21.5708  -12.0202  -16.0954 N   0  0  0  0  0  0  0  0  0  0  0  0
   20.9367  -10.7269  -16.1987 C   0  0  1  0  0  0  0  0  0  0  0  0
   19.5684  -10.8374  -15.5281 C   0  0  0  0  0  0  0  0  0  0  0  0
   18.7278  -11.6820  -16.4091 C   0  0  0  0  0  0  0  0  0  0  0  0
   18.8505  -11.8254  -17.7622 C   0  0  0  0  0  0  0  0  0  0  0  0
   17.8912  -12.6809  -18.1646 N   0  0  0  0  0  0  0  0  0  0  0  0
   17.1925  -13.0574  -17.0886 C   0  0  0  0  0  0  0  0  0  0  0  0
   17.7037  -12.4447  -16.0023 N   0  0  0  0  0  0  0  0  0  0  0  0
   21.7528   -9.7280  -15.4726 C   0  0  0  0  0  0  0  0  0  0  0  0
   22.2050  -10.0311  -14.3304 O   0  0  0  0  0  0  0  0  0  0  0  0
   22.0418   -8.4434  -16.0195 N   0  0  0  0  0  0  0  0  0  0  0  0
   22.9654   -7.5994  -15.3127 C   0  0  1  0  0  0  0  0  0  0  0  0
   24.3247   -7.6847  -16.0205 C   0  0  0  0  0  0  0  0  0  0  0  0
   25.2395   -9.1463  -15.4318 S   0  0  0  0  0  0  0  0  0  0  0  0
   22.5129   -6.1727  -15.3093 C   0  0  0  0  0  0  0  0  0  0  0  0
   22.0054   -5.7501  -16.3775 O   0  0  0  0  0  0  0  0  0  0  0  0
   22.6317   -5.3177  -14.1910 N   0  0  0  0  0  0  0  0  0  0  0  0
   22.1771   -3.9534  -14.2914 C   0  0  0  0  0  0  0  0  0  0  0  0
   20.7404   -3.8664  -13.9497 C   0  0  0  0  0  0  0  0  0  0  0  0
   20.1093   -4.9161  -13.7123 O   0  0  0  0  0  0  0  0  0  0  0  0
   20.0938   -2.6449  -13.8907 O   0  0  0  0  0  0  0  0  0  0  0  0
  2  3  1  0
  2  1  1  1
  3  4  1  0
  4  5  2  0
  5  6  1  0
  7  6  1  0
  8  4  1  0
  8  7  2  0
  9  2  1  0
 10  9  2  0
 11  9  1  0
 12 13  1  6
 12 11  1  0
 13 14  1  0
 15 17  1  0
 15 12  1  0
 16 15  2  0
 18 17  1  0
 19 18  1  0
 20 19  2  0
 21 19  1  0
M  END
$$$$
