HCG.pdb
     RDKit          3D

 21 21  0  0  1  0  0  0  0  0999 V2000
   41.2578  -10.9045   -7.6414 N   0  0  0  0  0  0  0  0  0  0  0  0
   41.5409  -11.4183   -8.9610 C   0  0  1  0  0  0  0  0  0  0  0  0
   41.8906  -10.2243   -9.8477 C   0  0  0  0  0  0  0  0  0  0  0  0
   40.6140   -9.5455  -10.1730 C   0  0  0  0  0  0  0  0  0  0  0  0
   39.4057  -10.1424  -10.3968 C   0  0  0  0  0  0  0  0  0  0  0  0
   38.5164   -9.1650  -10.6577 N   0  0  0  0  0  0  0  0  0  0  0  0
   39.1575   -7.9932  -10.5970 C   0  0  0  0  0  0  0  0  0  0  0  0
   40.4521   -8.2210  -10.2984 N   0  0  0  0  0  0  0  0  0  0  0  0
   42.7083  -12.3254   -8.8873 C   0  0  0  0  0  0  0  0  0  0  0  0
   43.5622  -12.1393   -7.9723 O   0  0  0  0  0  0  0  0  0  0  0  0
   42.8967  -13.3948   -9.8112 N   0  0  0  0  0  0  0  0  0  0  0  0
   44.0270  -14.2617   -9.6213 C   0  0  1  0  0  0  0  0  0  0  0  0
   43.6437  -15.6598  -10.1255 C   0  0  0  0  0  0  0  0  0  0  0  0
   42.6858  -16.5382   -8.8486 S   0  0  0  0  0  0  0  0  0  0  0  0
   45.2203  -13.7836  -10.3880 C   0  0  0  0  0  0  0  0  0  0  0  0
   45.0619  -13.6388  -11.6254 O   0  0  0  0  0  0  0  0  0  0  0  0
   46.4697  -13.5004   -9.7926 N   0  0  0  0  0  0  0  0  0  0  0  0
   47.5745  -13.0940  -10.6246 C   0  0  0  0  0  0  0  0  0  0  0  0
   48.7731  -12.8405   -9.7954 C   0  0  0  0  0  0  0  0  0  0  0  0
   49.2718  -11.6969   -9.7848 O   0  0  0  0  0  0  0  0  0  0  0  0
   49.3428  -13.8481   -9.0379 O   0  0  0  0  0  0  0  0  0  0  0  0
  2  3  1  0
  2  1  1  1
  3  4  1  0
  4  5  2  0
  5  6  1  0
  7  6  1  0
  8  4  1  0
  8  7  2  0
  9  2  1  0
 10  9  2  0
 11  9  1  0
 12 13  1  6
 12 11  1  0
 13 14  1  0
 15 17  1  0
 15 12  1  0
 16 15  2  0
 18 17  1  0
 19 18  1  0
 20 19  2  0
 21 19  1  0
M  END
$$$$
