HCG.pdb
     RDKit          3D

 21 21  0  0  1  0  0  0  0  0999 V2000
   19.1807  -13.3104  -16.5855 N   0  0  0  0  0  0  0  0  0  0  0  0
   19.6270  -12.0895  -17.2144 C   0  0  1  0  0  0  0  0  0  0  0  0
   18.3815  -11.2745  -17.5587 C   0  0  0  0  0  0  0  0  0  0  0  0
   17.7417  -11.9412  -18.7174 C   0  0  0  0  0  0  0  0  0  0  0  0
   16.4014  -12.0938  -18.9339 C   0  0  0  0  0  0  0  0  0  0  0  0
   16.2547  -12.7528  -20.0993 N   0  0  0  0  0  0  0  0  0  0  0  0
   17.4727  -13.0019  -20.5917 C   0  0  0  0  0  0  0  0  0  0  0  0
   18.3944  -12.5037  -19.7438 N   0  0  0  0  0  0  0  0  0  0  0  0
   20.4558  -11.3255  -16.2550 C   0  0  0  0  0  0  0  0  0  0  0  0
   20.1113  -11.3082  -15.0376 O   0  0  0  0  0  0  0  0  0  0  0  0
   21.6227  -10.6137  -16.6605 N   0  0  0  0  0  0  0  0  0  0  0  0
   22.4001   -9.9556  -15.6467 C   0  0  1  0  0  0  0  0  0  0  0  0
   23.8692  -10.3566  -15.8392 C   0  0  0  0  0  0  0  0  0  0  0  0
   24.2103  -11.9080  -14.9468 S   0  0  0  0  0  0  0  0  0  0  0  0
   22.2898   -8.4665  -15.7508 C   0  0  0  0  0  0  0  0  0  0  0  0
   22.5586   -7.9682  -16.8718 O   0  0  0  0  0  0  0  0  0  0  0  0
   21.9090   -7.6339  -14.6749 N   0  0  0  0  0  0  0  0  0  0  0  0
   21.6826   -6.2301  -14.9118 C   0  0  0  0  0  0  0  0  0  0  0  0
   21.9875   -5.4500  -13.6924 C   0  0  0  0  0  0  0  0  0  0  0  0
   22.3409   -6.0536  -12.6593 O   0  0  0  0  0  0  0  0  0  0  0  0
   21.8862   -4.0704  -13.6841 O   0  0  0  0  0  0  0  0  0  0  0  0
  2  3  1  0
  2  1  1  1
  3  4  1  0
  4  5  2  0
  5  6  1  0
  7  6  1  0
  8  4  1  0
  8  7  2  0
  9  2  1  0
 10  9  2  0
 11  9  1  0
 12 13  1  6
 12 11  1  0
 13 14  1  0
 15 17  1  0
 15 12  1  0
 16 15  2  0
 18 17  1  0
 19 18  1  0
 20 19  2  0
 21 19  1  0
M  END
$$$$
