HCG.pdb
     RDKit          3D

 21 21  0  0  1  0  0  0  0  0999 V2000
   27.1949  -21.1316  -14.8887 N   0  0  0  0  0  0  0  0  0  0  0  0
   26.8681  -20.1982  -13.8363 C   0  0  1  0  0  0  0  0  0  0  0  0
   26.0016  -19.1022  -14.4545 C   0  0  0  0  0  0  0  0  0  0  0  0
   26.8745  -18.3356  -15.3746 C   0  0  0  0  0  0  0  0  0  0  0  0
   26.9775  -18.4978  -16.7272 C   0  0  0  0  0  0  0  0  0  0  0  0
   27.8799  -17.6025  -17.1722 N   0  0  0  0  0  0  0  0  0  0  0  0
   28.3243  -16.9039  -16.1223 C   0  0  0  0  0  0  0  0  0  0  0  0
   27.7079  -17.3514  -15.0102 N   0  0  0  0  0  0  0  0  0  0  0  0
   26.0892  -20.8999  -12.7913 C   0  0  0  0  0  0  0  0  0  0  0  0
   25.4197  -21.9221  -13.1197 O   0  0  0  0  0  0  0  0  0  0  0  0
   26.0719  -20.4600  -11.4353 N   0  0  0  0  0  0  0  0  0  0  0  0
   25.2449  -21.1750  -10.5026 C   0  0  1  0  0  0  0  0  0  0  0  0
   25.8289  -20.9731   -9.0976 C   0  0  0  0  0  0  0  0  0  0  0  0
   25.8774  -19.1967   -8.6957 S   0  0  0  0  0  0  0  0  0  0  0  0
   23.8369  -20.6673  -10.5163 C   0  0  0  0  0  0  0  0  0  0  0  0
   23.6483  -19.5733  -11.1034 O   0  0  0  0  0  0  0  0  0  0  0  0
   22.7546  -21.3483   -9.9159 N   0  0  0  0  0  0  0  0  0  0  0  0
   21.4374  -20.7646   -9.9623 C   0  0  0  0  0  0  0  0  0  0  0  0
   20.8050  -21.0325  -11.2725 C   0  0  0  0  0  0  0  0  0  0  0  0
   21.4716  -21.5974  -12.1630 O   0  0  0  0  0  0  0  0  0  0  0  0
   19.4939  -20.6670  -11.5200 O   0  0  0  0  0  0  0  0  0  0  0  0
  2  3  1  0
  2  1  1  6
  3  4  1  0
  4  5  2  0
  5  6  1  0
  7  6  1  0
  8  4  1  0
  8  7  2  0
  9  2  1  0
 10  9  2  0
 11  9  1  0
 12 13  1  1
 12 11  1  0
 13 14  1  0
 15 17  1  0
 15 12  1  0
 16 15  2  0
 18 17  1  0
 19 18  1  0
 20 19  2  0
 21 19  1  0
M  END
$$$$
