VFK.pdb
     RDKit          3D

 28 28  0  0  1  0  0  0  0  0999 V2000
   27.7716  -21.5381  -15.2914 C   0  0  0  0  0  0  0  0  0  0  0  0
   26.3498  -21.8421  -15.7119 C   0  0  2  0  0  0  0  0  0  0  0  0
   26.1966  -21.3028  -17.1246 C   0  0  0  0  0  0  0  0  0  0  0  0
   25.3947  -21.1372  -14.7843 C   0  0  2  0  0  0  0  0  0  0  0  0
   25.3916  -19.7123  -15.0210 N   0  0  0  0  0  0  0  0  0  0  0  0
   25.6801  -21.3937  -13.3623 C   0  0  0  0  0  0  0  0  0  0  0  0
   25.6107  -22.5834  -12.9551 O   0  0  0  0  0  0  0  0  0  0  0  0
   26.0252  -20.4061  -12.4233 N   0  0  0  0  0  0  0  0  0  0  0  0
   26.1347  -20.6471  -10.9848 C   0  0  1  0  0  0  0  0  0  0  0  0
   27.2245  -19.7535  -10.4899 C   0  0  0  0  0  0  0  0  0  0  0  0
   27.4235  -19.8479   -9.0326 C   0  0  0  0  0  0  0  0  0  0  0  0
   26.8212  -18.9824   -8.1211 C   0  0  0  0  0  0  0  0  0  0  0  0
   27.0303  -19.1017   -6.7537 C   0  0  0  0  0  0  0  0  0  0  0  0
   27.8450  -20.0889   -6.2804 C   0  0  0  0  0  0  0  0  0  0  0  0
   28.4427  -20.9467   -7.1755 C   0  0  0  0  0  0  0  0  0  0  0  0
   28.2495  -20.8468   -8.5339 C   0  0  0  0  0  0  0  0  0  0  0  0
   24.8395  -20.4831  -10.3074 C   0  0  0  0  0  0  0  0  0  0  0  0
   24.1607  -19.4420  -10.4998 O   0  0  0  0  0  0  0  0  0  0  0  0
   24.3685  -21.4967   -9.4465 N   0  0  0  0  0  0  0  0  0  0  0  0
   23.0990  -21.3820   -8.7233 C   0  0  1  0  0  0  0  0  0  0  0  0
   22.0164  -22.0688   -9.5256 C   0  0  0  0  0  0  0  0  0  0  0  0
   20.6731  -22.0754   -8.8981 C   0  0  0  0  0  0  0  0  0  0  0  0
   19.6824  -22.8818   -9.7096 C   0  0  0  0  0  0  0  0  0  0  0  0
   18.3189  -22.8632   -9.1039 C   0  0  0  0  0  0  0  0  0  0  0  0
   17.3410  -23.5168   -9.9575 N   0  0  0  0  0  0  0  0  0  0  0  0
   23.2312  -21.8675   -7.3414 C   0  0  0  0  0  0  0  0  0  0  0  0
   24.1440  -22.6148   -6.9258 O   0  0  0  0  0  0  0  0  0  0  0  0
   22.2859  -21.4959   -6.3616 O   0  0  0  0  0  0  0  0  0  0  0  0
  2  1  1  1
  3  2  1  0
  4  2  1  0
  4  5  1  1
  6  7  2  0
  6  4  1  0
  8  6  1  0
  9  8  1  0
  9 10  1  1
 10 11  1  0
 11 16  2  0
 11 12  1  0
 12 13  2  0
 13 14  1  0
 15 14  2  0
 16 15  1  0
 17  9  1  0
 18 17  2  0
 19 17  1  0
 20 21  1  6
 20 19  1  0
 21 22  1  0
 22 23  1  0
 23 24  1  0
 25 24  1  0
 26 28  1  0
 26 20  1  0
 27 26  2  0
M  END
$$$$
