VFK.pdb
     RDKit          3D

 28 28  0  0  1  0  0  0  0  0999 V2000
   20.7302   -9.4280  -20.6316 C   0  0  0  0  0  0  0  0  0  0  0  0
   22.1957   -9.0513  -20.5988 C   0  0  2  0  0  0  0  0  0  0  0  0
   22.8524   -9.7848  -21.7567 C   0  0  0  0  0  0  0  0  0  0  0  0
   22.7971   -9.5039  -19.2939 C   0  0  2  0  0  0  0  0  0  0  0  0
   22.7423  -10.9414  -19.1637 N   0  0  0  0  0  0  0  0  0  0  0  0
   22.1575   -8.8842  -18.1207 C   0  0  0  0  0  0  0  0  0  0  0  0
   21.1986   -9.4981  -17.5825 O   0  0  0  0  0  0  0  0  0  0  0  0
   22.5392   -7.6549  -17.5557 N   0  0  0  0  0  0  0  0  0  0  0  0
   21.8771   -7.0427  -16.4041 C   0  0  1  0  0  0  0  0  0  0  0  0
   22.9406   -6.8108  -15.3812 C   0  0  0  0  0  0  0  0  0  0  0  0
   23.4580   -8.0628  -14.8008 C   0  0  0  0  0  0  0  0  0  0  0  0
   22.8318   -8.7357  -13.7531 C   0  0  0  0  0  0  0  0  0  0  0  0
   23.3472   -9.9148  -13.2314 C   0  0  0  0  0  0  0  0  0  0  0  0
   24.4962  -10.4358  -13.7514 C   0  0  0  0  0  0  0  0  0  0  0  0
   25.1193   -9.7760  -14.7862 C   0  0  0  0  0  0  0  0  0  0  0  0
   24.6263   -8.6070  -15.3182 C   0  0  0  0  0  0  0  0  0  0  0  0
   21.1134   -5.8465  -16.7903 C   0  0  0  0  0  0  0  0  0  0  0  0
   21.3435   -5.2869  -17.8928 O   0  0  0  0  0  0  0  0  0  0  0  0
   20.1275   -5.3363  -15.9197 N   0  0  0  0  0  0  0  0  0  0  0  0
   19.1409   -4.3421  -16.3510 C   0  0  1  0  0  0  0  0  0  0  0  0
   18.4352   -4.8585  -17.5850 C   0  0  0  0  0  0  0  0  0  0  0  0
   17.4077   -3.9517  -18.1509 C   0  0  0  0  0  0  0  0  0  0  0  0
   16.7108   -4.5728  -19.3421 C   0  0  0  0  0  0  0  0  0  0  0  0
   15.7206   -3.6415  -19.9572 C   0  0  0  0  0  0  0  0  0  0  0  0
   14.9790   -4.2773  -21.0334 N   0  0  0  0  0  0  0  0  0  0  0  0
   18.2422   -3.9744  -15.2466 C   0  0  0  0  0  0  0  0  0  0  0  0
   17.7192   -4.7806  -14.4459 O   0  0  0  0  0  0  0  0  0  0  0  0
   17.9057   -2.6226  -15.0211 O   0  0  0  0  0  0  0  0  0  0  0  0
  2  1  1  1
  3  2  1  0
  4  2  1  0
  4  5  1  1
  6  7  2  0
  6  4  1  0
  8  6  1  0
  9  8  1  0
  9 10  1  1
 10 11  1  0
 11 16  2  0
 11 12  1  0
 12 13  2  0
 13 14  1  0
 15 14  2  0
 16 15  1  0
 17  9  1  0
 18 17  2  0
 19 17  1  0
 20 21  1  6
 20 19  1  0
 21 22  1  0
 22 23  1  0
 23 24  1  0
 25 24  1  0
 26 28  1  0
 26 20  1  0
 27 26  2  0
M  END
$$$$
