VFK.pdb
     RDKit          3D

 28 28  0  0  1  0  0  0  0  0999 V2000
   12.2584  -21.2251    3.0441 C   0  0  0  0  0  0  0  0  0  0  0  0
   12.8084  -20.4187    1.8875 C   0  0  2  0  0  0  0  0  0  0  0  0
   11.6971  -20.3396    0.8538 C   0  0  0  0  0  0  0  0  0  0  0  0
   14.0026  -21.1306    1.3074 C   0  0  2  0  0  0  0  0  0  0  0  0
   13.6263  -22.4026    0.7358 N   0  0  0  0  0  0  0  0  0  0  0  0
   15.0807  -21.3383    2.2893 C   0  0  0  0  0  0  0  0  0  0  0  0
   15.2192  -22.4927    2.7733 O   0  0  0  0  0  0  0  0  0  0  0  0
   15.9690  -20.3407    2.7272 N   0  0  0  0  0  0  0  0  0  0  0  0
   16.9816  -20.5437    3.7630 C   0  0  1  0  0  0  0  0  0  0  0  0
   18.3065  -20.4653    3.0777 C   0  0  0  0  0  0  0  0  0  0  0  0
   19.4404  -20.5271    4.0171 C   0  0  0  0  0  0  0  0  0  0  0  0
   19.8454  -21.7009    4.6503 C   0  0  0  0  0  0  0  0  0  0  0  0
   20.9200  -21.7226    5.5293 C   0  0  0  0  0  0  0  0  0  0  0  0
   21.6034  -20.5696    5.7863 C   0  0  0  0  0  0  0  0  0  0  0  0
   21.2083  -19.4073    5.1641 C   0  0  0  0  0  0  0  0  0  0  0  0
   20.1468  -19.3630    4.2900 C   0  0  0  0  0  0  0  0  0  0  0  0
   16.8048  -19.6091    4.8848 C   0  0  0  0  0  0  0  0  0  0  0  0
   16.7711  -18.3709    4.6676 O   0  0  0  0  0  0  0  0  0  0  0  0
   16.6740  -20.1102    6.1971 N   0  0  0  0  0  0  0  0  0  0  0  0
   16.5908  -19.2304    7.3663 C   0  0  1  0  0  0  0  0  0  0  0  0
   16.0195  -20.0140    8.5269 C   0  0  0  0  0  0  0  0  0  0  0  0
   14.6533  -19.6176    8.9450 C   0  0  0  0  0  0  0  0  0  0  0  0
   14.1456  -20.4794   10.0808 C   0  0  0  0  0  0  0  0  0  0  0  0
   12.7300  -20.1638   10.4308 C   0  0  0  0  0  0  0  0  0  0  0  0
   12.2039  -21.0810   11.4279 N   0  0  0  0  0  0  0  0  0  0  0  0
   17.8872  -18.5936    7.6430 C   0  0  0  0  0  0  0  0  0  0  0  0
   18.9840  -19.1916    7.7034 O   0  0  0  0  0  0  0  0  0  0  0  0
   17.9649  -17.2023    7.8663 O   0  0  0  0  0  0  0  0  0  0  0  0
  2  1  1  1
  3  2  1  0
  4  2  1  0
  4  5  1  1
  6  7  2  0
  6  4  1  0
  8  6  1  0
  9  8  1  0
  9 10  1  6
 10 11  1  0
 11 16  2  0
 11 12  1  0
 12 13  2  0
 13 14  1  0
 15 14  2  0
 16 15  1  0
 17  9  1  0
 18 17  2  0
 19 17  1  0
 20 21  1  1
 20 19  1  0
 21 22  1  0
 22 23  1  0
 23 24  1  0
 25 24  1  0
 26 28  1  0
 26 20  1  0
 27 26  2  0
M  END
$$$$
