VFK.pdb
     RDKit          3D

 28 28  0  0  1  0  0  0  0  0999 V2000
   24.6212  -22.5920  -18.0802 C   0  0  0  0  0  0  0  0  0  0  0  0
   24.3846  -22.6311  -16.5859 C   0  0  2  0  0  0  0  0  0  0  0  0
   23.7036  -21.3210  -16.2257 C   0  0  0  0  0  0  0  0  0  0  0  0
   25.7085  -22.7368  -15.8748 C   0  0  2  0  0  0  0  0  0  0  0  0
   26.3834  -23.9699  -16.2067 N   0  0  0  0  0  0  0  0  0  0  0  0
   25.5848  -22.6285  -14.4110 C   0  0  0  0  0  0  0  0  0  0  0  0
   25.0685  -23.5965  -13.7926 O   0  0  0  0  0  0  0  0  0  0  0  0
   26.0016  -21.5217  -13.6512 N   0  0  0  0  0  0  0  0  0  0  0  0
   25.8010  -21.3976  -12.2077 C   0  0  1  0  0  0  0  0  0  0  0  0
   26.9063  -20.5295  -11.7021 C   0  0  0  0  0  0  0  0  0  0  0  0
   26.8729  -20.3560  -10.2389 C   0  0  0  0  0  0  0  0  0  0  0  0
   27.6418  -21.1180   -9.3609 C   0  0  0  0  0  0  0  0  0  0  0  0
   27.5861  -20.9262   -7.9869 C   0  0  0  0  0  0  0  0  0  0  0  0
   26.7598  -19.9692   -7.4734 C   0  0  0  0  0  0  0  0  0  0  0  0
   25.9980  -19.2134   -8.3352 C   0  0  0  0  0  0  0  0  0  0  0  0
   26.0376  -19.3865   -9.6994 C   0  0  0  0  0  0  0  0  0  0  0  0
   24.4444  -20.9281  -11.8873 C   0  0  0  0  0  0  0  0  0  0  0  0
   23.9146  -20.0250  -12.5838 O   0  0  0  0  0  0  0  0  0  0  0  0
   23.7479  -21.4957  -10.7996 N   0  0  0  0  0  0  0  0  0  0  0  0
   22.3129  -21.2820  -10.5917 C   0  0  1  0  0  0  0  0  0  0  0  0
   21.8214  -22.2556   -9.5439 C   0  0  0  0  0  0  0  0  0  0  0  0
   20.3547  -22.2622   -9.3265 C   0  0  0  0  0  0  0  0  0  0  0  0
   19.9424  -23.3305   -8.3369 C   0  0  0  0  0  0  0  0  0  0  0  0
   18.4592  -23.4649   -8.2468 C   0  0  0  0  0  0  0  0  0  0  0  0
   18.0696  -24.5928   -7.4172 N   0  0  0  0  0  0  0  0  0  0  0  0
   22.0257  -19.8711  -10.2921 C   0  0  0  0  0  0  0  0  0  0  0  0
   22.7242  -19.1343   -9.5615 O   0  0  0  0  0  0  0  0  0  0  0  0
   20.8880  -19.2427  -10.8419 O   0  0  0  0  0  0  0  0  0  0  0  0
  2  1  1  6
  3  2  1  0
  4  2  1  0
  4  5  1  1
  6  7  2  0
  6  4  1  0
  8  6  1  0
  9  8  1  0
  9 10  1  6
 10 11  1  0
 11 16  2  0
 11 12  1  0
 12 13  2  0
 13 14  1  0
 15 14  2  0
 16 15  1  0
 17  9  1  0
 18 17  2  0
 19 17  1  0
 20 21  1  1
 20 19  1  0
 21 22  1  0
 22 23  1  0
 23 24  1  0
 25 24  1  0
 26 28  1  0
 26 20  1  0
 27 26  2  0
M  END
$$$$
