VFK.pdb
     RDKit          3D

 28 28  0  0  1  0  0  0  0  0999 V2000
   17.6274  -29.9091   -2.7511 C   0  0  0  0  0  0  0  0  0  0  0  0
   16.9122  -30.9272   -1.8892 C   0  0  2  0  0  0  0  0  0  0  0  0
   16.4395  -32.0257   -2.8272 C   0  0  0  0  0  0  0  0  0  0  0  0
   15.7296  -30.2731   -1.2236 C   0  0  2  0  0  0  0  0  0  0  0  0
   14.8547  -29.6609   -2.1962 N   0  0  0  0  0  0  0  0  0  0  0  0
   16.1186  -29.2690   -0.2187 C   0  0  0  0  0  0  0  0  0  0  0  0
   16.8173  -29.6541    0.7558 O   0  0  0  0  0  0  0  0  0  0  0  0
   15.7668  -27.9088   -0.2669 N   0  0  0  0  0  0  0  0  0  0  0  0
   16.1808  -26.9206    0.7289 C   0  0  1  0  0  0  0  0  0  0  0  0
   16.8406  -25.8133   -0.0259 C   0  0  0  0  0  0  0  0  0  0  0  0
   18.2683  -26.0704   -0.2859 C   0  0  0  0  0  0  0  0  0  0  0  0
   19.2784  -25.7641    0.6244 C   0  0  0  0  0  0  0  0  0  0  0  0
   20.6142  -26.0216    0.3465 C   0  0  0  0  0  0  0  0  0  0  0  0
   20.9566  -26.5892   -0.8464 C   0  0  0  0  0  0  0  0  0  0  0  0
   19.9638  -26.8940   -1.7495 C   0  0  0  0  0  0  0  0  0  0  0  0
   18.6345  -26.6476   -1.4948 C   0  0  0  0  0  0  0  0  0  0  0  0
   15.0568  -26.5082    1.5832 C   0  0  0  0  0  0  0  0  0  0  0  0
   13.9102  -26.3716    1.0853 O   0  0  0  0  0  0  0  0  0  0  0  0
   15.2748  -26.2691    2.9565 N   0  0  0  0  0  0  0  0  0  0  0  0
   14.2013  -25.8368    3.8558 C   0  0  1  0  0  0  0  0  0  0  0  0
   14.7479  -25.7540    5.2636 C   0  0  0  0  0  0  0  0  0  0  0  0
   13.7516  -25.4186    6.3092 C   0  0  0  0  0  0  0  0  0  0  0  0
   14.3633  -25.4499    7.6930 C   0  0  0  0  0  0  0  0  0  0  0  0
   13.3675  -25.1109    8.7510 C   0  0  0  0  0  0  0  0  0  0  0  0
   13.9887  -24.9995   10.0602 N   0  0  0  0  0  0  0  0  0  0  0  0
   13.5740  -24.5970    3.3739 C   0  0  0  0  0  0  0  0  0  0  0  0
   14.1923  -23.5958    2.9499 O   0  0  0  0  0  0  0  0  0  0  0  0
   12.1690  -24.4659    3.3644 O   0  0  0  0  0  0  0  0  0  0  0  0
  2  1  1  6
  3  2  1  0
  4  2  1  0
  4  5  1  6
  6  7  2  0
  6  4  1  0
  8  6  1  0
  9  8  1  0
  9 10  1  6
 10 11  1  0
 11 16  2  0
 11 12  1  0
 12 13  2  0
 13 14  1  0
 15 14  2  0
 16 15  1  0
 17  9  1  0
 18 17  2  0
 19 17  1  0
 20 21  1  1
 20 19  1  0
 21 22  1  0
 22 23  1  0
 23 24  1  0
 25 24  1  0
 26 28  1  0
 26 20  1  0
 27 26  2  0
M  END
$$$$
