VFK.pdb
     RDKit          3D

 28 28  0  0  1  0  0  0  0  0999 V2000
   14.3248  -10.8093  -13.2669 C   0  0  0  0  0  0  0  0  0  0  0  0
   15.1567  -10.4299  -14.4730 C   0  0  2  0  0  0  0  0  0  0  0  0
   14.7775  -11.4023  -15.5778 C   0  0  0  0  0  0  0  0  0  0  0  0
   16.6177  -10.5761  -14.1362 C   0  0  2  0  0  0  0  0  0  0  0  0
   16.9149  -11.9090  -13.6657 N   0  0  0  0  0  0  0  0  0  0  0  0
   17.0788   -9.5942  -13.1398 C   0  0  0  0  0  0  0  0  0  0  0  0
   17.0411   -9.9280  -11.9260 O   0  0  0  0  0  0  0  0  0  0  0  0
   17.5592   -8.3087  -13.4442 N   0  0  0  0  0  0  0  0  0  0  0  0
   18.0199   -7.3485  -12.4416 C   0  0  1  0  0  0  0  0  0  0  0  0
   19.3175   -6.8052  -12.9439 C   0  0  0  0  0  0  0  0  0  0  0  0
   20.4178   -7.7820  -12.8573 C   0  0  0  0  0  0  0  0  0  0  0  0
   21.0487   -8.1186  -11.6610 C   0  0  0  0  0  0  0  0  0  0  0  0
   22.0821   -9.0450  -11.6163 C   0  0  0  0  0  0  0  0  0  0  0  0
   22.4977   -9.6465  -12.7686 C   0  0  0  0  0  0  0  0  0  0  0  0
   21.8786   -9.3182  -13.9532 C   0  0  0  0  0  0  0  0  0  0  0  0
   20.8531   -8.4036  -14.0204 C   0  0  0  0  0  0  0  0  0  0  0  0
   16.9935   -6.3369  -12.1478 C   0  0  0  0  0  0  0  0  0  0  0  0
   16.3179   -5.8410  -13.0854 O   0  0  0  0  0  0  0  0  0  0  0  0
   16.7749   -5.9308  -10.8145 N   0  0  0  0  0  0  0  0  0  0  0  0
   15.6903   -5.0183  -10.4419 C   0  0  1  0  0  0  0  0  0  0  0  0
   15.2306   -5.3530   -9.0405 C   0  0  0  0  0  0  0  0  0  0  0  0
   14.1057   -4.5320   -8.5318 C   0  0  0  0  0  0  0  0  0  0  0  0
   13.7549   -4.8902   -7.1038 C   0  0  0  0  0  0  0  0  0  0  0  0
   12.5118   -4.2039   -6.6458 C   0  0  0  0  0  0  0  0  0  0  0  0
   12.1654   -4.5694   -5.2824 N   0  0  0  0  0  0  0  0  0  0  0  0
   16.0899   -3.6157  -10.6312 C   0  0  0  0  0  0  0  0  0  0  0  0
   17.2563   -3.1786  -10.5178 O   0  0  0  0  0  0  0  0  0  0  0  0
   15.1282   -2.6395  -10.9682 O   0  0  0  0  0  0  0  0  0  0  0  0
  2  1  1  1
  3  2  1  0
  4  2  1  0
  4  5  1  1
  6  7  2  0
  6  4  1  0
  8  6  1  0
  9  8  1  0
  9 10  1  6
 10 11  1  0
 11 16  2  0
 11 12  1  0
 12 13  2  0
 13 14  1  0
 15 14  2  0
 16 15  1  0
 17  9  1  0
 18 17  2  0
 19 17  1  0
 20 21  1  1
 20 19  1  0
 21 22  1  0
 22 23  1  0
 23 24  1  0
 25 24  1  0
 26 28  1  0
 26 20  1  0
 27 26  2  0
M  END
$$$$
