VFK.pdb
     RDKit          3D

 28 28  0  0  1  0  0  0  0  0999 V2000
   21.6436  -11.9414  -17.4598 C   0  0  0  0  0  0  0  0  0  0  0  0
   20.3490  -11.3619  -16.9317 C   0  0  2  0  0  0  0  0  0  0  0  0
   19.2429  -12.2988  -17.3883 C   0  0  0  0  0  0  0  0  0  0  0  0
   20.1400   -9.9913  -17.5210 C   0  0  2  0  0  0  0  0  0  0  0  0
   21.1364   -9.6959  -18.5242 N   0  0  0  0  0  0  0  0  0  0  0  0
   20.1395   -8.9235  -16.5064 C   0  0  0  0  0  0  0  0  0  0  0  0
   19.2920   -8.9969  -15.5777 O   0  0  0  0  0  0  0  0  0  0  0  0
   21.0174   -7.8257  -16.4978 N   0  0  0  0  0  0  0  0  0  0  0  0
   20.9832   -6.7581  -15.4985 C   0  0  1  0  0  0  0  0  0  0  0  0
   22.2712   -6.8433  -14.7471 C   0  0  0  0  0  0  0  0  0  0  0  0
   22.2479   -7.8673  -13.6873 C   0  0  0  0  0  0  0  0  0  0  0  0
   21.5992   -7.6896  -12.4666 C   0  0  0  0  0  0  0  0  0  0  0  0
   21.5966   -8.6773  -11.4908 C   0  0  0  0  0  0  0  0  0  0  0  0
   22.2435   -9.8561  -11.7239 C   0  0  0  0  0  0  0  0  0  0  0  0
   22.8860  -10.0377  -12.9274 C   0  0  0  0  0  0  0  0  0  0  0  0
   22.9012   -9.0729  -13.9080 C   0  0  0  0  0  0  0  0  0  0  0  0
   20.7055   -5.4503  -16.1116 C   0  0  0  0  0  0  0  0  0  0  0  0
   21.4711   -5.0025  -17.0031 O   0  0  0  0  0  0  0  0  0  0  0  0
   19.5807   -4.7081  -15.6940 N   0  0  0  0  0  0  0  0  0  0  0  0
   19.2202   -3.4243  -16.3021 C   0  0  1  0  0  0  0  0  0  0  0  0
   17.7134   -3.2933  -16.3082 C   0  0  0  0  0  0  0  0  0  0  0  0
   17.0217   -4.0087  -17.4074 C   0  0  0  0  0  0  0  0  0  0  0  0
   15.8890   -4.8673  -16.8879 C   0  0  0  0  0  0  0  0  0  0  0  0
   15.2886   -5.7092  -17.9635 C   0  0  0  0  0  0  0  0  0  0  0  0
   14.2216   -6.5544  -17.4541 N   0  0  0  0  0  0  0  0  0  0  0  0
   19.9239   -2.3118  -15.6464 C   0  0  0  0  0  0  0  0  0  0  0  0
   19.4056   -1.5083  -14.8401 O   0  0  0  0  0  0  0  0  0  0  0  0
   21.2916   -2.0811  -15.9066 O   0  0  0  0  0  0  0  0  0  0  0  0
  2  1  1  6
  3  2  1  0
  4  2  1  0
  4  5  1  6
  6  7  2  0
  6  4  1  0
  8  6  1  0
  9  8  1  0
  9 10  1  6
 10 11  1  0
 11 16  2  0
 11 12  1  0
 12 13  2  0
 13 14  1  0
 15 14  2  0
 16 15  1  0
 17  9  1  0
 18 17  2  0
 19 17  1  0
 20 21  1  1
 20 19  1  0
 21 22  1  0
 22 23  1  0
 23 24  1  0
 25 24  1  0
 26 28  1  0
 26 20  1  0
 27 26  2  0
M  END
$$$$
