YHD.pdb
     RDKit          3D

 31 32  0  0  1  0  0  0  0  0999 V2000
   40.9484  -37.2551  -17.3630 O   0  0  0  0  0  0  0  0  0  0  0  0
   39.7825  -36.4983  -17.3710 C   0  0  0  0  0  0  0  0  0  0  0  0
   39.6889  -35.3963  -18.1967 C   0  0  0  0  0  0  0  0  0  0  0  0
   38.5511  -34.6277  -18.2285 C   0  0  0  0  0  0  0  0  0  0  0  0
   37.4521  -34.9340  -17.4280 C   0  0  0  0  0  0  0  0  0  0  0  0
   36.2132  -34.1525  -17.4186 C   0  0  0  0  0  0  0  0  0  0  0  0
   36.3133  -32.9451  -16.5159 C   0  0  2  0  0  0  0  0  0  0  0  0
   36.3172  -33.3690  -15.1510 N   0  0  0  0  0  0  0  0  0  0  0  0
   35.1192  -32.0674  -16.8141 C   0  0  0  0  0  0  0  0  0  0  0  0
   34.0430  -32.2392  -16.1904 O   0  0  0  0  0  0  0  0  0  0  0  0
   37.5656  -36.0318  -16.6158 C   0  0  0  0  0  0  0  0  0  0  0  0
   38.6994  -36.8092  -16.5751 C   0  0  0  0  0  0  0  0  0  0  0  0
   35.1929  -31.0480  -17.7909 N   0  0  0  0  0  0  0  0  0  0  0  0
   34.0390  -30.1456  -18.0701 C   0  0  1  0  0  0  0  0  0  0  0  0
   34.5178  -29.0220  -18.9365 C   0  0  0  0  0  0  0  0  0  0  0  0
   33.4778  -28.0969  -19.3367 C   0  0  0  0  0  0  0  0  0  0  0  0
   32.1529  -28.1132  -18.9787 C   0  0  0  0  0  0  0  0  0  0  0  0
   31.5217  -27.1293  -19.6000 N   0  0  0  0  0  0  0  0  0  0  0  0
   32.4286  -26.4855  -20.3505 C   0  0  0  0  0  0  0  0  0  0  0  0
   33.6192  -27.0690  -20.1947 N   0  0  0  0  0  0  0  0  0  0  0  0
   32.9039  -30.9314  -18.5500 C   0  0  0  0  0  0  0  0  0  0  0  0
   33.0998  -31.7668  -19.4927 O   0  0  0  0  0  0  0  0  0  0  0  0
   31.5801  -30.8540  -18.0452 N   0  0  0  0  0  0  0  0  0  0  0  0
   30.5099  -31.7007  -18.5432 C   0  0  1  0  0  0  0  0  0  0  0  0
   29.5138  -32.0414  -17.4712 C   0  0  0  0  0  0  0  0  0  0  0  0
   28.5708  -30.9485  -17.1708 C   0  0  0  0  0  0  0  0  0  0  0  0
   28.6025  -29.8774  -17.8171 O   0  0  0  0  0  0  0  0  0  0  0  0
   29.8614  -31.2093  -19.7691 C   0  0  0  0  0  0  0  0  0  0  0  0
   29.9854  -30.0797  -20.2856 O   0  0  0  0  0  0  0  0  0  0  0  0
   27.6113  -31.0431  -16.1720 O   0  0  0  0  0  0  0  0  0  0  0  0
   28.9954  -32.0749  -20.4727 O   0  0  0  0  0  0  0  0  0  0  0  0
  2 12  2  0
  2  1  1  0
  3  2  1  0
  4  5  1  0
  4  3  2  0
  5 11  2  0
  6  5  1  0
  6  7  1  0
  7  9  1  0
  7  8  1  1
  9 13  1  0
 10  9  2  0
 11 12  1  0
 13 14  1  0
 14 15  1  6
 15 16  1  0
 16 17  2  0
 18 17  1  0
 19 18  1  0
 20 19  2  0
 20 16  1  0
 21 22  2  0
 21 14  1  0
 23 21  1  0
 24 23  1  0
 24 28  1  0
 24 25  1  1
 26 25  1  0
 26 27  2  0
 28 31  1  0
 29 28  2  0
 30 26  1  0
M  END
$$$$
