YHD.pdb
     RDKit          3D

 31 32  0  0  1  0  0  0  0  0999 V2000
   18.5730  -16.1935  -19.2469 O   0  0  0  0  0  0  0  0  0  0  0  0
   18.0135  -15.9722  -17.9939 C   0  0  0  0  0  0  0  0  0  0  0  0
   18.6565  -16.4408  -16.8661 C   0  0  0  0  0  0  0  0  0  0  0  0
   18.1305  -16.2389  -15.6135 C   0  0  0  0  0  0  0  0  0  0  0  0
   16.9294  -15.5539  -15.4384 C   0  0  0  0  0  0  0  0  0  0  0  0
   16.3200  -15.3082  -14.1291 C   0  0  0  0  0  0  0  0  0  0  0  0
   16.3972  -13.8519  -13.7340 C   0  0  2  0  0  0  0  0  0  0  0  0
   17.7532  -13.5083  -13.4412 N   0  0  0  0  0  0  0  0  0  0  0  0
   15.5122  -13.6732  -12.5217 C   0  0  0  0  0  0  0  0  0  0  0  0
   15.8589  -14.1550  -11.4153 O   0  0  0  0  0  0  0  0  0  0  0  0
   16.3073  -15.0971  -16.5706 C   0  0  0  0  0  0  0  0  0  0  0  0
   16.8240  -15.2930  -17.8301 C   0  0  0  0  0  0  0  0  0  0  0  0
   14.2907  -12.9671  -12.6119 N   0  0  0  0  0  0  0  0  0  0  0  0
   13.4064  -12.7767  -11.4263 C   0  0  1  0  0  0  0  0  0  0  0  0
   12.8217  -11.3996  -11.4902 C   0  0  0  0  0  0  0  0  0  0  0  0
   13.7269  -10.3506  -11.0687 C   0  0  0  0  0  0  0  0  0  0  0  0
   14.9592  -10.4880  -10.4800 C   0  0  0  0  0  0  0  0  0  0  0  0
   15.4432   -9.2886  -10.1979 N   0  0  0  0  0  0  0  0  0  0  0  0
   14.5339   -8.3875  -10.5996 C   0  0  0  0  0  0  0  0  0  0  0  0
   13.4887   -9.0269  -11.1295 N   0  0  0  0  0  0  0  0  0  0  0  0
   12.4775  -13.9000  -11.3191 C   0  0  0  0  0  0  0  0  0  0  0  0
   12.4173  -14.7314  -12.2835 O   0  0  0  0  0  0  0  0  0  0  0  0
   11.6274  -14.1595  -10.2131 N   0  0  0  0  0  0  0  0  0  0  0  0
   10.7631  -15.3256  -10.1565 C   0  0  1  0  0  0  0  0  0  0  0  0
   11.5183  -16.6010  -10.4025 C   0  0  0  0  0  0  0  0  0  0  0  0
   10.6807  -17.8112  -10.3141 C   0  0  0  0  0  0  0  0  0  0  0  0
   10.6606  -18.5032   -9.2717 O   0  0  0  0  0  0  0  0  0  0  0  0
    9.9179  -15.4027   -8.9546 C   0  0  0  0  0  0  0  0  0  0  0  0
    9.0735  -16.2810   -8.6830 O   0  0  0  0  0  0  0  0  0  0  0  0
    9.8810  -18.2445  -11.3629 O   0  0  0  0  0  0  0  0  0  0  0  0
   10.0403  -14.3950   -7.9729 O   0  0  0  0  0  0  0  0  0  0  0  0
  2 12  2  0
  2  1  1  0
  3  2  1  0
  4  5  1  0
  4  3  2  0
  5 11  2  0
  6  5  1  0
  6  7  1  0
  7  9  1  0
  7  8  1  1
  9 13  1  0
 10  9  2  0
 11 12  1  0
 13 14  1  0
 14 15  1  6
 15 16  1  0
 16 17  2  0
 18 17  1  0
 19 18  1  0
 20 19  2  0
 20 16  1  0
 21 22  2  0
 21 14  1  0
 23 21  1  0
 24 23  1  0
 24 28  1  0
 24 25  1  1
 26 25  1  0
 26 27  2  0
 28 31  1  0
 29 28  2  0
 30 26  1  0
M  END
$$$$
