YHD.pdb
     RDKit          3D

 31 32  0  0  1  0  0  0  0  0999 V2000
   17.4894  -12.2248  -23.0986 O   0  0  0  0  0  0  0  0  0  0  0  0
   18.0071  -11.5160  -22.0208 C   0  0  0  0  0  0  0  0  0  0  0  0
   17.3672  -11.5669  -20.7990 C   0  0  0  0  0  0  0  0  0  0  0  0
   17.8526  -10.8783  -19.7142 C   0  0  0  0  0  0  0  0  0  0  0  0
   19.0079  -10.1046  -19.8101 C   0  0  0  0  0  0  0  0  0  0  0  0
   19.5727   -9.3491  -18.6894 C   0  0  0  0  0  0  0  0  0  0  0  0
   20.8491   -9.9718  -18.1740 C   0  0  2  0  0  0  0  0  0  0  0  0
   20.5589  -11.2471  -17.5977 N   0  0  0  0  0  0  0  0  0  0  0  0
   21.4225   -9.0234  -17.1460 C   0  0  0  0  0  0  0  0  0  0  0  0
   21.0495   -9.0951  -15.9492 O   0  0  0  0  0  0  0  0  0  0  0  0
   19.6277  -10.0677  -21.0316 C   0  0  0  0  0  0  0  0  0  0  0  0
   19.1514  -10.7527  -22.1250 C   0  0  0  0  0  0  0  0  0  0  0  0
   22.3793   -8.0487  -17.5110 N   0  0  0  0  0  0  0  0  0  0  0  0
   23.0281   -7.1692  -16.4964 C   0  0  1  0  0  0  0  0  0  0  0  0
   24.5061   -7.4047  -16.5441 C   0  0  0  0  0  0  0  0  0  0  0  0
   24.9133   -8.7151  -16.0809 C   0  0  0  0  0  0  0  0  0  0  0  0
   24.1182   -9.7163  -15.5817 C   0  0  0  0  0  0  0  0  0  0  0  0
   24.8795  -10.7365  -15.2180 N   0  0  0  0  0  0  0  0  0  0  0  0
   26.1511  -10.3976  -15.4791 C   0  0  0  0  0  0  0  0  0  0  0  0
   26.1780   -9.1702  -16.0035 N   0  0  0  0  0  0  0  0  0  0  0  0
   22.5578   -5.7954  -16.6624 C   0  0  0  0  0  0  0  0  0  0  0  0
   22.4888   -5.3163  -17.8417 O   0  0  0  0  0  0  0  0  0  0  0  0
   22.1540   -4.9333  -15.6104 N   0  0  0  0  0  0  0  0  0  0  0  0
   21.6367   -3.5985  -15.8573 C   0  0  1  0  0  0  0  0  0  0  0  0
   20.7090   -3.1416  -14.7673 C   0  0  0  0  0  0  0  0  0  0  0  0
   20.0395   -1.8605  -15.0583 C   0  0  0  0  0  0  0  0  0  0  0  0
   20.1576   -1.3144  -16.1780 O   0  0  0  0  0  0  0  0  0  0  0  0
   22.6638   -2.5929  -16.1712 C   0  0  0  0  0  0  0  0  0  0  0  0
   23.8083   -2.5070  -15.6804 O   0  0  0  0  0  0  0  0  0  0  0  0
   19.2543   -1.1988  -14.1241 O   0  0  0  0  0  0  0  0  0  0  0  0
   22.3680   -1.5956  -17.1263 O   0  0  0  0  0  0  0  0  0  0  0  0
  2 12  2  0
  2  1  1  0
  3  2  1  0
  4  5  1  0
  4  3  2  0
  5 11  2  0
  6  5  1  0
  6  7  1  0
  7  9  1  0
  7  8  1  1
  9 13  1  0
 10  9  2  0
 11 12  1  0
 13 14  1  0
 14 15  1  6
 15 16  1  0
 16 17  2  0
 18 17  1  0
 19 18  1  0
 20 19  2  0
 20 16  1  0
 21 22  2  0
 21 14  1  0
 23 21  1  0
 24 23  1  0
 24 28  1  0
 24 25  1  1
 26 25  1  0
 26 27  2  0
 28 31  1  0
 29 28  2  0
 30 26  1  0
M  END
$$$$
