YHD.pdb
     RDKit          3D

 31 32  0  0  1  0  0  0  0  0999 V2000
   21.4774  -10.8342  -19.1450 O   0  0  0  0  0  0  0  0  0  0  0  0
   21.4761  -12.1381  -18.6634 C   0  0  0  0  0  0  0  0  0  0  0  0
   22.5520  -12.5970  -17.9308 C   0  0  0  0  0  0  0  0  0  0  0  0
   22.5819  -13.8796  -17.4407 C   0  0  0  0  0  0  0  0  0  0  0  0
   21.5268  -14.7619  -17.6662 C   0  0  0  0  0  0  0  0  0  0  0  0
   21.5020  -16.1397  -17.1695 C   0  0  0  0  0  0  0  0  0  0  0  0
   22.5989  -16.9805  -17.7799 C   0  0  2  0  0  0  0  0  0  0  0  0
   22.3753  -17.1088  -19.1857 N   0  0  0  0  0  0  0  0  0  0  0  0
   22.5606  -18.3268  -17.0936 C   0  0  0  0  0  0  0  0  0  0  0  0
   21.7694  -19.2144  -17.4969 O   0  0  0  0  0  0  0  0  0  0  0  0
   20.4686  -14.2866  -18.3956 C   0  0  0  0  0  0  0  0  0  0  0  0
   20.4271  -13.0044  -18.8916 C   0  0  0  0  0  0  0  0  0  0  0  0
   23.4069  -18.6069  -15.9963 N   0  0  0  0  0  0  0  0  0  0  0  0
   23.3957  -19.9344  -15.3171 C   0  0  1  0  0  0  0  0  0  0  0  0
   24.7098  -20.1206  -14.6236 C   0  0  0  0  0  0  0  0  0  0  0  0
   24.7938  -21.3263  -13.8256 C   0  0  0  0  0  0  0  0  0  0  0  0
   24.4015  -21.5024  -12.5221 C   0  0  0  0  0  0  0  0  0  0  0  0
   24.6977  -22.7351  -12.1410 N   0  0  0  0  0  0  0  0  0  0  0  0
   25.2746  -23.3475  -13.1860 C   0  0  0  0  0  0  0  0  0  0  0  0
   25.3359  -22.4963  -14.2127 N   0  0  0  0  0  0  0  0  0  0  0  0
   22.1831  -20.0656  -14.5119 C   0  0  0  0  0  0  0  0  0  0  0  0
   21.6128  -19.0038  -14.0968 O   0  0  0  0  0  0  0  0  0  0  0  0
   21.5657  -21.2912  -14.1515 N   0  0  0  0  0  0  0  0  0  0  0  0
   20.2785  -21.3429  -13.4802 C   0  0  1  0  0  0  0  0  0  0  0  0
   19.2599  -20.4591  -14.1428 C   0  0  0  0  0  0  0  0  0  0  0  0
   17.9446  -20.4695  -13.4766 C   0  0  0  0  0  0  0  0  0  0  0  0
   17.3446  -21.5455  -13.2574 O   0  0  0  0  0  0  0  0  0  0  0  0
   19.7661  -22.7017  -13.2437 C   0  0  0  0  0  0  0  0  0  0  0  0
   19.4506  -23.5479  -14.1053 O   0  0  0  0  0  0  0  0  0  0  0  0
   17.3080  -19.3076  -13.0619 O   0  0  0  0  0  0  0  0  0  0  0  0
   19.5960  -23.1408  -11.9123 O   0  0  0  0  0  0  0  0  0  0  0  0
  2 12  2  0
  2  1  1  0
  3  2  1  0
  4  5  1  0
  4  3  2  0
  5 11  2  0
  6  5  1  0
  6  7  1  0
  7  9  1  0
  7  8  1  6
  9 13  1  0
 10  9  2  0
 11 12  1  0
 13 14  1  0
 14 15  1  1
 15 16  1  0
 16 17  2  0
 18 17  1  0
 19 18  1  0
 20 19  2  0
 20 16  1  0
 21 22  2  0
 21 14  1  0
 23 21  1  0
 24 23  1  0
 24 28  1  0
 24 25  1  6
 26 25  1  0
 26 27  2  0
 28 31  1  0
 29 28  2  0
 30 26  1  0
M  END
$$$$
