YHD.pdb
     RDKit          3D

 31 32  0  0  1  0  0  0  0  0999 V2000
   25.9965  -11.4331  -22.2597 O   0  0  0  0  0  0  0  0  0  0  0  0
   24.9858  -10.8075  -21.5392 C   0  0  0  0  0  0  0  0  0  0  0  0
   23.8822  -10.3094  -22.2016 C   0  0  0  0  0  0  0  0  0  0  0  0
   22.8663   -9.6858  -21.5194 C   0  0  0  0  0  0  0  0  0  0  0  0
   22.9149   -9.5347  -20.1347 C   0  0  0  0  0  0  0  0  0  0  0  0
   21.8632   -8.8796  -19.3534 C   0  0  0  0  0  0  0  0  0  0  0  0
   21.5836   -9.6077  -18.0594 C   0  0  2  0  0  0  0  0  0  0  0  0
   21.0847  -10.9160  -18.3464 N   0  0  0  0  0  0  0  0  0  0  0  0
   20.5664   -8.7877  -17.2992 C   0  0  0  0  0  0  0  0  0  0  0  0
   19.4031   -8.6540  -17.7524 O   0  0  0  0  0  0  0  0  0  0  0  0
   24.0189  -10.0361  -19.4964 C   0  0  0  0  0  0  0  0  0  0  0  0
   25.0426  -10.6624  -20.1685 C   0  0  0  0  0  0  0  0  0  0  0  0
   20.9042   -8.1633  -16.0766 N   0  0  0  0  0  0  0  0  0  0  0  0
   19.9153   -7.3491  -15.3132 C   0  0  1  0  0  0  0  0  0  0  0  0
   19.8800   -7.8506  -13.9027 C   0  0  0  0  0  0  0  0  0  0  0  0
   19.0316   -9.0078  -13.7055 C   0  0  0  0  0  0  0  0  0  0  0  0
   18.2136   -9.6183  -14.6232 C   0  0  0  0  0  0  0  0  0  0  0  0
   17.5633  -10.6100  -14.0350 N   0  0  0  0  0  0  0  0  0  0  0  0
   17.9568  -10.6393  -12.7526 C   0  0  0  0  0  0  0  0  0  0  0  0
   18.8490   -9.6679  -12.5464 N   0  0  0  0  0  0  0  0  0  0  0  0
   20.1853   -5.9273  -15.5174 C   0  0  0  0  0  0  0  0  0  0  0  0
   21.3763   -5.5057  -15.3483 O   0  0  0  0  0  0  0  0  0  0  0  0
   19.2252   -4.9567  -15.9039 N   0  0  0  0  0  0  0  0  0  0  0  0
   19.5577   -3.5494  -16.0415 C   0  0  1  0  0  0  0  0  0  0  0  0
   19.6261   -3.1232  -17.4807 C   0  0  0  0  0  0  0  0  0  0  0  0
   19.9307   -1.6918  -17.6602 C   0  0  0  0  0  0  0  0  0  0  0  0
   20.1388   -0.9511  -16.6732 O   0  0  0  0  0  0  0  0  0  0  0  0
   18.7283   -2.6430  -15.2319 C   0  0  0  0  0  0  0  0  0  0  0  0
   18.9298   -1.4304  -15.0148 O   0  0  0  0  0  0  0  0  0  0  0  0
   20.0029   -1.0945  -18.9112 O   0  0  0  0  0  0  0  0  0  0  0  0
   17.5672   -3.1561  -14.6132 O   0  0  0  0  0  0  0  0  0  0  0  0
  2 12  2  0
  2  1  1  0
  3  2  1  0
  4  5  1  0
  4  3  2  0
  5 11  2  0
  6  5  1  0
  6  7  1  0
  7  9  1  0
  7  8  1  6
  9 13  1  0
 10  9  2  0
 11 12  1  0
 13 14  1  0
 14 15  1  1
 15 16  1  0
 16 17  2  0
 18 17  1  0
 19 18  1  0
 20 19  2  0
 20 16  1  0
 21 22  2  0
 21 14  1  0
 23 21  1  0
 24 23  1  0
 24 28  1  0
 24 25  1  6
 26 25  1  0
 26 27  2  0
 28 31  1  0
 29 28  2  0
 30 26  1  0
M  END
$$$$
