YHD.pdb
     RDKit          3D

 31 32  0  0  1  0  0  0  0  0999 V2000
   18.5972  -17.6021  -20.2616 O   0  0  0  0  0  0  0  0  0  0  0  0
   19.0057  -16.4400  -19.6175 C   0  0  0  0  0  0  0  0  0  0  0  0
   19.7775  -15.5183  -20.2954 C   0  0  0  0  0  0  0  0  0  0  0  0
   20.1975  -14.3603  -19.6879 C   0  0  0  0  0  0  0  0  0  0  0  0
   19.8587  -14.0763  -18.3662 C   0  0  0  0  0  0  0  0  0  0  0  0
   20.2767  -12.8594  -17.6659 C   0  0  0  0  0  0  0  0  0  0  0  0
   21.7796  -12.7665  -17.5418 C   0  0  2  0  0  0  0  0  0  0  0  0
   22.2702  -13.9019  -16.8256 N   0  0  0  0  0  0  0  0  0  0  0  0
   22.0860  -11.4810  -16.8079 C   0  0  0  0  0  0  0  0  0  0  0  0
   21.8574  -11.3918  -15.5765 O   0  0  0  0  0  0  0  0  0  0  0  0
   19.0921  -15.0042  -17.7113 C   0  0  0  0  0  0  0  0  0  0  0  0
   18.6654  -16.1673  -18.3087 C   0  0  0  0  0  0  0  0  0  0  0  0
   22.6301  -10.3679  -17.4888 N   0  0  0  0  0  0  0  0  0  0  0  0
   22.9531   -9.0967  -16.7793 C   0  0  1  0  0  0  0  0  0  0  0  0
   24.3840   -8.7525  -17.0560 C   0  0  0  0  0  0  0  0  0  0  0  0
   25.3395   -9.6552  -16.4481 C   0  0  0  0  0  0  0  0  0  0  0  0
   25.0921  -10.6633  -15.5500 C   0  0  0  0  0  0  0  0  0  0  0  0
   26.2389  -11.2199  -15.1933 N   0  0  0  0  0  0  0  0  0  0  0  0
   27.2154  -10.5786  -15.8532 C   0  0  0  0  0  0  0  0  0  0  0  0
   26.6749   -9.6266  -16.6173 N   0  0  0  0  0  0  0  0  0  0  0  0
   21.9435   -8.0874  -17.0925 C   0  0  0  0  0  0  0  0  0  0  0  0
   21.1769   -8.2859  -18.0915 O   0  0  0  0  0  0  0  0  0  0  0  0
   21.7286   -6.8881  -16.3654 N   0  0  0  0  0  0  0  0  0  0  0  0
   20.6250   -5.9904  -16.6594 C   0  0  1  0  0  0  0  0  0  0  0  0
   19.2979   -6.6938  -16.6164 C   0  0  0  0  0  0  0  0  0  0  0  0
   18.1461   -5.7972  -16.8249 C   0  0  0  0  0  0  0  0  0  0  0  0
   17.4793   -5.3726  -15.8549 O   0  0  0  0  0  0  0  0  0  0  0  0
   20.6214   -4.7473  -15.8723 C   0  0  0  0  0  0  0  0  0  0  0  0
   21.3400   -4.4773  -14.8880 O   0  0  0  0  0  0  0  0  0  0  0  0
   17.7425   -5.3804  -18.0861 O   0  0  0  0  0  0  0  0  0  0  0  0
   19.7236   -3.7185  -16.2324 O   0  0  0  0  0  0  0  0  0  0  0  0
  2 12  2  0
  2  1  1  0
  3  2  1  0
  4  5  1  0
  4  3  2  0
  5 11  2  0
  6  5  1  0
  6  7  1  0
  7  9  1  0
  7  8  1  1
  9 13  1  0
 10  9  2  0
 11 12  1  0
 13 14  1  0
 14 15  1  6
 15 16  1  0
 16 17  2  0
 18 17  1  0
 19 18  1  0
 20 19  2  0
 20 16  1  0
 21 22  2  0
 21 14  1  0
 23 21  1  0
 24 23  1  0
 24 28  1  0
 24 25  1  1
 26 25  1  0
 26 27  2  0
 28 31  1  0
 29 28  2  0
 30 26  1  0
M  END
$$$$
