YHD.pdb
     RDKit          3D

 31 32  0  0  1  0  0  0  0  0999 V2000
   22.2204   -4.7823  -26.6792 O   0  0  0  0  0  0  0  0  0  0  0  0
   22.2177   -5.3789  -25.4237 C   0  0  0  0  0  0  0  0  0  0  0  0
   22.3428   -4.5952  -24.2945 C   0  0  0  0  0  0  0  0  0  0  0  0
   22.3437   -5.1533  -23.0396 C   0  0  0  0  0  0  0  0  0  0  0  0
   22.2185   -6.5302  -22.8634 C   0  0  0  0  0  0  0  0  0  0  0  0
   22.2128   -7.1823  -21.5517 C   0  0  0  0  0  0  0  0  0  0  0  0
   23.6116   -7.4534  -21.0492 C   0  0  2  0  0  0  0  0  0  0  0  0
   24.1563   -8.5804  -21.7391 N   0  0  0  0  0  0  0  0  0  0  0  0
   23.5068   -7.7177  -19.5645 C   0  0  0  0  0  0  0  0  0  0  0  0
   23.2644   -8.8776  -19.1493 O   0  0  0  0  0  0  0  0  0  0  0  0
   22.0955   -7.2900  -23.9970 C   0  0  0  0  0  0  0  0  0  0  0  0
   22.0931   -6.7429  -25.2589 C   0  0  0  0  0  0  0  0  0  0  0  0
   23.6782   -6.6734  -18.6271 N   0  0  0  0  0  0  0  0  0  0  0  0
   23.5397   -6.9064  -17.1607 C   0  0  1  0  0  0  0  0  0  0  0  0
   24.8747   -6.6848  -16.5196 C   0  0  0  0  0  0  0  0  0  0  0  0
   25.8345   -7.7407  -16.7675 C   0  0  0  0  0  0  0  0  0  0  0  0
   25.9135   -8.9672  -16.1565 C   0  0  0  0  0  0  0  0  0  0  0  0
   26.9649   -9.6205  -16.6257 N   0  0  0  0  0  0  0  0  0  0  0  0
   27.5578   -8.8250  -17.5289 C   0  0  0  0  0  0  0  0  0  0  0  0
   26.8754   -7.6811  -17.6194 N   0  0  0  0  0  0  0  0  0  0  0  0
   22.4076   -6.1394  -16.6447 C   0  0  0  0  0  0  0  0  0  0  0  0
   22.2958   -4.9172  -16.9890 O   0  0  0  0  0  0  0  0  0  0  0  0
   21.3969   -6.6445  -15.7865 N   0  0  0  0  0  0  0  0  0  0  0  0
   20.3006   -5.8190  -15.3102 C   0  0  1  0  0  0  0  0  0  0  0  0
   19.2094   -6.6375  -14.6802 C   0  0  0  0  0  0  0  0  0  0  0  0
   18.5734   -7.5903  -15.6085 C   0  0  0  0  0  0  0  0  0  0  0  0
   18.4614   -7.3230  -16.8258 O   0  0  0  0  0  0  0  0  0  0  0  0
   20.7097   -4.6896  -14.4606 C   0  0  0  0  0  0  0  0  0  0  0  0
   21.7338   -4.6136  -13.7509 O   0  0  0  0  0  0  0  0  0  0  0  0
   18.0715   -8.8162  -15.1930 O   0  0  0  0  0  0  0  0  0  0  0  0
   19.8852   -3.5442  -14.4105 O   0  0  0  0  0  0  0  0  0  0  0  0
  2 12  2  0
  2  1  1  0
  3  2  1  0
  4  5  1  0
  4  3  2  0
  5 11  2  0
  6  5  1  0
  6  7  1  0
  7  9  1  0
  7  8  1  6
  9 13  1  0
 10  9  2  0
 11 12  1  0
 13 14  1  0
 14 15  1  1
 15 16  1  0
 16 17  2  0
 18 17  1  0
 19 18  1  0
 20 19  2  0
 20 16  1  0
 21 22  2  0
 21 14  1  0
 23 21  1  0
 24 23  1  0
 24 28  1  0
 24 25  1  1
 26 25  1  0
 26 27  2  0
 28 31  1  0
 29 28  2  0
 30 26  1  0
M  END
$$$$
