YHD.pdb
     RDKit          3D

 31 32  0  0  1  0  0  0  0  0999 V2000
   36.0877   -7.5130   -6.2310 O   0  0  0  0  0  0  0  0  0  0  0  0
   37.2111   -8.2234   -6.6374 C   0  0  0  0  0  0  0  0  0  0  0  0
   37.3662   -9.5382   -6.2473 C   0  0  0  0  0  0  0  0  0  0  0  0
   38.4644  -10.2679   -6.6315 C   0  0  0  0  0  0  0  0  0  0  0  0
   39.4600   -9.7058   -7.4286 C   0  0  0  0  0  0  0  0  0  0  0  0
   40.6524  -10.4334   -7.8696 C   0  0  0  0  0  0  0  0  0  0  0  0
   41.3759  -11.0858   -6.7148 C   0  0  2  0  0  0  0  0  0  0  0  0
   41.9800  -10.0786   -5.9003 N   0  0  0  0  0  0  0  0  0  0  0  0
   42.4162  -12.0089   -7.3069 C   0  0  0  0  0  0  0  0  0  0  0  0
   43.5928  -11.6035   -7.4735 O   0  0  0  0  0  0  0  0  0  0  0  0
   39.2869   -8.3996   -7.8049 C   0  0  0  0  0  0  0  0  0  0  0  0
   38.1916   -7.6586   -7.4265 C   0  0  0  0  0  0  0  0  0  0  0  0
   42.0853  -13.3319   -7.6797 N   0  0  0  0  0  0  0  0  0  0  0  0
   43.0912  -14.2491   -8.2884 C   0  0  1  0  0  0  0  0  0  0  0  0
   42.5433  -15.6422   -8.2505 C   0  0  0  0  0  0  0  0  0  0  0  0
   43.4033  -16.6348   -8.8609 C   0  0  0  0  0  0  0  0  0  0  0  0
   44.5890  -16.4299   -9.5214 C   0  0  0  0  0  0  0  0  0  0  0  0
   45.0380  -17.5879   -9.9795 N   0  0  0  0  0  0  0  0  0  0  0  0
   44.1525  -18.5293   -9.6192 C   0  0  0  0  0  0  0  0  0  0  0  0
   43.1568  -17.9561   -8.9392 N   0  0  0  0  0  0  0  0  0  0  0  0
   43.5142  -13.7254   -9.5857 C   0  0  0  0  0  0  0  0  0  0  0  0
   42.6204  -13.2982  -10.3879 O   0  0  0  0  0  0  0  0  0  0  0  0
   44.8563  -13.6386  -10.0379 N   0  0  0  0  0  0  0  0  0  0  0  0
   45.1964  -13.1743  -11.3717 C   0  0  1  0  0  0  0  0  0  0  0  0
   46.4216  -12.3045  -11.3717 C   0  0  0  0  0  0  0  0  0  0  0  0
   46.1229  -10.8617  -11.3164 C   0  0  0  0  0  0  0  0  0  0  0  0
   44.9414  -10.4521  -11.2673 O   0  0  0  0  0  0  0  0  0  0  0  0
   45.2673  -14.2350  -12.3889 C   0  0  0  0  0  0  0  0  0  0  0  0
   44.7108  -14.2452  -13.5061 O   0  0  0  0  0  0  0  0  0  0  0  0
   47.1168   -9.8925  -11.3156 O   0  0  0  0  0  0  0  0  0  0  0  0
   46.0375  -15.3868  -12.1160 O   0  0  0  0  0  0  0  0  0  0  0  0
  2 12  2  0
  2  1  1  0
  3  2  1  0
  4  5  1  0
  4  3  2  0
  5 11  2  0
  6  5  1  0
  6  7  1  0
  7  9  1  0
  7  8  1  1
  9 13  1  0
 10  9  2  0
 11 12  1  0
 13 14  1  0
 14 15  1  6
 15 16  1  0
 16 17  2  0
 18 17  1  0
 19 18  1  0
 20 19  2  0
 20 16  1  0
 21 22  2  0
 21 14  1  0
 23 21  1  0
 24 23  1  0
 24 28  1  0
 24 25  1  1
 26 25  1  0
 26 27  2  0
 28 31  1  0
 29 28  2  0
 30 26  1  0
M  END
$$$$
