YHD.pdb
     RDKit          3D

 31 32  0  0  1  0  0  0  0  0999 V2000
   15.2577  -18.5079  -20.1249 O   0  0  0  0  0  0  0  0  0  0  0  0
   16.2690  -17.9032  -19.3876 C   0  0  0  0  0  0  0  0  0  0  0  0
   16.6552  -18.4503  -18.1807 C   0  0  0  0  0  0  0  0  0  0  0  0
   17.6509  -17.8775  -17.4278 C   0  0  0  0  0  0  0  0  0  0  0  0
   18.3056  -16.7243  -17.8567 C   0  0  0  0  0  0  0  0  0  0  0  0
   19.3736  -16.0688  -17.0981 C   0  0  0  0  0  0  0  0  0  0  0  0
   20.7442  -16.4493  -17.6073 C   0  0  2  0  0  0  0  0  0  0  0  0
   20.9329  -17.8585  -17.4619 N   0  0  0  0  0  0  0  0  0  0  0  0
   21.7525  -15.6740  -16.7905 C   0  0  0  0  0  0  0  0  0  0  0  0
   22.5216  -16.2795  -16.0041 O   0  0  0  0  0  0  0  0  0  0  0  0
   17.9072  -16.1973  -19.0572 C   0  0  0  0  0  0  0  0  0  0  0  0
   16.9115  -16.7616  -19.8201 C   0  0  0  0  0  0  0  0  0  0  0  0
   21.8459  -14.2673  -16.8968 N   0  0  0  0  0  0  0  0  0  0  0  0
   22.9576  -13.5055  -16.2585 C   0  0  1  0  0  0  0  0  0  0  0  0
   24.2564  -14.0601  -16.7563 C   0  0  0  0  0  0  0  0  0  0  0  0
   25.4280  -13.3954  -16.2243 C   0  0  0  0  0  0  0  0  0  0  0  0
   26.0674  -13.6399  -15.0346 C   0  0  0  0  0  0  0  0  0  0  0  0
   27.0644  -12.7809  -14.8915 N   0  0  0  0  0  0  0  0  0  0  0  0
   27.0685  -11.9909  -15.9760 C   0  0  0  0  0  0  0  0  0  0  0  0
   26.0762  -12.3595  -16.7895 N   0  0  0  0  0  0  0  0  0  0  0  0
   22.7293  -12.0711  -16.4219 C   0  0  0  0  0  0  0  0  0  0  0  0
   22.4436  -11.6310  -17.5837 O   0  0  0  0  0  0  0  0  0  0  0  0
   22.7884  -11.1069  -15.3828 N   0  0  0  0  0  0  0  0  0  0  0  0
   22.4688   -9.7073  -15.6048 C   0  0  1  0  0  0  0  0  0  0  0  0
   21.9068   -9.0541  -14.3740 C   0  0  0  0  0  0  0  0  0  0  0  0
   21.5557   -7.6348  -14.5652 C   0  0  0  0  0  0  0  0  0  0  0  0
   20.9724   -7.2522  -15.6041 O   0  0  0  0  0  0  0  0  0  0  0  0
   23.5567   -8.9194  -16.2052 C   0  0  0  0  0  0  0  0  0  0  0  0
   23.5056   -7.7307  -16.5829 O   0  0  0  0  0  0  0  0  0  0  0  0
   21.8466   -6.6595  -13.6211 O   0  0  0  0  0  0  0  0  0  0  0  0
   24.8146   -9.5327  -16.3944 O   0  0  0  0  0  0  0  0  0  0  0  0
  2 12  2  0
  2  1  1  0
  3  2  1  0
  4  5  1  0
  4  3  2  0
  5 11  2  0
  6  5  1  0
  6  7  1  0
  7  9  1  0
  7  8  1  1
  9 13  1  0
 10  9  2  0
 11 12  1  0
 13 14  1  0
 14 15  1  6
 15 16  1  0
 16 17  2  0
 18 17  1  0
 19 18  1  0
 20 19  2  0
 20 16  1  0
 21 22  2  0
 21 14  1  0
 23 21  1  0
 24 23  1  0
 24 28  1  0
 24 25  1  1
 26 25  1  0
 26 27  2  0
 28 31  1  0
 29 28  2  0
 30 26  1  0
M  END
$$$$
