DAA.pdb
     RDKit          3D

 19 18  0  0  1  0  0  0  0  0999 V2000
   16.5994  -11.1422  -16.6113 N   0  0  0  0  0  0  0  0  0  0  0  0
   16.6795   -9.7101  -16.5551 C   0  0  1  0  0  0  0  0  0  0  0  0
   15.7775   -9.2295  -15.4561 C   0  0  0  0  0  0  0  0  0  0  0  0
   14.3732   -9.6015  -15.6484 C   0  0  0  0  0  0  0  0  0  0  0  0
   13.7747   -9.2739  -16.6936 O   0  0  0  0  0  0  0  0  0  0  0  0
   18.0657   -9.2334  -16.4118 C   0  0  0  0  0  0  0  0  0  0  0  0
   18.8565   -9.7874  -15.6216 O   0  0  0  0  0  0  0  0  0  0  0  0
   13.7095  -10.3158  -14.6722 O   0  0  0  0  0  0  0  0  0  0  0  0
   20.1284   -6.6929  -18.2367 C   0  0  0  0  0  0  0  0  0  0  0  0
   19.8975   -7.6388  -17.0544 C   0  0  2  0  0  0  0  0  0  0  0  0
   18.5368   -8.1284  -17.1720 N   0  0  0  0  0  0  0  0  0  0  0  0
   20.0224   -6.8142  -15.8344 C   0  0  0  0  0  0  0  0  0  0  0  0
   19.0219   -6.1320  -15.4672 O   0  0  0  0  0  0  0  0  0  0  0  0
   22.0113   -6.7132  -12.8196 C   0  0  0  0  0  0  0  0  0  0  0  0
   21.2462   -5.9545  -13.8817 C   0  0  2  0  0  0  0  0  0  0  0  0
   21.2250   -6.7657  -15.0673 N   0  0  0  0  0  0  0  0  0  0  0  0
   21.8598   -4.6294  -14.1530 C   0  0  0  0  0  0  0  0  0  0  0  0
   22.4486   -4.4590  -15.2506 O   0  0  0  0  0  0  0  0  0  0  0  0
   21.8251   -3.5755  -13.2791 O   0  0  0  0  0  0  0  0  0  0  0  0
  2  1  1  1
  3  2  1  0
  3  4  1  0
  4  8  1  0
  4  5  2  0
  6  7  2  0
  6  2  1  0
 10  9  1  6
 10 12  1  0
 10 11  1  0
 11  6  1  0
 12 16  1  0
 13 12  2  0
 15 14  1  1
 15 17  1  0
 16 15  1  0
 17 18  2  0
 17 19  1  0
M  END
$$$$
