DAA.pdb
     RDKit          3D

 19 18  0  0  1  0  0  0  0  0999 V2000
   20.5137   -8.6470  -17.4972 N   0  0  0  0  0  0  0  0  0  0  0  0
   20.4442   -7.5191  -16.6118 C   0  0  1  0  0  0  0  0  0  0  0  0
   21.6945   -7.4925  -15.7821 C   0  0  0  0  0  0  0  0  0  0  0  0
   21.8100   -8.6282  -14.8632 C   0  0  0  0  0  0  0  0  0  0  0  0
   22.9319   -8.9961  -14.4582 O   0  0  0  0  0  0  0  0  0  0  0  0
   20.2049   -6.2572  -17.3327 C   0  0  0  0  0  0  0  0  0  0  0  0
   20.9488   -5.9020  -18.2693 O   0  0  0  0  0  0  0  0  0  0  0  0
   20.6763   -9.2936  -14.4438 O   0  0  0  0  0  0  0  0  0  0  0  0
   17.3404   -3.8794  -17.4443 C   0  0  0  0  0  0  0  0  0  0  0  0
   18.8126   -4.2019  -17.7175 C   0  0  2  0  0  0  0  0  0  0  0  0
   19.1183   -5.4120  -16.9778 N   0  0  0  0  0  0  0  0  0  0  0  0
   19.5923   -3.0746  -17.1651 C   0  0  0  0  0  0  0  0  0  0  0  0
   19.9766   -3.1445  -15.9615 O   0  0  0  0  0  0  0  0  0  0  0  0
   21.1336    0.0729  -18.4103 C   0  0  0  0  0  0  0  0  0  0  0  0
   20.6878   -0.8779  -17.3211 C   0  0  2  0  0  0  0  0  0  0  0  0
   19.9206   -1.9225  -17.9410 N   0  0  0  0  0  0  0  0  0  0  0  0
   19.8927   -0.1785  -16.2795 C   0  0  0  0  0  0  0  0  0  0  0  0
   18.6396   -0.2692  -16.3256 O   0  0  0  0  0  0  0  0  0  0  0  0
   20.4403    0.5630  -15.2666 O   0  0  0  0  0  0  0  0  0  0  0  0
  2  1  1  6
  3  2  1  0
  3  4  1  0
  4  8  1  0
  4  5  2  0
  6  7  2  0
  6  2  1  0
 10  9  1  1
 10 12  1  0
 10 11  1  0
 11  6  1  0
 12 16  1  0
 13 12  2  0
 15 14  1  6
 15 17  1  0
 16 15  1  0
 17 18  2  0
 17 19  1  0
M  END
$$$$
