DAA.pdb
     RDKit          3D

 19 18  0  0  1  0  0  0  0  0999 V2000
   25.4401  -21.8518  -10.9459 N   0  0  0  0  0  0  0  0  0  0  0  0
   25.5971  -20.4356  -10.7716 C   0  0  1  0  0  0  0  0  0  0  0  0
   26.1370  -20.1865   -9.3937 C   0  0  0  0  0  0  0  0  0  0  0  0
   25.3419  -20.8113   -8.3330 C   0  0  0  0  0  0  0  0  0  0  0  0
   25.8717  -21.1044   -7.2415 O   0  0  0  0  0  0  0  0  0  0  0  0
   26.4223  -19.8307  -11.8311 C   0  0  0  0  0  0  0  0  0  0  0  0
   27.0053  -18.7428  -11.6482 O   0  0  0  0  0  0  0  0  0  0  0  0
   24.0039  -21.0767   -8.5402 O   0  0  0  0  0  0  0  0  0  0  0  0
   27.6242  -21.0290  -15.1677 C   0  0  0  0  0  0  0  0  0  0  0  0
   27.3975  -19.9117  -14.1449 C   0  0  2  0  0  0  0  0  0  0  0  0
   26.5745  -20.4731  -13.0901 N   0  0  0  0  0  0  0  0  0  0  0  0
   26.6443  -18.8530  -14.8490 C   0  0  0  0  0  0  0  0  0  0  0  0
   25.4148  -19.0442  -15.0791 O   0  0  0  0  0  0  0  0  0  0  0  0
   27.1338  -15.3271  -15.8478 C   0  0  0  0  0  0  0  0  0  0  0  0
   26.4499  -16.6713  -15.9682 C   0  0  2  0  0  0  0  0  0  0  0  0
   27.2566  -17.6351  -15.2720 N   0  0  0  0  0  0  0  0  0  0  0  0
   26.2606  -17.0608  -17.3889 C   0  0  0  0  0  0  0  0  0  0  0  0
   25.1976  -16.7161  -17.9647 O   0  0  0  0  0  0  0  0  0  0  0  0
   27.1752  -17.7755  -18.1159 O   0  0  0  0  0  0  0  0  0  0  0  0
  2  1  1  6
  3  2  1  0
  3  4  1  0
  4  8  1  0
  4  5  2  0
  6  7  2  0
  6  2  1  0
 10  9  1  6
 10 12  1  0
 10 11  1  0
 11  6  1  0
 12 16  1  0
 13 12  2  0
 15 14  1  6
 15 17  1  0
 16 15  1  0
 17 18  2  0
 17 19  1  0
M  END
$$$$
