DAA.pdb
     RDKit          3D

 19 18  0  0  1  0  0  0  0  0999 V2000
   19.5885  -12.2782  -16.4821 N   0  0  0  0  0  0  0  0  0  0  0  0
   18.9668  -10.9843  -16.4726 C   0  0  1  0  0  0  0  0  0  0  0  0
   17.9377  -10.9630  -15.3805 C   0  0  0  0  0  0  0  0  0  0  0  0
   16.8133  -11.8719  -15.6196 C   0  0  0  0  0  0  0  0  0  0  0  0
   16.4350  -12.1090  -16.7852 O   0  0  0  0  0  0  0  0  0  0  0  0
   19.9496   -9.8933  -16.3587 C   0  0  0  0  0  0  0  0  0  0  0  0
   20.8533   -9.9306  -15.4991 O   0  0  0  0  0  0  0  0  0  0  0  0
   16.1702  -12.4680  -14.5543 O   0  0  0  0  0  0  0  0  0  0  0  0
   20.7027   -6.8944  -18.4742 C   0  0  0  0  0  0  0  0  0  0  0  0
   20.9029   -7.7287  -17.2054 C   0  0  2  0  0  0  0  0  0  0  0  0
   19.8921   -8.7693  -17.2271 N   0  0  0  0  0  0  0  0  0  0  0  0
   20.6513   -6.8190  -16.0683 C   0  0  0  0  0  0  0  0  0  0  0  0
   19.4528   -6.6164  -15.7166 O   0  0  0  0  0  0  0  0  0  0  0  0
   22.4690   -5.5151  -13.2030 C   0  0  0  0  0  0  0  0  0  0  0  0
   21.3732   -5.3491  -14.2330 C   0  0  2  0  0  0  0  0  0  0  0  0
   21.7091   -6.1699  -15.3633 N   0  0  0  0  0  0  0  0  0  0  0  0
   21.2138   -3.9280  -14.6343 C   0  0  0  0  0  0  0  0  0  0  0  0
   21.6532   -3.5732  -15.7575 O   0  0  0  0  0  0  0  0  0  0  0  0
   20.6153   -2.9741  -13.8548 O   0  0  0  0  0  0  0  0  0  0  0  0
  2  1  1  1
  3  2  1  0
  3  4  1  0
  4  8  1  0
  4  5  2  0
  6  7  2  0
  6  2  1  0
 10  9  1  6
 10 12  1  0
 10 11  1  0
 11  6  1  0
 12 16  1  0
 13 12  2  0
 15 14  1  1
 15 17  1  0
 16 15  1  0
 17 18  2  0
 17 19  1  0
M  END
$$$$
