DAA.pdb
     RDKit          3D

 19 18  0  0  1  0  0  0  0  0999 V2000
   17.3646  -11.7216  -17.0147 N   0  0  0  0  0  0  0  0  0  0  0  0
   17.0727  -10.4853  -16.3461 C   0  0  1  0  0  0  0  0  0  0  0  0
   16.6738  -10.7955  -14.9329 C   0  0  0  0  0  0  0  0  0  0  0  0
   15.4511  -11.5974  -14.8338 C   0  0  0  0  0  0  0  0  0  0  0  0
   15.4188  -12.6037  -14.0961 O   0  0  0  0  0  0  0  0  0  0  0  0
   18.1880   -9.5271  -16.4321 C   0  0  0  0  0  0  0  0  0  0  0  0
   19.3575   -9.8787  -16.1766 O   0  0  0  0  0  0  0  0  0  0  0  0
   14.3320  -11.2401  -15.5574 O   0  0  0  0  0  0  0  0  0  0  0  0
   18.4163   -5.9254  -17.4822 C   0  0  0  0  0  0  0  0  0  0  0  0
   19.0460   -7.2344  -16.9966 C   0  0  2  0  0  0  0  0  0  0  0  0
   17.9580   -8.1758  -16.8090 N   0  0  0  0  0  0  0  0  0  0  0  0
   19.6701   -6.9339  -15.6912 C   0  0  0  0  0  0  0  0  0  0  0  0
   18.9205   -6.8386  -14.6763 O   0  0  0  0  0  0  0  0  0  0  0  0
   22.7968   -7.4369  -14.0449 C   0  0  0  0  0  0  0  0  0  0  0  0
   21.6028   -6.5254  -14.2256 C   0  0  2  0  0  0  0  0  0  0  0  0
   21.0779   -6.7503  -15.5440 N   0  0  0  0  0  0  0  0  0  0  0  0
   21.9723   -5.0995  -14.0347 C   0  0  0  0  0  0  0  0  0  0  0  0
   22.3572   -4.7311  -12.8960 O   0  0  0  0  0  0  0  0  0  0  0  0
   21.9202   -4.1552  -15.0252 O   0  0  0  0  0  0  0  0  0  0  0  0
  2  1  1  1
  3  2  1  0
  3  4  1  0
  4  8  1  0
  4  5  2  0
  6  7  2  0
  6  2  1  0
 10  9  1  1
 10 12  1  0
 10 11  1  0
 11  6  1  0
 12 16  1  0
 13 12  2  0
 15 14  1  6
 15 17  1  0
 16 15  1  0
 17 18  2  0
 17 19  1  0
M  END
$$$$
