DAA.pdb
     RDKit          3D

 19 18  0  0  1  0  0  0  0  0999 V2000
   22.9987  -12.0995  -18.1105 N   0  0  0  0  0  0  0  0  0  0  0  0
   23.2149  -11.4311  -16.8587 C   0  0  1  0  0  0  0  0  0  0  0  0
   24.6757  -11.1073  -16.7423 C   0  0  0  0  0  0  0  0  0  0  0  0
   25.5409  -12.2895  -16.7810 C   0  0  0  0  0  0  0  0  0  0  0  0
   25.2800  -13.2816  -16.0699 O   0  0  0  0  0  0  0  0  0  0  0  0
   22.3492  -10.2502  -16.6993 C   0  0  0  0  0  0  0  0  0  0  0  0
   22.3188   -9.3548  -17.5676 O   0  0  0  0  0  0  0  0  0  0  0  0
   26.6472  -12.3073  -17.6054 O   0  0  0  0  0  0  0  0  0  0  0  0
   19.7700   -9.2578  -14.1602 C   0  0  0  0  0  0  0  0  0  0  0  0
   20.6633   -8.9501  -15.3656 C   0  0  2  0  0  0  0  0  0  0  0  0
   21.5259  -10.1021  -15.5499 N   0  0  0  0  0  0  0  0  0  0  0  0
   21.4791   -7.7773  -14.9873 C   0  0  0  0  0  0  0  0  0  0  0  0
   22.5829   -7.9786  -14.4022 O   0  0  0  0  0  0  0  0  0  0  0  0
   21.4508   -4.1153  -15.6063 C   0  0  0  0  0  0  0  0  0  0  0  0
   21.9509   -5.3645  -14.9145 C   0  0  2  0  0  0  0  0  0  0  0  0
   21.0626   -6.4396  -15.2597 N   0  0  0  0  0  0  0  0  0  0  0  0
   22.0196   -5.1812  -13.4422 C   0  0  0  0  0  0  0  0  0  0  0  0
   21.1145   -5.6925  -12.7353 O   0  0  0  0  0  0  0  0  0  0  0  0
   23.0114   -4.4870  -12.8019 O   0  0  0  0  0  0  0  0  0  0  0  0
  2  1  1  6
  3  2  1  0
  3  4  1  0
  4  8  1  0
  4  5  2  0
  6  7  2  0
  6  2  1  0
 10  9  1  1
 10 12  1  0
 10 11  1  0
 11  6  1  0
 12 16  1  0
 13 12  2  0
 15 14  1  6
 15 17  1  0
 16 15  1  0
 17 18  2  0
 17 19  1  0
M  END
$$$$
