SYC.pdb
     RDKit          3D

 25 25  0  0  1  0  0  0  0  0999 V2000
   16.4705  -10.9917  -18.4837 O   0  0  0  0  0  0  0  0  0  0  0  0
   17.6651  -11.6730  -18.4826 C   0  0  0  0  0  0  0  0  0  0  0  0
   18.1058  -12.0626  -17.0879 C   0  0  2  0  0  0  0  0  0  0  0  0
   17.1577  -12.9506  -16.4757 N   0  0  0  0  0  0  0  0  0  0  0  0
   18.3299  -10.8849  -16.2266 C   0  0  0  0  0  0  0  0  0  0  0  0
   17.6137  -10.7272  -15.2149 O   0  0  0  0  0  0  0  0  0  0  0  0
   22.3740   -3.5852  -13.4551 O   0  0  0  0  0  0  0  0  0  0  0  0
   22.0570   -4.8003  -14.0291 C   0  0  0  0  0  0  0  0  0  0  0  0
   21.8771   -5.9064  -13.2362 C   0  0  0  0  0  0  0  0  0  0  0  0
   21.5602   -7.0939  -13.8825 C   0  0  0  0  0  0  0  0  0  0  0  0
   21.4291   -7.1775  -15.2470 C   0  0  0  0  0  0  0  0  0  0  0  0
   21.0947   -8.4497  -15.8779 C   0  0  0  0  0  0  0  0  0  0  0  0
   19.6242   -8.8266  -15.7031 C   0  0  2  0  0  0  0  0  0  0  0  0
   19.3425   -9.9578  -16.5529 N   0  0  0  0  0  0  0  0  0  0  0  0
   18.8499   -7.6668  -16.1939 C   0  0  0  0  0  0  0  0  0  0  0  0
   18.7624   -7.5100  -17.4320 O   0  0  0  0  0  0  0  0  0  0  0  0
   21.6138   -6.0569  -16.0213 C   0  0  0  0  0  0  0  0  0  0  0  0
   21.9323   -4.8538  -15.3974 C   0  0  0  0  0  0  0  0  0  0  0  0
   18.2113   -6.7380  -15.3190 N   0  0  0  0  0  0  0  0  0  0  0  0
   17.3993   -5.6410  -15.8236 C   0  0  1  0  0  0  0  0  0  0  0  0
   16.0205   -5.6250  -15.2122 C   0  0  0  0  0  0  0  0  0  0  0  0
   15.1668   -4.1531  -15.8522 S   0  0  0  0  0  0  0  0  0  0  0  0
   18.0524   -4.3559  -15.4850 C   0  0  0  0  0  0  0  0  0  0  0  0
   18.1433   -3.2908  -16.3635 O   0  0  0  0  0  0  0  0  0  0  0  0
   18.5527   -4.2257  -14.3336 O   0  0  0  0  0  0  0  0  0  0  0  0
  1  2  1  0
  2  3  1  0
  3  4  1  1
  5  3  1  0
  5  6  2  0
  7  8  1  0
  8  9  2  0
  8 18  1  0
  9 10  1  0
 10 11  2  0
 11 12  1  0
 13 12  1  6
 13 14  1  0
 13 15  1  0
 14  5  1  0
 15 19  1  0
 16 15  2  0
 17 11  1  0
 18 17  2  0
 19 20  1  0
 20 23  1  0
 21 22  1  0
 20 21  1  1
 23 25  2  0
 23 24  1  0
M  END
$$$$
