SYC.pdb
     RDKit          3D

 25 25  0  0  1  0  0  0  0  0999 V2000
   29.0035  -22.3030  -14.8624 O   0  0  0  0  0  0  0  0  0  0  0  0
   29.0098  -21.3616  -15.8649 C   0  0  0  0  0  0  0  0  0  0  0  0
   27.6147  -21.0108  -16.3359 C   0  0  2  0  0  0  0  0  0  0  0  0
   27.6581  -20.1150  -17.4576 N   0  0  0  0  0  0  0  0  0  0  0  0
   26.7920  -20.4333  -15.2549 C   0  0  0  0  0  0  0  0  0  0  0  0
   26.8652  -19.2073  -15.0248 O   0  0  0  0  0  0  0  0  0  0  0  0
   19.7259  -18.7976  -10.7092 O   0  0  0  0  0  0  0  0  0  0  0  0
   20.7160  -19.4422  -11.4239 C   0  0  0  0  0  0  0  0  0  0  0  0
   20.9412  -19.1085  -12.7363 C   0  0  0  0  0  0  0  0  0  0  0  0
   21.9526  -19.7982  -13.3918 C   0  0  0  0  0  0  0  0  0  0  0  0
   22.7015  -20.7697  -12.7743 C   0  0  0  0  0  0  0  0  0  0  0  0
   23.7534  -21.4655  -13.5076 C   0  0  0  0  0  0  0  0  0  0  0  0
   25.0904  -20.7268  -13.4649 C   0  0  2  0  0  0  0  0  0  0  0  0
   25.9389  -21.2658  -14.4995 N   0  0  0  0  0  0  0  0  0  0  0  0
   25.6879  -21.0506  -12.1520 C   0  0  0  0  0  0  0  0  0  0  0  0
   26.0652  -22.2280  -11.9612 O   0  0  0  0  0  0  0  0  0  0  0  0
   22.4584  -21.0875  -11.4593 C   0  0  0  0  0  0  0  0  0  0  0  0
   21.4496  -20.4104  -10.7796 C   0  0  0  0  0  0  0  0  0  0  0  0
   25.8454  -20.0832  -11.1151 N   0  0  0  0  0  0  0  0  0  0  0  0
   26.2654  -20.4573   -9.7730 C   0  0  1  0  0  0  0  0  0  0  0  0
   26.8522  -19.2929   -9.0146 C   0  0  0  0  0  0  0  0  0  0  0  0
   27.2367  -19.8832   -7.3387 S   0  0  0  0  0  0  0  0  0  0  0  0
   25.0903  -20.9390   -9.0116 C   0  0  0  0  0  0  0  0  0  0  0  0
   25.1731  -21.8571   -7.9797 O   0  0  0  0  0  0  0  0  0  0  0  0
   23.9529  -20.4876   -9.3206 O   0  0  0  0  0  0  0  0  0  0  0  0
  1  2  1  0
  2  3  1  0
  3  4  1  6
  5  3  1  0
  5  6  2  0
  7  8  1  0
  8  9  2  0
  8 18  1  0
  9 10  1  0
 10 11  2  0
 11 12  1  0
 13 12  1  1
 13 14  1  0
 13 15  1  0
 14  5  1  0
 15 19  1  0
 16 15  2  0
 17 11  1  0
 18 17  2  0
 19 20  1  0
 20 23  1  0
 21 22  1  0
 20 21  1  1
 23 25  2  0
 23 24  1  0
M  END
$$$$
