SYC.pdb
     RDKit          3D

 25 25  0  0  1  0  0  0  0  0999 V2000
   26.8653  -20.3969  -18.0315 O   0  0  0  0  0  0  0  0  0  0  0  0
   26.8654  -20.3729  -16.6565 C   0  0  0  0  0  0  0  0  0  0  0  0
   25.7340  -21.1862  -16.0650 C   0  0  2  0  0  0  0  0  0  0  0  0
   25.7779  -22.5450  -16.5275 N   0  0  0  0  0  0  0  0  0  0  0  0
   24.4134  -20.5929  -16.3531 C   0  0  0  0  0  0  0  0  0  0  0  0
   23.6555  -21.1635  -17.1663 O   0  0  0  0  0  0  0  0  0  0  0  0
   18.6979  -22.6871  -13.3153 O   0  0  0  0  0  0  0  0  0  0  0  0
   19.5388  -21.6478  -13.6606 C   0  0  0  0  0  0  0  0  0  0  0  0
   20.7889  -21.5628  -13.0996 C   0  0  0  0  0  0  0  0  0  0  0  0
   21.5792  -20.4913  -13.4938 C   0  0  0  0  0  0  0  0  0  0  0  0
   21.1490  -19.5526  -14.3992 C   0  0  0  0  0  0  0  0  0  0  0  0
   22.0185  -18.4449  -14.7806 C   0  0  0  0  0  0  0  0  0  0  0  0
   22.7995  -18.7227  -16.0643 C   0  0  2  0  0  0  0  0  0  0  0  0
   24.0249  -19.3973  -15.7120 N   0  0  0  0  0  0  0  0  0  0  0  0
   23.1380  -17.3972  -16.6247 C   0  0  0  0  0  0  0  0  0  0  0  0
   24.0565  -16.7517  -16.0728 O   0  0  0  0  0  0  0  0  0  0  0  0
   19.8933  -19.6577  -14.9483 C   0  0  0  0  0  0  0  0  0  0  0  0
   19.0811  -20.7231  -14.5695 C   0  0  0  0  0  0  0  0  0  0  0  0
   22.4647  -16.8404  -17.7528 N   0  0  0  0  0  0  0  0  0  0  0  0
   22.7956  -15.5214  -18.2708 C   0  0  1  0  0  0  0  0  0  0  0  0
   23.6384  -15.5951  -19.5196 C   0  0  0  0  0  0  0  0  0  0  0  0
   23.9450  -13.8870  -20.0614 S   0  0  0  0  0  0  0  0  0  0  0  0
   21.5459  -14.8069  -18.6176 C   0  0  0  0  0  0  0  0  0  0  0  0
   21.4400  -13.4278  -18.6552 O   0  0  0  0  0  0  0  0  0  0  0  0
   20.5229  -15.4929  -18.8934 O   0  0  0  0  0  0  0  0  0  0  0  0
  1  2  1  0
  2  3  1  0
  3  4  1  6
  5  3  1  0
  5  6  2  0
  7  8  1  0
  8  9  2  0
  8 18  1  0
  9 10  1  0
 10 11  2  0
 11 12  1  0
 13 12  1  1
 13 14  1  0
 13 15  1  0
 14  5  1  0
 15 19  1  0
 16 15  2  0
 17 11  1  0
 18 17  2  0
 19 20  1  0
 20 23  1  0
 21 22  1  0
 20 21  1  6
 23 25  2  0
 23 24  1  0
M  END
$$$$
