SYC.pdb
     RDKit          3D

 25 25  0  0  1  0  0  0  0  0999 V2000
   17.6218  -14.8862  -21.8927 O   0  0  0  0  0  0  0  0  0  0  0  0
   17.9581  -14.3592  -20.6678 C   0  0  0  0  0  0  0  0  0  0  0  0
   17.2598  -15.0644  -19.5248 C   0  0  2  0  0  0  0  0  0  0  0  0
   15.8906  -15.3478  -19.8521 N   0  0  0  0  0  0  0  0  0  0  0  0
   17.3337  -14.2935  -18.2681 C   0  0  0  0  0  0  0  0  0  0  0  0
   16.4449  -14.4531  -17.4045 O   0  0  0  0  0  0  0  0  0  0  0  0
   20.5598  -18.2943  -14.4072 O   0  0  0  0  0  0  0  0  0  0  0  0
   20.4175  -16.9950  -14.8522 C   0  0  0  0  0  0  0  0  0  0  0  0
   19.9492  -16.0262  -13.9996 C   0  0  0  0  0  0  0  0  0  0  0  0
   19.8322  -14.7426  -14.5161 C   0  0  0  0  0  0  0  0  0  0  0  0
   20.1635  -14.4377  -15.8135 C   0  0  0  0  0  0  0  0  0  0  0  0
   20.0223  -13.0724  -16.3079 C   0  0  0  0  0  0  0  0  0  0  0  0
   18.6025  -12.7588  -16.7779 C   0  0  2  0  0  0  0  0  0  0  0  0
   18.3988  -13.3920  -18.0579 N   0  0  0  0  0  0  0  0  0  0  0  0
   18.5550  -11.2933  -16.9665 C   0  0  0  0  0  0  0  0  0  0  0  0
   19.0765  -10.8248  -18.0026 O   0  0  0  0  0  0  0  0  0  0  0  0
   20.6304  -15.4238  -16.6495 C   0  0  0  0  0  0  0  0  0  0  0  0
   20.7570  -16.7193  -16.1558 C   0  0  0  0  0  0  0  0  0  0  0  0
   17.9457  -10.4123  -16.0239 N   0  0  0  0  0  0  0  0  0  0  0  0
   17.9020   -8.9731  -16.2346 C   0  0  1  0  0  0  0  0  0  0  0  0
   16.5322   -8.4001  -15.9690 C   0  0  0  0  0  0  0  0  0  0  0  0
   16.6790   -6.5908  -16.0690 S   0  0  0  0  0  0  0  0  0  0  0  0
   18.8485   -8.3159  -15.3047 C   0  0  0  0  0  0  0  0  0  0  0  0
   19.5749   -8.9991  -14.3454 O   0  0  0  0  0  0  0  0  0  0  0  0
   19.0004   -7.0660  -15.3921 O   0  0  0  0  0  0  0  0  0  0  0  0
  1  2  1  0
  2  3  1  0
  3  4  1  6
  5  3  1  0
  5  6  2  0
  7  8  1  0
  8  9  2  0
  8 18  1  0
  9 10  1  0
 10 11  2  0
 11 12  1  0
 13 12  1  6
 13 14  1  0
 13 15  1  0
 14  5  1  0
 15 19  1  0
 16 15  2  0
 17 11  1  0
 18 17  2  0
 19 20  1  0
 20 23  1  0
 21 22  1  0
 20 21  1  1
 23 25  2  0
 23 24  1  0
M  END
$$$$
