SYC.pdb
     RDKit          3D

 25 25  0  0  1  0  0  0  0  0999 V2000
   18.3604  -12.9913  -16.2288 O   0  0  0  0  0  0  0  0  0  0  0  0
   17.9249  -12.1985  -17.2647 C   0  0  0  0  0  0  0  0  0  0  0  0
   18.9264  -12.1277  -18.3976 C   0  0  2  0  0  0  0  0  0  0  0  0
   19.7175  -13.3244  -18.4634 N   0  0  0  0  0  0  0  0  0  0  0  0
   19.8020  -10.9439  -18.2921 C   0  0  0  0  0  0  0  0  0  0  0  0
   21.0313  -11.0800  -18.4693 O   0  0  0  0  0  0  0  0  0  0  0  0
   21.7737   -8.3374  -23.9579 O   0  0  0  0  0  0  0  0  0  0  0  0
   21.2586   -8.1045  -22.6982 C   0  0  0  0  0  0  0  0  0  0  0  0
   21.8394   -7.1643  -21.8837 C   0  0  0  0  0  0  0  0  0  0  0  0
   21.2680   -6.9839  -20.6311 C   0  0  0  0  0  0  0  0  0  0  0  0
   20.1753   -7.7013  -20.2098 C   0  0  0  0  0  0  0  0  0  0  0  0
   19.6122   -7.4739  -18.8833 C   0  0  0  0  0  0  0  0  0  0  0  0
   20.0752   -8.5099  -17.8600 C   0  0  2  0  0  0  0  0  0  0  0  0
   19.2450   -9.6819  -17.9945 N   0  0  0  0  0  0  0  0  0  0  0  0
   19.8240   -7.9066  -16.5340 C   0  0  0  0  0  0  0  0  0  0  0  0
   18.6346   -7.8004  -16.1612 O   0  0  0  0  0  0  0  0  0  0  0  0
   19.6100   -8.6376  -21.0423 C   0  0  0  0  0  0  0  0  0  0  0  0
   20.1643   -8.8375  -22.3036 C   0  0  0  0  0  0  0  0  0  0  0  0
   20.8732   -7.4503  -15.6814 N   0  0  0  0  0  0  0  0  0  0  0  0
   20.6066   -6.9121  -14.3559 C   0  0  1  0  0  0  0  0  0  0  0  0
   21.1819   -7.7784  -13.2633 C   0  0  0  0  0  0  0  0  0  0  0  0
   20.2537   -9.3414  -13.2733 S   0  0  0  0  0  0  0  0  0  0  0  0
   21.2301   -5.5741  -14.2393 C   0  0  0  0  0  0  0  0  0  0  0  0
   21.0672   -4.7489  -13.1406 O   0  0  0  0  0  0  0  0  0  0  0  0
   21.9484   -5.1650  -15.1931 O   0  0  0  0  0  0  0  0  0  0  0  0
  1  2  1  0
  2  3  1  0
  3  4  1  1
  5  3  1  0
  5  6  2  0
  7  8  1  0
  8  9  2  0
  8 18  1  0
  9 10  1  0
 10 11  2  0
 11 12  1  0
 13 12  1  6
 13 14  1  0
 13 15  1  0
 14  5  1  0
 15 19  1  0
 16 15  2  0
 17 11  1  0
 18 17  2  0
 19 20  1  0
 20 23  1  0
 21 22  1  0
 20 21  1  1
 23 25  2  0
 23 24  1  0
M  END
$$$$
