SYC.pdb
     RDKit          3D

 25 25  0  0  1  0  0  0  0  0999 V2000
   28.2464  -19.8692  -18.9043 O   0  0  0  0  0  0  0  0  0  0  0  0
   27.3358  -20.4741  -18.0698 C   0  0  0  0  0  0  0  0  0  0  0  0
   27.9936  -21.4142  -17.0825 C   0  0  2  0  0  0  0  0  0  0  0  0
   28.4507  -22.6098  -17.7335 N   0  0  0  0  0  0  0  0  0  0  0  0
   27.0983  -21.7564  -15.9598 C   0  0  0  0  0  0  0  0  0  0  0  0
   26.4762  -22.8396  -15.9875 O   0  0  0  0  0  0  0  0  0  0  0  0
   23.1751  -21.1115   -8.1495 O   0  0  0  0  0  0  0  0  0  0  0  0
   23.9622  -20.8896   -9.2620 C   0  0  0  0  0  0  0  0  0  0  0  0
   23.4684  -20.1626  -10.3167 C   0  0  0  0  0  0  0  0  0  0  0  0
   24.3161  -19.9798  -11.4011 C   0  0  0  0  0  0  0  0  0  0  0  0
   25.5894  -20.4932  -11.4354 C   0  0  0  0  0  0  0  0  0  0  0  0
   26.4410  -20.2728  -12.5993 C   0  0  0  0  0  0  0  0  0  0  0  0
   26.0431  -21.1381  -13.7941 C   0  0  2  0  0  0  0  0  0  0  0  0
   26.9563  -20.8633  -14.8765 N   0  0  0  0  0  0  0  0  0  0  0  0
   24.6942  -20.6814  -14.1909 C   0  0  0  0  0  0  0  0  0  0  0  0
   24.5784  -19.5072  -14.6066 O   0  0  0  0  0  0  0  0  0  0  0  0
   26.0630  -21.2181  -10.3679 C   0  0  0  0  0  0  0  0  0  0  0  0
   25.2326  -21.4157   -9.2681 C   0  0  0  0  0  0  0  0  0  0  0  0
   23.5419  -21.5197  -14.1169 N   0  0  0  0  0  0  0  0  0  0  0  0
   22.2159  -21.0356  -14.4707 C   0  0  1  0  0  0  0  0  0  0  0  0
   21.7399  -21.5916  -15.7896 C   0  0  0  0  0  0  0  0  0  0  0  0
   22.9810  -21.1430  -17.0401 S   0  0  0  0  0  0  0  0  0  0  0  0
   21.2494  -21.4606  -13.4325 C   0  0  0  0  0  0  0  0  0  0  0  0
   19.9599  -20.9671  -13.3419 O   0  0  0  0  0  0  0  0  0  0  0  0
   21.6222  -22.3187  -12.5853 O   0  0  0  0  0  0  0  0  0  0  0  0
  1  2  1  0
  2  3  1  0
  3  4  1  6
  5  3  1  0
  5  6  2  0
  7  8  1  0
  8  9  2  0
  8 18  1  0
  9 10  1  0
 10 11  2  0
 11 12  1  0
 13 12  1  1
 13 14  1  0
 13 15  1  0
 14  5  1  0
 15 19  1  0
 16 15  2  0
 17 11  1  0
 18 17  2  0
 19 20  1  0
 20 23  1  0
 21 22  1  0
 20 21  1  6
 23 25  2  0
 23 24  1  0
M  END
$$$$
