SYC.pdb
     RDKit          3D

 25 25  0  0  1  0  0  0  0  0999 V2000
   26.1498   -8.2776    8.4558 O   0  0  0  0  0  0  0  0  0  0  0  0
   24.9951   -8.9060    8.8593 C   0  0  0  0  0  0  0  0  0  0  0  0
   23.7839   -8.4455    8.0768 C   0  0  2  0  0  0  0  0  0  0  0  0
   23.3982   -7.1155    8.4573 N   0  0  0  0  0  0  0  0  0  0  0  0
   22.6419   -9.3689    8.2259 C   0  0  0  0  0  0  0  0  0  0  0  0
   21.6598   -9.0145    8.9123 O   0  0  0  0  0  0  0  0  0  0  0  0
   16.1337  -13.9104    5.4106 O   0  0  0  0  0  0  0  0  0  0  0  0
   17.4220  -13.4610    5.6220 C   0  0  0  0  0  0  0  0  0  0  0  0
   17.7631  -12.1750    5.2839 C   0  0  0  0  0  0  0  0  0  0  0  0
   19.0761  -11.7927    5.5249 C   0  0  0  0  0  0  0  0  0  0  0  0
   20.0024  -12.6451    6.0737 C   0  0  0  0  0  0  0  0  0  0  0  0
   21.3702  -12.1944    6.3071 C   0  0  0  0  0  0  0  0  0  0  0  0
   21.5489  -11.5335    7.6732 C   0  0  2  0  0  0  0  0  0  0  0  0
   22.6721  -10.6316    7.5966 N   0  0  0  0  0  0  0  0  0  0  0  0
   21.8882  -12.6270    8.6085 C   0  0  0  0  0  0  0  0  0  0  0  0
   23.0272  -13.1361    8.5166 O   0  0  0  0  0  0  0  0  0  0  0  0
   19.6386  -13.9286    6.4045 C   0  0  0  0  0  0  0  0  0  0  0  0
   18.3279  -14.3366    6.1729 C   0  0  0  0  0  0  0  0  0  0  0  0
   20.9770  -13.1117    9.5937 N   0  0  0  0  0  0  0  0  0  0  0  0
   21.3290  -14.1957   10.4984 C   0  0  1  0  0  0  0  0  0  0  0  0
   21.7625  -13.6899   11.8517 C   0  0  0  0  0  0  0  0  0  0  0  0
   22.2095  -15.1425   12.8493 S   0  0  0  0  0  0  0  0  0  0  0  0
   20.1458  -15.0620   10.7040 C   0  0  0  0  0  0  0  0  0  0  0  0
   20.2280  -16.3870   11.0937 O   0  0  0  0  0  0  0  0  0  0  0  0
   19.0015  -14.5646   10.5134 O   0  0  0  0  0  0  0  0  0  0  0  0
  1  2  1  0
  2  3  1  0
  3  4  1  1
  5  3  1  0
  5  6  2  0
  7  8  1  0
  8  9  2  0
  8 18  1  0
  9 10  1  0
 10 11  2  0
 11 12  1  0
 13 12  1  6
 13 14  1  0
 13 15  1  0
 14  5  1  0
 15 19  1  0
 16 15  2  0
 17 11  1  0
 18 17  2  0
 19 20  1  0
 20 23  1  0
 21 22  1  0
 20 21  1  1
 23 25  2  0
 23 24  1  0
M  END
$$$$
