IPS.pdb
     RDKit          3D

 22 22  0  0  1  0  0  0  0  0999 V2000
   25.2285  -16.8124  -16.9404 C   0  0  0  0  0  0  0  0  0  0  0  0
   25.7939  -18.1588  -16.6976 C   0  0  0  0  0  0  0  0  0  0  0  0
   25.8076  -18.6461  -15.2839 C   0  0  2  0  0  0  0  0  0  0  0  0
   26.7725  -17.6863  -14.5496 C   0  0  0  0  0  0  0  0  0  0  0  0
   26.2765  -20.0358  -15.0654 C   0  0  2  0  0  0  0  0  0  0  0  0
   25.3870  -20.9082  -15.8522 N   0  0  0  0  0  0  0  0  0  0  0  0
   26.3419  -20.5110  -13.6723 C   0  0  0  0  0  0  0  0  0  0  0  0
   25.2384  -20.7294  -13.0584 O   0  0  0  0  0  0  0  0  0  0  0  0
   27.5637  -20.7406  -12.9891 N   0  0  0  0  0  0  0  0  0  0  0  0
   28.8858  -20.6810  -13.6184 C   0  0  0  0  0  0  0  0  0  0  0  0
   29.7568  -21.5279  -12.6820 C   0  0  0  0  0  0  0  0  0  0  0  0
   29.2350  -20.9749  -11.3451 C   0  0  0  0  0  0  0  0  0  0  0  0
   27.7498  -21.0571  -11.6225 C   0  0  1  0  0  0  0  0  0  0  0  0
   27.0215  -20.2364  -10.6420 C   0  0  0  0  0  0  0  0  0  0  0  0
   26.8482  -18.9979  -10.7318 O   0  0  0  0  0  0  0  0  0  0  0  0
   24.8486  -22.0186   -7.5815 O   0  0  0  0  0  0  0  0  0  0  0  0
   24.6423  -20.6786   -7.9017 C   0  0  0  0  0  0  0  0  0  0  0  0
   25.9581  -20.0343   -8.3641 C   0  0  2  0  0  0  0  0  0  0  0  0
   26.4323  -20.8195   -9.4627 N   0  0  0  0  0  0  0  0  0  0  0  0
   26.9271  -19.9881   -7.2472 C   0  0  0  0  0  0  0  0  0  0  0  0
   27.9158  -20.7534   -7.2546 O   0  0  0  0  0  0  0  0  0  0  0  0
   26.7478  -19.1165   -6.2112 O   0  0  0  0  0  0  0  0  0  0  0  0
  2  1  1  0
  2  3  1  0
  3  4  1  1
  5  3  1  0
  5  7  1  0
  5  6  1  6
  7  8  2  0
  9  7  1  0
  9 13  1  0
 10 11  1  0
 10  9  1  0
 11 12  1  0
 12 13  1  0
 13 14  1  1
 14 15  2  0
 16 17  1  0
 18 17  1  1
 18 20  1  0
 19 18  1  0
 19 14  1  0
 20 21  2  0
 20 22  1  0
M  END
$$$$
