IPS.pdb
     RDKit          3D

 22 22  0  0  1  0  0  0  0  0999 V2000
   18.0638  -12.0683  -20.6052 C   0  0  0  0  0  0  0  0  0  0  0  0
   18.8261  -12.5220  -19.4202 C   0  0  0  0  0  0  0  0  0  0  0  0
   19.2955  -11.4682  -18.4688 C   0  0  2  0  0  0  0  0  0  0  0  0
   20.4378  -10.7452  -19.2197 C   0  0  0  0  0  0  0  0  0  0  0  0
   19.8198  -11.9381  -17.1637 C   0  0  2  0  0  0  0  0  0  0  0  0
   18.7411  -12.7203  -16.5343 N   0  0  0  0  0  0  0  0  0  0  0  0
   20.3072  -10.9108  -16.2268 C   0  0  0  0  0  0  0  0  0  0  0  0
   19.4687  -10.0428  -15.7957 O   0  0  0  0  0  0  0  0  0  0  0  0
   21.6522  -10.8453  -15.7808 N   0  0  0  0  0  0  0  0  0  0  0  0
   22.6665  -11.8647  -16.0628 C   0  0  0  0  0  0  0  0  0  0  0  0
   23.6979  -11.6490  -14.9481 C   0  0  0  0  0  0  0  0  0  0  0  0
   23.7506  -10.1128  -14.9989 C   0  0  0  0  0  0  0  0  0  0  0  0
   22.2644   -9.8287  -15.0100 C   0  0  1  0  0  0  0  0  0  0  0  0
   22.0338   -8.4387  -15.4347 C   0  0  0  0  0  0  0  0  0  0  0  0
   22.0520   -8.0400  -16.6231 O   0  0  0  0  0  0  0  0  0  0  0  0
   19.4585   -5.9451  -13.9375 O   0  0  0  0  0  0  0  0  0  0  0  0
   20.2023   -5.7048  -15.0906 C   0  0  0  0  0  0  0  0  0  0  0  0
   21.6863   -6.0127  -14.8394 C   0  0  2  0  0  0  0  0  0  0  0  0
   21.7600   -7.3956  -14.4781 N   0  0  0  0  0  0  0  0  0  0  0  0
   22.2224   -5.1269  -13.7828 C   0  0  0  0  0  0  0  0  0  0  0  0
   22.5582   -5.6124  -12.6806 O   0  0  0  0  0  0  0  0  0  0  0  0
   22.3521   -3.7855  -14.0044 O   0  0  0  0  0  0  0  0  0  0  0  0
  2  1  1  0
  2  3  1  0
  3  4  1  6
  5  3  1  0
  5  7  1  0
  5  6  1  1
  7  8  2  0
  9  7  1  0
  9 13  1  0
 10 11  1  0
 10  9  1  0
 11 12  1  0
 12 13  1  0
 13 14  1  6
 14 15  2  0
 16 17  1  0
 18 17  1  1
 18 20  1  0
 19 18  1  0
 19 14  1  0
 20 21  2  0
 20 22  1  0
M  END
$$$$
