IPS.pdb
     RDKit          3D

 22 22  0  0  1  0  0  0  0  0999 V2000
   26.2657  -11.9009  -16.6961 C   0  0  0  0  0  0  0  0  0  0  0  0
   24.7881  -11.9040  -16.6057 C   0  0  0  0  0  0  0  0  0  0  0  0
   24.1229  -10.6020  -16.2924 C   0  0  2  0  0  0  0  0  0  0  0  0
   24.6311  -10.2342  -14.8789 C   0  0  0  0  0  0  0  0  0  0  0  0
   22.6402  -10.6028  -16.2691 C   0  0  2  0  0  0  0  0  0  0  0  0
   22.1994  -11.1109  -17.5802 N   0  0  0  0  0  0  0  0  0  0  0  0
   21.9727   -9.3223  -15.9767 C   0  0  0  0  0  0  0  0  0  0  0  0
   22.2685   -8.3095  -16.7040 O   0  0  0  0  0  0  0  0  0  0  0  0
   21.0204   -9.1652  -14.9371 N   0  0  0  0  0  0  0  0  0  0  0  0
   20.4191  -10.2754  -14.1930 C   0  0  0  0  0  0  0  0  0  0  0  0
   19.1201   -9.6680  -13.6486 C   0  0  0  0  0  0  0  0  0  0  0  0
   19.6923   -8.3177  -13.1853 C   0  0  0  0  0  0  0  0  0  0  0  0
   20.4815   -7.9607  -14.4260 C   0  0  1  0  0  0  0  0  0  0  0  0
   21.4341   -6.8849  -14.1088 C   0  0  0  0  0  0  0  0  0  0  0  0
   22.6639   -7.0471  -13.9273 O   0  0  0  0  0  0  0  0  0  0  0  0
   23.5344   -3.4027  -15.4629 O   0  0  0  0  0  0  0  0  0  0  0  0
   22.6452   -4.4690  -15.3492 C   0  0  0  0  0  0  0  0  0  0  0  0
   21.9177   -4.4122  -13.9973 C   0  0  2  0  0  0  0  0  0  0  0  0
   21.0053   -5.5148  -13.9789 N   0  0  0  0  0  0  0  0  0  0  0  0
   21.2303   -3.1118  -13.8387 C   0  0  0  0  0  0  0  0  0  0  0  0
   20.0640   -2.9728  -14.2675 O   0  0  0  0  0  0  0  0  0  0  0  0
   21.8611   -2.0657  -13.2282 O   0  0  0  0  0  0  0  0  0  0  0  0
  2  1  1  0
  2  3  1  0
  3  4  1  1
  5  3  1  0
  5  7  1  0
  5  6  1  6
  7  8  2  0
  9  7  1  0
  9 13  1  0
 10 11  1  0
 10  9  1  0
 11 12  1  0
 12 13  1  0
 13 14  1  1
 14 15  2  0
 16 17  1  0
 18 17  1  6
 18 20  1  0
 19 18  1  0
 19 14  1  0
 20 21  2  0
 20 22  1  0
M  END
$$$$
