IPS.pdb
     RDKit          3D

 22 22  0  0  1  0  0  0  0  0999 V2000
   25.4577  -20.6950   -6.5023 C   0  0  0  0  0  0  0  0  0  0  0  0
   26.1387  -20.0818   -7.6648 C   0  0  0  0  0  0  0  0  0  0  0  0
   25.4758  -20.2290   -8.9971 C   0  0  2  0  0  0  0  0  0  0  0  0
   25.3930  -21.7562   -9.2253 C   0  0  0  0  0  0  0  0  0  0  0  0
   26.1734  -19.6216  -10.1562 C   0  0  2  0  0  0  0  0  0  0  0  0
   26.3355  -18.1901   -9.8465 N   0  0  0  0  0  0  0  0  0  0  0  0
   25.5425  -19.7809  -11.4782 C   0  0  0  0  0  0  0  0  0  0  0  0
   24.4086  -19.2175  -11.6758 O   0  0  0  0  0  0  0  0  0  0  0  0
   26.1342  -20.5201  -12.5344 N   0  0  0  0  0  0  0  0  0  0  0  0
   27.4911  -21.0725  -12.4971 C   0  0  0  0  0  0  0  0  0  0  0  0
   27.8409  -21.2401  -13.9810 C   0  0  0  0  0  0  0  0  0  0  0  0
   26.5050  -21.8409  -14.4499 C   0  0  0  0  0  0  0  0  0  0  0  0
   25.5626  -20.8630  -13.7826 C   0  0  1  0  0  0  0  0  0  0  0  0
   24.2038  -21.4276  -13.7620 C   0  0  0  0  0  0  0  0  0  0  0  0
   23.7452  -22.1586  -12.8525 O   0  0  0  0  0  0  0  0  0  0  0  0
   20.2181  -19.7864  -13.4674 O   0  0  0  0  0  0  0  0  0  0  0  0
   21.5755  -19.8746  -13.7682 C   0  0  0  0  0  0  0  0  0  0  0  0
   21.8512  -21.1239  -14.6186 C   0  0  2  0  0  0  0  0  0  0  0  0
   23.2665  -21.1710  -14.8267 N   0  0  0  0  0  0  0  0  0  0  0  0
   21.0987  -21.0553  -15.8904 C   0  0  0  0  0  0  0  0  0  0  0  0
   21.5228  -20.3369  -16.8217 O   0  0  0  0  0  0  0  0  0  0  0  0
   19.9465  -21.7705  -16.0520 O   0  0  0  0  0  0  0  0  0  0  0  0
  2  1  1  0
  2  3  1  0
  3  4  1  6
  5  3  1  0
  5  7  1  0
  5  6  1  1
  7  8  2  0
  9  7  1  0
  9 13  1  0
 10 11  1  0
 10  9  1  0
 11 12  1  0
 12 13  1  0
 13 14  1  1
 14 15  2  0
 16 17  1  0
 18 17  1  1
 18 20  1  0
 19 18  1  0
 19 14  1  0
 20 21  2  0
 20 22  1  0
M  END
$$$$
