IPS.pdb
     RDKit          3D

 22 22  0  0  1  0  0  0  0  0999 V2000
   24.2616  -17.0027  -19.1283 C   0  0  0  0  0  0  0  0  0  0  0  0
   25.1979  -18.0924  -18.7714 C   0  0  0  0  0  0  0  0  0  0  0  0
   25.1068  -18.6401  -17.3830 C   0  0  2  0  0  0  0  0  0  0  0  0
   25.6351  -17.5021  -16.4790 C   0  0  0  0  0  0  0  0  0  0  0  0
   25.8942  -19.8643  -17.0994 C   0  0  2  0  0  0  0  0  0  0  0  0
   25.4161  -20.8977  -18.0347 N   0  0  0  0  0  0  0  0  0  0  0  0
   25.8588  -20.3807  -15.7199 C   0  0  0  0  0  0  0  0  0  0  0  0
   24.7434  -20.8247  -15.2718 O   0  0  0  0  0  0  0  0  0  0  0  0
   26.9984  -20.4123  -14.8757 N   0  0  0  0  0  0  0  0  0  0  0  0
   28.3563  -20.0703  -15.3077 C   0  0  0  0  0  0  0  0  0  0  0  0
   29.2408  -20.7872  -14.2800 C   0  0  0  0  0  0  0  0  0  0  0  0
   28.4459  -20.4162  -13.0167 C   0  0  0  0  0  0  0  0  0  0  0  0
   27.0563  -20.7619  -13.5057 C   0  0  1  0  0  0  0  0  0  0  0  0
   26.0567  -20.1478  -12.6173 C   0  0  0  0  0  0  0  0  0  0  0  0
   25.8643  -18.9146  -12.4990 O   0  0  0  0  0  0  0  0  0  0  0  0
   22.6196  -21.8860  -11.4861 O   0  0  0  0  0  0  0  0  0  0  0  0
   22.9113  -20.5438  -11.2536 C   0  0  0  0  0  0  0  0  0  0  0  0
   24.3604  -20.3916  -10.7669 C   0  0  2  0  0  0  0  0  0  0  0  0
   25.1938  -20.9508  -11.7874 N   0  0  0  0  0  0  0  0  0  0  0  0
   24.5378  -21.0687   -9.4635 C   0  0  0  0  0  0  0  0  0  0  0  0
   25.3125  -22.0461   -9.3750 O   0  0  0  0  0  0  0  0  0  0  0  0
   23.8618  -20.6329   -8.3598 O   0  0  0  0  0  0  0  0  0  0  0  0
  2  1  1  0
  2  3  1  0
  3  4  1  1
  5  3  1  0
  5  7  1  0
  5  6  1  6
  7  8  2  0
  9  7  1  0
  9 13  1  0
 10 11  1  0
 10  9  1  0
 11 12  1  0
 12 13  1  0
 13 14  1  1
 14 15  2  0
 16 17  1  0
 18 17  1  6
 18 20  1  0
 19 18  1  0
 19 14  1  0
 20 21  2  0
 20 22  1  0
M  END
$$$$
