IPS.pdb
     RDKit          3D

 22 22  0  0  1  0  0  0  0  0999 V2000
   20.7022  -21.4741   -9.8521 C   0  0  0  0  0  0  0  0  0  0  0  0
   22.1752  -21.3745   -9.7437 C   0  0  0  0  0  0  0  0  0  0  0  0
   22.8993  -20.7317  -10.8832 C   0  0  2  0  0  0  0  0  0  0  0  0
   22.5606  -21.6133  -12.1078 C   0  0  0  0  0  0  0  0  0  0  0  0
   24.3750  -20.6431  -10.7665 C   0  0  2  0  0  0  0  0  0  0  0  0
   24.6555  -19.9548   -9.4941 N   0  0  0  0  0  0  0  0  0  0  0  0
   25.0967  -19.9791  -11.8661 C   0  0  0  0  0  0  0  0  0  0  0  0
   24.6969  -18.8185  -12.2342 O   0  0  0  0  0  0  0  0  0  0  0  0
   26.2092  -20.5621  -12.5253 N   0  0  0  0  0  0  0  0  0  0  0  0
   26.9740  -21.6994  -12.0063 C   0  0  0  0  0  0  0  0  0  0  0  0
   28.3236  -21.5692  -12.7236 C   0  0  0  0  0  0  0  0  0  0  0  0
   27.7891  -21.2532  -14.1307 C   0  0  0  0  0  0  0  0  0  0  0  0
   26.7819  -20.1855  -13.7633 C   0  0  1  0  0  0  0  0  0  0  0  0
   25.8583  -19.9742  -14.8893 C   0  0  0  0  0  0  0  0  0  0  0  0
   24.8602  -20.6897  -15.1415 O   0  0  0  0  0  0  0  0  0  0  0  0
   25.9091  -16.3907  -16.8090 O   0  0  0  0  0  0  0  0  0  0  0  0
   24.7790  -17.1978  -16.9189 C   0  0  0  0  0  0  0  0  0  0  0  0
   25.1848  -18.6793  -16.9461 C   0  0  2  0  0  0  0  0  0  0  0  0
   26.0418  -18.8878  -15.8188 N   0  0  0  0  0  0  0  0  0  0  0  0
   25.8512  -19.0054  -18.2259 C   0  0  0  0  0  0  0  0  0  0  0  0
   27.0735  -19.2684  -18.2371 O   0  0  0  0  0  0  0  0  0  0  0  0
   25.1402  -19.0207  -19.3919 O   0  0  0  0  0  0  0  0  0  0  0  0
  2  1  1  0
  2  3  1  0
  3  4  1  6
  5  3  1  0
  5  7  1  0
  5  6  1  1
  7  8  2  0
  9  7  1  0
  9 13  1  0
 10 11  1  0
 10  9  1  0
 11 12  1  0
 12 13  1  0
 13 14  1  6
 14 15  2  0
 16 17  1  0
 18 17  1  6
 18 20  1  0
 19 18  1  0
 19 14  1  0
 20 21  2  0
 20 22  1  0
M  END
$$$$
