PSM.pdb
     RDKit          3D

 22 22  0  0  1  0  0  0  0  0999 V2000
   27.7471  -19.9126  -15.5079 N   0  0  0  0  0  0  0  0  0  0  0  0
   28.2769  -19.3776  -16.7417 C   0  0  0  0  0  0  0  0  0  0  0  0
   28.6228  -17.9121  -16.4741 C   0  0  0  0  0  0  0  0  0  0  0  0
   27.8731  -17.6533  -15.1573 C   0  0  0  0  0  0  0  0  0  0  0  0
   28.1469  -18.9798  -14.4741 C   0  0  1  0  0  0  0  0  0  0  0  0
   27.3834  -19.1657  -13.2373 C   0  0  0  0  0  0  0  0  0  0  0  0
   27.5532  -18.3380  -12.3079 O   0  0  0  0  0  0  0  0  0  0  0  0
   24.5628  -22.1047  -12.8116 O   0  0  0  0  0  0  0  0  0  0  0  0
   24.2286  -20.8700  -12.2466 C   0  0  0  0  0  0  0  0  0  0  0  0
   25.5082  -20.1242  -11.9578 C   0  0  2  0  0  0  0  0  0  0  0  0
   26.4639  -20.2195  -13.0176 N   0  0  0  0  0  0  0  0  0  0  0  0
   26.0374  -20.6846  -10.6740 C   0  0  0  0  0  0  0  0  0  0  0  0
   26.6660  -21.7669  -10.7464 O   0  0  0  0  0  0  0  0  0  0  0  0
   30.0291  -19.6887   -5.2480 C   0  0  0  0  0  0  0  0  0  0  0  0
   28.2876  -19.3457   -4.8786 S   0  0  0  0  0  0  0  0  0  0  0  0
   27.2472  -20.4087   -5.9201 C   0  0  0  0  0  0  0  0  0  0  0  0
   26.9309  -19.7723   -7.2503 C   0  0  0  0  0  0  0  0  0  0  0  0
   26.1122  -20.6534   -8.1575 C   0  0  2  0  0  0  0  0  0  0  0  0
   25.8434  -20.0315   -9.4271 N   0  0  0  0  0  0  0  0  0  0  0  0
   24.8836  -21.1815   -7.5214 C   0  0  0  0  0  0  0  0  0  0  0  0
   24.9748  -21.9324   -6.4938 O   0  0  0  0  0  0  0  0  0  0  0  0
   23.6018  -20.9143   -7.9702 O   0  0  0  0  0  0  0  0  0  0  0  0
  1  5  1  0
  2  1  1  0
  3  2  1  0
  3  4  1  0
  4  5  1  0
  5  6  1  1
  6 11  1  0
  7  6  2  0
  8  9  1  0
 10 11  1  0
 10  9  1  6
 12 10  1  0
 12 19  1  0
 13 12  2  0
 15 14  1  0
 16 15  1  0
 17 16  1  0
 18 19  1  0
 18 17  1  1
 20 18  1  0
 21 20  2  0
 22 20  1  0
M  END
$$$$
