PSM.pdb
     RDKit          3D

 22 22  0  0  1  0  0  0  0  0999 V2000
   19.4827  -12.5901  -17.2307 N   0  0  0  0  0  0  0  0  0  0  0  0
   19.1744  -13.8644  -17.8392 C   0  0  0  0  0  0  0  0  0  0  0  0
   19.2700  -13.6649  -19.3525 C   0  0  0  0  0  0  0  0  0  0  0  0
   19.2601  -12.1318  -19.4632 C   0  0  0  0  0  0  0  0  0  0  0  0
   20.1327  -11.8106  -18.2645 C   0  0  1  0  0  0  0  0  0  0  0  0
   20.1701  -10.3826  -17.9381 C   0  0  0  0  0  0  0  0  0  0  0  0
   21.1691   -9.7176  -18.3090 O   0  0  0  0  0  0  0  0  0  0  0  0
   17.4923   -8.3237  -15.4230 O   0  0  0  0  0  0  0  0  0  0  0  0
   18.0068   -7.6458  -16.5325 C   0  0  0  0  0  0  0  0  0  0  0  0
   19.3034   -8.3089  -16.9279 C   0  0  2  0  0  0  0  0  0  0  0  0
   19.1529   -9.6988  -17.2297 N   0  0  0  0  0  0  0  0  0  0  0  0
   20.2519   -8.0816  -15.7918 C   0  0  0  0  0  0  0  0  0  0  0  0
   20.7076   -9.1019  -15.2234 O   0  0  0  0  0  0  0  0  0  0  0  0
   24.8225  -10.5122  -14.7739 C   0  0  0  0  0  0  0  0  0  0  0  0
   23.5126   -9.4655  -15.4635 S   0  0  0  0  0  0  0  0  0  0  0  0
   24.0575   -7.7342  -15.4114 C   0  0  0  0  0  0  0  0  0  0  0  0
   23.0062   -6.7882  -15.9353 C   0  0  0  0  0  0  0  0  0  0  0  0
   21.9506   -6.4413  -14.9180 C   0  0  2  0  0  0  0  0  0  0  0  0
   20.6257   -6.7779  -15.3682 N   0  0  0  0  0  0  0  0  0  0  0  0
   22.0370   -5.0478  -14.4246 C   0  0  0  0  0  0  0  0  0  0  0  0
   21.3420   -4.1342  -14.9818 O   0  0  0  0  0  0  0  0  0  0  0  0
   22.8395   -4.6467  -13.3707 O   0  0  0  0  0  0  0  0  0  0  0  0
  1  5  1  0
  2  1  1  0
  3  2  1  0
  3  4  1  0
  4  5  1  0
  5  6  1  1
  6 11  1  0
  7  6  2  0
  8  9  1  0
 10 11  1  0
 10  9  1  1
 12 10  1  0
 12 19  1  0
 13 12  2  0
 15 14  1  0
 16 15  1  0
 17 16  1  0
 18 19  1  0
 18 17  1  6
 20 18  1  0
 21 20  2  0
 22 20  1  0
M  END
$$$$
