PSM.pdb
     RDKit          3D

 22 22  0  0  1  0  0  0  0  0999 V2000
   21.2255  -21.2850  -14.3879 N   0  0  0  0  0  0  0  0  0  0  0  0
   22.3424  -20.6017  -15.0001 C   0  0  0  0  0  0  0  0  0  0  0  0
   22.3374  -19.1729  -14.4549 C   0  0  0  0  0  0  0  0  0  0  0  0
   20.9306  -19.0807  -13.8426 C   0  0  0  0  0  0  0  0  0  0  0  0
   20.8484  -20.4740  -13.2482 C   0  0  1  0  0  0  0  0  0  0  0  0
   19.5149  -20.8144  -12.7453 C   0  0  0  0  0  0  0  0  0  0  0  0
   19.0825  -20.1880  -11.7461 O   0  0  0  0  0  0  0  0  0  0  0  0
   17.0357  -23.8803  -14.1892 O   0  0  0  0  0  0  0  0  0  0  0  0
   16.4352  -22.6954  -13.7524 C   0  0  0  0  0  0  0  0  0  0  0  0
   17.3705  -22.0281  -12.7742 C   0  0  2  0  0  0  0  0  0  0  0  0
   18.6774  -21.8057  -13.3111 N   0  0  0  0  0  0  0  0  0  0  0  0
   17.4045  -22.9073  -11.5627 C   0  0  0  0  0  0  0  0  0  0  0  0
   18.4718  -23.5281  -11.3448 O   0  0  0  0  0  0  0  0  0  0  0  0
   18.0560  -25.7221   -5.2753 C   0  0  0  0  0  0  0  0  0  0  0  0
   18.1581  -24.6882   -6.7610 S   0  0  0  0  0  0  0  0  0  0  0  0
   16.5713  -23.8364   -6.9925 C   0  0  0  0  0  0  0  0  0  0  0  0
   16.5407  -23.0194   -8.2599 C   0  0  0  0  0  0  0  0  0  0  0  0
   16.3065  -23.8432   -9.4992 C   0  0  2  0  0  0  0  0  0  0  0  0
   16.2882  -23.0409  -10.6939 N   0  0  0  0  0  0  0  0  0  0  0  0
   15.1277  -24.7345   -9.4055 C   0  0  0  0  0  0  0  0  0  0  0  0
   14.0366  -24.4044   -9.9789 O   0  0  0  0  0  0  0  0  0  0  0  0
   15.1178  -25.9379   -8.7217 O   0  0  0  0  0  0  0  0  0  0  0  0
  1  5  1  0
  2  1  1  0
  3  2  1  0
  3  4  1  0
  4  5  1  0
  5  6  1  6
  6 11  1  0
  7  6  2  0
  8  9  1  0
 10 11  1  0
 10  9  1  6
 12 10  1  0
 12 19  1  0
 13 12  2  0
 15 14  1  0
 16 15  1  0
 17 16  1  0
 18 19  1  0
 18 17  1  1
 20 18  1  0
 21 20  2  0
 22 20  1  0
M  END
$$$$
