PSM.pdb
     RDKit          3D

 22 22  0  0  1  0  0  0  0  0999 V2000
   15.1076  -23.8536    0.3471 N   0  0  0  0  0  0  0  0  0  0  0  0
   14.8581  -24.6580   -0.8275 C   0  0  0  0  0  0  0  0  0  0  0  0
   14.6454  -23.6870   -1.9897 C   0  0  0  0  0  0  0  0  0  0  0  0
   14.4185  -22.3607   -1.2466 C   0  0  0  0  0  0  0  0  0  0  0  0
   15.4494  -22.5355   -0.1475 C   0  0  1  0  0  0  0  0  0  0  0  0
   15.3631  -21.5135    0.8990 C   0  0  0  0  0  0  0  0  0  0  0  0
   15.7380  -20.3478    0.6191 O   0  0  0  0  0  0  0  0  0  0  0  0
   13.9774  -19.9308    5.2254 O   0  0  0  0  0  0  0  0  0  0  0  0
   14.1964  -21.0853    4.4674 C   0  0  0  0  0  0  0  0  0  0  0  0
   14.7883  -20.6716    3.1425 C   0  0  2  0  0  0  0  0  0  0  0  0
   14.8843  -21.7517    2.2099 N   0  0  0  0  0  0  0  0  0  0  0  0
   16.1274  -20.0769    3.4509 C   0  0  0  0  0  0  0  0  0  0  0  0
   17.0712  -20.8793    3.6439 O   0  0  0  0  0  0  0  0  0  0  0  0
   20.6664  -18.0680    0.3464 C   0  0  0  0  0  0  0  0  0  0  0  0
   20.6243  -16.6052    1.4166 S   0  0  0  0  0  0  0  0  0  0  0  0
   19.6885  -17.0058    2.9203 C   0  0  0  0  0  0  0  0  0  0  0  0
   18.3866  -17.7030    2.6145 C   0  0  0  0  0  0  0  0  0  0  0  0
   17.6009  -18.0736    3.8453 C   0  0  2  0  0  0  0  0  0  0  0  0
   16.3323  -18.6728    3.5245 N   0  0  0  0  0  0  0  0  0  0  0  0
   17.4667  -16.9665    4.8195 C   0  0  0  0  0  0  0  0  0  0  0  0
   16.3661  -16.3261    4.9031 O   0  0  0  0  0  0  0  0  0  0  0  0
   18.4760  -16.5595    5.6747 O   0  0  0  0  0  0  0  0  0  0  0  0
  1  5  1  0
  2  1  1  0
  3  2  1  0
  3  4  1  0
  4  5  1  0
  5  6  1  1
  6 11  1  0
  7  6  2  0
  8  9  1  0
 10 11  1  0
 10  9  1  1
 12 10  1  0
 12 19  1  0
 13 12  2  0
 15 14  1  0
 16 15  1  0
 17 16  1  0
 18 19  1  0
 18 17  1  6
 20 18  1  0
 21 20  2  0
 22 20  1  0
M  END
$$$$
