PSM.pdb
     RDKit          3D

 22 22  0  0  1  0  0  0  0  0999 V2000
   16.3373  -11.2539  -15.4769 N   0  0  0  0  0  0  0  0  0  0  0  0
   16.1234  -12.4306  -16.2885 C   0  0  0  0  0  0  0  0  0  0  0  0
   16.4567  -13.6379  -15.4108 C   0  0  0  0  0  0  0  0  0  0  0  0
   17.2174  -12.9759  -14.2507 C   0  0  0  0  0  0  0  0  0  0  0  0
   16.3714  -11.7249  -14.1072 C   0  0  1  0  0  0  0  0  0  0  0  0
   16.9493  -10.7331  -13.1965 C   0  0  0  0  0  0  0  0  0  0  0  0
   17.0217  -11.0225  -11.9764 O   0  0  0  0  0  0  0  0  0  0  0  0
   19.1980   -6.6213  -12.1669 O   0  0  0  0  0  0  0  0  0  0  0  0
   18.7060   -7.4046  -13.2155 C   0  0  0  0  0  0  0  0  0  0  0  0
   17.9037   -8.5355  -12.6202 C   0  0  2  0  0  0  0  0  0  0  0  0
   17.4332   -9.4652  -13.5999 N   0  0  0  0  0  0  0  0  0  0  0  0
   16.7778   -7.8974  -11.8670 C   0  0  0  0  0  0  0  0  0  0  0  0
   15.7786   -7.5441  -12.5367 O   0  0  0  0  0  0  0  0  0  0  0  0
   11.2341   -7.9300   -6.7712 C   0  0  0  0  0  0  0  0  0  0  0  0
   12.6388   -8.7527   -7.5691 S   0  0  0  0  0  0  0  0  0  0  0  0
   13.7473   -7.4879   -8.2535 C   0  0  0  0  0  0  0  0  0  0  0  0
   14.9368   -8.0909   -8.9578 C   0  0  0  0  0  0  0  0  0  0  0  0
   15.7627   -7.0817   -9.7121 C   0  0  2  0  0  0  0  0  0  0  0  0
   16.8268   -7.6960  -10.4614 N   0  0  0  0  0  0  0  0  0  0  0  0
   16.2440   -5.9615   -8.8716 C   0  0  0  0  0  0  0  0  0  0  0  0
   17.4814   -5.8819   -8.5703 O   0  0  0  0  0  0  0  0  0  0  0  0
   15.4286   -4.9612   -8.3716 O   0  0  0  0  0  0  0  0  0  0  0  0
  1  5  1  0
  2  1  1  0
  3  2  1  0
  3  4  1  0
  4  5  1  0
  5  6  1  1
  6 11  1  0
  7  6  2  0
  8  9  1  0
 10 11  1  0
 10  9  1  6
 12 10  1  0
 12 19  1  0
 13 12  2  0
 15 14  1  0
 16 15  1  0
 17 16  1  0
 18 19  1  0
 18 17  1  1
 20 18  1  0
 21 20  2  0
 22 20  1  0
M  END
$$$$
