PSM.pdb
     RDKit          3D

 22 22  0  0  1  0  0  0  0  0999 V2000
   23.4194  -12.1635  -17.4539 N   0  0  0  0  0  0  0  0  0  0  0  0
   24.5428  -13.0285  -17.1733 C   0  0  0  0  0  0  0  0  0  0  0  0
   25.1017  -12.5989  -15.8161 C   0  0  0  0  0  0  0  0  0  0  0  0
   24.4347  -11.2269  -15.6276 C   0  0  0  0  0  0  0  0  0  0  0  0
   23.0640  -11.5607  -16.1854 C   0  0  1  0  0  0  0  0  0  0  0  0
   22.2027  -10.3873  -16.3536 C   0  0  0  0  0  0  0  0  0  0  0  0
   22.4235   -9.6271  -17.3288 O   0  0  0  0  0  0  0  0  0  0  0  0
   19.3446   -9.1776  -13.6139 O   0  0  0  0  0  0  0  0  0  0  0  0
   19.1046   -8.7899  -14.9358 C   0  0  0  0  0  0  0  0  0  0  0  0
   20.4156   -8.8293  -15.6818 C   0  0  2  0  0  0  0  0  0  0  0  0
   21.1345  -10.0504  -15.4877 N   0  0  0  0  0  0  0  0  0  0  0  0
   21.1965   -7.6393  -15.2170 C   0  0  0  0  0  0  0  0  0  0  0  0
   22.0718   -7.8441  -14.3430 O   0  0  0  0  0  0  0  0  0  0  0  0
   26.1542   -5.4209  -16.9592 C   0  0  0  0  0  0  0  0  0  0  0  0
   25.3455   -3.7983  -16.9665 S   0  0  0  0  0  0  0  0  0  0  0  0
   23.8562   -3.8811  -15.9309 C   0  0  0  0  0  0  0  0  0  0  0  0
   22.9851   -5.0629  -16.2759 C   0  0  0  0  0  0  0  0  0  0  0  0
   21.7740   -5.1946  -15.3897 C   0  0  2  0  0  0  0  0  0  0  0  0
   20.9667   -6.3355  -15.7329 N   0  0  0  0  0  0  0  0  0  0  0  0
   20.9740   -3.9525  -15.2894 C   0  0  0  0  0  0  0  0  0  0  0  0
   19.8850   -3.8457  -15.9457 O   0  0  0  0  0  0  0  0  0  0  0  0
   21.3279   -2.8628  -14.5129 O   0  0  0  0  0  0  0  0  0  0  0  0
  1  5  1  0
  2  1  1  0
  3  2  1  0
  3  4  1  0
  4  5  1  0
  5  6  1  6
  6 11  1  0
  7  6  2  0
  8  9  1  0
 10 11  1  0
 10  9  1  1
 12 10  1  0
 12 19  1  0
 13 12  2  0
 15 14  1  0
 16 15  1  0
 17 16  1  0
 18 19  1  0
 18 17  1  6
 20 18  1  0
 21 20  2  0
 22 20  1  0
M  END
$$$$
