TAV.pdb
     RDKit          3D

 20 19  0  0  1  0  0  0  0  0999 V2000
   14.6563  -10.5071  -14.5536 C   0  0  0  0  0  0  0  0  0  0  0  0
   14.7541  -12.0164  -14.7937 C   0  0  1  0  0  0  0  0  0  0  0  0
   13.5710  -12.6649  -14.5017 O   0  0  0  0  0  0  0  0  0  0  0  0
   15.1584  -12.2076  -16.2504 C   0  0  2  0  0  0  0  0  0  0  0  0
   15.2005  -13.6239  -16.5382 N   0  0  0  0  0  0  0  0  0  0  0  0
   16.5010  -11.6319  -16.4836 C   0  0  0  0  0  0  0  0  0  0  0  0
   17.5186  -12.2861  -16.1809 O   0  0  0  0  0  0  0  0  0  0  0  0
   18.1003   -8.6800  -18.2277 C   0  0  0  0  0  0  0  0  0  0  0  0
   18.0465   -9.8578  -17.2840 C   0  0  2  0  0  0  0  0  0  0  0  0
   16.7212  -10.3422  -17.0475 N   0  0  0  0  0  0  0  0  0  0  0  0
   18.7291   -9.4636  -16.0088 C   0  0  0  0  0  0  0  0  0  0  0  0
   18.0801   -8.9734  -15.0575 O   0  0  0  0  0  0  0  0  0  0  0  0
   23.1687   -9.5705  -15.4424 C   0  0  0  0  0  0  0  0  0  0  0  0
   22.1172   -9.9845  -14.4645 C   0  0  1  0  0  0  0  0  0  0  0  0
   22.5813   -9.8359  -13.0534 C   0  0  0  0  0  0  0  0  0  0  0  0
   20.8024   -9.2628  -14.6606 C   0  0  2  0  0  0  0  0  0  0  0  0
   20.1287   -9.6397  -15.8563 N   0  0  0  0  0  0  0  0  0  0  0  0
   20.9489   -7.7968  -14.5004 C   0  0  0  0  0  0  0  0  0  0  0  0
   21.0354   -7.2800  -13.2183 O   0  0  0  0  0  0  0  0  0  0  0  0
   21.0021   -6.9713  -15.4424 O   0  0  0  0  0  0  0  0  0  0  0  0
  2  1  1  6
  2  3  1  0
  4  5  1  1
  4  2  1  0
  6 10  1  0
  6  4  1  0
  7  6  2  0
  9 10  1  0
  9  8  1  6
 11  9  1  0
 12 11  2  0
 14 13  1  6
 14 15  1  0
 16 17  1  6
 16 14  1  0
 17 11  1  0
 18 16  1  0
 19 18  1  0
 20 18  2  0
M  END
$$$$
