TAV.pdb
     RDKit          3D

 20 19  0  0  1  0  0  0  0  0999 V2000
   19.3886  -11.6245  -19.6207 C   0  0  0  0  0  0  0  0  0  0  0  0
   18.7592  -12.8947  -19.0414 C   0  0  1  0  0  0  0  0  0  0  0  0
   18.2779  -13.7309  -20.0286 O   0  0  0  0  0  0  0  0  0  0  0  0
   19.8309  -13.5748  -18.1981 C   0  0  2  0  0  0  0  0  0  0  0  0
   19.2910  -14.8062  -17.6665 N   0  0  0  0  0  0  0  0  0  0  0  0
   20.2218  -12.6984  -17.0722 C   0  0  0  0  0  0  0  0  0  0  0  0
   19.3450  -12.2053  -16.3353 O   0  0  0  0  0  0  0  0  0  0  0  0
   23.3199  -11.4868  -15.2677 C   0  0  0  0  0  0  0  0  0  0  0  0
   21.8802  -11.4338  -15.7205 C   0  0  2  0  0  0  0  0  0  0  0  0
   21.5719  -12.3674  -16.7598 N   0  0  0  0  0  0  0  0  0  0  0  0
   21.5733  -10.0250  -16.1311 C   0  0  0  0  0  0  0  0  0  0  0  0
   21.9063   -9.5974  -17.2593 O   0  0  0  0  0  0  0  0  0  0  0  0
   18.7035   -8.5072  -17.1323 C   0  0  0  0  0  0  0  0  0  0  0  0
   19.1289   -7.6272  -16.0020 C   0  0  1  0  0  0  0  0  0  0  0  0
   18.2523   -7.7967  -14.8054 C   0  0  0  0  0  0  0  0  0  0  0  0
   20.5801   -7.8102  -15.6164 C   0  0  2  0  0  0  0  0  0  0  0  0
   20.8972   -9.1470  -15.2449 N   0  0  0  0  0  0  0  0  0  0  0  0
   21.0186   -6.8001  -14.6246 C   0  0  0  0  0  0  0  0  0  0  0  0
   21.1523   -5.4853  -15.0390 O   0  0  0  0  0  0  0  0  0  0  0  0
   21.2832   -7.0387  -13.4226 O   0  0  0  0  0  0  0  0  0  0  0  0
  2  1  1  6
  2  3  1  0
  4  5  1  1
  4  2  1  0
  6 10  1  0
  6  4  1  0
  7  6  2  0
  9 10  1  0
  9  8  1  6
 11  9  1  0
 12 11  2  0
 14 13  1  6
 14 15  1  0
 16 17  1  1
 16 14  1  0
 17 11  1  0
 18 16  1  0
 19 18  1  0
 20 18  2  0
M  END
$$$$
