TAV.pdb
     RDKit          3D

 20 19  0  0  1  0  0  0  0  0999 V2000
   19.2290   -8.8386  -19.1016 C   0  0  0  0  0  0  0  0  0  0  0  0
   18.2272   -9.8309  -18.5043 C   0  0  1  0  0  0  0  0  0  0  0  0
   17.5070  -10.4905  -19.4799 O   0  0  0  0  0  0  0  0  0  0  0  0
   19.0252  -10.7993  -17.6397 C   0  0  2  0  0  0  0  0  0  0  0  0
   18.1346  -11.8292  -17.1532 N   0  0  0  0  0  0  0  0  0  0  0  0
   19.6071  -10.0844  -16.4826 C   0  0  0  0  0  0  0  0  0  0  0  0
   18.8708   -9.4136  -15.7325 O   0  0  0  0  0  0  0  0  0  0  0  0
   22.9299   -9.6508  -14.7058 C   0  0  0  0  0  0  0  0  0  0  0  0
   21.5137   -9.2996  -15.0949 C   0  0  2  0  0  0  0  0  0  0  0  0
   20.9932  -10.1087  -16.1538 N   0  0  0  0  0  0  0  0  0  0  0  0
   21.4743   -7.8412  -15.4402 C   0  0  0  0  0  0  0  0  0  0  0  0
   21.7458   -7.4470  -16.5967 O   0  0  0  0  0  0  0  0  0  0  0  0
   19.9422   -3.3137  -14.8636 C   0  0  0  0  0  0  0  0  0  0  0  0
   19.8537   -4.7967  -14.7019 C   0  0  1  0  0  0  0  0  0  0  0  0
   18.9463   -5.4129  -15.7146 C   0  0  0  0  0  0  0  0  0  0  0  0
   21.2025   -5.4811  -14.7242 C   0  0  2  0  0  0  0  0  0  0  0  0
   21.1273   -6.8773  -14.4585 N   0  0  0  0  0  0  0  0  0  0  0  0
   22.1950   -4.7709  -13.8834 C   0  0  0  0  0  0  0  0  0  0  0  0
   22.5083   -5.3028  -12.6435 O   0  0  0  0  0  0  0  0  0  0  0  0
   22.7847   -3.7123  -14.2046 O   0  0  0  0  0  0  0  0  0  0  0  0
  2  1  1  6
  2  3  1  0
  4  5  1  1
  4  2  1  0
  6 10  1  0
  6  4  1  0
  7  6  2  0
  9 10  1  0
  9  8  1  6
 11  9  1  0
 12 11  2  0
 14 13  1  6
 14 15  1  0
 16 17  1  1
 16 14  1  0
 17 11  1  0
 18 16  1  0
 19 18  1  0
 20 18  2  0
M  END
$$$$
