TAV.pdb
     RDKit          3D

 20 19  0  0  1  0  0  0  0  0999 V2000
   16.0038  -14.7374  -15.5925 C   0  0  0  0  0  0  0  0  0  0  0  0
   16.2718  -13.3780  -16.2447 C   0  0  1  0  0  0  0  0  0  0  0  0
   15.2346  -12.9842  -17.0660 O   0  0  0  0  0  0  0  0  0  0  0  0
   16.5060  -12.3833  -15.1143 C   0  0  2  0  0  0  0  0  0  0  0  0
   15.2520  -12.1507  -14.4335 N   0  0  0  0  0  0  0  0  0  0  0  0
   16.9981  -11.1002  -15.6622 C   0  0  0  0  0  0  0  0  0  0  0  0
   18.1365  -11.0360  -16.1670 O   0  0  0  0  0  0  0  0  0  0  0  0
   15.8188   -7.5185  -16.1403 C   0  0  0  0  0  0  0  0  0  0  0  0
   16.7942   -8.6713  -16.1478 C   0  0  2  0  0  0  0  0  0  0  0  0
   16.2395   -9.8942  -15.6541 N   0  0  0  0  0  0  0  0  0  0  0  0
   18.0079   -8.2588  -15.3705 C   0  0  0  0  0  0  0  0  0  0  0  0
   18.0614   -8.4180  -14.1302 O   0  0  0  0  0  0  0  0  0  0  0  0
   21.9042   -7.7999  -17.1980 C   0  0  0  0  0  0  0  0  0  0  0  0
   21.5269   -8.0872  -15.7809 C   0  0  1  0  0  0  0  0  0  0  0  0
   22.6649   -7.8512  -14.8439 C   0  0  0  0  0  0  0  0  0  0  0  0
   20.3052   -7.3225  -15.3216 C   0  0  2  0  0  0  0  0  0  0  0  0
   19.1225   -7.6780  -16.0290 N   0  0  0  0  0  0  0  0  0  0  0  0
   20.5530   -5.8620  -15.2785 C   0  0  0  0  0  0  0  0  0  0  0  0
   21.3816   -5.3638  -14.2868 O   0  0  0  0  0  0  0  0  0  0  0  0
   20.0682   -5.0255  -16.0766 O   0  0  0  0  0  0  0  0  0  0  0  0
  2  1  1  1
  2  3  1  0
  4  5  1  6
  4  2  1  0
  6 10  1  0
  6  4  1  0
  7  6  2  0
  9 10  1  0
  9  8  1  1
 11  9  1  0
 12 11  2  0
 14 13  1  6
 14 15  1  0
 16 17  1  6
 16 14  1  0
 17 11  1  0
 18 16  1  0
 19 18  1  0
 20 18  2  0
M  END
$$$$
