TAV.pdb
     RDKit          3D

 20 19  0  0  1  0  0  0  0  0999 V2000
   23.0167  -21.1575  -12.7837 C   0  0  0  0  0  0  0  0  0  0  0  0
   23.3803  -20.6411  -11.3887 C   0  0  1  0  0  0  0  0  0  0  0  0
   22.5716  -21.1816  -10.4092 O   0  0  0  0  0  0  0  0  0  0  0  0
   24.8482  -20.9804  -11.1597 C   0  0  2  0  0  0  0  0  0  0  0  0
   25.2079  -20.5991   -9.8123 N   0  0  0  0  0  0  0  0  0  0  0  0
   25.6963  -20.2301  -12.1118 C   0  0  0  0  0  0  0  0  0  0  0  0
   25.9485  -19.0267  -11.9041 O   0  0  0  0  0  0  0  0  0  0  0  0
   28.1583  -20.8799  -14.8556 C   0  0  0  0  0  0  0  0  0  0  0  0
   27.1307  -20.0421  -14.1326 C   0  0  2  0  0  0  0  0  0  0  0  0
   26.2638  -20.8031  -13.2864 N   0  0  0  0  0  0  0  0  0  0  0  0
   26.3623  -19.2624  -15.1569 C   0  0  0  0  0  0  0  0  0  0  0  0
   25.3605  -19.7561  -15.7217 O   0  0  0  0  0  0  0  0  0  0  0  0
   24.6004  -15.9967  -14.6677 C   0  0  0  0  0  0  0  0  0  0  0  0
   25.5490  -15.8346  -15.8109 C   0  0  1  0  0  0  0  0  0  0  0  0
   26.7357  -15.0102  -15.4358 C   0  0  0  0  0  0  0  0  0  0  0  0
   25.9952  -17.1511  -16.4076 C   0  0  2  0  0  0  0  0  0  0  0  0
   26.7582  -17.9453  -15.5061 N   0  0  0  0  0  0  0  0  0  0  0  0
   26.6424  -16.9667  -17.7279 C   0  0  0  0  0  0  0  0  0  0  0  0
   25.8362  -16.7303  -18.8291 O   0  0  0  0  0  0  0  0  0  0  0  0
   27.8780  -17.0073  -17.9361 O   0  0  0  0  0  0  0  0  0  0  0  0
  2  1  1  6
  2  3  1  0
  4  5  1  1
  4  2  1  0
  6 10  1  0
  6  4  1  0
  7  6  2  0
  9 10  1  0
  9  8  1  6
 11  9  1  0
 12 11  2  0
 14 13  1  1
 14 15  1  0
 16 17  1  1
 16 14  1  0
 17 11  1  0
 18 16  1  0
 19 18  1  0
 20 18  2  0
M  END
$$$$
