TAV.pdb
     RDKit          3D

 20 19  0  0  1  0  0  0  0  0999 V2000
   26.0232  -21.7948  -18.0530 C   0  0  0  0  0  0  0  0  0  0  0  0
   27.4559  -22.3347  -18.0835 C   0  0  1  0  0  0  0  0  0  0  0  0
   27.7966  -22.8295  -19.3263 O   0  0  0  0  0  0  0  0  0  0  0  0
   28.3693  -21.1902  -17.6615 C   0  0  2  0  0  0  0  0  0  0  0  0
   29.7276  -21.6811  -17.5946 N   0  0  0  0  0  0  0  0  0  0  0  0
   27.9742  -20.6925  -16.3256 C   0  0  0  0  0  0  0  0  0  0  0  0
   28.2933  -21.3332  -15.3045 O   0  0  0  0  0  0  0  0  0  0  0  0
   26.3735  -17.6317  -14.7559 C   0  0  0  0  0  0  0  0  0  0  0  0
   26.9367  -19.0323  -14.7945 C   0  0  2  0  0  0  0  0  0  0  0  0
   27.2314  -19.4949  -16.1159 N   0  0  0  0  0  0  0  0  0  0  0  0
   25.9739  -19.9404  -14.0904 C   0  0  0  0  0  0  0  0  0  0  0  0
   25.0735  -20.5370  -14.7228 O   0  0  0  0  0  0  0  0  0  0  0  0
   26.9063  -21.8228  -10.4950 C   0  0  0  0  0  0  0  0  0  0  0  0
   25.5279  -21.2506  -10.5699 C   0  0  1  0  0  0  0  0  0  0  0  0
   25.3705  -20.0619   -9.6805 C   0  0  0  0  0  0  0  0  0  0  0  0
   25.0994  -20.9084  -11.9797 C   0  0  2  0  0  0  0  0  0  0  0  0
   26.0659  -20.1410  -12.6888 N   0  0  0  0  0  0  0  0  0  0  0  0
   23.7377  -20.3248  -12.0157 C   0  0  0  0  0  0  0  0  0  0  0  0
   22.6534  -21.1739  -11.8679 O   0  0  0  0  0  0  0  0  0  0  0  0
   23.4797  -19.1079  -12.1712 O   0  0  0  0  0  0  0  0  0  0  0  0
  2  1  1  6
  2  3  1  0
  4  5  1  1
  4  2  1  0
  6 10  1  0
  6  4  1  0
  7  6  2  0
  9 10  1  0
  9  8  1  6
 11  9  1  0
 12 11  2  0
 14 13  1  6
 14 15  1  0
 16 17  1  1
 16 14  1  0
 17 11  1  0
 18 16  1  0
 19 18  1  0
 20 18  2  0
M  END
$$$$
