TAV.pdb
     RDKit          3D

 20 19  0  0  1  0  0  0  0  0999 V2000
   15.6168  -10.4752  -14.8734 C   0  0  0  0  0  0  0  0  0  0  0  0
   16.0180  -11.6805  -15.7286 C   0  0  1  0  0  0  0  0  0  0  0  0
   15.0729  -12.6856  -15.6830 O   0  0  0  0  0  0  0  0  0  0  0  0
   16.2274  -11.1663  -17.1477 C   0  0  2  0  0  0  0  0  0  0  0  0
   16.5004  -12.2915  -18.0135 N   0  0  0  0  0  0  0  0  0  0  0  0
   17.3816  -10.2417  -17.1866 C   0  0  0  0  0  0  0  0  0  0  0  0
   18.5417  -10.6926  -17.1096 O   0  0  0  0  0  0  0  0  0  0  0  0
   18.0994   -6.5391  -17.6451 C   0  0  0  0  0  0  0  0  0  0  0  0
   18.4158   -7.9888  -17.3640 C   0  0  2  0  0  0  0  0  0  0  0  0
   17.2581   -8.8277  -17.3100 N   0  0  0  0  0  0  0  0  0  0  0  0
   19.2083   -8.0539  -16.0931 C   0  0  0  0  0  0  0  0  0  0  0  0
   18.6368   -8.0752  -14.9798 O   0  0  0  0  0  0  0  0  0  0  0  0
   23.2454   -9.4958  -13.7954 C   0  0  0  0  0  0  0  0  0  0  0  0
   22.4857   -9.2844  -15.0647 C   0  0  1  0  0  0  0  0  0  0  0  0
   21.9168  -10.5603  -15.5910 C   0  0  0  0  0  0  0  0  0  0  0  0
   21.3991   -8.2391  -14.9429 C   0  0  2  0  0  0  0  0  0  0  0  0
   20.6262   -8.0929  -16.1291 N   0  0  0  0  0  0  0  0  0  0  0  0
   21.9238   -6.9571  -14.4163 C   0  0  0  0  0  0  0  0  0  0  0  0
   21.9028   -5.8472  -15.2446 O   0  0  0  0  0  0  0  0  0  0  0  0
   22.3928   -6.7893  -13.2659 O   0  0  0  0  0  0  0  0  0  0  0  0
  2  1  1  1
  2  3  1  0
  4  5  1  6
  4  2  1  0
  6 10  1  0
  6  4  1  0
  7  6  2  0
  9 10  1  0
  9  8  1  1
 11  9  1  0
 12 11  2  0
 14 13  1  1
 14 15  1  0
 16 17  1  6
 16 14  1  0
 17 11  1  0
 18 16  1  0
 19 18  1  0
 20 18  2  0
M  END
$$$$
