TAV.pdb
     RDKit          3D

 20 19  0  0  1  0  0  0  0  0999 V2000
   21.5254  -11.8140  -20.4911 C   0  0  0  0  0  0  0  0  0  0  0  0
   20.6210  -13.0089  -20.1761 C   0  0  1  0  0  0  0  0  0  0  0  0
   20.3849  -13.7878  -21.2910 O   0  0  0  0  0  0  0  0  0  0  0  0
   21.3041  -13.8011  -19.0680 C   0  0  2  0  0  0  0  0  0  0  0  0
   20.5148  -14.9791  -18.7855 N   0  0  0  0  0  0  0  0  0  0  0  0
   21.3952  -12.9806  -17.8404 C   0  0  0  0  0  0  0  0  0  0  0  0
   20.3582  -12.5226  -17.3209 O   0  0  0  0  0  0  0  0  0  0  0  0
   23.9643  -11.8459  -15.2955 C   0  0  0  0  0  0  0  0  0  0  0  0
   22.6495  -11.8169  -16.0379 C   0  0  2  0  0  0  0  0  0  0  0  0
   22.6226  -12.6666  -17.1886 N   0  0  0  0  0  0  0  0  0  0  0  0
   22.3472  -10.3921  -16.3929 C   0  0  0  0  0  0  0  0  0  0  0  0
   22.8288   -9.8706  -17.4237 O   0  0  0  0  0  0  0  0  0  0  0  0
   19.5284   -8.9468  -17.6573 C   0  0  0  0  0  0  0  0  0  0  0  0
   19.7802   -8.1060  -16.4479 C   0  0  1  0  0  0  0  0  0  0  0  0
   18.7713   -8.3572  -15.3765 C   0  0  0  0  0  0  0  0  0  0  0  0
   21.1794   -8.2604  -15.8942 C   0  0  2  0  0  0  0  0  0  0  0  0
   21.5063   -9.6056  -15.5637 N   0  0  0  0  0  0  0  0  0  0  0  0
   21.4478   -7.2994  -14.7985 C   0  0  0  0  0  0  0  0  0  0  0  0
   21.5733   -5.9571  -15.1161 O   0  0  0  0  0  0  0  0  0  0  0  0
   21.5731   -7.6033  -13.5887 O   0  0  0  0  0  0  0  0  0  0  0  0
  2  1  1  6
  2  3  1  0
  4  5  1  1
  4  2  1  0
  6 10  1  0
  6  4  1  0
  7  6  2  0
  9 10  1  0
  9  8  1  6
 11  9  1  0
 12 11  2  0
 14 13  1  6
 14 15  1  0
 16 17  1  1
 16 14  1  0
 17 11  1  0
 18 16  1  0
 19 18  1  0
 20 18  2  0
M  END
$$$$
