TAV.pdb
     RDKit          3D

 20 19  0  0  1  0  0  0  0  0999 V2000
   16.8374  -10.4085  -17.7427 C   0  0  0  0  0  0  0  0  0  0  0  0
   16.7967  -11.6091  -16.7929 C   0  0  1  0  0  0  0  0  0  0  0  0
   16.3622  -12.7561  -17.4262 O   0  0  0  0  0  0  0  0  0  0  0  0
   18.2020  -11.7741  -16.2274 C   0  0  2  0  0  0  0  0  0  0  0  0
   18.2390  -12.9715  -15.4180 N   0  0  0  0  0  0  0  0  0  0  0  0
   18.5466  -10.6122  -15.3788 C   0  0  0  0  0  0  0  0  0  0  0  0
   17.7566  -10.2358  -14.4904 O   0  0  0  0  0  0  0  0  0  0  0  0
   21.4162   -8.2836  -14.6226 C   0  0  0  0  0  0  0  0  0  0  0  0
   19.9616   -8.6625  -14.7681 C   0  0  2  0  0  0  0  0  0  0  0  0
   19.7554   -9.8693  -15.5084 N   0  0  0  0  0  0  0  0  0  0  0  0
   19.2383   -7.5030  -15.3843 C   0  0  0  0  0  0  0  0  0  0  0  0
   19.1097   -7.4121  -16.6259 O   0  0  0  0  0  0  0  0  0  0  0  0
   16.0156   -3.8471  -15.0160 C   0  0  0  0  0  0  0  0  0  0  0  0
   16.6691   -5.0883  -14.5009 C   0  0  1  0  0  0  0  0  0  0  0  0
   15.7856   -6.2829  -14.6461 C   0  0  0  0  0  0  0  0  0  0  0  0
   18.0185   -5.3573  -15.1294 C   0  0  2  0  0  0  0  0  0  0  0  0
   18.6841   -6.4832  -14.5681 N   0  0  0  0  0  0  0  0  0  0  0  0
   18.8575   -4.1366  -15.1774 C   0  0  0  0  0  0  0  0  0  0  0  0
   18.7778   -3.3266  -16.2980 O   0  0  0  0  0  0  0  0  0  0  0  0
   19.6461   -3.7691  -14.2748 O   0  0  0  0  0  0  0  0  0  0  0  0
  2  1  1  6
  2  3  1  0
  4  5  1  1
  4  2  1  0
  6 10  1  0
  6  4  1  0
  7  6  2  0
  9 10  1  0
  9  8  1  6
 11  9  1  0
 12 11  2  0
 14 13  1  6
 14 15  1  0
 16 17  1  1
 16 14  1  0
 17 11  1  0
 18 16  1  0
 19 18  1  0
 20 18  2  0
M  END
$$$$
