VAM.pdb
     RDKit          3D

 21 20  0  0  1  0  0  0  0  0999 V2000
   17.9216  -11.3382  -15.9454 C   0  0  0  0  0  0  0  0  0  0  0  0
   17.9686  -10.6401  -14.6103 C   0  0  2  0  0  0  0  0  0  0  0  0
   17.6699  -11.6248  -13.5076 C   0  0  0  0  0  0  0  0  0  0  0  0
   17.0287   -9.4722  -14.5356 C   0  0  2  0  0  0  0  0  0  0  0  0
   17.0361   -8.6713  -15.7299 N   0  0  0  0  0  0  0  0  0  0  0  0
   17.2333   -8.6596  -13.3098 C   0  0  0  0  0  0  0  0  0  0  0  0
   17.1338   -9.2126  -12.1833 O   0  0  0  0  0  0  0  0  0  0  0  0
   18.2085   -5.1120  -12.5913 C   0  0  0  0  0  0  0  0  0  0  0  0
   17.6771   -6.4732  -12.1390 C   0  0  2  0  0  0  0  0  0  0  0  0
   17.5379   -7.2803  -13.3297 N   0  0  0  0  0  0  0  0  0  0  0  0
   16.4018   -6.2535  -11.4410 C   0  0  0  0  0  0  0  0  0  0  0  0
   15.3416   -6.1938  -12.0870 O   0  0  0  0  0  0  0  0  0  0  0  0
   13.6078   -9.6505   -7.2634 C   0  0  0  0  0  0  0  0  0  0  0  0
   12.5765   -8.1681   -7.2798 S   0  0  0  0  0  0  0  0  0  0  0  0
   13.5476   -6.7124   -7.6927 C   0  0  0  0  0  0  0  0  0  0  0  0
   14.7121   -6.9082   -8.5633 C   0  0  0  0  0  0  0  0  0  0  0  0
   15.1192   -5.7322   -9.3681 C   0  0  2  0  0  0  0  0  0  0  0  0
   16.3899   -6.1120  -10.0433 N   0  0  0  0  0  0  0  0  0  0  0  0
   15.4338   -4.5348   -8.6034 C   0  0  0  0  0  0  0  0  0  0  0  0
   16.6693   -4.2893   -8.3291 O   0  0  0  0  0  0  0  0  0  0  0  0
   14.5218   -3.5948   -8.1281 O   0  0  0  0  0  0  0  0  0  0  0  0
  2  1  1  6
  3  2  1  0
  4  2  1  0
  4  5  1  6
  6  4  1  0
  6  7  2  0
  9  8  1  6
  9 11  1  0
  9 10  1  0
 10  6  1  0
 11 18  1  0
 12 11  2  0
 14 13  1  0
 15 14  1  0
 16 15  1  0
 17 16  1  1
 18 17  1  0
 19 17  1  0
 20 19  2  0
 21 19  1  0
M  END
$$$$
