VAM.pdb
     RDKit          3D

 21 20  0  0  1  0  0  0  0  0999 V2000
   16.8273   -9.6462  -17.0540 C   0  0  0  0  0  0  0  0  0  0  0  0
   17.7305  -10.7463  -17.5499 C   0  0  2  0  0  0  0  0  0  0  0  0
   16.9457  -11.7021  -18.4133 C   0  0  0  0  0  0  0  0  0  0  0  0
   18.4061  -11.4869  -16.4327 C   0  0  2  0  0  0  0  0  0  0  0  0
   17.4967  -12.2979  -15.6691 N   0  0  0  0  0  0  0  0  0  0  0  0
   19.2220  -10.5920  -15.5735 C   0  0  0  0  0  0  0  0  0  0  0  0
   18.6536   -9.9196  -14.6738 O   0  0  0  0  0  0  0  0  0  0  0  0
   22.8576   -9.9664  -15.0245 C   0  0  0  0  0  0  0  0  0  0  0  0
   21.4031   -9.4998  -14.9427 C   0  0  2  0  0  0  0  0  0  0  0  0
   20.6208  -10.4458  -15.7055 N   0  0  0  0  0  0  0  0  0  0  0  0
   21.3343   -8.1324  -15.4787 C   0  0  0  0  0  0  0  0  0  0  0  0
   21.1947   -7.9496  -16.7003 O   0  0  0  0  0  0  0  0  0  0  0  0
   17.7815   -1.4992  -15.3182 C   0  0  0  0  0  0  0  0  0  0  0  0
   18.0427   -3.1508  -14.6363 S   0  0  0  0  0  0  0  0  0  0  0  0
   19.6829   -3.7640  -15.0440 C   0  0  0  0  0  0  0  0  0  0  0  0
   19.9595   -5.1770  -14.7621 C   0  0  0  0  0  0  0  0  0  0  0  0
   21.3039   -5.6609  -15.1559 C   0  0  2  0  0  0  0  0  0  0  0  0
   21.4270   -7.0373  -14.6035 N   0  0  0  0  0  0  0  0  0  0  0  0
   22.4212   -4.9192  -14.5909 C   0  0  0  0  0  0  0  0  0  0  0  0
   22.8485   -5.2510  -13.4207 O   0  0  0  0  0  0  0  0  0  0  0  0
   23.1033   -3.8655  -15.1955 O   0  0  0  0  0  0  0  0  0  0  0  0
  2  1  1  1
  3  2  1  0
  4  2  1  0
  4  5  1  1
  6  4  1  0
  6  7  2  0
  9  8  1  6
  9 11  1  0
  9 10  1  0
 10  6  1  0
 11 18  1  0
 12 11  2  0
 14 13  1  0
 15 14  1  0
 16 15  1  0
 17 16  1  1
 18 17  1  0
 19 17  1  0
 20 19  2  0
 21 19  1  0
M  END
$$$$
