AQC.pdb
     RDKit          3D

 21 20  0  0  1  0  0  0  0  0999 V2000
    8.0577  -12.3109   19.6968 C   0  0  0  0  0  0  0  0  0  0  0  0
    8.2578  -13.7997   19.5822 C   0  0  2  0  0  0  0  0  0  0  0  0
    7.2665  -14.2805   18.6102 N   0  0  0  0  0  0  0  0  0  0  0  0
    8.0153  -14.5117   20.8472 C   0  0  0  0  0  0  0  0  0  0  0  0
    6.7994  -14.7111   21.1641 O   0  0  0  0  0  0  0  0  0  0  0  0
   10.7953  -19.1782   23.1861 N   0  0  0  0  0  0  0  0  0  0  0  0
   10.1921  -18.7788   24.3955 C   0  0  0  0  0  0  0  0  0  0  0  0
   10.4143  -19.4672   25.4177 O   0  0  0  0  0  0  0  0  0  0  0  0
    9.3087  -17.5542   24.4313 C   0  0  0  0  0  0  0  0  0  0  0  0
    9.4622  -16.8601   23.1191 C   0  0  0  0  0  0  0  0  0  0  0  0
    8.6807  -15.5735   23.0296 C   0  0  2  0  0  0  0  0  0  0  0  0
    9.0114  -14.9800   21.7171 N   0  0  0  0  0  0  0  0  0  0  0  0
    9.0079  -14.6298   24.1002 C   0  0  0  0  0  0  0  0  0  0  0  0
   10.1523  -14.1446   24.1915 O   0  0  0  0  0  0  0  0  0  0  0  0
    8.0373  -14.2414   25.0609 N   0  0  0  0  0  0  0  0  0  0  0  0
    8.3796  -13.3835   26.1873 C   0  0  1  0  0  0  0  0  0  0  0  0
    7.2743  -12.3666   26.3229 C   0  0  0  0  0  0  0  0  0  0  0  0
    5.6739  -13.1505   26.5888 S   0  0  0  0  0  0  0  0  0  0  0  0
    8.5459  -14.1597   27.4329 C   0  0  0  0  0  0  0  0  0  0  0  0
    9.0513  -13.6318   28.5964 O   0  0  0  0  0  0  0  0  0  0  0  0
    8.2031  -15.3692   27.4176 O   0  0  0  0  0  0  0  0  0  0  0  0
  2  1  1  1
  3  2  1  0
  4  2  1  0
  4  5  2  0
  6  7  1  0
  7  9  1  0
  8  7  2  0
  9 10  1  0
 11 10  1  1
 11 12  1  0
 12  4  1  0
 13 11  1  0
 13 15  1  0
 14 13  2  0
 16 15  1  0
 16 19  1  0
 17 18  1  0
 16 17  1  1
 19 21  2  0
 19 20  1  0
M  END
$$$$
