AQC.pdb
     RDKit          3D

 21 20  0  0  1  0  0  0  0  0999 V2000
   13.6913  -19.4443   16.4659 C   0  0  0  0  0  0  0  0  0  0  0  0
   12.2058  -19.6845   16.3940 C   0  0  2  0  0  0  0  0  0  0  0  0
   11.6679  -18.6942   15.4513 N   0  0  0  0  0  0  0  0  0  0  0  0
   11.5268  -19.4789   17.6835 C   0  0  0  0  0  0  0  0  0  0  0  0
   11.1732  -18.2877   17.9570 O   0  0  0  0  0  0  0  0  0  0  0  0
    9.0225  -23.9015   21.1057 N   0  0  0  0  0  0  0  0  0  0  0  0
    8.7206  -22.8226   21.9607 C   0  0  0  0  0  0  0  0  0  0  0  0
    8.0681  -23.0636   23.0020 O   0  0  0  0  0  0  0  0  0  0  0  0
    9.1814  -21.4279   21.6092 C   0  0  0  0  0  0  0  0  0  0  0  0
    9.9108  -21.5175   20.3103 C   0  0  0  0  0  0  0  0  0  0  0  0
   10.4958  -20.2018   19.8624 C   0  0  2  0  0  0  0  0  0  0  0  0
   11.2448  -20.4846   18.6201 N   0  0  0  0  0  0  0  0  0  0  0  0
   11.3882  -19.6043   20.8575 C   0  0  0  0  0  0  0  0  0  0  0  0
   12.5939  -19.9179   20.8992 O   0  0  0  0  0  0  0  0  0  0  0  0
   10.9101  -18.6554   21.7992 N   0  0  0  0  0  0  0  0  0  0  0  0
   11.7934  -18.0475   22.7852 C   0  0  1  0  0  0  0  0  0  0  0  0
   11.0631  -16.8621   23.3645 C   0  0  0  0  0  0  0  0  0  0  0  0
   11.2846  -15.3838   22.3585 S   0  0  0  0  0  0  0  0  0  0  0  0
   12.1742  -19.0074   23.8413 C   0  0  0  0  0  0  0  0  0  0  0  0
   13.3284  -18.9075   24.5799 O   0  0  0  0  0  0  0  0  0  0  0  0
   11.3923  -19.9652   24.0696 O   0  0  0  0  0  0  0  0  0  0  0  0
  2  1  1  1
  3  2  1  0
  4  2  1  0
  4  5  2  0
  6  7  1  0
  7  9  1  0
  8  7  2  0
  9 10  1  0
 11 10  1  1
 11 12  1  0
 12  4  1  0
 13 11  1  0
 13 15  1  0
 14 13  2  0
 16 15  1  0
 16 19  1  0
 17 18  1  0
 16 17  1  1
 19 21  2  0
 19 20  1  0
M  END
$$$$
