AQC.pdb
     RDKit          3D

 21 20  0  0  1  0  0  0  0  0999 V2000
   10.4553  -19.9196   19.4409 C   0  0  0  0  0  0  0  0  0  0  0  0
   10.3884  -18.7881   18.4485 C   0  0  2  0  0  0  0  0  0  0  0  0
   11.4867  -19.0024   17.4963 N   0  0  0  0  0  0  0  0  0  0  0  0
   10.5928  -17.4682   19.0665 C   0  0  0  0  0  0  0  0  0  0  0  0
   11.7955  -17.0641   19.1610 O   0  0  0  0  0  0  0  0  0  0  0  0
    6.4991  -13.0504   19.0818 N   0  0  0  0  0  0  0  0  0  0  0  0
    7.2430  -13.5362   17.9879 C   0  0  0  0  0  0  0  0  0  0  0  0
    6.8235  -13.2856   16.8350 O   0  0  0  0  0  0  0  0  0  0  0  0
    8.5043  -14.3323   18.2257 C   0  0  0  0  0  0  0  0  0  0  0  0
    8.7023  -14.4163   19.7025 C   0  0  0  0  0  0  0  0  0  0  0  0
    9.8633  -15.2927   20.1000 C   0  0  2  0  0  0  0  0  0  0  0  0
    9.5743  -16.6345   19.5522 N   0  0  0  0  0  0  0  0  0  0  0  0
   10.0474  -15.3752   21.5502 C   0  0  0  0  0  0  0  0  0  0  0  0
    9.1408  -15.0171   22.3270 O   0  0  0  0  0  0  0  0  0  0  0  0
   11.2567  -15.8627   22.1119 N   0  0  0  0  0  0  0  0  0  0  0  0
   11.4192  -16.0236   23.5506 C   0  0  1  0  0  0  0  0  0  0  0  0
   10.3533  -16.9849   24.0131 C   0  0  0  0  0  0  0  0  0  0  0  0
    9.1612  -16.1871   25.1034 S   0  0  0  0  0  0  0  0  0  0  0  0
   12.7682  -16.5171   23.8950 C   0  0  0  0  0  0  0  0  0  0  0  0
   13.2508  -16.5775   25.1800 O   0  0  0  0  0  0  0  0  0  0  0  0
   13.5078  -16.9006   22.9535 O   0  0  0  0  0  0  0  0  0  0  0  0
  2  1  1  1
  3  2  1  0
  4  2  1  0
  4  5  2  0
  6  7  1  0
  7  9  1  0
  8  7  2  0
  9 10  1  0
 11 10  1  1
 11 12  1  0
 12  4  1  0
 13 11  1  0
 13 15  1  0
 14 13  2  0
 16 15  1  0
 16 19  1  0
 17 18  1  0
 16 17  1  6
 19 21  2  0
 19 20  1  0
M  END
$$$$
