AQC.pdb
     RDKit          3D

 21 20  0  0  1  0  0  0  0  0999 V2000
    8.0660  -12.4459   18.8083 C   0  0  0  0  0  0  0  0  0  0  0  0
    8.4644  -13.8974   18.8721 C   0  0  2  0  0  0  0  0  0  0  0  0
    7.7273  -14.5801   17.8000 N   0  0  0  0  0  0  0  0  0  0  0  0
    8.0912  -14.5410   20.1419 C   0  0  0  0  0  0  0  0  0  0  0  0
    6.9260  -15.0482   20.2021 O   0  0  0  0  0  0  0  0  0  0  0  0
   10.7525  -18.7596   23.0166 N   0  0  0  0  0  0  0  0  0  0  0  0
   11.4925  -17.5680   22.8798 C   0  0  0  0  0  0  0  0  0  0  0  0
   12.7414  -17.6434   22.9313 O   0  0  0  0  0  0  0  0  0  0  0  0
   10.7772  -16.2532   22.6781 C   0  0  0  0  0  0  0  0  0  0  0  0
    9.3140  -16.5456   22.6509 C   0  0  0  0  0  0  0  0  0  0  0  0
    8.4611  -15.3100   22.5094 C   0  0  2  0  0  0  0  0  0  0  0  0
    8.9135  -14.6353   21.2748 N   0  0  0  0  0  0  0  0  0  0  0  0
    8.5815  -14.3983   23.6487 C   0  0  0  0  0  0  0  0  0  0  0  0
    9.3879  -13.4483   23.6195 O   0  0  0  0  0  0  0  0  0  0  0  0
    7.7883  -14.5678   24.8138 N   0  0  0  0  0  0  0  0  0  0  0  0
    7.9320  -13.6916   25.9687 C   0  0  1  0  0  0  0  0  0  0  0  0
    6.6941  -12.8324   26.0310 C   0  0  0  0  0  0  0  0  0  0  0  0
    6.6788  -11.7879   27.4990 S   0  0  0  0  0  0  0  0  0  0  0  0
    8.1109  -14.4603   27.2172 C   0  0  0  0  0  0  0  0  0  0  0  0
    8.7322  -13.9601   28.3360 O   0  0  0  0  0  0  0  0  0  0  0  0
    7.6668  -15.6360   27.2480 O   0  0  0  0  0  0  0  0  0  0  0  0
  2  1  1  1
  3  2  1  0
  4  2  1  0
  4  5  2  0
  6  7  1  0
  7  9  1  0
  8  7  2  0
  9 10  1  0
 11 10  1  1
 11 12  1  0
 12  4  1  0
 13 11  1  0
 13 15  1  0
 14 13  2  0
 16 15  1  0
 16 19  1  0
 17 18  1  0
 16 17  1  1
 19 21  2  0
 19 20  1  0
M  END
$$$$
