AQC.pdb
     RDKit          3D

 21 20  0  0  1  0  0  0  0  0999 V2000
    8.1077  -12.4092   19.3286 C   0  0  0  0  0  0  0  0  0  0  0  0
    8.3226  -13.8987   19.2579 C   0  0  2  0  0  0  0  0  0  0  0  0
    7.3009  -14.4249   18.3426 N   0  0  0  0  0  0  0  0  0  0  0  0
    8.1385  -14.5686   20.5554 C   0  0  0  0  0  0  0  0  0  0  0  0
    6.9456  -14.8771   20.8724 O   0  0  0  0  0  0  0  0  0  0  0  0
   11.9097  -18.4196   23.2219 N   0  0  0  0  0  0  0  0  0  0  0  0
   10.9164  -18.7601   22.2819 C   0  0  0  0  0  0  0  0  0  0  0  0
   11.0282  -19.8520   21.6792 O   0  0  0  0  0  0  0  0  0  0  0  0
    9.7625  -17.8194   22.0274 C   0  0  0  0  0  0  0  0  0  0  0  0
    9.9723  -16.6192   22.8891 C   0  0  0  0  0  0  0  0  0  0  0  0
    8.8933  -15.5772   22.7340 C   0  0  2  0  0  0  0  0  0  0  0  0
    9.1662  -14.8875   21.4556 N   0  0  0  0  0  0  0  0  0  0  0  0
    8.8736  -14.6065   23.8299 C   0  0  0  0  0  0  0  0  0  0  0  0
    9.7964  -13.7791   23.9622 O   0  0  0  0  0  0  0  0  0  0  0  0
    7.8094  -14.5785   24.7692 N   0  0  0  0  0  0  0  0  0  0  0  0
    7.8067  -13.6499   25.8915 C   0  0  1  0  0  0  0  0  0  0  0  0
    6.5018  -12.8955   25.8404 C   0  0  0  0  0  0  0  0  0  0  0  0
    6.2988  -11.8140   27.2671 S   0  0  0  0  0  0  0  0  0  0  0  0
    7.9662  -14.3526   27.1809 C   0  0  0  0  0  0  0  0  0  0  0  0
    7.8033  -15.7083   27.3336 O   0  0  0  0  0  0  0  0  0  0  0  0
    8.2677  -13.6635   28.1882 O   0  0  0  0  0  0  0  0  0  0  0  0
  2  1  1  1
  3  2  1  0
  4  2  1  0
  4  5  2  0
  6  7  1  0
  7  9  1  0
  8  7  2  0
  9 10  1  0
 11 10  1  1
 11 12  1  0
 12  4  1  0
 13 11  1  0
 13 15  1  0
 14 13  2  0
 16 15  1  0
 16 19  1  0
 17 18  1  0
 16 17  1  1
 19 21  2  0
 19 20  1  0
M  END
$$$$
