AQC.pdb
     RDKit          3D

 21 20  0  0  1  0  0  0  0  0999 V2000
    8.7843  -19.4920   20.0068 C   0  0  0  0  0  0  0  0  0  0  0  0
    8.4306  -18.4581   18.9696 C   0  0  2  0  0  0  0  0  0  0  0  0
    9.1086  -18.8613   17.7301 N   0  0  0  0  0  0  0  0  0  0  0  0
    8.9094  -17.1099   19.3149 C   0  0  0  0  0  0  0  0  0  0  0  0
   10.0878  -16.8110   18.9397 O   0  0  0  0  0  0  0  0  0  0  0  0
    8.9989  -12.5377   18.3562 N   0  0  0  0  0  0  0  0  0  0  0  0
    7.8383  -13.2032   17.9134 C   0  0  0  0  0  0  0  0  0  0  0  0
    7.6028  -13.2174   16.6836 O   0  0  0  0  0  0  0  0  0  0  0  0
    6.9226  -13.8711   18.9118 C   0  0  0  0  0  0  0  0  0  0  0  0
    7.6099  -13.8334   20.2360 C   0  0  0  0  0  0  0  0  0  0  0  0
    8.7437  -14.8213   20.3482 C   0  0  2  0  0  0  0  0  0  0  0  0
    8.1732  -16.1438   20.0170 N   0  0  0  0  0  0  0  0  0  0  0  0
    9.3414  -14.8566   21.6843 C   0  0  0  0  0  0  0  0  0  0  0  0
    9.5974  -13.7999   22.2938 O   0  0  0  0  0  0  0  0  0  0  0  0
    9.6456  -16.0880   22.3221 N   0  0  0  0  0  0  0  0  0  0  0  0
   10.1535  -16.1354   23.6866 C   0  0  1  0  0  0  0  0  0  0  0  0
    9.1398  -15.4424   24.5620 C   0  0  0  0  0  0  0  0  0  0  0  0
    9.6200  -15.4791   26.2983 S   0  0  0  0  0  0  0  0  0  0  0  0
   10.3843  -17.5239   24.1344 C   0  0  0  0  0  0  0  0  0  0  0  0
   11.4064  -17.8919   24.9757 O   0  0  0  0  0  0  0  0  0  0  0  0
    9.5967  -18.4107   23.7173 O   0  0  0  0  0  0  0  0  0  0  0  0
  2  1  1  1
  3  2  1  0
  4  2  1  0
  4  5  2  0
  6  7  1  0
  7  9  1  0
  8  7  2  0
  9 10  1  0
 11 10  1  1
 11 12  1  0
 12  4  1  0
 13 11  1  0
 13 15  1  0
 14 13  2  0
 16 15  1  0
 16 19  1  0
 17 18  1  0
 16 17  1  1
 19 21  2  0
 19 20  1  0
M  END
$$$$
