KLF.pdb
     RDKit          3D

 29 29  0  0  1  0  0  0  0  0999 V2000
    8.3937  -18.9794   20.9188 N   0  0  0  0  0  0  0  0  0  0  0  0
    9.6965  -18.5767   20.4207 C   0  0  1  0  0  0  0  0  0  0  0  0
    9.7538  -18.6212   18.9296 C   0  0  0  0  0  0  0  0  0  0  0  0
    9.1584  -19.9190   18.4470 C   0  0  0  0  0  0  0  0  0  0  0  0
    9.1819  -20.0667   16.9617 C   0  0  0  0  0  0  0  0  0  0  0  0
    8.5250  -21.4011   16.5791 C   0  0  0  0  0  0  0  0  0  0  0  0
    8.5301  -21.5635   15.1331 N   0  0  0  0  0  0  0  0  0  0  0  0
   10.0639  -17.2188   20.9481 C   0  0  0  0  0  0  0  0  0  0  0  0
   11.2544  -16.8601   20.7829 O   0  0  0  0  0  0  0  0  0  0  0  0
    9.0626  -13.2264   19.6902 C   0  0  0  0  0  0  0  0  0  0  0  0
    7.9050  -13.8712   20.4758 C   0  0  2  0  0  0  0  0  0  0  0  0
    6.7506  -12.9129   20.3209 C   0  0  0  0  0  0  0  0  0  0  0  0
    8.4014  -14.0437   21.8654 C   0  0  0  0  0  0  0  0  0  0  0  0
    9.4499  -15.0730   22.0845 C   0  0  2  0  0  0  0  0  0  0  0  0
    9.1284  -16.3752   21.5997 N   0  0  0  0  0  0  0  0  0  0  0  0
    9.7781  -15.0970   23.5500 C   0  0  0  0  0  0  0  0  0  0  0  0
   10.5650  -14.2793   24.0898 O   0  0  0  0  0  0  0  0  0  0  0  0
    9.1878  -16.0768   24.3909 N   0  0  0  0  0  0  0  0  0  0  0  0
    9.4358  -16.1124   25.8284 C   0  0  1  0  0  0  0  0  0  0  0  0
    8.1815  -15.9470   26.6134 C   0  0  0  0  0  0  0  0  0  0  0  0
    7.4934  -14.6576   26.4293 C   0  0  0  0  0  0  0  0  0  0  0  0
    7.9595  -13.4798   26.9848 C   0  0  0  0  0  0  0  0  0  0  0  0
    7.3360  -12.2806   26.8118 C   0  0  0  0  0  0  0  0  0  0  0  0
    6.1884  -12.1757   26.0620 C   0  0  0  0  0  0  0  0  0  0  0  0
    5.6959  -13.3509   25.4896 C   0  0  0  0  0  0  0  0  0  0  0  0
    6.3384  -14.5558   25.6740 C   0  0  0  0  0  0  0  0  0  0  0  0
   10.0819  -17.3933   26.1554 C   0  0  0  0  0  0  0  0  0  0  0  0
   10.3559  -18.2899   25.1334 O   0  0  0  0  0  0  0  0  0  0  0  0
   10.4026  -17.7178   27.3397 O   0  0  0  0  0  0  0  0  0  0  0  0
  2  1  1  6
  2  3  1  0
  3  4  1  0
  5  4  1  0
  5  6  1  0
  7  6  1  0
  8  9  2  0
  8  2  1  0
 11 10  1  6
 11 13  1  0
 12 11  1  0
 14 13  1  1
 14 16  1  0
 14 15  1  0
 15  8  1  0
 16 18  1  0
 17 16  2  0
 18 19  1  0
 19 20  1  1
 20 21  1  0
 21 26  2  0
 21 22  1  0
 22 23  2  0
 23 24  1  0
 25 24  2  0
 26 25  1  0
 27 19  1  0
 28 27  1  0
 29 27  2  0
M  END
$$$$
