KLF.pdb
     RDKit          3D

 29 29  0  0  1  0  0  0  0  0999 V2000
    9.8757  -17.7276   17.5344 N   0  0  0  0  0  0  0  0  0  0  0  0
   10.0541  -18.3445   18.8364 C   0  0  1  0  0  0  0  0  0  0  0  0
   11.1825  -19.3220   18.8327 C   0  0  0  0  0  0  0  0  0  0  0  0
   10.7427  -20.5926   19.5138 C   0  0  0  0  0  0  0  0  0  0  0  0
   11.8078  -21.6373   19.5658 C   0  0  0  0  0  0  0  0  0  0  0  0
   11.2375  -22.9038   20.2211 C   0  0  0  0  0  0  0  0  0  0  0  0
   11.0817  -23.9538   19.2257 N   0  0  0  0  0  0  0  0  0  0  0  0
   10.2358  -17.2941   19.8950 C   0  0  0  0  0  0  0  0  0  0  0  0
   11.4172  -16.9602   20.1520 O   0  0  0  0  0  0  0  0  0  0  0  0
    8.6002  -13.0720   20.1953 C   0  0  0  0  0  0  0  0  0  0  0  0
    7.5746  -14.1557   20.5784 C   0  0  2  0  0  0  0  0  0  0  0  0
    6.2810  -13.4085   20.7865 C   0  0  0  0  0  0  0  0  0  0  0  0
    8.1200  -14.8244   21.7876 C   0  0  0  0  0  0  0  0  0  0  0  0
    9.2937  -15.7144   21.5951 C   0  0  2  0  0  0  0  0  0  0  0  0
    9.1424  -16.7015   20.5768 N   0  0  0  0  0  0  0  0  0  0  0  0
    9.6265  -16.3377   22.9205 C   0  0  0  0  0  0  0  0  0  0  0  0
    8.8188  -17.0547   23.5629 O   0  0  0  0  0  0  0  0  0  0  0  0
   10.9048  -16.1257   23.5006 N   0  0  0  0  0  0  0  0  0  0  0  0
   11.0637  -15.7102   24.8903 C   0  0  1  0  0  0  0  0  0  0  0  0
    9.8625  -14.9907   25.3965 C   0  0  0  0  0  0  0  0  0  0  0  0
    9.9594  -14.5116   26.7862 C   0  0  0  0  0  0  0  0  0  0  0  0
    9.9986  -15.3719   27.8685 C   0  0  0  0  0  0  0  0  0  0  0  0
   10.0985  -14.9390   29.1567 C   0  0  0  0  0  0  0  0  0  0  0  0
   10.1665  -13.5986   29.4548 C   0  0  0  0  0  0  0  0  0  0  0  0
   10.1286  -12.7077   28.3795 C   0  0  0  0  0  0  0  0  0  0  0  0
   10.0275  -13.1616   27.0825 C   0  0  0  0  0  0  0  0  0  0  0  0
   11.3272  -16.9072   25.7044 C   0  0  0  0  0  0  0  0  0  0  0  0
   12.4578  -16.9408   26.5069 O   0  0  0  0  0  0  0  0  0  0  0  0
   10.5607  -17.9188   25.7057 O   0  0  0  0  0  0  0  0  0  0  0  0
  2  1  1  6
  2  3  1  0
  3  4  1  0
  5  4  1  0
  5  6  1  0
  7  6  1  0
  8  9  2  0
  8  2  1  0
 11 10  1  1
 11 13  1  0
 12 11  1  0
 14 13  1  1
 14 16  1  0
 14 15  1  0
 15  8  1  0
 16 18  1  0
 17 16  2  0
 18 19  1  0
 19 20  1  1
 20 21  1  0
 21 26  2  0
 21 22  1  0
 22 23  2  0
 23 24  1  0
 25 24  2  0
 26 25  1  0
 27 19  1  0
 28 27  1  0
 29 27  2  0
M  END
$$$$
