KLF.pdb
     RDKit          3D

 29 29  0  0  1  0  0  0  0  0999 V2000
    9.0057  -18.7135   18.6145 N   0  0  0  0  0  0  0  0  0  0  0  0
   10.3843  -18.3698   18.9127 C   0  0  1  0  0  0  0  0  0  0  0  0
   11.1024  -17.8736   17.7016 C   0  0  0  0  0  0  0  0  0  0  0  0
   11.1491  -18.9687   16.6669 C   0  0  0  0  0  0  0  0  0  0  0  0
    9.7990  -19.4590   16.2604 C   0  0  0  0  0  0  0  0  0  0  0  0
    9.9600  -20.5226   15.1644 C   0  0  0  0  0  0  0  0  0  0  0  0
    8.6546  -21.0164   14.7524 N   0  0  0  0  0  0  0  0  0  0  0  0
   10.4465  -17.3768   20.0383 C   0  0  0  0  0  0  0  0  0  0  0  0
   11.5923  -17.0426   20.4241 O   0  0  0  0  0  0  0  0  0  0  0  0
    8.8270  -13.2275   20.2063 C   0  0  0  0  0  0  0  0  0  0  0  0
    7.7728  -14.3149   20.4876 C   0  0  2  0  0  0  0  0  0  0  0  0
    6.4570  -13.5785   20.5244 C   0  0  0  0  0  0  0  0  0  0  0  0
    8.1762  -14.9530   21.7671 C   0  0  0  0  0  0  0  0  0  0  0  0
    9.3203  -15.8992   21.7181 C   0  0  2  0  0  0  0  0  0  0  0  0
    9.2833  -16.8361   20.6433 N   0  0  0  0  0  0  0  0  0  0  0  0
    9.4083  -16.5910   23.0483 C   0  0  0  0  0  0  0  0  0  0  0  0
    8.4784  -17.2934   23.5186 O   0  0  0  0  0  0  0  0  0  0  0  0
   10.5837  -16.4650   23.8345 N   0  0  0  0  0  0  0  0  0  0  0  0
   10.5361  -16.0692   25.2381 C   0  0  1  0  0  0  0  0  0  0  0  0
   10.0344  -14.6775   25.4068 C   0  0  0  0  0  0  0  0  0  0  0  0
    9.9067  -14.2232   26.8022 C   0  0  0  0  0  0  0  0  0  0  0  0
    8.7694  -13.5972   27.2794 C   0  0  0  0  0  0  0  0  0  0  0  0
    8.6376  -13.1825   28.5708 C   0  0  0  0  0  0  0  0  0  0  0  0
    9.6474  -13.3675   29.4852 C   0  0  0  0  0  0  0  0  0  0  0  0
   10.8077  -13.9974   29.0290 C   0  0  0  0  0  0  0  0  0  0  0  0
   10.9252  -14.4110   27.7199 C   0  0  0  0  0  0  0  0  0  0  0  0
    9.6720  -17.0180   25.9578 C   0  0  0  0  0  0  0  0  0  0  0  0
   10.1485  -17.6208   27.1125 O   0  0  0  0  0  0  0  0  0  0  0  0
    8.5010  -17.3126   25.5671 O   0  0  0  0  0  0  0  0  0  0  0  0
  2  1  1  6
  2  3  1  0
  3  4  1  0
  5  4  1  0
  5  6  1  0
  7  6  1  0
  8  9  2  0
  8  2  1  0
 11 10  1  1
 11 13  1  0
 12 11  1  0
 14 13  1  1
 14 16  1  0
 14 15  1  0
 15  8  1  0
 16 18  1  0
 17 16  2  0
 18 19  1  0
 19 20  1  6
 20 21  1  0
 21 26  2  0
 21 22  1  0
 22 23  2  0
 23 24  1  0
 25 24  2  0
 26 25  1  0
 27 19  1  0
 28 27  1  0
 29 27  2  0
M  END
$$$$
