VNS.pdb
     RDKit          3D

 22 21  0  0  1  0  0  0  0  0999 V2000
   17.5478  -13.8634  -16.7745 C   0  0  0  0  0  0  0  0  0  0  0  0
   18.7999  -13.5634  -17.5693 C   0  0  2  0  0  0  0  0  0  0  0  0
   19.7248  -14.7529  -17.4234 C   0  0  0  0  0  0  0  0  0  0  0  0
   19.4241  -12.2995  -17.0432 C   0  0  2  0  0  0  0  0  0  0  0  0
   20.1953  -12.6349  -15.8780 N   0  0  0  0  0  0  0  0  0  0  0  0
   18.4155  -11.2446  -16.7711 C   0  0  0  0  0  0  0  0  0  0  0  0
   17.6456  -10.8793  -17.6990 O   0  0  0  0  0  0  0  0  0  0  0  0
   14.1138  -10.7830  -14.9554 N   0  0  0  0  0  0  0  0  0  0  0  0
   15.4138  -11.0167  -14.4439 C   0  0  0  0  0  0  0  0  0  0  0  0
   15.8126  -12.1845  -14.2298 O   0  0  0  0  0  0  0  0  0  0  0  0
   16.3142   -9.8850  -14.1570 C   0  0  0  0  0  0  0  0  0  0  0  0
   17.3013   -9.5688  -15.2087 C   0  0  2  0  0  0  0  0  0  0  0  0
   18.2630  -10.6124  -15.5090 N   0  0  0  0  0  0  0  0  0  0  0  0
   17.8513   -8.2259  -15.3084 C   0  0  0  0  0  0  0  0  0  0  0  0
   18.8762   -7.9866  -14.5477 O   0  0  0  0  0  0  0  0  0  0  0  0
   19.2200   -4.2237  -17.3759 O   0  0  0  0  0  0  0  0  0  0  0  0
   18.6723   -5.4860  -17.4306 C   0  0  0  0  0  0  0  0  0  0  0  0
   18.1449   -5.8345  -16.0559 C   0  0  2  0  0  0  0  0  0  0  0  0
   17.4557   -7.1380  -16.0890 N   0  0  0  0  0  0  0  0  0  0  0  0
   17.2801   -4.7996  -15.4917 C   0  0  0  0  0  0  0  0  0  0  0  0
   17.7258   -3.6089  -14.9228 O   0  0  0  0  0  0  0  0  0  0  0  0
   16.0309   -4.9640  -15.5039 O   0  0  0  0  0  0  0  0  0  0  0  0
  2  1  1  1
  2  3  1  0
  2  4  1  0
  4  6  1  0
  4  5  1  1
  6 13  1  0
  6  7  2  0
  8  9  1  0
  9 11  1  0
 10  9  2  0
 12 11  1  1
 12 14  1  0
 13 12  1  0
 14 15  2  0
 14 19  1  0
 16 17  1  0
 18 17  1  6
 18 20  1  0
 19 18  1  0
 20 21  1  0
 22 20  2  0
M  END
$$$$
