VNS.pdb
     RDKit          3D

 22 21  0  0  1  0  0  0  0  0999 V2000
   15.2391  -13.5657  -15.2000 C   0  0  0  0  0  0  0  0  0  0  0  0
   16.1751  -14.2825  -16.1484 C   0  0  2  0  0  0  0  0  0  0  0  0
   16.3181  -15.7061  -15.6540 C   0  0  0  0  0  0  0  0  0  0  0  0
   17.4956  -13.5618  -16.1730 C   0  0  2  0  0  0  0  0  0  0  0  0
   18.2836  -14.0378  -15.0697 N   0  0  0  0  0  0  0  0  0  0  0  0
   17.3319  -12.0863  -16.1576 C   0  0  0  0  0  0  0  0  0  0  0  0
   16.8583  -11.5119  -17.1741 O   0  0  0  0  0  0  0  0  0  0  0  0
   15.3663   -7.1371  -14.9920 N   0  0  0  0  0  0  0  0  0  0  0  0
   16.1814   -7.8989  -14.1194 C   0  0  0  0  0  0  0  0  0  0  0  0
   16.8153   -7.3427  -13.1934 O   0  0  0  0  0  0  0  0  0  0  0  0
   16.2930   -9.3589  -14.2920 C   0  0  0  0  0  0  0  0  0  0  0  0
   17.5083   -9.8313  -14.9853 C   0  0  2  0  0  0  0  0  0  0  0  0
   17.6817  -11.2700  -15.0499 N   0  0  0  0  0  0  0  0  0  0  0  0
   18.7579   -9.1015  -14.8386 C   0  0  0  0  0  0  0  0  0  0  0  0
   19.7109   -9.7456  -14.2358 O   0  0  0  0  0  0  0  0  0  0  0  0
   22.5554   -7.3650  -16.3154 O   0  0  0  0  0  0  0  0  0  0  0  0
   21.3183   -7.9691  -16.2845 C   0  0  0  0  0  0  0  0  0  0  0  0
   20.4938   -7.3074  -15.2020 C   0  0  2  0  0  0  0  0  0  0  0  0
   19.1076   -7.8099  -15.2371 N   0  0  0  0  0  0  0  0  0  0  0  0
   20.5230   -5.8473  -15.2676 C   0  0  0  0  0  0  0  0  0  0  0  0
   21.5085   -5.0417  -14.7021 O   0  0  0  0  0  0  0  0  0  0  0  0
   19.6020   -5.2376  -15.8740 O   0  0  0  0  0  0  0  0  0  0  0  0
  2  1  1  1
  2  3  1  0
  2  4  1  0
  4  6  1  0
  4  5  1  1
  6 13  1  0
  6  7  2  0
  8  9  1  0
  9 11  1  0
 10  9  2  0
 12 11  1  1
 12 14  1  0
 13 12  1  0
 14 15  2  0
 14 19  1  0
 16 17  1  0
 18 17  1  6
 18 20  1  0
 19 18  1  0
 20 21  1  0
 22 20  2  0
M  END
$$$$
