VNS.pdb
     RDKit          3D

 22 21  0  0  1  0  0  0  0  0999 V2000
   25.5770  -13.1820  -16.5266 C   0  0  0  0  0  0  0  0  0  0  0  0
   24.8468  -14.0740  -15.5467 C   0  0  2  0  0  0  0  0  0  0  0  0
   25.7927  -15.1903  -15.1586 C   0  0  0  0  0  0  0  0  0  0  0  0
   23.5965  -14.5992  -16.1986 C   0  0  2  0  0  0  0  0  0  0  0  0
   23.9854  -15.4094  -17.3199 N   0  0  0  0  0  0  0  0  0  0  0  0
   22.6623  -13.5111  -16.5825 C   0  0  0  0  0  0  0  0  0  0  0  0
   22.7170  -13.0401  -17.7498 O   0  0  0  0  0  0  0  0  0  0  0  0
   17.7735  -11.1368  -17.4915 N   0  0  0  0  0  0  0  0  0  0  0  0
   18.3598  -11.1949  -16.2035 C   0  0  0  0  0  0  0  0  0  0  0  0
   18.0696  -10.3419  -15.3335 O   0  0  0  0  0  0  0  0  0  0  0  0
   19.3207  -12.2628  -15.8717 C   0  0  0  0  0  0  0  0  0  0  0  0
   20.7461  -11.9196  -16.0474 C   0  0  2  0  0  0  0  0  0  0  0  0
   21.6954  -12.9603  -15.7008 N   0  0  0  0  0  0  0  0  0  0  0  0
   21.2142  -10.5785  -15.7341 C   0  0  0  0  0  0  0  0  0  0  0  0
   21.9234  -10.4756  -14.6511 O   0  0  0  0  0  0  0  0  0  0  0  0
   22.1083   -5.8943  -16.4967 O   0  0  0  0  0  0  0  0  0  0  0  0
   21.5644   -7.0542  -17.0018 C   0  0  0  0  0  0  0  0  0  0  0  0
   21.5141   -8.0785  -15.8894 C   0  0  2  0  0  0  0  0  0  0  0  0
   21.0235   -9.3698  -16.4063 N   0  0  0  0  0  0  0  0  0  0  0  0
   20.7245   -7.6413  -14.7393 C   0  0  0  0  0  0  0  0  0  0  0  0
   21.2395   -7.0066  -13.6116 O   0  0  0  0  0  0  0  0  0  0  0  0
   19.4799   -7.8376  -14.7339 O   0  0  0  0  0  0  0  0  0  0  0  0
  2  1  1  6
  2  3  1  0
  2  4  1  0
  4  6  1  0
  4  5  1  6
  6 13  1  0
  6  7  2  0
  8  9  1  0
  9 11  1  0
 10  9  2  0
 12 11  1  1
 12 14  1  0
 13 12  1  0
 14 15  2  0
 14 19  1  0
 16 17  1  0
 18 17  1  6
 18 20  1  0
 19 18  1  0
 20 21  1  0
 22 20  2  0
M  END
$$$$
