VNS.pdb
     RDKit          3D

 22 21  0  0  1  0  0  0  0  0999 V2000
   18.8634  -11.8400  -16.4526 C   0  0  0  0  0  0  0  0  0  0  0  0
   17.5625  -11.8867  -15.6812 C   0  0  2  0  0  0  0  0  0  0  0  0
   16.7226  -12.9965  -16.2765 C   0  0  0  0  0  0  0  0  0  0  0  0
   16.8812  -10.5493  -15.7865 C   0  0  2  0  0  0  0  0  0  0  0  0
   16.4258  -10.3865  -17.1396 N   0  0  0  0  0  0  0  0  0  0  0  0
   17.7574   -9.4350  -15.3454 C   0  0  0  0  0  0  0  0  0  0  0  0
   18.1009   -9.3680  -14.1350 O   0  0  0  0  0  0  0  0  0  0  0  0
   20.2175   -8.9727  -13.9243 N   0  0  0  0  0  0  0  0  0  0  0  0
   21.0492   -8.2640  -14.8256 C   0  0  0  0  0  0  0  0  0  0  0  0
   22.2947   -8.3837  -14.7699 O   0  0  0  0  0  0  0  0  0  0  0  0
   20.4564   -7.3753  -15.8418 C   0  0  0  0  0  0  0  0  0  0  0  0
   18.9855   -7.2506  -15.8047 C   0  0  2  0  0  0  0  0  0  0  0  0
   18.2399   -8.4242  -16.2180 N   0  0  0  0  0  0  0  0  0  0  0  0
   18.3532   -5.9970  -16.1848 C   0  0  0  0  0  0  0  0  0  0  0  0
   18.1717   -5.8296  -17.4597 O   0  0  0  0  0  0  0  0  0  0  0  0
   15.4346   -4.1808  -14.5555 O   0  0  0  0  0  0  0  0  0  0  0  0
   16.2613   -3.1642  -14.9790 C   0  0  0  0  0  0  0  0  0  0  0  0
   17.2506   -3.7383  -15.9695 C   0  0  2  0  0  0  0  0  0  0  0  0
   17.9079   -4.9303  -15.4018 N   0  0  0  0  0  0  0  0  0  0  0  0
   18.2394   -2.7633  -16.4265 C   0  0  0  0  0  0  0  0  0  0  0  0
   17.9665   -1.6767  -17.2541 O   0  0  0  0  0  0  0  0  0  0  0  0
   19.4399   -2.8843  -16.0636 O   0  0  0  0  0  0  0  0  0  0  0  0
  2  1  1  6
  2  3  1  0
  2  4  1  0
  4  6  1  0
  4  5  1  6
  6 13  1  0
  6  7  2  0
  8  9  1  0
  9 11  1  0
 10  9  2  0
 12 11  1  6
 12 14  1  0
 13 12  1  0
 14 15  2  0
 14 19  1  0
 16 17  1  0
 18 17  1  1
 18 20  1  0
 19 18  1  0
 20 21  1  0
 22 20  2  0
M  END
$$$$
