VNS.pdb
     RDKit          3D

 22 21  0  0  1  0  0  0  0  0999 V2000
   11.5368  -10.2310   -9.2179 C   0  0  0  0  0  0  0  0  0  0  0  0
   11.7314  -11.2807  -10.2901 C   0  0  2  0  0  0  0  0  0  0  0  0
   11.7179  -12.6323   -9.6085 C   0  0  0  0  0  0  0  0  0  0  0  0
   13.0334  -11.0228  -10.9989 C   0  0  2  0  0  0  0  0  0  0  0  0
   13.9744  -12.0251  -10.5809 N   0  0  0  0  0  0  0  0  0  0  0  0
   13.5348   -9.6442  -10.7708 C   0  0  0  0  0  0  0  0  0  0  0  0
   12.8272   -8.6671  -11.1339 O   0  0  0  0  0  0  0  0  0  0  0  0
   15.6077   -5.1189   -8.3181 N   0  0  0  0  0  0  0  0  0  0  0  0
   16.3636   -6.2969   -8.5349 C   0  0  0  0  0  0  0  0  0  0  0  0
   17.6115   -6.2439   -8.6274 O   0  0  0  0  0  0  0  0  0  0  0  0
   15.6881   -7.6020   -8.6545 C   0  0  0  0  0  0  0  0  0  0  0  0
   15.3625   -8.0316  -10.0292 C   0  0  2  0  0  0  0  0  0  0  0  0
   14.7828   -9.3550  -10.1586 N   0  0  0  0  0  0  0  0  0  0  0  0
   16.2433   -7.6730  -11.1298 C   0  0  0  0  0  0  0  0  0  0  0  0
   17.1703   -8.5397  -11.4056 O   0  0  0  0  0  0  0  0  0  0  0  0
   17.3922   -6.8831  -15.3920 O   0  0  0  0  0  0  0  0  0  0  0  0
   16.5302   -7.0418  -14.3299 C   0  0  0  0  0  0  0  0  0  0  0  0
   17.1585   -6.4052  -13.1095 C   0  0  2  0  0  0  0  0  0  0  0  0
   16.2630   -6.5400  -11.9454 N   0  0  0  0  0  0  0  0  0  0  0  0
   17.5375   -5.0090  -13.3191 C   0  0  0  0  0  0  0  0  0  0  0  0
   16.9989   -3.9233  -12.6328 O   0  0  0  0  0  0  0  0  0  0  0  0
   18.4155   -4.7295  -14.1786 O   0  0  0  0  0  0  0  0  0  0  0  0
  2  1  1  1
  2  3  1  0
  2  4  1  0
  4  6  1  0
  4  5  1  1
  6 13  1  0
  6  7  2  0
  8  9  1  0
  9 11  1  0
 10  9  2  0
 12 11  1  1
 12 14  1  0
 13 12  1  0
 14 15  2  0
 14 19  1  0
 16 17  1  0
 18 17  1  6
 18 20  1  0
 19 18  1  0
 20 21  1  0
 22 20  2  0
M  END
$$$$
