VNS.pdb
     RDKit          3D

 22 21  0  0  1  0  0  0  0  0999 V2000
   11.0174  -10.4597   -9.8905 C   0  0  0  0  0  0  0  0  0  0  0  0
   12.4265  -10.0346  -10.2414 C   0  0  2  0  0  0  0  0  0  0  0  0
   12.3332   -8.7032  -10.9557 C   0  0  0  0  0  0  0  0  0  0  0  0
   13.0572  -11.0922  -11.1061 C   0  0  2  0  0  0  0  0  0  0  0  0
   13.1049  -12.3143  -10.3518 N   0  0  0  0  0  0  0  0  0  0  0  0
   14.3929  -10.6845  -11.6098 C   0  0  0  0  0  0  0  0  0  0  0  0
   15.3491  -10.5808  -10.7959 O   0  0  0  0  0  0  0  0  0  0  0  0
   18.4944  -12.3519  -13.5974 N   0  0  0  0  0  0  0  0  0  0  0  0
   17.1158  -12.0586  -13.7373 C   0  0  0  0  0  0  0  0  0  0  0  0
   16.2491  -12.8692  -13.3366 O   0  0  0  0  0  0  0  0  0  0  0  0
   16.6845  -10.7925  -14.3579 C   0  0  0  0  0  0  0  0  0  0  0  0
   15.9169   -9.8805  -13.4865 C   0  0  2  0  0  0  0  0  0  0  0  0
   14.6630  -10.3999  -12.9743 N   0  0  0  0  0  0  0  0  0  0  0  0
   15.8792   -8.4563  -13.7798 C   0  0  0  0  0  0  0  0  0  0  0  0
   15.0453   -8.1018  -14.7101 O   0  0  0  0  0  0  0  0  0  0  0  0
   16.1718   -3.7929  -12.9088 O   0  0  0  0  0  0  0  0  0  0  0  0
   16.2397   -5.0942  -12.4634 C   0  0  0  0  0  0  0  0  0  0  0  0
   16.4289   -5.9970  -13.6628 C   0  0  2  0  0  0  0  0  0  0  0  0
   16.5994   -7.3957  -13.2269 N   0  0  0  0  0  0  0  0  0  0  0  0
   17.5308   -5.5808  -14.5287 C   0  0  0  0  0  0  0  0  0  0  0  0
   17.4663   -4.5514  -15.4647 O   0  0  0  0  0  0  0  0  0  0  0  0
   18.6381   -6.1768  -14.4491 O   0  0  0  0  0  0  0  0  0  0  0  0
  2  1  1  6
  2  3  1  0
  2  4  1  0
  4  6  1  0
  4  5  1  1
  6 13  1  0
  6  7  2  0
  8  9  1  0
  9 11  1  0
 10  9  2  0
 12 11  1  6
 12 14  1  0
 13 12  1  0
 14 15  2  0
 14 19  1  0
 16 17  1  0
 18 17  1  1
 18 20  1  0
 19 18  1  0
 20 21  1  0
 22 20  2  0
M  END
$$$$
