VNS.pdb
     RDKit          3D

 22 21  0  0  1  0  0  0  0  0999 V2000
   13.7080  -10.3651   -9.4965 C   0  0  0  0  0  0  0  0  0  0  0  0
   12.5545   -9.6428   -8.8353 C   0  0  2  0  0  0  0  0  0  0  0  0
   11.3063  -10.4635   -9.0799 C   0  0  0  0  0  0  0  0  0  0  0  0
   12.4409   -8.2610   -9.4199 C   0  0  2  0  0  0  0  0  0  0  0  0
   12.0565   -8.3906  -10.7984 N   0  0  0  0  0  0  0  0  0  0  0  0
   13.6884   -7.4741   -9.2509 C   0  0  0  0  0  0  0  0  0  0  0  0
   14.0909   -7.2064   -8.0874 O   0  0  0  0  0  0  0  0  0  0  0  0
   16.8153   -8.6924   -9.4512 N   0  0  0  0  0  0  0  0  0  0  0  0
   17.4123   -7.9873  -10.5248 C   0  0  0  0  0  0  0  0  0  0  0  0
   18.4245   -8.4461  -11.1024 O   0  0  0  0  0  0  0  0  0  0  0  0
   16.8473   -6.7022  -10.9754 C   0  0  0  0  0  0  0  0  0  0  0  0
   15.6814   -6.2121  -10.2132 C   0  0  2  0  0  0  0  0  0  0  0  0
   14.4681   -6.9974  -10.3374 N   0  0  0  0  0  0  0  0  0  0  0  0
   15.4389   -4.7826  -10.0965 C   0  0  0  0  0  0  0  0  0  0  0  0
   14.9826   -4.2065  -11.1672 O   0  0  0  0  0  0  0  0  0  0  0  0
   15.0495   -0.5389   -7.7772 O   0  0  0  0  0  0  0  0  0  0  0  0
   15.3422   -1.8809   -7.6788 C   0  0  0  0  0  0  0  0  0  0  0  0
   15.2369   -2.4922   -9.0588 C   0  0  2  0  0  0  0  0  0  0  0  0
   15.6201   -3.9158   -9.0172 N   0  0  0  0  0  0  0  0  0  0  0  0
   16.0106   -1.7714  -10.0683 C   0  0  0  0  0  0  0  0  0  0  0  0
   15.5271   -0.7228  -10.8471 O   0  0  0  0  0  0  0  0  0  0  0  0
   17.2099   -2.0972  -10.2764 O   0  0  0  0  0  0  0  0  0  0  0  0
  2  1  1  6
  2  3  1  0
  2  4  1  0
  4  6  1  0
  4  5  1  6
  6 13  1  0
  6  7  2  0
  8  9  1  0
  9 11  1  0
 10  9  2  0
 12 11  1  6
 12 14  1  0
 13 12  1  0
 14 15  2  0
 14 19  1  0
 16 17  1  0
 18 17  1  1
 18 20  1  0
 19 18  1  0
 20 21  1  0
 22 20  2  0
M  END
$$$$
