VNS.pdb
     RDKit          3D

 22 21  0  0  1  0  0  0  0  0999 V2000
   28.0186  -16.4492  -17.9223 C   0  0  0  0  0  0  0  0  0  0  0  0
   27.7471  -16.4337  -16.4339 C   0  0  2  0  0  0  0  0  0  0  0  0
   28.7419  -17.3702  -15.7822 C   0  0  0  0  0  0  0  0  0  0  0  0
   26.3266  -16.8659  -16.1897 C   0  0  2  0  0  0  0  0  0  0  0  0
   25.6399  -15.7884  -15.5322 N   0  0  0  0  0  0  0  0  0  0  0  0
   26.2483  -18.1371  -15.4270 C   0  0  0  0  0  0  0  0  0  0  0  0
   26.6798  -19.1962  -15.9557 O   0  0  0  0  0  0  0  0  0  0  0  0
   25.2650  -21.7668  -11.7418 N   0  0  0  0  0  0  0  0  0  0  0  0
   26.0137  -20.6838  -11.2195 C   0  0  0  0  0  0  0  0  0  0  0  0
   26.5297  -20.7579  -10.0807 O   0  0  0  0  0  0  0  0  0  0  0  0
   26.1942  -19.4541  -12.0127 C   0  0  0  0  0  0  0  0  0  0  0  0
   25.5806  -19.4618  -13.3558 C   0  0  2  0  0  0  0  0  0  0  0  0
   25.7085  -18.2340  -14.1175 N   0  0  0  0  0  0  0  0  0  0  0  0
   24.3189  -20.1521  -13.5738 C   0  0  0  0  0  0  0  0  0  0  0  0
   23.2525  -19.4430  -13.3588 O   0  0  0  0  0  0  0  0  0  0  0  0
   23.4567  -24.1668  -14.1281 O   0  0  0  0  0  0  0  0  0  0  0  0
   22.7757  -23.3059  -14.9597 C   0  0  0  0  0  0  0  0  0  0  0  0
   22.7026  -21.9533  -14.2857 C   0  0  2  0  0  0  0  0  0  0  0  0
   24.0587  -21.4638  -13.9751 N   0  0  0  0  0  0  0  0  0  0  0  0
   21.8589  -21.9498  -13.0918 C   0  0  0  0  0  0  0  0  0  0  0  0
   20.4938  -22.2262  -13.0774 O   0  0  0  0  0  0  0  0  0  0  0  0
   22.3724  -21.6805  -11.9732 O   0  0  0  0  0  0  0  0  0  0  0  0
  2  1  1  6
  2  3  1  0
  2  4  1  0
  4  6  1  0
  4  5  1  1
  6 13  1  0
  6  7  2  0
  8  9  1  0
  9 11  1  0
 10  9  2  0
 12 11  1  1
 12 14  1  0
 13 12  1  0
 14 15  2  0
 14 19  1  0
 16 17  1  0
 18 17  1  1
 18 20  1  0
 19 18  1  0
 20 21  1  0
 22 20  2  0
M  END
$$$$
