TLC.pdb
     RDKit          3D

 22 21  0  0  1  0  0  0  0  0999 V2000
    6.5425  -17.1564   20.6799 C   0  0  0  0  0  0  0  0  0  0  0  0
    7.2916  -16.6871   21.9305 C   0  0  1  0  0  0  0  0  0  0  0  0
    8.4462  -17.4499   22.0101 O   0  0  0  0  0  0  0  0  0  0  0  0
    7.6926  -15.2507   21.8226 C   0  0  2  0  0  0  0  0  0  0  0  0
    8.4288  -14.9673   20.6149 N   0  0  0  0  0  0  0  0  0  0  0  0
    8.4144  -14.8595   23.0445 C   0  0  0  0  0  0  0  0  0  0  0  0
    9.6556  -14.7112   23.0758 O   0  0  0  0  0  0  0  0  0  0  0  0
    7.4929  -11.3110   25.4684 C   0  0  0  0  0  0  0  0  0  0  0  0
    6.5838  -12.5093   25.8107 C   0  0  2  0  0  0  0  0  0  0  0  0
    5.5042  -11.9769   26.7048 C   0  0  0  0  0  0  0  0  0  0  0  0
    7.3893  -13.6091   26.4360 C   0  0  0  0  0  0  0  0  0  0  0  0
    8.3215  -14.2193   25.4720 C   0  0  2  0  0  0  0  0  0  0  0  0
    7.6851  -14.6395   24.2343 N   0  0  0  0  0  0  0  0  0  0  0  0
    9.0179  -15.3745   26.0490 C   0  0  0  0  0  0  0  0  0  0  0  0
    8.7516  -15.9127   27.1511 O   0  0  0  0  0  0  0  0  0  0  0  0
   10.1112  -15.9705   25.3112 N   0  0  0  0  0  0  0  0  0  0  0  0
   10.8337  -17.1074   25.8095 C   0  0  1  0  0  0  0  0  0  0  0  0
    9.8441  -18.2542   25.9540 C   0  0  0  0  0  0  0  0  0  0  0  0
   10.6687  -19.7641   26.5106 S   0  0  0  0  0  0  0  0  0  0  0  0
   11.9532  -17.5113   24.9646 C   0  0  0  0  0  0  0  0  0  0  0  0
   12.1361  -16.9683   23.8534 O   0  0  0  0  0  0  0  0  0  0  0  0
   12.8200  -18.4990   25.3889 O   0  0  0  0  0  0  0  0  0  0  0  0
  2  1  1  6
  2  4  1  0
  2  3  1  0
  4  6  1  0
  4  5  1  6
  6  7  2  0
  9  8  1  1
  9 11  1  0
  9 10  1  0
 12 11  1  1
 12 14  1  0
 13 12  1  0
 13  6  1  0
 14 15  2  0
 16 14  1  0
 16 17  1  0
 17 20  1  0
 17 18  1  6
 19 18  1  0
 20 21  2  0
 20 22  1  0
M  END
$$$$
