TLC.pdb
     RDKit          3D

 22 21  0  0  1  0  0  0  0  0999 V2000
    6.5213  -16.4500   19.8388 C   0  0  0  0  0  0  0  0  0  0  0  0
    7.1136  -16.2241   21.2330 C   0  0  1  0  0  0  0  0  0  0  0  0
    8.1042  -17.1787   21.4019 O   0  0  0  0  0  0  0  0  0  0  0  0
    7.7473  -14.8745   21.3473 C   0  0  2  0  0  0  0  0  0  0  0  0
    8.7176  -14.6253   20.3094 N   0  0  0  0  0  0  0  0  0  0  0  0
    8.2975  -14.7147   22.7032 C   0  0  0  0  0  0  0  0  0  0  0  0
    9.5262  -14.6997   22.9345 O   0  0  0  0  0  0  0  0  0  0  0  0
    8.2158  -11.8270   26.3042 C   0  0  0  0  0  0  0  0  0  0  0  0
    6.8519  -12.4527   25.9463 C   0  0  2  0  0  0  0  0  0  0  0  0
    5.8402  -11.7935   26.8351 C   0  0  0  0  0  0  0  0  0  0  0  0
    6.9072  -13.9429   26.1063 C   0  0  0  0  0  0  0  0  0  0  0  0
    7.8680  -14.5571   25.1735 C   0  0  2  0  0  0  0  0  0  0  0  0
    7.4107  -14.5707   23.7936 N   0  0  0  0  0  0  0  0  0  0  0  0
    8.1988  -15.9321   25.5642 C   0  0  0  0  0  0  0  0  0  0  0  0
    7.3751  -16.8664   25.7176 O   0  0  0  0  0  0  0  0  0  0  0  0
    9.5846  -16.2761   25.8013 N   0  0  0  0  0  0  0  0  0  0  0  0
    9.9935  -17.6202   26.0996 C   0  0  1  0  0  0  0  0  0  0  0  0
   11.2872  -17.8861   25.3438 C   0  0  0  0  0  0  0  0  0  0  0  0
   12.5611  -16.6801   25.7826 S   0  0  0  0  0  0  0  0  0  0  0  0
   10.1801  -17.8774   27.5242 C   0  0  0  0  0  0  0  0  0  0  0  0
   10.0370  -16.9569   28.3579 O   0  0  0  0  0  0  0  0  0  0  0  0
   10.5173  -19.1433   27.9610 O   0  0  0  0  0  0  0  0  0  0  0  0
  2  1  1  6
  2  4  1  0
  2  3  1  0
  4  6  1  0
  4  5  1  6
  6  7  2  0
  9  8  1  1
  9 11  1  0
  9 10  1  0
 12 11  1  1
 12 14  1  0
 13 12  1  0
 13  6  1  0
 14 15  2  0
 16 14  1  0
 16 17  1  0
 17 20  1  0
 17 18  1  6
 19 18  1  0
 20 21  2  0
 20 22  1  0
M  END
$$$$
