TLC.pdb
     RDKit          3D

 22 21  0  0  1  0  0  0  0  0999 V2000
    8.6767  -19.8373   17.0630 C   0  0  0  0  0  0  0  0  0  0  0  0
    9.1754  -18.9947   18.2406 C   0  0  1  0  0  0  0  0  0  0  0  0
   10.1267  -19.7581   18.8990 O   0  0  0  0  0  0  0  0  0  0  0  0
    9.8342  -17.7361   17.7741 C   0  0  2  0  0  0  0  0  0  0  0  0
   10.9943  -17.9859   16.9538 N   0  0  0  0  0  0  0  0  0  0  0  0
   10.1229  -16.8838   18.9391 C   0  0  0  0  0  0  0  0  0  0  0  0
   11.2489  -16.8422   19.4811 O   0  0  0  0  0  0  0  0  0  0  0  0
    9.2068  -12.3866   19.4953 C   0  0  0  0  0  0  0  0  0  0  0  0
    8.0165  -13.3573   19.6394 C   0  0  2  0  0  0  0  0  0  0  0  0
    6.7857  -12.5049   19.7211 C   0  0  0  0  0  0  0  0  0  0  0  0
    8.2110  -14.2423   20.8345 C   0  0  0  0  0  0  0  0  0  0  0  0
    9.2996  -15.2125   20.6243 C   0  0  2  0  0  0  0  0  0  0  0  0
    9.0942  -16.0761   19.4731 N   0  0  0  0  0  0  0  0  0  0  0  0
    9.5068  -16.0582   21.8053 C   0  0  0  0  0  0  0  0  0  0  0  0
    8.7733  -17.0135   22.1577 O   0  0  0  0  0  0  0  0  0  0  0  0
   10.6452  -15.7967   22.6600 N   0  0  0  0  0  0  0  0  0  0  0  0
   10.9894  -16.6624   23.7532 C   0  0  1  0  0  0  0  0  0  0  0  0
   11.3026  -18.0338   23.1730 C   0  0  0  0  0  0  0  0  0  0  0  0
   11.8698  -19.1736   24.4571 S   0  0  0  0  0  0  0  0  0  0  0  0
   12.1133  -16.1847   24.5525 C   0  0  0  0  0  0  0  0  0  0  0  0
   12.8363  -15.2538   24.1357 O   0  0  0  0  0  0  0  0  0  0  0  0
   12.3856  -16.7601   25.7778 O   0  0  0  0  0  0  0  0  0  0  0  0
  2  1  1  6
  2  4  1  0
  2  3  1  0
  4  6  1  0
  4  5  1  1
  6  7  2  0
  9  8  1  1
  9 11  1  0
  9 10  1  0
 12 11  1  1
 12 14  1  0
 13 12  1  0
 13  6  1  0
 14 15  2  0
 16 14  1  0
 16 17  1  0
 17 20  1  0
 17 18  1  6
 19 18  1  0
 20 21  2  0
 20 22  1  0
M  END
$$$$
