TLC.pdb
     RDKit          3D

 22 21  0  0  1  0  0  0  0  0999 V2000
    9.0184  -18.8021   24.1943 C   0  0  0  0  0  0  0  0  0  0  0  0
    9.6905  -18.3297   22.9018 C   0  0  1  0  0  0  0  0  0  0  0  0
    9.6940  -19.4138   22.0381 O   0  0  0  0  0  0  0  0  0  0  0  0
    8.9182  -17.2250   22.2544 C   0  0  2  0  0  0  0  0  0  0  0  0
    9.2590  -17.0478   20.8640 N   0  0  0  0  0  0  0  0  0  0  0  0
    9.0776  -15.9964   23.0495 C   0  0  0  0  0  0  0  0  0  0  0  0
   10.0540  -15.2274   22.9132 O   0  0  0  0  0  0  0  0  0  0  0  0
    8.1025  -12.0000   25.6997 C   0  0  0  0  0  0  0  0  0  0  0  0
    6.6797  -12.5961   25.6851 C   0  0  2  0  0  0  0  0  0  0  0  0
    6.1710  -12.5058   27.0927 C   0  0  0  0  0  0  0  0  0  0  0  0
    6.7100  -13.9966   25.1493 C   0  0  0  0  0  0  0  0  0  0  0  0
    8.0501  -14.3657   24.6608 C   0  0  2  0  0  0  0  0  0  0  0  0
    8.0933  -15.6632   24.0067 N   0  0  0  0  0  0  0  0  0  0  0  0
    9.0413  -14.3602   25.7425 C   0  0  0  0  0  0  0  0  0  0  0  0
    9.3736  -13.3601   26.4241 O   0  0  0  0  0  0  0  0  0  0  0  0
    9.7133  -15.5969   26.0798 N   0  0  0  0  0  0  0  0  0  0  0  0
   10.6586  -15.6785   27.1581 C   0  0  1  0  0  0  0  0  0  0  0  0
    9.9317  -15.2905   28.4374 C   0  0  0  0  0  0  0  0  0  0  0  0
   10.5361  -13.7123   29.0806 S   0  0  0  0  0  0  0  0  0  0  0  0
   11.2720  -16.9945   27.3063 C   0  0  0  0  0  0  0  0  0  0  0  0
   10.9296  -17.9400   26.5635 O   0  0  0  0  0  0  0  0  0  0  0  0
   12.2373  -17.2039   28.2713 O   0  0  0  0  0  0  0  0  0  0  0  0
  2  1  1  1
  2  4  1  0
  2  3  1  0
  4  6  1  0
  4  5  1  6
  6  7  2  0
  9  8  1  1
  9 11  1  0
  9 10  1  0
 12 11  1  1
 12 14  1  0
 13 12  1  0
 13  6  1  0
 14 15  2  0
 16 14  1  0
 16 17  1  0
 17 20  1  0
 17 18  1  1
 19 18  1  0
 20 21  2  0
 20 22  1  0
M  END
$$$$
