TLC.pdb
     RDKit          3D

 22 21  0  0  1  0  0  0  0  0999 V2000
   10.4655  -19.7229   20.7437 C   0  0  0  0  0  0  0  0  0  0  0  0
    9.0617  -19.3843   20.2336 C   0  0  1  0  0  0  0  0  0  0  0  0
    8.3096  -19.0371   21.3449 O   0  0  0  0  0  0  0  0  0  0  0  0
    9.0836  -18.2124   19.3052 C   0  0  2  0  0  0  0  0  0  0  0  0
    9.8081  -18.4806   18.0869 N   0  0  0  0  0  0  0  0  0  0  0  0
    9.5874  -17.0341   20.0295 C   0  0  0  0  0  0  0  0  0  0  0  0
   10.8075  -16.8110   20.1876 O   0  0  0  0  0  0  0  0  0  0  0  0
    9.0827  -12.7712   19.1813 C   0  0  0  0  0  0  0  0  0  0  0  0
    7.8516  -13.4472   19.8195 C   0  0  2  0  0  0  0  0  0  0  0  0
    6.7164  -12.4786   19.6732 C   0  0  0  0  0  0  0  0  0  0  0  0
    8.1429  -13.8158   21.2438 C   0  0  0  0  0  0  0  0  0  0  0  0
    9.0820  -14.9474   21.3340 C   0  0  2  0  0  0  0  0  0  0  0  0
    8.6640  -16.1119   20.5706 N   0  0  0  0  0  0  0  0  0  0  0  0
    9.3003  -15.3606   22.7248 C   0  0  0  0  0  0  0  0  0  0  0  0
    9.7369  -14.6272   23.6449 O   0  0  0  0  0  0  0  0  0  0  0  0
    8.9966  -16.7240   23.1038 N   0  0  0  0  0  0  0  0  0  0  0  0
    9.0816  -17.1708   24.4662 C   0  0  1  0  0  0  0  0  0  0  0  0
    7.6859  -17.5956   24.8990 C   0  0  0  0  0  0  0  0  0  0  0  0
    6.7976  -16.2272   25.6787 S   0  0  0  0  0  0  0  0  0  0  0  0
   10.0270  -18.2638   24.6704 C   0  0  0  0  0  0  0  0  0  0  0  0
   10.1783  -18.7665   25.8050 O   0  0  0  0  0  0  0  0  0  0  0  0
   10.7627  -18.7507   23.6081 O   0  0  0  0  0  0  0  0  0  0  0  0
  2  1  1  1
  2  4  1  0
  2  3  1  0
  4  6  1  0
  4  5  1  6
  6  7  2  0
  9  8  1  1
  9 11  1  0
  9 10  1  0
 12 11  1  1
 12 14  1  0
 13 12  1  0
 13  6  1  0
 14 15  2  0
 16 14  1  0
 16 17  1  0
 17 20  1  0
 17 18  1  6
 19 18  1  0
 20 21  2  0
 20 22  1  0
M  END
$$$$
