TLC.pdb
     RDKit          3D

 22 21  0  0  1  0  0  0  0  0999 V2000
    6.7350  -16.9775   20.2224 C   0  0  0  0  0  0  0  0  0  0  0  0
    7.2112  -16.5781   21.6221 C   0  0  1  0  0  0  0  0  0  0  0  0
    8.1768  -17.5017   21.9904 O   0  0  0  0  0  0  0  0  0  0  0  0
    7.8439  -15.2232   21.6201 C   0  0  2  0  0  0  0  0  0  0  0  0
    8.8963  -15.1016   20.6411 N   0  0  0  0  0  0  0  0  0  0  0  0
    8.2846  -14.8960   22.9859 C   0  0  0  0  0  0  0  0  0  0  0  0
    9.4896  -14.8785   23.3192 O   0  0  0  0  0  0  0  0  0  0  0  0
    8.0179  -11.4938   25.9248 C   0  0  0  0  0  0  0  0  0  0  0  0
    6.6738  -12.1856   25.6176 C   0  0  2  0  0  0  0  0  0  0  0  0
    5.6105  -11.3402   26.2523 C   0  0  0  0  0  0  0  0  0  0  0  0
    6.6918  -13.5991   26.1186 C   0  0  0  0  0  0  0  0  0  0  0  0
    7.6518  -14.4309   25.3723 C   0  0  2  0  0  0  0  0  0  0  0  0
    7.3156  -14.5870   23.9666 N   0  0  0  0  0  0  0  0  0  0  0  0
    7.7878  -15.7657   25.9659 C   0  0  0  0  0  0  0  0  0  0  0  0
    6.9021  -16.3684   26.6196 O   0  0  0  0  0  0  0  0  0  0  0  0
    9.0372  -16.4780   25.8032 N   0  0  0  0  0  0  0  0  0  0  0  0
    9.1827  -17.8544   26.1870 C   0  0  1  0  0  0  0  0  0  0  0  0
    8.3447  -18.6899   25.2304 C   0  0  0  0  0  0  0  0  0  0  0  0
    6.7477  -19.1182   25.9624 S   0  0  0  0  0  0  0  0  0  0  0  0
   10.5648  -18.3236   26.1875 C   0  0  0  0  0  0  0  0  0  0  0  0
   11.4860  -17.5802   25.7853 O   0  0  0  0  0  0  0  0  0  0  0  0
   10.8642  -19.5956   26.6335 O   0  0  0  0  0  0  0  0  0  0  0  0
  2  1  1  6
  2  4  1  0
  2  3  1  0
  4  6  1  0
  4  5  1  6
  6  7  2  0
  9  8  1  1
  9 11  1  0
  9 10  1  0
 12 11  1  1
 12 14  1  0
 13 12  1  0
 13  6  1  0
 14 15  2  0
 16 14  1  0
 16 17  1  0
 17 20  1  0
 17 18  1  6
 19 18  1  0
 20 21  2  0
 20 22  1  0
M  END
$$$$
