TLC.pdb
     RDKit          3D

 22 21  0  0  1  0  0  0  0  0999 V2000
    6.2949  -17.8240   19.9189 C   0  0  0  0  0  0  0  0  0  0  0  0
    7.0151  -17.2087   21.1224 C   0  0  1  0  0  0  0  0  0  0  0  0
    8.2609  -17.8126   21.1895 O   0  0  0  0  0  0  0  0  0  0  0  0
    7.2226  -15.7386   20.9444 C   0  0  2  0  0  0  0  0  0  0  0  0
    7.9701  -15.4221   19.7520 N   0  0  0  0  0  0  0  0  0  0  0  0
    7.8258  -15.1862   22.1682 C   0  0  0  0  0  0  0  0  0  0  0  0
    9.0501  -14.9537   22.2704 O   0  0  0  0  0  0  0  0  0  0  0  0
    6.0241  -12.3121   27.3733 C   0  0  0  0  0  0  0  0  0  0  0  0
    7.1267  -12.9356   26.4928 C   0  0  2  0  0  0  0  0  0  0  0  0
    8.0793  -11.8259   26.1623 C   0  0  0  0  0  0  0  0  0  0  0  0
    6.5202  -13.5827   25.2834 C   0  0  0  0  0  0  0  0  0  0  0  0
    7.5168  -14.3510   24.5173 C   0  0  2  0  0  0  0  0  0  0  0  0
    6.9972  -14.9028   23.2769 N   0  0  0  0  0  0  0  0  0  0  0  0
    8.0812  -15.4486   25.3108 C   0  0  0  0  0  0  0  0  0  0  0  0
    7.4463  -16.4438   25.7368 O   0  0  0  0  0  0  0  0  0  0  0  0
    9.4878  -15.4133   25.6499 N   0  0  0  0  0  0  0  0  0  0  0  0
   10.1282  -16.4924   26.3487 C   0  0  1  0  0  0  0  0  0  0  0  0
   11.5799  -16.5372   25.8946 C   0  0  0  0  0  0  0  0  0  0  0  0
   11.7003  -16.8397   24.1159 S   0  0  0  0  0  0  0  0  0  0  0  0
   10.0582  -16.3778   27.8020 C   0  0  0  0  0  0  0  0  0  0  0  0
    9.5055  -15.3903   28.3334 O   0  0  0  0  0  0  0  0  0  0  0  0
   10.6039  -17.3626   28.6014 O   0  0  0  0  0  0  0  0  0  0  0  0
  2  1  1  6
  2  4  1  0
  2  3  1  0
  4  6  1  0
  4  5  1  6
  6  7  2  0
  9  8  1  1
  9 11  1  0
  9 10  1  0
 12 11  1  1
 12 14  1  0
 13 12  1  0
 13  6  1  0
 14 15  2  0
 16 14  1  0
 16 17  1  0
 17 20  1  0
 17 18  1  1
 19 18  1  0
 20 21  2  0
 20 22  1  0
M  END
$$$$
