TLC.pdb
     RDKit          3D

 22 21  0  0  1  0  0  0  0  0999 V2000
    9.2232  -20.5258   19.3639 C   0  0  0  0  0  0  0  0  0  0  0  0
    9.5465  -19.1699   19.9983 C   0  0  1  0  0  0  0  0  0  0  0  0
   10.7618  -19.3165   20.6485 O   0  0  0  0  0  0  0  0  0  0  0  0
    9.7018  -18.1029   18.9623 C   0  0  2  0  0  0  0  0  0  0  0  0
   10.6519  -18.4572   17.9362 N   0  0  0  0  0  0  0  0  0  0  0  0
   10.0184  -16.8286   19.6277 C   0  0  0  0  0  0  0  0  0  0  0  0
   11.1532  -16.3060   19.5780 O   0  0  0  0  0  0  0  0  0  0  0  0
    8.7685  -12.6730   19.0724 C   0  0  0  0  0  0  0  0  0  0  0  0
    7.6884  -13.5915   19.6803 C   0  0  2  0  0  0  0  0  0  0  0  0
    6.4035  -12.8204   19.6307 C   0  0  0  0  0  0  0  0  0  0  0  0
    8.0824  -14.0081   21.0662 C   0  0  0  0  0  0  0  0  0  0  0  0
    9.2469  -14.9105   21.0550 C   0  0  2  0  0  0  0  0  0  0  0  0
    9.0066  -16.1608   20.3532 N   0  0  0  0  0  0  0  0  0  0  0  0
    9.7025  -15.2236   22.4140 C   0  0  0  0  0  0  0  0  0  0  0  0
    9.1821  -14.8005   23.4748 O   0  0  0  0  0  0  0  0  0  0  0  0
   10.8479  -16.0920   22.5836 N   0  0  0  0  0  0  0  0  0  0  0  0
   11.2998  -16.5090   23.8816 C   0  0  1  0  0  0  0  0  0  0  0  0
   10.1734  -17.3022   24.5279 C   0  0  0  0  0  0  0  0  0  0  0  0
   10.6279  -17.8481   26.1908 S   0  0  0  0  0  0  0  0  0  0  0  0
   12.5237  -17.3037   23.8527 C   0  0  0  0  0  0  0  0  0  0  0  0
   12.9747  -17.7327   22.7686 O   0  0  0  0  0  0  0  0  0  0  0  0
   13.1929  -17.5874   25.0268 O   0  0  0  0  0  0  0  0  0  0  0  0
  2  1  1  6
  2  4  1  0
  2  3  1  0
  4  6  1  0
  4  5  1  6
  6  7  2  0
  9  8  1  1
  9 11  1  0
  9 10  1  0
 12 11  1  1
 12 14  1  0
 13 12  1  0
 13  6  1  0
 14 15  2  0
 16 14  1  0
 16 17  1  0
 17 20  1  0
 17 18  1  6
 19 18  1  0
 20 21  2  0
 20 22  1  0
M  END
$$$$
