TLC.pdb
     RDKit          3D

 22 21  0  0  1  0  0  0  0  0999 V2000
    6.2413  -16.8915   20.1261 C   0  0  0  0  0  0  0  0  0  0  0  0
    7.4646  -16.7683   21.0393 C   0  0  1  0  0  0  0  0  0  0  0  0
    8.4951  -17.4540   20.4156 O   0  0  0  0  0  0  0  0  0  0  0  0
    7.8877  -15.3431   21.1996 C   0  0  2  0  0  0  0  0  0  0  0  0
    8.7538  -14.8964   20.1360 N   0  0  0  0  0  0  0  0  0  0  0  0
    8.4752  -15.1632   22.5372 C   0  0  0  0  0  0  0  0  0  0  0  0
    9.7036  -15.2554   22.7517 O   0  0  0  0  0  0  0  0  0  0  0  0
    8.1696  -11.8987   25.9023 C   0  0  0  0  0  0  0  0  0  0  0  0
    6.8905  -12.7204   25.6407 C   0  0  2  0  0  0  0  0  0  0  0  0
    5.8203  -12.1189   26.5017 C   0  0  0  0  0  0  0  0  0  0  0  0
    7.1399  -14.1719   25.9239 C   0  0  0  0  0  0  0  0  0  0  0  0
    8.1218  -14.7498   24.9899 C   0  0  2  0  0  0  0  0  0  0  0  0
    7.6264  -14.8735   23.6288 N   0  0  0  0  0  0  0  0  0  0  0  0
    8.5821  -16.0695   25.4360 C   0  0  0  0  0  0  0  0  0  0  0  0
    7.8714  -17.1003   25.5231 O   0  0  0  0  0  0  0  0  0  0  0  0
    9.9690  -16.2334   25.8161 N   0  0  0  0  0  0  0  0  0  0  0  0
   10.4993  -17.5034   26.2269 C   0  0  1  0  0  0  0  0  0  0  0  0
   11.9583  -17.5533   25.7978 C   0  0  0  0  0  0  0  0  0  0  0  0
   12.7547  -19.0757   26.3618 S   0  0  0  0  0  0  0  0  0  0  0  0
   10.3868  -17.7536   27.6605 C   0  0  0  0  0  0  0  0  0  0  0  0
   10.1510  -16.8140   28.4507 O   0  0  0  0  0  0  0  0  0  0  0  0
   10.5409  -19.0340   28.1542 O   0  0  0  0  0  0  0  0  0  0  0  0
  2  1  1  6
  2  4  1  0
  2  3  1  0
  4  6  1  0
  4  5  1  6
  6  7  2  0
  9  8  1  1
  9 11  1  0
  9 10  1  0
 12 11  1  1
 12 14  1  0
 13 12  1  0
 13  6  1  0
 14 15  2  0
 16 14  1  0
 16 17  1  0
 17 20  1  0
 17 18  1  1
 19 18  1  0
 20 21  2  0
 20 22  1  0
M  END
$$$$
