KQE.pdb
     RDKit          3D

 28 27  0  0  1  0  0  0  0  0999 V2000
   28.1260  -21.7582  -16.0872 N   0  0  0  0  0  0  0  0  0  0  0  0
   27.2655  -20.7227  -15.6189 C   0  0  1  0  0  0  0  0  0  0  0  0
   26.7783  -19.7608  -16.6552 C   0  0  0  0  0  0  0  0  0  0  0  0
   27.8203  -19.2594  -17.6032 C   0  0  0  0  0  0  0  0  0  0  0  0
   27.2742  -18.2794  -18.5728 C   0  0  0  0  0  0  0  0  0  0  0  0
   28.4435  -17.8645  -19.4956 C   0  0  0  0  0  0  0  0  0  0  0  0
   28.0059  -16.7745  -20.3505 N   0  0  0  0  0  0  0  0  0  0  0  0
   26.1057  -21.2497  -14.8443 C   0  0  0  0  0  0  0  0  0  0  0  0
   25.5960  -22.3356  -15.2072 O   0  0  0  0  0  0  0  0  0  0  0  0
   25.0456  -20.1399   -8.8388 N   0  0  0  0  0  0  0  0  0  0  0  0
   26.0813  -20.9398   -9.4255 C   0  0  0  0  0  0  0  0  0  0  0  0
   27.1119  -21.2354   -8.7844 O   0  0  0  0  0  0  0  0  0  0  0  0
   25.9206  -21.4204  -10.8149 C   0  0  0  0  0  0  0  0  0  0  0  0
   24.7658  -20.6972  -11.4488 C   0  0  0  0  0  0  0  0  0  0  0  0
   24.5389  -21.1457  -12.8765 C   0  0  2  0  0  0  0  0  0  0  0  0
   25.5822  -20.5622  -13.7331 N   0  0  0  0  0  0  0  0  0  0  0  0
   23.2180  -20.7216  -13.3822 C   0  0  0  0  0  0  0  0  0  0  0  0
   23.0770  -19.6039  -13.9198 O   0  0  0  0  0  0  0  0  0  0  0  0
   22.1179  -21.5959  -13.2499 N   0  0  0  0  0  0  0  0  0  0  0  0
   20.7980  -21.1993  -13.6284 C   0  0  1  0  0  0  0  0  0  0  0  0
   19.9793  -22.4386  -13.7916 C   0  0  0  0  0  0  0  0  0  0  0  0
   18.5721  -22.2991  -14.2090 C   0  0  0  0  0  0  0  0  0  0  0  0
   17.7783  -23.5037  -14.3875 C   0  0  0  0  0  0  0  0  0  0  0  0
   18.2680  -24.6323  -14.5371 O   0  0  0  0  0  0  0  0  0  0  0  0
   20.2134  -20.0949  -12.8826 C   0  0  0  0  0  0  0  0  0  0  0  0
   20.3743  -19.8685  -11.6522 O   0  0  0  0  0  0  0  0  0  0  0  0
   16.3590  -23.4380  -14.3986 O   0  0  0  0  0  0  0  0  0  0  0  0
   19.3999  -19.2006  -13.6128 O   0  0  0  0  0  0  0  0  0  0  0  0
  2  1  1  6
  3  2  1  0
  4  5  1  0
  4  3  1  0
  6  5  1  0
  7  6  1  0
  8  9  2  0
  8  2  1  0
 10 11  1  0
 11 12  2  0
 13 14  1  0
 13 11  1  0
 15 14  1  1
 15 16  1  0
 16  8  1  0
 17 15  1  0
 18 17  2  0
 19 17  1  0
 20 19  1  0
 21 22  1  0
 20 21  1  1
 23 22  1  0
 23 24  2  0
 25 20  1  0
 25 28  1  0
 26 25  2  0
 27 23  1  0
M  END
$$$$
