KQE.pdb
     RDKit          3D

 28 27  0  0  1  0  0  0  0  0999 V2000
   14.6998  -10.4304  -14.6845 N   0  0  0  0  0  0  0  0  0  0  0  0
   15.9871  -10.4186  -14.0723 C   0  0  1  0  0  0  0  0  0  0  0  0
   17.0576  -11.1776  -14.7896 C   0  0  0  0  0  0  0  0  0  0  0  0
   16.8133  -12.6455  -14.9353 C   0  0  0  0  0  0  0  0  0  0  0  0
   17.9508  -13.3441  -15.5809 C   0  0  0  0  0  0  0  0  0  0  0  0
   17.5290  -14.8219  -15.7518 C   0  0  0  0  0  0  0  0  0  0  0  0
   18.6324  -15.5626  -16.3384 N   0  0  0  0  0  0  0  0  0  0  0  0
   16.4676   -9.0383  -13.7778 C   0  0  0  0  0  0  0  0  0  0  0  0
   15.9955   -8.0914  -14.4495 O   0  0  0  0  0  0  0  0  0  0  0  0
   14.9598   -6.4528   -8.5106 N   0  0  0  0  0  0  0  0  0  0  0  0
   16.2109   -6.8145   -9.1112 C   0  0  0  0  0  0  0  0  0  0  0  0
   17.2244   -7.0313   -8.4139 O   0  0  0  0  0  0  0  0  0  0  0  0
   16.2964   -6.9311  -10.5830 C   0  0  0  0  0  0  0  0  0  0  0  0
   17.7257   -7.1910  -10.9677 C   0  0  0  0  0  0  0  0  0  0  0  0
   17.8730   -7.4206  -12.4565 C   0  0  2  0  0  0  0  0  0  0  0  0
   17.4245   -8.7840  -12.7772 N   0  0  0  0  0  0  0  0  0  0  0  0
   19.2725   -7.2650  -12.9007 C   0  0  0  0  0  0  0  0  0  0  0  0
   20.0995   -8.1812  -12.7146 O   0  0  0  0  0  0  0  0  0  0  0  0
   19.6626   -6.0675  -13.5379 N   0  0  0  0  0  0  0  0  0  0  0  0
   20.9997   -5.8690  -14.0024 C   0  0  1  0  0  0  0  0  0  0  0  0
   20.9422   -5.6634  -15.4812 C   0  0  0  0  0  0  0  0  0  0  0  0
   22.1984   -5.3792  -16.1987 C   0  0  0  0  0  0  0  0  0  0  0  0
   22.1504   -5.2075  -17.6414 C   0  0  0  0  0  0  0  0  0  0  0  0
   23.0530   -4.6701  -18.2989 O   0  0  0  0  0  0  0  0  0  0  0  0
   21.8287   -4.9608  -13.2242 C   0  0  0  0  0  0  0  0  0  0  0  0
   21.4164   -3.9691  -12.5627 O   0  0  0  0  0  0  0  0  0  0  0  0
   21.0294   -5.6637  -18.3859 O   0  0  0  0  0  0  0  0  0  0  0  0
   23.2158   -5.2264  -13.2114 O   0  0  0  0  0  0  0  0  0  0  0  0
  2  1  1  6
  3  2  1  0
  4  5  1  0
  4  3  1  0
  6  5  1  0
  7  6  1  0
  8  9  2  0
  8  2  1  0
 10 11  1  0
 11 12  2  0
 13 14  1  0
 13 11  1  0
 15 14  1  1
 15 16  1  0
 16  8  1  0
 17 15  1  0
 18 17  2  0
 19 17  1  0
 20 19  1  0
 21 22  1  0
 20 21  1  6
 23 22  1  0
 23 24  2  0
 25 20  1  0
 25 28  1  0
 26 25  2  0
 27 23  1  0
M  END
$$$$
