KQE.pdb
     RDKit          3D

 28 27  0  0  1  0  0  0  0  0999 V2000
   15.4284  -11.9296  -14.7783 N   0  0  0  0  0  0  0  0  0  0  0  0
   16.4909  -11.1671  -14.2109 C   0  0  1  0  0  0  0  0  0  0  0  0
   17.6243  -10.8422  -15.1309 C   0  0  0  0  0  0  0  0  0  0  0  0
   18.3014  -12.0212  -15.7532 C   0  0  0  0  0  0  0  0  0  0  0  0
   19.5420  -11.6431  -16.4721 C   0  0  0  0  0  0  0  0  0  0  0  0
   20.1346  -12.9460  -17.0569 C   0  0  0  0  0  0  0  0  0  0  0  0
   20.8692  -13.6402  -16.0135 N   0  0  0  0  0  0  0  0  0  0  0  0
   16.0105   -9.9186  -13.5526 C   0  0  0  0  0  0  0  0  0  0  0  0
   15.2409   -9.1682  -14.1971 O   0  0  0  0  0  0  0  0  0  0  0  0
   13.4418   -9.2610   -8.3818 N   0  0  0  0  0  0  0  0  0  0  0  0
   13.7204   -7.8672   -8.5731 C   0  0  0  0  0  0  0  0  0  0  0  0
   13.2086   -6.9982   -7.8359 O   0  0  0  0  0  0  0  0  0  0  0  0
   14.6306   -7.4576   -9.6643 C   0  0  0  0  0  0  0  0  0  0  0  0
   15.0900   -8.6846  -10.4003 C   0  0  0  0  0  0  0  0  0  0  0  0
   15.9450   -8.3325  -11.5986 C   0  0  2  0  0  0  0  0  0  0  0  0
   16.3985   -9.5736  -12.2442 N   0  0  0  0  0  0  0  0  0  0  0  0
   17.1288   -7.5378  -11.2146 C   0  0  0  0  0  0  0  0  0  0  0  0
   18.0902   -8.0791  -10.6309 O   0  0  0  0  0  0  0  0  0  0  0  0
   17.1588   -6.1592  -11.5158 N   0  0  0  0  0  0  0  0  0  0  0  0
   18.3655   -5.3993  -11.4208 C   0  0  1  0  0  0  0  0  0  0  0  0
   19.3966   -6.0746  -12.2654 C   0  0  0  0  0  0  0  0  0  0  0  0
   20.7301   -5.4548  -12.3729 C   0  0  0  0  0  0  0  0  0  0  0  0
   21.7135   -6.0711  -13.2482 C   0  0  0  0  0  0  0  0  0  0  0  0
   22.4303   -5.4326  -14.0321 O   0  0  0  0  0  0  0  0  0  0  0  0
   18.2335   -3.9548  -11.5389 C   0  0  0  0  0  0  0  0  0  0  0  0
   17.2832   -3.3443  -12.1001 O   0  0  0  0  0  0  0  0  0  0  0  0
   21.9028   -7.4793  -13.2432 O   0  0  0  0  0  0  0  0  0  0  0  0
   19.2643   -3.1778  -10.9657 O   0  0  0  0  0  0  0  0  0  0  0  0
  2  1  1  6
  3  2  1  0
  4  5  1  0
  4  3  1  0
  6  5  1  0
  7  6  1  0
  8  9  2  0
  8  2  1  0
 10 11  1  0
 11 12  2  0
 13 14  1  0
 13 11  1  0
 15 14  1  1
 15 16  1  0
 16  8  1  0
 17 15  1  0
 18 17  2  0
 19 17  1  0
 20 19  1  0
 21 22  1  0
 20 21  1  6
 23 22  1  0
 23 24  2  0
 25 20  1  0
 25 28  1  0
 26 25  2  0
 27 23  1  0
M  END
$$$$
