KQE.pdb
     RDKit          3D

 28 27  0  0  1  0  0  0  0  0999 V2000
   27.3959  -21.3148  -20.1149 N   0  0  0  0  0  0  0  0  0  0  0  0
   26.6199  -22.2033  -19.3146 C   0  0  1  0  0  0  0  0  0  0  0  0
   27.2750  -22.6953  -18.0634 C   0  0  0  0  0  0  0  0  0  0  0  0
   28.5889  -23.3824  -18.2567 C   0  0  0  0  0  0  0  0  0  0  0  0
   29.1762  -23.8444  -16.9759 C   0  0  0  0  0  0  0  0  0  0  0  0
   30.5366  -24.4954  -17.3170 C   0  0  0  0  0  0  0  0  0  0  0  0
   31.2120  -24.8520  -16.0813 N   0  0  0  0  0  0  0  0  0  0  0  0
   25.2742  -21.6508  -18.9878 C   0  0  0  0  0  0  0  0  0  0  0  0
   25.1730  -20.4176  -18.7892 O   0  0  0  0  0  0  0  0  0  0  0  0
   20.2730  -24.3665  -17.7547 N   0  0  0  0  0  0  0  0  0  0  0  0
   19.6062  -23.2607  -18.3787 C   0  0  0  0  0  0  0  0  0  0  0  0
   18.3892  -23.0499  -18.1912 O   0  0  0  0  0  0  0  0  0  0  0  0
   20.3784  -22.3573  -19.2588 C   0  0  0  0  0  0  0  0  0  0  0  0
   21.7858  -22.8726  -19.3695 C   0  0  0  0  0  0  0  0  0  0  0  0
   22.7827  -21.9194  -18.7463 C   0  0  2  0  0  0  0  0  0  0  0  0
   24.1359  -22.4744  -18.8998 N   0  0  0  0  0  0  0  0  0  0  0  0
   22.5168  -21.7085  -17.3092 C   0  0  0  0  0  0  0  0  0  0  0  0
   23.0368  -22.4552  -16.4548 O   0  0  0  0  0  0  0  0  0  0  0  0
   21.6676  -20.6524  -16.9147 N   0  0  0  0  0  0  0  0  0  0  0  0
   21.4391  -20.3519  -15.5362 C   0  0  1  0  0  0  0  0  0  0  0  0
   20.7266  -19.0402  -15.4681 C   0  0  0  0  0  0  0  0  0  0  0  0
   20.4004  -18.4879  -14.1406 C   0  0  0  0  0  0  0  0  0  0  0  0
   19.6988  -17.2167  -14.0709 C   0  0  0  0  0  0  0  0  0  0  0  0
   19.4344  -16.5234  -15.0636 O   0  0  0  0  0  0  0  0  0  0  0  0
   20.9364  -21.4392  -14.7099 C   0  0  0  0  0  0  0  0  0  0  0  0
   19.9789  -22.2063  -15.0025 O   0  0  0  0  0  0  0  0  0  0  0  0
   19.2709  -16.6958  -12.8201 O   0  0  0  0  0  0  0  0  0  0  0  0
   21.5901  -21.6480  -13.4754 O   0  0  0  0  0  0  0  0  0  0  0  0
  2  1  1  1
  3  2  1  0
  4  5  1  0
  4  3  1  0
  6  5  1  0
  7  6  1  0
  8  9  2  0
  8  2  1  0
 10 11  1  0
 11 12  2  0
 13 14  1  0
 13 11  1  0
 15 14  1  1
 15 16  1  0
 16  8  1  0
 17 15  1  0
 18 17  2  0
 19 17  1  0
 20 19  1  0
 21 22  1  0
 20 21  1  6
 23 22  1  0
 23 24  2  0
 25 20  1  0
 25 28  1  0
 26 25  2  0
 27 23  1  0
M  END
$$$$
