KQE.pdb
     RDKit          3D

 28 27  0  0  1  0  0  0  0  0999 V2000
   20.0077  -13.3125  -18.0413 N   0  0  0  0  0  0  0  0  0  0  0  0
   20.8818  -12.4313  -17.3401 C   0  0  1  0  0  0  0  0  0  0  0  0
   22.2488  -12.2673  -17.9241 C   0  0  0  0  0  0  0  0  0  0  0  0
   22.4457  -12.8799  -19.2738 C   0  0  0  0  0  0  0  0  0  0  0  0
   23.8296  -12.7023  -19.7760 C   0  0  0  0  0  0  0  0  0  0  0  0
   23.8660  -13.2926  -21.2047 C   0  0  0  0  0  0  0  0  0  0  0  0
   25.1854  -13.0743  -21.7719 N   0  0  0  0  0  0  0  0  0  0  0  0
   20.2752  -11.0893  -17.1081 C   0  0  0  0  0  0  0  0  0  0  0  0
   19.8288  -10.4626  -18.0974 O   0  0  0  0  0  0  0  0  0  0  0  0
   16.6483   -9.4280  -12.6718 N   0  0  0  0  0  0  0  0  0  0  0  0
   16.2723   -9.8629  -13.9857 C   0  0  0  0  0  0  0  0  0  0  0  0
   15.1172  -10.2737  -14.2252 O   0  0  0  0  0  0  0  0  0  0  0  0
   17.2746   -9.8220  -15.0724 C   0  0  0  0  0  0  0  0  0  0  0  0
   18.5635   -9.2770  -14.5245 C   0  0  0  0  0  0  0  0  0  0  0  0
   19.6323   -9.1849  -15.5923 C   0  0  2  0  0  0  0  0  0  0  0  0
   20.1963  -10.5235  -15.8215 N   0  0  0  0  0  0  0  0  0  0  0  0
   20.7239   -8.2712  -15.1997 C   0  0  0  0  0  0  0  0  0  0  0  0
   21.7010   -8.6974  -14.5503 O   0  0  0  0  0  0  0  0  0  0  0  0
   20.6479   -6.9108  -15.5679 N   0  0  0  0  0  0  0  0  0  0  0  0
   21.6697   -5.9798  -15.2048 C   0  0  1  0  0  0  0  0  0  0  0  0
   21.7015   -4.9092  -16.2467 C   0  0  0  0  0  0  0  0  0  0  0  0
   22.6818   -3.8178  -16.1005 C   0  0  0  0  0  0  0  0  0  0  0  0
   22.6963   -2.7595  -17.0969 C   0  0  0  0  0  0  0  0  0  0  0  0
   22.0196   -1.7249  -17.0091 O   0  0  0  0  0  0  0  0  0  0  0  0
   21.7061   -5.5680  -13.8095 C   0  0  0  0  0  0  0  0  0  0  0  0
   20.7066   -5.4471  -13.0497 O   0  0  0  0  0  0  0  0  0  0  0  0
   23.5142   -2.8681  -18.2537 O   0  0  0  0  0  0  0  0  0  0  0  0
   22.9795   -5.2866  -13.2674 O   0  0  0  0  0  0  0  0  0  0  0  0
  2  1  1  6
  3  2  1  0
  4  5  1  0
  4  3  1  0
  6  5  1  0
  7  6  1  0
  8  9  2  0
  8  2  1  0
 10 11  1  0
 11 12  2  0
 13 14  1  0
 13 11  1  0
 15 14  1  1
 15 16  1  0
 16  8  1  0
 17 15  1  0
 18 17  2  0
 19 17  1  0
 20 19  1  0
 21 22  1  0
 20 21  1  6
 23 22  1  0
 23 24  2  0
 25 20  1  0
 25 28  1  0
 26 25  2  0
 27 23  1  0
M  END
$$$$
