ISR.pdb
     RDKit          3D

 26 25  0  0  1  0  0  0  0  0999 V2000
   27.8022  -19.7766   -7.2512 C   0  0  0  0  0  0  0  0  0  0  0  0
   26.8483  -20.7541   -7.9477 C   0  0  0  0  0  0  0  0  0  0  0  0
   26.4592  -20.1261   -9.2478 C   0  0  2  0  0  0  0  0  0  0  0  0
   25.1903  -19.3165   -9.0629 C   0  0  0  0  0  0  0  0  0  0  0  0
   26.2358  -21.1239  -10.3497 C   0  0  2  0  0  0  0  0  0  0  0  0
   27.2452  -22.1159  -10.4554 N   0  0  0  0  0  0  0  0  0  0  0  0
   26.0272  -20.3968  -11.6081 C   0  0  0  0  0  0  0  0  0  0  0  0
   25.0960  -19.5527  -11.6654 O   0  0  0  0  0  0  0  0  0  0  0  0
   27.9790  -21.6824  -14.8145 O   0  0  0  0  0  0  0  0  0  0  0  0
   27.7470  -20.3165  -14.9524 C   0  0  0  0  0  0  0  0  0  0  0  0
   26.6412  -19.8882  -14.0066 C   0  0  2  0  0  0  0  0  0  0  0  0
   26.8421  -20.6174  -12.7571 N   0  0  0  0  0  0  0  0  0  0  0  0
   25.3145  -20.3015  -14.5420 C   0  0  0  0  0  0  0  0  0  0  0  0
   24.6019  -21.1891  -13.9793 O   0  0  0  0  0  0  0  0  0  0  0  0
   18.4795  -17.1113  -12.8123 N   0  0  0  0  0  0  0  0  0  0  0  0
   17.9706  -17.9076  -13.8747 C   0  0  0  0  0  0  0  0  0  0  0  0
   16.7003  -18.0515  -14.0910 N   0  0  0  0  0  0  0  0  0  0  0  0
   18.9364  -18.5565  -14.7118 N   0  0  0  0  0  0  0  0  0  0  0  0
   20.3316  -18.4552  -14.2706 C   0  0  0  0  0  0  0  0  0  0  0  0
   21.1528  -19.1773  -15.3146 C   0  0  0  0  0  0  0  0  0  0  0  0
   22.6073  -19.1535  -15.0181 C   0  0  0  0  0  0  0  0  0  0  0  0
   23.3881  -19.8871  -16.0736 C   0  0  2  0  0  0  0  0  0  0  0  0
   24.8179  -19.6894  -15.7222 N   0  0  0  0  0  0  0  0  0  0  0  0
   23.1341  -19.2783  -17.3900 C   0  0  0  0  0  0  0  0  0  0  0  0
   22.4472  -19.9131  -18.2300 O   0  0  0  0  0  0  0  0  0  0  0  0
   23.6067  -18.0525  -17.7460 O   0  0  0  0  0  0  0  0  0  0  0  0
  2  3  1  0
  2  1  1  0
  3  4  1  1
  5  6  1  6
  5  3  1  0
  7  5  1  0
  8  7  2  0
 10  9  1  0
 11 10  1  6
 11 12  1  0
 12  7  1  0
 13 23  1  0
 13 11  1  0
 14 13  2  0
 16 15  1  0
 17 16  2  0
 18 16  1  0
 19 18  1  0
 20 19  1  0
 20 21  1  0
 22 21  1  1
 22 23  1  0
 24 26  1  0
 24 22  1  0
 25 24  2  0
M  END
$$$$
