ISR.pdb
     RDKit          3D

 26 25  0  0  1  0  0  0  0  0999 V2000
   24.8109  -20.5865   -8.1565 C   0  0  0  0  0  0  0  0  0  0  0  0
   25.6259  -21.3314   -9.2202 C   0  0  0  0  0  0  0  0  0  0  0  0
   25.3075  -20.6929  -10.5344 C   0  0  2  0  0  0  0  0  0  0  0  0
   23.8260  -20.8366  -10.8249 C   0  0  0  0  0  0  0  0  0  0  0  0
   26.0809  -21.2755  -11.6842 C   0  0  2  0  0  0  0  0  0  0  0  0
   27.4651  -21.4555  -11.4279 N   0  0  0  0  0  0  0  0  0  0  0  0
   25.8311  -20.4613  -12.8803 C   0  0  0  0  0  0  0  0  0  0  0  0
   26.0514  -19.2240  -12.8199 O   0  0  0  0  0  0  0  0  0  0  0  0
   26.3334  -21.9662  -16.3147 O   0  0  0  0  0  0  0  0  0  0  0  0
   26.1462  -20.5866  -16.3115 C   0  0  0  0  0  0  0  0  0  0  0  0
   25.0925  -20.2165  -15.2850 C   0  0  2  0  0  0  0  0  0  0  0  0
   25.3504  -21.0269  -14.0976 N   0  0  0  0  0  0  0  0  0  0  0  0
   23.7375  -20.5882  -15.7784 C   0  0  0  0  0  0  0  0  0  0  0  0
   23.3353  -21.7919  -15.8164 O   0  0  0  0  0  0  0  0  0  0  0  0
   17.5986  -16.9783  -12.8188 N   0  0  0  0  0  0  0  0  0  0  0  0
   18.7869  -16.4014  -13.3451 C   0  0  0  0  0  0  0  0  0  0  0  0
   19.0430  -15.1332  -13.2597 N   0  0  0  0  0  0  0  0  0  0  0  0
   19.7068  -17.2950  -13.9855 N   0  0  0  0  0  0  0  0  0  0  0  0
   19.2839  -18.6975  -14.0607 C   0  0  0  0  0  0  0  0  0  0  0  0
   20.4140  -19.4382  -14.7389 C   0  0  0  0  0  0  0  0  0  0  0  0
   20.5155  -19.1288  -16.1873 C   0  0  0  0  0  0  0  0  0  0  0  0
   21.5690  -19.9732  -16.8498 C   0  0  2  0  0  0  0  0  0  0  0  0
   22.8550  -19.5703  -16.2248 N   0  0  0  0  0  0  0  0  0  0  0  0
   21.6215  -19.6611  -18.2879 C   0  0  0  0  0  0  0  0  0  0  0  0
   20.6456  -19.9785  -19.0140 O   0  0  0  0  0  0  0  0  0  0  0  0
   22.6801  -19.0393  -18.8755 O   0  0  0  0  0  0  0  0  0  0  0  0
  2  3  1  0
  2  1  1  0
  3  4  1  6
  5  6  1  1
  5  3  1  0
  7  5  1  0
  8  7  2  0
 10  9  1  0
 11 10  1  6
 11 12  1  0
 12  7  1  0
 13 23  1  0
 13 11  1  0
 14 13  2  0
 16 15  1  0
 17 16  2  0
 18 16  1  0
 19 18  1  0
 20 19  1  0
 20 21  1  0
 22 21  1  1
 22 23  1  0
 24 26  1  0
 24 22  1  0
 25 24  2  0
M  END
$$$$
