ISR.pdb
     RDKit          3D

 26 25  0  0  1  0  0  0  0  0999 V2000
   25.9059  -14.0621  -15.8558 C   0  0  0  0  0  0  0  0  0  0  0  0
   26.6384  -14.9532  -16.8657 C   0  0  0  0  0  0  0  0  0  0  0  0
   26.3707  -16.3692  -16.4667 C   0  0  2  0  0  0  0  0  0  0  0  0
   26.9601  -16.6318  -15.0943 C   0  0  0  0  0  0  0  0  0  0  0  0
   26.9310  -17.3774  -17.4308 C   0  0  2  0  0  0  0  0  0  0  0  0
   26.5547  -17.1671  -18.7829 N   0  0  0  0  0  0  0  0  0  0  0  0
   26.5905  -18.7239  -16.9546 C   0  0  0  0  0  0  0  0  0  0  0  0
   25.4692  -19.2034  -17.2637 O   0  0  0  0  0  0  0  0  0  0  0  0
   28.4881  -21.8791  -14.0219 O   0  0  0  0  0  0  0  0  0  0  0  0
   28.4652  -21.5340  -15.3705 C   0  0  0  0  0  0  0  0  0  0  0  0
   27.1552  -20.8436  -15.6989 C   0  0  2  0  0  0  0  0  0  0  0  0
   27.4859  -19.4973  -16.1589 N   0  0  0  0  0  0  0  0  0  0  0  0
   26.3289  -20.6915  -14.4694 C   0  0  0  0  0  0  0  0  0  0  0  0
   26.3441  -19.6334  -13.7677 O   0  0  0  0  0  0  0  0  0  0  0  0
   22.3608  -21.0034   -8.4559 N   0  0  0  0  0  0  0  0  0  0  0  0
   23.5142  -21.2236   -7.6541 C   0  0  0  0  0  0  0  0  0  0  0  0
   23.4415  -21.6344   -6.4265 N   0  0  0  0  0  0  0  0  0  0  0  0
   24.7836  -20.9682   -8.2693 N   0  0  0  0  0  0  0  0  0  0  0  0
   24.7349  -20.3159   -9.5821 C   0  0  0  0  0  0  0  0  0  0  0  0
   25.5076  -21.2128  -10.5225 C   0  0  0  0  0  0  0  0  0  0  0  0
   25.5139  -20.7102  -11.9194 C   0  0  0  0  0  0  0  0  0  0  0  0
   24.6897  -21.5918  -12.8168 C   0  0  2  0  0  0  0  0  0  0  0  0
   25.4906  -21.7597  -14.0566 N   0  0  0  0  0  0  0  0  0  0  0  0
   23.4278  -20.9125  -13.1550 C   0  0  0  0  0  0  0  0  0  0  0  0
   22.3597  -21.3209  -12.6328 O   0  0  0  0  0  0  0  0  0  0  0  0
   23.3584  -19.8549  -14.0089 O   0  0  0  0  0  0  0  0  0  0  0  0
  2  3  1  0
  2  1  1  0
  3  4  1  1
  5  6  1  6
  5  3  1  0
  7  5  1  0
  8  7  2  0
 10  9  1  0
 11 10  1  1
 11 12  1  0
 12  7  1  0
 13 23  1  0
 13 11  1  0
 14 13  2  0
 16 15  1  0
 17 16  2  0
 18 16  1  0
 19 18  1  0
 20 19  1  0
 20 21  1  0
 22 21  1  1
 22 23  1  0
 24 26  1  0
 24 22  1  0
 25 24  2  0
M  END
$$$$
