ISR.pdb
     RDKit          3D

 26 25  0  0  1  0  0  0  0  0999 V2000
   16.0114  -14.7689  -20.6678 C   0  0  0  0  0  0  0  0  0  0  0  0
   17.4772  -14.6990  -20.2241 C   0  0  0  0  0  0  0  0  0  0  0  0
   17.5866  -13.5502  -19.2730 C   0  0  2  0  0  0  0  0  0  0  0  0
   17.2123  -12.2635  -19.9831 C   0  0  0  0  0  0  0  0  0  0  0  0
   18.9606  -13.3914  -18.6841 C   0  0  2  0  0  0  0  0  0  0  0  0
   19.4845  -14.5705  -18.0930 N   0  0  0  0  0  0  0  0  0  0  0  0
   18.9460  -12.2545  -17.7550 C   0  0  0  0  0  0  0  0  0  0  0  0
   18.1096  -12.2592  -16.8151 O   0  0  0  0  0  0  0  0  0  0  0  0
   21.2248   -8.2545  -16.2034 O   0  0  0  0  0  0  0  0  0  0  0  0
   21.1974   -9.3785  -17.0246 C   0  0  0  0  0  0  0  0  0  0  0  0
   19.8233  -10.0184  -16.9687 C   0  0  2  0  0  0  0  0  0  0  0  0
   19.8442  -11.1550  -17.8858 N   0  0  0  0  0  0  0  0  0  0  0  0
   18.7913   -9.0714  -17.4745 C   0  0  0  0  0  0  0  0  0  0  0  0
   18.6052   -8.8686  -18.7141 O   0  0  0  0  0  0  0  0  0  0  0  0
   10.8099   -7.1377  -14.9975 N   0  0  0  0  0  0  0  0  0  0  0  0
   11.0288   -6.1555  -16.0020 C   0  0  0  0  0  0  0  0  0  0  0  0
   10.0870   -5.3731  -16.4287 N   0  0  0  0  0  0  0  0  0  0  0  0
   12.3570   -6.0638  -16.5334 N   0  0  0  0  0  0  0  0  0  0  0  0
   13.3199   -7.0397  -16.0121 C   0  0  0  0  0  0  0  0  0  0  0  0
   14.6294   -6.7468  -16.7086 C   0  0  0  0  0  0  0  0  0  0  0  0
   15.7179   -7.6678  -16.2953 C   0  0  0  0  0  0  0  0  0  0  0  0
   16.9762   -7.4055  -17.0762 C   0  0  2  0  0  0  0  0  0  0  0  0
   17.9808   -8.3644  -16.5486 N   0  0  0  0  0  0  0  0  0  0  0  0
   17.4448   -6.0345  -16.8139 C   0  0  0  0  0  0  0  0  0  0  0  0
   18.2545   -5.8394  -15.8722 O   0  0  0  0  0  0  0  0  0  0  0  0
   17.0449   -4.9592  -17.5462 O   0  0  0  0  0  0  0  0  0  0  0  0
  2  3  1  0
  2  1  1  0
  3  4  1  6
  5  6  1  1
  5  3  1  0
  7  5  1  0
  8  7  2  0
 10  9  1  0
 11 10  1  6
 11 12  1  0
 12  7  1  0
 13 23  1  0
 13 11  1  0
 14 13  2  0
 16 15  1  0
 17 16  2  0
 18 16  1  0
 19 18  1  0
 20 19  1  0
 20 21  1  0
 22 21  1  1
 22 23  1  0
 24 26  1  0
 24 22  1  0
 25 24  2  0
M  END
$$$$
