ISR.pdb
     RDKit          3D

 26 25  0  0  1  0  0  0  0  0999 V2000
   27.0299  -21.7823  -16.3986 C   0  0  0  0  0  0  0  0  0  0  0  0
   26.6209  -22.3776  -15.0463 C   0  0  0  0  0  0  0  0  0  0  0  0
   25.1262  -22.3616  -15.0013 C   0  0  2  0  0  0  0  0  0  0  0  0
   24.6258  -20.9438  -15.1992 C   0  0  0  0  0  0  0  0  0  0  0  0
   24.5619  -22.8947  -13.7140 C   0  0  2  0  0  0  0  0  0  0  0  0
   25.0234  -24.1903  -13.3639 N   0  0  0  0  0  0  0  0  0  0  0  0
   23.0969  -22.8162  -13.7740 C   0  0  0  0  0  0  0  0  0  0  0  0
   22.4731  -23.7175  -14.3916 O   0  0  0  0  0  0  0  0  0  0  0  0
   21.1952  -20.0451  -11.5107 O   0  0  0  0  0  0  0  0  0  0  0  0
   20.4391  -21.1567  -11.8732 C   0  0  0  0  0  0  0  0  0  0  0  0
   20.9098  -21.6781  -13.2176 C   0  0  2  0  0  0  0  0  0  0  0  0
   22.3670  -21.7575  -13.1581 N   0  0  0  0  0  0  0  0  0  0  0  0
   20.5715  -20.7077  -14.2953 C   0  0  0  0  0  0  0  0  0  0  0  0
   21.2748  -19.6758  -14.5252 O   0  0  0  0  0  0  0  0  0  0  0  0
   15.3539  -21.4711  -21.2933 N   0  0  0  0  0  0  0  0  0  0  0  0
   15.9135  -20.1754  -21.4663 C   0  0  0  0  0  0  0  0  0  0  0  0
   15.6005  -19.4086  -22.4638 N   0  0  0  0  0  0  0  0  0  0  0  0
   16.8549  -19.7438  -20.4751 N   0  0  0  0  0  0  0  0  0  0  0  0
   17.0832  -20.6756  -19.3657 C   0  0  0  0  0  0  0  0  0  0  0  0
   18.0264  -19.9715  -18.4168 C   0  0  0  0  0  0  0  0  0  0  0  0
   18.3686  -20.7960  -17.2306 C   0  0  0  0  0  0  0  0  0  0  0  0
   19.1579  -20.0013  -16.2270 C   0  0  2  0  0  0  0  0  0  0  0  0
   19.4251  -20.9328  -15.1010 N   0  0  0  0  0  0  0  0  0  0  0  0
   18.3424  -18.8796  -15.7321 C   0  0  0  0  0  0  0  0  0  0  0  0
   17.6152  -19.0570  -14.7220 O   0  0  0  0  0  0  0  0  0  0  0  0
   18.3374  -17.6498  -16.3153 O   0  0  0  0  0  0  0  0  0  0  0  0
  2  3  1  0
  2  1  1  0
  3  4  1  1
  5  6  1  6
  5  3  1  0
  7  5  1  0
  8  7  2  0
 10  9  1  0
 11 10  1  1
 11 12  1  0
 12  7  1  0
 13 23  1  0
 13 11  1  0
 14 13  2  0
 16 15  1  0
 17 16  2  0
 18 16  1  0
 19 18  1  0
 20 19  1  0
 20 21  1  0
 22 21  1  6
 22 23  1  0
 24 26  1  0
 24 22  1  0
 25 24  2  0
M  END
$$$$
