ISR.pdb
     RDKit          3D

 26 25  0  0  1  0  0  0  0  0999 V2000
   22.1947  -12.0902  -14.2751 C   0  0  0  0  0  0  0  0  0  0  0  0
   23.6690  -12.2681  -14.6561 C   0  0  0  0  0  0  0  0  0  0  0  0
   23.7700  -13.5607  -15.4012 C   0  0  2  0  0  0  0  0  0  0  0  0
   23.2246  -14.6867  -14.5441 C   0  0  0  0  0  0  0  0  0  0  0  0
   25.1747  -13.9059  -15.8104 C   0  0  2  0  0  0  0  0  0  0  0  0
   25.8009  -12.9338  -16.6332 N   0  0  0  0  0  0  0  0  0  0  0  0
   25.1727  -15.2419  -16.4194 C   0  0  0  0  0  0  0  0  0  0  0  0
   24.6343  -15.3857  -17.5474 O   0  0  0  0  0  0  0  0  0  0  0  0
   27.0024  -18.3718  -14.4682 O   0  0  0  0  0  0  0  0  0  0  0  0
   26.9688  -18.4343  -15.8586 C   0  0  0  0  0  0  0  0  0  0  0  0
   25.7431  -17.7038  -16.3732 C   0  0  2  0  0  0  0  0  0  0  0  0
   25.7581  -16.3713  -15.7754 N   0  0  0  0  0  0  0  0  0  0  0  0
   24.5028  -18.3782  -15.8993 C   0  0  0  0  0  0  0  0  0  0  0  0
   23.8453  -17.9629  -14.8956 O   0  0  0  0  0  0  0  0  0  0  0  0
   20.5455  -17.4800  -13.3593 N   0  0  0  0  0  0  0  0  0  0  0  0
   19.1820  -17.7671  -13.6422 C   0  0  0  0  0  0  0  0  0  0  0  0
   18.2193  -16.9581  -13.3261 N   0  0  0  0  0  0  0  0  0  0  0  0
   18.9100  -19.0096  -14.3031 N   0  0  0  0  0  0  0  0  0  0  0  0
   20.0787  -19.8499  -14.5848 C   0  0  0  0  0  0  0  0  0  0  0  0
   20.3479  -19.7075  -16.0657 C   0  0  0  0  0  0  0  0  0  0  0  0
   21.6901  -19.1422  -16.3533 C   0  0  0  0  0  0  0  0  0  0  0  0
   22.7702  -20.1614  -16.1156 C   0  0  2  0  0  0  0  0  0  0  0  0
   24.0286  -19.5267  -16.5851 N   0  0  0  0  0  0  0  0  0  0  0  0
   22.5092  -21.3590  -16.9317 C   0  0  0  0  0  0  0  0  0  0  0  0
   23.2347  -21.5803  -17.9342 O   0  0  0  0  0  0  0  0  0  0  0  0
   21.5162  -22.2469  -16.6526 O   0  0  0  0  0  0  0  0  0  0  0  0
  2  3  1  0
  2  1  1  0
  3  4  1  1
  5  6  1  6
  5  3  1  0
  7  5  1  0
  8  7  2  0
 10  9  1  0
 11 10  1  1
 11 12  1  0
 12  7  1  0
 13 23  1  0
 13 11  1  0
 14 13  2  0
 16 15  1  0
 17 16  2  0
 18 16  1  0
 19 18  1  0
 20 19  1  0
 20 21  1  0
 22 21  1  6
 22 23  1  0
 24 26  1  0
 24 22  1  0
 25 24  2  0
M  END
$$$$
