KVH.pdb
     RDKit          3D

 27 27  0  0  1  0  0  0  0  0999 V2000
   28.0891  -22.6685  -15.7430 N   0  0  0  0  0  0  0  0  0  0  0  0
   27.0021  -21.6938  -15.9391 C   0  0  1  0  0  0  0  0  0  0  0  0
   26.4975  -21.9169  -17.3325 C   0  0  0  0  0  0  0  0  0  0  0  0
   27.1079  -21.0592  -18.3781 C   0  0  0  0  0  0  0  0  0  0  0  0
   26.3782  -19.8095  -18.7182 C   0  0  0  0  0  0  0  0  0  0  0  0
   26.9342  -19.0180  -19.8537 C   0  0  0  0  0  0  0  0  0  0  0  0
   28.3042  -18.6379  -19.7371 N   0  0  0  0  0  0  0  0  0  0  0  0
   25.9707  -21.8263  -14.9063 C   0  0  0  0  0  0  0  0  0  0  0  0
   25.0458  -22.6610  -15.0729 O   0  0  0  0  0  0  0  0  0  0  0  0
   24.3787  -20.8811  -10.2585 C   0  0  0  0  0  0  0  0  0  0  0  0
   25.4366  -20.7249  -11.3260 C   0  0  1  0  0  0  0  0  0  0  0  0
   26.6926  -21.4352  -10.8684 C   0  0  0  0  0  0  0  0  0  0  0  0
   24.9579  -21.2141  -12.6729 C   0  0  2  0  0  0  0  0  0  0  0  0
   25.9355  -21.0660  -13.7040 N   0  0  0  0  0  0  0  0  0  0  0  0
   23.7283  -20.4190  -13.0010 C   0  0  0  0  0  0  0  0  0  0  0  0
   23.7653  -19.1702  -13.0274 O   0  0  0  0  0  0  0  0  0  0  0  0
   22.5090  -21.0920  -13.2848 N   0  0  0  0  0  0  0  0  0  0  0  0
   21.2710  -20.3488  -13.6133 C   0  0  1  0  0  0  0  0  0  0  0  0
   20.4716  -21.1951  -14.5517 C   0  0  0  0  0  0  0  0  0  0  0  0
   21.0024  -21.3104  -15.9058 C   0  0  0  0  0  0  0  0  0  0  0  0
   22.0281  -20.4980  -16.4008 C   0  0  0  0  0  0  0  0  0  0  0  0
   22.2898  -20.8490  -17.6712 N   0  0  0  0  0  0  0  0  0  0  0  0
   21.4453  -21.8530  -17.9502 C   0  0  0  0  0  0  0  0  0  0  0  0
   20.6784  -22.1286  -16.9001 N   0  0  0  0  0  0  0  0  0  0  0  0
   20.5265  -20.1773  -12.3453 C   0  0  0  0  0  0  0  0  0  0  0  0
   19.7039  -19.2594  -12.1805 O   0  0  0  0  0  0  0  0  0  0  0  0
   20.7302  -21.0443  -11.3002 O   0  0  0  0  0  0  0  0  0  0  0  0
  2  3  1  0
  2  1  1  1
  4  3  1  0
  4  5  1  0
  5  6  1  0
  7  6  1  0
  8  2  1  0
  9  8  2  0
 11 10  1  1
 11 12  1  0
 13 11  1  0
 13 14  1  6
 14  8  1  0
 15 16  2  0
 15 13  1  0
 17 15  1  0
 18 17  1  0
 18 19  1  6
 20 24  1  0
 20 19  1  0
 21 20  2  0
 22 21  1  0
 22 23  1  0
 23 24  2  0
 25 18  1  0
 25 27  1  0
 26 25  2  0
M  END
$$$$
