KVH.pdb
     RDKit          3D

 27 27  0  0  1  0  0  0  0  0999 V2000
   24.7889  -22.1131  -10.2963 N   0  0  0  0  0  0  0  0  0  0  0  0
   24.5737  -20.6844  -10.0089 C   0  0  1  0  0  0  0  0  0  0  0  0
   25.0312  -20.4764   -8.5971 C   0  0  0  0  0  0  0  0  0  0  0  0
   24.0236  -20.7716   -7.5488 C   0  0  0  0  0  0  0  0  0  0  0  0
   23.1742  -21.9720   -7.7664 C   0  0  0  0  0  0  0  0  0  0  0  0
   22.1032  -22.2054   -6.7548 C   0  0  0  0  0  0  0  0  0  0  0  0
   21.0377  -21.2570   -6.7445 N   0  0  0  0  0  0  0  0  0  0  0  0
   25.2577  -19.8323  -10.9858 C   0  0  0  0  0  0  0  0  0  0  0  0
   25.1050  -18.5865  -10.9196 O   0  0  0  0  0  0  0  0  0  0  0  0
   29.1031  -20.2666  -12.0826 C   0  0  0  0  0  0  0  0  0  0  0  0
   28.1966  -20.1056  -13.2808 C   0  0  1  0  0  0  0  0  0  0  0  0
   28.0429  -21.4527  -13.9541 C   0  0  0  0  0  0  0  0  0  0  0  0
   26.8664  -19.4952  -12.9060 C   0  0  2  0  0  0  0  0  0  0  0  0
   26.0992  -20.3180  -12.0253 N   0  0  0  0  0  0  0  0  0  0  0  0
   26.1243  -19.2722  -14.1910 C   0  0  0  0  0  0  0  0  0  0  0  0
   25.5579  -20.2221  -14.7728 O   0  0  0  0  0  0  0  0  0  0  0  0
   26.0644  -17.9680  -14.7528 N   0  0  0  0  0  0  0  0  0  0  0  0
   25.2167  -17.6685  -15.9295 C   0  0  1  0  0  0  0  0  0  0  0  0
   24.8323  -16.2254  -15.8537 C   0  0  0  0  0  0  0  0  0  0  0  0
   24.0739  -15.7136  -16.9900 C   0  0  0  0  0  0  0  0  0  0  0  0
   22.8769  -16.2848  -17.4349 C   0  0  0  0  0  0  0  0  0  0  0  0
   22.4266  -15.5891  -18.4927 N   0  0  0  0  0  0  0  0  0  0  0  0
   23.3253  -14.6138  -18.6931 C   0  0  0  0  0  0  0  0  0  0  0  0
   24.3064  -14.6868  -17.7992 N   0  0  0  0  0  0  0  0  0  0  0  0
   26.0549  -17.8949  -17.1285 C   0  0  0  0  0  0  0  0  0  0  0  0
   27.2899  -17.7506  -17.1088 O   0  0  0  0  0  0  0  0  0  0  0  0
   25.4780  -18.2772  -18.3145 O   0  0  0  0  0  0  0  0  0  0  0  0
  2  3  1  0
  2  1  1  6
  4  3  1  0
  4  5  1  0
  5  6  1  0
  7  6  1  0
  8  2  1  0
  9  8  2  0
 11 10  1  1
 11 12  1  0
 13 11  1  0
 13 14  1  1
 14  8  1  0
 15 16  2  0
 15 13  1  0
 17 15  1  0
 18 17  1  0
 18 19  1  1
 20 24  1  0
 20 19  1  0
 21 20  2  0
 22 21  1  0
 22 23  1  0
 23 24  2  0
 25 18  1  0
 25 27  1  0
 26 25  2  0
M  END
$$$$
