KVH.pdb
     RDKit          3D

 27 27  0  0  1  0  0  0  0  0999 V2000
   23.6413  -19.9356  -15.1334 N   0  0  0  0  0  0  0  0  0  0  0  0
   23.2543  -18.9238  -16.1318 C   0  0  1  0  0  0  0  0  0  0  0  0
   21.8180  -19.1988  -16.4591 C   0  0  0  0  0  0  0  0  0  0  0  0
   21.5282  -20.5618  -16.9686 C   0  0  0  0  0  0  0  0  0  0  0  0
   20.1048  -20.8675  -17.2689 C   0  0  0  0  0  0  0  0  0  0  0  0
   19.8348  -22.2164  -17.8454 C   0  0  0  0  0  0  0  0  0  0  0  0
   18.4875  -22.4670  -18.2416 N   0  0  0  0  0  0  0  0  0  0  0  0
   23.5014  -17.5650  -15.6413 C   0  0  0  0  0  0  0  0  0  0  0  0
   23.1832  -17.2767  -14.4601 O   0  0  0  0  0  0  0  0  0  0  0  0
   25.8801  -13.2577  -15.7572 C   0  0  0  0  0  0  0  0  0  0  0  0
   25.6995  -14.6879  -16.2102 C   0  0  1  0  0  0  0  0  0  0  0  0
   26.7441  -15.5456  -15.5285 C   0  0  0  0  0  0  0  0  0  0  0  0
   24.2952  -15.1868  -15.9624 C   0  0  2  0  0  0  0  0  0  0  0  0
   24.0865  -16.5252  -16.4167 N   0  0  0  0  0  0  0  0  0  0  0  0
   23.3761  -14.2425  -16.6803 C   0  0  0  0  0  0  0  0  0  0  0  0
   23.1614  -14.3699  -17.9048 O   0  0  0  0  0  0  0  0  0  0  0  0
   22.7430  -13.1925  -15.9614 N   0  0  0  0  0  0  0  0  0  0  0  0
   21.6949  -12.3500  -16.5814 C   0  0  1  0  0  0  0  0  0  0  0  0
   20.3847  -13.0446  -16.3895 C   0  0  0  0  0  0  0  0  0  0  0  0
   19.2229  -12.3689  -16.9568 C   0  0  0  0  0  0  0  0  0  0  0  0
   19.3110  -11.2016  -17.7228 C   0  0  0  0  0  0  0  0  0  0  0  0
   18.0751  -10.8292  -18.0965 N   0  0  0  0  0  0  0  0  0  0  0  0
   17.2474  -11.7455  -17.5727 C   0  0  0  0  0  0  0  0  0  0  0  0
   17.9294  -12.6626  -16.8940 N   0  0  0  0  0  0  0  0  0  0  0  0
   21.6872  -11.0663  -15.8441 C   0  0  0  0  0  0  0  0  0  0  0  0
   21.7644   -9.9696  -16.4252 O   0  0  0  0  0  0  0  0  0  0  0  0
   21.5926  -11.0552  -14.4743 O   0  0  0  0  0  0  0  0  0  0  0  0
  2  3  1  0
  2  1  1  1
  4  3  1  0
  4  5  1  0
  5  6  1  0
  7  6  1  0
  8  2  1  0
  9  8  2  0
 11 10  1  1
 11 12  1  0
 13 11  1  0
 13 14  1  6
 14  8  1  0
 15 16  2  0
 15 13  1  0
 17 15  1  0
 18 17  1  0
 18 19  1  1
 20 24  1  0
 20 19  1  0
 21 20  2  0
 22 21  1  0
 22 23  1  0
 23 24  2  0
 25 18  1  0
 25 27  1  0
 26 25  2  0
M  END
$$$$
