KVH.pdb
     RDKit          3D

 27 27  0  0  1  0  0  0  0  0999 V2000
   22.4445  -19.3578  -16.0549 N   0  0  0  0  0  0  0  0  0  0  0  0
   21.3939  -18.5424  -16.6886 C   0  0  1  0  0  0  0  0  0  0  0  0
   20.1105  -18.9381  -16.0235 C   0  0  0  0  0  0  0  0  0  0  0  0
   19.7076  -20.3546  -16.2038 C   0  0  0  0  0  0  0  0  0  0  0  0
   18.4145  -20.7580  -15.5914 C   0  0  0  0  0  0  0  0  0  0  0  0
   17.9787  -22.1605  -15.8520 C   0  0  0  0  0  0  0  0  0  0  0  0
   16.7469  -22.5530  -15.2491 N   0  0  0  0  0  0  0  0  0  0  0  0
   21.6952  -17.1113  -16.5926 C   0  0  0  0  0  0  0  0  0  0  0  0
   22.1992  -16.6650  -15.5312 O   0  0  0  0  0  0  0  0  0  0  0  0
   22.6519  -12.7404  -18.6851 C   0  0  0  0  0  0  0  0  0  0  0  0
   22.5422  -14.2474  -18.7027 C   0  0  1  0  0  0  0  0  0  0  0  0
   23.9379  -14.8326  -18.7362 C   0  0  0  0  0  0  0  0  0  0  0  0
   21.7279  -14.7690  -17.5420 C   0  0  2  0  0  0  0  0  0  0  0  0
   21.4556  -16.1686  -17.6312 N   0  0  0  0  0  0  0  0  0  0  0  0
   20.4471  -13.9872  -17.5364 C   0  0  0  0  0  0  0  0  0  0  0  0
   19.6542  -14.0562  -18.5000 O   0  0  0  0  0  0  0  0  0  0  0  0
   20.1315  -13.1597  -16.4247 N   0  0  0  0  0  0  0  0  0  0  0  0
   18.9453  -12.2733  -16.4295 C   0  0  1  0  0  0  0  0  0  0  0  0
   18.7964  -11.7106  -15.0522 C   0  0  0  0  0  0  0  0  0  0  0  0
   17.6992  -10.7662  -14.8713 C   0  0  0  0  0  0  0  0  0  0  0  0
   16.3630  -11.0797  -15.1424 C   0  0  0  0  0  0  0  0  0  0  0  0
   15.5992  -10.0065  -14.8768 N   0  0  0  0  0  0  0  0  0  0  0  0
   16.4456   -9.0564  -14.4526 C   0  0  0  0  0  0  0  0  0  0  0  0
   17.6960   -9.5073  -14.4489 N   0  0  0  0  0  0  0  0  0  0  0  0
   19.2341  -11.1783  -17.3829 C   0  0  0  0  0  0  0  0  0  0  0  0
   18.4175  -10.8258  -18.2521 O   0  0  0  0  0  0  0  0  0  0  0  0
   20.4338  -10.5124  -17.3297 O   0  0  0  0  0  0  0  0  0  0  0  0
  2  3  1  0
  2  1  1  1
  4  3  1  0
  4  5  1  0
  5  6  1  0
  7  6  1  0
  8  2  1  0
  9  8  2  0
 11 10  1  1
 11 12  1  0
 13 11  1  0
 13 14  1  6
 14  8  1  0
 15 16  2  0
 15 13  1  0
 17 15  1  0
 18 17  1  0
 18 19  1  1
 20 24  1  0
 20 19  1  0
 21 20  2  0
 22 21  1  0
 22 23  1  0
 23 24  2  0
 25 18  1  0
 25 27  1  0
 26 25  2  0
M  END
$$$$
