KVH.pdb
     RDKit          3D

 27 27  0  0  1  0  0  0  0  0999 V2000
   22.5119  -17.1178  -20.2055 N   0  0  0  0  0  0  0  0  0  0  0  0
   22.0152  -16.0735  -19.2929 C   0  0  1  0  0  0  0  0  0  0  0  0
   21.8765  -14.8343  -20.1242 C   0  0  0  0  0  0  0  0  0  0  0  0
   23.1477  -14.2522  -20.6206 C   0  0  0  0  0  0  0  0  0  0  0  0
   24.4007  -14.8261  -20.0634 C   0  0  0  0  0  0  0  0  0  0  0  0
   25.6714  -14.2180  -20.5538 C   0  0  0  0  0  0  0  0  0  0  0  0
   25.5680  -12.8952  -21.0777 N   0  0  0  0  0  0  0  0  0  0  0  0
   20.7742  -16.4860  -18.6312 C   0  0  0  0  0  0  0  0  0  0  0  0
   20.1664  -15.6584  -17.9064 O   0  0  0  0  0  0  0  0  0  0  0  0
   16.9883  -19.6580  -18.0314 C   0  0  0  0  0  0  0  0  0  0  0  0
   18.1188  -19.0863  -18.8552 C   0  0  1  0  0  0  0  0  0  0  0  0
   17.5284  -18.3322  -20.0274 C   0  0  0  0  0  0  0  0  0  0  0  0
   19.0445  -18.2270  -18.0263 C   0  0  2  0  0  0  0  0  0  0  0  0
   20.1925  -17.7792  -18.7493 N   0  0  0  0  0  0  0  0  0  0  0  0
   19.4606  -19.0621  -16.8511 C   0  0  0  0  0  0  0  0  0  0  0  0
   20.1065  -20.1190  -17.0173 O   0  0  0  0  0  0  0  0  0  0  0  0
   19.1174  -18.6479  -15.5356 N   0  0  0  0  0  0  0  0  0  0  0  0
   19.5291  -19.4263  -14.3450 C   0  0  1  0  0  0  0  0  0  0  0  0
   19.9496  -18.4520  -13.2915 C   0  0  0  0  0  0  0  0  0  0  0  0
   20.2456  -19.0255  -11.9832 C   0  0  0  0  0  0  0  0  0  0  0  0
   20.2271  -20.4003  -11.7249 C   0  0  0  0  0  0  0  0  0  0  0  0
   20.5410  -20.6074  -10.4348 N   0  0  0  0  0  0  0  0  0  0  0  0
   20.7474  -19.3892   -9.9128 C   0  0  0  0  0  0  0  0  0  0  0  0
   20.5719  -18.4467  -10.8335 N   0  0  0  0  0  0  0  0  0  0  0  0
   18.3331  -20.1674  -13.8846 C   0  0  0  0  0  0  0  0  0  0  0  0
   17.1967  -19.6626  -13.8982 O   0  0  0  0  0  0  0  0  0  0  0  0
   18.4519  -21.4550  -13.4226 O   0  0  0  0  0  0  0  0  0  0  0  0
  2  3  1  0
  2  1  1  6
  4  3  1  0
  4  5  1  0
  5  6  1  0
  7  6  1  0
  8  2  1  0
  9  8  2  0
 11 10  1  1
 11 12  1  0
 13 11  1  0
 13 14  1  6
 14  8  1  0
 15 16  2  0
 15 13  1  0
 17 15  1  0
 18 17  1  0
 18 19  1  1
 20 24  1  0
 20 19  1  0
 21 20  2  0
 22 21  1  0
 22 23  1  0
 23 24  2  0
 25 18  1  0
 25 27  1  0
 26 25  2  0
M  END
$$$$
