KVH.pdb
     RDKit          3D

 27 27  0  0  1  0  0  0  0  0999 V2000
   15.8686  -13.7462  -17.1542 N   0  0  0  0  0  0  0  0  0  0  0  0
   16.7509  -12.9132  -16.3187 C   0  0  1  0  0  0  0  0  0  0  0  0
   18.1498  -13.2468  -16.7401 C   0  0  0  0  0  0  0  0  0  0  0  0
   18.5971  -14.6280  -16.4344 C   0  0  0  0  0  0  0  0  0  0  0  0
   20.0041  -14.9601  -16.7810 C   0  0  0  0  0  0  0  0  0  0  0  0
   20.4807  -16.3073  -16.3534 C   0  0  0  0  0  0  0  0  0  0  0  0
   20.5624  -16.5219  -14.9455 N   0  0  0  0  0  0  0  0  0  0  0  0
   16.4179  -11.4911  -16.4400 C   0  0  0  0  0  0  0  0  0  0  0  0
   16.3098  -10.9866  -17.5861 O   0  0  0  0  0  0  0  0  0  0  0  0
   14.3237   -7.3967  -14.7398 C   0  0  0  0  0  0  0  0  0  0  0  0
   14.5375   -8.8896  -14.8325 C   0  0  1  0  0  0  0  0  0  0  0  0
   13.3825   -9.4959  -15.6005 C   0  0  0  0  0  0  0  0  0  0  0  0
   15.8764   -9.2327  -15.4423 C   0  0  2  0  0  0  0  0  0  0  0  0
   16.2031  -10.6195  -15.3360 N   0  0  0  0  0  0  0  0  0  0  0  0
   16.8966   -8.3995  -14.7235 C   0  0  0  0  0  0  0  0  0  0  0  0
   17.2632   -8.6986  -13.5668 O   0  0  0  0  0  0  0  0  0  0  0  0
   17.4520   -7.2584  -15.3635 N   0  0  0  0  0  0  0  0  0  0  0  0
   18.4272   -6.3813  -14.6761 C   0  0  1  0  0  0  0  0  0  0  0  0
   19.6270   -6.2598  -15.5603 C   0  0  0  0  0  0  0  0  0  0  0  0
   20.6512   -5.3237  -15.1095 C   0  0  0  0  0  0  0  0  0  0  0  0
   21.2705   -5.4066  -13.8578 C   0  0  0  0  0  0  0  0  0  0  0  0
   22.1619   -4.4076  -13.7437 N   0  0  0  0  0  0  0  0  0  0  0  0
   22.0921   -3.7271  -14.8975 C   0  0  0  0  0  0  0  0  0  0  0  0
   21.1932   -4.2715  -15.7114 N   0  0  0  0  0  0  0  0  0  0  0  0
   17.7826   -5.0565  -14.5318 C   0  0  0  0  0  0  0  0  0  0  0  0
   16.8879   -4.6690  -15.3037 O   0  0  0  0  0  0  0  0  0  0  0  0
   18.1643   -4.2070  -13.5228 O   0  0  0  0  0  0  0  0  0  0  0  0
  2  3  1  0
  2  1  1  6
  4  3  1  0
  4  5  1  0
  5  6  1  0
  7  6  1  0
  8  2  1  0
  9  8  2  0
 11 10  1  6
 11 12  1  0
 13 11  1  0
 13 14  1  1
 14  8  1  0
 15 16  2  0
 15 13  1  0
 17 15  1  0
 18 17  1  0
 18 19  1  6
 20 24  1  0
 20 19  1  0
 21 20  2  0
 22 21  1  0
 22 23  1  0
 23 24  2  0
 25 18  1  0
 25 27  1  0
 26 25  2  0
M  END
$$$$
