KVH.pdb
     RDKit          3D

 27 27  0  0  1  0  0  0  0  0999 V2000
   27.8547  -21.8251  -17.5016 N   0  0  0  0  0  0  0  0  0  0  0  0
   26.4810  -22.3567  -17.4751 C   0  0  1  0  0  0  0  0  0  0  0  0
   26.5682  -23.6846  -16.7862 C   0  0  0  0  0  0  0  0  0  0  0  0
   27.4134  -24.7004  -17.4610 C   0  0  0  0  0  0  0  0  0  0  0  0
   27.4726  -26.0418  -16.8231 C   0  0  0  0  0  0  0  0  0  0  0  0
   28.3384  -27.0492  -17.5017 C   0  0  0  0  0  0  0  0  0  0  0  0
   28.1026  -27.2358  -18.8962 N   0  0  0  0  0  0  0  0  0  0  0  0
   25.5549  -21.4169  -16.8370 C   0  0  0  0  0  0  0  0  0  0  0  0
   26.0209  -20.4875  -16.1308 O   0  0  0  0  0  0  0  0  0  0  0  0
   21.2727  -19.0093  -17.0316 C   0  0  0  0  0  0  0  0  0  0  0  0
   22.3078  -19.9657  -17.5769 C   0  0  1  0  0  0  0  0  0  0  0  0
   23.0530  -19.2801  -18.7021 C   0  0  0  0  0  0  0  0  0  0  0  0
   23.2357  -20.4711  -16.4971 C   0  0  2  0  0  0  0  0  0  0  0  0
   24.1384  -21.4777  -16.9583 N   0  0  0  0  0  0  0  0  0  0  0  0
   22.3610  -21.0147  -15.4057 C   0  0  0  0  0  0  0  0  0  0  0  0
   21.6266  -22.0047  -15.6113 O   0  0  0  0  0  0  0  0  0  0  0  0
   22.3670  -20.3982  -14.1250 N   0  0  0  0  0  0  0  0  0  0  0  0
   21.5266  -20.9051  -13.0162 C   0  0  1  0  0  0  0  0  0  0  0  0
   22.0982  -20.3782  -11.7388 C   0  0  0  0  0  0  0  0  0  0  0  0
   23.4004  -20.9164  -11.3606 C   0  0  0  0  0  0  0  0  0  0  0  0
   23.8393  -22.1937  -11.7253 C   0  0  0  0  0  0  0  0  0  0  0  0
   25.0717  -22.3916  -11.2275 N   0  0  0  0  0  0  0  0  0  0  0  0
   25.3827  -21.2631  -10.5726 C   0  0  0  0  0  0  0  0  0  0  0  0
   24.3886  -20.3842  -10.6510 N   0  0  0  0  0  0  0  0  0  0  0  0
   20.1703  -20.3473  -13.2186 C   0  0  0  0  0  0  0  0  0  0  0  0
   19.9867  -19.1975  -13.6553 O   0  0  0  0  0  0  0  0  0  0  0  0
   19.0608  -21.1005  -12.9234 O   0  0  0  0  0  0  0  0  0  0  0  0
  2  3  1  0
  2  1  1  1
  4  3  1  0
  4  5  1  0
  5  6  1  0
  7  6  1  0
  8  2  1  0
  9  8  2  0
 11 10  1  1
 11 12  1  0
 13 11  1  0
 13 14  1  6
 14  8  1  0
 15 16  2  0
 15 13  1  0
 17 15  1  0
 18 17  1  0
 18 19  1  1
 20 24  1  0
 20 19  1  0
 21 20  2  0
 22 21  1  0
 22 23  1  0
 23 24  2  0
 25 18  1  0
 25 27  1  0
 26 25  2  0
M  END
$$$$
