KVH.pdb
     RDKit          3D

 27 27  0  0  1  0  0  0  0  0999 V2000
   28.5664  -21.7124  -15.7085 N   0  0  0  0  0  0  0  0  0  0  0  0
   27.8112  -20.5323  -15.2533 C   0  0  1  0  0  0  0  0  0  0  0  0
   27.4057  -19.8001  -16.4963 C   0  0  0  0  0  0  0  0  0  0  0  0
   28.1685  -20.1479  -17.7205 C   0  0  0  0  0  0  0  0  0  0  0  0
   27.3673  -20.5151  -18.9176 C   0  0  0  0  0  0  0  0  0  0  0  0
   27.3183  -19.4974  -20.0070 C   0  0  0  0  0  0  0  0  0  0  0  0
   27.9939  -19.8438  -21.2147 N   0  0  0  0  0  0  0  0  0  0  0  0
   26.6855  -20.9144  -14.3959 C   0  0  0  0  0  0  0  0  0  0  0  0
   25.7946  -21.6692  -14.8610 O   0  0  0  0  0  0  0  0  0  0  0  0
   24.5260  -20.9617   -9.8666 C   0  0  0  0  0  0  0  0  0  0  0  0
   25.6859  -20.5481  -10.7423 C   0  0  1  0  0  0  0  0  0  0  0  0
   26.9457  -21.2008  -10.2147 C   0  0  0  0  0  0  0  0  0  0  0  0
   25.4386  -20.8689  -12.1978 C   0  0  2  0  0  0  0  0  0  0  0  0
   26.5207  -20.4869  -13.0487 N   0  0  0  0  0  0  0  0  0  0  0  0
   24.1861  -20.1396  -12.5865 C   0  0  0  0  0  0  0  0  0  0  0  0
   24.1293  -18.8927  -12.5238 O   0  0  0  0  0  0  0  0  0  0  0  0
   23.0527  -20.8731  -13.0307 N   0  0  0  0  0  0  0  0  0  0  0  0
   21.7752  -20.2014  -13.3621 C   0  0  1  0  0  0  0  0  0  0  0  0
   21.4481  -20.5292  -14.7839 C   0  0  0  0  0  0  0  0  0  0  0  0
   20.1787  -20.0055  -15.2765 C   0  0  0  0  0  0  0  0  0  0  0  0
   19.8443  -18.6474  -15.2464 C   0  0  0  0  0  0  0  0  0  0  0  0
   18.6165  -18.4874  -15.7684 N   0  0  0  0  0  0  0  0  0  0  0  0
   18.2061  -19.7176  -16.1111 C   0  0  0  0  0  0  0  0  0  0  0  0
   19.1352  -20.6222  -15.8188 N   0  0  0  0  0  0  0  0  0  0  0  0
   20.7445  -20.7804  -12.4710 C   0  0  0  0  0  0  0  0  0  0  0  0
   20.8290  -21.9392  -12.0277 O   0  0  0  0  0  0  0  0  0  0  0  0
   19.6490  -20.0376  -12.1053 O   0  0  0  0  0  0  0  0  0  0  0  0
  2  3  1  0
  2  1  1  6
  4  3  1  0
  4  5  1  0
  5  6  1  0
  7  6  1  0
  8  2  1  0
  9  8  2  0
 11 10  1  1
 11 12  1  0
 13 11  1  0
 13 14  1  6
 14  8  1  0
 15 16  2  0
 15 13  1  0
 17 15  1  0
 18 17  1  0
 18 19  1  6
 20 24  1  0
 20 19  1  0
 21 20  2  0
 22 21  1  0
 22 23  1  0
 23 24  2  0
 25 18  1  0
 25 27  1  0
 26 25  2  0
M  END
$$$$
