KVH.pdb
     RDKit          3D

 27 27  0  0  1  0  0  0  0  0999 V2000
   28.4983  -21.0139  -15.8994 N   0  0  0  0  0  0  0  0  0  0  0  0
   27.7735  -20.1052  -14.9944 C   0  0  1  0  0  0  0  0  0  0  0  0
   27.3555  -18.9368  -15.8346 C   0  0  0  0  0  0  0  0  0  0  0  0
   28.4541  -18.0454  -16.2815 C   0  0  0  0  0  0  0  0  0  0  0  0
   29.2407  -18.5026  -17.4572 C   0  0  0  0  0  0  0  0  0  0  0  0
   28.9260  -17.8337  -18.7527 C   0  0  0  0  0  0  0  0  0  0  0  0
   29.5347  -16.5605  -18.9612 N   0  0  0  0  0  0  0  0  0  0  0  0
   26.6592  -20.7869  -14.3299 C   0  0  0  0  0  0  0  0  0  0  0  0
   26.1071  -21.7570  -14.9078 O   0  0  0  0  0  0  0  0  0  0  0  0
   26.5671  -21.8302  -10.5031 C   0  0  0  0  0  0  0  0  0  0  0  0
   25.2651  -21.1650  -10.8847 C   0  0  1  0  0  0  0  0  0  0  0  0
   25.2160  -19.7957  -10.2413 C   0  0  0  0  0  0  0  0  0  0  0  0
   25.0789  -21.1032  -12.3827 C   0  0  2  0  0  0  0  0  0  0  0  0
   26.1436  -20.4268  -13.0534 N   0  0  0  0  0  0  0  0  0  0  0  0
   23.7781  -20.3938  -12.6201 C   0  0  0  0  0  0  0  0  0  0  0  0
   23.5557  -19.2796  -12.0997 O   0  0  0  0  0  0  0  0  0  0  0  0
   22.7884  -20.9942  -13.4448 N   0  0  0  0  0  0  0  0  0  0  0  0
   21.4908  -20.3308  -13.7074 C   0  0  1  0  0  0  0  0  0  0  0  0
   21.1419  -20.5725  -15.1413 C   0  0  0  0  0  0  0  0  0  0  0  0
   19.8797  -19.9947  -15.5899 C   0  0  0  0  0  0  0  0  0  0  0  0
   19.7116  -18.6326  -15.8613 C   0  0  0  0  0  0  0  0  0  0  0  0
   18.4439  -18.4175  -16.2518 N   0  0  0  0  0  0  0  0  0  0  0  0
   17.8473  -19.6184  -16.2211 C   0  0  0  0  0  0  0  0  0  0  0  0
   18.7010  -20.5582  -15.8272 N   0  0  0  0  0  0  0  0  0  0  0  0
   20.4906  -20.9892  -12.8370 C   0  0  0  0  0  0  0  0  0  0  0  0
   20.6129  -22.1694  -12.4647 O   0  0  0  0  0  0  0  0  0  0  0  0
   19.3822  -20.2994  -12.4115 O   0  0  0  0  0  0  0  0  0  0  0  0
  2  3  1  0
  2  1  1  6
  4  3  1  0
  4  5  1  0
  5  6  1  0
  7  6  1  0
  8  2  1  0
  9  8  2  0
 11 10  1  6
 11 12  1  0
 13 11  1  0
 13 14  1  6
 14  8  1  0
 15 16  2  0
 15 13  1  0
 17 15  1  0
 18 17  1  0
 18 19  1  6
 20 24  1  0
 20 19  1  0
 21 20  2  0
 22 21  1  0
 22 23  1  0
 23 24  2  0
 25 18  1  0
 25 27  1  0
 26 25  2  0
M  END
$$$$
