KVH.pdb
     RDKit          3D

 27 27  0  0  1  0  0  0  0  0999 V2000
   14.3025  -23.3102   -9.9209 N   0  0  0  0  0  0  0  0  0  0  0  0
   14.4478  -23.3033   -8.4550 C   0  0  1  0  0  0  0  0  0  0  0  0
   13.0580  -23.1923   -7.9055 C   0  0  0  0  0  0  0  0  0  0  0  0
   12.7113  -21.8809   -7.3044 C   0  0  0  0  0  0  0  0  0  0  0  0
   11.5259  -21.1856   -7.8712 C   0  0  0  0  0  0  0  0  0  0  0  0
   11.1283  -19.9172   -7.1944 C   0  0  0  0  0  0  0  0  0  0  0  0
   10.0451  -19.2055   -7.7903 N   0  0  0  0  0  0  0  0  0  0  0  0
   15.1798  -24.4822   -7.9834 C   0  0  0  0  0  0  0  0  0  0  0  0
   14.8423  -25.6173   -8.4045 O   0  0  0  0  0  0  0  0  0  0  0  0
   18.6933  -25.5513   -8.4409 C   0  0  0  0  0  0  0  0  0  0  0  0
   18.4607  -25.5305   -6.9480 C   0  0  1  0  0  0  0  0  0  0  0  0
   19.1465  -24.3112   -6.3697 C   0  0  0  0  0  0  0  0  0  0  0  0
   16.9906  -25.5805   -6.6037 C   0  0  2  0  0  0  0  0  0  0  0  0
   16.2664  -24.4390   -7.0657 N   0  0  0  0  0  0  0  0  0  0  0  0
   16.9077  -25.6815   -5.1088 C   0  0  0  0  0  0  0  0  0  0  0  0
   16.8659  -24.6517   -4.4020 O   0  0  0  0  0  0  0  0  0  0  0  0
   16.8765  -26.9604   -4.4896 N   0  0  0  0  0  0  0  0  0  0  0  0
   16.7484  -27.1087   -3.0218 C   0  0  1  0  0  0  0  0  0  0  0  0
   16.3920  -28.5335   -2.7411 C   0  0  0  0  0  0  0  0  0  0  0  0
   16.2314  -28.8784   -1.3326 C   0  0  0  0  0  0  0  0  0  0  0  0
   16.1164  -27.9241   -0.3162 C   0  0  0  0  0  0  0  0  0  0  0  0
   15.9817  -28.5547    0.8628 N   0  0  0  0  0  0  0  0  0  0  0  0
   16.0131  -29.8650    0.5777 C   0  0  0  0  0  0  0  0  0  0  0  0
   16.1617  -30.0590   -0.7289 N   0  0  0  0  0  0  0  0  0  0  0  0
   18.0780  -26.8082   -2.4444 C   0  0  0  0  0  0  0  0  0  0  0  0
   19.1232  -26.8904   -3.1133 O   0  0  0  0  0  0  0  0  0  0  0  0
   18.1918  -26.4239   -1.1311 O   0  0  0  0  0  0  0  0  0  0  0  0
  2  3  1  0
  2  1  1  6
  4  3  1  0
  4  5  1  0
  5  6  1  0
  7  6  1  0
  8  2  1  0
  9  8  2  0
 11 10  1  6
 11 12  1  0
 13 11  1  0
 13 14  1  1
 14  8  1  0
 15 16  2  0
 15 13  1  0
 17 15  1  0
 18 17  1  0
 18 19  1  6
 20 24  1  0
 20 19  1  0
 21 20  2  0
 22 21  1  0
 22 23  1  0
 23 24  2  0
 25 18  1  0
 25 27  1  0
 26 25  2  0
M  END
$$$$
