KVH.pdb
     RDKit          3D

 27 27  0  0  1  0  0  0  0  0999 V2000
   20.2957  -23.7284   -8.0089 N   0  0  0  0  0  0  0  0  0  0  0  0
   19.4718  -23.2507   -9.1328 C   0  0  1  0  0  0  0  0  0  0  0  0
   18.0802  -23.1162   -8.5934 C   0  0  0  0  0  0  0  0  0  0  0  0
   17.6012  -24.2538   -7.7701 C   0  0  0  0  0  0  0  0  0  0  0  0
   17.6631  -25.5989   -8.3999 C   0  0  0  0  0  0  0  0  0  0  0  0
   17.1208  -26.7256   -7.5866 C   0  0  0  0  0  0  0  0  0  0  0  0
   17.1853  -28.0171   -8.1890 N   0  0  0  0  0  0  0  0  0  0  0  0
   20.0094  -22.0121   -9.7030 C   0  0  0  0  0  0  0  0  0  0  0  0
   19.2724  -20.9953   -9.7543 O   0  0  0  0  0  0  0  0  0  0  0  0
   22.5818  -19.7444   -8.4627 C   0  0  0  0  0  0  0  0  0  0  0  0
   23.0364  -20.1455   -9.8468 C   0  0  1  0  0  0  0  0  0  0  0  0
   24.1457  -21.1669   -9.7133 C   0  0  0  0  0  0  0  0  0  0  0  0
   21.8916  -20.6477  -10.6951 C   0  0  2  0  0  0  0  0  0  0  0  0
   21.3299  -21.8699  -10.2136 N   0  0  0  0  0  0  0  0  0  0  0  0
   22.4390  -20.8345  -12.0797 C   0  0  0  0  0  0  0  0  0  0  0  0
   23.5521  -21.3742  -12.2574 O   0  0  0  0  0  0  0  0  0  0  0  0
   21.6850  -20.3936  -13.2009 N   0  0  0  0  0  0  0  0  0  0  0  0
   21.7756  -21.0744  -14.5129 C   0  0  1  0  0  0  0  0  0  0  0  0
   21.4602  -22.5197  -14.2945 C   0  0  0  0  0  0  0  0  0  0  0  0
   22.5958  -23.4323  -14.3715 C   0  0  0  0  0  0  0  0  0  0  0  0
   23.8478  -23.1497  -13.8149 C   0  0  0  0  0  0  0  0  0  0  0  0
   24.6755  -24.1811  -14.0532 N   0  0  0  0  0  0  0  0  0  0  0  0
   23.9496  -25.0760  -14.7398 C   0  0  0  0  0  0  0  0  0  0  0  0
   22.7115  -24.6315  -14.9299 N   0  0  0  0  0  0  0  0  0  0  0  0
   20.7414  -20.4679  -15.3812 C   0  0  0  0  0  0  0  0  0  0  0  0
   19.6356  -20.1083  -14.9402 O   0  0  0  0  0  0  0  0  0  0  0  0
   20.9825  -20.2842  -16.7204 O   0  0  0  0  0  0  0  0  0  0  0  0
  2  3  1  0
  2  1  1  1
  4  3  1  0
  4  5  1  0
  5  6  1  0
  7  6  1  0
  8  2  1  0
  9  8  2  0
 11 10  1  1
 11 12  1  0
 13 11  1  0
 13 14  1  1
 14  8  1  0
 15 16  2  0
 15 13  1  0
 17 15  1  0
 18 17  1  0
 18 19  1  1
 20 24  1  0
 20 19  1  0
 21 20  2  0
 22 21  1  0
 22 23  1  0
 23 24  2  0
 25 18  1  0
 25 27  1  0
 26 25  2  0
M  END
$$$$
