HTI.pdb
     RDKit          3D

 26 26  0  0  1  0  0  0  0  0999 V2000
    7.5714  -17.1655   19.7958 N   0  0  0  0  0  0  0  0  0  0  0  0
    7.9925  -16.2489   20.8117 C   0  0  1  0  0  0  0  0  0  0  0  0
    7.1246  -14.9905   20.8117 C   0  0  0  0  0  0  0  0  0  0  0  0
    7.7403  -14.0622   19.8257 C   0  0  0  0  0  0  0  0  0  0  0  0
    8.8926  -14.2326   19.0766 C   0  0  0  0  0  0  0  0  0  0  0  0
    9.1036  -13.1578   18.3039 N   0  0  0  0  0  0  0  0  0  0  0  0
    8.0971  -12.3126   18.5582 C   0  0  0  0  0  0  0  0  0  0  0  0
    7.2637  -12.8480   19.4784 N   0  0  0  0  0  0  0  0  0  0  0  0
    8.0173  -16.8945   22.1384 C   0  0  0  0  0  0  0  0  0  0  0  0
    7.2707  -17.9087   22.3328 O   0  0  0  0  0  0  0  0  0  0  0  0
    8.5433  -19.2121   23.1390 C   0  0  0  0  0  0  0  0  0  0  0  0
    9.4841  -18.4821   24.0612 C   0  0  1  0  0  0  0  0  0  0  0  0
   10.7444  -18.5088   23.5230 O   0  0  0  0  0  0  0  0  0  0  0  0
    8.9961  -17.0885   24.3809 C   0  0  2  0  0  0  0  0  0  0  0  0
    8.8645  -16.3651   23.1372 N   0  0  0  0  0  0  0  0  0  0  0  0
    9.8787  -16.3628   25.3192 C   0  0  0  0  0  0  0  0  0  0  0  0
   10.9017  -15.7954   24.8590 O   0  0  0  0  0  0  0  0  0  0  0  0
    7.6855  -12.8013   27.8119 C   0  0  0  0  0  0  0  0  0  0  0  0
    8.8500  -13.5651   27.3070 C   0  0  0  0  0  0  0  0  0  0  0  0
    9.5321  -14.5166   28.1939 C   0  0  2  0  0  0  0  0  0  0  0  0
   10.3148  -13.7435   29.2910 C   0  0  0  0  0  0  0  0  0  0  0  0
   10.4117  -15.5655   27.6295 C   0  0  2  0  0  0  0  0  0  0  0  0
    9.5397  -16.3355   26.6880 N   0  0  0  0  0  0  0  0  0  0  0  0
   11.0167  -16.5352   28.5528 C   0  0  0  0  0  0  0  0  0  0  0  0
   10.5213  -17.7832   28.8686 O   0  0  0  0  0  0  0  0  0  0  0  0
   12.1185  -16.2511   29.1677 O   0  0  0  0  0  0  0  0  0  0  0  0
  2  9  1  0
  2  1  1  6
  3  2  1  0
  4  8  1  0
  4  3  1  0
  5  4  2  0
  6  5  1  0
  6  7  1  0
  7  8  2  0
  9 10  2  0
 12 11  1  6
 12 14  1  0
 13 12  1  0
 14 15  1  6
 15  9  1  0
 16 17  2  0
 16 14  1  0
 18 19  1  0
 19 20  1  0
 20 22  1  0
 20 21  1  1
 22 23  1  6
 22 24  1  0
 23 16  1  0
 24 26  2  0
 24 25  1  0
M  END
$$$$
