HTI.pdb
     RDKit          3D

 26 26  0  0  1  0  0  0  0  0999 V2000
    7.2926  -17.1004   18.9875 N   0  0  0  0  0  0  0  0  0  0  0  0
    7.4969  -15.9510   19.8160 C   0  0  1  0  0  0  0  0  0  0  0  0
    6.7417  -14.7386   19.2714 C   0  0  0  0  0  0  0  0  0  0  0  0
    7.4791  -14.3029   18.0550 C   0  0  0  0  0  0  0  0  0  0  0  0
    8.4553  -13.3277   17.9356 C   0  0  0  0  0  0  0  0  0  0  0  0
    8.8681  -13.2418   16.6632 N   0  0  0  0  0  0  0  0  0  0  0  0
    8.1629  -14.1519   15.9803 C   0  0  0  0  0  0  0  0  0  0  0  0
    7.3175  -14.8020   16.8113 N   0  0  0  0  0  0  0  0  0  0  0  0
    7.1380  -16.2319   21.2195 C   0  0  0  0  0  0  0  0  0  0  0  0
    6.0716  -16.8895   21.4522 O   0  0  0  0  0  0  0  0  0  0  0  0
    7.0383  -18.4409   22.6781 C   0  0  0  0  0  0  0  0  0  0  0  0
    7.9711  -17.7222   23.6172 C   0  0  1  0  0  0  0  0  0  0  0  0
    9.2600  -18.0926   23.3337 O   0  0  0  0  0  0  0  0  0  0  0  0
    7.7563  -16.2270   23.5948 C   0  0  2  0  0  0  0  0  0  0  0  0
    7.9872  -15.7628   22.2463 N   0  0  0  0  0  0  0  0  0  0  0  0
    8.6151  -15.5003   24.5543 C   0  0  0  0  0  0  0  0  0  0  0  0
    9.7718  -15.1706   24.1892 O   0  0  0  0  0  0  0  0  0  0  0  0
    6.0630  -12.5735   28.6871 C   0  0  0  0  0  0  0  0  0  0  0  0
    6.6076  -13.4860   27.6551 C   0  0  0  0  0  0  0  0  0  0  0  0
    7.8914  -13.1717   27.0146 C   0  0  2  0  0  0  0  0  0  0  0  0
    7.6455  -12.3383   25.7266 C   0  0  0  0  0  0  0  0  0  0  0  0
    8.8574  -14.2510   26.7077 C   0  0  2  0  0  0  0  0  0  0  0  0
    8.1049  -15.2066   25.8359 N   0  0  0  0  0  0  0  0  0  0  0  0
    9.4105  -15.0266   27.8264 C   0  0  0  0  0  0  0  0  0  0  0  0
   10.3204  -14.5790   28.7614 O   0  0  0  0  0  0  0  0  0  0  0  0
    9.0562  -16.2576   28.0051 O   0  0  0  0  0  0  0  0  0  0  0  0
  2  9  1  0
  2  1  1  6
  3  2  1  0
  4  8  1  0
  4  3  1  0
  5  4  2  0
  6  5  1  0
  6  7  1  0
  7  8  2  0
  9 10  2  0
 12 11  1  6
 12 14  1  0
 13 12  1  0
 14 15  1  6
 15  9  1  0
 16 17  2  0
 16 14  1  0
 18 19  1  0
 19 20  1  0
 20 22  1  0
 20 21  1  6
 22 23  1  6
 22 24  1  0
 23 16  1  0
 24 26  2  0
 24 25  1  0
M  END
$$$$
