HTI.pdb
     RDKit          3D

 26 26  0  0  1  0  0  0  0  0999 V2000
    9.8931  -15.2807   19.8245 N   0  0  0  0  0  0  0  0  0  0  0  0
    8.4950  -15.0762   20.0546 C   0  0  1  0  0  0  0  0  0  0  0  0
    7.6569  -15.6921   18.9344 C   0  0  0  0  0  0  0  0  0  0  0  0
    7.9118  -14.8662   17.7236 C   0  0  0  0  0  0  0  0  0  0  0  0
    8.7445  -13.7685   17.5824 C   0  0  0  0  0  0  0  0  0  0  0  0
    8.6908  -13.3077   16.3248 N   0  0  0  0  0  0  0  0  0  0  0  0
    7.8338  -14.1029   15.6727 C   0  0  0  0  0  0  0  0  0  0  0  0
    7.3544  -15.0515   16.5083 N   0  0  0  0  0  0  0  0  0  0  0  0
    8.0908  -15.5830   21.3802 C   0  0  0  0  0  0  0  0  0  0  0  0
    6.8607  -15.5150   21.7056 O   0  0  0  0  0  0  0  0  0  0  0  0
    8.5256  -18.9344   22.7791 C   0  0  0  0  0  0  0  0  0  0  0  0
    9.1780  -17.9760   23.7405 C   0  0  1  0  0  0  0  0  0  0  0  0
   10.5392  -18.0977   23.6349 O   0  0  0  0  0  0  0  0  0  0  0  0
    8.6843  -16.5607   23.5519 C   0  0  2  0  0  0  0  0  0  0  0  0
    9.0795  -16.1218   22.2333 N   0  0  0  0  0  0  0  0  0  0  0  0
    9.1803  -15.6277   24.5861 C   0  0  0  0  0  0  0  0  0  0  0  0
   10.2091  -14.9503   24.3352 O   0  0  0  0  0  0  0  0  0  0  0  0
    6.1609  -12.0487   26.5446 C   0  0  0  0  0  0  0  0  0  0  0  0
    7.3606  -12.8544   26.2190 C   0  0  0  0  0  0  0  0  0  0  0  0
    7.9398  -13.7369   27.2402 C   0  0  2  0  0  0  0  0  0  0  0  0
    8.3647  -12.8995   28.4780 C   0  0  0  0  0  0  0  0  0  0  0  0
    9.0403  -14.6634   26.8899 C   0  0  2  0  0  0  0  0  0  0  0  0
    8.4827  -15.5343   25.8083 N   0  0  0  0  0  0  0  0  0  0  0  0
    9.5603  -15.5519   27.9383 C   0  0  0  0  0  0  0  0  0  0  0  0
   10.6085  -15.2823   28.7934 O   0  0  0  0  0  0  0  0  0  0  0  0
    9.0329  -16.7177   28.1264 O   0  0  0  0  0  0  0  0  0  0  0  0
  2  9  1  0
  2  1  1  6
  3  2  1  0
  4  8  1  0
  4  3  1  0
  5  4  2  0
  6  5  1  0
  6  7  1  0
  7  8  2  0
  9 10  2  0
 12 11  1  6
 12 14  1  0
 13 12  1  0
 14 15  1  6
 15  9  1  0
 16 17  2  0
 16 14  1  0
 18 19  1  0
 19 20  1  0
 20 22  1  0
 20 21  1  1
 22 23  1  6
 22 24  1  0
 23 16  1  0
 24 26  2  0
 24 25  1  0
M  END
$$$$
