HTI.pdb
     RDKit          3D

 26 26  0  0  1  0  0  0  0  0999 V2000
   10.0954  -17.6206   18.3507 N   0  0  0  0  0  0  0  0  0  0  0  0
   10.5823  -17.4632   19.6878 C   0  0  1  0  0  0  0  0  0  0  0  0
   11.9106  -16.7068   19.7043 C   0  0  0  0  0  0  0  0  0  0  0  0
   12.9777  -17.7432   19.7253 C   0  0  0  0  0  0  0  0  0  0  0  0
   13.0631  -18.9147   18.9916 C   0  0  0  0  0  0  0  0  0  0  0  0
   14.1869  -19.5745   19.3053 N   0  0  0  0  0  0  0  0  0  0  0  0
   14.8099  -18.8315   20.2283 C   0  0  0  0  0  0  0  0  0  0  0  0
   14.0883  -17.7191   20.4921 N   0  0  0  0  0  0  0  0  0  0  0  0
    9.5756  -16.8167   20.5515 C   0  0  0  0  0  0  0  0  0  0  0  0
    8.8733  -15.8729   20.0618 O   0  0  0  0  0  0  0  0  0  0  0  0
    6.7003  -18.3446   21.8435 C   0  0  0  0  0  0  0  0  0  0  0  0
    7.4136  -17.7993   23.0528 C   0  0  1  0  0  0  0  0  0  0  0  0
    8.0007  -18.8373   23.7285 O   0  0  0  0  0  0  0  0  0  0  0  0
    8.3787  -16.6948   22.6909 C   0  0  2  0  0  0  0  0  0  0  0  0
    9.4301  -17.2676   21.8823 N   0  0  0  0  0  0  0  0  0  0  0  0
    8.9415  -16.0029   23.8702 C   0  0  0  0  0  0  0  0  0  0  0  0
   10.1854  -16.0406   24.0473 O   0  0  0  0  0  0  0  0  0  0  0  0
    5.8833  -11.8978   25.8247 C   0  0  0  0  0  0  0  0  0  0  0  0
    7.0734  -12.6987   25.4549 C   0  0  0  0  0  0  0  0  0  0  0  0
    7.5893  -13.7050   26.3921 C   0  0  2  0  0  0  0  0  0  0  0  0
    8.0577  -13.0119   27.7014 C   0  0  0  0  0  0  0  0  0  0  0  0
    8.6318  -14.6635   25.9600 C   0  0  2  0  0  0  0  0  0  0  0  0
    8.0645  -15.3303   24.7463 N   0  0  0  0  0  0  0  0  0  0  0  0
    9.0284  -15.7260   26.8941 C   0  0  0  0  0  0  0  0  0  0  0  0
   10.1143  -15.7045   27.7443 O   0  0  0  0  0  0  0  0  0  0  0  0
    8.3388  -16.8174   26.9718 O   0  0  0  0  0  0  0  0  0  0  0  0
  2  9  1  0
  2  1  1  6
  3  2  1  0
  4  8  1  0
  4  3  1  0
  5  4  2  0
  6  5  1  0
  6  7  1  0
  7  8  2  0
  9 10  2  0
 12 11  1  6
 12 14  1  0
 13 12  1  0
 14 15  1  1
 15  9  1  0
 16 17  2  0
 16 14  1  0
 18 19  1  0
 19 20  1  0
 20 22  1  0
 20 21  1  1
 22 23  1  6
 22 24  1  0
 23 16  1  0
 24 26  2  0
 24 25  1  0
M  END
$$$$
