HTI.pdb
     RDKit          3D

 26 26  0  0  1  0  0  0  0  0999 V2000
    7.5586  -16.8851   19.2926 N   0  0  0  0  0  0  0  0  0  0  0  0
    7.6749  -15.8264   20.2492 C   0  0  1  0  0  0  0  0  0  0  0  0
    6.7678  -14.6516   19.8831 C   0  0  0  0  0  0  0  0  0  0  0  0
    7.4713  -13.9043   18.8063 C   0  0  0  0  0  0  0  0  0  0  0  0
    8.2614  -12.7716   18.9107 C   0  0  0  0  0  0  0  0  0  0  0  0
    8.7114  -12.4101   17.7010 N   0  0  0  0  0  0  0  0  0  0  0  0
    8.2135  -13.3024   16.8361 C   0  0  0  0  0  0  0  0  0  0  0  0
    7.4603  -14.2133   17.4924 N   0  0  0  0  0  0  0  0  0  0  0  0
    7.4142  -16.3109   21.6184 C   0  0  0  0  0  0  0  0  0  0  0  0
    6.4583  -17.1342   21.7981 O   0  0  0  0  0  0  0  0  0  0  0  0
    7.3842  -18.5727   22.8676 C   0  0  0  0  0  0  0  0  0  0  0  0
    8.3240  -17.9245   23.8500 C   0  0  1  0  0  0  0  0  0  0  0  0
    9.6134  -18.2314   23.5009 O   0  0  0  0  0  0  0  0  0  0  0  0
    8.0729  -16.4404   23.9793 C   0  0  2  0  0  0  0  0  0  0  0  0
    8.2312  -15.8451   22.6724 N   0  0  0  0  0  0  0  0  0  0  0  0
    8.9568  -15.7834   24.9658 C   0  0  0  0  0  0  0  0  0  0  0  0
   10.1123  -15.4479   24.6018 O   0  0  0  0  0  0  0  0  0  0  0  0
    6.7649  -11.8541   27.1003 C   0  0  0  0  0  0  0  0  0  0  0  0
    7.8642  -12.7570   26.6872 C   0  0  0  0  0  0  0  0  0  0  0  0
    8.4694  -13.6607   27.6744 C   0  0  2  0  0  0  0  0  0  0  0  0
    9.2455  -12.8340   28.7365 C   0  0  0  0  0  0  0  0  0  0  0  0
    9.3204  -14.7886   27.2319 C   0  0  2  0  0  0  0  0  0  0  0  0
    8.4711  -15.5596   26.2708 N   0  0  0  0  0  0  0  0  0  0  0  0
    9.7989  -15.7373   28.2467 C   0  0  0  0  0  0  0  0  0  0  0  0
   10.9967  -15.6719   28.9275 O   0  0  0  0  0  0  0  0  0  0  0  0
    9.0780  -16.7594   28.5759 O   0  0  0  0  0  0  0  0  0  0  0  0
  2  9  1  0
  2  1  1  6
  3  2  1  0
  4  8  1  0
  4  3  1  0
  5  4  2  0
  6  5  1  0
  6  7  1  0
  7  8  2  0
  9 10  2  0
 12 11  1  6
 12 14  1  0
 13 12  1  0
 14 15  1  6
 15  9  1  0
 16 17  2  0
 16 14  1  0
 18 19  1  0
 19 20  1  0
 20 22  1  0
 20 21  1  1
 22 23  1  6
 22 24  1  0
 23 16  1  0
 24 26  2  0
 24 25  1  0
M  END
$$$$
