HTI.pdb
     RDKit          3D

 26 26  0  0  1  0  0  0  0  0999 V2000
    7.1559  -20.6241   23.1283 N   0  0  0  0  0  0  0  0  0  0  0  0
    7.6139  -19.5985   24.0159 C   0  0  1  0  0  0  0  0  0  0  0  0
    8.5908  -20.1603   25.0488 C   0  0  0  0  0  0  0  0  0  0  0  0
    7.7582  -20.8103   26.0964 C   0  0  0  0  0  0  0  0  0  0  0  0
    6.5725  -20.3686   26.6595 C   0  0  0  0  0  0  0  0  0  0  0  0
    6.1395  -21.2491   27.5727 N   0  0  0  0  0  0  0  0  0  0  0  0
    7.0392  -22.2402   27.5908 C   0  0  0  0  0  0  0  0  0  0  0  0
    8.0253  -21.9872   26.7012 N   0  0  0  0  0  0  0  0  0  0  0  0
    8.1988  -18.4673   23.2705 C   0  0  0  0  0  0  0  0  0  0  0  0
    9.3360  -18.6286   22.7186 O   0  0  0  0  0  0  0  0  0  0  0  0
    6.6566  -16.2643   20.5107 C   0  0  0  0  0  0  0  0  0  0  0  0
    7.0527  -15.4358   21.7046 C   0  0  1  0  0  0  0  0  0  0  0  0
    5.9241  -15.0964   22.4045 O   0  0  0  0  0  0  0  0  0  0  0  0
    8.1000  -16.1234   22.5488 C   0  0  2  0  0  0  0  0  0  0  0  0
    7.4783  -17.2544   23.1982 N   0  0  0  0  0  0  0  0  0  0  0  0
    8.7277  -15.2271   23.5431 C   0  0  0  0  0  0  0  0  0  0  0  0
    9.4823  -14.3111   23.1289 O   0  0  0  0  0  0  0  0  0  0  0  0
    6.2081  -11.8926   25.5671 C   0  0  0  0  0  0  0  0  0  0  0  0
    7.3504  -12.7673   25.2145 C   0  0  0  0  0  0  0  0  0  0  0  0
    8.0151  -13.5497   26.2649 C   0  0  2  0  0  0  0  0  0  0  0  0
    8.5456  -12.5980   27.3724 C   0  0  0  0  0  0  0  0  0  0  0  0
    9.0809  -14.5163   25.9153 C   0  0  2  0  0  0  0  0  0  0  0  0
    8.4562  -15.4339   24.9116 N   0  0  0  0  0  0  0  0  0  0  0  0
    9.6352  -15.3561   26.9859 C   0  0  0  0  0  0  0  0  0  0  0  0
   10.7712  -15.0966   27.7240 O   0  0  0  0  0  0  0  0  0  0  0  0
    9.0534  -16.4637   27.3138 O   0  0  0  0  0  0  0  0  0  0  0  0
  2  9  1  0
  2  1  1  6
  3  2  1  0
  4  8  1  0
  4  3  1  0
  5  4  2  0
  6  5  1  0
  6  7  1  0
  7  8  2  0
  9 10  2  0
 12 11  1  6
 12 14  1  0
 13 12  1  0
 14 15  1  1
 15  9  1  0
 16 17  2  0
 16 14  1  0
 18 19  1  0
 19 20  1  0
 20 22  1  0
 20 21  1  1
 22 23  1  6
 22 24  1  0
 23 16  1  0
 24 26  2  0
 24 25  1  0
M  END
$$$$
