HTI.pdb
     RDKit          3D

 26 26  0  0  1  0  0  0  0  0999 V2000
   12.1386  -17.4190   19.1842 N   0  0  0  0  0  0  0  0  0  0  0  0
   12.2371  -17.3950   20.6122 C   0  0  1  0  0  0  0  0  0  0  0  0
   13.5730  -16.8032   21.0619 C   0  0  0  0  0  0  0  0  0  0  0  0
   14.5973  -17.8518   20.8086 C   0  0  0  0  0  0  0  0  0  0  0  0
   14.9479  -18.9313   21.6024 C   0  0  0  0  0  0  0  0  0  0  0  0
   15.9203  -19.6409   21.0126 N   0  0  0  0  0  0  0  0  0  0  0  0
   16.1858  -19.0203   19.8566 C   0  0  0  0  0  0  0  0  0  0  0  0
   15.3915  -17.9348   19.7202 N   0  0  0  0  0  0  0  0  0  0  0  0
   11.0943  -16.6831   21.2159 C   0  0  0  0  0  0  0  0  0  0  0  0
   10.7255  -15.5792   20.6971 O   0  0  0  0  0  0  0  0  0  0  0  0
    7.8229  -18.1456   21.5202 C   0  0  0  0  0  0  0  0  0  0  0  0
    8.1603  -17.6289   22.8942 C   0  0  1  0  0  0  0  0  0  0  0  0
    8.4255  -18.6928   23.7167 O   0  0  0  0  0  0  0  0  0  0  0  0
    9.2711  -16.6056   22.8574 C   0  0  2  0  0  0  0  0  0  0  0  0
   10.4561  -17.2509   22.3410 N   0  0  0  0  0  0  0  0  0  0  0  0
    9.5404  -15.9901   24.1745 C   0  0  0  0  0  0  0  0  0  0  0  0
   10.6925  -16.1066   24.6636 O   0  0  0  0  0  0  0  0  0  0  0  0
    6.1390  -11.8945   25.2835 C   0  0  0  0  0  0  0  0  0  0  0  0
    7.4055  -12.6617   25.2408 C   0  0  0  0  0  0  0  0  0  0  0  0
    7.6988  -13.6356   26.3004 C   0  0  2  0  0  0  0  0  0  0  0  0
    7.8982  -12.8965   27.6524 C   0  0  0  0  0  0  0  0  0  0  0  0
    8.7913  -14.6201   26.1288 C   0  0  2  0  0  0  0  0  0  0  0  0
    8.4987  -15.2991   24.8277 N   0  0  0  0  0  0  0  0  0  0  0  0
    8.9438  -15.6720   27.1432 C   0  0  0  0  0  0  0  0  0  0  0  0
    9.8831  -15.7050   28.1527 O   0  0  0  0  0  0  0  0  0  0  0  0
    8.1569  -16.6985   27.1422 O   0  0  0  0  0  0  0  0  0  0  0  0
  2  9  1  0
  2  1  1  6
  3  2  1  0
  4  8  1  0
  4  3  1  0
  5  4  2  0
  6  5  1  0
  6  7  1  0
  7  8  2  0
  9 10  2  0
 12 11  1  6
 12 14  1  0
 13 12  1  0
 14 15  1  1
 15  9  1  0
 16 17  2  0
 16 14  1  0
 18 19  1  0
 19 20  1  0
 20 22  1  0
 20 21  1  1
 22 23  1  6
 22 24  1  0
 23 16  1  0
 24 26  2  0
 24 25  1  0
M  END
$$$$
