HTI.pdb
     RDKit          3D

 26 26  0  0  1  0  0  0  0  0999 V2000
    8.0491  -17.4861   19.2385 N   0  0  0  0  0  0  0  0  0  0  0  0
    8.1285  -16.3418   20.0951 C   0  0  1  0  0  0  0  0  0  0  0  0
    7.1681  -15.2440   19.6376 C   0  0  0  0  0  0  0  0  0  0  0  0
    8.0176  -14.0904   19.2371 C   0  0  0  0  0  0  0  0  0  0  0  0
    9.3993  -13.9994   19.2091 C   0  0  0  0  0  0  0  0  0  0  0  0
    9.7730  -12.7837   18.7856 N   0  0  0  0  0  0  0  0  0  0  0  0
    8.6421  -12.1084   18.5466 C   0  0  0  0  0  0  0  0  0  0  0  0
    7.5710  -12.8882   18.8159 N   0  0  0  0  0  0  0  0  0  0  0  0
    7.9019  -16.7120   21.5054 C   0  0  0  0  0  0  0  0  0  0  0  0
    6.7795  -17.2239   21.8247 O   0  0  0  0  0  0  0  0  0  0  0  0
    8.6892  -19.2889   23.2245 C   0  0  0  0  0  0  0  0  0  0  0  0
    9.3425  -18.2104   24.0483 C   0  0  1  0  0  0  0  0  0  0  0  0
   10.6922  -18.2250   23.8101 O   0  0  0  0  0  0  0  0  0  0  0  0
    8.7061  -16.8594   23.8197 C   0  0  2  0  0  0  0  0  0  0  0  0
    8.9340  -16.4854   22.4430 N   0  0  0  0  0  0  0  0  0  0  0  0
    9.2096  -15.8152   24.7374 C   0  0  0  0  0  0  0  0  0  0  0  0
   10.0893  -15.0228   24.3151 O   0  0  0  0  0  0  0  0  0  0  0  0
    6.1863  -12.3347   26.6913 C   0  0  0  0  0  0  0  0  0  0  0  0
    7.4094  -13.0898   26.3330 C   0  0  0  0  0  0  0  0  0  0  0  0
    8.1020  -13.8773   27.3612 C   0  0  2  0  0  0  0  0  0  0  0  0
    8.5256  -12.9516   28.5349 C   0  0  0  0  0  0  0  0  0  0  0  0
    9.2487  -14.7397   26.9955 C   0  0  2  0  0  0  0  0  0  0  0  0
    8.6854  -15.7491   26.0451 N   0  0  0  0  0  0  0  0  0  0  0  0
    9.9280  -15.4825   28.0659 C   0  0  0  0  0  0  0  0  0  0  0  0
   10.9842  -15.0328   28.8306 O   0  0  0  0  0  0  0  0  0  0  0  0
    9.5527  -16.6831   28.3667 O   0  0  0  0  0  0  0  0  0  0  0  0
  2  9  1  0
  2  1  1  6
  3  2  1  0
  4  8  1  0
  4  3  1  0
  5  4  2  0
  6  5  1  0
  6  7  1  0
  7  8  2  0
  9 10  2  0
 12 11  1  6
 12 14  1  0
 13 12  1  0
 14 15  1  6
 15  9  1  0
 16 17  2  0
 16 14  1  0
 18 19  1  0
 19 20  1  0
 20 22  1  0
 20 21  1  1
 22 23  1  6
 22 24  1  0
 23 16  1  0
 24 26  2  0
 24 25  1  0
M  END
$$$$
