HTI.pdb
     RDKit          3D

 26 26  0  0  1  0  0  0  0  0999 V2000
   12.4995  -13.9653   20.0296 N   0  0  0  0  0  0  0  0  0  0  0  0
   11.0704  -14.0466   20.0067 C   0  0  1  0  0  0  0  0  0  0  0  0
   10.6010  -15.2646   19.2111 C   0  0  0  0  0  0  0  0  0  0  0  0
    9.7044  -14.7430   18.1448 C   0  0  0  0  0  0  0  0  0  0  0  0
    9.4033  -13.4280   17.8315 C   0  0  0  0  0  0  0  0  0  0  0  0
    8.5500  -13.3837   16.7987 N   0  0  0  0  0  0  0  0  0  0  0  0
    8.3105  -14.6560   16.4583 C   0  0  0  0  0  0  0  0  0  0  0  0
    9.0036  -15.4900   17.2657 N   0  0  0  0  0  0  0  0  0  0  0  0
   10.5117  -14.0387   21.3724 C   0  0  0  0  0  0  0  0  0  0  0  0
   10.9112  -13.1423   22.1853 O   0  0  0  0  0  0  0  0  0  0  0  0
    6.6816  -14.5397   21.8440 C   0  0  0  0  0  0  0  0  0  0  0  0
    7.4616  -15.3920   22.8104 C   0  0  1  0  0  0  0  0  0  0  0  0
    7.3910  -16.7000   22.4069 O   0  0  0  0  0  0  0  0  0  0  0  0
    8.8763  -14.8937   22.9907 C   0  0  2  0  0  0  0  0  0  0  0  0
    9.5596  -15.0211   21.7241 N   0  0  0  0  0  0  0  0  0  0  0  0
    9.6128  -15.6038   24.0581 C   0  0  0  0  0  0  0  0  0  0  0  0
   10.6632  -16.2215   23.7495 O   0  0  0  0  0  0  0  0  0  0  0  0
    9.2806  -12.7095   28.3937 C   0  0  0  0  0  0  0  0  0  0  0  0
    9.8846  -13.6492   27.4208 C   0  0  0  0  0  0  0  0  0  0  0  0
    9.7157  -15.0959   27.6099 C   0  0  2  0  0  0  0  0  0  0  0  0
   10.5174  -15.5595   28.8573 C   0  0  0  0  0  0  0  0  0  0  0  0
    9.9848  -16.0317   26.4944 C   0  0  2  0  0  0  0  0  0  0  0  0
    9.1103  -15.5605   25.3752 N   0  0  0  0  0  0  0  0  0  0  0  0
    9.6972  -17.4578   26.6997 C   0  0  0  0  0  0  0  0  0  0  0  0
    8.5206  -18.1078   26.3906 O   0  0  0  0  0  0  0  0  0  0  0  0
   10.5890  -18.2345   27.2234 O   0  0  0  0  0  0  0  0  0  0  0  0
  2  9  1  0
  2  1  1  1
  3  2  1  0
  4  8  1  0
  4  3  1  0
  5  4  2  0
  6  5  1  0
  6  7  1  0
  7  8  2  0
  9 10  2  0
 12 11  1  6
 12 14  1  0
 13 12  1  0
 14 15  1  6
 15  9  1  0
 16 17  2  0
 16 14  1  0
 18 19  1  0
 19 20  1  0
 20 22  1  0
 20 21  1  1
 22 23  1  6
 22 24  1  0
 23 16  1  0
 24 26  2  0
 24 25  1  0
M  END
$$$$
