GPE.pdb
     RDKit          3D

 21 21  0  0  1  0  0  0  0  0999 V2000
   15.9138  -13.5743    6.9622 N   0  0  0  0  0  0  0  0  0  0  0  0
   16.7569  -13.6824    5.8321 C   0  0  0  0  0  0  0  0  0  0  0  0
   16.8427  -14.9935    5.1814 C   0  0  0  0  0  0  0  0  0  0  0  0
   16.1749  -15.9622    5.7136 O   0  0  0  0  0  0  0  0  0  0  0  0
   17.5822  -15.3282    4.0223 N   0  0  0  0  0  0  0  0  0  0  0  0
   18.4395  -14.4772    3.2264 C   0  0  0  0  0  0  0  0  0  0  0  0
   18.1979  -15.0450    1.8154 C   0  0  0  0  0  0  0  0  0  0  0  0
   18.2524  -16.5234    2.0835 C   0  0  0  0  0  0  0  0  0  0  0  0
   17.5860  -16.6537    3.4158 C   0  0  1  0  0  0  0  0  0  0  0  0
   18.2526  -17.6464    4.2937 C   0  0  0  0  0  0  0  0  0  0  0  0
   19.1892  -17.2455    5.0301 O   0  0  0  0  0  0  0  0  0  0  0  0
   17.9096  -19.0124    4.3623 N   0  0  0  0  0  0  0  0  0  0  0  0
   18.6788  -19.9856    5.1904 C   0  0  1  0  0  0  0  0  0  0  0  0
   17.8156  -20.3071    6.3524 C   0  0  0  0  0  0  0  0  0  0  0  0
   18.3171  -21.2905    7.3474 C   0  0  0  0  0  0  0  0  0  0  0  0
   17.3440  -21.5671    8.3981 C   0  0  0  0  0  0  0  0  0  0  0  0
   16.7096  -22.6615    8.3626 O   0  0  0  0  0  0  0  0  0  0  0  0
   19.2466  -21.0305    4.3825 C   0  0  0  0  0  0  0  0  0  0  0  0
   18.7020  -21.4963    3.1884 O   0  0  0  0  0  0  0  0  0  0  0  0
   17.1057  -20.6563    9.4356 O   0  0  0  0  0  0  0  0  0  0  0  0
   20.3246  -21.6317    4.7180 O   0  0  0  0  0  0  0  0  0  0  0  0
  1  2  1  0
  2  3  1  0
  3  4  2  0
  5  9  1  0
  5  3  1  0
  6  5  1  0
  7  6  1  0
  7  8  1  0
  8  9  1  0
 10 12  1  0
  9 10  1  1
 11 10  2  0
 13 12  1  0
 13 14  1  1
 14 15  1  0
 16 15  1  0
 16 20  1  0
 17 16  2  0
 18 13  1  0
 19 18  1  0
 21 18  2  0
M  END
$$$$
