GPE.pdb
     RDKit          3D

 21 21  0  0  1  0  0  0  0  0999 V2000
   23.9694  -12.1130  -19.1102 N   0  0  0  0  0  0  0  0  0  0  0  0
   24.4182  -11.4356  -17.9529 C   0  0  0  0  0  0  0  0  0  0  0  0
   23.4504  -10.5819  -17.2569 C   0  0  0  0  0  0  0  0  0  0  0  0
   22.7565   -9.7657  -17.9780 O   0  0  0  0  0  0  0  0  0  0  0  0
   23.1833  -10.5455  -15.8679 N   0  0  0  0  0  0  0  0  0  0  0  0
   23.8040  -11.3162  -14.8128 C   0  0  0  0  0  0  0  0  0  0  0  0
   22.6185  -11.5148  -13.8500 C   0  0  0  0  0  0  0  0  0  0  0  0
   22.0178  -10.1365  -13.8402 C   0  0  0  0  0  0  0  0  0  0  0  0
   22.1797   -9.6832  -15.2560 C   0  0  1  0  0  0  0  0  0  0  0  0
   22.5625   -8.2537  -15.3583 C   0  0  0  0  0  0  0  0  0  0  0  0
   23.7832   -7.9786  -15.4788 O   0  0  0  0  0  0  0  0  0  0  0  0
   21.6523   -7.1772  -15.3304 N   0  0  0  0  0  0  0  0  0  0  0  0
   22.0906   -5.7600  -15.4850 C   0  0  1  0  0  0  0  0  0  0  0  0
   21.2002   -5.1652  -16.5107 C   0  0  0  0  0  0  0  0  0  0  0  0
   21.3467   -3.7173  -16.8117 C   0  0  0  0  0  0  0  0  0  0  0  0
   20.3663   -3.2474  -17.7842 C   0  0  0  0  0  0  0  0  0  0  0  0
   20.2551   -3.8696  -18.8805 O   0  0  0  0  0  0  0  0  0  0  0  0
   22.2729   -5.1236  -14.2088 C   0  0  0  0  0  0  0  0  0  0  0  0
   23.1297   -4.0519  -13.9706 O   0  0  0  0  0  0  0  0  0  0  0  0
   19.5525   -2.1364  -17.5272 O   0  0  0  0  0  0  0  0  0  0  0  0
   21.6454   -5.5142  -13.1650 O   0  0  0  0  0  0  0  0  0  0  0  0
  1  2  1  0
  2  3  1  0
  3  4  2  0
  5  9  1  0
  5  3  1  0
  6  5  1  0
  7  6  1  0
  7  8  1  0
  8  9  1  0
 10 12  1  0
  9 10  1  1
 11 10  2  0
 13 12  1  0
 13 14  1  6
 14 15  1  0
 16 15  1  0
 16 20  1  0
 17 16  2  0
 18 13  1  0
 19 18  1  0
 21 18  2  0
M  END
$$$$
