GPE.pdb
     RDKit          3D

 21 21  0  0  1  0  0  0  0  0999 V2000
   22.3270  -13.0640  -18.7399 N   0  0  0  0  0  0  0  0  0  0  0  0
   23.4385  -12.2118  -18.5450 C   0  0  0  0  0  0  0  0  0  0  0  0
   23.4373  -11.3710  -17.3437 C   0  0  0  0  0  0  0  0  0  0  0  0
   22.2946  -11.1286  -16.7932 O   0  0  0  0  0  0  0  0  0  0  0  0
   24.5568  -10.7846  -16.7072 N   0  0  0  0  0  0  0  0  0  0  0  0
   25.9578  -10.9365  -17.0334 C   0  0  0  0  0  0  0  0  0  0  0  0
   26.5994  -10.8710  -15.6349 C   0  0  0  0  0  0  0  0  0  0  0  0
   25.8495   -9.7197  -15.0245 C   0  0  0  0  0  0  0  0  0  0  0  0
   24.4630   -9.8947  -15.5564 C   0  0  1  0  0  0  0  0  0  0  0  0
   23.8239   -8.6068  -15.9214 C   0  0  0  0  0  0  0  0  0  0  0  0
   24.0295   -8.1544  -17.0761 O   0  0  0  0  0  0  0  0  0  0  0  0
   22.9990   -7.8509  -15.0633 N   0  0  0  0  0  0  0  0  0  0  0  0
   22.3962   -6.5516  -15.4794 C   0  0  1  0  0  0  0  0  0  0  0  0
   20.9763   -6.8406  -15.7938 C   0  0  0  0  0  0  0  0  0  0  0  0
   20.1019   -5.7071  -16.1928 C   0  0  0  0  0  0  0  0  0  0  0  0
   18.7267   -6.1243  -16.4431 C   0  0  0  0  0  0  0  0  0  0  0  0
   18.4362   -6.6013  -17.5787 O   0  0  0  0  0  0  0  0  0  0  0  0
   22.7497   -5.4934  -14.5728 C   0  0  0  0  0  0  0  0  0  0  0  0
   22.8910   -4.1548  -14.9302 O   0  0  0  0  0  0  0  0  0  0  0  0
   17.7355   -6.0121  -15.4595 O   0  0  0  0  0  0  0  0  0  0  0  0
   22.9741   -5.7146  -13.3331 O   0  0  0  0  0  0  0  0  0  0  0  0
  1  2  1  0
  2  3  1  0
  3  4  2  0
  5  9  1  0
  5  3  1  0
  6  5  1  0
  7  6  1  0
  7  8  1  0
  8  9  1  0
 10 12  1  0
  9 10  1  6
 11 10  2  0
 13 12  1  0
 13 14  1  1
 14 15  1  0
 16 15  1  0
 16 20  1  0
 17 16  2  0
 18 13  1  0
 19 18  1  0
 21 18  2  0
M  END
$$$$
