GPE.pdb
     RDKit          3D

 21 21  0  0  1  0  0  0  0  0999 V2000
   27.3649  -18.9087  -17.2394 N   0  0  0  0  0  0  0  0  0  0  0  0
   28.2205  -18.9072  -16.1136 C   0  0  0  0  0  0  0  0  0  0  0  0
   27.8859  -19.8185  -15.0147 C   0  0  0  0  0  0  0  0  0  0  0  0
   26.8259  -20.5436  -15.1503 O   0  0  0  0  0  0  0  0  0  0  0  0
   28.5972  -19.9997  -13.8050 N   0  0  0  0  0  0  0  0  0  0  0  0
   29.8635  -19.4216  -13.4117 C   0  0  0  0  0  0  0  0  0  0  0  0
   30.4688  -20.5661  -12.5778 C   0  0  0  0  0  0  0  0  0  0  0  0
   29.2815  -20.9877  -11.7575 C   0  0  0  0  0  0  0  0  0  0  0  0
   28.1399  -20.8509  -12.7135 C   0  0  1  0  0  0  0  0  0  0  0  0
   26.9211  -20.2984  -12.0732 C   0  0  0  0  0  0  0  0  0  0  0  0
   26.7705  -19.0504  -12.0736 O   0  0  0  0  0  0  0  0  0  0  0  0
   25.9154  -21.0753  -11.4623 N   0  0  0  0  0  0  0  0  0  0  0  0
   24.6605  -20.4736  -10.9259 C   0  0  1  0  0  0  0  0  0  0  0  0
   23.6252  -20.6907  -11.9649 C   0  0  0  0  0  0  0  0  0  0  0  0
   22.2491  -20.1978  -11.6971 C   0  0  0  0  0  0  0  0  0  0  0  0
   21.3256  -20.5023  -12.7844 C   0  0  0  0  0  0  0  0  0  0  0  0
   21.0540  -21.7144  -13.0262 O   0  0  0  0  0  0  0  0  0  0  0  0
   24.4299  -20.8665   -9.5623 C   0  0  0  0  0  0  0  0  0  0  0  0
   24.9764  -21.9955   -8.9574 O   0  0  0  0  0  0  0  0  0  0  0  0
   20.7377  -19.4892  -13.5530 O   0  0  0  0  0  0  0  0  0  0  0  0
   23.6752  -20.1880   -8.7837 O   0  0  0  0  0  0  0  0  0  0  0  0
  1  2  1  0
  2  3  1  0
  3  4  2  0
  5  9  1  0
  5  3  1  0
  6  5  1  0
  7  6  1  0
  7  8  1  0
  8  9  1  0
 10 12  1  0
  9 10  1  1
 11 10  2  0
 13 12  1  0
 13 14  1  6
 14 15  1  0
 16 15  1  0
 16 20  1  0
 17 16  2  0
 18 13  1  0
 19 18  1  0
 21 18  2  0
M  END
$$$$
