GPE.pdb
     RDKit          3D

 21 21  0  0  1  0  0  0  0  0999 V2000
   30.9541  -21.8415  -10.8393 N   0  0  0  0  0  0  0  0  0  0  0  0
   30.4544  -20.9294   -9.8813 C   0  0  0  0  0  0  0  0  0  0  0  0
   29.0759  -21.1261   -9.4220 C   0  0  0  0  0  0  0  0  0  0  0  0
   28.3533  -21.9784  -10.0694 O   0  0  0  0  0  0  0  0  0  0  0  0
   28.4339  -20.4826   -8.3375 N   0  0  0  0  0  0  0  0  0  0  0  0
   28.9927  -19.5395   -7.3937 C   0  0  0  0  0  0  0  0  0  0  0  0
   28.2239  -19.9085   -6.1113 C   0  0  0  0  0  0  0  0  0  0  0  0
   26.8257  -20.0584   -6.6433 C   0  0  0  0  0  0  0  0  0  0  0  0
   27.0356  -20.6906   -7.9821 C   0  0  1  0  0  0  0  0  0  0  0  0
   26.1283  -20.1443   -9.0208 C   0  0  0  0  0  0  0  0  0  0  0  0
   26.4810  -19.0957   -9.6177 O   0  0  0  0  0  0  0  0  0  0  0  0
   24.8943  -20.7190   -9.3885 N   0  0  0  0  0  0  0  0  0  0  0  0
   24.2322  -20.4172  -10.6905 C   0  0  1  0  0  0  0  0  0  0  0  0
   25.0232  -21.1246  -11.7261 C   0  0  0  0  0  0  0  0  0  0  0  0
   24.5030  -21.1376  -13.1182 C   0  0  0  0  0  0  0  0  0  0  0  0
   25.4412  -20.5534  -14.0700 C   0  0  0  0  0  0  0  0  0  0  0  0
   26.6363  -20.9697  -14.0751 O   0  0  0  0  0  0  0  0  0  0  0  0
   22.8070  -20.5872  -10.6077 C   0  0  0  0  0  0  0  0  0  0  0  0
   22.1615  -21.4815   -9.7575 O   0  0  0  0  0  0  0  0  0  0  0  0
   25.0466  -19.5556  -14.9708 O   0  0  0  0  0  0  0  0  0  0  0  0
   22.0039  -19.9114  -11.3387 O   0  0  0  0  0  0  0  0  0  0  0  0
  1  2  1  0
  2  3  1  0
  3  4  2  0
  5  9  1  0
  5  3  1  0
  6  5  1  0
  7  6  1  0
  7  8  1  0
  8  9  1  0
 10 12  1  0
  9 10  1  6
 11 10  2  0
 13 12  1  0
 13 14  1  6
 14 15  1  0
 16 15  1  0
 16 20  1  0
 17 16  2  0
 18 13  1  0
 19 18  1  0
 21 18  2  0
M  END
$$$$
