GPE.pdb
     RDKit          3D

 21 21  0  0  1  0  0  0  0  0999 V2000
   23.5932  -14.5370  -17.9196 N   0  0  0  0  0  0  0  0  0  0  0  0
   24.1865  -13.3049  -18.2794 C   0  0  0  0  0  0  0  0  0  0  0  0
   24.0078  -12.1790  -17.3572 C   0  0  0  0  0  0  0  0  0  0  0  0
   22.8021  -11.9074  -16.9829 O   0  0  0  0  0  0  0  0  0  0  0  0
   25.0151  -11.3420  -16.8214 N   0  0  0  0  0  0  0  0  0  0  0  0
   26.4440  -11.4037  -17.0379 C   0  0  0  0  0  0  0  0  0  0  0  0
   26.9745  -10.9542  -15.6637 C   0  0  0  0  0  0  0  0  0  0  0  0
   26.0721   -9.7878  -15.3709 C   0  0  0  0  0  0  0  0  0  0  0  0
   24.7514  -10.2334  -15.9124 C   0  0  1  0  0  0  0  0  0  0  0  0
   24.0150   -9.1408  -16.5939 C   0  0  0  0  0  0  0  0  0  0  0  0
   24.2875   -8.9101  -17.7992 O   0  0  0  0  0  0  0  0  0  0  0  0
   23.0273   -8.3397  -15.9849 N   0  0  0  0  0  0  0  0  0  0  0  0
   22.2805   -7.2891  -16.7353 C   0  0  1  0  0  0  0  0  0  0  0  0
   21.2017   -7.9964  -17.4665 C   0  0  0  0  0  0  0  0  0  0  0  0
   20.1012   -8.6056  -16.6752 C   0  0  0  0  0  0  0  0  0  0  0  0
   19.0790   -9.2156  -17.5181 C   0  0  0  0  0  0  0  0  0  0  0  0
   18.1763   -8.4752  -18.0065 O   0  0  0  0  0  0  0  0  0  0  0  0
   21.9851   -6.1563  -15.9008 C   0  0  0  0  0  0  0  0  0  0  0  0
   22.0811   -6.1462  -14.5116 O   0  0  0  0  0  0  0  0  0  0  0  0
   19.0816  -10.5884  -17.7973 O   0  0  0  0  0  0  0  0  0  0  0  0
   21.5931   -5.0418  -16.3911 O   0  0  0  0  0  0  0  0  0  0  0  0
  1  2  1  0
  2  3  1  0
  3  4  2  0
  5  9  1  0
  5  3  1  0
  6  5  1  0
  7  6  1  0
  7  8  1  0
  8  9  1  0
 10 12  1  0
  9 10  1  6
 11 10  2  0
 13 12  1  0
 13 14  1  1
 14 15  1  0
 16 15  1  0
 16 20  1  0
 17 16  2  0
 18 13  1  0
 19 18  1  0
 21 18  2  0
M  END
$$$$
