GPE.pdb
     RDKit          3D

 21 21  0  0  1  0  0  0  0  0999 V2000
   23.3250  -12.9798  -19.5194 N   0  0  0  0  0  0  0  0  0  0  0  0
   24.0968  -11.8216  -19.2691 C   0  0  0  0  0  0  0  0  0  0  0  0
   23.9282  -11.1712  -17.9659 C   0  0  0  0  0  0  0  0  0  0  0  0
   22.7200  -10.9440  -17.5708 O   0  0  0  0  0  0  0  0  0  0  0  0
   24.9480  -10.7563  -17.0770 N   0  0  0  0  0  0  0  0  0  0  0  0
   26.3785  -10.9265  -17.2080 C   0  0  0  0  0  0  0  0  0  0  0  0
   26.7922  -11.1240  -15.7378 C   0  0  0  0  0  0  0  0  0  0  0  0
   25.9859  -10.0499  -15.0619 C   0  0  0  0  0  0  0  0  0  0  0  0
   24.6970  -10.0626  -15.8197 C   0  0  1  0  0  0  0  0  0  0  0  0
   24.1580   -8.7005  -16.0538 C   0  0  0  0  0  0  0  0  0  0  0  0
   24.2385   -8.2275  -17.2157 O   0  0  0  0  0  0  0  0  0  0  0  0
   23.5593   -7.8953  -15.0632 N   0  0  0  0  0  0  0  0  0  0  0  0
   22.9229   -6.5843  -15.3805 C   0  0  1  0  0  0  0  0  0  0  0  0
   21.8610   -6.8740  -16.3740 C   0  0  0  0  0  0  0  0  0  0  0  0
   20.9837   -5.7560  -16.8087 C   0  0  0  0  0  0  0  0  0  0  0  0
   19.9611   -6.1850  -17.7564 C   0  0  0  0  0  0  0  0  0  0  0  0
   20.3234   -6.5571  -18.9104 O   0  0  0  0  0  0  0  0  0  0  0  0
   22.6313   -5.8383  -14.1866 C   0  0  0  0  0  0  0  0  0  0  0  0
   22.6914   -4.4509  -14.0819 O   0  0  0  0  0  0  0  0  0  0  0  0
   18.6026   -6.1968  -17.4143 O   0  0  0  0  0  0  0  0  0  0  0  0
   22.2916   -6.4157  -13.0970 O   0  0  0  0  0  0  0  0  0  0  0  0
  1  2  1  0
  2  3  1  0
  3  4  2  0
  5  9  1  0
  5  3  1  0
  6  5  1  0
  7  6  1  0
  7  8  1  0
  8  9  1  0
 10 12  1  0
  9 10  1  6
 11 10  2  0
 13 12  1  0
 13 14  1  1
 14 15  1  0
 16 15  1  0
 16 20  1  0
 17 16  2  0
 18 13  1  0
 19 18  1  0
 21 18  2  0
M  END
$$$$
