CPV.pdb
     RDKit          3D

 21 21  0  0  1  0  0  0  0  0999 V2000
   25.6543  -18.2823  -17.8514 N   0  0  0  0  0  0  0  0  0  0  0  0
   26.3496  -17.9519  -16.5825 C   0  0  1  0  0  0  0  0  0  0  0  0
   25.7236  -16.6468  -16.0876 C   0  0  0  0  0  0  0  0  0  0  0  0
   27.0284  -15.3771  -16.3208 S   0  0  0  0  0  0  0  0  0  0  0  0
   26.1924  -19.0650  -15.6577 C   0  0  0  0  0  0  0  0  0  0  0  0
   25.0463  -19.6280  -15.5874 O   0  0  0  0  0  0  0  0  0  0  0  0
   27.2496  -19.5307  -14.8526 N   0  0  0  0  0  0  0  0  0  0  0  0
   28.6227  -19.0012  -15.0620 C   0  0  0  0  0  0  0  0  0  0  0  0
   29.4711  -20.2138  -14.6243 C   0  0  0  0  0  0  0  0  0  0  0  0
   28.7245  -20.5577  -13.3612 C   0  0  0  0  0  0  0  0  0  0  0  0
   27.2772  -20.4725  -13.7830 C   0  0  1  0  0  0  0  0  0  0  0  0
   26.5583  -19.9693  -12.5687 C   0  0  0  0  0  0  0  0  0  0  0  0
   26.6075  -18.7617  -12.3091 O   0  0  0  0  0  0  0  0  0  0  0  0
   22.9275  -20.1782   -9.4779 C   0  0  0  0  0  0  0  0  0  0  0  0
   23.6270  -20.7685  -10.6816 C   0  0  1  0  0  0  0  0  0  0  0  0
   23.0057  -20.3541  -11.9734 C   0  0  0  0  0  0  0  0  0  0  0  0
   25.0886  -20.4052  -10.5817 C   0  0  2  0  0  0  0  0  0  0  0  0
   25.8410  -20.8427  -11.7367 N   0  0  0  0  0  0  0  0  0  0  0  0
   25.6593  -20.9062   -9.3144 C   0  0  0  0  0  0  0  0  0  0  0  0
   26.2293  -22.0065   -9.2508 O   0  0  0  0  0  0  0  0  0  0  0  0
   25.5516  -20.1266   -8.1815 O   0  0  0  0  0  0  0  0  0  0  0  0
  2  1  1  6
  3  2  1  0
  4  3  1  0
  5  7  1  0
  5  2  1  0
  6  5  2  0
  7  8  1  0
  9  8  1  0
 10  9  1  0
 11 10  1  0
 11  7  1  0
 11 12  1  1
 12 18  1  0
 13 12  2  0
 15 14  1  1
 15 16  1  0
 17 15  1  0
 17 18  1  6
 19 17  1  0
 19 21  1  0
 20 19  2  0
M  END
$$$$
