CPV.pdb
     RDKit          3D

 21 21  0  0  1  0  0  0  0  0999 V2000
   23.3095  -21.9915  -13.3854 N   0  0  0  0  0  0  0  0  0  0  0  0
   24.5178  -21.3986  -14.0109 C   0  0  1  0  0  0  0  0  0  0  0  0
   24.8717  -22.3092  -15.1881 C   0  0  0  0  0  0  0  0  0  0  0  0
   25.9516  -23.6098  -14.4732 S   0  0  0  0  0  0  0  0  0  0  0  0
   24.2205  -20.0275  -14.3991 C   0  0  0  0  0  0  0  0  0  0  0  0
   22.9960  -19.7110  -14.5888 O   0  0  0  0  0  0  0  0  0  0  0  0
   25.2266  -19.0572  -14.5682 N   0  0  0  0  0  0  0  0  0  0  0  0
   26.6210  -19.3627  -14.1531 C   0  0  0  0  0  0  0  0  0  0  0  0
   27.1277  -17.9536  -13.7796 C   0  0  0  0  0  0  0  0  0  0  0  0
   26.5913  -17.2056  -14.9727 C   0  0  0  0  0  0  0  0  0  0  0  0
   25.1856  -17.7394  -15.1100 C   0  0  1  0  0  0  0  0  0  0  0  0
   24.9247  -17.7432  -16.5852 C   0  0  0  0  0  0  0  0  0  0  0  0
   25.3424  -18.6922  -17.2583 O   0  0  0  0  0  0  0  0  0  0  0  0
   22.1984  -16.4349  -20.3426 C   0  0  0  0  0  0  0  0  0  0  0  0
   22.4127  -16.5130  -18.8478 C   0  0  1  0  0  0  0  0  0  0  0  0
   21.5938  -17.5791  -18.2002 C   0  0  0  0  0  0  0  0  0  0  0  0
   23.8943  -16.6741  -18.6086 C   0  0  2  0  0  0  0  0  0  0  0  0
   24.2216  -16.6956  -17.2000 N   0  0  0  0  0  0  0  0  0  0  0  0
   24.6514  -15.6429  -19.3475 C   0  0  0  0  0  0  0  0  0  0  0  0
   24.7149  -14.4716  -18.9429 O   0  0  0  0  0  0  0  0  0  0  0  0
   25.2991  -15.9991  -20.5121 O   0  0  0  0  0  0  0  0  0  0  0  0
  2  1  1  6
  3  2  1  0
  4  3  1  0
  5  7  1  0
  5  2  1  0
  6  5  2  0
  7  8  1  0
  9  8  1  0
 10  9  1  0
 11 10  1  0
 11  7  1  0
 11 12  1  6
 12 18  1  0
 13 12  2  0
 15 14  1  6
 15 16  1  0
 17 15  1  0
 17 18  1  1
 19 17  1  0
 19 21  1  0
 20 19  2  0
M  END
$$$$
