CPV.pdb
     RDKit          3D

 21 21  0  0  1  0  0  0  0  0999 V2000
   23.5114  -21.5235  -13.0258 N   0  0  0  0  0  0  0  0  0  0  0  0
   24.4907  -20.4777  -12.6384 C   0  0  1  0  0  0  0  0  0  0  0  0
   23.6838  -19.1897  -12.4648 C   0  0  0  0  0  0  0  0  0  0  0  0
   23.7693  -18.3534  -14.0964 S   0  0  0  0  0  0  0  0  0  0  0  0
   25.1800  -20.9050  -11.4296 C   0  0  0  0  0  0  0  0  0  0  0  0
   24.4706  -21.3307  -10.4544 O   0  0  0  0  0  0  0  0  0  0  0  0
   26.5820  -20.8634  -11.3070 N   0  0  0  0  0  0  0  0  0  0  0  0
   27.4057  -20.3685  -12.4413 C   0  0  0  0  0  0  0  0  0  0  0  0
   28.7049  -21.1742  -12.2294 C   0  0  0  0  0  0  0  0  0  0  0  0
   28.8455  -20.9741  -10.7424 C   0  0  0  0  0  0  0  0  0  0  0  0
   27.4461  -21.2144  -10.2290 C   0  0  1  0  0  0  0  0  0  0  0  0
   27.3047  -20.2817   -9.0652 C   0  0  0  0  0  0  0  0  0  0  0  0
   26.9660  -19.1125   -9.2808 O   0  0  0  0  0  0  0  0  0  0  0  0
   27.3375  -19.6112   -4.1869 C   0  0  0  0  0  0  0  0  0  0  0  0
   27.0898  -20.5461   -5.3492 C   0  0  1  0  0  0  0  0  0  0  0  0
   25.6795  -21.0295   -5.4133 C   0  0  0  0  0  0  0  0  0  0  0  0
   27.5323  -19.8366   -6.6058 C   0  0  2  0  0  0  0  0  0  0  0  0
   27.5494  -20.7165   -7.7534 N   0  0  0  0  0  0  0  0  0  0  0  0
   28.8312  -19.1666   -6.3898 C   0  0  0  0  0  0  0  0  0  0  0  0
   29.8964  -19.6834   -6.7614 O   0  0  0  0  0  0  0  0  0  0  0  0
   28.8508  -17.9394   -5.7603 O   0  0  0  0  0  0  0  0  0  0  0  0
  2  1  1  1
  3  2  1  0
  4  3  1  0
  5  7  1  0
  5  2  1  0
  6  5  2  0
  7  8  1  0
  9  8  1  0
 10  9  1  0
 11 10  1  0
 11  7  1  0
 11 12  1  1
 12 18  1  0
 13 12  2  0
 15 14  1  1
 15 16  1  0
 17 15  1  0
 17 18  1  6
 19 17  1  0
 19 21  1  0
 20 19  2  0
M  END
$$$$
