CPV.pdb
     RDKit          3D

 21 21  0  0  1  0  0  0  0  0999 V2000
   23.1878  -21.6220  -13.0667 N   0  0  0  0  0  0  0  0  0  0  0  0
   24.2642  -20.6440  -12.7704 C   0  0  1  0  0  0  0  0  0  0  0  0
   23.5647  -19.3001  -12.5590 C   0  0  0  0  0  0  0  0  0  0  0  0
   23.2834  -18.6412  -14.2489 S   0  0  0  0  0  0  0  0  0  0  0  0
   25.0107  -21.1053  -11.6091 C   0  0  0  0  0  0  0  0  0  0  0  0
   24.3524  -21.6097  -10.6356 O   0  0  0  0  0  0  0  0  0  0  0  0
   26.4135  -21.0132  -11.5298 N   0  0  0  0  0  0  0  0  0  0  0  0
   27.1802  -20.4537  -12.6740 C   0  0  0  0  0  0  0  0  0  0  0  0
   28.5151  -21.2145  -12.5282 C   0  0  0  0  0  0  0  0  0  0  0  0
   28.6969  -21.0529  -11.0410 C   0  0  0  0  0  0  0  0  0  0  0  0
   27.3251  -21.3621  -10.4911 C   0  0  1  0  0  0  0  0  0  0  0  0
   27.1871  -20.4701   -9.2953 C   0  0  0  0  0  0  0  0  0  0  0  0
   26.7094  -19.3406   -9.4508 O   0  0  0  0  0  0  0  0  0  0  0  0
   27.3065  -19.9791   -4.4080 C   0  0  0  0  0  0  0  0  0  0  0  0
   27.1202  -20.8744   -5.6123 C   0  0  1  0  0  0  0  0  0  0  0  0
   25.7509  -21.4622   -5.6907 C   0  0  0  0  0  0  0  0  0  0  0  0
   27.4943  -20.0742   -6.8362 C   0  0  2  0  0  0  0  0  0  0  0  0
   27.5887  -20.8986   -8.0206 N   0  0  0  0  0  0  0  0  0  0  0  0
   28.7276  -19.2994   -6.5889 C   0  0  0  0  0  0  0  0  0  0  0  0
   28.7153  -18.2616   -5.9089 O   0  0  0  0  0  0  0  0  0  0  0  0
   29.9149  -19.7471   -7.1300 O   0  0  0  0  0  0  0  0  0  0  0  0
  2  1  1  1
  3  2  1  0
  4  3  1  0
  5  7  1  0
  5  2  1  0
  6  5  2  0
  7  8  1  0
  9  8  1  0
 10  9  1  0
 11 10  1  0
 11  7  1  0
 11 12  1  1
 12 18  1  0
 13 12  2  0
 15 14  1  1
 15 16  1  0
 17 15  1  0
 17 18  1  6
 19 17  1  0
 19 21  1  0
 20 19  2  0
M  END
$$$$
