CPV.pdb
     RDKit          3D

 21 21  0  0  1  0  0  0  0  0999 V2000
   23.9211  -15.3828  -16.7519 N   0  0  0  0  0  0  0  0  0  0  0  0
   24.5309  -14.0766  -17.1053 C   0  0  1  0  0  0  0  0  0  0  0  0
   24.2272  -13.8583  -18.5886 C   0  0  0  0  0  0  0  0  0  0  0  0
   25.3345  -15.0229  -19.4755 S   0  0  0  0  0  0  0  0  0  0  0  0
   23.9761  -13.0492  -16.2360 C   0  0  0  0  0  0  0  0  0  0  0  0
   22.7641  -13.1817  -15.8501 O   0  0  0  0  0  0  0  0  0  0  0  0
   24.7246  -11.9332  -15.8156 N   0  0  0  0  0  0  0  0  0  0  0  0
   26.1615  -11.8300  -16.1824 C   0  0  0  0  0  0  0  0  0  0  0  0
   26.7088  -11.0221  -14.9868 C   0  0  0  0  0  0  0  0  0  0  0  0
   25.6270   -9.9752  -14.9175 C   0  0  0  0  0  0  0  0  0  0  0  0
   24.3584  -10.7815  -15.0597 C   0  0  1  0  0  0  0  0  0  0  0  0
   23.4232   -9.8856  -15.8129 C   0  0  0  0  0  0  0  0  0  0  0  0
   23.5780   -9.7588  -17.0328 O   0  0  0  0  0  0  0  0  0  0  0  0
   20.3571  -10.0808  -17.0913 C   0  0  0  0  0  0  0  0  0  0  0  0
   20.1320   -8.9703  -16.0900 C   0  0  1  0  0  0  0  0  0  0  0  0
   19.4573   -9.4409  -14.8450 C   0  0  0  0  0  0  0  0  0  0  0  0
   21.4664   -8.3142  -15.8310 C   0  0  2  0  0  0  0  0  0  0  0  0
   22.3895   -9.2000  -15.1564 N   0  0  0  0  0  0  0  0  0  0  0  0
   21.2825   -7.0373  -15.1110 C   0  0  0  0  0  0  0  0  0  0  0  0
   21.4762   -6.9492  -13.8885 O   0  0  0  0  0  0  0  0  0  0  0  0
   20.8863   -5.9234  -15.8216 O   0  0  0  0  0  0  0  0  0  0  0  0
  2  1  1  1
  3  2  1  0
  4  3  1  0
  5  7  1  0
  5  2  1  0
  6  5  2  0
  7  8  1  0
  9  8  1  0
 10  9  1  0
 11 10  1  0
 11  7  1  0
 11 12  1  6
 12 18  1  0
 13 12  2  0
 15 14  1  6
 15 16  1  0
 17 15  1  0
 17 18  1  1
 19 17  1  0
 19 21  1  0
 20 19  2  0
M  END
$$$$
