CPV.pdb
     RDKit          3D

 21 21  0  0  1  0  0  0  0  0999 V2000
   29.8047  -24.1660  -16.6639 N   0  0  0  0  0  0  0  0  0  0  0  0
   29.0688  -23.0951  -17.3810 C   0  0  1  0  0  0  0  0  0  0  0  0
   28.4196  -23.7690  -18.5912 C   0  0  0  0  0  0  0  0  0  0  0  0
   27.5591  -22.4149  -19.4828 S   0  0  0  0  0  0  0  0  0  0  0  0
   28.1136  -22.4881  -16.4656 C   0  0  0  0  0  0  0  0  0  0  0  0
   27.4852  -23.2567  -15.6594 O   0  0  0  0  0  0  0  0  0  0  0  0
   27.8671  -21.1020  -16.4438 N   0  0  0  0  0  0  0  0  0  0  0  0
   28.5032  -20.2251  -17.4618 C   0  0  0  0  0  0  0  0  0  0  0  0
   28.6300  -18.9064  -16.6702 C   0  0  0  0  0  0  0  0  0  0  0  0
   27.2500  -18.8816  -16.0654 C   0  0  0  0  0  0  0  0  0  0  0  0
   27.0589  -20.3005  -15.5858 C   0  0  1  0  0  0  0  0  0  0  0  0
   25.5970  -20.5695  -15.7732 C   0  0  0  0  0  0  0  0  0  0  0  0
   25.2072  -20.9859  -16.8699 O   0  0  0  0  0  0  0  0  0  0  0  0
   21.2025  -21.4768  -13.9053 C   0  0  0  0  0  0  0  0  0  0  0  0
   22.6946  -21.3545  -13.6928 C   0  0  1  0  0  0  0  0  0  0  0  0
   23.3598  -22.6736  -13.4828 C   0  0  0  0  0  0  0  0  0  0  0  0
   23.2588  -20.5840  -14.8617 C   0  0  2  0  0  0  0  0  0  0  0  0
   24.6811  -20.3565  -14.7314 N   0  0  0  0  0  0  0  0  0  0  0  0
   22.5039  -19.3306  -15.0662 C   0  0  0  0  0  0  0  0  0  0  0  0
   22.8572  -18.2674  -14.5329 O   0  0  0  0  0  0  0  0  0  0  0  0
   21.3826  -19.3522  -15.8693 O   0  0  0  0  0  0  0  0  0  0  0  0
  2  1  1  1
  3  2  1  0
  4  3  1  0
  5  7  1  0
  5  2  1  0
  6  5  2  0
  7  8  1  0
  9  8  1  0
 10  9  1  0
 11 10  1  0
 11  7  1  0
 11 12  1  6
 12 18  1  0
 13 12  2  0
 15 14  1  6
 15 16  1  0
 17 15  1  0
 17 18  1  1
 19 17  1  0
 19 21  1  0
 20 19  2  0
M  END
$$$$
