CPV.pdb
     RDKit          3D

 21 21  0  0  1  0  0  0  0  0999 V2000
   26.9330  -19.0497  -14.1294 N   0  0  0  0  0  0  0  0  0  0  0  0
   26.9885  -20.1745  -13.1627 C   0  0  1  0  0  0  0  0  0  0  0  0
   28.4093  -20.7346  -13.2506 C   0  0  0  0  0  0  0  0  0  0  0  0
   28.4677  -22.0772  -12.0004 S   0  0  0  0  0  0  0  0  0  0  0  0
   26.6358  -19.6756  -11.8415 C   0  0  0  0  0  0  0  0  0  0  0  0
   27.2658  -18.6544  -11.3991 O   0  0  0  0  0  0  0  0  0  0  0  0
   25.6371  -20.2761  -11.0513 N   0  0  0  0  0  0  0  0  0  0  0  0
   24.8032  -21.3664  -11.6221 C   0  0  0  0  0  0  0  0  0  0  0  0
   23.4897  -21.1686  -10.8364 C   0  0  0  0  0  0  0  0  0  0  0  0
   24.0822  -20.9913   -9.4622 C   0  0  0  0  0  0  0  0  0  0  0  0
   25.2342  -20.0456   -9.7036 C   0  0  1  0  0  0  0  0  0  0  0  0
   26.2829  -20.4680   -8.7205 C   0  0  0  0  0  0  0  0  0  0  0  0
   26.9740  -21.4593   -8.9809 O   0  0  0  0  0  0  0  0  0  0  0  0
   28.9454  -19.4742   -4.7148 C   0  0  0  0  0  0  0  0  0  0  0  0
   27.9700  -18.9545   -5.7468 C   0  0  1  0  0  0  0  0  0  0  0  0
   28.5555  -17.8892   -6.6123 C   0  0  0  0  0  0  0  0  0  0  0  0
   27.4594  -20.1408   -6.5280 C   0  0  2  0  0  0  0  0  0  0  0  0
   26.4843  -19.7597   -7.5257 N   0  0  0  0  0  0  0  0  0  0  0  0
   26.9508  -21.1819   -5.6115 C   0  0  0  0  0  0  0  0  0  0  0  0
   27.7183  -21.8561   -4.9073 O   0  0  0  0  0  0  0  0  0  0  0  0
   25.5908  -21.4024   -5.5436 O   0  0  0  0  0  0  0  0  0  0  0  0
  2  1  1  6
  3  2  1  0
  4  3  1  0
  5  7  1  0
  5  2  1  0
  6  5  2  0
  7  8  1  0
  9  8  1  0
 10  9  1  0
 11 10  1  0
 11  7  1  0
 11 12  1  1
 12 18  1  0
 13 12  2  0
 15 14  1  1
 15 16  1  0
 17 15  1  0
 17 18  1  6
 19 17  1  0
 19 21  1  0
 20 19  2  0
M  END
$$$$
