QYR.pdb
     RDKit          3D

 33 33  0  0  1  0  0  0  0  0999 V2000
    8.7038  -12.8478   16.9506 N   0  0  0  0  0  0  0  0  0  0  0  0
    8.1188  -14.0251   16.4489 C   0  0  0  0  0  0  0  0  0  0  0  0
    7.1951  -13.9597   15.6100 O   0  0  0  0  0  0  0  0  0  0  0  0
    8.5960  -15.3373   16.9133 C   0  0  0  0  0  0  0  0  0  0  0  0
    9.7138  -15.1408   17.9159 C   0  0  0  0  0  0  0  0  0  0  0  0
    9.4525  -16.1089   19.0580 C   0  0  2  0  0  0  0  0  0  0  0  0
    8.2494  -16.8822   18.8475 N   0  0  0  0  0  0  0  0  0  0  0  0
    9.4458  -15.4203   20.3732 C   0  0  0  0  0  0  0  0  0  0  0  0
   10.4452  -14.7912   20.7590 O   0  0  0  0  0  0  0  0  0  0  0  0
    6.3969  -12.0960   28.0150 O   0  0  0  0  0  0  0  0  0  0  0  0
    6.5283  -12.6395   26.7475 C   0  0  0  0  0  0  0  0  0  0  0  0
    7.0028  -11.8665   25.7164 C   0  0  0  0  0  0  0  0  0  0  0  0
    7.1409  -12.3865   24.4511 C   0  0  0  0  0  0  0  0  0  0  0  0
    6.8210  -13.6810   24.1471 C   0  0  0  0  0  0  0  0  0  0  0  0
    6.9676  -14.2853   22.8162 C   0  0  0  0  0  0  0  0  0  0  0  0
    8.3321  -14.8211   22.5400 C   0  0  2  0  0  0  0  0  0  0  0  0
    8.2866  -15.4852   21.1899 N   0  0  0  0  0  0  0  0  0  0  0  0
    8.6736  -15.9221   23.4551 C   0  0  0  0  0  0  0  0  0  0  0  0
    8.4800  -17.1192   23.0250 O   0  0  0  0  0  0  0  0  0  0  0  0
    6.3341  -14.4754   25.2022 C   0  0  0  0  0  0  0  0  0  0  0  0
    6.2013  -13.9480   26.4529 C   0  0  0  0  0  0  0  0  0  0  0  0
   15.0029  -20.2830   22.8278 N   0  0  0  0  0  0  0  0  0  0  0  0
   14.0739  -21.0109   23.5881 C   0  0  0  0  0  0  0  0  0  0  0  0
   14.1547  -22.2912   23.6026 N   0  0  0  0  0  0  0  0  0  0  0  0
   13.0358  -20.3996   24.3522 N   0  0  0  0  0  0  0  0  0  0  0  0
   12.8536  -18.9765   24.2861 C   0  0  0  0  0  0  0  0  0  0  0  0
   11.6858  -18.5611   25.1961 C   0  0  0  0  0  0  0  0  0  0  0  0
   10.9672  -17.4025   24.5929 C   0  0  0  0  0  0  0  0  0  0  0  0
    9.7215  -17.0108   25.4046 C   0  0  2  0  0  0  0  0  0  0  0  0
    9.2034  -15.8046   24.7608 N   0  0  0  0  0  0  0  0  0  0  0  0
   10.0736  -16.7211   26.8006 C   0  0  0  0  0  0  0  0  0  0  0  0
   10.1533  -15.5198   27.2277 O   0  0  0  0  0  0  0  0  0  0  0  0
   10.3335  -17.7171   27.7180 O   0  0  0  0  0  0  0  0  0  0  0  0
  2  1  1  0
  3  2  2  0
  4  2  1  0
  5  4  1  0
  6  8  1  0
  6  5  1  0
  6  7  1  6
  8  9  2  0
 10 11  1  0
 11 12  2  0
 11 21  1  0
 12 13  1  0
 13 14  2  0
 14 15  1  0
 16 15  1  1
 17 16  1  0
 17  8  1  0
 18 19  2  0
 18 16  1  0
 20 14  1  0
 21 20  2  0
 22 23  1  0
 23 25  1  0
 24 23  2  0
 25 26  1  0
 26 27  1  0
 28 27  1  0
 29 28  1  6
 29 30  1  0
 30 18  1  0
 31 33  1  0
 31 29  1  0
 32 31  2  0
M  END
$$$$
