QYR.pdb
     RDKit          3D

 33 33  0  0  1  0  0  0  0  0999 V2000
    9.0155  -12.9754   15.4013 N   0  0  0  0  0  0  0  0  0  0  0  0
    7.9705  -13.9173   15.3787 C   0  0  0  0  0  0  0  0  0  0  0  0
    7.5517  -14.3653   14.2899 O   0  0  0  0  0  0  0  0  0  0  0  0
    7.3688  -14.3764   16.6406 C   0  0  0  0  0  0  0  0  0  0  0  0
    8.1249  -13.7756   17.8071 C   0  0  0  0  0  0  0  0  0  0  0  0
    8.5028  -14.9275   18.7236 C   0  0  2  0  0  0  0  0  0  0  0  0
    7.5020  -15.9707   18.7226 N   0  0  0  0  0  0  0  0  0  0  0  0
    8.8138  -14.4590   20.0976 C   0  0  0  0  0  0  0  0  0  0  0  0
    9.7412  -13.6561   20.2936 O   0  0  0  0  0  0  0  0  0  0  0  0
    7.3886  -12.6595   28.6741 O   0  0  0  0  0  0  0  0  0  0  0  0
    7.2879  -13.0191   27.3401 C   0  0  0  0  0  0  0  0  0  0  0  0
    7.6387  -12.1230   26.3604 C   0  0  0  0  0  0  0  0  0  0  0  0
    7.5462  -12.4599   25.0306 C   0  0  0  0  0  0  0  0  0  0  0  0
    7.1081  -13.6850   24.6093 C   0  0  0  0  0  0  0  0  0  0  0  0
    7.0089  -14.0963   23.2025 C   0  0  0  0  0  0  0  0  0  0  0  0
    8.3248  -14.3730   22.5569 C   0  0  2  0  0  0  0  0  0  0  0  0
    8.0423  -14.9358   21.1896 N   0  0  0  0  0  0  0  0  0  0  0  0
    9.0401  -15.4639   23.2383 C   0  0  0  0  0  0  0  0  0  0  0  0
    8.5474  -16.6468   23.1213 O   0  0  0  0  0  0  0  0  0  0  0  0
    6.7476  -14.6055   25.6114 C   0  0  0  0  0  0  0  0  0  0  0  0
    6.8435  -14.2593   26.9272 C   0  0  0  0  0  0  0  0  0  0  0  0
   15.2591  -14.4830   20.9145 N   0  0  0  0  0  0  0  0  0  0  0  0
   14.3955  -15.2289   20.0967 C   0  0  0  0  0  0  0  0  0  0  0  0
   14.2914  -14.9133   18.8576 N   0  0  0  0  0  0  0  0  0  0  0  0
   13.6203  -16.3280   20.5723 N   0  0  0  0  0  0  0  0  0  0  0  0
   13.6069  -16.6285   21.9767 C   0  0  0  0  0  0  0  0  0  0  0  0
   12.1772  -16.4830   22.5238 C   0  0  0  0  0  0  0  0  0  0  0  0
   12.1764  -16.7220   23.9953 C   0  0  0  0  0  0  0  0  0  0  0  0
   10.7728  -16.5674   24.6036 C   0  0  2  0  0  0  0  0  0  0  0  0
   10.2229  -15.3521   24.0050 N   0  0  0  0  0  0  0  0  0  0  0  0
   10.8460  -16.4176   26.0627 C   0  0  0  0  0  0  0  0  0  0  0  0
   11.2038  -17.3892   26.8110 O   0  0  0  0  0  0  0  0  0  0  0  0
   10.5380  -15.2339   26.6994 O   0  0  0  0  0  0  0  0  0  0  0  0
  2  1  1  0
  3  2  2  0
  4  2  1  0
  5  4  1  0
  6  8  1  0
  6  5  1  0
  6  7  1  1
  8  9  2  0
 10 11  1  0
 11 12  2  0
 11 21  1  0
 12 13  1  0
 13 14  2  0
 14 15  1  0
 16 15  1  1
 17 16  1  0
 17  8  1  0
 18 19  2  0
 18 16  1  0
 20 14  1  0
 21 20  2  0
 22 23  1  0
 23 25  1  0
 24 23  2  0
 25 26  1  0
 26 27  1  0
 28 27  1  0
 29 28  1  6
 29 30  1  0
 30 18  1  0
 31 33  1  0
 31 29  1  0
 32 31  2  0
M  END
$$$$
