QYR.pdb
     RDKit          3D

 33 33  0  0  1  0  0  0  0  0999 V2000
    7.8177  -13.3452   16.2044 N   0  0  0  0  0  0  0  0  0  0  0  0
    7.9826  -14.7407   16.2777 C   0  0  0  0  0  0  0  0  0  0  0  0
    8.2994  -15.3906   15.2585 O   0  0  0  0  0  0  0  0  0  0  0  0
    7.7816  -15.4372   17.5583 C   0  0  0  0  0  0  0  0  0  0  0  0
    9.1176  -15.6193   18.2478 C   0  0  0  0  0  0  0  0  0  0  0  0
    8.8312  -16.2663   19.5929 C   0  0  2  0  0  0  0  0  0  0  0  0
    7.4129  -16.4047   19.8359 N   0  0  0  0  0  0  0  0  0  0  0  0
    9.5171  -15.5572   20.7023 C   0  0  0  0  0  0  0  0  0  0  0  0
   10.7354  -15.3227   20.6411 O   0  0  0  0  0  0  0  0  0  0  0  0
    5.7300  -12.7830   27.8619 O   0  0  0  0  0  0  0  0  0  0  0  0
    6.4716  -12.8606   26.6944 C   0  0  0  0  0  0  0  0  0  0  0  0
    7.7591  -12.3838   26.6675 C   0  0  0  0  0  0  0  0  0  0  0  0
    8.5123  -12.4512   25.5191 C   0  0  0  0  0  0  0  0  0  0  0  0
    8.0351  -12.9876   24.3551 C   0  0  0  0  0  0  0  0  0  0  0  0
    8.8068  -13.0971   23.1099 C   0  0  0  0  0  0  0  0  0  0  0  0
    9.4913  -14.4107   22.9338 C   0  0  2  0  0  0  0  0  0  0  0  0
    8.7695  -15.1474   21.8373 N   0  0  0  0  0  0  0  0  0  0  0  0
    9.3074  -15.2757   24.1102 C   0  0  0  0  0  0  0  0  0  0  0  0
    8.1451  -15.8043   24.2693 O   0  0  0  0  0  0  0  0  0  0  0  0
    6.7155  -13.4768   24.3798 C   0  0  0  0  0  0  0  0  0  0  0  0
    5.9784  -13.4040   25.5250 C   0  0  0  0  0  0  0  0  0  0  0  0
   12.4467  -20.2864   29.5698 N   0  0  0  0  0  0  0  0  0  0  0  0
   11.9555  -21.2964   28.7274 C   0  0  0  0  0  0  0  0  0  0  0  0
   12.3960  -22.4924   28.8742 N   0  0  0  0  0  0  0  0  0  0  0  0
   10.9849  -21.0637   27.7081 N   0  0  0  0  0  0  0  0  0  0  0  0
   11.2453  -20.0790   26.6955 C   0  0  0  0  0  0  0  0  0  0  0  0
   10.4820  -18.7849   27.0231 C   0  0  0  0  0  0  0  0  0  0  0  0
   10.7012  -17.7850   25.9393 C   0  0  0  0  0  0  0  0  0  0  0  0
    9.8939  -16.4971   26.1713 C   0  0  2  0  0  0  0  0  0  0  0  0
   10.2796  -15.5974   25.0853 N   0  0  0  0  0  0  0  0  0  0  0  0
   10.2310  -15.8917   27.4662 C   0  0  0  0  0  0  0  0  0  0  0  0
   11.0919  -14.9520   27.5538 O   0  0  0  0  0  0  0  0  0  0  0  0
    9.6433  -16.2975   28.6457 O   0  0  0  0  0  0  0  0  0  0  0  0
  2  1  1  0
  3  2  2  0
  4  2  1  0
  5  4  1  0
  6  8  1  0
  6  5  1  0
  6  7  1  1
  8  9  2  0
 10 11  1  0
 11 12  2  0
 11 21  1  0
 12 13  1  0
 13 14  2  0
 14 15  1  0
 16 15  1  1
 17 16  1  0
 17  8  1  0
 18 19  2  0
 18 16  1  0
 20 14  1  0
 21 20  2  0
 22 23  1  0
 23 25  1  0
 24 23  2  0
 25 26  1  0
 26 27  1  0
 28 27  1  0
 29 28  1  6
 29 30  1  0
 30 18  1  0
 31 33  1  0
 31 29  1  0
 32 31  2  0
M  END
$$$$
