QYR.pdb
     RDKit          3D

 33 33  0  0  1  0  0  0  0  0999 V2000
   11.2806  -16.6570   14.9899 N   0  0  0  0  0  0  0  0  0  0  0  0
   10.3075  -17.6679   15.0943 C   0  0  0  0  0  0  0  0  0  0  0  0
    9.8221  -18.1818   14.0639 O   0  0  0  0  0  0  0  0  0  0  0  0
    9.8600  -18.1216   16.4206 C   0  0  0  0  0  0  0  0  0  0  0  0
   10.6272  -17.3769   17.4931 C   0  0  0  0  0  0  0  0  0  0  0  0
   10.3806  -18.1139   18.7992 C   0  0  2  0  0  0  0  0  0  0  0  0
    9.1056  -18.7952   18.8039 N   0  0  0  0  0  0  0  0  0  0  0  0
   10.5355  -17.2195   19.9740 C   0  0  0  0  0  0  0  0  0  0  0  0
   11.5949  -16.5964   20.1550 O   0  0  0  0  0  0  0  0  0  0  0  0
    7.5979  -11.4848   18.2689 O   0  0  0  0  0  0  0  0  0  0  0  0
    7.8031  -12.4419   19.2492 C   0  0  0  0  0  0  0  0  0  0  0  0
    6.7303  -12.9802   19.9164 C   0  0  0  0  0  0  0  0  0  0  0  0
    6.9121  -13.9312   20.8926 C   0  0  0  0  0  0  0  0  0  0  0  0
    8.1487  -14.3915   21.2522 C   0  0  0  0  0  0  0  0  0  0  0  0
    8.3912  -15.4174   22.2754 C   0  0  0  0  0  0  0  0  0  0  0  0
    9.6589  -16.1794   22.0822 C   0  0  2  0  0  0  0  0  0  0  0  0
    9.4620  -17.0802   20.8923 N   0  0  0  0  0  0  0  0  0  0  0  0
    9.8969  -17.1183   23.1904 C   0  0  0  0  0  0  0  0  0  0  0  0
    9.2159  -18.2099   23.1863 O   0  0  0  0  0  0  0  0  0  0  0  0
    9.2501  -13.8411   20.5701 C   0  0  0  0  0  0  0  0  0  0  0  0
    9.0569  -12.8981   19.6038 C   0  0  0  0  0  0  0  0  0  0  0  0
   12.4270  -23.4838   21.8011 N   0  0  0  0  0  0  0  0  0  0  0  0
   13.7017  -22.8966   21.8378 C   0  0  0  0  0  0  0  0  0  0  0  0
   14.6939  -23.5416   21.3422 N   0  0  0  0  0  0  0  0  0  0  0  0
   13.9565  -21.6108   22.4008 N   0  0  0  0  0  0  0  0  0  0  0  0
   12.8761  -20.8703   22.9899 C   0  0  0  0  0  0  0  0  0  0  0  0
   13.4047  -19.5384   23.5477 C   0  0  0  0  0  0  0  0  0  0  0  0
   12.3956  -18.4644   23.3228 C   0  0  0  0  0  0  0  0  0  0  0  0
   11.6616  -18.0825   24.6188 C   0  0  2  0  0  0  0  0  0  0  0  0
   10.8061  -16.9522   24.2606 N   0  0  0  0  0  0  0  0  0  0  0  0
   12.6131  -17.6790   25.6622 C   0  0  0  0  0  0  0  0  0  0  0  0
   13.3954  -16.6829   25.4955 O   0  0  0  0  0  0  0  0  0  0  0  0
   12.7134  -18.3434   26.8662 O   0  0  0  0  0  0  0  0  0  0  0  0
  2  1  1  0
  3  2  2  0
  4  2  1  0
  5  4  1  0
  6  8  1  0
  6  5  1  0
  6  7  1  6
  8  9  2  0
 10 11  1  0
 11 12  2  0
 11 21  1  0
 12 13  1  0
 13 14  2  0
 14 15  1  0
 16 15  1  1
 17 16  1  0
 17  8  1  0
 18 19  2  0
 18 16  1  0
 20 14  1  0
 21 20  2  0
 22 23  1  0
 23 25  1  0
 24 23  2  0
 25 26  1  0
 26 27  1  0
 28 27  1  0
 29 28  1  6
 29 30  1  0
 30 18  1  0
 31 33  1  0
 31 29  1  0
 32 31  2  0
M  END
$$$$
