QYR.pdb
     RDKit          3D

 33 33  0  0  1  0  0  0  0  0999 V2000
   11.1154  -16.7545   16.4061 N   0  0  0  0  0  0  0  0  0  0  0  0
    9.9241  -17.4048   16.7775 C   0  0  0  0  0  0  0  0  0  0  0  0
    8.9576  -17.4457   15.9866 O   0  0  0  0  0  0  0  0  0  0  0  0
    9.8160  -18.0387   18.1010 C   0  0  0  0  0  0  0  0  0  0  0  0
   10.7184  -17.3176   19.0802 C   0  0  0  0  0  0  0  0  0  0  0  0
   10.7067  -18.1289   20.3654 C   0  0  2  0  0  0  0  0  0  0  0  0
    9.6792  -19.1457   20.3541 N   0  0  0  0  0  0  0  0  0  0  0  0
   10.6127  -17.2592   21.5649 C   0  0  0  0  0  0  0  0  0  0  0  0
   11.5499  -16.5022   21.8680 O   0  0  0  0  0  0  0  0  0  0  0  0
    7.5707  -12.1078   19.0817 O   0  0  0  0  0  0  0  0  0  0  0  0
    7.6875  -12.9839   20.1485 C   0  0  0  0  0  0  0  0  0  0  0  0
    8.5086  -12.6724   21.2042 C   0  0  0  0  0  0  0  0  0  0  0  0
    8.6387  -13.5279   22.2727 C   0  0  0  0  0  0  0  0  0  0  0  0
    7.9709  -14.7190   22.3489 C   0  0  0  0  0  0  0  0  0  0  0  0
    8.0644  -15.6564   23.4761 C   0  0  0  0  0  0  0  0  0  0  0  0
    9.3660  -16.3805   23.5568 C   0  0  2  0  0  0  0  0  0  0  0  0
    9.4416  -17.2982   22.3660 N   0  0  0  0  0  0  0  0  0  0  0  0
    9.3998  -17.3009   24.7048 C   0  0  0  0  0  0  0  0  0  0  0  0
    8.5073  -18.2272   24.7360 O   0  0  0  0  0  0  0  0  0  0  0  0
    7.1288  -15.0409   21.2678 C   0  0  0  0  0  0  0  0  0  0  0  0
    7.0083  -14.1841   20.2135 C   0  0  0  0  0  0  0  0  0  0  0  0
   14.5244  -20.9056   32.1258 N   0  0  0  0  0  0  0  0  0  0  0  0
   14.3942  -20.5922   30.7635 C   0  0  0  0  0  0  0  0  0  0  0  0
   15.4271  -20.6798   30.0076 N   0  0  0  0  0  0  0  0  0  0  0  0
   13.1656  -20.1779   30.1685 N   0  0  0  0  0  0  0  0  0  0  0  0
   13.1196  -19.9041   28.7593 C   0  0  0  0  0  0  0  0  0  0  0  0
   11.6641  -19.6622   28.3261 C   0  0  0  0  0  0  0  0  0  0  0  0
   11.6261  -18.6342   27.2471 C   0  0  0  0  0  0  0  0  0  0  0  0
   10.1876  -18.3039   26.8160 C   0  0  2  0  0  0  0  0  0  0  0  0
   10.3191  -17.2817   25.7790 N   0  0  0  0  0  0  0  0  0  0  0  0
    9.4094  -17.7754   27.9438 C   0  0  0  0  0  0  0  0  0  0  0  0
    9.4026  -16.5273   28.2165 O   0  0  0  0  0  0  0  0  0  0  0  0
    8.6503  -18.5862   28.7610 O   0  0  0  0  0  0  0  0  0  0  0  0
  2  1  1  0
  3  2  2  0
  4  2  1  0
  5  4  1  0
  6  8  1  0
  6  5  1  0
  6  7  1  6
  8  9  2  0
 10 11  1  0
 11 12  2  0
 11 21  1  0
 12 13  1  0
 13 14  2  0
 14 15  1  0
 16 15  1  6
 17 16  1  0
 17  8  1  0
 18 19  2  0
 18 16  1  0
 20 14  1  0
 21 20  2  0
 22 23  1  0
 23 25  1  0
 24 23  2  0
 25 26  1  0
 26 27  1  0
 28 27  1  0
 29 28  1  1
 29 30  1  0
 30 18  1  0
 31 33  1  0
 31 29  1  0
 32 31  2  0
M  END
$$$$
