QYR.pdb
     RDKit          3D

 33 33  0  0  1  0  0  0  0  0999 V2000
    8.8589  -21.0590   19.6095 N   0  0  0  0  0  0  0  0  0  0  0  0
    9.3222  -20.5753   18.3720 C   0  0  0  0  0  0  0  0  0  0  0  0
    9.3210  -21.3177   17.3668 O   0  0  0  0  0  0  0  0  0  0  0  0
    9.8094  -19.1913   18.2608 C   0  0  0  0  0  0  0  0  0  0  0  0
    9.6410  -18.4895   19.5922 C   0  0  0  0  0  0  0  0  0  0  0  0
    9.2962  -17.0419   19.2833 C   0  0  2  0  0  0  0  0  0  0  0  0
   10.0491  -16.5343   18.1585 N   0  0  0  0  0  0  0  0  0  0  0  0
    9.4358  -16.1750   20.4804 C   0  0  0  0  0  0  0  0  0  0  0  0
   10.5613  -15.8559   20.8981 O   0  0  0  0  0  0  0  0  0  0  0  0
    6.9539  -11.5612   27.6885 O   0  0  0  0  0  0  0  0  0  0  0  0
    7.0028  -12.2208   26.4713 C   0  0  0  0  0  0  0  0  0  0  0  0
    6.5577  -13.5164   26.3757 C   0  0  0  0  0  0  0  0  0  0  0  0
    6.5974  -14.1891   25.1772 C   0  0  0  0  0  0  0  0  0  0  0  0
    7.0730  -13.6202   24.0280 C   0  0  0  0  0  0  0  0  0  0  0  0
    7.1192  -14.2921   22.7225 C   0  0  0  0  0  0  0  0  0  0  0  0
    8.4488  -14.8804   22.3894 C   0  0  2  0  0  0  0  0  0  0  0  0
    8.2714  -15.7113   21.1469 N   0  0  0  0  0  0  0  0  0  0  0  0
    8.8730  -15.8603   23.4024 C   0  0  0  0  0  0  0  0  0  0  0  0
    8.3312  -17.0261   23.3489 O   0  0  0  0  0  0  0  0  0  0  0  0
    7.5302  -12.2923   24.1233 C   0  0  0  0  0  0  0  0  0  0  0  0
    7.4858  -11.6357   25.3179 C   0  0  0  0  0  0  0  0  0  0  0  0
   15.8714  -20.1329   24.4043 N   0  0  0  0  0  0  0  0  0  0  0  0
   14.8110  -20.8427   24.9898 C   0  0  0  0  0  0  0  0  0  0  0  0
   14.9045  -22.1179   25.0955 N   0  0  0  0  0  0  0  0  0  0  0  0
   13.6248  -20.2184   25.4779 N   0  0  0  0  0  0  0  0  0  0  0  0
   13.4256  -18.8125   25.2617 C   0  0  0  0  0  0  0  0  0  0  0  0
   12.0038  -18.4183   25.6950 C   0  0  0  0  0  0  0  0  0  0  0  0
   11.5311  -17.2659   24.8759 C   0  0  0  0  0  0  0  0  0  0  0  0
   10.1363  -16.7848   25.3086 C   0  0  2  0  0  0  0  0  0  0  0  0
    9.8247  -15.6593   24.4288 N   0  0  0  0  0  0  0  0  0  0  0  0
   10.1450  -16.3387   26.7077 C   0  0  0  0  0  0  0  0  0  0  0  0
   10.0726  -15.0991   27.0080 O   0  0  0  0  0  0  0  0  0  0  0  0
   10.2292  -17.2219   27.7633 O   0  0  0  0  0  0  0  0  0  0  0  0
  2  1  1  0
  3  2  2  0
  4  2  1  0
  5  4  1  0
  6  8  1  0
  6  5  1  0
  6  7  1  6
  8  9  2  0
 10 11  1  0
 11 12  2  0
 11 21  1  0
 12 13  1  0
 13 14  2  0
 14 15  1  0
 16 15  1  1
 17 16  1  0
 17  8  1  0
 18 19  2  0
 18 16  1  0
 20 14  1  0
 21 20  2  0
 22 23  1  0
 23 25  1  0
 24 23  2  0
 25 26  1  0
 26 27  1  0
 28 27  1  0
 29 28  1  6
 29 30  1  0
 30 18  1  0
 31 33  1  0
 31 29  1  0
 32 31  2  0
M  END
$$$$
