QYR.pdb
     RDKit          3D

 33 33  0  0  1  0  0  0  0  0999 V2000
   11.4145  -18.2979   15.8749 N   0  0  0  0  0  0  0  0  0  0  0  0
   12.0783  -17.6935   16.9584 C   0  0  0  0  0  0  0  0  0  0  0  0
   12.9731  -16.8457   16.7536 O   0  0  0  0  0  0  0  0  0  0  0  0
   11.7178  -18.0607   18.3370 C   0  0  0  0  0  0  0  0  0  0  0  0
   10.8930  -16.9509   18.9546 C   0  0  0  0  0  0  0  0  0  0  0  0
   10.5308  -17.4046   20.3592 C   0  0  2  0  0  0  0  0  0  0  0  0
    9.4356  -18.3483   20.3576 N   0  0  0  0  0  0  0  0  0  0  0  0
   10.2692  -16.2535   21.2596 C   0  0  0  0  0  0  0  0  0  0  0  0
   11.1367  -15.3815   21.4340 O   0  0  0  0  0  0  0  0  0  0  0  0
    5.9582  -11.4526   27.4082 O   0  0  0  0  0  0  0  0  0  0  0  0
    6.2940  -12.2823   26.3510 C   0  0  0  0  0  0  0  0  0  0  0  0
    6.9692  -11.7739   25.2686 C   0  0  0  0  0  0  0  0  0  0  0  0
    7.3119  -12.5803   24.2090 C   0  0  0  0  0  0  0  0  0  0  0  0
    7.0080  -13.9131   24.1684 C   0  0  0  0  0  0  0  0  0  0  0  0
    7.3680  -14.8170   23.0677 C   0  0  0  0  0  0  0  0  0  0  0  0
    8.8344  -15.0539   22.9319 C   0  0  2  0  0  0  0  0  0  0  0  0
    9.0176  -16.1550   21.9220 N   0  0  0  0  0  0  0  0  0  0  0  0
    9.4051  -15.6183   24.1656 C   0  0  0  0  0  0  0  0  0  0  0  0
    9.3501  -14.8857   25.2219 O   0  0  0  0  0  0  0  0  0  0  0  0
    6.3157  -14.4368   25.2765 C   0  0  0  0  0  0  0  0  0  0  0  0
    5.9810  -13.6266   26.3214 C   0  0  0  0  0  0  0  0  0  0  0  0
    6.5492  -21.3693   23.8700 N   0  0  0  0  0  0  0  0  0  0  0  0
    6.0773  -20.3434   24.7042 C   0  0  0  0  0  0  0  0  0  0  0  0
    4.9216  -19.8382   24.4695 N   0  0  0  0  0  0  0  0  0  0  0  0
    6.8190  -19.8273   25.8081 N   0  0  0  0  0  0  0  0  0  0  0  0
    8.1322  -20.3414   26.0798 C   0  0  0  0  0  0  0  0  0  0  0  0
    9.1883  -19.4396   25.4193 C   0  0  0  0  0  0  0  0  0  0  0  0
    9.3417  -18.1849   26.2097 C   0  0  0  0  0  0  0  0  0  0  0  0
   10.4554  -17.2841   25.6508 C   0  0  2  0  0  0  0  0  0  0  0  0
   10.0028  -16.8908   24.3173 N   0  0  0  0  0  0  0  0  0  0  0  0
   11.7243  -18.0170   25.5526 C   0  0  0  0  0  0  0  0  0  0  0  0
   12.3242  -18.4449   26.5961 O   0  0  0  0  0  0  0  0  0  0  0  0
   12.3314  -18.2825   24.3434 O   0  0  0  0  0  0  0  0  0  0  0  0
  2  1  1  0
  3  2  2  0
  4  2  1  0
  5  4  1  0
  6  8  1  0
  6  5  1  0
  6  7  1  6
  8  9  2  0
 10 11  1  0
 11 12  2  0
 11 21  1  0
 12 13  1  0
 13 14  2  0
 14 15  1  0
 16 15  1  1
 17 16  1  0
 17  8  1  0
 18 19  2  0
 18 16  1  0
 20 14  1  0
 21 20  2  0
 22 23  1  0
 23 25  1  0
 24 23  2  0
 25 26  1  0
 26 27  1  0
 28 27  1  0
 29 28  1  6
 29 30  1  0
 30 18  1  0
 31 33  1  0
 31 29  1  0
 32 31  2  0
M  END
$$$$
