YHY.pdb
     RDKit          3D

 35 37  0  0  1  0  0  0  0  0999 V2000
    7.9245  -13.3205   15.7817 O   0  0  0  0  0  0  0  0  0  0  0  0
    7.8448  -13.6057   17.1339 C   0  0  0  0  0  0  0  0  0  0  0  0
    8.8150  -14.3294   17.7939 C   0  0  0  0  0  0  0  0  0  0  0  0
    8.7185  -14.6072   19.1510 C   0  0  0  0  0  0  0  0  0  0  0  0
    7.6484  -14.1721   19.9030 C   0  0  0  0  0  0  0  0  0  0  0  0
    7.5019  -14.4593   21.3546 C   0  0  0  0  0  0  0  0  0  0  0  0
    8.7398  -15.1859   21.8657 C   0  0  2  0  0  0  0  0  0  0  0  0
    9.0054  -16.2297   20.8604 N   0  0  0  0  0  0  0  0  0  0  0  0
    8.3581  -15.8561   23.1376 C   0  0  0  0  0  0  0  0  0  0  0  0
    7.8757  -15.1644   24.1038 O   0  0  0  0  0  0  0  0  0  0  0  0
    6.6669  -13.4412   19.2398 C   0  0  0  0  0  0  0  0  0  0  0  0
    6.7681  -13.1685   17.8901 C   0  0  0  0  0  0  0  0  0  0  0  0
    8.4843  -17.2447   23.3859 N   0  0  0  0  0  0  0  0  0  0  0  0
    8.1490  -17.8038   24.7033 C   0  0  1  0  0  0  0  0  0  0  0  0
    8.0989  -19.3144   24.6224 C   0  0  0  0  0  0  0  0  0  0  0  0
    7.6797  -19.8563   25.9327 C   0  0  0  0  0  0  0  0  0  0  0  0
    7.0642  -19.1557   26.9456 C   0  0  0  0  0  0  0  0  0  0  0  0
    6.8646  -19.9948   27.9767 N   0  0  0  0  0  0  0  0  0  0  0  0
    7.3419  -21.2046   27.6335 C   0  0  0  0  0  0  0  0  0  0  0  0
    7.8402  -21.1319   26.3906 N   0  0  0  0  0  0  0  0  0  0  0  0
    9.0246  -17.2727   25.7496 C   0  0  0  0  0  0  0  0  0  0  0  0
   10.2668  -17.1853   25.5829 O   0  0  0  0  0  0  0  0  0  0  0  0
    6.5390  -11.4198   24.7188 O   0  0  0  0  0  0  0  0  0  0  0  0
    7.1065  -12.2784   25.6580 C   0  0  0  0  0  0  0  0  0  0  0  0
    6.3584  -13.2808   26.2305 C   0  0  0  0  0  0  0  0  0  0  0  0
    6.8872  -14.1434   27.1574 C   0  0  0  0  0  0  0  0  0  0  0  0
    8.1997  -14.0229   27.5416 C   0  0  0  0  0  0  0  0  0  0  0  0
    8.7552  -14.9254   28.5343 C   0  0  0  0  0  0  0  0  0  0  0  0
    9.4466  -16.1594   27.9584 C   0  0  2  0  0  0  0  0  0  0  0  0
    8.5361  -16.8234   27.0144 N   0  0  0  0  0  0  0  0  0  0  0  0
    9.7658  -17.1146   29.0371 C   0  0  0  0  0  0  0  0  0  0  0  0
   10.5617  -16.7730   29.9383 O   0  0  0  0  0  0  0  0  0  0  0  0
    8.9690  -13.0300   26.9855 C   0  0  0  0  0  0  0  0  0  0  0  0
    8.4209  -12.1723   26.0555 C   0  0  0  0  0  0  0  0  0  0  0  0
    9.2102  -18.4032   29.0966 O   0  0  0  0  0  0  0  0  0  0  0  0
  1  2  1  0
  2  3  2  0
  3  4  1  0
  5  6  1  0
  5  4  2  0
  6  7  1  0
  7  8  1  6
  9 13  1  0
  9  7  1  0
 10  9  2  0
 11  5  1  0
 12 11  2  0
 12  2  1  0
 14 13  1  0
 14 21  1  0
 14 15  1  6
 16 17  2  0
 16 15  1  0
 18 17  1  0
 19 20  2  0
 19 18  1  0
 20 16  1  0
 21 22  2  0
 23 24  1  0
 24 25  2  0
 24 34  1  0
 25 26  1  0
 26 27  2  0
 27 28  1  0
 29 31  1  0
 29 28  1  1
 30 21  1  0
 30 29  1  0
 31 35  1  0
 32 31  2  0
 33 27  1  0
 34 33  2  0
M  END
$$$$
