YHY.pdb
     RDKit          3D

 35 37  0  0  1  0  0  0  0  0999 V2000
   20.4205   -9.8943   16.9868 O   0  0  0  0  0  0  0  0  0  0  0  0
   19.4021  -10.8107   17.1845 C   0  0  0  0  0  0  0  0  0  0  0  0
   19.6345  -12.1677   17.2589 C   0  0  0  0  0  0  0  0  0  0  0  0
   18.6005  -13.0731   17.4568 C   0  0  0  0  0  0  0  0  0  0  0  0
   17.2926  -12.6585   17.5888 C   0  0  0  0  0  0  0  0  0  0  0  0
   16.1564  -13.5966   17.7890 C   0  0  0  0  0  0  0  0  0  0  0  0
   15.8895  -14.3676   16.5022 C   0  0  2  0  0  0  0  0  0  0  0  0
   15.0536  -13.4665   15.6899 N   0  0  0  0  0  0  0  0  0  0  0  0
   15.0699  -15.5542   16.8668 C   0  0  0  0  0  0  0  0  0  0  0  0
   13.8038  -15.4300   17.0292 O   0  0  0  0  0  0  0  0  0  0  0  0
   17.0543  -11.2892   17.5140 C   0  0  0  0  0  0  0  0  0  0  0  0
   18.0865  -10.3936   17.3166 C   0  0  0  0  0  0  0  0  0  0  0  0
   15.5834  -16.8603   17.0574 N   0  0  0  0  0  0  0  0  0  0  0  0
   14.6840  -17.9817   17.3641 C   0  0  1  0  0  0  0  0  0  0  0  0
   14.8781  -19.0879   16.3494 C   0  0  0  0  0  0  0  0  0  0  0  0
   13.8953  -20.1617   16.6090 C   0  0  0  0  0  0  0  0  0  0  0  0
   12.7829  -20.0713   17.4154 C   0  0  0  0  0  0  0  0  0  0  0  0
   12.1589  -21.2620   17.4065 N   0  0  0  0  0  0  0  0  0  0  0  0
   12.8554  -22.0963   16.6141 C   0  0  0  0  0  0  0  0  0  0  0  0
   13.9145  -21.4368   16.1229 N   0  0  0  0  0  0  0  0  0  0  0  0
   14.8069  -18.4006   18.7615 C   0  0  0  0  0  0  0  0  0  0  0  0
   15.9212  -18.4326   19.3407 O   0  0  0  0  0  0  0  0  0  0  0  0
   12.8357  -21.7474   26.7538 O   0  0  0  0  0  0  0  0  0  0  0  0
   12.7632  -21.2021   25.4737 C   0  0  0  0  0  0  0  0  0  0  0  0
   12.4737  -21.9985   24.3901 C   0  0  0  0  0  0  0  0  0  0  0  0
   12.3940  -21.4928   23.1171 C   0  0  0  0  0  0  0  0  0  0  0  0
   12.6057  -20.1551   22.8920 C   0  0  0  0  0  0  0  0  0  0  0  0
   12.5373  -19.6224   21.5428 C   0  0  0  0  0  0  0  0  0  0  0  0
   13.8853  -19.2256   20.9447 C   0  0  2  0  0  0  0  0  0  0  0  0
   13.6857  -18.7965   19.5530 N   0  0  0  0  0  0  0  0  0  0  0  0
   14.8016  -20.3825   20.9415 C   0  0  0  0  0  0  0  0  0  0  0  0
   15.8341  -20.3448   21.6449 O   0  0  0  0  0  0  0  0  0  0  0  0
   12.8969  -19.3374   23.9567 C   0  0  0  0  0  0  0  0  0  0  0  0
   12.9728  -19.8630   25.2291 C   0  0  0  0  0  0  0  0  0  0  0  0
   14.5631  -21.5352   20.1752 O   0  0  0  0  0  0  0  0  0  0  0  0
  1  2  1  0
  2  3  2  0
  3  4  1  0
  5  6  1  0
  5  4  2  0
  6  7  1  0
  7  8  1  6
  9 13  1  0
  9  7  1  0
 10  9  2  0
 11  5  1  0
 12 11  2  0
 12  2  1  0
 14 13  1  0
 14 21  1  0
 14 15  1  6
 16 17  2  0
 16 15  1  0
 18 17  1  0
 19 20  2  0
 19 18  1  0
 20 16  1  0
 21 22  2  0
 23 24  1  0
 24 25  2  0
 24 34  1  0
 25 26  1  0
 26 27  2  0
 27 28  1  0
 29 31  1  0
 29 28  1  6
 30 21  1  0
 30 29  1  0
 31 35  1  0
 32 31  2  0
 33 27  1  0
 34 33  2  0
M  END
$$$$
