YHY.pdb
     RDKit          3D

 35 37  0  0  1  0  0  0  0  0999 V2000
    6.7972  -11.7378   16.3275 O   0  0  0  0  0  0  0  0  0  0  0  0
    7.1777  -12.6267   17.3180 C   0  0  0  0  0  0  0  0  0  0  0  0
    6.2848  -13.1318   18.2391 C   0  0  0  0  0  0  0  0  0  0  0  0
    6.6840  -14.0223   19.2269 C   0  0  0  0  0  0  0  0  0  0  0  0
    7.9919  -14.4442   19.3332 C   0  0  0  0  0  0  0  0  0  0  0  0
    8.4616  -15.3861   20.3837 C   0  0  0  0  0  0  0  0  0  0  0  0
    8.8295  -16.7232   19.7524 C   0  0  2  0  0  0  0  0  0  0  0  0
    7.5502  -17.2815   19.2810 N   0  0  0  0  0  0  0  0  0  0  0  0
    9.3396  -17.5952   20.8442 C   0  0  0  0  0  0  0  0  0  0  0  0
    8.5524  -17.9641   21.7870 O   0  0  0  0  0  0  0  0  0  0  0  0
    8.8961  -13.9362   18.4050 C   0  0  0  0  0  0  0  0  0  0  0  0
    8.4934  -13.0506   17.4253 C   0  0  0  0  0  0  0  0  0  0  0  0
   10.6693  -18.0736   20.9384 N   0  0  0  0  0  0  0  0  0  0  0  0
   11.1042  -18.8530   22.1062 C   0  0  1  0  0  0  0  0  0  0  0  0
   12.2576  -19.7544   21.7215 C   0  0  0  0  0  0  0  0  0  0  0  0
   12.7013  -20.5092   22.9130 C   0  0  0  0  0  0  0  0  0  0  0  0
   11.9571  -21.4258   23.6213 C   0  0  0  0  0  0  0  0  0  0  0  0
   12.7052  -21.8751   24.6438 N   0  0  0  0  0  0  0  0  0  0  0  0
   13.9004  -21.2603   24.5930 C   0  0  0  0  0  0  0  0  0  0  0  0
   13.9093  -20.4266   23.5427 N   0  0  0  0  0  0  0  0  0  0  0  0
   11.3569  -17.9907   23.2622 C   0  0  0  0  0  0  0  0  0  0  0  0
   12.1164  -16.9933   23.1823 O   0  0  0  0  0  0  0  0  0  0  0  0
   10.7321  -14.2748   31.2854 O   0  0  0  0  0  0  0  0  0  0  0  0
   10.5182  -14.8809   30.0491 C   0  0  0  0  0  0  0  0  0  0  0  0
   10.3625  -16.2445   29.9567 C   0  0  0  0  0  0  0  0  0  0  0  0
   10.1496  -16.8719   28.7552 C   0  0  0  0  0  0  0  0  0  0  0  0
   10.0864  -16.1389   27.5961 C   0  0  0  0  0  0  0  0  0  0  0  0
    9.8772  -16.8043   26.3224 C   0  0  0  0  0  0  0  0  0  0  0  0
   11.1428  -17.3737   25.6849 C   0  0  2  0  0  0  0  0  0  0  0  0
   10.7667  -18.2191   24.5427 N   0  0  0  0  0  0  0  0  0  0  0  0
   11.8699  -18.2126   26.6572 C   0  0  0  0  0  0  0  0  0  0  0  0
   11.4807  -19.3822   26.8648 O   0  0  0  0  0  0  0  0  0  0  0  0
   10.2391  -14.7752   27.6601 C   0  0  0  0  0  0  0  0  0  0  0  0
   10.4522  -14.1616   28.8763 C   0  0  0  0  0  0  0  0  0  0  0  0
   12.9903  -17.7509   27.3673 O   0  0  0  0  0  0  0  0  0  0  0  0
  1  2  1  0
  2  3  2  0
  3  4  1  0
  5  6  1  0
  5  4  2  0
  6  7  1  0
  7  8  1  1
  9 13  1  0
  9  7  1  0
 10  9  2  0
 11  5  1  0
 12 11  2  0
 12  2  1  0
 14 13  1  0
 14 21  1  0
 14 15  1  6
 16 17  2  0
 16 15  1  0
 18 17  1  0
 19 20  2  0
 19 18  1  0
 20 16  1  0
 21 22  2  0
 23 24  1  0
 24 25  2  0
 24 34  1  0
 25 26  1  0
 26 27  2  0
 27 28  1  0
 29 31  1  0
 29 28  1  1
 30 21  1  0
 30 29  1  0
 31 35  1  0
 32 31  2  0
 33 27  1  0
 34 33  2  0
M  END
$$$$
