YHY.pdb
     RDKit          3D

 35 37  0  0  1  0  0  0  0  0999 V2000
    6.3139  -10.4159   27.0032 O   0  0  0  0  0  0  0  0  0  0  0  0
    6.4361  -11.5209   26.1787 C   0  0  0  0  0  0  0  0  0  0  0  0
    5.8676  -12.7385   26.4872 C   0  0  0  0  0  0  0  0  0  0  0  0
    6.0011  -13.8372   25.6486 C   0  0  0  0  0  0  0  0  0  0  0  0
    6.7077  -13.7628   24.4676 C   0  0  0  0  0  0  0  0  0  0  0  0
    6.8843  -14.9189   23.5492 C   0  0  0  0  0  0  0  0  0  0  0  0
    7.8698  -15.9124   24.1520 C   0  0  2  0  0  0  0  0  0  0  0  0
    8.8859  -15.0782   24.8170 N   0  0  0  0  0  0  0  0  0  0  0  0
    8.5233  -16.6205   23.0187 C   0  0  0  0  0  0  0  0  0  0  0  0
    8.1274  -17.7940   22.6858 O   0  0  0  0  0  0  0  0  0  0  0  0
    7.2831  -12.5350   24.1529 C   0  0  0  0  0  0  0  0  0  0  0  0
    7.1474  -11.4462   24.9909 C   0  0  0  0  0  0  0  0  0  0  0  0
    9.5849  -16.0929   22.2438 N   0  0  0  0  0  0  0  0  0  0  0  0
   10.6481  -16.9703   21.7337 C   0  0  1  0  0  0  0  0  0  0  0  0
   11.0344  -16.5477   20.3325 C   0  0  0  0  0  0  0  0  0  0  0  0
   12.0420  -17.4910   19.8022 C   0  0  0  0  0  0  0  0  0  0  0  0
   12.1116  -18.8411   20.0630 C   0  0  0  0  0  0  0  0  0  0  0  0
   13.1769  -19.3409   19.4129 N   0  0  0  0  0  0  0  0  0  0  0  0
   13.7766  -18.3347   18.7517 C   0  0  0  0  0  0  0  0  0  0  0  0
   13.0937  -17.2037   18.9813 N   0  0  0  0  0  0  0  0  0  0  0  0
   11.7638  -17.0647   22.6770 C   0  0  0  0  0  0  0  0  0  0  0  0
   12.7241  -16.2557   22.6396 O   0  0  0  0  0  0  0  0  0  0  0  0
   11.0356  -15.2685   30.9722 O   0  0  0  0  0  0  0  0  0  0  0  0
   11.0028  -15.6592   29.6351 C   0  0  0  0  0  0  0  0  0  0  0  0
   11.3829  -14.7862   28.6423 C   0  0  0  0  0  0  0  0  0  0  0  0
   11.3630  -15.1399   27.3167 C   0  0  0  0  0  0  0  0  0  0  0  0
   10.9552  -16.3970   26.9444 C   0  0  0  0  0  0  0  0  0  0  0  0
   10.9188  -16.7663   25.5406 C   0  0  0  0  0  0  0  0  0  0  0  0
   12.0573  -17.6801   25.0918 C   0  0  2  0  0  0  0  0  0  0  0  0
   11.8380  -18.0680   23.6910 N   0  0  0  0  0  0  0  0  0  0  0  0
   12.0778  -18.9079   25.9103 C   0  0  0  0  0  0  0  0  0  0  0  0
   11.3209  -19.8554   25.6075 O   0  0  0  0  0  0  0  0  0  0  0  0
   10.5700  -17.2883   27.9161 C   0  0  0  0  0  0  0  0  0  0  0  0
   10.5965  -16.9155   29.2433 C   0  0  0  0  0  0  0  0  0  0  0  0
   12.9177  -19.0606   27.0256 O   0  0  0  0  0  0  0  0  0  0  0  0
  1  2  1  0
  2  3  2  0
  3  4  1  0
  5  6  1  0
  5  4  2  0
  6  7  1  0
  7  8  1  6
  9 13  1  0
  9  7  1  0
 10  9  2  0
 11  5  1  0
 12 11  2  0
 12  2  1  0
 14 13  1  0
 14 21  1  0
 14 15  1  6
 16 17  2  0
 16 15  1  0
 18 17  1  0
 19 20  2  0
 19 18  1  0
 20 16  1  0
 21 22  2  0
 23 24  1  0
 24 25  2  0
 24 34  1  0
 25 26  1  0
 26 27  2  0
 27 28  1  0
 29 31  1  0
 29 28  1  1
 30 21  1  0
 30 29  1  0
 31 35  1  0
 32 31  2  0
 33 27  1  0
 34 33  2  0
M  END
$$$$
