YHY.pdb
     RDKit          3D

 35 37  0  0  1  0  0  0  0  0999 V2000
    6.2418  -13.3060   17.2361 O   0  0  0  0  0  0  0  0  0  0  0  0
    7.2072  -13.6427   18.1692 C   0  0  0  0  0  0  0  0  0  0  0  0
    7.9776  -12.6951   18.8089 C   0  0  0  0  0  0  0  0  0  0  0  0
    8.9425  -13.0509   19.7419 C   0  0  0  0  0  0  0  0  0  0  0  0
    9.1756  -14.3683   20.0735 C   0  0  0  0  0  0  0  0  0  0  0  0
   10.2074  -14.7909   21.0573 C   0  0  0  0  0  0  0  0  0  0  0  0
   10.2368  -16.3112   21.1551 C   0  0  2  0  0  0  0  0  0  0  0  0
    9.7967  -16.7821   19.8303 N   0  0  0  0  0  0  0  0  0  0  0  0
    9.2044  -16.7041   22.1513 C   0  0  0  0  0  0  0  0  0  0  0  0
    8.0878  -17.1941   21.7541 O   0  0  0  0  0  0  0  0  0  0  0  0
    8.3996  -15.3277   19.4295 C   0  0  0  0  0  0  0  0  0  0  0  0
    7.4420  -14.9679   18.5022 C   0  0  0  0  0  0  0  0  0  0  0  0
    9.3510  -16.5811   23.5546 N   0  0  0  0  0  0  0  0  0  0  0  0
    8.5395  -17.3990   24.4673 C   0  0  1  0  0  0  0  0  0  0  0  0
    8.6992  -18.8643   24.1231 C   0  0  0  0  0  0  0  0  0  0  0  0
    7.8022  -19.6649   24.9838 C   0  0  0  0  0  0  0  0  0  0  0  0
    7.2573  -19.2692   26.1847 C   0  0  0  0  0  0  0  0  0  0  0  0
    6.5171  -20.2832   26.6654 N   0  0  0  0  0  0  0  0  0  0  0  0
    6.5867  -21.3052   25.7938 C   0  0  0  0  0  0  0  0  0  0  0  0
    7.3663  -20.9396   24.7658 N   0  0  0  0  0  0  0  0  0  0  0  0
    8.8054  -17.0637   25.8674 C   0  0  0  0  0  0  0  0  0  0  0  0
    8.2342  -17.6714   26.8069 O   0  0  0  0  0  0  0  0  0  0  0  0
    6.1658  -10.9601   25.5045 O   0  0  0  0  0  0  0  0  0  0  0  0
    6.7322  -12.0330   26.1898 C   0  0  0  0  0  0  0  0  0  0  0  0
    8.0946  -12.1107   26.3634 C   0  0  0  0  0  0  0  0  0  0  0  0
    8.6835  -13.1530   27.0338 C   0  0  0  0  0  0  0  0  0  0  0  0
    7.9115  -14.1610   27.5561 C   0  0  0  0  0  0  0  0  0  0  0  0
    8.5357  -15.2724   28.2517 C   0  0  0  0  0  0  0  0  0  0  0  0
    9.8843  -15.7056   27.6807 C   0  0  2  0  0  0  0  0  0  0  0  0
    9.7192  -16.0378   26.2582 N   0  0  0  0  0  0  0  0  0  0  0  0
   10.3702  -16.9108   28.3801 C   0  0  0  0  0  0  0  0  0  0  0  0
   10.6493  -16.8393   29.5964 O   0  0  0  0  0  0  0  0  0  0  0  0
    6.5482  -14.1081   27.3966 C   0  0  0  0  0  0  0  0  0  0  0  0
    5.9736  -13.0530   26.7200 C   0  0  0  0  0  0  0  0  0  0  0  0
   10.5353  -18.1468   27.7336 O   0  0  0  0  0  0  0  0  0  0  0  0
  1  2  1  0
  2  3  2  0
  3  4  1  0
  5  6  1  0
  5  4  2  0
  6  7  1  0
  7  8  1  6
  9 13  1  0
  9  7  1  0
 10  9  2  0
 11  5  1  0
 12 11  2  0
 12  2  1  0
 14 13  1  0
 14 21  1  0
 14 15  1  1
 16 17  2  0
 16 15  1  0
 18 17  1  0
 19 20  2  0
 19 18  1  0
 20 16  1  0
 21 22  2  0
 23 24  1  0
 24 25  2  0
 24 34  1  0
 25 26  1  0
 26 27  2  0
 27 28  1  0
 29 31  1  0
 29 28  1  1
 30 21  1  0
 30 29  1  0
 31 35  1  0
 32 31  2  0
 33 27  1  0
 34 33  2  0
M  END
$$$$
