YHY.pdb
     RDKit          3D

 35 37  0  0  1  0  0  0  0  0999 V2000
    6.6526  -11.5669   17.4192 O   0  0  0  0  0  0  0  0  0  0  0  0
    7.1539  -12.5180   18.2910 C   0  0  0  0  0  0  0  0  0  0  0  0
    6.3990  -13.0531   19.3131 C   0  0  0  0  0  0  0  0  0  0  0  0
    6.9185  -14.0061   20.1793 C   0  0  0  0  0  0  0  0  0  0  0  0
    8.2132  -14.4629   20.0581 C   0  0  0  0  0  0  0  0  0  0  0  0
    8.8104  -15.4722   20.9724 C   0  0  0  0  0  0  0  0  0  0  0  0
    9.2753  -16.6832   20.1730 C   0  0  2  0  0  0  0  0  0  0  0  0
    8.0339  -17.3321   19.7165 N   0  0  0  0  0  0  0  0  0  0  0  0
    9.9526  -17.6016   21.1272 C   0  0  0  0  0  0  0  0  0  0  0  0
    9.2960  -18.0977   22.1108 O   0  0  0  0  0  0  0  0  0  0  0  0
    8.9783  -13.9247   19.0274 C   0  0  0  0  0  0  0  0  0  0  0  0
    8.4565  -12.9770   18.1695 C   0  0  0  0  0  0  0  0  0  0  0  0
   11.3112  -17.9928   21.0423 N   0  0  0  0  0  0  0  0  0  0  0  0
   11.9343  -18.7751   22.1194 C   0  0  1  0  0  0  0  0  0  0  0  0
   13.1941  -19.4403   21.6081 C   0  0  0  0  0  0  0  0  0  0  0  0
   12.8431  -20.3609   20.5056 C   0  0  0  0  0  0  0  0  0  0  0  0
   11.8391  -21.3029   20.5185 C   0  0  0  0  0  0  0  0  0  0  0  0
   11.8532  -21.9491   19.3397 N   0  0  0  0  0  0  0  0  0  0  0  0
   12.8435  -21.4342   18.5893 C   0  0  0  0  0  0  0  0  0  0  0  0
   13.4527  -20.4660   19.2891 N   0  0  0  0  0  0  0  0  0  0  0  0
   12.1110  -17.9729   23.3313 C   0  0  0  0  0  0  0  0  0  0  0  0
   12.8509  -16.9577   23.3433 O   0  0  0  0  0  0  0  0  0  0  0  0
   10.8850  -13.8433   31.0010 O   0  0  0  0  0  0  0  0  0  0  0  0
   10.7975  -14.5584   29.8084 C   0  0  0  0  0  0  0  0  0  0  0  0
   10.9191  -13.9165   28.5979 C   0  0  0  0  0  0  0  0  0  0  0  0
   10.8387  -14.5914   27.4060 C   0  0  0  0  0  0  0  0  0  0  0  0
   10.6307  -15.9485   27.3947 C   0  0  0  0  0  0  0  0  0  0  0  0
   10.5295  -16.6606   26.1332 C   0  0  0  0  0  0  0  0  0  0  0  0
   11.7594  -17.4892   25.7683 C   0  0  2  0  0  0  0  0  0  0  0  0
   11.4645  -18.2830   24.5667 N   0  0  0  0  0  0  0  0  0  0  0  0
   12.0896  -18.4208   26.8642 C   0  0  0  0  0  0  0  0  0  0  0  0
   11.4342  -19.4784   26.9839 O   0  0  0  0  0  0  0  0  0  0  0  0
   10.5053  -16.6141   28.5898 C   0  0  0  0  0  0  0  0  0  0  0  0
   10.5890  -15.9196   29.7779 C   0  0  0  0  0  0  0  0  0  0  0  0
   13.1171  -18.1694   27.7882 O   0  0  0  0  0  0  0  0  0  0  0  0
  1  2  1  0
  2  3  2  0
  3  4  1  0
  5  6  1  0
  5  4  2  0
  6  7  1  0
  7  8  1  1
  9 13  1  0
  9  7  1  0
 10  9  2  0
 11  5  1  0
 12 11  2  0
 12  2  1  0
 14 13  1  0
 14 21  1  0
 14 15  1  6
 16 17  2  0
 16 15  1  0
 18 17  1  0
 19 20  2  0
 19 18  1  0
 20 16  1  0
 21 22  2  0
 23 24  1  0
 24 25  2  0
 24 34  1  0
 25 26  1  0
 26 27  2  0
 27 28  1  0
 29 31  1  0
 29 28  1  1
 30 21  1  0
 30 29  1  0
 31 35  1  0
 32 31  2  0
 33 27  1  0
 34 33  2  0
M  END
$$$$
