YHY.pdb
     RDKit          3D

 35 37  0  0  1  0  0  0  0  0999 V2000
    9.1416  -11.4649   21.0804 O   0  0  0  0  0  0  0  0  0  0  0  0
    8.4254  -12.6483   21.1302 C   0  0  0  0  0  0  0  0  0  0  0  0
    7.9373  -13.1664   22.3109 C   0  0  0  0  0  0  0  0  0  0  0  0
    7.2212  -14.3558   22.3426 C   0  0  0  0  0  0  0  0  0  0  0  0
    6.9639  -15.0747   21.1951 C   0  0  0  0  0  0  0  0  0  0  0  0
    6.2125  -16.3579   21.1885 C   0  0  0  0  0  0  0  0  0  0  0  0
    6.9570  -17.3888   20.3490 C   0  0  2  0  0  0  0  0  0  0  0  0
    6.0039  -18.5003   20.1854 N   0  0  0  0  0  0  0  0  0  0  0  0
    8.0987  -17.8762   21.1687 C   0  0  0  0  0  0  0  0  0  0  0  0
    7.9038  -18.7714   22.0661 O   0  0  0  0  0  0  0  0  0  0  0  0
    7.4554  -14.5546   20.0012 C   0  0  0  0  0  0  0  0  0  0  0  0
    8.1671  -13.3717   19.9760 C   0  0  0  0  0  0  0  0  0  0  0  0
    9.4341  -17.4223   21.0406 N   0  0  0  0  0  0  0  0  0  0  0  0
   10.4973  -17.9715   21.8942 C   0  0  1  0  0  0  0  0  0  0  0  0
   11.6820  -18.3753   21.0431 C   0  0  0  0  0  0  0  0  0  0  0  0
   11.2718  -19.4583   20.1238 C   0  0  0  0  0  0  0  0  0  0  0  0
   10.8683  -19.3084   18.8160 C   0  0  0  0  0  0  0  0  0  0  0  0
   10.5611  -20.5231   18.3287 N   0  0  0  0  0  0  0  0  0  0  0  0
   10.7618  -21.4300   19.3014 C   0  0  0  0  0  0  0  0  0  0  0  0
   11.1951  -20.7928   20.3989 N   0  0  0  0  0  0  0  0  0  0  0  0
   10.8152  -17.0686   23.0020 C   0  0  0  0  0  0  0  0  0  0  0  0
   11.6252  -17.3977   23.9041 O   0  0  0  0  0  0  0  0  0  0  0  0
    6.2576  -10.4885   26.8832 O   0  0  0  0  0  0  0  0  0  0  0  0
    6.7670  -11.6295   26.2668 C   0  0  0  0  0  0  0  0  0  0  0  0
    5.9215  -12.5520   25.6955 C   0  0  0  0  0  0  0  0  0  0  0  0
    6.3909  -13.6850   25.0803 C   0  0  0  0  0  0  0  0  0  0  0  0
    7.7408  -13.9283   25.0202 C   0  0  0  0  0  0  0  0  0  0  0  0
    8.2371  -15.1352   24.3833 C   0  0  0  0  0  0  0  0  0  0  0  0
    9.7530  -15.3110   24.4437 C   0  0  2  0  0  0  0  0  0  0  0  0
   10.2360  -15.7696   23.1333 N   0  0  0  0  0  0  0  0  0  0  0  0
   10.1076  -16.3334   25.4471 C   0  0  0  0  0  0  0  0  0  0  0  0
    9.9863  -16.0638   26.6616 O   0  0  0  0  0  0  0  0  0  0  0  0
    8.6073  -13.0233   25.5833 C   0  0  0  0  0  0  0  0  0  0  0  0
    8.1177  -11.8900   26.1974 C   0  0  0  0  0  0  0  0  0  0  0  0
   10.5806  -17.6081   25.0949 O   0  0  0  0  0  0  0  0  0  0  0  0
  1  2  1  0
  2  3  2  0
  3  4  1  0
  5  6  1  0
  5  4  2  0
  6  7  1  0
  7  8  1  1
  9 13  1  0
  9  7  1  0
 10  9  2  0
 11  5  1  0
 12 11  2  0
 12  2  1  0
 14 13  1  0
 14 21  1  0
 14 15  1  6
 16 17  2  0
 16 15  1  0
 18 17  1  0
 19 20  2  0
 19 18  1  0
 20 16  1  0
 21 22  2  0
 23 24  1  0
 24 25  2  0
 24 34  1  0
 25 26  1  0
 26 27  2  0
 27 28  1  0
 29 31  1  0
 29 28  1  6
 30 21  1  0
 30 29  1  0
 31 35  1  0
 32 31  2  0
 33 27  1  0
 34 33  2  0
M  END
$$$$
