YHY.pdb
     RDKit          3D

 35 37  0  0  1  0  0  0  0  0999 V2000
    7.6689  -13.0095   15.6329 O   0  0  0  0  0  0  0  0  0  0  0  0
    7.6426  -13.5674   16.8994 C   0  0  0  0  0  0  0  0  0  0  0  0
    7.2458  -14.8683   17.1248 C   0  0  0  0  0  0  0  0  0  0  0  0
    7.2248  -15.4116   18.4025 C   0  0  0  0  0  0  0  0  0  0  0  0
    7.6002  -14.6764   19.5063 C   0  0  0  0  0  0  0  0  0  0  0  0
    7.5796  -15.2171   20.8914 C   0  0  0  0  0  0  0  0  0  0  0  0
    8.9926  -15.2335   21.4613 C   0  0  2  0  0  0  0  0  0  0  0  0
    9.7889  -15.9801   20.4718 N   0  0  0  0  0  0  0  0  0  0  0  0
    8.9476  -16.0321   22.7154 C   0  0  0  0  0  0  0  0  0  0  0  0
    8.1413  -15.6994   23.6555 O   0  0  0  0  0  0  0  0  0  0  0  0
    8.0013  -13.3625   19.2824 C   0  0  0  0  0  0  0  0  0  0  0  0
    8.0198  -12.8276   18.0097 C   0  0  0  0  0  0  0  0  0  0  0  0
    9.7471  -17.1724   22.9734 N   0  0  0  0  0  0  0  0  0  0  0  0
    9.7119  -17.8303   24.2873 C   0  0  1  0  0  0  0  0  0  0  0  0
   10.0990  -19.2865   24.1430 C   0  0  0  0  0  0  0  0  0  0  0  0
    9.1306  -19.9594   23.2510 C   0  0  0  0  0  0  0  0  0  0  0  0
    7.8708  -19.5081   22.9268 C   0  0  0  0  0  0  0  0  0  0  0  0
    7.2988  -20.4086   22.1089 N   0  0  0  0  0  0  0  0  0  0  0  0
    8.1708  -21.4140   21.9141 C   0  0  0  0  0  0  0  0  0  0  0  0
    9.2898  -21.1507   22.6045 N   0  0  0  0  0  0  0  0  0  0  0  0
   10.4857  -17.0841   25.2813 C   0  0  0  0  0  0  0  0  0  0  0  0
   11.5725  -16.5287   24.9838 O   0  0  0  0  0  0  0  0  0  0  0  0
    5.8535  -12.2048   26.7167 O   0  0  0  0  0  0  0  0  0  0  0  0
    7.1076  -12.8039   26.8164 C   0  0  0  0  0  0  0  0  0  0  0  0
    7.5221  -13.7182   25.8760 C   0  0  0  0  0  0  0  0  0  0  0  0
    8.7508  -14.3252   25.9448 C   0  0  0  0  0  0  0  0  0  0  0  0
    9.6102  -14.0281   26.9734 C   0  0  0  0  0  0  0  0  0  0  0  0
   10.9041  -14.6822   27.0552 C   0  0  0  0  0  0  0  0  0  0  0  0
   10.8603  -16.1203   27.5675 C   0  0  2  0  0  0  0  0  0  0  0  0
   10.0660  -16.9371   26.6387 N   0  0  0  0  0  0  0  0  0  0  0  0
   10.2116  -16.1697   28.8922 C   0  0  0  0  0  0  0  0  0  0  0  0
   10.7020  -15.5135   29.8363 O   0  0  0  0  0  0  0  0  0  0  0  0
    9.2208  -13.1185   27.9263 C   0  0  0  0  0  0  0  0  0  0  0  0
    7.9824  -12.5182   27.8412 C   0  0  0  0  0  0  0  0  0  0  0  0
    9.0568  -16.9290   29.1420 O   0  0  0  0  0  0  0  0  0  0  0  0
  1  2  1  0
  2  3  2  0
  3  4  1  0
  5  6  1  0
  5  4  2  0
  6  7  1  0
  7  8  1  6
  9 13  1  0
  9  7  1  0
 10  9  2  0
 11  5  1  0
 12 11  2  0
 12  2  1  0
 14 13  1  0
 14 21  1  0
 14 15  1  6
 16 17  2  0
 16 15  1  0
 18 17  1  0
 19 20  2  0
 19 18  1  0
 20 16  1  0
 21 22  2  0
 23 24  1  0
 24 25  2  0
 24 34  1  0
 25 26  1  0
 26 27  2  0
 27 28  1  0
 29 31  1  0
 29 28  1  6
 30 21  1  0
 30 29  1  0
 31 35  1  0
 32 31  2  0
 33 27  1  0
 34 33  2  0
M  END
$$$$
