YHY.pdb
     RDKit          3D

 35 37  0  0  1  0  0  0  0  0999 V2000
   12.7835  -12.9720   17.8757 O   0  0  0  0  0  0  0  0  0  0  0  0
   11.7469  -13.6714   18.4692 C   0  0  0  0  0  0  0  0  0  0  0  0
   11.9592  -14.8027   19.2280 C   0  0  0  0  0  0  0  0  0  0  0  0
   10.9071  -15.4927   19.8156 C   0  0  0  0  0  0  0  0  0  0  0  0
    9.6005  -15.0792   19.6686 C   0  0  0  0  0  0  0  0  0  0  0  0
    8.4457  -15.7971   20.2706 C   0  0  0  0  0  0  0  0  0  0  0  0
    8.4931  -17.2698   19.8826 C   0  0  2  0  0  0  0  0  0  0  0  0
    7.5970  -17.3814   18.7184 N   0  0  0  0  0  0  0  0  0  0  0  0
    7.8890  -18.0361   21.0054 C   0  0  0  0  0  0  0  0  0  0  0  0
    6.6200  -18.2168   21.0450 O   0  0  0  0  0  0  0  0  0  0  0  0
    9.3824  -13.9374   18.9029 C   0  0  0  0  0  0  0  0  0  0  0  0
   10.4325  -13.2557   18.3208 C   0  0  0  0  0  0  0  0  0  0  0  0
    8.6196  -18.6069   22.0761 N   0  0  0  0  0  0  0  0  0  0  0  0
    7.9637  -18.8997   23.3585 C   0  0  1  0  0  0  0  0  0  0  0  0
    8.5792  -20.1351   23.9798 C   0  0  0  0  0  0  0  0  0  0  0  0
    7.9351  -20.3933   25.2855 C   0  0  0  0  0  0  0  0  0  0  0  0
    6.5897  -20.3014   25.5632 C   0  0  0  0  0  0  0  0  0  0  0  0
    6.4075  -20.5930   26.8628 N   0  0  0  0  0  0  0  0  0  0  0  0
    7.6078  -20.8644   27.4057 C   0  0  0  0  0  0  0  0  0  0  0  0
    8.5453  -20.7462   26.4541 N   0  0  0  0  0  0  0  0  0  0  0  0
    7.9374  -17.7222   24.2282 C   0  0  0  0  0  0  0  0  0  0  0  0
    7.2709  -17.7085   25.2930 O   0  0  0  0  0  0  0  0  0  0  0  0
    6.4675  -10.4209   28.3304 O   0  0  0  0  0  0  0  0  0  0  0  0
    6.6841  -11.4649   27.4335 C   0  0  0  0  0  0  0  0  0  0  0  0
    5.6987  -12.3935   27.1905 C   0  0  0  0  0  0  0  0  0  0  0  0
    5.8797  -13.4325   26.3128 C   0  0  0  0  0  0  0  0  0  0  0  0
    7.0712  -13.5715   25.6450 C   0  0  0  0  0  0  0  0  0  0  0  0
    7.2688  -14.6802   24.7282 C   0  0  0  0  0  0  0  0  0  0  0  0
    8.6127  -15.3920   24.8685 C   0  0  2  0  0  0  0  0  0  0  0  0
    8.6566  -16.5242   23.9321 N   0  0  0  0  0  0  0  0  0  0  0  0
    8.7681  -15.9219   26.2371 C   0  0  0  0  0  0  0  0  0  0  0  0
    8.2695  -17.0322   26.5214 O   0  0  0  0  0  0  0  0  0  0  0  0
    8.0722  -12.6580   25.8696 C   0  0  0  0  0  0  0  0  0  0  0  0
    7.8726  -11.6201   26.7550 C   0  0  0  0  0  0  0  0  0  0  0  0
    9.4575  -15.2271   27.2444 O   0  0  0  0  0  0  0  0  0  0  0  0
  1  2  1  0
  2  3  2  0
  3  4  1  0
  5  6  1  0
  5  4  2  0
  6  7  1  0
  7  8  1  6
  9 13  1  0
  9  7  1  0
 10  9  2  0
 11  5  1  0
 12 11  2  0
 12  2  1  0
 14 13  1  0
 14 21  1  0
 14 15  1  1
 16 17  2  0
 16 15  1  0
 18 17  1  0
 19 20  2  0
 19 18  1  0
 20 16  1  0
 21 22  2  0
 23 24  1  0
 24 25  2  0
 24 34  1  0
 25 26  1  0
 26 27  2  0
 27 28  1  0
 29 31  1  0
 29 28  1  1
 30 21  1  0
 30 29  1  0
 31 35  1  0
 32 31  2  0
 33 27  1  0
 34 33  2  0
M  END
$$$$
