KCA.pdb
     RDKit          3D

 21 20  0  0  1  0  0  0  0  0999 V2000
   16.8600  -13.1756  -15.3932 N   0  0  0  0  0  0  0  0  0  0  0  0
   17.4645  -12.0100  -15.9559 C   0  0  1  0  0  0  0  0  0  0  0  0
   17.4636  -11.9294  -17.4420 C   0  0  0  0  0  0  0  0  0  0  0  0
   16.2395  -12.4232  -18.1269 C   0  0  0  0  0  0  0  0  0  0  0  0
   16.2860  -12.4311  -19.6183 C   0  0  0  0  0  0  0  0  0  0  0  0
   15.0922  -13.2463  -20.1399 C   0  0  0  0  0  0  0  0  0  0  0  0
   15.5369  -14.5574  -20.5554 N   0  0  0  0  0  0  0  0  0  0  0  0
   16.8748  -10.7903  -15.3205 C   0  0  0  0  0  0  0  0  0  0  0  0
   15.6303  -10.5960  -15.3298 O   0  0  0  0  0  0  0  0  0  0  0  0
   17.6733   -9.8016  -14.6828 N   0  0  0  0  0  0  0  0  0  0  0  0
   17.1199   -8.6417  -14.0577 C   0  0  1  0  0  0  0  0  0  0  0  0
   17.5266   -8.4869  -12.6122 C   0  0  0  0  0  0  0  0  0  0  0  0
   16.6077   -9.5775  -11.5239 S   0  0  0  0  0  0  0  0  0  0  0  0
   17.3826   -7.4261  -14.8523 C   0  0  0  0  0  0  0  0  0  0  0  0
   18.5450   -7.2316  -15.2922 O   0  0  0  0  0  0  0  0  0  0  0  0
   15.2681   -4.6911  -16.2765 C   0  0  0  0  0  0  0  0  0  0  0  0
   16.6459   -5.2537  -15.9015 C   0  0  2  0  0  0  0  0  0  0  0  0
   16.4034   -6.4554  -15.1549 N   0  0  0  0  0  0  0  0  0  0  0  0
   17.3299   -4.2128  -15.1092 C   0  0  0  0  0  0  0  0  0  0  0  0
   17.6151   -3.1261  -15.6668 O   0  0  0  0  0  0  0  0  0  0  0  0
   17.6746   -4.3716  -13.7799 O   0  0  0  0  0  0  0  0  0  0  0  0
  2  1  1  6
  2  8  1  0
  3  2  1  0
  3  4  1  0
  5  4  1  0
  6  5  1  0
  7  6  1  0
  8  9  2  0
 10 11  1  0
 10  8  1  0
 12 13  1  0
 11 12  1  1
 14 11  1  0
 14 15  2  0
 17 16  1  1
 17 18  1  0
 17 19  1  0
 18 14  1  0
 19 20  2  0
 19 21  1  0
M  END
$$$$
