KCA.pdb
     RDKit          3D

 21 20  0  0  1  0  0  0  0  0999 V2000
   21.1389  -11.7255  -18.2565 N   0  0  0  0  0  0  0  0  0  0  0  0
   19.9787  -11.0601  -17.7545 C   0  0  1  0  0  0  0  0  0  0  0  0
   18.8599  -11.9407  -17.3213 C   0  0  0  0  0  0  0  0  0  0  0  0
   18.6119  -13.1475  -18.1540 C   0  0  0  0  0  0  0  0  0  0  0  0
   17.5464  -14.0695  -17.6635 C   0  0  0  0  0  0  0  0  0  0  0  0
   16.2703  -13.8213  -18.4832 C   0  0  0  0  0  0  0  0  0  0  0  0
   15.2409  -14.7541  -18.0839 N   0  0  0  0  0  0  0  0  0  0  0  0
   20.3853  -10.0921  -16.6883 C   0  0  0  0  0  0  0  0  0  0  0  0
   19.5502   -9.6773  -15.8413 O   0  0  0  0  0  0  0  0  0  0  0  0
   21.7132   -9.5964  -16.5752 N   0  0  0  0  0  0  0  0  0  0  0  0
   22.1674   -8.8436  -15.4485 C   0  0  1  0  0  0  0  0  0  0  0  0
   23.5310   -9.2637  -14.9559 C   0  0  0  0  0  0  0  0  0  0  0  0
   23.5343  -10.9315  -14.2950 S   0  0  0  0  0  0  0  0  0  0  0  0
   22.0798   -7.3923  -15.7014 C   0  0  0  0  0  0  0  0  0  0  0  0
   22.6230   -6.9256  -16.7356 O   0  0  0  0  0  0  0  0  0  0  0  0
   19.9551   -4.6065  -14.8390 C   0  0  0  0  0  0  0  0  0  0  0  0
   21.4109   -5.0572  -15.0211 C   0  0  2  0  0  0  0  0  0  0  0  0
   21.4185   -6.4822  -14.8487 N   0  0  0  0  0  0  0  0  0  0  0  0
   22.2068   -4.3501  -13.9986 C   0  0  0  0  0  0  0  0  0  0  0  0
   22.3913   -4.9087  -12.8909 O   0  0  0  0  0  0  0  0  0  0  0  0
   22.7622   -3.0997  -14.1966 O   0  0  0  0  0  0  0  0  0  0  0  0
  2  1  1  1
  2  8  1  0
  3  2  1  0
  3  4  1  0
  5  4  1  0
  6  5  1  0
  7  6  1  0
  8  9  2  0
 10 11  1  0
 10  8  1  0
 12 13  1  0
 11 12  1  6
 14 11  1  0
 14 15  2  0
 17 16  1  1
 17 18  1  0
 17 19  1  0
 18 14  1  0
 19 20  2  0
 19 21  1  0
M  END
$$$$
