KCA.pdb
     RDKit          3D

 21 20  0  0  1  0  0  0  0  0999 V2000
   21.4210   -9.4896  -17.1327 N   0  0  0  0  0  0  0  0  0  0  0  0
   20.1349   -9.4394  -16.5128 C   0  0  1  0  0  0  0  0  0  0  0  0
   19.7174  -10.6657  -15.7802 C   0  0  0  0  0  0  0  0  0  0  0  0
   19.8231  -11.9469  -16.5277 C   0  0  0  0  0  0  0  0  0  0  0  0
   18.5430  -12.4970  -17.0615 C   0  0  0  0  0  0  0  0  0  0  0  0
   18.8432  -13.8203  -17.7829 C   0  0  0  0  0  0  0  0  0  0  0  0
   19.3785  -14.7807  -16.8446 N   0  0  0  0  0  0  0  0  0  0  0  0
   20.0420   -8.2109  -15.6634 C   0  0  0  0  0  0  0  0  0  0  0  0
   19.0192   -7.9870  -14.9630 O   0  0  0  0  0  0  0  0  0  0  0  0
   21.0849   -7.2465  -15.6018 N   0  0  0  0  0  0  0  0  0  0  0  0
   21.0444   -6.1139  -14.7311 C   0  0  1  0  0  0  0  0  0  0  0  0
   22.3398   -5.8772  -13.9932 C   0  0  0  0  0  0  0  0  0  0  0  0
   22.3333   -4.3327  -13.0807 S   0  0  0  0  0  0  0  0  0  0  0  0
   20.5680   -4.9093  -15.4382 C   0  0  0  0  0  0  0  0  0  0  0  0
   21.1999   -4.5145  -16.4518 O   0  0  0  0  0  0  0  0  0  0  0  0
   17.4812   -2.8542  -15.4050 C   0  0  0  0  0  0  0  0  0  0  0  0
   18.9847   -2.9623  -15.6936 C   0  0  2  0  0  0  0  0  0  0  0  0
   19.4362   -4.1618  -15.0473 N   0  0  0  0  0  0  0  0  0  0  0  0
   19.6122   -1.7433  -15.1465 C   0  0  0  0  0  0  0  0  0  0  0  0
   20.3339   -1.8473  -14.1260 O   0  0  0  0  0  0  0  0  0  0  0  0
   19.4466   -0.4876  -15.7005 O   0  0  0  0  0  0  0  0  0  0  0  0
  2  1  1  1
  2  8  1  0
  3  2  1  0
  3  4  1  0
  5  4  1  0
  6  5  1  0
  7  6  1  0
  8  9  2  0
 10 11  1  0
 10  8  1  0
 12 13  1  0
 11 12  1  6
 14 11  1  0
 14 15  2  0
 17 16  1  1
 17 18  1  0
 17 19  1  0
 18 14  1  0
 19 20  2  0
 19 21  1  0
M  END
$$$$
