KCA.pdb
     RDKit          3D

 21 20  0  0  1  0  0  0  0  0999 V2000
   25.1606  -13.8150  -19.2319 N   0  0  0  0  0  0  0  0  0  0  0  0
   24.5698  -14.2633  -18.0110 C   0  0  1  0  0  0  0  0  0  0  0  0
   25.0030  -15.6043  -17.5324 C   0  0  0  0  0  0  0  0  0  0  0  0
   25.2179  -16.6386  -18.5790 C   0  0  0  0  0  0  0  0  0  0  0  0
   24.1223  -17.6384  -18.7413 C   0  0  0  0  0  0  0  0  0  0  0  0
   24.4948  -18.5890  -19.8900 C   0  0  0  0  0  0  0  0  0  0  0  0
   23.3930  -19.4835  -20.1641 N   0  0  0  0  0  0  0  0  0  0  0  0
   24.7332  -13.2065  -16.9642 C   0  0  0  0  0  0  0  0  0  0  0  0
   24.2879  -13.3791  -15.7985 O   0  0  0  0  0  0  0  0  0  0  0  0
   25.3886  -11.9718  -17.2237 N   0  0  0  0  0  0  0  0  0  0  0  0
   25.5137  -10.9385  -16.2444 C   0  0  1  0  0  0  0  0  0  0  0  0
   26.8907  -10.3219  -16.1946 C   0  0  0  0  0  0  0  0  0  0  0  0
   26.9980   -8.9864  -15.0016 S   0  0  0  0  0  0  0  0  0  0  0  0
   24.4469   -9.9290  -16.3892 C   0  0  0  0  0  0  0  0  0  0  0  0
   24.2778   -9.3857  -17.5112 O   0  0  0  0  0  0  0  0  0  0  0  0
   21.7093   -8.6366  -14.1919 C   0  0  0  0  0  0  0  0  0  0  0  0
   22.5844   -8.5128  -15.4466 C   0  0  2  0  0  0  0  0  0  0  0  0
   23.5935   -9.5280  -15.3388 N   0  0  0  0  0  0  0  0  0  0  0  0
   23.1416   -7.1458  -15.4442 C   0  0  0  0  0  0  0  0  0  0  0  0
   22.3548   -6.1779  -15.5752 O   0  0  0  0  0  0  0  0  0  0  0  0
   24.4897   -6.8735  -15.3047 O   0  0  0  0  0  0  0  0  0  0  0  0
  2  1  1  6
  2  8  1  0
  3  2  1  0
  3  4  1  0
  5  4  1  0
  6  5  1  0
  7  6  1  0
  8  9  2  0
 10 11  1  0
 10  8  1  0
 12 13  1  0
 11 12  1  6
 14 11  1  0
 14 15  2  0
 17 16  1  1
 17 18  1  0
 17 19  1  0
 18 14  1  0
 19 20  2  0
 19 21  1  0
M  END
$$$$
