KCA.pdb
     RDKit          3D

 21 20  0  0  1  0  0  0  0  0999 V2000
   19.8537  -10.6924  -17.4731 N   0  0  0  0  0  0  0  0  0  0  0  0
   18.8787  -10.5784  -16.4352 C   0  0  1  0  0  0  0  0  0  0  0  0
   18.6898  -11.7849  -15.5845 C   0  0  0  0  0  0  0  0  0  0  0  0
   18.9750  -13.0949  -16.2278 C   0  0  0  0  0  0  0  0  0  0  0  0
   18.6340  -14.3038  -15.4226 C   0  0  0  0  0  0  0  0  0  0  0  0
   18.9728  -15.5536  -16.2504 C   0  0  0  0  0  0  0  0  0  0  0  0
   18.7917  -16.7401  -15.4450 N   0  0  0  0  0  0  0  0  0  0  0  0
   19.1576   -9.3508  -15.6261 C   0  0  0  0  0  0  0  0  0  0  0  0
   18.4166   -9.0345  -14.6578 O   0  0  0  0  0  0  0  0  0  0  0  0
   20.2550   -8.4898  -15.9016 N   0  0  0  0  0  0  0  0  0  0  0  0
   20.5682   -7.3502  -15.0980 C   0  0  1  0  0  0  0  0  0  0  0  0
   22.0129   -7.3009  -14.6632 C   0  0  0  0  0  0  0  0  0  0  0  0
   22.3922   -5.8224  -13.7207 S   0  0  0  0  0  0  0  0  0  0  0  0
   20.1297   -6.0989  -15.7461 C   0  0  0  0  0  0  0  0  0  0  0  0
   20.5206   -5.8559  -16.9168 O   0  0  0  0  0  0  0  0  0  0  0  0
   17.4321   -3.7009  -15.4796 C   0  0  0  0  0  0  0  0  0  0  0  0
   18.9409   -3.8745  -15.7003 C   0  0  2  0  0  0  0  0  0  0  0  0
   19.2901   -5.1451  -15.1311 N   0  0  0  0  0  0  0  0  0  0  0  0
   19.6034   -2.7408  -15.0260 C   0  0  0  0  0  0  0  0  0  0  0  0
   20.2868   -2.9704  -13.9998 O   0  0  0  0  0  0  0  0  0  0  0  0
   19.5108   -1.4336  -15.4663 O   0  0  0  0  0  0  0  0  0  0  0  0
  2  1  1  6
  2  8  1  0
  3  2  1  0
  3  4  1  0
  5  4  1  0
  6  5  1  0
  7  6  1  0
  8  9  2  0
 10 11  1  0
 10  8  1  0
 12 13  1  0
 11 12  1  6
 14 11  1  0
 14 15  2  0
 17 16  1  1
 17 18  1  0
 17 19  1  0
 18 14  1  0
 19 20  2  0
 19 21  1  0
M  END
$$$$
