KCA.pdb
     RDKit          3D

 21 20  0  0  1  0  0  0  0  0999 V2000
   19.3713  -11.1603  -16.6473 N   0  0  0  0  0  0  0  0  0  0  0  0
   20.1735  -10.0442  -17.0366 C   0  0  1  0  0  0  0  0  0  0  0  0
   20.1549   -9.7033  -18.4852 C   0  0  0  0  0  0  0  0  0  0  0  0
   20.9593  -10.5794  -19.3777 C   0  0  0  0  0  0  0  0  0  0  0  0
   20.4879  -11.9895  -19.5036 C   0  0  0  0  0  0  0  0  0  0  0  0
   21.4699  -12.7542  -20.4051 C   0  0  0  0  0  0  0  0  0  0  0  0
   21.0657  -14.1380  -20.5088 N   0  0  0  0  0  0  0  0  0  0  0  0
   19.8403   -8.8690  -16.1722 C   0  0  0  0  0  0  0  0  0  0  0  0
   18.6718   -8.3993  -16.1448 O   0  0  0  0  0  0  0  0  0  0  0  0
   20.8076   -8.2299  -15.3491 N   0  0  0  0  0  0  0  0  0  0  0  0
   20.4689   -7.2270  -14.3889 C   0  0  1  0  0  0  0  0  0  0  0  0
   20.9282   -7.5564  -12.9892 C   0  0  0  0  0  0  0  0  0  0  0  0
   19.9176   -8.8231  -12.2194 S   0  0  0  0  0  0  0  0  0  0  0  0
   20.9118   -5.8899  -14.8295 C   0  0  0  0  0  0  0  0  0  0  0  0
   22.0805   -5.7574  -15.2756 O   0  0  0  0  0  0  0  0  0  0  0  0
   19.2370   -2.5739  -15.2732 C   0  0  0  0  0  0  0  0  0  0  0  0
   20.5097   -3.4297  -15.2150 C   0  0  2  0  0  0  0  0  0  0  0  0
   20.1003   -4.7358  -14.7827 N   0  0  0  0  0  0  0  0  0  0  0  0
   21.4240   -2.7692  -14.2628 C   0  0  0  0  0  0  0  0  0  0  0  0
   21.4682   -3.1923  -13.0829 O   0  0  0  0  0  0  0  0  0  0  0  0
   22.2379   -1.7047  -14.6026 O   0  0  0  0  0  0  0  0  0  0  0  0
  2  1  1  6
  2  8  1  0
  3  2  1  0
  3  4  1  0
  5  4  1  0
  6  5  1  0
  7  6  1  0
  8  9  2  0
 10 11  1  0
 10  8  1  0
 12 13  1  0
 11 12  1  1
 14 11  1  0
 14 15  2  0
 17 16  1  1
 17 18  1  0
 17 19  1  0
 18 14  1  0
 19 20  2  0
 19 21  1  0
M  END
$$$$
