KCA.pdb
     RDKit          3D

 21 20  0  0  1  0  0  0  0  0999 V2000
   20.3614  -11.9780  -17.5182 N   0  0  0  0  0  0  0  0  0  0  0  0
   19.4125  -11.0170  -17.0525 C   0  0  1  0  0  0  0  0  0  0  0  0
   18.0952  -11.5592  -16.6217 C   0  0  0  0  0  0  0  0  0  0  0  0
   17.4021  -12.4504  -17.5896 C   0  0  0  0  0  0  0  0  0  0  0  0
   17.2299  -13.8691  -17.1606 C   0  0  0  0  0  0  0  0  0  0  0  0
   16.4773  -14.6258  -18.2665 C   0  0  0  0  0  0  0  0  0  0  0  0
   16.3814  -16.0270  -17.9249 N   0  0  0  0  0  0  0  0  0  0  0  0
   20.0474  -10.1639  -15.9997 C   0  0  0  0  0  0  0  0  0  0  0  0
   19.4370   -9.8981  -14.9303 O   0  0  0  0  0  0  0  0  0  0  0  0
   21.3514   -9.6164  -16.1467 N   0  0  0  0  0  0  0  0  0  0  0  0
   21.9862   -8.8395  -15.1289 C   0  0  1  0  0  0  0  0  0  0  0  0
   23.4430   -9.1827  -14.9325 C   0  0  0  0  0  0  0  0  0  0  0  0
   23.6688  -10.6570  -13.9357 S   0  0  0  0  0  0  0  0  0  0  0  0
   21.7692   -7.3952  -15.3416 C   0  0  0  0  0  0  0  0  0  0  0  0
   22.1893   -6.8715  -16.4054 O   0  0  0  0  0  0  0  0  0  0  0  0
   19.7665   -4.7502  -13.6452 C   0  0  0  0  0  0  0  0  0  0  0  0
   20.8967   -5.1459  -14.6052 C   0  0  2  0  0  0  0  0  0  0  0  0
   21.1131   -6.5525  -14.4184 N   0  0  0  0  0  0  0  0  0  0  0  0
   22.0712   -4.3299  -14.2397 C   0  0  0  0  0  0  0  0  0  0  0  0
   22.9049   -4.8072  -13.4333 O   0  0  0  0  0  0  0  0  0  0  0  0
   22.3032   -3.0624  -14.7404 O   0  0  0  0  0  0  0  0  0  0  0  0
  2  1  1  1
  2  8  1  0
  3  2  1  0
  3  4  1  0
  5  4  1  0
  6  5  1  0
  7  6  1  0
  8  9  2  0
 10 11  1  0
 10  8  1  0
 12 13  1  0
 11 12  1  6
 14 11  1  0
 14 15  2  0
 17 16  1  1
 17 18  1  0
 17 19  1  0
 18 14  1  0
 19 20  2  0
 19 21  1  0
M  END
$$$$
