FRP.pdb
     RDKit          3D

 30 31  0  0  1  0  0  0  0  0999 V2000
   19.8960  -19.3191  -14.9968 N   0  0  0  0  0  0  0  0  0  0  0  0
   20.9454  -20.0399  -15.6476 C   0  0  1  0  0  0  0  0  0  0  0  0
   20.7810  -20.1452  -17.1258 C   0  0  0  0  0  0  0  0  0  0  0  0
   19.6887  -21.1535  -17.3710 C   0  0  0  0  0  0  0  0  0  0  0  0
   18.4242  -20.7450  -17.6725 C   0  0  0  0  0  0  0  0  0  0  0  0
   17.4437  -21.7059  -17.8923 C   0  0  0  0  0  0  0  0  0  0  0  0
   17.7538  -23.0443  -17.8048 C   0  0  0  0  0  0  0  0  0  0  0  0
   19.0488  -23.4257  -17.4964 C   0  0  0  0  0  0  0  0  0  0  0  0
   20.0354  -22.4822  -17.2750 C   0  0  0  0  0  0  0  0  0  0  0  0
   22.2903  -19.4369  -15.3676 C   0  0  0  0  0  0  0  0  0  0  0  0
   22.4391  -18.1909  -15.3134 O   0  0  0  0  0  0  0  0  0  0  0  0
   27.3120  -21.6303   -9.0154 N   0  0  0  0  0  0  0  0  0  0  0  0
   26.0483  -21.1719   -9.4463 C   0  0  0  0  0  0  0  0  0  0  0  0
   24.9803  -21.1854   -8.7140 N   0  0  0  0  0  0  0  0  0  0  0  0
   25.9155  -20.6603  -10.7580 N   0  0  0  0  0  0  0  0  0  0  0  0
   26.9064  -20.7393  -11.7735 C   0  0  0  0  0  0  0  0  0  0  0  0
   26.5532  -20.0215  -13.0582 C   0  0  0  0  0  0  0  0  0  0  0  0
   25.1933  -20.4832  -13.5313 C   0  0  0  0  0  0  0  0  0  0  0  0
   24.6953  -19.7706  -14.7521 C   0  0  2  0  0  0  0  0  0  0  0  0
   23.3960  -20.3012  -15.1655 N   0  0  0  0  0  0  0  0  0  0  0  0
   25.7011  -20.0593  -15.8366 C   0  0  0  0  0  0  0  0  0  0  0  0
   25.5673  -21.1761  -16.4197 O   0  0  0  0  0  0  0  0  0  0  0  0
   24.1135  -20.7876   -9.1793 N   0  0  0  0  0  0  0  0  0  0  0  0
   26.7228  -19.1619  -16.1904 C   0  0  0  0  0  0  0  0  0  0  0  0
   27.1482  -17.9496  -15.5431 C   0  0  0  0  0  0  0  0  0  0  0  0
   27.5716  -17.0592  -16.7271 C   0  0  0  0  0  0  0  0  0  0  0  0
   28.3457  -18.0659  -17.5460 C   0  0  2  0  0  0  0  0  0  0  0  0
   27.5681  -19.3306  -17.3708 C   0  0  0  0  0  0  0  0  0  0  0  0
   28.4276  -20.5356  -17.2301 O   0  0  0  0  0  0  0  0  0  0  0  0
   29.1314  -21.0070  -18.3109 O   0  0  0  0  0  0  0  0  0  0  0  0
  2 10  1  0
  2  1  1  6
  3  4  1  0
  3  2  1  0
  4  9  2  0
  5  6  2  0
  5  4  1  0
  6  7  1  0
  7  8  2  0
  9  8  1  0
 10 20  1  0
 11 10  2  0
 13 15  1  0
 13 12  1  0
 14 13  2  0
 16 17  1  0
 16 15  1  0
 17 18  1  0
 19 18  1  1
 19 21  1  0
 20 19  1  0
 21 22  2  0
 21 23  1  0
 23 27  1  0
 24 23  1  0
 25 26  1  0
 25 24  1  0
 26 27  1  0
 27 28  1  1
 28 30  2  0
 28 29  1  0
M  END
$$$$
