FRP.pdb
     RDKit          3D

 30 31  0  0  1  0  0  0  0  0999 V2000
   20.7728  -21.0664  -10.8401 N   0  0  0  0  0  0  0  0  0  0  0  0
   21.2401  -20.8071  -12.1662 C   0  0  1  0  0  0  0  0  0  0  0  0
   20.4003  -19.8364  -12.9249 C   0  0  0  0  0  0  0  0  0  0  0  0
   19.6326  -20.6325  -13.9480 C   0  0  0  0  0  0  0  0  0  0  0  0
   20.1985  -20.9484  -15.1467 C   0  0  0  0  0  0  0  0  0  0  0  0
   19.4580  -21.6849  -16.0645 C   0  0  0  0  0  0  0  0  0  0  0  0
   18.1763  -22.0837  -15.7593 C   0  0  0  0  0  0  0  0  0  0  0  0
   17.6308  -21.7460  -14.5321 C   0  0  0  0  0  0  0  0  0  0  0  0
   18.3543  -21.0140  -13.6084 C   0  0  0  0  0  0  0  0  0  0  0  0
   22.6540  -20.3057  -12.1692 C   0  0  0  0  0  0  0  0  0  0  0  0
   23.1406  -19.7442  -11.1564 O   0  0  0  0  0  0  0  0  0  0  0  0
   29.3534  -22.4183   -9.6877 N   0  0  0  0  0  0  0  0  0  0  0  0
   29.8692  -21.5457  -10.6702 C   0  0  0  0  0  0  0  0  0  0  0  0
   31.1316  -21.3827  -10.9089 N   0  0  0  0  0  0  0  0  0  0  0  0
   28.9689  -20.7907  -11.4571 N   0  0  0  0  0  0  0  0  0  0  0  0
   27.5726  -21.0316  -11.5648 C   0  0  0  0  0  0  0  0  0  0  0  0
   27.1028  -21.4153  -12.9513 C   0  0  0  0  0  0  0  0  0  0  0  0
   25.5953  -21.5331  -12.9537 C   0  0  0  0  0  0  0  0  0  0  0  0
   24.8826  -20.2645  -13.3121 C   0  0  2  0  0  0  0  0  0  0  0  0
   23.4352  -20.4758  -13.3403 N   0  0  0  0  0  0  0  0  0  0  0  0
   25.3453  -19.9106  -14.7020 C   0  0  0  0  0  0  0  0  0  0  0  0
   24.8941  -20.6463  -15.6296 O   0  0  0  0  0  0  0  0  0  0  0  0
   31.3578  -20.6446  -11.6370 N   0  0  0  0  0  0  0  0  0  0  0  0
   26.2160  -18.8405  -14.9688 C   0  0  0  0  0  0  0  0  0  0  0  0
   26.9358  -17.9905  -14.0583 C   0  0  0  0  0  0  0  0  0  0  0  0
   26.9399  -16.6331  -14.7872 C   0  0  0  0  0  0  0  0  0  0  0  0
   27.2768  -17.0906  -16.1874 C   0  0  2  0  0  0  0  0  0  0  0  0
   26.5390  -18.3840  -16.3192 C   0  0  0  0  0  0  0  0  0  0  0  0
   27.3038  -19.4260  -17.0539 O   0  0  0  0  0  0  0  0  0  0  0  0
   27.5019  -19.3057  -18.4074 O   0  0  0  0  0  0  0  0  0  0  0  0
  2 10  1  0
  2  1  1  1
  3  4  1  0
  3  2  1  0
  4  9  2  0
  5  6  2  0
  5  4  1  0
  6  7  1  0
  7  8  2  0
  9  8  1  0
 10 20  1  0
 11 10  2  0
 13 15  1  0
 13 12  1  0
 14 13  2  0
 16 17  1  0
 16 15  1  0
 17 18  1  0
 19 18  1  6
 19 21  1  0
 20 19  1  0
 21 22  2  0
 21 23  1  0
 23 27  1  0
 24 23  1  0
 25 26  1  0
 25 24  1  0
 26 27  1  0
 27 28  1  6
 28 30  2  0
 28 29  1  0
M  END
$$$$
