FRP.pdb
     RDKit          3D

 30 31  0  0  1  0  0  0  0  0999 V2000
   20.4886  -19.4125  -14.7093 N   0  0  0  0  0  0  0  0  0  0  0  0
   21.3208  -19.0063  -15.7986 C   0  0  1  0  0  0  0  0  0  0  0  0
   20.6376  -18.1213  -16.7851 C   0  0  0  0  0  0  0  0  0  0  0  0
   19.8661  -19.0213  -17.7151 C   0  0  0  0  0  0  0  0  0  0  0  0
   20.5193  -19.8379  -18.5887 C   0  0  0  0  0  0  0  0  0  0  0  0
   19.7721  -20.6540  -19.4305 C   0  0  0  0  0  0  0  0  0  0  0  0
   18.3968  -20.6310  -19.3756 C   0  0  0  0  0  0  0  0  0  0  0  0
   17.7640  -19.7894  -18.4762 C   0  0  0  0  0  0  0  0  0  0  0  0
   18.4930  -18.9716  -17.6322 C   0  0  0  0  0  0  0  0  0  0  0  0
   22.5593  -18.3071  -15.3212 C   0  0  0  0  0  0  0  0  0  0  0  0
   22.4990  -17.4316  -14.4224 O   0  0  0  0  0  0  0  0  0  0  0  0
   28.6526  -21.8306  -11.4812 N   0  0  0  0  0  0  0  0  0  0  0  0
   27.2840  -21.5202  -11.6346 C   0  0  0  0  0  0  0  0  0  0  0  0
   26.3252  -22.1286  -11.0118 N   0  0  0  0  0  0  0  0  0  0  0  0
   26.9116  -20.4818  -12.5194 N   0  0  0  0  0  0  0  0  0  0  0  0
   27.8130  -19.6926  -13.2835 C   0  0  0  0  0  0  0  0  0  0  0  0
   27.1585  -18.6041  -14.1063 C   0  0  0  0  0  0  0  0  0  0  0  0
   25.8276  -19.1006  -14.6244 C   0  0  0  0  0  0  0  0  0  0  0  0
   25.0525  -18.0788  -15.3997 C   0  0  2  0  0  0  0  0  0  0  0  0
   23.8047  -18.6517  -15.9050 N   0  0  0  0  0  0  0  0  0  0  0  0
   25.9216  -17.7058  -16.5731 C   0  0  0  0  0  0  0  0  0  0  0  0
   26.0058  -18.5789  -17.4873 O   0  0  0  0  0  0  0  0  0  0  0  0
   25.3523  -21.7572  -11.2160 N   0  0  0  0  0  0  0  0  0  0  0  0
   26.5980  -16.4775  -16.6637 C   0  0  0  0  0  0  0  0  0  0  0  0
   26.7159  -15.4182  -15.6975 C   0  0  0  0  0  0  0  0  0  0  0  0
   26.7416  -14.1534  -16.5770 C   0  0  0  0  0  0  0  0  0  0  0  0
   27.6884  -14.6105  -17.6624 C   0  0  2  0  0  0  0  0  0  0  0  0
   27.3329  -16.0500  -17.8525 C   0  0  0  0  0  0  0  0  0  0  0  0
   28.5147  -16.9235  -18.0783 O   0  0  0  0  0  0  0  0  0  0  0  0
   29.2607  -16.7868  -19.2231 O   0  0  0  0  0  0  0  0  0  0  0  0
  2 10  1  0
  2  1  1  1
  3  4  1  0
  3  2  1  0
  4  9  2  0
  5  6  2  0
  5  4  1  0
  6  7  1  0
  7  8  2  0
  9  8  1  0
 10 20  1  0
 11 10  2  0
 13 15  1  0
 13 12  1  0
 14 13  2  0
 16 17  1  0
 16 15  1  0
 17 18  1  0
 19 18  1  1
 19 21  1  0
 20 19  1  0
 21 22  2  0
 21 23  1  0
 23 27  1  0
 24 23  1  0
 25 26  1  0
 25 24  1  0
 26 27  1  0
 27 28  1  1
 28 30  2  0
 28 29  1  0
M  END
$$$$
