FRP.pdb
     RDKit          3D

 30 31  0  0  1  0  0  0  0  0999 V2000
   28.1590  -21.9223   -8.3491 N   0  0  0  0  0  0  0  0  0  0  0  0
   27.2875  -20.8948   -8.8276 C   0  0  1  0  0  0  0  0  0  0  0  0
   27.6256  -19.5321   -8.3255 C   0  0  0  0  0  0  0  0  0  0  0  0
   27.7331  -19.6356   -6.8263 C   0  0  0  0  0  0  0  0  0  0  0  0
   28.9333  -19.4631   -6.2045 C   0  0  0  0  0  0  0  0  0  0  0  0
   28.9916  -19.5659   -4.8192 C   0  0  0  0  0  0  0  0  0  0  0  0
   27.8520  -19.8376   -4.0964 C   0  0  0  0  0  0  0  0  0  0  0  0
   26.6481  -20.0074   -4.7593 C   0  0  0  0  0  0  0  0  0  0  0  0
   26.5734  -19.9082   -6.1366 C   0  0  0  0  0  0  0  0  0  0  0  0
   27.2554  -20.8469  -10.3267 C   0  0  0  0  0  0  0  0  0  0  0  0
   28.3181  -20.7697  -10.9919 O   0  0  0  0  0  0  0  0  0  0  0  0
   22.2813  -24.8583  -12.9176 N   0  0  0  0  0  0  0  0  0  0  0  0
   23.2868  -25.2164  -13.8416 C   0  0  0  0  0  0  0  0  0  0  0  0
   23.8205  -26.3939  -13.9170 N   0  0  0  0  0  0  0  0  0  0  0  0
   23.7573  -24.2435  -14.7537 N   0  0  0  0  0  0  0  0  0  0  0  0
   23.4683  -22.8536  -14.6921 C   0  0  0  0  0  0  0  0  0  0  0  0
   24.6585  -21.9740  -14.3758 C   0  0  0  0  0  0  0  0  0  0  0  0
   24.7746  -21.8095  -12.8773 C   0  0  0  0  0  0  0  0  0  0  0  0
   25.9189  -20.9446  -12.4431 C   0  0  2  0  0  0  0  0  0  0  0  0
   25.9993  -20.8893  -10.9833 N   0  0  0  0  0  0  0  0  0  0  0  0
   25.6111  -19.5634  -12.9615 C   0  0  0  0  0  0  0  0  0  0  0  0
   24.6506  -18.9684  -12.3883 O   0  0  0  0  0  0  0  0  0  0  0  0
   24.5694  -26.4991  -14.6615 N   0  0  0  0  0  0  0  0  0  0  0  0
   26.3310  -18.9612  -14.0073 C   0  0  0  0  0  0  0  0  0  0  0  0
   27.4293  -19.4730  -14.7828 C   0  0  0  0  0  0  0  0  0  0  0  0
   28.2734  -18.2131  -15.0545 C   0  0  0  0  0  0  0  0  0  0  0  0
   27.1771  -17.2386  -15.4176 C   0  0  2  0  0  0  0  0  0  0  0  0
   26.0598  -17.6110  -14.4970 C   0  0  0  0  0  0  0  0  0  0  0  0
   24.7209  -17.5477  -15.1402 O   0  0  0  0  0  0  0  0  0  0  0  0
   24.0779  -18.7056  -15.5029 O   0  0  0  0  0  0  0  0  0  0  0  0
  2 10  1  0
  2  1  1  6
  3  4  1  0
  3  2  1  0
  4  9  2  0
  5  6  2  0
  5  4  1  0
  6  7  1  0
  7  8  2  0
  9  8  1  0
 10 20  1  0
 11 10  2  0
 13 15  1  0
 13 12  1  0
 14 13  2  0
 16 17  1  0
 16 15  1  0
 17 18  1  0
 19 18  1  1
 19 21  1  0
 20 19  1  0
 21 22  2  0
 21 23  1  0
 23 27  1  0
 24 23  1  0
 25 26  1  0
 25 24  1  0
 26 27  1  0
 27 28  1  6
 28 30  2  0
 28 29  1  0
M  END
$$$$
