FRP.pdb
     RDKit          3D

 30 31  0  0  1  0  0  0  0  0999 V2000
   24.9877  -25.6300  -21.9431 N   0  0  0  0  0  0  0  0  0  0  0  0
   24.6275  -25.3269  -20.5930 C   0  0  1  0  0  0  0  0  0  0  0  0
   23.9029  -24.0334  -20.4356 C   0  0  0  0  0  0  0  0  0  0  0  0
   24.8485  -22.9484  -20.8812 C   0  0  0  0  0  0  0  0  0  0  0  0
   24.8711  -22.5404  -22.1811 C   0  0  0  0  0  0  0  0  0  0  0  0
   25.7576  -21.5362  -22.5534 C   0  0  0  0  0  0  0  0  0  0  0  0
   26.5943  -20.9696  -21.6186 C   0  0  0  0  0  0  0  0  0  0  0  0
   26.5461  -21.4073  -20.3057 C   0  0  0  0  0  0  0  0  0  0  0  0
   25.6699  -22.4052  -19.9195 C   0  0  0  0  0  0  0  0  0  0  0  0
   23.7877  -26.4113  -19.9851 C   0  0  0  0  0  0  0  0  0  0  0  0
   23.0058  -27.0938  -20.6927 O   0  0  0  0  0  0  0  0  0  0  0  0
   28.0841  -30.8950  -16.1475 N   0  0  0  0  0  0  0  0  0  0  0  0
   26.7983  -31.2469  -15.6828 C   0  0  0  0  0  0  0  0  0  0  0  0
   26.5749  -32.1042  -14.7383 N   0  0  0  0  0  0  0  0  0  0  0  0
   25.6663  -30.6369  -16.2713 N   0  0  0  0  0  0  0  0  0  0  0  0
   24.3732  -30.5702  -15.6858 C   0  0  0  0  0  0  0  0  0  0  0  0
   23.3599  -29.7754  -16.4806 C   0  0  0  0  0  0  0  0  0  0  0  0
   24.0500  -28.6024  -17.1395 C   0  0  0  0  0  0  0  0  0  0  0  0
   23.1413  -27.7412  -17.9632 C   0  0  2  0  0  0  0  0  0  0  0  0
   23.8908  -26.6532  -18.5918 N   0  0  0  0  0  0  0  0  0  0  0  0
   22.1488  -27.1475  -16.9970 C   0  0  0  0  0  0  0  0  0  0  0  0
   22.6257  -26.3139  -16.1706 O   0  0  0  0  0  0  0  0  0  0  0  0
   25.5511  -32.2534  -14.5023 N   0  0  0  0  0  0  0  0  0  0  0  0
   20.7844  -27.4832  -16.9996 C   0  0  0  0  0  0  0  0  0  0  0  0
   20.0626  -28.3960  -17.8454 C   0  0  0  0  0  0  0  0  0  0  0  0
   18.6863  -27.7178  -17.9858 C   0  0  0  0  0  0  0  0  0  0  0  0
   18.4521  -27.3050  -16.5512 C   0  0  2  0  0  0  0  0  0  0  0  0
   19.8112  -26.9006  -16.0778 C   0  0  0  0  0  0  0  0  0  0  0  0
   20.0975  -27.3214  -14.6809 O   0  0  0  0  0  0  0  0  0  0  0  0
   20.8906  -28.4169  -14.4428 O   0  0  0  0  0  0  0  0  0  0  0  0
  2 10  1  0
  2  1  1  6
  3  4  1  0
  3  2  1  0
  4  9  2  0
  5  6  2  0
  5  4  1  0
  6  7  1  0
  7  8  2  0
  9  8  1  0
 10 20  1  0
 11 10  2  0
 13 15  1  0
 13 12  1  0
 14 13  2  0
 16 17  1  0
 16 15  1  0
 17 18  1  0
 19 18  1  1
 19 21  1  0
 20 19  1  0
 21 22  2  0
 21 23  1  0
 23 27  1  0
 24 23  1  0
 25 26  1  0
 25 24  1  0
 26 27  1  0
 27 28  1  1
 28 30  2  0
 28 29  1  0
M  END
$$$$
