FRP.pdb
     RDKit          3D

 30 31  0  0  1  0  0  0  0  0999 V2000
   24.9493  -20.9172   -7.6559 N   0  0  0  0  0  0  0  0  0  0  0  0
   26.0025  -20.3357   -8.4284 C   0  0  1  0  0  0  0  0  0  0  0  0
   27.3569  -20.8671   -8.1021 C   0  0  0  0  0  0  0  0  0  0  0  0
   27.8229  -20.1408   -6.8670 C   0  0  0  0  0  0  0  0  0  0  0  0
   28.5694  -19.0056   -6.9715 C   0  0  0  0  0  0  0  0  0  0  0  0
   28.9801  -18.3638   -5.8085 C   0  0  0  0  0  0  0  0  0  0  0  0
   28.6339  -18.8732   -4.5774 C   0  0  0  0  0  0  0  0  0  0  0  0
   27.8743  -20.0288   -4.5064 C   0  0  0  0  0  0  0  0  0  0  0  0
   27.4580  -20.6790   -5.6538 C   0  0  0  0  0  0  0  0  0  0  0  0
   25.7732  -20.5101   -9.9007 C   0  0  0  0  0  0  0  0  0  0  0  0
   25.1595  -21.5128  -10.3429 O   0  0  0  0  0  0  0  0  0  0  0  0
   24.1024  -16.5145  -16.4693 N   0  0  0  0  0  0  0  0  0  0  0  0
   24.4891  -15.5261  -15.5385 C   0  0  0  0  0  0  0  0  0  0  0  0
   23.8889  -14.3877  -15.3936 N   0  0  0  0  0  0  0  0  0  0  0  0
   25.6003  -15.7724  -14.6992 N   0  0  0  0  0  0  0  0  0  0  0  0
   26.5357  -16.8290  -14.8656 C   0  0  0  0  0  0  0  0  0  0  0  0
   26.0789  -18.1679  -14.3278 C   0  0  0  0  0  0  0  0  0  0  0  0
   26.2310  -18.1808  -12.8235 C   0  0  0  0  0  0  0  0  0  0  0  0
   25.8010  -19.4619  -12.1756 C   0  0  2  0  0  0  0  0  0  0  0  0
   26.2643  -19.5199  -10.7890 N   0  0  0  0  0  0  0  0  0  0  0  0
   26.4728  -20.5632  -12.9547 C   0  0  0  0  0  0  0  0  0  0  0  0
   27.7112  -20.7105  -12.7316 O   0  0  0  0  0  0  0  0  0  0  0  0
   24.3445  -13.7267  -14.6996 N   0  0  0  0  0  0  0  0  0  0  0  0
   25.7871  -21.3810  -13.8688 C   0  0  0  0  0  0  0  0  0  0  0  0
   24.4020  -21.3673  -14.2572 C   0  0  0  0  0  0  0  0  0  0  0  0
   24.1001  -22.8580  -14.5027 C   0  0  0  0  0  0  0  0  0  0  0  0
   25.3385  -23.2507  -15.2742 C   0  0  2  0  0  0  0  0  0  0  0  0
   26.4251  -22.4642  -14.6144 C   0  0  0  0  0  0  0  0  0  0  0  0
   27.4241  -21.9213  -15.5724 O   0  0  0  0  0  0  0  0  0  0  0  0
   27.3241  -20.6222  -16.0060 O   0  0  0  0  0  0  0  0  0  0  0  0
  2 10  1  0
  2  1  1  1
  3  4  1  0
  3  2  1  0
  4  9  2  0
  5  6  2  0
  5  4  1  0
  6  7  1  0
  7  8  2  0
  9  8  1  0
 10 20  1  0
 11 10  2  0
 13 15  1  0
 13 12  1  0
 14 13  2  0
 16 17  1  0
 16 15  1  0
 17 18  1  0
 19 18  1  6
 19 21  1  0
 20 19  1  0
 21 22  2  0
 21 23  1  0
 23 27  1  0
 24 23  1  0
 25 26  1  0
 25 24  1  0
 26 27  1  0
 27 28  1  6
 28 30  2  0
 28 29  1  0
M  END
$$$$
