FRP.pdb
     RDKit          3D

 30 31  0  0  1  0  0  0  0  0999 V2000
   19.7334  -17.5926  -16.3415 N   0  0  0  0  0  0  0  0  0  0  0  0
   20.7500  -18.5560  -16.6294 C   0  0  1  0  0  0  0  0  0  0  0  0
   21.0043  -18.7509  -18.0856 C   0  0  0  0  0  0  0  0  0  0  0  0
   19.8687  -19.5863  -18.6172 C   0  0  0  0  0  0  0  0  0  0  0  0
   19.7518  -20.8983  -18.2683 C   0  0  0  0  0  0  0  0  0  0  0  0
   18.6898  -21.6359  -18.7793 C   0  0  0  0  0  0  0  0  0  0  0  0
   17.7771  -21.0431  -19.6222 C   0  0  0  0  0  0  0  0  0  0  0  0
   17.9249  -19.7075  -19.9569 C   0  0  0  0  0  0  0  0  0  0  0  0
   18.9757  -18.9602  -19.4570 C   0  0  0  0  0  0  0  0  0  0  0  0
   22.0508  -18.2052  -15.9695 C   0  0  0  0  0  0  0  0  0  0  0  0
   22.4949  -17.0308  -16.0044 O   0  0  0  0  0  0  0  0  0  0  0  0
   28.5503  -21.6724  -13.9602 N   0  0  0  0  0  0  0  0  0  0  0  0
   27.4344  -22.5371  -13.9714 C   0  0  0  0  0  0  0  0  0  0  0  0
   27.3439  -23.5996  -14.7064 N   0  0  0  0  0  0  0  0  0  0  0  0
   26.3326  -22.2451  -13.1344 N   0  0  0  0  0  0  0  0  0  0  0  0
   26.1999  -21.0819  -12.3291 C   0  0  0  0  0  0  0  0  0  0  0  0
   25.8065  -19.8314  -13.0853 C   0  0  0  0  0  0  0  0  0  0  0  0
   24.5044  -20.0764  -13.8139 C   0  0  0  0  0  0  0  0  0  0  0  0
   24.0838  -18.9521  -14.7112 C   0  0  2  0  0  0  0  0  0  0  0  0
   22.7747  -19.2267  -15.3039 N   0  0  0  0  0  0  0  0  0  0  0  0
   25.1103  -18.8987  -15.8133 C   0  0  0  0  0  0  0  0  0  0  0  0
   25.0222  -19.8148  -16.6840 O   0  0  0  0  0  0  0  0  0  0  0  0
   26.4784  -24.1893  -14.5359 N   0  0  0  0  0  0  0  0  0  0  0  0
   26.1031  -17.9069  -15.8861 C   0  0  0  0  0  0  0  0  0  0  0  0
   26.4140  -16.8463  -14.9652 C   0  0  0  0  0  0  0  0  0  0  0  0
   26.8697  -15.7065  -15.8964 C   0  0  0  0  0  0  0  0  0  0  0  0
   27.7542  -16.4827  -16.8443 C   0  0  2  0  0  0  0  0  0  0  0  0
   27.0374  -17.7849  -17.0034 C   0  0  0  0  0  0  0  0  0  0  0  0
   27.9503  -18.9574  -17.0515 O   0  0  0  0  0  0  0  0  0  0  0  0
   28.7420  -19.1664  -18.1539 O   0  0  0  0  0  0  0  0  0  0  0  0
  2 10  1  0
  2  1  1  6
  3  4  1  0
  3  2  1  0
  4  9  2  0
  5  6  2  0
  5  4  1  0
  6  7  1  0
  7  8  2  0
  9  8  1  0
 10 20  1  0
 11 10  2  0
 13 15  1  0
 13 12  1  0
 14 13  2  0
 16 17  1  0
 16 15  1  0
 17 18  1  0
 19 18  1  1
 19 21  1  0
 20 19  1  0
 21 22  2  0
 21 23  1  0
 23 27  1  0
 24 23  1  0
 25 26  1  0
 25 24  1  0
 26 27  1  0
 27 28  1  1
 28 30  2  0
 28 29  1  0
M  END
$$$$
