YYC.pdb
     RDKit          3D

 31 32  0  0  1  0  0  0  0  0999 V2000
    6.7097  -10.7402   27.2369 O   0  0  0  0  0  0  0  0  0  0  0  0
    6.9801  -12.0857   27.1656 C   0  0  0  0  0  0  0  0  0  0  0  0
    7.6276  -12.6951   28.2336 C   0  0  0  0  0  0  0  0  0  0  0  0
    7.9007  -14.0527   28.1621 C   0  0  0  0  0  0  0  0  0  0  0  0
    7.5536  -14.8343   27.0675 C   0  0  0  0  0  0  0  0  0  0  0  0
    7.8363  -16.2830   26.9452 C   0  0  0  0  0  0  0  0  0  0  0  0
    6.8531  -16.8325   25.9194 C   0  0  2  0  0  0  0  0  0  0  0  0
    6.8909  -18.2988   26.1277 N   0  0  0  0  0  0  0  0  0  0  0  0
    7.3411  -16.6184   24.5376 C   0  0  0  0  0  0  0  0  0  0  0  0
    8.1185  -17.4703   24.0415 O   0  0  0  0  0  0  0  0  0  0  0  0
    6.9151  -14.1645   26.0487 C   0  0  0  0  0  0  0  0  0  0  0  0
    6.6174  -12.8156   26.0614 C   0  0  0  0  0  0  0  0  0  0  0  0
    8.5094  -13.5826   16.2341 O   0  0  0  0  0  0  0  0  0  0  0  0
    8.0730  -13.7878   17.5472 C   0  0  0  0  0  0  0  0  0  0  0  0
    8.4029  -12.8355   18.4971 C   0  0  0  0  0  0  0  0  0  0  0  0
    7.9966  -12.9961   19.8102 C   0  0  0  0  0  0  0  0  0  0  0  0
    7.2693  -14.0862   20.1984 C   0  0  0  0  0  0  0  0  0  0  0  0
    6.8108  -14.3657   21.5438 C   0  0  0  0  0  0  0  0  0  0  0  0
    7.5642  -15.2934   22.4056 C   0  0  2  0  0  0  0  0  0  0  0  0
    7.0124  -15.5254   23.7051 N   0  0  0  0  0  0  0  0  0  0  0  0
    9.0273  -15.0773   22.4368 C   0  0  0  0  0  0  0  0  0  0  0  0
    9.4756  -14.4001   23.3952 O   0  0  0  0  0  0  0  0  0  0  0  0
    6.9514  -15.0298   19.2138 C   0  0  0  0  0  0  0  0  0  0  0  0
    7.3491  -14.8814   17.9024 C   0  0  0  0  0  0  0  0  0  0  0  0
    9.9240  -15.5858   21.4628 N   0  0  0  0  0  0  0  0  0  0  0  0
   11.2891  -15.9148   21.6971 C   0  0  1  0  0  0  0  0  0  0  0  0
   11.4183  -16.8868   22.8840 C   0  0  0  0  0  0  0  0  0  0  0  0
   13.1790  -17.2532   23.0793 S   0  0  0  0  0  0  0  0  0  0  0  0
   12.0062  -16.4273   20.5208 C   0  0  0  0  0  0  0  0  0  0  0  0
   13.3420  -16.0701   20.3524 O   0  0  0  0  0  0  0  0  0  0  0  0
   11.5082  -17.1734   19.6413 O   0  0  0  0  0  0  0  0  0  0  0  0
  2  3  2  0
  2  1  1  0
  4  3  1  0
  5  4  2  0
  6  5  1  0
  7  6  1  0
  7  8  1  1
  9  7  1  0
  9 10  2  0
 11  5  1  0
 11 12  2  0
 12  2  1  0
 13 14  1  0
 14 15  2  0
 15 16  1  0
 17 16  2  0
 17 18  1  0
 19 18  1  1
 19 20  1  0
 20  9  1  0
 21 19  1  0
 22 21  2  0
 23 17  1  0
 24 14  1  0
 24 23  2  0
 25 21  1  0
 26 25  1  0
 26 27  1  1
 27 28  1  0
 29 30  1  0
 29 26  1  0
 31 29  2  0
M  END
$$$$
