YYC.pdb
     RDKit          3D

 31 32  0  0  1  0  0  0  0  0999 V2000
    7.3809  -13.4200   15.5406 O   0  0  0  0  0  0  0  0  0  0  0  0
    7.3738  -13.5263   16.9107 C   0  0  0  0  0  0  0  0  0  0  0  0
    6.6282  -12.6144   17.6481 C   0  0  0  0  0  0  0  0  0  0  0  0
    6.6206  -12.7211   19.0307 C   0  0  0  0  0  0  0  0  0  0  0  0
    7.3262  -13.7030   19.7143 C   0  0  0  0  0  0  0  0  0  0  0  0
    7.3551  -13.8458   21.1882 C   0  0  0  0  0  0  0  0  0  0  0  0
    8.1348  -15.1201   21.4862 C   0  0  2  0  0  0  0  0  0  0  0  0
    7.2402  -16.2095   21.0304 N   0  0  0  0  0  0  0  0  0  0  0  0
    8.2938  -15.3253   22.9443 C   0  0  0  0  0  0  0  0  0  0  0  0
    7.4537  -14.7997   23.7152 O   0  0  0  0  0  0  0  0  0  0  0  0
    8.0408  -14.5707   18.9201 C   0  0  0  0  0  0  0  0  0  0  0  0
    8.0883  -14.5144   17.5406 C   0  0  0  0  0  0  0  0  0  0  0  0
    7.3801  -20.8978   29.4205 O   0  0  0  0  0  0  0  0  0  0  0  0
    7.5058  -20.0319   28.3291 C   0  0  0  0  0  0  0  0  0  0  0  0
    6.8996  -20.3964   27.1384 C   0  0  0  0  0  0  0  0  0  0  0  0
    6.9988  -19.5740   26.0297 C   0  0  0  0  0  0  0  0  0  0  0  0
    7.6903  -18.3963   26.0809 C   0  0  0  0  0  0  0  0  0  0  0  0
    7.8758  -17.4721   24.9809 C   0  0  0  0  0  0  0  0  0  0  0  0
    9.1739  -16.8029   24.7863 C   0  0  2  0  0  0  0  0  0  0  0  0
    9.3210  -16.0688   23.5671 N   0  0  0  0  0  0  0  0  0  0  0  0
   10.3613  -17.6260   25.1040 C   0  0  0  0  0  0  0  0  0  0  0  0
   10.4403  -18.0707   26.2762 O   0  0  0  0  0  0  0  0  0  0  0  0
    8.2904  -18.0564   27.2996 C   0  0  0  0  0  0  0  0  0  0  0  0
    8.1985  -18.8660   28.4114 C   0  0  0  0  0  0  0  0  0  0  0  0
   11.3866  -17.9298   24.1724 N   0  0  0  0  0  0  0  0  0  0  0  0
   12.7737  -18.0197   24.4798 C   0  0  1  0  0  0  0  0  0  0  0  0
   13.3416  -16.6350   24.8411 C   0  0  0  0  0  0  0  0  0  0  0  0
   13.4598  -15.6929   23.3012 S   0  0  0  0  0  0  0  0  0  0  0  0
   13.1090  -19.0088   25.5141 C   0  0  0  0  0  0  0  0  0  0  0  0
   14.4524  -19.2950   25.7456 O   0  0  0  0  0  0  0  0  0  0  0  0
   12.2726  -19.6264   26.2193 O   0  0  0  0  0  0  0  0  0  0  0  0
  2  3  2  0
  2  1  1  0
  4  3  1  0
  5  4  2  0
  6  5  1  0
  7  6  1  0
  7  8  1  1
  9  7  1  0
  9 10  2  0
 11  5  1  0
 11 12  2  0
 12  2  1  0
 13 14  1  0
 14 15  2  0
 15 16  1  0
 17 16  2  0
 17 18  1  0
 19 18  1  6
 19 20  1  0
 20  9  1  0
 21 19  1  0
 22 21  2  0
 23 17  1  0
 24 14  1  0
 24 23  2  0
 25 21  1  0
 26 25  1  0
 26 27  1  1
 27 28  1  0
 29 30  1  0
 29 26  1  0
 31 29  2  0
M  END
$$$$
