YYC.pdb
     RDKit          3D

 31 32  0  0  1  0  0  0  0  0999 V2000
    8.0327  -14.0016   16.2721 O   0  0  0  0  0  0  0  0  0  0  0  0
    8.1346  -13.9784   17.6423 C   0  0  0  0  0  0  0  0  0  0  0  0
    9.3974  -13.9035   18.2176 C   0  0  0  0  0  0  0  0  0  0  0  0
    9.5008  -13.8801   19.6003 C   0  0  0  0  0  0  0  0  0  0  0  0
    8.3948  -13.9270   20.4393 C   0  0  0  0  0  0  0  0  0  0  0  0
    8.4607  -13.9160   21.9189 C   0  0  0  0  0  0  0  0  0  0  0  0
    9.0392  -15.2615   22.3381 C   0  0  2  0  0  0  0  0  0  0  0  0
    7.9793  -16.2373   21.9925 N   0  0  0  0  0  0  0  0  0  0  0  0
    9.1896  -15.3481   23.8089 C   0  0  0  0  0  0  0  0  0  0  0  0
   10.1090  -14.6891   24.3537 O   0  0  0  0  0  0  0  0  0  0  0  0
    7.1779  -13.9996   19.8004 C   0  0  0  0  0  0  0  0  0  0  0  0
    7.0113  -14.0274   18.4293 C   0  0  0  0  0  0  0  0  0  0  0  0
    6.0977  -10.1417   26.2202 O   0  0  0  0  0  0  0  0  0  0  0  0
    6.4171  -11.4933   26.3873 C   0  0  0  0  0  0  0  0  0  0  0  0
    7.6456  -11.8057   26.9451 C   0  0  0  0  0  0  0  0  0  0  0  0
    8.0080  -13.1289   27.1274 C   0  0  0  0  0  0  0  0  0  0  0  0
    7.1734  -14.1484   26.7646 C   0  0  0  0  0  0  0  0  0  0  0  0
    7.4572  -15.5634   26.8896 C   0  0  0  0  0  0  0  0  0  0  0  0
    8.5400  -16.1746   26.0992 C   0  0  2  0  0  0  0  0  0  0  0  0
    8.3843  -16.1171   24.6782 N   0  0  0  0  0  0  0  0  0  0  0  0
    8.9928  -17.5015   26.5708 C   0  0  0  0  0  0  0  0  0  0  0  0
    9.6473  -17.5245   27.6428 O   0  0  0  0  0  0  0  0  0  0  0  0
    5.9384  -13.7989   26.2046 C   0  0  0  0  0  0  0  0  0  0  0  0
    5.5649  -12.4852   26.0184 C   0  0  0  0  0  0  0  0  0  0  0  0
    8.7291  -18.7168   25.8888 N   0  0  0  0  0  0  0  0  0  0  0  0
    9.1227  -20.0100   26.3354 C   0  0  1  0  0  0  0  0  0  0  0  0
    8.0289  -21.0484   26.0262 C   0  0  0  0  0  0  0  0  0  0  0  0
    6.5146  -20.4798   26.8364 S   0  0  0  0  0  0  0  0  0  0  0  0
   10.4286  -20.4603   25.8330 C   0  0  0  0  0  0  0  0  0  0  0  0
   10.9059  -21.7009   26.2490 O   0  0  0  0  0  0  0  0  0  0  0  0
   11.1615  -19.8106   25.0462 O   0  0  0  0  0  0  0  0  0  0  0  0
  2  3  2  0
  2  1  1  0
  4  3  1  0
  5  4  2  0
  6  5  1  0
  7  6  1  0
  7  8  1  1
  9  7  1  0
  9 10  2  0
 11  5  1  0
 11 12  2  0
 12  2  1  0
 13 14  1  0
 14 15  2  0
 15 16  1  0
 17 16  2  0
 17 18  1  0
 19 18  1  1
 19 20  1  0
 20  9  1  0
 21 19  1  0
 22 21  2  0
 23 17  1  0
 24 14  1  0
 24 23  2  0
 25 21  1  0
 26 25  1  0
 26 27  1  6
 27 28  1  0
 29 30  1  0
 29 26  1  0
 31 29  2  0
M  END
$$$$
