YYC.pdb
     RDKit          3D

 31 32  0  0  1  0  0  0  0  0999 V2000
    8.1963  -13.2754   16.1705 O   0  0  0  0  0  0  0  0  0  0  0  0
    8.0332  -13.4508   17.5237 C   0  0  0  0  0  0  0  0  0  0  0  0
    8.9759  -12.9054   18.3869 C   0  0  0  0  0  0  0  0  0  0  0  0
    8.8117  -13.0820   19.7525 C   0  0  0  0  0  0  0  0  0  0  0  0
    7.7428  -13.7810   20.2986 C   0  0  0  0  0  0  0  0  0  0  0  0
    7.5357  -14.0030   21.7482 C   0  0  0  0  0  0  0  0  0  0  0  0
    8.8302  -14.5998   22.2857 C   0  0  2  0  0  0  0  0  0  0  0  0
    8.8819  -15.9549   21.6891 N   0  0  0  0  0  0  0  0  0  0  0  0
    8.7563  -14.8165   23.7489 C   0  0  0  0  0  0  0  0  0  0  0  0
    8.2262  -13.9255   24.4572 O   0  0  0  0  0  0  0  0  0  0  0  0
    6.8493  -14.2920   19.3848 C   0  0  0  0  0  0  0  0  0  0  0  0
    6.9596  -14.1504   18.0151 C   0  0  0  0  0  0  0  0  0  0  0  0
    6.3029  -10.5365   27.3162 O   0  0  0  0  0  0  0  0  0  0  0  0
    6.6525  -11.8683   27.0699 C   0  0  0  0  0  0  0  0  0  0  0  0
    5.8149  -12.6207   26.2635 C   0  0  0  0  0  0  0  0  0  0  0  0
    6.1170  -13.9441   25.9937 C   0  0  0  0  0  0  0  0  0  0  0  0
    7.2354  -14.5351   26.5110 C   0  0  0  0  0  0  0  0  0  0  0  0
    7.6368  -15.9127   26.3125 C   0  0  0  0  0  0  0  0  0  0  0  0
    8.9908  -16.2270   25.8240 C   0  0  2  0  0  0  0  0  0  0  0  0
    9.2354  -15.9505   24.4417 N   0  0  0  0  0  0  0  0  0  0  0  0
    9.5243  -17.5404   26.2467 C   0  0  0  0  0  0  0  0  0  0  0  0
    9.3105  -17.8776   27.4377 O   0  0  0  0  0  0  0  0  0  0  0  0
    8.0619  -13.7468   27.3212 C   0  0  0  0  0  0  0  0  0  0  0  0
    7.7730  -12.4276   27.5971 C   0  0  0  0  0  0  0  0  0  0  0  0
   10.2453  -18.4142   25.3934 N   0  0  0  0  0  0  0  0  0  0  0  0
   10.8155  -19.6581   25.7858 C   0  0  1  0  0  0  0  0  0  0  0  0
   10.6267  -20.7152   24.6825 C   0  0  0  0  0  0  0  0  0  0  0  0
    8.9691  -20.4765   23.9985 S   0  0  0  0  0  0  0  0  0  0  0  0
   12.2231  -19.5824   26.2025 C   0  0  0  0  0  0  0  0  0  0  0  0
   12.8734  -20.7627   26.5551 O   0  0  0  0  0  0  0  0  0  0  0  0
   12.9001  -18.5262   26.2668 O   0  0  0  0  0  0  0  0  0  0  0  0
  2  3  2  0
  2  1  1  0
  4  3  1  0
  5  4  2  0
  6  5  1  0
  7  6  1  0
  7  8  1  6
  9  7  1  0
  9 10  2  0
 11  5  1  0
 11 12  2  0
 12  2  1  0
 13 14  1  0
 14 15  2  0
 15 16  1  0
 17 16  2  0
 17 18  1  0
 19 18  1  6
 19 20  1  0
 20  9  1  0
 21 19  1  0
 22 21  2  0
 23 17  1  0
 24 14  1  0
 24 23  2  0
 25 21  1  0
 26 25  1  0
 26 27  1  6
 27 28  1  0
 29 30  1  0
 29 26  1  0
 31 29  2  0
M  END
$$$$
