YYC.pdb
     RDKit          3D

 31 32  0  0  1  0  0  0  0  0999 V2000
    8.3719  -14.4583   15.7665 O   0  0  0  0  0  0  0  0  0  0  0  0
    8.0165  -14.3517   17.0896 C   0  0  0  0  0  0  0  0  0  0  0  0
    8.2691  -15.4228   17.9382 C   0  0  0  0  0  0  0  0  0  0  0  0
    7.9106  -15.3157   19.2735 C   0  0  0  0  0  0  0  0  0  0  0  0
    7.3094  -14.1812   19.8034 C   0  0  0  0  0  0  0  0  0  0  0  0
    6.9003  -14.0296   21.2188 C   0  0  0  0  0  0  0  0  0  0  0  0
    7.2491  -15.3391   21.9146 C   0  0  2  0  0  0  0  0  0  0  0  0
    5.9347  -15.9324   22.2542 N   0  0  0  0  0  0  0  0  0  0  0  0
    7.9189  -15.0969   23.2131 C   0  0  0  0  0  0  0  0  0  0  0  0
    7.4647  -14.1946   23.9588 O   0  0  0  0  0  0  0  0  0  0  0  0
    7.0906  -13.1611   18.9058 C   0  0  0  0  0  0  0  0  0  0  0  0
    7.4238  -13.2091   17.5660 C   0  0  0  0  0  0  0  0  0  0  0  0
   10.9258  -15.1024   31.3318 O   0  0  0  0  0  0  0  0  0  0  0  0
   10.4055  -15.2136   30.0381 C   0  0  0  0  0  0  0  0  0  0  0  0
   10.0888  -14.0463   29.3634 C   0  0  0  0  0  0  0  0  0  0  0  0
    9.5682  -14.1053   28.0825 C   0  0  0  0  0  0  0  0  0  0  0  0
    9.3547  -15.3026   27.4590 C   0  0  0  0  0  0  0  0  0  0  0  0
    8.7976  -15.4825   26.1340 C   0  0  0  0  0  0  0  0  0  0  0  0
    9.6839  -15.5332   24.9581 C   0  0  2  0  0  0  0  0  0  0  0  0
    9.0443  -15.7947   23.7054 N   0  0  0  0  0  0  0  0  0  0  0  0
   10.9266  -16.3150   25.1388 C   0  0  0  0  0  0  0  0  0  0  0  0
   10.9579  -17.1041   26.1159 O   0  0  0  0  0  0  0  0  0  0  0  0
    9.6864  -16.4638   28.1679 C   0  0  0  0  0  0  0  0  0  0  0  0
   10.2064  -16.4190   29.4436 C   0  0  0  0  0  0  0  0  0  0  0  0
   12.0539  -16.2195   24.2835 N   0  0  0  0  0  0  0  0  0  0  0  0
   12.5406  -17.2646   23.4484 C   0  0  1  0  0  0  0  0  0  0  0  0
   11.3845  -17.9289   22.6787 C   0  0  0  0  0  0  0  0  0  0  0  0
   12.0924  -19.3079   21.7460 S   0  0  0  0  0  0  0  0  0  0  0  0
   13.6178  -16.8647   22.5316 C   0  0  0  0  0  0  0  0  0  0  0  0
   13.3857  -15.8024   21.6611 O   0  0  0  0  0  0  0  0  0  0  0  0
   14.7486  -17.4081   22.4673 O   0  0  0  0  0  0  0  0  0  0  0  0
  2  3  2  0
  2  1  1  0
  4  3  1  0
  5  4  2  0
  6  5  1  0
  7  6  1  0
  7  8  1  1
  9  7  1  0
  9 10  2  0
 11  5  1  0
 11 12  2  0
 12  2  1  0
 13 14  1  0
 14 15  2  0
 15 16  1  0
 17 16  2  0
 17 18  1  0
 19 18  1  1
 19 20  1  0
 20  9  1  0
 21 19  1  0
 22 21  2  0
 23 17  1  0
 24 14  1  0
 24 23  2  0
 25 21  1  0
 26 25  1  0
 26 27  1  6
 27 28  1  0
 29 30  1  0
 29 26  1  0
 31 29  2  0
M  END
$$$$
