YYC.pdb
     RDKit          3D

 31 32  0  0  1  0  0  0  0  0999 V2000
    7.1438  -15.0128   14.2193 O   0  0  0  0  0  0  0  0  0  0  0  0
    7.5259  -14.6956   15.5006 C   0  0  0  0  0  0  0  0  0  0  0  0
    8.0297  -15.7015   16.3165 C   0  0  0  0  0  0  0  0  0  0  0  0
    8.4154  -15.3819   17.6095 C   0  0  0  0  0  0  0  0  0  0  0  0
    8.3218  -14.0965   18.1276 C   0  0  0  0  0  0  0  0  0  0  0  0
    8.7109  -13.7145   19.5047 C   0  0  0  0  0  0  0  0  0  0  0  0
    7.8600  -14.5572   20.4463 C   0  0  2  0  0  0  0  0  0  0  0  0
    6.6127  -13.7744   20.6090 N   0  0  0  0  0  0  0  0  0  0  0  0
    8.4607  -14.6262   21.7982 C   0  0  0  0  0  0  0  0  0  0  0  0
    8.8935  -13.5659   22.3129 O   0  0  0  0  0  0  0  0  0  0  0  0
    7.8152  -13.1524   17.2637 C   0  0  0  0  0  0  0  0  0  0  0  0
    7.4135  -13.4097   15.9672 C   0  0  0  0  0  0  0  0  0  0  0  0
    6.2872  -10.8709   26.8975 O   0  0  0  0  0  0  0  0  0  0  0  0
    6.7762  -12.0985   26.4388 C   0  0  0  0  0  0  0  0  0  0  0  0
    8.1487  -12.2534   26.3375 C   0  0  0  0  0  0  0  0  0  0  0  0
    8.6801  -13.4487   25.8855 C   0  0  0  0  0  0  0  0  0  0  0  0
    7.8735  -14.4934   25.5308 C   0  0  0  0  0  0  0  0  0  0  0  0
    8.3185  -15.7767   25.0273 C   0  0  0  0  0  0  0  0  0  0  0  0
    9.2253  -15.8438   23.8679 C   0  0  2  0  0  0  0  0  0  0  0  0
    8.5995  -15.7931   22.5824 N   0  0  0  0  0  0  0  0  0  0  0  0
   10.2778  -16.8800   23.9501 C   0  0  0  0  0  0  0  0  0  0  0  0
    9.8890  -18.0727   24.0164 O   0  0  0  0  0  0  0  0  0  0  0  0
    6.4907  -14.3049   25.6460 C   0  0  0  0  0  0  0  0  0  0  0  0
    5.9486  -13.1200   26.0955 C   0  0  0  0  0  0  0  0  0  0  0  0
   11.6678  -16.5984   23.9563 N   0  0  0  0  0  0  0  0  0  0  0  0
   12.7015  -17.5726   24.0500 C   0  0  1  0  0  0  0  0  0  0  0  0
   14.0777  -16.9319   23.7931 C   0  0  0  0  0  0  0  0  0  0  0  0
   14.2914  -15.6243   25.0249 S   0  0  0  0  0  0  0  0  0  0  0  0
   12.7077  -18.3404   25.3034 C   0  0  0  0  0  0  0  0  0  0  0  0
   11.9197  -17.8896   26.3597 O   0  0  0  0  0  0  0  0  0  0  0  0
   13.3735  -19.3866   25.5048 O   0  0  0  0  0  0  0  0  0  0  0  0
  2  3  2  0
  2  1  1  0
  4  3  1  0
  5  4  2  0
  6  5  1  0
  7  6  1  0
  7  8  1  1
  9  7  1  0
  9 10  2  0
 11  5  1  0
 11 12  2  0
 12  2  1  0
 13 14  1  0
 14 15  2  0
 15 16  1  0
 17 16  2  0
 17 18  1  0
 19 18  1  1
 19 20  1  0
 20  9  1  0
 21 19  1  0
 22 21  2  0
 23 17  1  0
 24 14  1  0
 24 23  2  0
 25 21  1  0
 26 25  1  0
 26 27  1  1
 27 28  1  0
 29 30  1  0
 29 26  1  0
 31 29  2  0
M  END
$$$$
