YYC.pdb
     RDKit          3D

 31 32  0  0  1  0  0  0  0  0999 V2000
    8.8920  -13.7405   15.1667 O   0  0  0  0  0  0  0  0  0  0  0  0
    8.5195  -13.9311   16.4757 C   0  0  0  0  0  0  0  0  0  0  0  0
    7.3629  -13.3150   16.9382 C   0  0  0  0  0  0  0  0  0  0  0  0
    6.9866  -13.5069   18.2590 C   0  0  0  0  0  0  0  0  0  0  0  0
    7.7157  -14.2914   19.1436 C   0  0  0  0  0  0  0  0  0  0  0  0
    7.3566  -14.5133   20.5633 C   0  0  0  0  0  0  0  0  0  0  0  0
    7.2811  -16.0218   20.7617 C   0  0  2  0  0  0  0  0  0  0  0  0
    5.9773  -16.4022   20.1697 N   0  0  0  0  0  0  0  0  0  0  0  0
    7.1786  -16.3715   22.1972 C   0  0  0  0  0  0  0  0  0  0  0  0
    6.0853  -16.1740   22.7821 O   0  0  0  0  0  0  0  0  0  0  0  0
    8.8477  -14.8703   18.6166 C   0  0  0  0  0  0  0  0  0  0  0  0
    9.2741  -14.7156   17.3117 C   0  0  0  0  0  0  0  0  0  0  0  0
    9.2751  -18.2245   30.6689 O   0  0  0  0  0  0  0  0  0  0  0  0
    9.2134  -18.1705   29.2725 C   0  0  0  0  0  0  0  0  0  0  0  0
   10.3137  -17.6749   28.5929 C   0  0  0  0  0  0  0  0  0  0  0  0
   10.2986  -17.5988   27.2112 C   0  0  0  0  0  0  0  0  0  0  0  0
    9.2102  -18.0045   26.4911 C   0  0  0  0  0  0  0  0  0  0  0  0
    9.0776  -17.9506   25.0496 C   0  0  0  0  0  0  0  0  0  0  0  0
    8.2246  -16.9263   24.4218 C   0  0  2  0  0  0  0  0  0  0  0  0
    8.2128  -16.9154   22.9912 N   0  0  0  0  0  0  0  0  0  0  0  0
    8.3370  -15.5703   25.0022 C   0  0  0  0  0  0  0  0  0  0  0  0
    9.3276  -14.8855   24.6444 O   0  0  0  0  0  0  0  0  0  0  0  0
    8.1149  -18.5016   27.2081 C   0  0  0  0  0  0  0  0  0  0  0  0
    8.1173  -18.5836   28.5840 C   0  0  0  0  0  0  0  0  0  0  0  0
    7.4038  -15.0208   25.9179 N   0  0  0  0  0  0  0  0  0  0  0  0
    7.4837  -13.7191   26.4885 C   0  0  1  0  0  0  0  0  0  0  0  0
    6.0763  -13.1524   26.7499 C   0  0  0  0  0  0  0  0  0  0  0  0
    6.2920  -11.4809   27.4073 S   0  0  0  0  0  0  0  0  0  0  0  0
    8.3163  -13.6300   27.6966 C   0  0  0  0  0  0  0  0  0  0  0  0
    9.1785  -12.5439   27.8276 O   0  0  0  0  0  0  0  0  0  0  0  0
    8.3145  -14.4634   28.6366 O   0  0  0  0  0  0  0  0  0  0  0  0
  2  3  2  0
  2  1  1  0
  4  3  1  0
  5  4  2  0
  6  5  1  0
  7  6  1  0
  7  8  1  6
  9  7  1  0
  9 10  2  0
 11  5  1  0
 11 12  2  0
 12  2  1  0
 13 14  1  0
 14 15  2  0
 15 16  1  0
 17 16  2  0
 17 18  1  0
 19 18  1  6
 19 20  1  0
 20  9  1  0
 21 19  1  0
 22 21  2  0
 23 17  1  0
 24 14  1  0
 24 23  2  0
 25 21  1  0
 26 25  1  0
 26 27  1  1
 27 28  1  0
 29 30  1  0
 29 26  1  0
 31 29  2  0
M  END
$$$$
