YYC.pdb
     RDKit          3D

 31 32  0  0  1  0  0  0  0  0999 V2000
    8.2357  -13.4494   14.7803 O   0  0  0  0  0  0  0  0  0  0  0  0
    7.9702  -13.8007   16.0820 C   0  0  0  0  0  0  0  0  0  0  0  0
    7.1438  -14.8913   16.3249 C   0  0  0  0  0  0  0  0  0  0  0  0
    6.8755  -15.2463   17.6382 C   0  0  0  0  0  0  0  0  0  0  0  0
    7.3985  -14.5591   18.7262 C   0  0  0  0  0  0  0  0  0  0  0  0
    7.1287  -14.8967   20.1428 C   0  0  0  0  0  0  0  0  0  0  0  0
    8.3543  -15.6444   20.6524 C   0  0  2  0  0  0  0  0  0  0  0  0
    8.2258  -16.9981   20.0643 N   0  0  0  0  0  0  0  0  0  0  0  0
    8.2918  -15.8445   22.1185 C   0  0  0  0  0  0  0  0  0  0  0  0
    7.1668  -16.0162   22.6491 O   0  0  0  0  0  0  0  0  0  0  0  0
    8.2080  -13.4917   18.4104 C   0  0  0  0  0  0  0  0  0  0  0  0
    8.5107  -13.0894   17.1239 C   0  0  0  0  0  0  0  0  0  0  0  0
   10.6736  -15.6736   30.7886 O   0  0  0  0  0  0  0  0  0  0  0  0
   10.6348  -15.7569   29.3928 C   0  0  0  0  0  0  0  0  0  0  0  0
   10.1423  -16.9204   28.8255 C   0  0  0  0  0  0  0  0  0  0  0  0
   10.0871  -17.0511   27.4488 C   0  0  0  0  0  0  0  0  0  0  0  0
   10.5133  -16.0480   26.6243 C   0  0  0  0  0  0  0  0  0  0  0  0
   10.5208  -16.0846   25.1762 C   0  0  0  0  0  0  0  0  0  0  0  0
    9.3117  -15.7157   24.4194 C   0  0  2  0  0  0  0  0  0  0  0  0
    9.3968  -15.8597   22.9985 N   0  0  0  0  0  0  0  0  0  0  0  0
    8.6764  -14.4437   24.8273 C   0  0  0  0  0  0  0  0  0  0  0  0
    9.2108  -13.3876   24.4065 O   0  0  0  0  0  0  0  0  0  0  0  0
   11.0044  -14.8845   27.2294 C   0  0  0  0  0  0  0  0  0  0  0  0
   11.0640  -14.7412   28.5990 C   0  0  0  0  0  0  0  0  0  0  0  0
    7.5226  -14.3621   25.6481 N   0  0  0  0  0  0  0  0  0  0  0  0
    6.9709  -13.1580   26.1700 C   0  0  1  0  0  0  0  0  0  0  0  0
    5.4907  -13.3556   26.5446 C   0  0  0  0  0  0  0  0  0  0  0  0
    4.9217  -11.8081   27.2891 S   0  0  0  0  0  0  0  0  0  0  0  0
    7.7214  -12.5764   27.2921 C   0  0  0  0  0  0  0  0  0  0  0  0
    8.6392  -13.3815   27.9627 O   0  0  0  0  0  0  0  0  0  0  0  0
    7.6039  -11.3949   27.7027 O   0  0  0  0  0  0  0  0  0  0  0  0
  2  3  2  0
  2  1  1  0
  4  3  1  0
  5  4  2  0
  6  5  1  0
  7  6  1  0
  7  8  1  6
  9  7  1  0
  9 10  2  0
 11  5  1  0
 11 12  2  0
 12  2  1  0
 13 14  1  0
 14 15  2  0
 15 16  1  0
 17 16  2  0
 17 18  1  0
 19 18  1  1
 19 20  1  0
 20  9  1  0
 21 19  1  0
 22 21  2  0
 23 17  1  0
 24 14  1  0
 24 23  2  0
 25 21  1  0
 26 25  1  0
 26 27  1  1
 27 28  1  0
 29 30  1  0
 29 26  1  0
 31 29  2  0
M  END
$$$$
