MFQ.pdb
     RDKit          3D

 29 29  0  0  1  0  0  0  0  0999 V2000
    9.3414  -21.4319   22.6220 C   0  0  0  0  0  0  0  0  0  0  0  0
   10.0744  -21.2975   20.9558 S   0  0  0  0  0  0  0  0  0  0  0  0
    9.6976  -19.6726   20.2741 C   0  0  0  0  0  0  0  0  0  0  0  0
    9.8214  -18.6249   21.3559 C   0  0  0  0  0  0  0  0  0  0  0  0
    9.3741  -17.3025   20.7765 C   0  0  2  0  0  0  0  0  0  0  0  0
   10.2085  -16.9730   19.6717 N   0  0  0  0  0  0  0  0  0  0  0  0
    9.3790  -16.3208   21.8629 C   0  0  0  0  0  0  0  0  0  0  0  0
   10.4607  -15.7100   22.1525 O   0  0  0  0  0  0  0  0  0  0  0  0
    8.2378  -15.9919   22.6360 N   0  0  0  0  0  0  0  0  0  0  0  0
    8.1980  -15.2047   23.8134 C   0  0  1  0  0  0  0  0  0  0  0  0
    6.8967  -14.4949   24.1107 C   0  0  0  0  0  0  0  0  0  0  0  0
    6.9984  -13.6544   25.3263 C   0  0  0  0  0  0  0  0  0  0  0  0
    6.6841  -14.0479   26.5899 C   0  0  0  0  0  0  0  0  0  0  0  0
    6.8112  -13.1621   27.6492 C   0  0  0  0  0  0  0  0  0  0  0  0
    7.2496  -11.8797   27.4738 C   0  0  0  0  0  0  0  0  0  0  0  0
    7.5696  -11.4726   26.2025 C   0  0  0  0  0  0  0  0  0  0  0  0
    7.4476  -12.3325   25.1644 C   0  0  0  0  0  0  0  0  0  0  0  0
    8.8195  -15.8165   25.0040 C   0  0  0  0  0  0  0  0  0  0  0  0
    8.3844  -16.8849   25.5251 O   0  0  0  0  0  0  0  0  0  0  0  0
   14.4181  -15.4630   24.3688 N   0  0  0  0  0  0  0  0  0  0  0  0
   13.7573  -16.6918   24.4378 C   0  0  0  0  0  0  0  0  0  0  0  0
   13.8536  -17.5337   23.5208 O   0  0  0  0  0  0  0  0  0  0  0  0
   12.9148  -17.0032   25.6411 C   0  0  0  0  0  0  0  0  0  0  0  0
   12.2146  -15.7558   26.1222 C   0  0  0  0  0  0  0  0  0  0  0  0
   10.7977  -16.0164   26.5555 C   0  0  2  0  0  0  0  0  0  0  0  0
    9.9499  -15.2375   25.6378 N   0  0  0  0  0  0  0  0  0  0  0  0
   10.5067  -15.6166   27.9272 C   0  0  0  0  0  0  0  0  0  0  0  0
   10.0722  -14.4882   28.2311 O   0  0  0  0  0  0  0  0  0  0  0  0
   10.7116  -16.5140   28.9830 O   0  0  0  0  0  0  0  0  0  0  0  0
  2  1  1  0
  3  2  1  0
  4  3  1  0
  5  4  1  0
  5  6  1  6
  7  5  1  0
  7  8  2  0
  9  7  1  0
 10  9  1  0
 10 11  1  1
 11 12  1  0
 12 13  2  0
 12 17  1  0
 13 14  1  0
 14 15  2  0
 16 15  1  0
 17 16  2  0
 18 10  1  0
 19 18  2  0
 21 20  1  0
 21 22  2  0
 23 24  1  0
 23 21  1  0
 25 24  1  6
 25 27  1  0
 25 26  1  0
 26 18  1  0
 27 29  1  0
 28 27  2  0
M  END
$$$$
