MFQ.pdb
     RDKit          3D

 29 29  0  0  1  0  0  0  0  0999 V2000
    7.7465  -11.4452   20.1878 C   0  0  0  0  0  0  0  0  0  0  0  0
    7.3934  -12.7335   18.9438 S   0  0  0  0  0  0  0  0  0  0  0  0
    8.2619  -14.2459   19.3971 C   0  0  0  0  0  0  0  0  0  0  0  0
    8.2070  -14.4357   20.8951 C   0  0  0  0  0  0  0  0  0  0  0  0
    8.8835  -15.7469   21.2232 C   0  0  2  0  0  0  0  0  0  0  0  0
    8.5646  -16.6995   20.2150 N   0  0  0  0  0  0  0  0  0  0  0  0
    8.4755  -16.1270   22.5771 C   0  0  0  0  0  0  0  0  0  0  0  0
    7.6596  -17.0941   22.7389 O   0  0  0  0  0  0  0  0  0  0  0  0
    8.9342  -15.4803   23.7516 N   0  0  0  0  0  0  0  0  0  0  0  0
    8.4915  -15.6998   25.0795 C   0  0  1  0  0  0  0  0  0  0  0  0
    7.0705  -15.2924   25.3965 C   0  0  0  0  0  0  0  0  0  0  0  0
    6.9822  -13.8603   25.7648 C   0  0  0  0  0  0  0  0  0  0  0  0
    5.8337  -13.1773   26.0195 C   0  0  0  0  0  0  0  0  0  0  0  0
    5.8798  -11.8301   26.3448 C   0  0  0  0  0  0  0  0  0  0  0  0
    7.0582  -11.1426   26.4227 C   0  0  0  0  0  0  0  0  0  0  0  0
    8.2230  -11.8226   26.1677 C   0  0  0  0  0  0  0  0  0  0  0  0
    8.1846  -13.1376   25.8495 C   0  0  0  0  0  0  0  0  0  0  0  0
    8.8763  -16.9974   25.6678 C   0  0  0  0  0  0  0  0  0  0  0  0
    8.0619  -17.7192   26.3143 O   0  0  0  0  0  0  0  0  0  0  0  0
   10.9937  -20.9196   22.4871 N   0  0  0  0  0  0  0  0  0  0  0  0
   12.0283  -20.0315   22.7907 C   0  0  0  0  0  0  0  0  0  0  0  0
   12.9719  -19.8371   21.9964 O   0  0  0  0  0  0  0  0  0  0  0  0
   12.0018  -19.2971   24.1002 C   0  0  0  0  0  0  0  0  0  0  0  0
   10.7999  -19.7201   24.9091 C   0  0  0  0  0  0  0  0  0  0  0  0
   10.5568  -18.8286   26.0963 C   0  0  2  0  0  0  0  0  0  0  0  0
   10.1920  -17.5147   25.5407 N   0  0  0  0  0  0  0  0  0  0  0  0
   11.7104  -18.6705   26.9740 C   0  0  0  0  0  0  0  0  0  0  0  0
   12.2756  -17.5760   27.1668 O   0  0  0  0  0  0  0  0  0  0  0  0
   12.2393  -19.7766   27.6513 O   0  0  0  0  0  0  0  0  0  0  0  0
  2  1  1  0
  3  2  1  0
  4  3  1  0
  5  4  1  0
  5  6  1  6
  7  5  1  0
  7  8  2  0
  9  7  1  0
 10  9  1  0
 10 11  1  6
 11 12  1  0
 12 13  2  0
 12 17  1  0
 13 14  1  0
 14 15  2  0
 16 15  1  0
 17 16  2  0
 18 10  1  0
 19 18  2  0
 21 20  1  0
 21 22  2  0
 23 24  1  0
 23 21  1  0
 25 24  1  6
 25 27  1  0
 25 26  1  0
 26 18  1  0
 27 29  1  0
 28 27  2  0
M  END
$$$$
