MFQ.pdb
     RDKit          3D

 29 29  0  0  1  0  0  0  0  0999 V2000
    7.8293  -12.1712   18.1140 C   0  0  0  0  0  0  0  0  0  0  0  0
    8.3188  -13.5723   17.0516 S   0  0  0  0  0  0  0  0  0  0  0  0
    8.4094  -15.0683   18.0518 C   0  0  0  0  0  0  0  0  0  0  0  0
    8.7509  -14.7075   19.4788 C   0  0  0  0  0  0  0  0  0  0  0  0
    8.8477  -15.9900   20.2728 C   0  0  2  0  0  0  0  0  0  0  0  0
    7.7273  -16.8122   19.9662 N   0  0  0  0  0  0  0  0  0  0  0  0
    8.9727  -15.6256   21.6855 C   0  0  0  0  0  0  0  0  0  0  0  0
   10.1230  -15.3525   22.1642 O   0  0  0  0  0  0  0  0  0  0  0  0
    7.8782  -15.5526   22.5827 N   0  0  0  0  0  0  0  0  0  0  0  0
    7.9010  -15.1097   23.9283 C   0  0  1  0  0  0  0  0  0  0  0  0
    6.7726  -14.2020   24.3625 C   0  0  0  0  0  0  0  0  0  0  0  0
    6.9688  -13.7103   25.7461 C   0  0  0  0  0  0  0  0  0  0  0  0
    6.6699  -14.3981   26.8810 C   0  0  0  0  0  0  0  0  0  0  0  0
    6.8894  -13.8237   28.1239 C   0  0  0  0  0  0  0  0  0  0  0  0
    7.4060  -12.5660   28.2608 C   0  0  0  0  0  0  0  0  0  0  0  0
    7.7114  -11.8636   27.1217 C   0  0  0  0  0  0  0  0  0  0  0  0
    7.4993  -12.4186   25.9056 C   0  0  0  0  0  0  0  0  0  0  0  0
    8.2442  -16.1404   24.9273 C   0  0  0  0  0  0  0  0  0  0  0  0
    7.4360  -17.0532   25.2677 O   0  0  0  0  0  0  0  0  0  0  0  0
   12.9074  -19.3152   24.1369 N   0  0  0  0  0  0  0  0  0  0  0  0
   12.5969  -19.8881   25.3725 C   0  0  0  0  0  0  0  0  0  0  0  0
   13.1707  -20.9228   25.7716 O   0  0  0  0  0  0  0  0  0  0  0  0
   11.5510  -19.2436   26.2359 C   0  0  0  0  0  0  0  0  0  0  0  0
   11.0176  -18.0007   25.5659 C   0  0  0  0  0  0  0  0  0  0  0  0
    9.9398  -17.3257   26.3696 C   0  0  2  0  0  0  0  0  0  0  0  0
    9.5103  -16.1677   25.5681 N   0  0  0  0  0  0  0  0  0  0  0  0
   10.3721  -16.8618   27.6826 C   0  0  0  0  0  0  0  0  0  0  0  0
   10.6538  -15.6720   27.9268 O   0  0  0  0  0  0  0  0  0  0  0  0
   10.4893  -17.7645   28.7473 O   0  0  0  0  0  0  0  0  0  0  0  0
  2  1  1  0
  3  2  1  0
  4  3  1  0
  5  4  1  0
  5  6  1  1
  7  5  1  0
  7  8  2  0
  9  7  1  0
 10  9  1  0
 10 11  1  1
 11 12  1  0
 12 13  2  0
 12 17  1  0
 13 14  1  0
 14 15  2  0
 16 15  1  0
 17 16  2  0
 18 10  1  0
 19 18  2  0
 21 20  1  0
 21 22  2  0
 23 24  1  0
 23 21  1  0
 25 24  1  6
 25 27  1  0
 25 26  1  0
 26 18  1  0
 27 29  1  0
 28 27  2  0
M  END
$$$$
