MFQ.pdb
     RDKit          3D

 29 29  0  0  1  0  0  0  0  0999 V2000
    8.9034  -12.2168   19.4096 C   0  0  0  0  0  0  0  0  0  0  0  0
    7.7000  -13.2981   18.5645 S   0  0  0  0  0  0  0  0  0  0  0  0
    8.4573  -14.9060   18.2680 C   0  0  0  0  0  0  0  0  0  0  0  0
    9.6618  -15.0752   19.1645 C   0  0  0  0  0  0  0  0  0  0  0  0
    9.3991  -16.2484   20.0806 C   0  0  2  0  0  0  0  0  0  0  0  0
    8.2098  -16.9082   19.6615 N   0  0  0  0  0  0  0  0  0  0  0  0
    9.3661  -15.7378   21.4526 C   0  0  0  0  0  0  0  0  0  0  0  0
   10.4225  -15.2350   21.9610 O   0  0  0  0  0  0  0  0  0  0  0  0
    8.2143  -15.7628   22.2777 N   0  0  0  0  0  0  0  0  0  0  0  0
    8.1129  -15.3248   23.6214 C   0  0  1  0  0  0  0  0  0  0  0  0
    6.8429  -14.5993   24.0039 C   0  0  0  0  0  0  0  0  0  0  0  0
    6.9877  -13.8888   25.2957 C   0  0  0  0  0  0  0  0  0  0  0  0
    7.6080  -12.6916   25.4760 C   0  0  0  0  0  0  0  0  0  0  0  0
    7.6893  -12.1308   26.7416 C   0  0  0  0  0  0  0  0  0  0  0  0
    7.1599  -12.7441   27.8421 C   0  0  0  0  0  0  0  0  0  0  0  0
    6.5315  -13.9524   27.6710 C   0  0  0  0  0  0  0  0  0  0  0  0
    6.4490  -14.5051   26.4381 C   0  0  0  0  0  0  0  0  0  0  0  0
    8.5654  -16.2942   24.6380 C   0  0  0  0  0  0  0  0  0  0  0  0
    7.9824  -17.4014   24.8288 O   0  0  0  0  0  0  0  0  0  0  0  0
   13.9030  -18.6441   26.1134 N   0  0  0  0  0  0  0  0  0  0  0  0
   13.3910  -18.2706   24.8684 C   0  0  0  0  0  0  0  0  0  0  0  0
   13.9653  -18.5912   23.8070 O   0  0  0  0  0  0  0  0  0  0  0  0
   12.1239  -17.4672   24.8093 C   0  0  0  0  0  0  0  0  0  0  0  0
   11.7071  -17.0508   26.1989 C   0  0  0  0  0  0  0  0  0  0  0  0
   10.2143  -17.0628   26.3847 C   0  0  2  0  0  0  0  0  0  0  0  0
    9.6895  -16.0387   25.4662 N   0  0  0  0  0  0  0  0  0  0  0  0
    9.7761  -16.7550   27.7410 C   0  0  0  0  0  0  0  0  0  0  0  0
    9.3615  -17.6207   28.5367 O   0  0  0  0  0  0  0  0  0  0  0  0
    9.8069  -15.4357   28.2108 O   0  0  0  0  0  0  0  0  0  0  0  0
  2  1  1  0
  3  2  1  0
  4  3  1  0
  5  4  1  0
  5  6  1  6
  7  5  1  0
  7  8  2  0
  9  7  1  0
 10  9  1  0
 10 11  1  1
 11 12  1  0
 12 13  2  0
 12 17  1  0
 13 14  1  0
 14 15  2  0
 16 15  1  0
 17 16  2  0
 18 10  1  0
 19 18  2  0
 21 20  1  0
 21 22  2  0
 23 24  1  0
 23 21  1  0
 25 24  1  1
 25 27  1  0
 25 26  1  0
 26 18  1  0
 27 29  1  0
 28 27  2  0
M  END
$$$$
