QVH.pdb
     RDKit          3D

 27 27  0  0  1  0  0  0  0  0999 V2000
   15.6956  -12.0173  -15.9881 N   0  0  0  0  0  0  0  0  0  0  0  0
   15.9433  -12.7123  -17.1950 C   0  0  0  0  0  0  0  0  0  0  0  0
   14.9937  -13.3173  -17.7428 O   0  0  0  0  0  0  0  0  0  0  0  0
   17.2750  -12.7255  -17.7915 C   0  0  0  0  0  0  0  0  0  0  0  0
   18.3100  -11.9045  -17.1045 C   0  0  0  0  0  0  0  0  0  0  0  0
   19.6188  -12.5799  -16.8700 C   0  0  2  0  0  0  0  0  0  0  0  0
   19.4648  -13.8603  -16.2069 N   0  0  0  0  0  0  0  0  0  0  0  0
   20.4547  -11.6881  -15.9901 C   0  0  0  0  0  0  0  0  0  0  0  0
   20.1632  -11.5493  -14.7739 O   0  0  0  0  0  0  0  0  0  0  0  0
   24.1107  -11.9051  -15.4986 C   0  0  0  0  0  0  0  0  0  0  0  0
   23.8819  -10.5104  -16.0543 C   0  0  2  0  0  0  0  0  0  0  0  0
   24.8546   -9.5834  -15.3938 C   0  0  0  0  0  0  0  0  0  0  0  0
   22.4372  -10.1424  -15.7282 C   0  0  2  0  0  0  0  0  0  0  0  0
   21.5761  -10.9889  -16.4930 N   0  0  0  0  0  0  0  0  0  0  0  0
   22.1847   -8.7007  -15.9526 C   0  0  0  0  0  0  0  0  0  0  0  0
   22.2434   -8.2443  -17.1230 O   0  0  0  0  0  0  0  0  0  0  0  0
   21.8746   -7.7812  -14.9128 N   0  0  0  0  0  0  0  0  0  0  0  0
   21.5332   -6.3886  -15.1895 C   0  0  1  0  0  0  0  0  0  0  0  0
   20.0791   -6.2467  -15.5508 C   0  0  0  0  0  0  0  0  0  0  0  0
   19.1549   -6.8557  -14.5894 C   0  0  0  0  0  0  0  0  0  0  0  0
   19.5870   -7.5874  -13.4779 C   0  0  0  0  0  0  0  0  0  0  0  0
   18.4866   -7.9924  -12.8244 N   0  0  0  0  0  0  0  0  0  0  0  0
   17.4226   -7.5427  -13.4848 C   0  0  0  0  0  0  0  0  0  0  0  0
   17.7951   -6.8449  -14.5671 N   0  0  0  0  0  0  0  0  0  0  0  0
   21.8766   -5.5093  -14.0673 C   0  0  0  0  0  0  0  0  0  0  0  0
   22.3051   -6.0463  -13.0050 O   0  0  0  0  0  0  0  0  0  0  0  0
   21.7524   -4.1378  -14.1245 O   0  0  0  0  0  0  0  0  0  0  0  0
  2  1  1  0
  3  2  2  0
  4  2  1  0
  5  4  1  0
  6  8  1  0
  6  5  1  0
  6  7  1  1
  8  9  2  0
 11 10  1  1
 11 12  1  0
 13 11  1  0
 14  8  1  0
 13 14  1  6
 15 17  1  0
 15 13  1  0
 16 15  2  0
 18 25  1  0
 18 17  1  0
 18 19  1  1
 20 24  1  0
 20 19  1  0
 21 20  2  0
 22 21  1  0
 22 23  1  0
 23 24  2  0
 25 27  1  0
 26 25  2  0
M  END
$$$$
