QVH.pdb
     RDKit          3D

 27 27  0  0  1  0  0  0  0  0999 V2000
   20.5887  -16.5283  -19.8630 N   0  0  0  0  0  0  0  0  0  0  0  0
   21.4142  -15.9299  -20.8436 C   0  0  0  0  0  0  0  0  0  0  0  0
   21.2547  -16.2583  -22.0413 O   0  0  0  0  0  0  0  0  0  0  0  0
   22.4299  -14.9508  -20.4710 C   0  0  0  0  0  0  0  0  0  0  0  0
   22.4843  -14.5772  -19.0306 C   0  0  0  0  0  0  0  0  0  0  0  0
   23.8366  -14.6209  -18.4030 C   0  0  2  0  0  0  0  0  0  0  0  0
   24.1836  -15.9501  -17.9386 N   0  0  0  0  0  0  0  0  0  0  0  0
   23.8330  -13.6910  -17.2183 C   0  0  0  0  0  0  0  0  0  0  0  0
   23.2886  -14.0446  -16.1403 O   0  0  0  0  0  0  0  0  0  0  0  0
   25.9308  -10.0563  -14.8452 C   0  0  0  0  0  0  0  0  0  0  0  0
   25.9265  -11.0466  -15.9964 C   0  0  2  0  0  0  0  0  0  0  0  0
   26.4861  -10.3575  -17.2021 C   0  0  0  0  0  0  0  0  0  0  0  0
   24.4740  -11.4656  -16.2061 C   0  0  2  0  0  0  0  0  0  0  0  0
   24.4312  -12.4111  -17.2771 N   0  0  0  0  0  0  0  0  0  0  0  0
   23.6017  -10.2906  -16.4322 C   0  0  0  0  0  0  0  0  0  0  0  0
   23.6349   -9.7096  -17.5470 O   0  0  0  0  0  0  0  0  0  0  0  0
   22.7125   -9.7663  -15.4538 N   0  0  0  0  0  0  0  0  0  0  0  0
   21.8532   -8.6178  -15.7274 C   0  0  1  0  0  0  0  0  0  0  0  0
   20.4167   -9.0385  -15.8838 C   0  0  0  0  0  0  0  0  0  0  0  0
   19.4915   -7.9373  -16.1679 C   0  0  0  0  0  0  0  0  0  0  0  0
   19.9184   -6.6236  -16.3901 C   0  0  0  0  0  0  0  0  0  0  0  0
   18.8187   -5.8881  -16.6168 N   0  0  0  0  0  0  0  0  0  0  0  0
   17.7600   -6.6904  -16.5421 C   0  0  0  0  0  0  0  0  0  0  0  0
   18.1353   -7.9482  -16.2694 N   0  0  0  0  0  0  0  0  0  0  0  0
   21.9807   -7.5829  -14.6963 C   0  0  0  0  0  0  0  0  0  0  0  0
   22.2039   -7.9562  -13.5083 O   0  0  0  0  0  0  0  0  0  0  0  0
   21.8687   -6.2363  -14.9680 O   0  0  0  0  0  0  0  0  0  0  0  0
  2  1  1  0
  3  2  2  0
  4  2  1  0
  5  4  1  0
  6  8  1  0
  6  5  1  0
  6  7  1  1
  8  9  2  0
 11 10  1  1
 11 12  1  0
 13 11  1  0
 14  8  1  0
 13 14  1  6
 15 17  1  0
 15 13  1  0
 16 15  2  0
 18 25  1  0
 18 17  1  0
 18 19  1  1
 20 24  1  0
 20 19  1  0
 21 20  2  0
 22 21  1  0
 22 23  1  0
 23 24  2  0
 25 27  1  0
 26 25  2  0
M  END
$$$$
