QVH.pdb
     RDKit          3D

 27 27  0  0  1  0  0  0  0  0999 V2000
   17.9889  -14.3836  -17.8823 N   0  0  0  0  0  0  0  0  0  0  0  0
   17.5041  -14.7582  -16.6072 C   0  0  0  0  0  0  0  0  0  0  0  0
   17.4539  -15.9759  -16.3202 O   0  0  0  0  0  0  0  0  0  0  0  0
   17.0716  -13.7500  -15.6450 C   0  0  0  0  0  0  0  0  0  0  0  0
   17.1864  -12.3318  -16.0841 C   0  0  0  0  0  0  0  0  0  0  0  0
   16.7053  -11.3127  -15.1073 C   0  0  2  0  0  0  0  0  0  0  0  0
   15.2766  -11.4052  -14.8763 N   0  0  0  0  0  0  0  0  0  0  0  0
   17.0071   -9.9478  -15.6680 C   0  0  0  0  0  0  0  0  0  0  0  0
   16.3455   -9.5057  -16.6429 O   0  0  0  0  0  0  0  0  0  0  0  0
   17.4328   -5.5044  -15.5230 C   0  0  0  0  0  0  0  0  0  0  0  0
   17.0418   -6.9553  -15.3036 C   0  0  2  0  0  0  0  0  0  0  0  0
   16.5175   -7.0875  -13.9073 C   0  0  0  0  0  0  0  0  0  0  0  0
   18.3053   -7.7846  -15.5155 C   0  0  2  0  0  0  0  0  0  0  0  0
   18.0270   -9.1315  -15.1267 N   0  0  0  0  0  0  0  0  0  0  0  0
   19.4607   -7.1990  -14.7980 C   0  0  0  0  0  0  0  0  0  0  0  0
   19.5510   -7.3552  -13.5534 O   0  0  0  0  0  0  0  0  0  0  0  0
   20.4939   -6.4579  -15.4352 N   0  0  0  0  0  0  0  0  0  0  0  0
   21.7069   -6.0579  -14.7274 C   0  0  1  0  0  0  0  0  0  0  0  0
   22.8899   -6.0160  -15.6566 C   0  0  0  0  0  0  0  0  0  0  0  0
   23.2631   -7.3172  -16.2196 C   0  0  0  0  0  0  0  0  0  0  0  0
   22.6919   -8.5217  -15.7947 C   0  0  0  0  0  0  0  0  0  0  0  0
   23.2609   -9.5003  -16.5160 N   0  0  0  0  0  0  0  0  0  0  0  0
   24.1396   -8.9460  -17.3473 C   0  0  0  0  0  0  0  0  0  0  0  0
   24.1659   -7.6147  -17.1924 N   0  0  0  0  0  0  0  0  0  0  0  0
   21.5401   -4.7721  -14.0425 C   0  0  0  0  0  0  0  0  0  0  0  0
   22.4617   -4.3934  -13.2629 O   0  0  0  0  0  0  0  0  0  0  0  0
   20.4323   -3.9699  -14.2132 O   0  0  0  0  0  0  0  0  0  0  0  0
  2  1  1  0
  3  2  2  0
  4  2  1  0
  5  4  1  0
  6  8  1  0
  6  5  1  0
  6  7  1  6
  8  9  2  0
 11 10  1  1
 11 12  1  0
 13 11  1  0
 14  8  1  0
 13 14  1  1
 15 17  1  0
 15 13  1  0
 16 15  2  0
 18 25  1  0
 18 17  1  0
 18 19  1  6
 20 24  1  0
 20 19  1  0
 21 20  2  0
 22 21  1  0
 22 23  1  0
 23 24  2  0
 25 27  1  0
 26 25  2  0
M  END
$$$$
