QVH.pdb
     RDKit          3D

 27 27  0  0  1  0  0  0  0  0999 V2000
   27.5094  -11.3780  -22.1088 N   0  0  0  0  0  0  0  0  0  0  0  0
   27.5814  -12.2764  -21.0184 C   0  0  0  0  0  0  0  0  0  0  0  0
   28.5832  -12.2284  -20.2688 O   0  0  0  0  0  0  0  0  0  0  0  0
   26.5131  -13.2388  -20.7696 C   0  0  0  0  0  0  0  0  0  0  0  0
   25.4886  -12.8373  -19.7664 C   0  0  0  0  0  0  0  0  0  0  0  0
   26.0013  -12.5698  -18.3917 C   0  0  2  0  0  0  0  0  0  0  0  0
   26.5861  -13.7498  -17.7847 N   0  0  0  0  0  0  0  0  0  0  0  0
   24.8431  -12.1229  -17.5390 C   0  0  0  0  0  0  0  0  0  0  0  0
   23.9641  -12.9507  -17.1846 O   0  0  0  0  0  0  0  0  0  0  0  0
   23.0859  -10.4409  -13.8047 C   0  0  0  0  0  0  0  0  0  0  0  0
   24.0552  -11.0160  -14.8224 C   0  0  2  0  0  0  0  0  0  0  0  0
   25.4469  -10.7510  -14.3377 C   0  0  0  0  0  0  0  0  0  0  0  0
   23.7710  -10.3082  -16.1442 C   0  0  2  0  0  0  0  0  0  0  0  0
   24.7072  -10.7807  -17.1154 N   0  0  0  0  0  0  0  0  0  0  0  0
   23.7932   -8.8364  -15.9829 C   0  0  0  0  0  0  0  0  0  0  0  0
   24.8826   -8.2664  -15.7183 O   0  0  0  0  0  0  0  0  0  0  0  0
   22.6428   -8.0098  -16.1097 N   0  0  0  0  0  0  0  0  0  0  0  0
   22.7012   -6.5665  -15.8954 C   0  0  1  0  0  0  0  0  0  0  0  0
   21.8143   -5.8361  -16.8675 C   0  0  0  0  0  0  0  0  0  0  0  0
   21.8547   -4.3758  -16.7433 C   0  0  0  0  0  0  0  0  0  0  0  0
   23.0170   -3.6265  -16.9557 C   0  0  0  0  0  0  0  0  0  0  0  0
   22.6932   -2.3386  -16.7596 N   0  0  0  0  0  0  0  0  0  0  0  0
   21.4025   -2.2788  -16.4421 C   0  0  0  0  0  0  0  0  0  0  0  0
   20.8605   -3.5048  -16.4233 N   0  0  0  0  0  0  0  0  0  0  0  0
   22.3643   -6.2058  -14.5146 C   0  0  0  0  0  0  0  0  0  0  0  0
   21.4339   -6.8475  -13.9461 O   0  0  0  0  0  0  0  0  0  0  0  0
   23.0139   -5.2078  -13.8207 O   0  0  0  0  0  0  0  0  0  0  0  0
  2  1  1  0
  3  2  2  0
  4  2  1  0
  5  4  1  0
  6  8  1  0
  6  5  1  0
  6  7  1  1
  8  9  2  0
 11 10  1  1
 11 12  1  0
 13 11  1  0
 14  8  1  0
 13 14  1  6
 15 17  1  0
 15 13  1  0
 16 15  2  0
 18 25  1  0
 18 17  1  0
 18 19  1  6
 20 24  1  0
 20 19  1  0
 21 20  2  0
 22 21  1  0
 22 23  1  0
 23 24  2  0
 25 27  1  0
 26 25  2  0
M  END
$$$$
