QVH.pdb
     RDKit          3D

 27 27  0  0  1  0  0  0  0  0999 V2000
   18.3178  -13.0309  -18.6643 N   0  0  0  0  0  0  0  0  0  0  0  0
   19.0983  -14.1965  -18.8468 C   0  0  0  0  0  0  0  0  0  0  0  0
   18.6279  -15.1296  -19.5366 O   0  0  0  0  0  0  0  0  0  0  0  0
   20.4231  -14.3121  -18.2459 C   0  0  0  0  0  0  0  0  0  0  0  0
   20.8958  -13.1338  -17.4678 C   0  0  0  0  0  0  0  0  0  0  0  0
   21.9080  -12.2751  -18.1478 C   0  0  2  0  0  0  0  0  0  0  0  0
   23.1616  -12.9711  -18.3647 N   0  0  0  0  0  0  0  0  0  0  0  0
   22.1748  -11.0811  -17.2694 C   0  0  0  0  0  0  0  0  0  0  0  0
   23.0211  -11.1571  -16.3413 O   0  0  0  0  0  0  0  0  0  0  0  0
   20.6598   -7.4133  -18.4778 C   0  0  0  0  0  0  0  0  0  0  0  0
   21.8767   -7.4938  -17.5729 C   0  0  2  0  0  0  0  0  0  0  0  0
   23.0853   -7.6778  -18.4375 C   0  0  0  0  0  0  0  0  0  0  0  0
   21.6545   -8.6871  -16.6479 C   0  0  2  0  0  0  0  0  0  0  0  0
   21.4944   -9.8556  -17.4554 N   0  0  0  0  0  0  0  0  0  0  0  0
   20.5156   -8.4532  -15.7310 C   0  0  0  0  0  0  0  0  0  0  0  0
   19.3592   -8.7888  -16.0938 O   0  0  0  0  0  0  0  0  0  0  0  0
   20.6457   -7.8633  -14.4434 N   0  0  0  0  0  0  0  0  0  0  0  0
   19.4867   -7.5910  -13.5978 C   0  0  1  0  0  0  0  0  0  0  0  0
   19.6190   -8.2671  -12.2598 C   0  0  0  0  0  0  0  0  0  0  0  0
   18.5293   -7.9740  -11.3237 C   0  0  0  0  0  0  0  0  0  0  0  0
   18.5732   -6.9117  -10.4143 C   0  0  0  0  0  0  0  0  0  0  0  0
   17.4223   -6.9401   -9.7240 N   0  0  0  0  0  0  0  0  0  0  0  0
   16.6949   -7.9603  -10.1716 C   0  0  0  0  0  0  0  0  0  0  0  0
   17.3413   -8.6124  -11.1483 N   0  0  0  0  0  0  0  0  0  0  0  0
   19.2590   -6.1520  -13.4311 C   0  0  0  0  0  0  0  0  0  0  0  0
   20.2710   -5.3940  -13.3901 O   0  0  0  0  0  0  0  0  0  0  0  0
   18.0010   -5.6003  -13.3190 O   0  0  0  0  0  0  0  0  0  0  0  0
  2  1  1  0
  3  2  2  0
  4  2  1  0
  5  4  1  0
  6  8  1  0
  6  5  1  0
  6  7  1  1
  8  9  2  0
 11 10  1  6
 11 12  1  0
 13 11  1  0
 14  8  1  0
 13 14  1  6
 15 17  1  0
 15 13  1  0
 16 15  2  0
 18 25  1  0
 18 17  1  0
 18 19  1  1
 20 24  1  0
 20 19  1  0
 21 20  2  0
 22 21  1  0
 22 23  1  0
 23 24  2  0
 25 27  1  0
 26 25  2  0
M  END
$$$$
