MES.pdb
     RDKit          3D

 24 23  0  0  1  0  0  0  0  0999 V2000
   17.3115  -11.5347  -21.7445 C   0  0  0  0  0  0  0  0  0  0  0  0
   17.2452  -10.5193  -20.2892 S   0  0  0  0  0  0  0  0  0  0  0  0
   18.7337  -10.5722  -19.3088 C   0  0  0  0  0  0  0  0  0  0  0  0
   18.6471   -9.8295  -18.0215 C   0  0  0  0  0  0  0  0  0  0  0  0
   19.9062   -9.8843  -17.2414 C   0  0  2  0  0  0  0  0  0  0  0  0
   19.8417  -11.0582  -16.3803 N   0  0  0  0  0  0  0  0  0  0  0  0
   20.0400   -8.6498  -16.3735 C   0  0  0  0  0  0  0  0  0  0  0  0
   19.3458   -8.5978  -15.3319 O   0  0  0  0  0  0  0  0  0  0  0  0
   20.9291   -7.6345  -16.7786 N   0  0  0  0  0  0  0  0  0  0  0  0
   21.0501   -6.3979  -15.9688 C   0  0  1  0  0  0  0  0  0  0  0  0
   22.4569   -6.2666  -15.4664 C   0  0  0  0  0  0  0  0  0  0  0  0
   22.6463   -4.9985  -14.7080 C   0  0  0  0  0  0  0  0  0  0  0  0
   22.0990   -5.1609  -13.3266 C   0  0  0  0  0  0  0  0  0  0  0  0
   21.4497   -4.2338  -12.7814 O   0  0  0  0  0  0  0  0  0  0  0  0
   20.7427   -5.2733  -16.8811 C   0  0  0  0  0  0  0  0  0  0  0  0
   21.2995   -5.0618  -17.9893 O   0  0  0  0  0  0  0  0  0  0  0  0
   22.3081   -6.3416  -12.6406 O   0  0  0  0  0  0  0  0  0  0  0  0
   17.8542   -1.3816  -17.5093 O   0  0  0  0  0  0  0  0  0  0  0  0
   18.1971   -2.4768  -16.7507 C   0  0  0  0  0  0  0  0  0  0  0  0
   19.4525   -3.1376  -17.3346 C   0  0  2  0  0  0  0  0  0  0  0  0
   19.7415   -4.2888  -16.5627 N   0  0  0  0  0  0  0  0  0  0  0  0
   20.4828   -2.1264  -17.4100 C   0  0  0  0  0  0  0  0  0  0  0  0
   21.1637   -1.8179  -16.4151 O   0  0  0  0  0  0  0  0  0  0  0  0
   20.7346   -1.4768  -18.5969 O   0  0  0  0  0  0  0  0  0  0  0  0
  1  2  1  0
  3  2  1  0
  4  3  1  0
  5  4  1  0
  5  7  1  0
  5  6  1  1
  7  8  2  0
  9  7  1  0
  9 10  1  0
 10 11  1  6
 11 12  1  0
 12 13  1  0
 13 17  1  0
 13 14  2  0
 15 10  1  0
 15 16  2  0
 18 19  1  0
 20 19  1  1
 20 22  1  0
 20 21  1  0
 21 15  1  0
 22 24  1  0
 23 22  2  0
M  END
$$$$
