MES.pdb
     RDKit          3D

 24 23  0  0  1  0  0  0  0  0999 V2000
   28.4908  -11.6802  -15.7359 C   0  0  0  0  0  0  0  0  0  0  0  0
   28.0082  -13.3458  -15.3539 S   0  0  0  0  0  0  0  0  0  0  0  0
   26.2486  -13.6213  -15.4411 C   0  0  0  0  0  0  0  0  0  0  0  0
   25.4642  -12.4387  -15.8909 C   0  0  0  0  0  0  0  0  0  0  0  0
   24.0013  -12.6750  -15.8606 C   0  0  2  0  0  0  0  0  0  0  0  0
   23.7084  -13.7537  -16.7956 N   0  0  0  0  0  0  0  0  0  0  0  0
   23.2593  -11.4308  -16.3038 C   0  0  0  0  0  0  0  0  0  0  0  0
   23.2593  -11.1633  -17.5278 O   0  0  0  0  0  0  0  0  0  0  0  0
   22.6144  -10.6468  -15.3267 N   0  0  0  0  0  0  0  0  0  0  0  0
   21.7294   -9.5327  -15.7453 C   0  0  1  0  0  0  0  0  0  0  0  0
   20.3245   -9.8200  -15.3066 C   0  0  0  0  0  0  0  0  0  0  0  0
   19.7448  -10.9676  -16.0590 C   0  0  0  0  0  0  0  0  0  0  0  0
   19.3212  -10.5068  -17.4164 C   0  0  0  0  0  0  0  0  0  0  0  0
   18.7081   -9.4200  -17.5618 O   0  0  0  0  0  0  0  0  0  0  0  0
   22.2279   -8.3241  -15.0510 C   0  0  0  0  0  0  0  0  0  0  0  0
   22.6553   -8.2882  -13.8683 O   0  0  0  0  0  0  0  0  0  0  0  0
   19.6058  -11.2824  -18.5236 O   0  0  0  0  0  0  0  0  0  0  0  0
   21.8890   -4.7760  -17.0719 O   0  0  0  0  0  0  0  0  0  0  0  0
   22.9511   -4.8057  -16.1980 C   0  0  0  0  0  0  0  0  0  0  0  0
   22.6786   -5.8287  -15.0877 C   0  0  2  0  0  0  0  0  0  0  0  0
   22.2660   -7.0380  -15.6973 N   0  0  0  0  0  0  0  0  0  0  0  0
   21.7587   -5.2221  -14.1518 C   0  0  0  0  0  0  0  0  0  0  0  0
   20.6021   -5.6567  -14.0042 O   0  0  0  0  0  0  0  0  0  0  0  0
   22.1477   -4.1394  -13.3965 O   0  0  0  0  0  0  0  0  0  0  0  0
  1  2  1  0
  3  2  1  0
  4  3  1  0
  5  4  1  0
  5  7  1  0
  5  6  1  6
  7  8  2  0
  9  7  1  0
  9 10  1  0
 10 11  1  1
 11 12  1  0
 12 13  1  0
 13 17  1  0
 13 14  2  0
 15 10  1  0
 15 16  2  0
 18 19  1  0
 20 19  1  6
 20 22  1  0
 20 21  1  0
 21 15  1  0
 22 24  1  0
 23 22  2  0
M  END
$$$$
