MES.pdb
     RDKit          3D

 24 23  0  0  1  0  0  0  0  0999 V2000
   28.2015  -10.9064  -15.9296 C   0  0  0  0  0  0  0  0  0  0  0  0
   27.7178  -12.5882  -16.2314 S   0  0  0  0  0  0  0  0  0  0  0  0
   25.9867  -12.9006  -15.9393 C   0  0  0  0  0  0  0  0  0  0  0  0
   25.0825  -11.8031  -16.3798 C   0  0  0  0  0  0  0  0  0  0  0  0
   23.6498  -12.1225  -16.1743 C   0  0  2  0  0  0  0  0  0  0  0  0
   23.3005  -13.1981  -17.0933 N   0  0  0  0  0  0  0  0  0  0  0  0
   22.7922  -10.9141  -16.4895 C   0  0  0  0  0  0  0  0  0  0  0  0
   22.6757  -10.5865  -17.6932 O   0  0  0  0  0  0  0  0  0  0  0  0
   22.1764  -10.2281  -15.4239 N   0  0  0  0  0  0  0  0  0  0  0  0
   21.3180   -9.0521  -15.7056 C   0  0  1  0  0  0  0  0  0  0  0  0
   19.9439   -9.2946  -15.1562 C   0  0  0  0  0  0  0  0  0  0  0  0
   19.2313  -10.3536  -15.9241 C   0  0  0  0  0  0  0  0  0  0  0  0
   17.9138  -10.6337  -15.2762 C   0  0  0  0  0  0  0  0  0  0  0  0
   17.8588  -11.1699  -14.1414 O   0  0  0  0  0  0  0  0  0  0  0  0
   21.9386   -7.9076  -15.0008 C   0  0  0  0  0  0  0  0  0  0  0  0
   22.4821   -7.9587  -13.8673 O   0  0  0  0  0  0  0  0  0  0  0  0
   16.7434  -10.3004  -15.9301 O   0  0  0  0  0  0  0  0  0  0  0  0
   23.4215   -4.8346  -17.0710 O   0  0  0  0  0  0  0  0  0  0  0  0
   22.6733   -4.3496  -16.0233 C   0  0  0  0  0  0  0  0  0  0  0  0
   22.5140   -5.4382  -14.9542 C   0  0  2  0  0  0  0  0  0  0  0  0
   21.9724   -6.5885  -15.5770 N   0  0  0  0  0  0  0  0  0  0  0  0
   21.7570   -4.8694  -13.8618 C   0  0  0  0  0  0  0  0  0  0  0  0
   20.6061   -5.2613  -13.5962 O   0  0  0  0  0  0  0  0  0  0  0  0
   22.2996   -3.8718  -13.0845 O   0  0  0  0  0  0  0  0  0  0  0  0
  1  2  1  0
  3  2  1  0
  4  3  1  0
  5  4  1  0
  5  7  1  0
  5  6  1  6
  7  8  2  0
  9  7  1  0
  9 10  1  0
 10 11  1  1
 11 12  1  0
 12 13  1  0
 13 17  1  0
 13 14  2  0
 15 10  1  0
 15 16  2  0
 18 19  1  0
 20 19  1  6
 20 22  1  0
 20 21  1  0
 21 15  1  0
 22 24  1  0
 23 22  2  0
M  END
$$$$
