MES.pdb
     RDKit          3D

 24 23  0  0  1  0  0  0  0  0999 V2000
   18.4833  -14.7224  -21.0748 C   0  0  0  0  0  0  0  0  0  0  0  0
   18.2287  -13.7473  -19.6127 S   0  0  0  0  0  0  0  0  0  0  0  0
   19.7234  -13.0234  -18.9634 C   0  0  0  0  0  0  0  0  0  0  0  0
   19.5368  -12.2620  -17.6979 C   0  0  0  0  0  0  0  0  0  0  0  0
   20.7796  -11.5973  -17.2393 C   0  0  2  0  0  0  0  0  0  0  0  0
   21.6798  -12.6331  -16.7490 N   0  0  0  0  0  0  0  0  0  0  0  0
   20.4750  -10.6395  -16.1057 C   0  0  0  0  0  0  0  0  0  0  0  0
   20.0730  -11.1316  -15.0259 O   0  0  0  0  0  0  0  0  0  0  0  0
   20.6575   -9.2592  -16.3222 N   0  0  0  0  0  0  0  0  0  0  0  0
   20.2945   -8.2941  -15.2563 C   0  0  1  0  0  0  0  0  0  0  0  0
   21.4401   -7.3551  -15.0225 C   0  0  0  0  0  0  0  0  0  0  0  0
   21.1701   -6.4445  -13.8748 C   0  0  0  0  0  0  0  0  0  0  0  0
   22.3708   -5.5893  -13.6279 C   0  0  0  0  0  0  0  0  0  0  0  0
   23.4164   -5.7407  -14.3078 O   0  0  0  0  0  0  0  0  0  0  0  0
   19.1281   -7.5363  -15.7631 C   0  0  0  0  0  0  0  0  0  0  0  0
   19.0743   -6.9355  -16.8672 O   0  0  0  0  0  0  0  0  0  0  0  0
   22.3326   -4.6217  -12.6425 O   0  0  0  0  0  0  0  0  0  0  0  0
   14.6489   -5.9764  -14.5629 O   0  0  0  0  0  0  0  0  0  0  0  0
   15.7521   -6.7342  -14.2445 C   0  0  0  0  0  0  0  0  0  0  0  0
   16.8025   -6.6106  -15.3558 C   0  0  2  0  0  0  0  0  0  0  0  0
   17.9104   -7.4188  -15.0038 N   0  0  0  0  0  0  0  0  0  0  0  0
   17.0595   -5.2025  -15.5586 C   0  0  0  0  0  0  0  0  0  0  0  0
   16.6092   -4.5962  -16.5476 O   0  0  0  0  0  0  0  0  0  0  0  0
   17.8160   -4.4958  -14.6518 O   0  0  0  0  0  0  0  0  0  0  0  0
  1  2  1  0
  3  2  1  0
  4  3  1  0
  5  4  1  0
  5  7  1  0
  5  6  1  1
  7  8  2  0
  9  7  1  0
  9 10  1  0
 10 11  1  6
 11 12  1  0
 12 13  1  0
 13 17  1  0
 13 14  2  0
 15 10  1  0
 15 16  2  0
 18 19  1  0
 20 19  1  1
 20 22  1  0
 20 21  1  0
 21 15  1  0
 22 24  1  0
 23 22  2  0
M  END
$$$$
