MES.pdb
     RDKit          3D

 24 23  0  0  1  0  0  0  0  0999 V2000
   20.3171  -17.3225  -14.9127 C   0  0  0  0  0  0  0  0  0  0  0  0
   21.0593  -15.7109  -14.8394 S   0  0  0  0  0  0  0  0  0  0  0  0
   21.6179  -15.1054  -16.4209 C   0  0  0  0  0  0  0  0  0  0  0  0
   22.0843  -13.6917  -16.4066 C   0  0  0  0  0  0  0  0  0  0  0  0
   22.4064  -13.1799  -17.7597 C   0  0  2  0  0  0  0  0  0  0  0  0
   23.6238  -13.8453  -18.2057 N   0  0  0  0  0  0  0  0  0  0  0  0
   22.6572  -11.6866  -17.7101 C   0  0  0  0  0  0  0  0  0  0  0  0
   23.8271  -11.3048  -17.4753 O   0  0  0  0  0  0  0  0  0  0  0  0
   21.5729  -10.8136  -17.9280 N   0  0  0  0  0  0  0  0  0  0  0  0
   21.8108   -9.3518  -18.0052 C   0  0  1  0  0  0  0  0  0  0  0  0
   20.9681   -8.7665  -19.0988 C   0  0  0  0  0  0  0  0  0  0  0  0
   21.2758   -7.3241  -19.3084 C   0  0  0  0  0  0  0  0  0  0  0  0
   20.4003   -6.7832  -20.3924 C   0  0  0  0  0  0  0  0  0  0  0  0
   20.8410   -6.6386  -21.5600 O   0  0  0  0  0  0  0  0  0  0  0  0
   21.3878   -8.7935  -16.7010 C   0  0  0  0  0  0  0  0  0  0  0  0
   20.4810   -9.2648  -15.9671 O   0  0  0  0  0  0  0  0  0  0  0  0
   19.0928   -6.4381  -20.1097 O   0  0  0  0  0  0  0  0  0  0  0  0
   22.2043   -5.1502  -13.5401 O   0  0  0  0  0  0  0  0  0  0  0  0
   22.4804   -5.7334  -14.7551 C   0  0  0  0  0  0  0  0  0  0  0  0
   21.6175   -6.9892  -14.9338 C   0  0  2  0  0  0  0  0  0  0  0  0
   22.0032   -7.6178  -16.1424 N   0  0  0  0  0  0  0  0  0  0  0  0
   20.2336   -6.5874  -14.8194 C   0  0  0  0  0  0  0  0  0  0  0  0
   19.6018   -6.1494  -15.7979 O   0  0  0  0  0  0  0  0  0  0  0  0
   19.5791   -6.6822  -13.6125 O   0  0  0  0  0  0  0  0  0  0  0  0
  1  2  1  0
  3  2  1  0
  4  3  1  0
  5  4  1  0
  5  7  1  0
  5  6  1  1
  7  8  2  0
  9  7  1  0
  9 10  1  0
 10 11  1  6
 11 12  1  0
 12 13  1  0
 13 17  1  0
 13 14  2  0
 15 10  1  0
 15 16  2  0
 18 19  1  0
 20 19  1  6
 20 22  1  0
 20 21  1  0
 21 15  1  0
 22 24  1  0
 23 22  2  0
M  END
$$$$
