MES.pdb
     RDKit          3D

 24 23  0  0  1  0  0  0  0  0999 V2000
   17.6842  -12.7347  -20.5046 C   0  0  0  0  0  0  0  0  0  0  0  0
   17.7857  -11.5664  -19.1712 S   0  0  0  0  0  0  0  0  0  0  0  0
   16.6410  -11.8917  -17.8432 C   0  0  0  0  0  0  0  0  0  0  0  0
   16.6766  -10.8892  -16.7433 C   0  0  0  0  0  0  0  0  0  0  0  0
   18.0048  -10.7988  -16.0917 C   0  0  2  0  0  0  0  0  0  0  0  0
   18.1529  -11.9624  -15.2270 N   0  0  0  0  0  0  0  0  0  0  0  0
   18.0889   -9.5467  -15.2430 C   0  0  0  0  0  0  0  0  0  0  0  0
   17.3666   -9.4921  -14.2207 O   0  0  0  0  0  0  0  0  0  0  0  0
   18.9658   -8.5190  -15.6430 N   0  0  0  0  0  0  0  0  0  0  0  0
   19.0287   -7.2608  -14.8605 C   0  0  1  0  0  0  0  0  0  0  0  0
   20.4577   -6.9514  -14.5276 C   0  0  0  0  0  0  0  0  0  0  0  0
   20.5637   -5.7488  -13.6549 C   0  0  0  0  0  0  0  0  0  0  0  0
   22.0015   -5.4936  -13.3356 C   0  0  0  0  0  0  0  0  0  0  0  0
   22.4078   -4.3292  -13.0957 O   0  0  0  0  0  0  0  0  0  0  0  0
   18.4831   -6.1998  -15.7370 C   0  0  0  0  0  0  0  0  0  0  0  0
   18.7759   -6.0354  -16.9495 O   0  0  0  0  0  0  0  0  0  0  0  0
   22.8943   -6.5473  -13.3033 O   0  0  0  0  0  0  0  0  0  0  0  0
   14.8576   -5.1079  -15.4816 O   0  0  0  0  0  0  0  0  0  0  0  0
   15.5540   -3.9221  -15.5204 C   0  0  0  0  0  0  0  0  0  0  0  0
   16.9809   -4.1768  -16.0231 C   0  0  2  0  0  0  0  0  0  0  0  0
   17.5350   -5.2292  -15.2552 N   0  0  0  0  0  0  0  0  0  0  0  0
   17.6829   -2.9132  -16.0019 C   0  0  0  0  0  0  0  0  0  0  0  0
   18.4085   -2.5897  -15.0441 O   0  0  0  0  0  0  0  0  0  0  0  0
   17.5617   -2.0322  -17.0522 O   0  0  0  0  0  0  0  0  0  0  0  0
  1  2  1  0
  3  2  1  0
  4  3  1  0
  5  4  1  0
  5  7  1  0
  5  6  1  1
  7  8  2  0
  9  7  1  0
  9 10  1  0
 10 11  1  6
 11 12  1  0
 12 13  1  0
 13 17  1  0
 13 14  2  0
 15 10  1  0
 15 16  2  0
 18 19  1  0
 20 19  1  1
 20 22  1  0
 20 21  1  0
 21 15  1  0
 22 24  1  0
 23 22  2  0
M  END
$$$$
