MES.pdb
     RDKit          3D

 24 23  0  0  1  0  0  0  0  0999 V2000
   13.7710   -9.2132  -15.1908 C   0  0  0  0  0  0  0  0  0  0  0  0
   14.0719  -10.8774  -14.6493 S   0  0  0  0  0  0  0  0  0  0  0  0
   15.5138  -11.6229  -15.3876 C   0  0  0  0  0  0  0  0  0  0  0  0
   16.7646  -10.8324  -15.2245 C   0  0  0  0  0  0  0  0  0  0  0  0
   17.9103  -11.4114  -15.9655 C   0  0  2  0  0  0  0  0  0  0  0  0
   18.2157  -12.7044  -15.3668 N   0  0  0  0  0  0  0  0  0  0  0  0
   19.1252  -10.5155  -15.8371 C   0  0  0  0  0  0  0  0  0  0  0  0
   19.9225  -10.7540  -14.9007 O   0  0  0  0  0  0  0  0  0  0  0  0
   19.2936   -9.4710  -16.7678 N   0  0  0  0  0  0  0  0  0  0  0  0
   20.5167   -8.6338  -16.7191 C   0  0  1  0  0  0  0  0  0  0  0  0
   20.7831   -8.0604  -18.0789 C   0  0  0  0  0  0  0  0  0  0  0  0
   21.5109   -9.0304  -18.9440 C   0  0  0  0  0  0  0  0  0  0  0  0
   21.7750   -8.4053  -20.2758 C   0  0  0  0  0  0  0  0  0  0  0  0
   22.8460   -7.7852  -20.4917 O   0  0  0  0  0  0  0  0  0  0  0  0
   20.2310   -7.5374  -15.7663 C   0  0  0  0  0  0  0  0  0  0  0  0
   19.1086   -6.9950  -15.5960 O   0  0  0  0  0  0  0  0  0  0  0  0
   20.8331   -8.5095  -21.2811 O   0  0  0  0  0  0  0  0  0  0  0  0
   22.0394   -5.0771  -11.9762 O   0  0  0  0  0  0  0  0  0  0  0  0
   22.2295   -6.0109  -12.9684 C   0  0  0  0  0  0  0  0  0  0  0  0
   21.0520   -5.9684  -13.9509 C   0  0  2  0  0  0  0  0  0  0  0  0
   21.2548   -6.9783  -14.9223 N   0  0  0  0  0  0  0  0  0  0  0  0
   20.9361   -4.6110  -14.4345 C   0  0  0  0  0  0  0  0  0  0  0  0
   21.5939   -4.2119  -15.4125 O   0  0  0  0  0  0  0  0  0  0  0  0
   20.0865   -3.7224  -13.8162 O   0  0  0  0  0  0  0  0  0  0  0  0
  1  2  1  0
  3  2  1  0
  4  3  1  0
  5  4  1  0
  5  7  1  0
  5  6  1  1
  7  8  2  0
  9  7  1  0
  9 10  1  0
 10 11  1  6
 11 12  1  0
 12 13  1  0
 13 17  1  0
 13 14  2  0
 15 10  1  0
 15 16  2  0
 18 19  1  0
 20 19  1  1
 20 22  1  0
 20 21  1  0
 21 15  1  0
 22 24  1  0
 23 22  2  0
M  END
$$$$
