MES.pdb
     RDKit          3D

 24 23  0  0  1  0  0  0  0  0999 V2000
   29.2517  -19.8387   -4.7774 C   0  0  0  0  0  0  0  0  0  0  0  0
   28.5544  -19.4245   -6.3572 S   0  0  0  0  0  0  0  0  0  0  0  0
   27.2394  -20.5145   -6.8693 C   0  0  0  0  0  0  0  0  0  0  0  0
   26.5099  -20.0658   -8.0869 C   0  0  0  0  0  0  0  0  0  0  0  0
   26.6837  -20.9892   -9.2332 C   0  0  2  0  0  0  0  0  0  0  0  0
   28.1118  -21.0933   -9.5042 N   0  0  0  0  0  0  0  0  0  0  0  0
   25.9932  -20.4355  -10.4627 C   0  0  0  0  0  0  0  0  0  0  0  0
   26.4021  -19.3391  -10.9104 O   0  0  0  0  0  0  0  0  0  0  0  0
   24.9377  -21.1744  -11.0331 N   0  0  0  0  0  0  0  0  0  0  0  0
   24.2906  -20.6908  -12.2768 C   0  0  1  0  0  0  0  0  0  0  0  0
   24.7373  -21.5356  -13.4324 C   0  0  0  0  0  0  0  0  0  0  0  0
   26.1214  -21.1857  -13.8577 C   0  0  0  0  0  0  0  0  0  0  0  0
   26.4543  -21.9216  -15.1154 C   0  0  0  0  0  0  0  0  0  0  0  0
   26.7137  -21.2968  -16.1740 O   0  0  0  0  0  0  0  0  0  0  0  0
   22.8331  -20.8555  -12.0767 C   0  0  0  0  0  0  0  0  0  0  0  0
   22.2807  -21.8442  -11.5288 O   0  0  0  0  0  0  0  0  0  0  0  0
   26.4775  -23.3030  -15.1159 O   0  0  0  0  0  0  0  0  0  0  0  0
   19.9802  -17.7639  -11.9748 O   0  0  0  0  0  0  0  0  0  0  0  0
   19.8596  -18.6920  -12.9831 C   0  0  0  0  0  0  0  0  0  0  0  0
   20.4832  -20.0216  -12.5393 C   0  0  2  0  0  0  0  0  0  0  0  0
   21.8893  -19.8584  -12.5104 N   0  0  0  0  0  0  0  0  0  0  0  0
   19.9636  -21.0573  -13.4038 C   0  0  0  0  0  0  0  0  0  0  0  0
   18.8398  -21.5572  -13.2150 O   0  0  0  0  0  0  0  0  0  0  0  0
   20.7096  -21.5167  -14.4651 O   0  0  0  0  0  0  0  0  0  0  0  0
  1  2  1  0
  3  2  1  0
  4  3  1  0
  5  4  1  0
  5  7  1  0
  5  6  1  6
  7  8  2  0
  9  7  1  0
  9 10  1  0
 10 11  1  6
 11 12  1  0
 12 13  1  0
 13 17  1  0
 13 14  2  0
 15 10  1  0
 15 16  2  0
 18 19  1  0
 20 19  1  6
 20 22  1  0
 20 21  1  0
 21 15  1  0
 22 24  1  0
 23 22  2  0
M  END
$$$$
