MES.pdb
     RDKit          3D

 24 23  0  0  1  0  0  0  0  0999 V2000
   14.9435  -14.0604  -17.4735 C   0  0  0  0  0  0  0  0  0  0  0  0
   15.1279  -12.6311  -16.4361 S   0  0  0  0  0  0  0  0  0  0  0  0
   16.4569  -11.5507  -16.9322 C   0  0  0  0  0  0  0  0  0  0  0  0
   16.6707  -10.3866  -16.0293 C   0  0  0  0  0  0  0  0  0  0  0  0
   17.8329   -9.5573  -16.4273 C   0  0  2  0  0  0  0  0  0  0  0  0
   19.0401  -10.3203  -16.1375 N   0  0  0  0  0  0  0  0  0  0  0  0
   17.8623   -8.2741  -15.6225 C   0  0  0  0  0  0  0  0  0  0  0  0
   17.0514   -8.1688  -14.6733 O   0  0  0  0  0  0  0  0  0  0  0  0
   18.7902   -7.2757  -15.9796 N   0  0  0  0  0  0  0  0  0  0  0  0
   18.9269   -6.0640  -15.1355 C   0  0  1  0  0  0  0  0  0  0  0  0
   20.3409   -5.9523  -14.6487 C   0  0  0  0  0  0  0  0  0  0  0  0
   20.5246   -4.7523  -13.7855 C   0  0  0  0  0  0  0  0  0  0  0  0
   21.9674   -4.6234  -13.4168 C   0  0  0  0  0  0  0  0  0  0  0  0
   22.7589   -5.5854  -13.5794 O   0  0  0  0  0  0  0  0  0  0  0  0
   18.6113   -4.9120  -16.0099 C   0  0  0  0  0  0  0  0  0  0  0  0
   19.0342   -4.7519  -17.1839 O   0  0  0  0  0  0  0  0  0  0  0  0
   22.4376   -3.4351  -12.8918 O   0  0  0  0  0  0  0  0  0  0  0  0
   16.1509   -2.0608  -14.4305 O   0  0  0  0  0  0  0  0  0  0  0  0
   16.1341   -2.1033  -15.8055 C   0  0  0  0  0  0  0  0  0  0  0  0
   17.4620   -2.6729  -16.3213 C   0  0  2  0  0  0  0  0  0  0  0  0
   17.7609   -3.8360  -15.5714 N   0  0  0  0  0  0  0  0  0  0  0  0
   18.4367   -1.6059  -16.2878 C   0  0  0  0  0  0  0  0  0  0  0  0
   19.4808   -1.7012  -15.6175 O   0  0  0  0  0  0  0  0  0  0  0  0
   18.2276   -0.4498  -17.0046 O   0  0  0  0  0  0  0  0  0  0  0  0
  1  2  1  0
  3  2  1  0
  4  3  1  0
  5  4  1  0
  5  7  1  0
  5  6  1  1
  7  8  2  0
  9  7  1  0
  9 10  1  0
 10 11  1  6
 11 12  1  0
 12 13  1  0
 13 17  1  0
 13 14  2  0
 15 10  1  0
 15 16  2  0
 18 19  1  0
 20 19  1  1
 20 22  1  0
 20 21  1  0
 21 15  1  0
 22 24  1  0
 23 22  2  0
M  END
$$$$
