MES.pdb
     RDKit          3D

 24 23  0  0  1  0  0  0  0  0999 V2000
   16.1518  -12.6805  -20.4294 C   0  0  0  0  0  0  0  0  0  0  0  0
   16.0810  -11.4725  -19.1298 S   0  0  0  0  0  0  0  0  0  0  0  0
   17.5322  -11.4466  -18.0940 C   0  0  0  0  0  0  0  0  0  0  0  0
   17.4513  -10.4996  -16.9482 C   0  0  0  0  0  0  0  0  0  0  0  0
   18.7228  -10.4027  -16.1927 C   0  0  2  0  0  0  0  0  0  0  0  0
   18.8531  -11.6119  -15.3899 N   0  0  0  0  0  0  0  0  0  0  0  0
   18.6932   -9.2038  -15.2670 C   0  0  0  0  0  0  0  0  0  0  0  0
   18.3004   -9.3906  -14.0921 O   0  0  0  0  0  0  0  0  0  0  0  0
   19.1045   -7.9536  -15.7702 N   0  0  0  0  0  0  0  0  0  0  0  0
   19.1855   -6.7858  -14.8596 C   0  0  1  0  0  0  0  0  0  0  0  0
   20.6116   -6.5722  -14.4483 C   0  0  0  0  0  0  0  0  0  0  0  0
   20.7415   -5.4134  -13.5211 C   0  0  0  0  0  0  0  0  0  0  0  0
   22.1716   -5.2632  -13.1132 C   0  0  0  0  0  0  0  0  0  0  0  0
   22.9648   -4.5723  -13.8001 O   0  0  0  0  0  0  0  0  0  0  0  0
   18.7145   -5.6188  -15.6392 C   0  0  0  0  0  0  0  0  0  0  0  0
   19.0767   -5.3308  -16.8092 O   0  0  0  0  0  0  0  0  0  0  0  0
   22.6278   -5.8894  -11.9694 O   0  0  0  0  0  0  0  0  0  0  0  0
   15.1636   -3.9826  -14.7044 O   0  0  0  0  0  0  0  0  0  0  0  0
   16.0813   -2.9913  -14.9648 C   0  0  0  0  0  0  0  0  0  0  0  0
   17.2381   -3.5627  -15.7947 C   0  0  2  0  0  0  0  0  0  0  0  0
   17.7655   -4.6789  -15.1016 N   0  0  0  0  0  0  0  0  0  0  0  0
   18.1510   -2.4776  -16.0758 C   0  0  0  0  0  0  0  0  0  0  0  0
   19.2362   -2.3705  -15.4762 O   0  0  0  0  0  0  0  0  0  0  0  0
   17.8351   -1.5302  -17.0226 O   0  0  0  0  0  0  0  0  0  0  0  0
  1  2  1  0
  3  2  1  0
  4  3  1  0
  5  4  1  0
  5  7  1  0
  5  6  1  1
  7  8  2  0
  9  7  1  0
  9 10  1  0
 10 11  1  6
 11 12  1  0
 12 13  1  0
 13 17  1  0
 13 14  2  0
 15 10  1  0
 15 16  2  0
 18 19  1  0
 20 19  1  1
 20 22  1  0
 20 21  1  0
 21 15  1  0
 22 24  1  0
 23 22  2  0
M  END
$$$$
