SDH.pdb
     RDKit          3D

 25 25  0  0  1  0  0  0  0  0999 V2000
   13.1465  -14.0529  -15.1038 O   0  0  0  0  0  0  0  0  0  0  0  0
   13.9771  -12.9372  -15.0014 C   0  0  0  0  0  0  0  0  0  0  0  0
   15.4072  -13.4493  -15.0350 C   0  0  2  0  0  0  0  0  0  0  0  0
   15.4765  -14.7408  -14.3864 N   0  0  0  0  0  0  0  0  0  0  0  0
   16.2654  -12.5041  -14.2786 C   0  0  0  0  0  0  0  0  0  0  0  0
   16.7621  -12.8587  -13.1810 O   0  0  0  0  0  0  0  0  0  0  0  0
   16.5727  -11.2055  -14.7109 N   0  0  0  0  0  0  0  0  0  0  0  0
   17.4959  -10.2991  -13.9927 C   0  0  1  0  0  0  0  0  0  0  0  0
   18.3120   -9.6597  -15.0632 C   0  0  0  0  0  0  0  0  0  0  0  0
   19.3188   -8.6964  -14.6450 C   0  0  0  0  0  0  0  0  0  0  0  0
   19.8297   -7.7731  -15.2974 O   0  0  0  0  0  0  0  0  0  0  0  0
   16.7029   -9.3545  -13.1662 C   0  0  0  0  0  0  0  0  0  0  0  0
   15.7117   -8.7930  -13.6800 O   0  0  0  0  0  0  0  0  0  0  0  0
   19.7823   -8.8233  -13.3177 O   0  0  0  0  0  0  0  0  0  0  0  0
   17.0021   -9.0504  -11.8282 N   0  0  0  0  0  0  0  0  0  0  0  0
   16.2105   -8.0790  -11.0732 C   0  0  1  0  0  0  0  0  0  0  0  0
   16.1823   -8.4256   -9.6166 C   0  0  0  0  0  0  0  0  0  0  0  0
   15.4389   -7.3891   -8.8688 C   0  0  0  0  0  0  0  0  0  0  0  0
   14.8462   -6.2278   -9.3316 C   0  0  0  0  0  0  0  0  0  0  0  0
   14.3093   -5.6016   -8.2742 N   0  0  0  0  0  0  0  0  0  0  0  0
   14.5417   -6.3276   -7.1531 C   0  0  0  0  0  0  0  0  0  0  0  0
   15.2291   -7.4146   -7.5177 N   0  0  0  0  0  0  0  0  0  0  0  0
   16.6858   -6.7312  -11.3757 C   0  0  0  0  0  0  0  0  0  0  0  0
   15.9119   -5.7479  -11.1417 O   0  0  0  0  0  0  0  0  0  0  0  0
   17.9315   -6.4823  -11.8994 O   0  0  0  0  0  0  0  0  0  0  0  0
  2  3  1  0
  2  1  1  0
  3  4  1  1
  5  3  1  0
  6  5  2  0
  7  5  1  0
  8 12  1  0
  8  7  1  0
  8  9  1  6
 10  9  1  0
 10 11  2  0
 12 15  1  0
 13 12  2  0
 14 10  1  0
 15 16  1  0
 16 17  1  1
 16 23  1  0
 18 17  1  0
 19 18  2  0
 20 19  1  0
 21 20  1  0
 21 22  2  0
 22 18  1  0
 23 24  2  0
 23 25  1  0
M  END
$$$$
