SDH.pdb
     RDKit          3D

 25 25  0  0  1  0  0  0  0  0999 V2000
   12.8137   -8.3566  -18.6914 O   0  0  0  0  0  0  0  0  0  0  0  0
   13.5225   -9.3957  -18.0889 C   0  0  0  0  0  0  0  0  0  0  0  0
   13.3686   -9.2201  -16.5876 C   0  0  2  0  0  0  0  0  0  0  0  0
   12.9796   -7.8576  -16.2947 N   0  0  0  0  0  0  0  0  0  0  0  0
   14.6816   -9.4756  -15.9449 C   0  0  0  0  0  0  0  0  0  0  0  0
   14.7273   -9.7917  -14.7303 O   0  0  0  0  0  0  0  0  0  0  0  0
   15.9121   -9.3880  -16.6127 N   0  0  0  0  0  0  0  0  0  0  0  0
   17.2134   -9.6918  -15.9771 C   0  0  1  0  0  0  0  0  0  0  0  0
   17.8208  -10.7464  -16.8370 C   0  0  0  0  0  0  0  0  0  0  0  0
   19.1842  -11.1504  -16.5297 C   0  0  0  0  0  0  0  0  0  0  0  0
   20.1935  -11.0903  -17.2487 O   0  0  0  0  0  0  0  0  0  0  0  0
   18.0060   -8.4407  -15.8726 C   0  0  0  0  0  0  0  0  0  0  0  0
   18.2603   -7.8019  -16.9162 O   0  0  0  0  0  0  0  0  0  0  0  0
   19.3951  -11.6844  -15.2401 O   0  0  0  0  0  0  0  0  0  0  0  0
   18.4923   -7.9262  -14.6599 N   0  0  0  0  0  0  0  0  0  0  0  0
   19.5589   -6.9251  -14.6310 C   0  0  1  0  0  0  0  0  0  0  0  0
   20.7258   -7.3601  -15.4626 C   0  0  0  0  0  0  0  0  0  0  0  0
   21.7768   -6.3203  -15.4345 C   0  0  0  0  0  0  0  0  0  0  0  0
   22.2766   -5.6059  -14.3602 C   0  0  0  0  0  0  0  0  0  0  0  0
   23.2045   -4.7623  -14.8353 N   0  0  0  0  0  0  0  0  0  0  0  0
   23.3110   -4.9172  -16.1779 C   0  0  0  0  0  0  0  0  0  0  0  0
   22.4413   -5.8657  -16.5398 N   0  0  0  0  0  0  0  0  0  0  0  0
   19.0045   -5.6204  -14.9835 C   0  0  0  0  0  0  0  0  0  0  0  0
   19.1148   -4.6678  -14.1464 O   0  0  0  0  0  0  0  0  0  0  0  0
   18.3722   -5.3799  -16.1796 O   0  0  0  0  0  0  0  0  0  0  0  0
  2  3  1  0
  2  1  1  0
  3  4  1  6
  5  3  1  0
  6  5  2  0
  7  5  1  0
  8 12  1  0
  8  7  1  0
  8  9  1  6
 10  9  1  0
 10 11  2  0
 12 15  1  0
 13 12  2  0
 14 10  1  0
 15 16  1  0
 16 17  1  6
 16 23  1  0
 18 17  1  0
 19 18  2  0
 20 19  1  0
 21 20  1  0
 21 22  2  0
 22 18  1  0
 23 24  2  0
 23 25  1  0
M  END
$$$$
