SDH.pdb
     RDKit          3D

 25 25  0  0  1  0  0  0  0  0999 V2000
   28.2266  -11.8997  -15.5212 O   0  0  0  0  0  0  0  0  0  0  0  0
   27.1459  -11.1602  -16.0012 C   0  0  0  0  0  0  0  0  0  0  0  0
   27.0459  -11.4438  -17.4905 C   0  0  2  0  0  0  0  0  0  0  0  0
   28.2254  -10.9415  -18.1614 N   0  0  0  0  0  0  0  0  0  0  0  0
   25.8646  -10.7258  -18.0300 C   0  0  0  0  0  0  0  0  0  0  0  0
   26.0280   -9.6698  -18.6900 O   0  0  0  0  0  0  0  0  0  0  0  0
   24.5397  -11.1511  -17.8529 N   0  0  0  0  0  0  0  0  0  0  0  0
   23.3716  -10.4645  -18.4478 C   0  0  1  0  0  0  0  0  0  0  0  0
   22.3590  -11.5393  -18.6481 C   0  0  0  0  0  0  0  0  0  0  0  0
   22.6773  -12.5803  -19.6131 C   0  0  0  0  0  0  0  0  0  0  0  0
   22.7454  -13.8069  -19.4393 O   0  0  0  0  0  0  0  0  0  0  0  0
   22.9435   -9.3659  -17.5455 C   0  0  0  0  0  0  0  0  0  0  0  0
   23.1001   -9.5050  -16.3135 O   0  0  0  0  0  0  0  0  0  0  0  0
   22.9464  -12.1432  -20.9280 O   0  0  0  0  0  0  0  0  0  0  0  0
   22.3672   -8.1676  -17.9971 N   0  0  0  0  0  0  0  0  0  0  0  0
   22.0064   -7.0983  -17.0659 C   0  0  1  0  0  0  0  0  0  0  0  0
   23.1961   -6.6530  -16.2729 C   0  0  0  0  0  0  0  0  0  0  0  0
   22.8129   -5.5428  -15.3746 C   0  0  0  0  0  0  0  0  0  0  0  0
   21.9883   -5.5569  -14.2637 C   0  0  0  0  0  0  0  0  0  0  0  0
   21.9296   -4.3033  -13.7909 N   0  0  0  0  0  0  0  0  0  0  0  0
   22.6907   -3.4919  -14.5658 C   0  0  0  0  0  0  0  0  0  0  0  0
   23.2268   -4.2485  -15.5286 N   0  0  0  0  0  0  0  0  0  0  0  0
   21.3208   -6.0349  -17.7960 C   0  0  0  0  0  0  0  0  0  0  0  0
   21.5141   -5.9378  -19.0505 O   0  0  0  0  0  0  0  0  0  0  0  0
   20.4766   -5.1389  -17.1856 O   0  0  0  0  0  0  0  0  0  0  0  0
  2  3  1  0
  2  1  1  0
  3  4  1  6
  5  3  1  0
  6  5  2  0
  7  5  1  0
  8 12  1  0
  8  7  1  0
  8  9  1  1
 10  9  1  0
 10 11  2  0
 12 15  1  0
 13 12  2  0
 14 10  1  0
 15 16  1  0
 16 17  1  6
 16 23  1  0
 18 17  1  0
 19 18  2  0
 20 19  1  0
 21 20  1  0
 21 22  2  0
 22 18  1  0
 23 24  2  0
 23 25  1  0
M  END
$$$$
