SDH.pdb
     RDKit          3D

 25 25  0  0  1  0  0  0  0  0999 V2000
   17.0669  -13.5538  -18.8602 O   0  0  0  0  0  0  0  0  0  0  0  0
   17.1092  -12.5050  -17.9418 C   0  0  0  0  0  0  0  0  0  0  0  0
   18.3554  -12.7103  -17.0972 C   0  0  2  0  0  0  0  0  0  0  0  0
   18.2143  -13.9141  -16.3069 N   0  0  0  0  0  0  0  0  0  0  0  0
   18.4921  -11.5602  -16.1694 C   0  0  0  0  0  0  0  0  0  0  0  0
   17.6240  -11.3721  -15.2816 O   0  0  0  0  0  0  0  0  0  0  0  0
   19.5502  -10.6402  -16.2110 N   0  0  0  0  0  0  0  0  0  0  0  0
   19.6239   -9.4360  -15.3542 C   0  0  1  0  0  0  0  0  0  0  0  0
   21.0670   -9.3029  -15.0071 C   0  0  0  0  0  0  0  0  0  0  0  0
   21.4506   -8.1645  -14.1865 C   0  0  0  0  0  0  0  0  0  0  0  0
   22.3799   -7.3605  -14.3580 O   0  0  0  0  0  0  0  0  0  0  0  0
   19.0516   -8.2809  -16.0907 C   0  0  0  0  0  0  0  0  0  0  0  0
   19.4188   -8.0774  -17.2678 O   0  0  0  0  0  0  0  0  0  0  0  0
   20.6631   -7.9374  -13.0372 O   0  0  0  0  0  0  0  0  0  0  0  0
   18.1129   -7.3938  -15.5393 N   0  0  0  0  0  0  0  0  0  0  0  0
   17.6480   -6.2207  -16.2797 C   0  0  1  0  0  0  0  0  0  0  0  0
   16.2146   -5.9214  -15.9659 C   0  0  0  0  0  0  0  0  0  0  0  0
   15.7304   -4.8246  -16.8313 C   0  0  0  0  0  0  0  0  0  0  0  0
   15.9763   -4.5907  -18.1726 C   0  0  0  0  0  0  0  0  0  0  0  0
   15.3355   -3.4613  -18.5078 N   0  0  0  0  0  0  0  0  0  0  0  0
   14.6896   -2.9690  -17.4221 C   0  0  0  0  0  0  0  0  0  0  0  0
   14.9316   -3.8003  -16.4036 N   0  0  0  0  0  0  0  0  0  0  0  0
   18.5716   -5.1117  -16.0542 C   0  0  0  0  0  0  0  0  0  0  0  0
   18.5767   -4.1475  -16.8853 O   0  0  0  0  0  0  0  0  0  0  0  0
   19.4316   -5.0664  -14.9834 O   0  0  0  0  0  0  0  0  0  0  0  0
  2  3  1  0
  2  1  1  0
  3  4  1  1
  5  3  1  0
  6  5  2  0
  7  5  1  0
  8 12  1  0
  8  7  1  0
  8  9  1  6
 10  9  1  0
 10 11  2  0
 12 15  1  0
 13 12  2  0
 14 10  1  0
 15 16  1  0
 16 17  1  1
 16 23  1  0
 18 17  1  0
 19 18  2  0
 20 19  1  0
 21 20  1  0
 21 22  2  0
 22 18  1  0
 23 24  2  0
 23 25  1  0
M  END
$$$$
