SDH.pdb
     RDKit          3D

 25 25  0  0  1  0  0  0  0  0999 V2000
   26.7932  -36.7630    3.3052 O   0  0  0  0  0  0  0  0  0  0  0  0
   25.8978  -35.8070    2.8260 C   0  0  0  0  0  0  0  0  0  0  0  0
   24.6271  -36.5472    2.4440 C   0  0  2  0  0  0  0  0  0  0  0  0
   24.8747  -37.9728    2.4492 N   0  0  0  0  0  0  0  0  0  0  0  0
   24.2437  -36.1484    1.0670 C   0  0  0  0  0  0  0  0  0  0  0  0
   24.4030  -36.9570    0.1194 O   0  0  0  0  0  0  0  0  0  0  0  0
   23.7004  -34.8985    0.7349 N   0  0  0  0  0  0  0  0  0  0  0  0
   23.2495  -34.5362   -0.6271 C   0  0  1  0  0  0  0  0  0  0  0  0
   22.1624  -33.5390   -0.4162 C   0  0  0  0  0  0  0  0  0  0  0  0
   20.8871  -34.0400    0.0727 C   0  0  0  0  0  0  0  0  0  0  0  0
   20.2641  -35.0539   -0.2782 O   0  0  0  0  0  0  0  0  0  0  0  0
   24.4108  -34.0361   -1.4054 C   0  0  0  0  0  0  0  0  0  0  0  0
   25.2231  -33.2687   -0.8460 O   0  0  0  0  0  0  0  0  0  0  0  0
   20.2683  -33.2736    1.0838 O   0  0  0  0  0  0  0  0  0  0  0  0
   24.6543  -34.3765   -2.7459 N   0  0  0  0  0  0  0  0  0  0  0  0
   25.8120  -33.8475   -3.4672 C   0  0  1  0  0  0  0  0  0  0  0  0
   26.2731  -34.8075   -4.5199 C   0  0  0  0  0  0  0  0  0  0  0  0
   27.0609  -35.8932   -3.8979 C   0  0  0  0  0  0  0  0  0  0  0  0
   27.5160  -36.0133   -2.5968 C   0  0  0  0  0  0  0  0  0  0  0  0
   28.2021  -37.1628   -2.5155 N   0  0  0  0  0  0  0  0  0  0  0  0
   28.1980  -37.7779   -3.7237 C   0  0  0  0  0  0  0  0  0  0  0  0
   27.5031  -37.0034   -4.5628 N   0  0  0  0  0  0  0  0  0  0  0  0
   25.5046  -32.5041   -3.9519 C   0  0  0  0  0  0  0  0  0  0  0  0
   24.2918  -32.1175   -3.9407 O   0  0  0  0  0  0  0  0  0  0  0  0
   26.4691  -31.6427   -4.4166 O   0  0  0  0  0  0  0  0  0  0  0  0
  2  3  1  0
  2  1  1  0
  3  4  1  6
  5  3  1  0
  6  5  2  0
  7  5  1  0
  8 12  1  0
  8  7  1  0
  8  9  1  1
 10  9  1  0
 10 11  2  0
 12 15  1  0
 13 12  2  0
 14 10  1  0
 15 16  1  0
 16 17  1  6
 16 23  1  0
 18 17  1  0
 19 18  2  0
 20 19  1  0
 21 20  1  0
 21 22  2  0
 22 18  1  0
 23 24  2  0
 23 25  1  0
M  END
$$$$
