SDH.pdb
     RDKit          3D

 25 25  0  0  1  0  0  0  0  0999 V2000
   15.9916  -14.7902  -15.3557 O   0  0  0  0  0  0  0  0  0  0  0  0
   16.7424  -13.7802  -14.7545 C   0  0  0  0  0  0  0  0  0  0  0  0
   15.7546  -12.7563  -14.2211 C   0  0  2  0  0  0  0  0  0  0  0  0
   15.0490  -12.1408  -15.3243 N   0  0  0  0  0  0  0  0  0  0  0  0
   16.5106  -11.6981  -13.5063 C   0  0  0  0  0  0  0  0  0  0  0  0
   17.1330  -11.9834  -12.4535 O   0  0  0  0  0  0  0  0  0  0  0  0
   16.5843  -10.3634  -13.9315 N   0  0  0  0  0  0  0  0  0  0  0  0
   17.3526   -9.3176  -13.2205 C   0  0  1  0  0  0  0  0  0  0  0  0
   18.0213   -8.5363  -14.2989 C   0  0  0  0  0  0  0  0  0  0  0  0
   18.7016   -7.3114  -13.9075 C   0  0  0  0  0  0  0  0  0  0  0  0
   18.5160   -6.1546  -14.3156 O   0  0  0  0  0  0  0  0  0  0  0  0
   16.4269   -8.5326  -12.3654 C   0  0  0  0  0  0  0  0  0  0  0  0
   15.3584   -8.1158  -12.8618 O   0  0  0  0  0  0  0  0  0  0  0  0
   19.7116   -7.4500  -12.9310 O   0  0  0  0  0  0  0  0  0  0  0  0
   16.6815   -8.2268  -11.0187 N   0  0  0  0  0  0  0  0  0  0  0  0
   15.7460   -7.4244  -10.2303 C   0  0  1  0  0  0  0  0  0  0  0  0
   15.8849   -7.7198   -8.7688 C   0  0  0  0  0  0  0  0  0  0  0  0
   14.9185   -6.9073   -7.9991 C   0  0  0  0  0  0  0  0  0  0  0  0
   13.9384   -6.0436   -8.4547 C   0  0  0  0  0  0  0  0  0  0  0  0
   13.3295   -5.5234   -7.3789 N   0  0  0  0  0  0  0  0  0  0  0  0
   13.8913   -6.0287   -6.2532 C   0  0  0  0  0  0  0  0  0  0  0  0
   14.8577   -6.8704   -6.6334 N   0  0  0  0  0  0  0  0  0  0  0  0
   15.8968   -6.0168  -10.5905 C   0  0  0  0  0  0  0  0  0  0  0  0
   17.0724   -5.5424  -10.7063 O   0  0  0  0  0  0  0  0  0  0  0  0
   14.8240   -5.1867  -10.8105 O   0  0  0  0  0  0  0  0  0  0  0  0
  2  3  1  0
  2  1  1  0
  3  4  1  6
  5  3  1  0
  6  5  2  0
  7  5  1  0
  8 12  1  0
  8  7  1  0
  8  9  1  6
 10  9  1  0
 10 11  2  0
 12 15  1  0
 13 12  2  0
 14 10  1  0
 15 16  1  0
 16 17  1  1
 16 23  1  0
 18 17  1  0
 19 18  2  0
 20 19  1  0
 21 20  1  0
 21 22  2  0
 22 18  1  0
 23 24  2  0
 23 25  1  0
M  END
$$$$
