SDH.pdb
     RDKit          3D

 25 25  0  0  1  0  0  0  0  0999 V2000
   23.9832  -11.0518  -18.2061 O   0  0  0  0  0  0  0  0  0  0  0  0
   24.4928  -10.3754  -17.0979 C   0  0  0  0  0  0  0  0  0  0  0  0
   23.5106  -10.5941  -15.9595 C   0  0  2  0  0  0  0  0  0  0  0  0
   22.9679  -11.9332  -16.0360 N   0  0  0  0  0  0  0  0  0  0  0  0
   22.3915   -9.6311  -16.1095 C   0  0  0  0  0  0  0  0  0  0  0  0
   21.6728   -9.6700  -17.1386 O   0  0  0  0  0  0  0  0  0  0  0  0
   22.0666   -8.6518  -15.1592 N   0  0  0  0  0  0  0  0  0  0  0  0
   20.9244   -7.7214  -15.2982 C   0  0  1  0  0  0  0  0  0  0  0  0
   20.3692   -7.5910  -13.9215 C   0  0  0  0  0  0  0  0  0  0  0  0
   19.6636   -8.7414  -13.3780 C   0  0  0  0  0  0  0  0  0  0  0  0
   18.9880   -9.5927  -13.9764 O   0  0  0  0  0  0  0  0  0  0  0  0
   21.4038   -6.4512  -15.8991 C   0  0  0  0  0  0  0  0  0  0  0  0
   22.4962   -5.9803  -15.5163 O   0  0  0  0  0  0  0  0  0  0  0  0
   19.7554   -8.9196  -11.9808 O   0  0  0  0  0  0  0  0  0  0  0  0
   20.6969   -5.7394  -16.8818 N   0  0  0  0  0  0  0  0  0  0  0  0
   21.2474   -4.5264  -17.4869 C   0  0  1  0  0  0  0  0  0  0  0  0
   21.0063   -4.5068  -18.9647 C   0  0  0  0  0  0  0  0  0  0  0  0
   21.7092   -5.6406  -19.6025 C   0  0  0  0  0  0  0  0  0  0  0  0
   23.0572   -5.9525  -19.5980 C   0  0  0  0  0  0  0  0  0  0  0  0
   23.2149   -7.0643  -20.3312 N   0  0  0  0  0  0  0  0  0  0  0  0
   22.0099   -7.4696  -20.8023 C   0  0  0  0  0  0  0  0  0  0  0  0
   21.0957   -6.6017  -20.3574 N   0  0  0  0  0  0  0  0  0  0  0  0
   20.7465   -3.3586  -16.7663 C   0  0  0  0  0  0  0  0  0  0  0  0
   19.8986   -3.5384  -15.8339 O   0  0  0  0  0  0  0  0  0  0  0  0
   21.1535   -2.0777  -17.0520 O   0  0  0  0  0  0  0  0  0  0  0  0
  2  3  1  0
  2  1  1  0
  3  4  1  6
  5  3  1  0
  6  5  2  0
  7  5  1  0
  8 12  1  0
  8  7  1  0
  8  9  1  1
 10  9  1  0
 10 11  2  0
 12 15  1  0
 13 12  2  0
 14 10  1  0
 15 16  1  0
 16 17  1  6
 16 23  1  0
 18 17  1  0
 19 18  2  0
 20 19  1  0
 21 20  1  0
 21 22  2  0
 22 18  1  0
 23 24  2  0
 23 25  1  0
M  END
$$$$
