SDH.pdb
     RDKit          3D

 25 25  0  0  1  0  0  0  0  0999 V2000
   15.8168   -9.3550  -16.5492 O   0  0  0  0  0  0  0  0  0  0  0  0
   16.6053   -9.5457  -17.6838 C   0  0  0  0  0  0  0  0  0  0  0  0
   17.6522  -10.5857  -17.3218 C   0  0  2  0  0  0  0  0  0  0  0  0
   17.0016  -11.7746  -16.8150 N   0  0  0  0  0  0  0  0  0  0  0  0
   18.5136  -10.0346  -16.2464 C   0  0  0  0  0  0  0  0  0  0  0  0
   18.7969  -10.7469  -15.2516 O   0  0  0  0  0  0  0  0  0  0  0  0
   19.0512   -8.7390  -16.2584 N   0  0  0  0  0  0  0  0  0  0  0  0
   20.0072   -8.2386  -15.2459 C   0  0  1  0  0  0  0  0  0  0  0  0
   21.1709   -9.1657  -15.3293 C   0  0  0  0  0  0  0  0  0  0  0  0
   22.3024   -8.8917  -14.4569 C   0  0  0  0  0  0  0  0  0  0  0  0
   22.3618   -8.1353  -13.4753 O   0  0  0  0  0  0  0  0  0  0  0  0
   20.3216   -6.8170  -15.5366 C   0  0  0  0  0  0  0  0  0  0  0  0
   20.7633   -6.5185  -16.6669 O   0  0  0  0  0  0  0  0  0  0  0  0
   23.4987   -9.5758  -14.7625 O   0  0  0  0  0  0  0  0  0  0  0  0
   20.1511   -5.7765  -14.6090 N   0  0  0  0  0  0  0  0  0  0  0  0
   20.4800   -4.3921  -14.9492 C   0  0  1  0  0  0  0  0  0  0  0  0
   19.6635   -3.4322  -14.1402 C   0  0  0  0  0  0  0  0  0  0  0  0
   19.9259   -2.0481  -14.5896 C   0  0  0  0  0  0  0  0  0  0  0  0
   19.7693   -1.4880  -15.8450 C   0  0  0  0  0  0  0  0  0  0  0  0
   20.1558   -0.2064  -15.7643 N   0  0  0  0  0  0  0  0  0  0  0  0
   20.5535    0.0668  -14.4973 C   0  0  0  0  0  0  0  0  0  0  0  0
   20.4126   -1.0554  -13.7848 N   0  0  0  0  0  0  0  0  0  0  0  0
   21.9253   -4.2030  -14.8535 C   0  0  0  0  0  0  0  0  0  0  0  0
   22.4570   -3.2483  -15.5064 O   0  0  0  0  0  0  0  0  0  0  0  0
   22.7317   -5.0105  -14.0881 O   0  0  0  0  0  0  0  0  0  0  0  0
  2  3  1  0
  2  1  1  0
  3  4  1  1
  5  3  1  0
  6  5  2  0
  7  5  1  0
  8 12  1  0
  8  7  1  0
  8  9  1  6
 10  9  1  0
 10 11  2  0
 12 15  1  0
 13 12  2  0
 14 10  1  0
 15 16  1  0
 16 17  1  1
 16 23  1  0
 18 17  1  0
 19 18  2  0
 20 19  1  0
 21 20  1  0
 21 22  2  0
 22 18  1  0
 23 24  2  0
 23 25  1  0
M  END
$$$$
