SDH.pdb
     RDKit          3D

 25 25  0  0  1  0  0  0  0  0999 V2000
   17.0151  -13.1106  -13.9467 O   0  0  0  0  0  0  0  0  0  0  0  0
   17.7923  -12.4095  -14.8684 C   0  0  0  0  0  0  0  0  0  0  0  0
   16.9255  -11.2849  -15.4091 C   0  0  2  0  0  0  0  0  0  0  0  0
   16.1439  -11.7678  -16.5269 N   0  0  0  0  0  0  0  0  0  0  0  0
   17.8110  -10.1988  -15.8976 C   0  0  0  0  0  0  0  0  0  0  0  0
   18.4868  -10.3712  -16.9420 O   0  0  0  0  0  0  0  0  0  0  0  0
   17.9538   -8.9570  -15.2610 N   0  0  0  0  0  0  0  0  0  0  0  0
   18.8112   -7.8659  -15.7749 C   0  0  1  0  0  0  0  0  0  0  0  0
   18.2104   -6.6179  -15.2252 C   0  0  0  0  0  0  0  0  0  0  0  0
   18.8493   -5.3604  -15.5813 C   0  0  0  0  0  0  0  0  0  0  0  0
   19.9018   -5.1742  -16.2113 O   0  0  0  0  0  0  0  0  0  0  0  0
   20.2148   -8.1161  -15.3608 C   0  0  0  0  0  0  0  0  0  0  0  0
   20.4285   -8.8694  -14.3867 O   0  0  0  0  0  0  0  0  0  0  0  0
   18.1877   -4.1884  -15.1555 O   0  0  0  0  0  0  0  0  0  0  0  0
   21.3285   -7.5520  -16.0037 N   0  0  0  0  0  0  0  0  0  0  0  0
   22.6868   -8.0156  -15.7200 C   0  0  1  0  0  0  0  0  0  0  0  0
   22.8255   -9.4788  -16.0070 C   0  0  0  0  0  0  0  0  0  0  0  0
   24.2198   -9.9073  -15.7647 C   0  0  0  0  0  0  0  0  0  0  0  0
   25.0983   -9.5160  -14.7701 C   0  0  0  0  0  0  0  0  0  0  0  0
   26.2542  -10.1639  -14.9771 N   0  0  0  0  0  0  0  0  0  0  0  0
   26.1389  -10.9550  -16.0721 C   0  0  0  0  0  0  0  0  0  0  0  0
   24.9003  -10.7970  -16.5493 N   0  0  0  0  0  0  0  0  0  0  0  0
   23.6434   -7.1588  -16.4163 C   0  0  0  0  0  0  0  0  0  0  0  0
   23.2005   -6.3161  -17.2613 O   0  0  0  0  0  0  0  0  0  0  0  0
   24.9981   -7.2242  -16.1954 O   0  0  0  0  0  0  0  0  0  0  0  0
  2  3  1  0
  2  1  1  0
  3  4  1  6
  5  3  1  0
  6  5  2  0
  7  5  1  0
  8 12  1  0
  8  7  1  0
  8  9  1  1
 10  9  1  0
 10 11  2  0
 12 15  1  0
 13 12  2  0
 14 10  1  0
 15 16  1  0
 16 17  1  6
 16 23  1  0
 18 17  1  0
 19 18  2  0
 20 19  1  0
 21 20  1  0
 21 22  2  0
 22 18  1  0
 23 24  2  0
 23 25  1  0
M  END
$$$$
