SDH.pdb
     RDKit          3D

 25 25  0  0  1  0  0  0  0  0999 V2000
   14.6973  -14.1283  -15.6944 O   0  0  0  0  0  0  0  0  0  0  0  0
   15.3799  -13.4573  -14.6800 C   0  0  0  0  0  0  0  0  0  0  0  0
   16.7727  -13.1599  -15.2094 C   0  0  2  0  0  0  0  0  0  0  0  0
   17.5810  -14.3586  -15.1515 N   0  0  0  0  0  0  0  0  0  0  0  0
   17.4003  -12.1351  -14.3387 C   0  0  0  0  0  0  0  0  0  0  0  0
   17.8054  -12.4566  -13.1943 O   0  0  0  0  0  0  0  0  0  0  0  0
   17.5805  -10.7944  -14.7096 N   0  0  0  0  0  0  0  0  0  0  0  0
   18.1953   -9.7757  -13.8298 C   0  0  1  0  0  0  0  0  0  0  0  0
   18.9356   -8.8708  -14.7536 C   0  0  0  0  0  0  0  0  0  0  0  0
   19.5362   -7.6783  -14.1758 C   0  0  0  0  0  0  0  0  0  0  0  0
   20.3806   -7.5938  -13.2707 O   0  0  0  0  0  0  0  0  0  0  0  0
   17.1299   -9.1163  -13.0332 C   0  0  0  0  0  0  0  0  0  0  0  0
   16.1008   -8.7181  -13.6198 O   0  0  0  0  0  0  0  0  0  0  0  0
   19.1042   -6.4463  -14.7126 O   0  0  0  0  0  0  0  0  0  0  0  0
   17.2093   -8.9107  -11.6463 N   0  0  0  0  0  0  0  0  0  0  0  0
   16.1472   -8.2165  -10.9179 C   0  0  1  0  0  0  0  0  0  0  0  0
   16.2507   -8.4716   -9.4459 C   0  0  0  0  0  0  0  0  0  0  0  0
   15.1488   -7.7841   -8.7392 C   0  0  0  0  0  0  0  0  0  0  0  0
   13.8671   -7.5004   -9.1765 C   0  0  0  0  0  0  0  0  0  0  0  0
   13.2409   -6.8457   -8.1877 N   0  0  0  0  0  0  0  0  0  0  0  0
   14.0835   -6.7036   -7.1352 C   0  0  0  0  0  0  0  0  0  0  0  0
   15.2434   -7.2754   -7.4733 N   0  0  0  0  0  0  0  0  0  0  0  0
   16.1441   -6.8063  -11.2990 C   0  0  0  0  0  0  0  0  0  0  0  0
   17.2616   -6.2244  -11.4814 O   0  0  0  0  0  0  0  0  0  0  0  0
   14.9872   -6.0849  -11.4699 O   0  0  0  0  0  0  0  0  0  0  0  0
  2  3  1  0
  2  1  1  0
  3  4  1  1
  5  3  1  0
  6  5  2  0
  7  5  1  0
  8 12  1  0
  8  7  1  0
  8  9  1  6
 10  9  1  0
 10 11  2  0
 12 15  1  0
 13 12  2  0
 14 10  1  0
 15 16  1  0
 16 17  1  1
 16 23  1  0
 18 17  1  0
 19 18  2  0
 20 19  1  0
 21 20  1  0
 21 22  2  0
 22 18  1  0
 23 24  2  0
 23 25  1  0
M  END
$$$$
