NCH.pdb
     RDKit          3D

 25 25  0  0  1  0  0  0  0  0999 V2000
   29.3397  -13.8827  -17.2082 N   0  0  0  0  0  0  0  0  0  0  0  0
   28.7438  -13.4291  -16.0071 C   0  0  0  0  0  0  0  0  0  0  0  0
   28.6715  -14.1967  -15.0129 O   0  0  0  0  0  0  0  0  0  0  0  0
   28.2136  -12.0644  -15.9299 C   0  0  0  0  0  0  0  0  0  0  0  0
   28.5398  -11.2905  -17.1708 C   0  0  2  0  0  0  0  0  0  0  0  0
   29.9531  -11.1577  -17.3582 N   0  0  0  0  0  0  0  0  0  0  0  0
   27.8143  -10.0011  -17.2141 C   0  0  0  0  0  0  0  0  0  0  0  0
   28.4855   -8.9637  -17.4068 O   0  0  0  0  0  0  0  0  0  0  0  0
   26.4080   -9.8942  -17.0482 N   0  0  0  0  0  0  0  0  0  0  0  0
   25.7817   -8.6300  -17.2778 C   0  0  1  0  0  0  0  0  0  0  0  0
   26.0891   -8.1311  -18.6747 C   0  0  0  0  0  0  0  0  0  0  0  0
   25.5819   -9.3332  -19.9258 S   0  0  0  0  0  0  0  0  0  0  0  0
   24.3089   -8.6752  -17.0367 C   0  0  0  0  0  0  0  0  0  0  0  0
   23.5980   -9.6223  -17.4600 O   0  0  0  0  0  0  0  0  0  0  0  0
   23.6214   -7.6537  -16.3161 N   0  0  0  0  0  0  0  0  0  0  0  0
   22.2530   -7.7506  -15.9099 C   0  0  1  0  0  0  0  0  0  0  0  0
   22.0468   -8.6962  -14.7514 C   0  0  0  0  0  0  0  0  0  0  0  0
   20.6588   -8.7490  -14.2913 C   0  0  0  0  0  0  0  0  0  0  0  0
   19.5729   -8.1546  -14.8931 C   0  0  0  0  0  0  0  0  0  0  0  0
   18.4652   -8.4332  -14.1682 N   0  0  0  0  0  0  0  0  0  0  0  0
   18.8382   -9.1867  -13.1305 C   0  0  0  0  0  0  0  0  0  0  0  0
   20.1759   -9.3773  -13.2086 N   0  0  0  0  0  0  0  0  0  0  0  0
   21.6165   -6.4371  -15.6846 C   0  0  0  0  0  0  0  0  0  0  0  0
   20.2659   -6.2366  -15.8650 O   0  0  0  0  0  0  0  0  0  0  0  0
   22.3275   -5.4780  -15.3185 O   0  0  0  0  0  0  0  0  0  0  0  0
  2  3  2  0
  2  1  1  0
  4  2  1  0
  5  4  1  0
  5  7  1  0
  5  6  1  1
  7  9  1  0
  7  8  2  0
  9 10  1  0
 10 13  1  0
 10 11  1  6
 11 12  1  0
 13 14  2  0
 15 13  1  0
 15 16  1  0
 16 23  1  0
 16 17  1  1
 18 17  1  0
 19 18  2  0
 20 21  1  0
 20 19  1  0
 21 22  2  0
 22 18  1  0
 23 24  1  0
 25 23  2  0
M  END
$$$$
