NCH.pdb
     RDKit          3D

 25 25  0  0  1  0  0  0  0  0999 V2000
   27.6308  -26.4985  -16.5076 N   0  0  0  0  0  0  0  0  0  0  0  0
   27.4480  -25.2471  -17.1432 C   0  0  0  0  0  0  0  0  0  0  0  0
   27.6042  -25.1459  -18.3875 O   0  0  0  0  0  0  0  0  0  0  0  0
   27.0770  -24.0746  -16.3450 C   0  0  0  0  0  0  0  0  0  0  0  0
   28.0961  -22.9851  -16.4850 C   0  0  2  0  0  0  0  0  0  0  0  0
   29.3890  -23.4058  -16.0357 N   0  0  0  0  0  0  0  0  0  0  0  0
   27.6346  -21.7251  -15.8604 C   0  0  0  0  0  0  0  0  0  0  0  0
   27.3358  -21.7547  -14.6464 O   0  0  0  0  0  0  0  0  0  0  0  0
   27.5184  -20.5016  -16.5717 N   0  0  0  0  0  0  0  0  0  0  0  0
   27.0671  -19.3391  -15.8731 C   0  0  1  0  0  0  0  0  0  0  0  0
   28.0765  -18.2169  -16.0021 C   0  0  0  0  0  0  0  0  0  0  0  0
   27.5307  -16.7400  -15.1140 S   0  0  0  0  0  0  0  0  0  0  0  0
   25.7138  -18.8972  -16.3233 C   0  0  0  0  0  0  0  0  0  0  0  0
   25.4243  -18.7907  -17.5425 O   0  0  0  0  0  0  0  0  0  0  0  0
   24.6723  -18.5707  -15.4047 N   0  0  0  0  0  0  0  0  0  0  0  0
   23.3573  -18.1715  -15.8025 C   0  0  1  0  0  0  0  0  0  0  0  0
   22.3372  -18.3171  -14.6993 C   0  0  0  0  0  0  0  0  0  0  0  0
   22.1142  -19.7073  -14.3010 C   0  0  0  0  0  0  0  0  0  0  0  0
   22.6567  -20.8259  -14.8918 C   0  0  0  0  0  0  0  0  0  0  0  0
   22.2122  -21.9239  -14.2384 N   0  0  0  0  0  0  0  0  0  0  0  0
   21.4064  -21.5128  -13.2558 C   0  0  0  0  0  0  0  0  0  0  0  0
   21.3489  -20.1613  -13.2968 N   0  0  0  0  0  0  0  0  0  0  0  0
   23.3180  -16.8365  -16.4327 C   0  0  0  0  0  0  0  0  0  0  0  0
   22.1882  -16.3522  -17.0540 O   0  0  0  0  0  0  0  0  0  0  0  0
   24.3435  -16.1246  -16.4004 O   0  0  0  0  0  0  0  0  0  0  0  0
  2  3  2  0
  2  1  1  0
  4  2  1  0
  5  4  1  0
  5  7  1  0
  5  6  1  1
  7  9  1  0
  7  8  2  0
  9 10  1  0
 10 13  1  0
 10 11  1  6
 11 12  1  0
 13 14  2  0
 15 13  1  0
 15 16  1  0
 16 23  1  0
 16 17  1  1
 18 17  1  0
 19 18  2  0
 20 21  1  0
 20 19  1  0
 21 22  2  0
 22 18  1  0
 23 24  1  0
 25 23  2  0
M  END
$$$$
