NCH.pdb
     RDKit          3D

 25 25  0  0  1  0  0  0  0  0999 V2000
   17.2840  -15.0182  -14.8616 N   0  0  0  0  0  0  0  0  0  0  0  0
   18.6608  -15.1584  -15.1589 C   0  0  0  0  0  0  0  0  0  0  0  0
   19.3619  -15.9807  -14.5144 O   0  0  0  0  0  0  0  0  0  0  0  0
   19.2616  -14.3424  -16.2183 C   0  0  0  0  0  0  0  0  0  0  0  0
   18.2538  -13.4057  -16.8116 C   0  0  2  0  0  0  0  0  0  0  0  0
   17.3505  -14.0844  -17.6913 N   0  0  0  0  0  0  0  0  0  0  0  0
   18.9033  -12.2264  -17.4267 C   0  0  0  0  0  0  0  0  0  0  0  0
   18.8730  -12.1316  -18.6733 O   0  0  0  0  0  0  0  0  0  0  0  0
   19.5501  -11.2127  -16.6714 N   0  0  0  0  0  0  0  0  0  0  0  0
   20.0009  -10.0347  -17.3437 C   0  0  1  0  0  0  0  0  0  0  0  0
   18.8478   -9.3529  -18.0511 C   0  0  0  0  0  0  0  0  0  0  0  0
   17.5039   -8.9783  -16.9016 S   0  0  0  0  0  0  0  0  0  0  0  0
   20.6996   -9.0892  -16.4234 C   0  0  0  0  0  0  0  0  0  0  0  0
   20.3475   -8.9519  -15.2240 O   0  0  0  0  0  0  0  0  0  0  0  0
   21.8025   -8.2883  -16.8447 N   0  0  0  0  0  0  0  0  0  0  0  0
   22.4907   -7.3700  -15.9903 C   0  0  1  0  0  0  0  0  0  0  0  0
   23.9912   -7.4325  -16.1435 C   0  0  0  0  0  0  0  0  0  0  0  0
   24.5581   -8.7196  -15.7399 C   0  0  0  0  0  0  0  0  0  0  0  0
   23.8662   -9.7982  -15.2375 C   0  0  0  0  0  0  0  0  0  0  0  0
   24.7409  -10.7989  -14.9848 N   0  0  0  0  0  0  0  0  0  0  0  0
   25.9596  -10.3665  -15.3187 C   0  0  0  0  0  0  0  0  0  0  0  0
   25.8446   -9.0988  -15.7785 N   0  0  0  0  0  0  0  0  0  0  0  0
   21.9730   -5.9898  -16.0790 C   0  0  0  0  0  0  0  0  0  0  0  0
   22.2432   -5.0423  -15.1167 O   0  0  0  0  0  0  0  0  0  0  0  0
   21.2671   -5.6730  -17.0593 O   0  0  0  0  0  0  0  0  0  0  0  0
  2  3  2  0
  2  1  1  0
  4  2  1  0
  5  4  1  0
  5  7  1  0
  5  6  1  6
  7  9  1  0
  7  8  2  0
  9 10  1  0
 10 13  1  0
 10 11  1  1
 11 12  1  0
 13 14  2  0
 15 13  1  0
 15 16  1  0
 16 23  1  0
 16 17  1  6
 18 17  1  0
 19 18  2  0
 20 21  1  0
 20 19  1  0
 21 22  2  0
 22 18  1  0
 23 24  1  0
 25 23  2  0
M  END
$$$$
