NCH.pdb
     RDKit          3D

 25 25  0  0  1  0  0  0  0  0999 V2000
   19.0867  -13.3383  -18.9942 N   0  0  0  0  0  0  0  0  0  0  0  0
   18.4947  -12.2461  -18.3158 C   0  0  0  0  0  0  0  0  0  0  0  0
   17.3685  -11.8177  -18.6779 O   0  0  0  0  0  0  0  0  0  0  0  0
   19.1999  -11.6203  -17.1932 C   0  0  0  0  0  0  0  0  0  0  0  0
   20.5281  -12.2739  -16.9616 C   0  0  2  0  0  0  0  0  0  0  0  0
   20.3882  -13.5568  -16.3411 N   0  0  0  0  0  0  0  0  0  0  0  0
   21.4614  -11.3721  -16.2501 C   0  0  0  0  0  0  0  0  0  0  0  0
   21.2531  -11.1627  -15.0349 O   0  0  0  0  0  0  0  0  0  0  0  0
   22.5678  -10.7435  -16.8805 N   0  0  0  0  0  0  0  0  0  0  0  0
   23.3480   -9.8094  -16.1310 C   0  0  1  0  0  0  0  0  0  0  0  0
   24.8093   -9.9067  -16.5184 C   0  0  0  0  0  0  0  0  0  0  0  0
   25.8089   -8.7051  -15.6103 S   0  0  0  0  0  0  0  0  0  0  0  0
   22.8477   -8.4099  -16.2736 C   0  0  0  0  0  0  0  0  0  0  0  0
   22.5612   -7.9210  -17.3963 O   0  0  0  0  0  0  0  0  0  0  0  0
   22.6650   -7.5463  -15.1529 N   0  0  0  0  0  0  0  0  0  0  0  0
   22.2423   -6.1836  -15.2595 C   0  0  1  0  0  0  0  0  0  0  0  0
   21.0089   -5.8826  -14.4428 C   0  0  0  0  0  0  0  0  0  0  0  0
   19.7779   -6.3886  -15.0510 C   0  0  0  0  0  0  0  0  0  0  0  0
   19.6730   -7.0728  -16.2407 C   0  0  0  0  0  0  0  0  0  0  0  0
   18.3715   -7.3693  -16.4606 N   0  0  0  0  0  0  0  0  0  0  0  0
   17.6662   -6.8851  -15.4351 C   0  0  0  0  0  0  0  0  0  0  0  0
   18.5265   -6.2879  -14.5777 N   0  0  0  0  0  0  0  0  0  0  0  0
   23.3294   -5.2143  -15.0153 C   0  0  0  0  0  0  0  0  0  0  0  0
   23.1337   -3.8543  -15.1096 O   0  0  0  0  0  0  0  0  0  0  0  0
   24.4626   -5.6435  -14.7134 O   0  0  0  0  0  0  0  0  0  0  0  0
  2  3  2  0
  2  1  1  0
  4  2  1  0
  5  4  1  0
  5  7  1  0
  5  6  1  1
  7  9  1  0
  7  8  2  0
  9 10  1  0
 10 13  1  0
 10 11  1  6
 11 12  1  0
 13 14  2  0
 15 13  1  0
 15 16  1  0
 16 23  1  0
 16 17  1  1
 18 17  1  0
 19 18  2  0
 20 21  1  0
 20 19  1  0
 21 22  2  0
 22 18  1  0
 23 24  1  0
 25 23  2  0
M  END
$$$$
