NCH.pdb
     RDKit          3D

 25 25  0  0  1  0  0  0  0  0999 V2000
   22.4303  -13.9255  -20.9662 N   0  0  0  0  0  0  0  0  0  0  0  0
   21.3165  -13.5345  -20.1852 C   0  0  0  0  0  0  0  0  0  0  0  0
   20.1749  -13.4654  -20.7096 O   0  0  0  0  0  0  0  0  0  0  0  0
   21.5014  -13.2121  -18.7671 C   0  0  0  0  0  0  0  0  0  0  0  0
   22.9185  -13.4502  -18.3424 C   0  0  2  0  0  0  0  0  0  0  0  0
   23.1326  -14.8084  -17.9427 N   0  0  0  0  0  0  0  0  0  0  0  0
   23.3572  -12.4609  -17.3327 C   0  0  0  0  0  0  0  0  0  0  0  0
   23.1817  -12.7450  -16.1275 O   0  0  0  0  0  0  0  0  0  0  0  0
   23.9604  -11.2205  -17.6702 N   0  0  0  0  0  0  0  0  0  0  0  0
   24.3337  -10.3275  -16.6184 C   0  0  1  0  0  0  0  0  0  0  0  0
   25.8416  -10.2087  -16.5329 C   0  0  0  0  0  0  0  0  0  0  0  0
   26.3317   -8.9203  -15.3636 S   0  0  0  0  0  0  0  0  0  0  0  0
   23.6976   -8.9844  -16.7627 C   0  0  0  0  0  0  0  0  0  0  0  0
   23.8843   -8.2700  -17.7807 O   0  0  0  0  0  0  0  0  0  0  0  0
   22.8444   -8.4321  -15.7616 N   0  0  0  0  0  0  0  0  0  0  0  0
   22.2441   -7.1367  -15.8546 C   0  0  1  0  0  0  0  0  0  0  0  0
   20.7422   -7.1703  -15.7070 C   0  0  0  0  0  0  0  0  0  0  0  0
   20.0671   -7.8168  -16.8327 C   0  0  0  0  0  0  0  0  0  0  0  0
   20.6628   -8.3115  -17.9707 C   0  0  0  0  0  0  0  0  0  0  0  0
   19.7062   -8.8316  -18.7735 N   0  0  0  0  0  0  0  0  0  0  0  0
   18.5306   -8.6712  -18.1603 C   0  0  0  0  0  0  0  0  0  0  0  0
   18.7542   -8.0523  -16.9777 N   0  0  0  0  0  0  0  0  0  0  0  0
   22.8745   -6.1362  -14.9700 C   0  0  0  0  0  0  0  0  0  0  0  0
   22.9920   -4.8116  -15.3283 O   0  0  0  0  0  0  0  0  0  0  0  0
   23.3148   -6.5049  -13.8611 O   0  0  0  0  0  0  0  0  0  0  0  0
  2  3  2  0
  2  1  1  0
  4  2  1  0
  5  4  1  0
  5  7  1  0
  5  6  1  1
  7  9  1  0
  7  8  2  0
  9 10  1  0
 10 13  1  0
 10 11  1  6
 11 12  1  0
 13 14  2  0
 15 13  1  0
 15 16  1  0
 16 23  1  0
 16 17  1  1
 18 17  1  0
 19 18  2  0
 20 21  1  0
 20 19  1  0
 21 22  2  0
 22 18  1  0
 23 24  1  0
 25 23  2  0
M  END
$$$$
