NCH.pdb
     RDKit          3D

 25 25  0  0  1  0  0  0  0  0999 V2000
   20.9924  -21.1341  -15.8189 N   0  0  0  0  0  0  0  0  0  0  0  0
   20.8460  -20.4137  -14.6092 C   0  0  0  0  0  0  0  0  0  0  0  0
   20.1212  -20.8725  -13.6889 O   0  0  0  0  0  0  0  0  0  0  0  0
   21.5419  -19.1349  -14.4370 C   0  0  0  0  0  0  0  0  0  0  0  0
   22.3444  -18.7917  -15.6549 C   0  0  2  0  0  0  0  0  0  0  0  0
   23.2222  -19.8587  -16.0310 N   0  0  0  0  0  0  0  0  0  0  0  0
   23.0291  -17.4880  -15.5056 C   0  0  0  0  0  0  0  0  0  0  0  0
   22.3396  -16.5082  -15.1471 O   0  0  0  0  0  0  0  0  0  0  0  0
   24.4161  -17.3057  -15.7490 N   0  0  0  0  0  0  0  0  0  0  0  0
   24.9478  -15.9790  -15.7431 C   0  0  1  0  0  0  0  0  0  0  0  0
   26.3622  -15.9761  -15.2004 C   0  0  0  0  0  0  0  0  0  0  0  0
   27.1203  -14.3426  -15.3569 S   0  0  0  0  0  0  0  0  0  0  0  0
   24.8896  -15.3392  -17.0910 C   0  0  0  0  0  0  0  0  0  0  0  0
   25.0741  -15.9996  -18.1452 O   0  0  0  0  0  0  0  0  0  0  0  0
   24.6229  -13.9486  -17.2653 N   0  0  0  0  0  0  0  0  0  0  0  0
   24.0459  -13.3919  -18.4502 C   0  0  1  0  0  0  0  0  0  0  0  0
   22.7837  -14.0993  -18.8806 C   0  0  0  0  0  0  0  0  0  0  0  0
   22.2138  -13.5600  -20.1156 C   0  0  0  0  0  0  0  0  0  0  0  0
   22.7948  -12.6311  -20.9487 C   0  0  0  0  0  0  0  0  0  0  0  0
   21.9581  -12.3892  -21.9840 N   0  0  0  0  0  0  0  0  0  0  0  0
   20.8713  -13.1463  -21.8127 C   0  0  0  0  0  0  0  0  0  0  0  0
   21.0305  -13.8587  -20.6730 N   0  0  0  0  0  0  0  0  0  0  0  0
   23.8750  -11.9265  -18.3835 C   0  0  0  0  0  0  0  0  0  0  0  0
   23.7570  -11.1501  -19.5150 O   0  0  0  0  0  0  0  0  0  0  0  0
   23.8365  -11.3749  -17.2639 O   0  0  0  0  0  0  0  0  0  0  0  0
  2  3  2  0
  2  1  1  0
  4  2  1  0
  5  4  1  0
  5  7  1  0
  5  6  1  1
  7  9  1  0
  7  8  2  0
  9 10  1  0
 10 13  1  0
 10 11  1  6
 11 12  1  0
 13 14  2  0
 15 13  1  0
 15 16  1  0
 16 23  1  0
 16 17  1  1
 18 17  1  0
 19 18  2  0
 20 21  1  0
 20 19  1  0
 21 22  2  0
 22 18  1  0
 23 24  1  0
 25 23  2  0
M  END
$$$$
