NCH.pdb
     RDKit          3D

 25 25  0  0  1  0  0  0  0  0999 V2000
   31.4137  -35.9651  -16.5086 N   0  0  0  0  0  0  0  0  0  0  0  0
   30.2068  -35.8091  -15.7857 C   0  0  0  0  0  0  0  0  0  0  0  0
   29.3850  -36.7597  -15.7229 O   0  0  0  0  0  0  0  0  0  0  0  0
   29.9222  -34.5377  -15.1135 C   0  0  0  0  0  0  0  0  0  0  0  0
   29.1179  -33.6320  -15.9955 C   0  0  2  0  0  0  0  0  0  0  0  0
   29.8995  -32.5377  -16.4875 N   0  0  0  0  0  0  0  0  0  0  0  0
   27.8593  -33.2115  -15.3399 C   0  0  0  0  0  0  0  0  0  0  0  0
   27.1131  -32.4270  -15.9656 O   0  0  0  0  0  0  0  0  0  0  0  0
   27.4692  -33.6551  -14.0486 N   0  0  0  0  0  0  0  0  0  0  0  0
   26.1587  -33.3340  -13.5769 C   0  0  1  0  0  0  0  0  0  0  0  0
   25.1101  -33.7916  -14.5698 C   0  0  0  0  0  0  0  0  0  0  0  0
   23.4414  -33.5490  -13.9184 S   0  0  0  0  0  0  0  0  0  0  0  0
   25.8920  -33.8946  -12.2190 C   0  0  0  0  0  0  0  0  0  0  0  0
   25.8980  -35.1333  -12.0018 O   0  0  0  0  0  0  0  0  0  0  0  0
   25.6157  -33.0656  -11.0913 N   0  0  0  0  0  0  0  0  0  0  0  0
   25.6946  -33.5151   -9.7353 C   0  0  1  0  0  0  0  0  0  0  0  0
   26.0611  -32.4147   -8.7691 C   0  0  0  0  0  0  0  0  0  0  0  0
   26.2133  -32.8848   -7.3919 C   0  0  0  0  0  0  0  0  0  0  0  0
   26.1345  -34.1886   -6.9577 C   0  0  0  0  0  0  0  0  0  0  0  0
   26.3296  -34.2157   -5.6192 N   0  0  0  0  0  0  0  0  0  0  0  0
   26.5276  -32.9590   -5.2126 C   0  0  0  0  0  0  0  0  0  0  0  0
   26.4561  -32.1504   -6.2955 N   0  0  0  0  0  0  0  0  0  0  0  0
   24.5032  -34.2719   -9.3009 C   0  0  0  0  0  0  0  0  0  0  0  0
   24.5128  -35.0749   -8.1819 O   0  0  0  0  0  0  0  0  0  0  0  0
   23.4536  -34.1798   -9.9711 O   0  0  0  0  0  0  0  0  0  0  0  0
  2  3  2  0
  2  1  1  0
  4  2  1  0
  5  4  1  0
  5  7  1  0
  5  6  1  1
  7  9  1  0
  7  8  2  0
  9 10  1  0
 10 13  1  0
 10 11  1  6
 11 12  1  0
 13 14  2  0
 15 13  1  0
 15 16  1  0
 16 23  1  0
 16 17  1  1
 18 17  1  0
 19 18  2  0
 20 21  1  0
 20 19  1  0
 21 22  2  0
 22 18  1  0
 23 24  1  0
 25 23  2  0
M  END
$$$$
