NCH.pdb
     RDKit          3D

 25 25  0  0  1  0  0  0  0  0999 V2000
   24.8326  -23.4413  -18.9188 N   0  0  0  0  0  0  0  0  0  0  0  0
   25.6904  -23.1408  -17.8338 C   0  0  0  0  0  0  0  0  0  0  0  0
   25.7433  -21.9681  -17.3811 O   0  0  0  0  0  0  0  0  0  0  0  0
   26.5133  -24.2010  -17.2436 C   0  0  0  0  0  0  0  0  0  0  0  0
   26.2013  -25.5299  -17.8614 C   0  0  2  0  0  0  0  0  0  0  0  0
   24.8233  -25.8823  -17.6967 N   0  0  0  0  0  0  0  0  0  0  0  0
   27.1385  -26.5781  -17.3992 C   0  0  0  0  0  0  0  0  0  0  0  0
   28.2570  -26.2112  -16.9768 O   0  0  0  0  0  0  0  0  0  0  0  0
   26.8255  -27.9631  -17.4151 N   0  0  0  0  0  0  0  0  0  0  0  0
   27.8035  -28.8955  -16.9491 C   0  0  1  0  0  0  0  0  0  0  0  0
   27.1329  -30.0837  -16.2907 C   0  0  0  0  0  0  0  0  0  0  0  0
   25.9319  -29.5525  -15.0485 S   0  0  0  0  0  0  0  0  0  0  0  0
   28.7290  -29.3361  -18.0348 C   0  0  0  0  0  0  0  0  0  0  0  0
   28.6198  -28.9069  -19.2118 O   0  0  0  0  0  0  0  0  0  0  0  0
   29.7874  -30.2649  -17.8058 N   0  0  0  0  0  0  0  0  0  0  0  0
   30.8528  -30.5004  -18.7312 C   0  0  1  0  0  0  0  0  0  0  0  0
   31.5689  -29.2363  -19.1410 C   0  0  0  0  0  0  0  0  0  0  0  0
   32.6288  -29.4674  -20.1230 C   0  0  0  0  0  0  0  0  0  0  0  0
   32.9464  -30.6669  -20.7187 C   0  0  0  0  0  0  0  0  0  0  0  0
   33.9826  -30.4725  -21.5666 N   0  0  0  0  0  0  0  0  0  0  0  0
   34.3154  -29.1803  -21.5109 C   0  0  0  0  0  0  0  0  0  0  0  0
   33.4883  -28.5706  -20.6301 N   0  0  0  0  0  0  0  0  0  0  0  0
   31.7850  -31.5581  -18.2914 C   0  0  0  0  0  0  0  0  0  0  0  0
   31.8374  -31.9923  -16.9854 O   0  0  0  0  0  0  0  0  0  0  0  0
   32.5501  -32.0746  -19.1324 O   0  0  0  0  0  0  0  0  0  0  0  0
  2  3  2  0
  2  1  1  0
  4  2  1  0
  5  4  1  0
  5  7  1  0
  5  6  1  1
  7  9  1  0
  7  8  2  0
  9 10  1  0
 10 13  1  0
 10 11  1  6
 11 12  1  0
 13 14  2  0
 15 13  1  0
 15 16  1  0
 16 23  1  0
 16 17  1  1
 18 17  1  0
 19 18  2  0
 20 21  1  0
 20 19  1  0
 21 22  2  0
 22 18  1  0
 23 24  1  0
 25 23  2  0
M  END
$$$$
