NCH.pdb
     RDKit          3D

 25 25  0  0  1  0  0  0  0  0999 V2000
   18.7591  -20.8334  -14.8143 N   0  0  0  0  0  0  0  0  0  0  0  0
   19.0223  -19.6876  -14.0260 C   0  0  0  0  0  0  0  0  0  0  0  0
   18.1036  -18.8598  -13.7947 O   0  0  0  0  0  0  0  0  0  0  0  0
   20.3672  -19.4731  -13.4833 C   0  0  0  0  0  0  0  0  0  0  0  0
   21.2655  -20.6295  -13.8010 C   0  0  2  0  0  0  0  0  0  0  0  0
   20.8165  -21.8381  -13.1780 N   0  0  0  0  0  0  0  0  0  0  0  0
   22.6830  -20.3107  -13.5190 C   0  0  0  0  0  0  0  0  0  0  0  0
   23.1201  -19.2085  -13.9165 O   0  0  0  0  0  0  0  0  0  0  0  0
   23.5551  -21.1913  -12.8258 N   0  0  0  0  0  0  0  0  0  0  0  0
   24.9158  -20.7999  -12.6297 C   0  0  1  0  0  0  0  0  0  0  0  0
   25.5734  -21.6728  -11.5807 C   0  0  0  0  0  0  0  0  0  0  0  0
   27.3706  -21.4793  -11.6006 S   0  0  0  0  0  0  0  0  0  0  0  0
   25.6973  -20.8098  -13.9019 C   0  0  0  0  0  0  0  0  0  0  0  0
   25.6171  -21.7614  -14.7202 O   0  0  0  0  0  0  0  0  0  0  0  0
   26.5775  -19.7476  -14.2656 N   0  0  0  0  0  0  0  0  0  0  0  0
   27.2484  -19.6673  -15.5267 C   0  0  1  0  0  0  0  0  0  0  0  0
   27.9316  -18.3396  -15.7483 C   0  0  0  0  0  0  0  0  0  0  0  0
   28.6603  -18.2712  -17.0153 C   0  0  0  0  0  0  0  0  0  0  0  0
   29.5586  -19.1974  -17.4948 C   0  0  0  0  0  0  0  0  0  0  0  0
   30.0181  -18.7786  -18.6964 N   0  0  0  0  0  0  0  0  0  0  0  0
   29.4260  -17.6141  -18.9737 C   0  0  0  0  0  0  0  0  0  0  0  0
   28.5991  -17.3077  -17.9471 N   0  0  0  0  0  0  0  0  0  0  0  0
   28.1453  -20.8118  -15.7848 C   0  0  0  0  0  0  0  0  0  0  0  0
   28.8601  -21.4241  -14.7793 O   0  0  0  0  0  0  0  0  0  0  0  0
   28.2582  -21.2371  -16.9535 O   0  0  0  0  0  0  0  0  0  0  0  0
  2  3  2  0
  2  1  1  0
  4  2  1  0
  5  4  1  0
  5  7  1  0
  5  6  1  1
  7  9  1  0
  7  8  2  0
  9 10  1  0
 10 13  1  0
 10 11  1  1
 11 12  1  0
 13 14  2  0
 15 13  1  0
 15 16  1  0
 16 23  1  0
 16 17  1  1
 18 17  1  0
 19 18  2  0
 20 21  1  0
 20 19  1  0
 21 22  2  0
 22 18  1  0
 23 24  1  0
 25 23  2  0
M  END
$$$$
