MVS.pdb
     RDKit          3D

 22 21  0  0  1  0  0  0  0  0999 V2000
    7.4364  -11.9193   26.4856 C   0  0  0  0  0  0  0  0  0  0  0  0
    6.0750  -13.1174   26.5031 S   0  0  0  0  0  0  0  0  0  0  0  0
    6.7866  -14.7109   27.0691 C   0  0  0  0  0  0  0  0  0  0  0  0
    7.5569  -15.2680   25.9140 C   0  0  0  0  0  0  0  0  0  0  0  0
    6.6053  -15.7959   24.8679 C   0  0  2  0  0  0  0  0  0  0  0  0
    6.0363  -17.0539   25.3872 N   0  0  0  0  0  0  0  0  0  0  0  0
    7.3686  -16.1198   23.6436 C   0  0  0  0  0  0  0  0  0  0  0  0
    7.8092  -17.2561   23.3550 O   0  0  0  0  0  0  0  0  0  0  0  0
    6.5091  -14.2842   20.3194 C   0  0  0  0  0  0  0  0  0  0  0  0
    8.0259  -14.2243   20.5345 C   0  0  1  0  0  0  0  0  0  0  0  0
    8.3396  -12.8867   21.1152 C   0  0  0  0  0  0  0  0  0  0  0  0
    8.3409  -15.3619   21.5047 C   0  0  2  0  0  0  0  0  0  0  0  0
    7.6361  -15.0871   22.7093 N   0  0  0  0  0  0  0  0  0  0  0  0
    9.7928  -15.5406   21.6808 C   0  0  0  0  0  0  0  0  0  0  0  0
   10.5765  -15.6660   20.7099 O   0  0  0  0  0  0  0  0  0  0  0  0
   11.0926  -16.2637   25.3518 O   0  0  0  0  0  0  0  0  0  0  0  0
   12.1608  -15.7274   24.6092 C   0  0  0  0  0  0  0  0  0  0  0  0
   11.7528  -15.8543   23.1531 C   0  0  2  0  0  0  0  0  0  0  0  0
   10.3504  -15.5758   22.9864 N   0  0  0  0  0  0  0  0  0  0  0  0
   12.0821  -17.2348   22.7147 C   0  0  0  0  0  0  0  0  0  0  0  0
   11.2164  -18.0031   22.2490 O   0  0  0  0  0  0  0  0  0  0  0  0
   13.3913  -17.6793   22.8275 O   0  0  0  0  0  0  0  0  0  0  0  0
  1  2  1  0
  2  3  1  0
  4  3  1  0
  5  6  1  1
  5  4  1  0
  7  5  1  0
  8  7  2  0
 10  9  1  1
 10 12  1  0
 11 10  1  0
 12 13  1  1
 12 14  1  0
 13  7  1  0
 14 19  1  0
 15 14  2  0
 16 17  1  0
 18 17  1  1
 18 20  1  0
 19 18  1  0
 20 21  2  0
 20 22  1  0
M  END
$$$$
