MVS.pdb
     RDKit          3D

 22 21  0  0  1  0  0  0  0  0999 V2000
    6.1756  -12.1578   25.8438 C   0  0  0  0  0  0  0  0  0  0  0  0
    6.9794  -12.8736   27.3035 S   0  0  0  0  0  0  0  0  0  0  0  0
    8.1051  -14.1864   26.6909 C   0  0  0  0  0  0  0  0  0  0  0  0
    7.4607  -15.4931   27.0303 C   0  0  0  0  0  0  0  0  0  0  0  0
    6.5435  -15.9205   25.9102 C   0  0  2  0  0  0  0  0  0  0  0  0
    5.8354  -17.1334   26.3615 N   0  0  0  0  0  0  0  0  0  0  0  0
    7.3607  -16.2889   24.7342 C   0  0  0  0  0  0  0  0  0  0  0  0
    7.9829  -17.3682   24.6053 O   0  0  0  0  0  0  0  0  0  0  0  0
    8.7203  -15.0318   20.2132 C   0  0  0  0  0  0  0  0  0  0  0  0
    7.9816  -14.5854   21.4803 C   0  0  1  0  0  0  0  0  0  0  0  0
    6.5360  -14.4659   21.1328 C   0  0  0  0  0  0  0  0  0  0  0  0
    8.2383  -15.6881   22.5064 C   0  0  2  0  0  0  0  0  0  0  0  0
    7.4653  -15.3718   23.6577 N   0  0  0  0  0  0  0  0  0  0  0  0
    9.6774  -15.8595   22.7725 C   0  0  0  0  0  0  0  0  0  0  0  0
   10.3861  -14.9412   23.2488 O   0  0  0  0  0  0  0  0  0  0  0  0
   11.3964  -19.1975   23.9703 O   0  0  0  0  0  0  0  0  0  0  0  0
   12.0957  -18.7152   22.8485 C   0  0  0  0  0  0  0  0  0  0  0  0
   11.7201  -17.2498   22.7294 C   0  0  2  0  0  0  0  0  0  0  0  0
   10.3091  -17.0992   22.4880 N   0  0  0  0  0  0  0  0  0  0  0  0
   12.5198  -16.6716   21.6190 C   0  0  0  0  0  0  0  0  0  0  0  0
   11.9916  -16.2898   20.5552 O   0  0  0  0  0  0  0  0  0  0  0  0
   13.8933  -16.5540   21.7732 O   0  0  0  0  0  0  0  0  0  0  0  0
  1  2  1  0
  2  3  1  0
  4  3  1  0
  5  6  1  1
  5  4  1  0
  7  5  1  0
  8  7  2  0
 10  9  1  6
 10 12  1  0
 11 10  1  0
 12 13  1  1
 12 14  1  0
 13  7  1  0
 14 19  1  0
 15 14  2  0
 16 17  1  0
 18 17  1  6
 18 20  1  0
 19 18  1  0
 20 21  2  0
 20 22  1  0
M  END
$$$$
