MVS.pdb
     RDKit          3D

 22 21  0  0  1  0  0  0  0  0999 V2000
    5.4319  -12.0106   26.5877 C   0  0  0  0  0  0  0  0  0  0  0  0
    7.1993  -11.7079   26.8595 S   0  0  0  0  0  0  0  0  0  0  0  0
    8.0736  -13.2507   26.3892 C   0  0  0  0  0  0  0  0  0  0  0  0
    7.1711  -13.9815   25.4461 C   0  0  0  0  0  0  0  0  0  0  0  0
    7.8905  -15.1755   24.8671 C   0  0  2  0  0  0  0  0  0  0  0  0
    9.3261  -14.8400   24.8150 N   0  0  0  0  0  0  0  0  0  0  0  0
    7.4283  -15.3882   23.4787 C   0  0  0  0  0  0  0  0  0  0  0  0
    6.3100  -15.8537   23.1606 O   0  0  0  0  0  0  0  0  0  0  0  0
    6.8153  -13.2252   20.8915 C   0  0  0  0  0  0  0  0  0  0  0  0
    7.9469  -14.0599   20.2805 C   0  0  1  0  0  0  0  0  0  0  0  0
    9.2127  -13.2919   20.4614 C   0  0  0  0  0  0  0  0  0  0  0  0
    7.9508  -15.3704   21.0661 C   0  0  2  0  0  0  0  0  0  0  0  0
    8.2943  -15.0486   22.4084 N   0  0  0  0  0  0  0  0  0  0  0  0
    8.8281  -16.3764   20.4419 C   0  0  0  0  0  0  0  0  0  0  0  0
   10.0603  -16.4265   20.6694 O   0  0  0  0  0  0  0  0  0  0  0  0
    7.5300  -19.9216   19.5010 O   0  0  0  0  0  0  0  0  0  0  0  0
    8.3375  -19.4987   18.4289 C   0  0  0  0  0  0  0  0  0  0  0  0
    9.1445  -18.3283   18.9596 C   0  0  2  0  0  0  0  0  0  0  0  0
    8.2839  -17.3350   19.5464 N   0  0  0  0  0  0  0  0  0  0  0  0
    9.9173  -17.7655   17.8226 C   0  0  0  0  0  0  0  0  0  0  0  0
    9.7446  -16.5966   17.4223 O   0  0  0  0  0  0  0  0  0  0  0  0
   10.8576  -18.5656   17.1903 O   0  0  0  0  0  0  0  0  0  0  0  0
  1  2  1  0
  2  3  1  0
  4  3  1  0
  5  6  1  6
  5  4  1  0
  7  5  1  0
  8  7  2  0
 10  9  1  1
 10 12  1  0
 11 10  1  0
 12 13  1  1
 12 14  1  0
 13  7  1  0
 14 19  1  0
 15 14  2  0
 16 17  1  0
 18 17  1  6
 18 20  1  0
 19 18  1  0
 20 21  2  0
 20 22  1  0
M  END
$$$$
