MVS.pdb
     RDKit          3D

 22 21  0  0  1  0  0  0  0  0999 V2000
   -3.4520  -26.0323   41.1793 C   0  0  0  0  0  0  0  0  0  0  0  0
   -3.7320  -24.2410   41.1388 S   0  0  0  0  0  0  0  0  0  0  0  0
   -2.9263  -23.6190   39.6124 C   0  0  0  0  0  0  0  0  0  0  0  0
   -3.8520  -23.9383   38.4814 C   0  0  0  0  0  0  0  0  0  0  0  0
   -3.1917  -23.6031   37.1661 C   0  0  2  0  0  0  0  0  0  0  0  0
   -3.0488  -22.1360   37.1081 N   0  0  0  0  0  0  0  0  0  0  0  0
   -4.0861  -24.0113   36.0616 C   0  0  0  0  0  0  0  0  0  0  0  0
   -4.9879  -23.2949   35.5695 O   0  0  0  0  0  0  0  0  0  0  0  0
   -2.9749  -27.3659   33.9445 C   0  0  0  0  0  0  0  0  0  0  0  0
   -3.7004  -26.1762   33.3052 C   0  0  1  0  0  0  0  0  0  0  0  0
   -4.3833  -26.6795   32.0784 C   0  0  0  0  0  0  0  0  0  0  0  0
   -4.6941  -25.6948   34.3615 C   0  0  2  0  0  0  0  0  0  0  0  0
   -3.9342  -25.3039   35.4986 N   0  0  0  0  0  0  0  0  0  0  0  0
   -5.7241  -26.7103   34.6424 C   0  0  0  0  0  0  0  0  0  0  0  0
   -5.4428  -27.8427   35.1019 O   0  0  0  0  0  0  0  0  0  0  0  0
   -9.5770  -25.7237   34.0773 O   0  0  0  0  0  0  0  0  0  0  0  0
   -9.4245  -26.7767   34.9983 C   0  0  0  0  0  0  0  0  0  0  0  0
   -8.0909  -27.4210   34.6679 C   0  0  2  0  0  0  0  0  0  0  0  0
   -7.0920  -26.4219   34.3924 N   0  0  0  0  0  0  0  0  0  0  0  0
   -8.3009  -28.3083   33.4952 C   0  0  0  0  0  0  0  0  0  0  0  0
   -7.8008  -28.0572   32.3802 O   0  0  0  0  0  0  0  0  0  0  0  0
   -9.0759  -29.4486   33.6481 O   0  0  0  0  0  0  0  0  0  0  0  0
  1  2  1  0
  2  3  1  0
  4  3  1  0
  5  6  1  1
  5  4  1  0
  7  5  1  0
  8  7  2  0
 10  9  1  1
 10 12  1  0
 11 10  1  0
 12 13  1  1
 12 14  1  0
 13  7  1  0
 14 19  1  0
 15 14  2  0
 16 17  1  0
 18 17  1  6
 18 20  1  0
 19 18  1  0
 20 21  2  0
 20 22  1  0
M  END
$$$$
