MVS.pdb
     RDKit          3D

 22 21  0  0  1  0  0  0  0  0999 V2000
    9.7348  -13.9513   29.1695 C   0  0  0  0  0  0  0  0  0  0  0  0
   10.3540  -15.3218   30.1831 S   0  0  0  0  0  0  0  0  0  0  0  0
   10.9651  -16.6006   29.0182 C   0  0  0  0  0  0  0  0  0  0  0  0
    9.7709  -17.3942   28.5915 C   0  0  0  0  0  0  0  0  0  0  0  0
    9.6819  -17.4199   27.0849 C   0  0  2  0  0  0  0  0  0  0  0  0
   10.8071  -16.6199   26.5653 N   0  0  0  0  0  0  0  0  0  0  0  0
    8.4283  -16.7569   26.6663 C   0  0  0  0  0  0  0  0  0  0  0  0
    7.2770  -17.1540   26.9585 O   0  0  0  0  0  0  0  0  0  0  0  0
    8.4075  -12.9585   24.5170 C   0  0  0  0  0  0  0  0  0  0  0  0
    7.4833  -13.4555   25.6347 C   0  0  1  0  0  0  0  0  0  0  0  0
    6.1906  -12.7235   25.5004 C   0  0  0  0  0  0  0  0  0  0  0  0
    7.3243  -14.9553   25.3896 C   0  0  2  0  0  0  0  0  0  0  0  0
    8.5051  -15.5826   25.8751 N   0  0  0  0  0  0  0  0  0  0  0  0
    7.0216  -15.2467   23.9773 C   0  0  0  0  0  0  0  0  0  0  0  0
    6.1316  -14.6338   23.3410 O   0  0  0  0  0  0  0  0  0  0  0  0
    8.7162  -14.3350   20.3756 O   0  0  0  0  0  0  0  0  0  0  0  0
    8.1077  -14.5027   21.6333 C   0  0  0  0  0  0  0  0  0  0  0  0
    8.3684  -15.9450   22.0264 C   0  0  2  0  0  0  0  0  0  0  0  0
    7.7490  -16.2534   23.2886 N   0  0  0  0  0  0  0  0  0  0  0  0
    9.8406  -16.1322   22.0905 C   0  0  0  0  0  0  0  0  0  0  0  0
   10.6039  -15.2276   22.4852 O   0  0  0  0  0  0  0  0  0  0  0  0
   10.3789  -17.3495   21.6999 O   0  0  0  0  0  0  0  0  0  0  0  0
  1  2  1  0
  2  3  1  0
  4  3  1  0
  5  6  1  6
  5  4  1  0
  7  5  1  0
  8  7  2  0
 10  9  1  6
 10 12  1  0
 11 10  1  0
 12 13  1  6
 12 14  1  0
 13  7  1  0
 14 19  1  0
 15 14  2  0
 16 17  1  0
 18 17  1  1
 18 20  1  0
 19 18  1  0
 20 21  2  0
 20 22  1  0
M  END
$$$$
