MVS.pdb
     RDKit          3D

 22 21  0  0  1  0  0  0  0  0999 V2000
    6.3515  -11.4745   26.9838 C   0  0  0  0  0  0  0  0  0  0  0  0
    7.5055  -12.6289   27.7741 S   0  0  0  0  0  0  0  0  0  0  0  0
    7.0467  -14.3078   27.1941 C   0  0  0  0  0  0  0  0  0  0  0  0
    7.2039  -14.3027   25.7064 C   0  0  0  0  0  0  0  0  0  0  0  0
    6.5790  -15.5448   25.1189 C   0  0  2  0  0  0  0  0  0  0  0  0
    6.6517  -16.6006   26.1465 N   0  0  0  0  0  0  0  0  0  0  0  0
    7.3863  -15.9876   23.9620 C   0  0  0  0  0  0  0  0  0  0  0  0
    7.9736  -17.0908   23.8798 O   0  0  0  0  0  0  0  0  0  0  0  0
    6.4852  -14.3403   20.5117 C   0  0  0  0  0  0  0  0  0  0  0  0
    8.0092  -14.4667   20.6210 C   0  0  1  0  0  0  0  0  0  0  0  0
    8.5382  -13.1303   21.0197 C   0  0  0  0  0  0  0  0  0  0  0  0
    8.2500  -15.5258   21.6959 C   0  0  2  0  0  0  0  0  0  0  0  0
    7.5227  -15.1196   22.8489 N   0  0  0  0  0  0  0  0  0  0  0  0
    9.6879  -15.7431   21.9332 C   0  0  0  0  0  0  0  0  0  0  0  0
   10.3760  -14.9698   22.6410 O   0  0  0  0  0  0  0  0  0  0  0  0
   11.0032  -19.3099   21.6578 O   0  0  0  0  0  0  0  0  0  0  0  0
   11.9347  -18.4553   22.2759 C   0  0  0  0  0  0  0  0  0  0  0  0
   11.7343  -17.0956   21.6325 C   0  0  2  0  0  0  0  0  0  0  0  0
   10.3424  -16.8608   21.3508 N   0  0  0  0  0  0  0  0  0  0  0  0
   12.5467  -17.0647   20.3892 C   0  0  0  0  0  0  0  0  0  0  0  0
   13.7794  -17.2565   20.4020 O   0  0  0  0  0  0  0  0  0  0  0  0
   11.9128  -16.8156   19.1808 O   0  0  0  0  0  0  0  0  0  0  0  0
  1  2  1  0
  2  3  1  0
  4  3  1  0
  5  6  1  1
  5  4  1  0
  7  5  1  0
  8  7  2  0
 10  9  1  1
 10 12  1  0
 11 10  1  0
 12 13  1  1
 12 14  1  0
 13  7  1  0
 14 19  1  0
 15 14  2  0
 16 17  1  0
 18 17  1  6
 18 20  1  0
 19 18  1  0
 20 21  2  0
 20 22  1  0
M  END
$$$$
