MVS.pdb
     RDKit          3D

 22 21  0  0  1  0  0  0  0  0999 V2000
    8.2604  -11.2601   27.1443 C   0  0  0  0  0  0  0  0  0  0  0  0
    6.6275  -11.5513   27.8777 S   0  0  0  0  0  0  0  0  0  0  0  0
    5.6978  -12.5947   26.6892 C   0  0  0  0  0  0  0  0  0  0  0  0
    6.6905  -13.5319   26.0774 C   0  0  0  0  0  0  0  0  0  0  0  0
    5.9997  -14.4383   25.0876 C   0  0  2  0  0  0  0  0  0  0  0  0
    5.1003  -15.3209   25.8544 N   0  0  0  0  0  0  0  0  0  0  0  0
    7.0124  -15.2914   24.4295 C   0  0  0  0  0  0  0  0  0  0  0  0
    7.4838  -16.3457   24.9142 O   0  0  0  0  0  0  0  0  0  0  0  0
    6.9698  -15.2998   20.5349 C   0  0  0  0  0  0  0  0  0  0  0  0
    8.4305  -15.2602   20.9988 C   0  0  1  0  0  0  0  0  0  0  0  0
    8.8921  -13.8458   20.8924 C   0  0  0  0  0  0  0  0  0  0  0  0
    8.4076  -15.7515   22.4455 C   0  0  2  0  0  0  0  0  0  0  0  0
    7.5040  -14.9124   23.1545 N   0  0  0  0  0  0  0  0  0  0  0  0
    9.7620  -15.8063   23.0231 C   0  0  0  0  0  0  0  0  0  0  0  0
   10.3715  -14.7787   23.4041 O   0  0  0  0  0  0  0  0  0  0  0  0
   11.1360  -18.6298   25.1890 O   0  0  0  0  0  0  0  0  0  0  0  0
   12.1432  -18.4109   24.2310 C   0  0  0  0  0  0  0  0  0  0  0  0
   11.8032  -17.0863   23.5733 C   0  0  2  0  0  0  0  0  0  0  0  0
   10.4235  -17.0551   23.1643 N   0  0  0  0  0  0  0  0  0  0  0  0
   12.7121  -16.9177   22.4105 C   0  0  0  0  0  0  0  0  0  0  0  0
   12.2792  -16.8058   21.2458 O   0  0  0  0  0  0  0  0  0  0  0  0
   14.0814  -16.8839   22.6298 O   0  0  0  0  0  0  0  0  0  0  0  0
  1  2  1  0
  2  3  1  0
  4  3  1  0
  5  6  1  1
  5  4  1  0
  7  5  1  0
  8  7  2  0
 10  9  1  1
 10 12  1  0
 11 10  1  0
 12 13  1  1
 12 14  1  0
 13  7  1  0
 14 19  1  0
 15 14  2  0
 16 17  1  0
 18 17  1  6
 18 20  1  0
 19 18  1  0
 20 21  2  0
 20 22  1  0
M  END
$$$$
