GHI.pdb
     RDKit          3D

 23 23  0  0  1  0  0  0  0  0999 V2000
    8.0515  -12.8689   17.9155 N   0  0  0  0  0  0  0  0  0  0  0  0
    8.9201  -13.0363   19.0352 C   0  0  0  0  0  0  0  0  0  0  0  0
    8.3239  -13.9357   20.0804 C   0  0  0  0  0  0  0  0  0  0  0  0
    7.0938  -13.9099   20.3397 O   0  0  0  0  0  0  0  0  0  0  0  0
    9.1238  -14.8520   20.8188 N   0  0  0  0  0  0  0  0  0  0  0  0
    8.6225  -15.6762   21.8770 C   0  0  1  0  0  0  0  0  0  0  0  0
    9.1162  -17.1152   21.7637 C   0  0  0  0  0  0  0  0  0  0  0  0
    8.6436  -17.7619   20.5346 C   0  0  0  0  0  0  0  0  0  0  0  0
    7.3390  -17.7873   20.0885 C   0  0  0  0  0  0  0  0  0  0  0  0
    7.3145  -18.4730   18.9323 N   0  0  0  0  0  0  0  0  0  0  0  0
    8.5431  -18.8789   18.6323 C   0  0  0  0  0  0  0  0  0  0  0  0
    9.3510  -18.4387   19.6196 N   0  0  0  0  0  0  0  0  0  0  0  0
    8.8691  -15.1187   23.2205 C   0  0  0  0  0  0  0  0  0  0  0  0
   10.0303  -14.7034   23.4709 O   0  0  0  0  0  0  0  0  0  0  0  0
    7.6292  -11.2743   26.9417 C   0  0  0  0  0  0  0  0  0  0  0  0
    7.3610  -12.7549   27.1666 C   0  0  0  0  0  0  0  0  0  0  0  0
    7.0138  -13.4737   25.9060 C   0  0  2  0  0  0  0  0  0  0  0  0
    5.7256  -14.2226   26.1080 C   0  0  0  0  0  0  0  0  0  0  0  0
    8.1499  -14.3438   25.4721 C   0  0  2  0  0  0  0  0  0  0  0  0
    7.8823  -15.0275   24.2291 N   0  0  0  0  0  0  0  0  0  0  0  0
    8.5960  -15.3005   26.4980 C   0  0  0  0  0  0  0  0  0  0  0  0
    9.4487  -14.8985   27.5359 O   0  0  0  0  0  0  0  0  0  0  0  0
    8.2440  -16.5023   26.4982 O   0  0  0  0  0  0  0  0  0  0  0  0
  2  3  1  0
  2  1  1  0
  3  5  1  0
  4  3  2  0
  5  6  1  0
  6 13  1  0
  7  8  1  0
  6  7  1  1
  8 12  1  0
  9 10  1  0
  9  8  2  0
 10 11  1  0
 11 12  2  0
 13 14  2  0
 13 20  1  0
 15 16  1  0
 17 16  1  0
 17 18  1  1
 19 17  1  0
 19 21  1  0
 19 20  1  6
 21 22  1  0
 23 21  2  0
M  END
$$$$
