GHI.pdb
     RDKit          3D

 23 23  0  0  1  0  0  0  0  0999 V2000
    5.4921  -20.5550   23.2931 N   0  0  0  0  0  0  0  0  0  0  0  0
    5.5103  -19.3191   24.0062 C   0  0  0  0  0  0  0  0  0  0  0  0
    6.5092  -18.3540   23.4340 C   0  0  0  0  0  0  0  0  0  0  0  0
    7.7442  -18.5842   23.4868 O   0  0  0  0  0  0  0  0  0  0  0  0
    6.1010  -17.1421   22.8099 N   0  0  0  0  0  0  0  0  0  0  0  0
    7.0108  -16.1702   22.2825 C   0  0  1  0  0  0  0  0  0  0  0  0
    6.3197  -15.1960   21.3336 C   0  0  0  0  0  0  0  0  0  0  0  0
    7.2759  -14.2961   20.6793 C   0  0  0  0  0  0  0  0  0  0  0  0
    8.2736  -14.6778   19.8071 C   0  0  0  0  0  0  0  0  0  0  0  0
    8.9318  -13.5689   19.4268 N   0  0  0  0  0  0  0  0  0  0  0  0
    8.3934  -12.5093   20.0198 C   0  0  0  0  0  0  0  0  0  0  0  0
    7.3794  -12.9643   20.7853 N   0  0  0  0  0  0  0  0  0  0  0  0
    7.7817  -15.4640   23.3235 C   0  0  0  0  0  0  0  0  0  0  0  0
    8.8951  -14.9805   22.9917 O   0  0  0  0  0  0  0  0  0  0  0  0
    5.5919  -11.9128   26.3844 C   0  0  0  0  0  0  0  0  0  0  0  0
    6.4881  -12.8494   25.5878 C   0  0  0  0  0  0  0  0  0  0  0  0
    7.4004  -13.6486   26.4569 C   0  0  2  0  0  0  0  0  0  0  0  0
    8.2763  -12.7108   27.2408 C   0  0  0  0  0  0  0  0  0  0  0  0
    8.1659  -14.6385   25.6383 C   0  0  2  0  0  0  0  0  0  0  0  0
    7.3414  -15.3038   24.6576 N   0  0  0  0  0  0  0  0  0  0  0  0
    8.9109  -15.6256   26.4366 C   0  0  0  0  0  0  0  0  0  0  0  0
   10.1657  -15.3141   26.9793 O   0  0  0  0  0  0  0  0  0  0  0  0
    8.4717  -16.7750   26.6692 O   0  0  0  0  0  0  0  0  0  0  0  0
  2  3  1  0
  2  1  1  0
  3  5  1  0
  4  3  2  0
  5  6  1  0
  6 13  1  0
  7  8  1  0
  6  7  1  1
  8 12  1  0
  9 10  1  0
  9  8  2  0
 10 11  1  0
 11 12  2  0
 13 14  2  0
 13 20  1  0
 15 16  1  0
 17 16  1  0
 17 18  1  6
 19 17  1  0
 19 21  1  0
 19 20  1  6
 21 22  1  0
 23 21  2  0
M  END
$$$$
