GHI.pdb
     RDKit          3D

 23 23  0  0  1  0  0  0  0  0999 V2000
   13.2563  -14.6380   19.4662 N   0  0  0  0  0  0  0  0  0  0  0  0
   12.5997  -15.4249   20.4591 C   0  0  0  0  0  0  0  0  0  0  0  0
   11.4074  -14.7188   21.0390 C   0  0  0  0  0  0  0  0  0  0  0  0
   11.4326  -13.4851   21.2807 O   0  0  0  0  0  0  0  0  0  0  0  0
   10.2027  -15.4143   21.3384 N   0  0  0  0  0  0  0  0  0  0  0  0
    9.0451  -14.7955   21.9108 C   0  0  1  0  0  0  0  0  0  0  0  0
    7.8029  -14.9993   21.0490 C   0  0  0  0  0  0  0  0  0  0  0  0
    7.9564  -14.4051   19.7165 C   0  0  0  0  0  0  0  0  0  0  0  0
    9.0802  -13.7572   19.2484 C   0  0  0  0  0  0  0  0  0  0  0  0
    8.8289  -13.3587   17.9892 N   0  0  0  0  0  0  0  0  0  0  0  0
    7.5996  -13.7264   17.6456 C   0  0  0  0  0  0  0  0  0  0  0  0
    7.0725  -14.3670   18.7100 N   0  0  0  0  0  0  0  0  0  0  0  0
    8.8061  -15.1849   23.3136 C   0  0  0  0  0  0  0  0  0  0  0  0
    9.3013  -16.2737   23.7047 O   0  0  0  0  0  0  0  0  0  0  0  0
    5.7547  -12.0262   27.0738 C   0  0  0  0  0  0  0  0  0  0  0  0
    6.1940  -13.1110   26.1017 C   0  0  0  0  0  0  0  0  0  0  0  0
    7.4656  -13.7726   26.5157 C   0  0  2  0  0  0  0  0  0  0  0  0
    8.5431  -12.7306   26.6367 C   0  0  0  0  0  0  0  0  0  0  0  0
    7.8084  -14.8805   25.5717 C   0  0  2  0  0  0  0  0  0  0  0  0
    8.0595  -14.4095   24.2304 N   0  0  0  0  0  0  0  0  0  0  0  0
    6.8263  -15.9769   25.5549 C   0  0  0  0  0  0  0  0  0  0  0  0
    6.6263  -16.7825   26.6850 O   0  0  0  0  0  0  0  0  0  0  0  0
    6.1300  -16.2435   24.5488 O   0  0  0  0  0  0  0  0  0  0  0  0
  2  3  1  0
  2  1  1  0
  3  5  1  0
  4  3  2  0
  5  6  1  0
  6 13  1  0
  7  8  1  0
  6  7  1  6
  8 12  1  0
  9 10  1  0
  9  8  2  0
 10 11  1  0
 11 12  2  0
 13 14  2  0
 13 20  1  0
 15 16  1  0
 17 16  1  0
 17 18  1  6
 19 17  1  0
 19 21  1  0
 19 20  1  6
 21 22  1  0
 23 21  2  0
M  END
$$$$
