GHI.pdb
     RDKit          3D

 23 23  0  0  1  0  0  0  0  0999 V2000
    9.9300  -17.0536   18.1349 N   0  0  0  0  0  0  0  0  0  0  0  0
   10.3048  -16.9697   19.5093 C   0  0  0  0  0  0  0  0  0  0  0  0
    9.1527  -16.5618   20.3827 C   0  0  0  0  0  0  0  0  0  0  0  0
    8.2933  -15.7340   19.9861 O   0  0  0  0  0  0  0  0  0  0  0  0
    8.9858  -17.0936   21.6919 N   0  0  0  0  0  0  0  0  0  0  0  0
    7.9568  -16.6779   22.5970 C   0  0  1  0  0  0  0  0  0  0  0  0
    7.0801  -17.8448   23.0406 C   0  0  0  0  0  0  0  0  0  0  0  0
    6.5124  -18.5695   21.8983 C   0  0  0  0  0  0  0  0  0  0  0  0
    5.6084  -18.0598   20.9902 C   0  0  0  0  0  0  0  0  0  0  0  0
    5.3332  -19.0278   20.0986 N   0  0  0  0  0  0  0  0  0  0  0  0
    6.0226  -20.1209   20.4051 C   0  0  0  0  0  0  0  0  0  0  0  0
    6.7424  -19.8310   21.5092 N   0  0  0  0  0  0  0  0  0  0  0  0
    8.4655  -15.9086   23.7486 C   0  0  0  0  0  0  0  0  0  0  0  0
    9.6306  -16.1667   24.1482 O   0  0  0  0  0  0  0  0  0  0  0  0
    5.5690  -11.9698   27.0158 C   0  0  0  0  0  0  0  0  0  0  0  0
    6.2048  -13.1920   26.3702 C   0  0  0  0  0  0  0  0  0  0  0  0
    7.5608  -12.9088   25.8159 C   0  0  2  0  0  0  0  0  0  0  0  0
    7.4219  -12.0175   24.6128 C   0  0  0  0  0  0  0  0  0  0  0  0
    8.2859  -14.1858   25.5337 C   0  0  2  0  0  0  0  0  0  0  0  0
    7.7227  -14.9094   24.4187 N   0  0  0  0  0  0  0  0  0  0  0  0
    8.4188  -15.0690   26.7038 C   0  0  0  0  0  0  0  0  0  0  0  0
    9.2352  -14.7125   27.7866 O   0  0  0  0  0  0  0  0  0  0  0  0
    7.8207  -16.1656   26.7927 O   0  0  0  0  0  0  0  0  0  0  0  0
  2  3  1  0
  2  1  1  0
  3  5  1  0
  4  3  2  0
  5  6  1  0
  6 13  1  0
  7  8  1  0
  6  7  1  1
  8 12  1  0
  9 10  1  0
  9  8  2  0
 10 11  1  0
 11 12  2  0
 13 14  2  0
 13 20  1  0
 15 16  1  0
 17 16  1  0
 17 18  1  6
 19 17  1  0
 19 21  1  0
 19 20  1  6
 21 22  1  0
 23 21  2  0
M  END
$$$$
