MTF.pdb
     RDKit          3D

 27 27  0  0  1  0  0  0  0  0999 V2000
   -0.3620  -21.0669   20.0186 C   0  0  0  0  0  0  0  0  0  0  0  0
   -0.5463  -20.6399   21.7734 S   0  0  0  0  0  0  0  0  0  0  0  0
    0.6313  -21.5452   22.7888 C   0  0  0  0  0  0  0  0  0  0  0  0
    2.0589  -21.1440   22.5208 C   0  0  0  0  0  0  0  0  0  0  0  0
    2.4326  -19.8638   23.2438 C   0  0  2  0  0  0  0  0  0  0  0  0
    1.7144  -18.7880   22.5929 N   0  0  0  0  0  0  0  0  0  0  0  0
    3.8753  -19.6678   23.0116 C   0  0  0  0  0  0  0  0  0  0  0  0
    4.6630  -20.6125   23.2492 O   0  0  0  0  0  0  0  0  0  0  0  0
    5.7757  -19.2954   20.0657 C   0  0  0  0  0  0  0  0  0  0  0  0
    6.2008  -18.1228   20.9137 C   0  0  1  0  0  0  0  0  0  0  0  0
    5.3677  -17.0547   20.5255 O   0  0  0  0  0  0  0  0  0  0  0  0
    5.9085  -18.3664   22.3918 C   0  0  2  0  0  0  0  0  0  0  0  0
    4.4432  -18.4678   22.5311 N   0  0  0  0  0  0  0  0  0  0  0  0
    6.3363  -17.2655   23.2617 C   0  0  0  0  0  0  0  0  0  0  0  0
    5.4854  -16.4013   23.6481 O   0  0  0  0  0  0  0  0  0  0  0  0
    7.6470  -17.0330   23.7518 N   0  0  0  0  0  0  0  0  0  0  0  0
    8.0095  -15.8643   24.5169 C   0  0  1  0  0  0  0  0  0  0  0  0
    7.1123  -15.6182   25.6920 C   0  0  0  0  0  0  0  0  0  0  0  0
    7.1961  -14.2438   26.2368 C   0  0  0  0  0  0  0  0  0  0  0  0
    8.2258  -13.8279   27.0780 C   0  0  0  0  0  0  0  0  0  0  0  0
    8.3073  -12.5540   27.5780 C   0  0  0  0  0  0  0  0  0  0  0  0
    7.3489  -11.6180   27.2571 C   0  0  0  0  0  0  0  0  0  0  0  0
    6.3199  -11.9978   26.4287 C   0  0  0  0  0  0  0  0  0  0  0  0
    6.2586  -13.2830   25.9385 C   0  0  0  0  0  0  0  0  0  0  0  0
    9.4531  -15.8910   24.8474 C   0  0  0  0  0  0  0  0  0  0  0  0
   10.0009  -16.8009   25.4773 O   0  0  0  0  0  0  0  0  0  0  0  0
   10.2552  -14.8360   24.4317 O   0  0  0  0  0  0  0  0  0  0  0  0
  2  1  1  0
  3  2  1  0
  4  3  1  0
  4  5  1  0
  5  7  1  0
  5  6  1  6
  7  8  2  0
 10 12  1  0
 10  9  1  6
 11 10  1  0
 13  7  1  0
 12 13  1  6
 14 12  1  0
 14 15  2  0
 16 14  1  0
 17 25  1  0
 17 16  1  0
 17 18  1  1
 19 18  1  0
 20 19  2  0
 21 20  1  0
 22 21  2  0
 22 23  1  0
 23 24  2  0
 24 19  1  0
 25 27  1  0
 26 25  2  0
M  END
$$$$
