MTF.pdb
     RDKit          3D

 27 27  0  0  1  0  0  0  0  0999 V2000
    7.6733  -11.7595   20.3223 C   0  0  0  0  0  0  0  0  0  0  0  0
    8.3050  -12.3276   18.7180 S   0  0  0  0  0  0  0  0  0  0  0  0
    8.4449  -14.1209   18.6736 C   0  0  0  0  0  0  0  0  0  0  0  0
    8.2925  -14.7495   20.0347 C   0  0  0  0  0  0  0  0  0  0  0  0
    8.4518  -16.2573   19.9831 C   0  0  2  0  0  0  0  0  0  0  0  0
    7.3365  -16.7722   19.2163 N   0  0  0  0  0  0  0  0  0  0  0  0
    8.3197  -16.7315   21.3728 C   0  0  0  0  0  0  0  0  0  0  0  0
    7.1827  -16.7677   21.8971 O   0  0  0  0  0  0  0  0  0  0  0  0
    8.8161  -19.9619   22.7024 C   0  0  0  0  0  0  0  0  0  0  0  0
    9.6208  -19.0742   23.6185 C   0  0  1  0  0  0  0  0  0  0  0  0
   10.9304  -19.0834   23.0984 O   0  0  0  0  0  0  0  0  0  0  0  0
    9.1514  -17.6237   23.5462 C   0  0  2  0  0  0  0  0  0  0  0  0
    9.4049  -17.1560   22.1701 N   0  0  0  0  0  0  0  0  0  0  0  0
    9.8925  -16.7242   24.4369 C   0  0  0  0  0  0  0  0  0  0  0  0
   11.0030  -16.2334   24.0544 O   0  0  0  0  0  0  0  0  0  0  0  0
    9.5052  -16.3110   25.7376 N   0  0  0  0  0  0  0  0  0  0  0  0
   10.3832  -15.6007   26.6360 C   0  0  1  0  0  0  0  0  0  0  0  0
   10.2852  -14.1103   26.5120 C   0  0  0  0  0  0  0  0  0  0  0  0
    8.9002  -13.5901   26.5744 C   0  0  0  0  0  0  0  0  0  0  0  0
    8.5130  -12.5801   27.4523 C   0  0  0  0  0  0  0  0  0  0  0  0
    7.2324  -12.0938   27.5064 C   0  0  0  0  0  0  0  0  0  0  0  0
    6.2599  -12.6008   26.6729 C   0  0  0  0  0  0  0  0  0  0  0  0
    6.6107  -13.5985   25.7949 C   0  0  0  0  0  0  0  0  0  0  0  0
    7.9034  -14.0712   25.7583 C   0  0  0  0  0  0  0  0  0  0  0  0
   10.2279  -16.1088   28.0186 C   0  0  0  0  0  0  0  0  0  0  0  0
   10.8584  -15.6765   28.9884 O   0  0  0  0  0  0  0  0  0  0  0  0
    9.3225  -17.1345   28.2578 O   0  0  0  0  0  0  0  0  0  0  0  0
  2  1  1  0
  3  2  1  0
  4  3  1  0
  4  5  1  0
  5  7  1  0
  5  6  1  6
  7  8  2  0
 10 12  1  0
 10  9  1  6
 11 10  1  0
 13  7  1  0
 12 13  1  6
 14 12  1  0
 14 15  2  0
 16 14  1  0
 17 25  1  0
 17 16  1  0
 17 18  1  1
 19 18  1  0
 20 19  2  0
 21 20  1  0
 22 21  2  0
 22 23  1  0
 23 24  2  0
 24 19  1  0
 25 27  1  0
 26 25  2  0
M  END
$$$$
