MTF.pdb
     RDKit          3D

 27 27  0  0  1  0  0  0  0  0999 V2000
    7.5155  -12.2157   26.5055 C   0  0  0  0  0  0  0  0  0  0  0  0
    6.0629  -13.2444   26.8626 S   0  0  0  0  0  0  0  0  0  0  0  0
    6.1882  -14.8472   26.0546 C   0  0  0  0  0  0  0  0  0  0  0  0
    6.5295  -14.7352   24.5911 C   0  0  0  0  0  0  0  0  0  0  0  0
    6.3124  -16.0449   23.8572 C   0  0  2  0  0  0  0  0  0  0  0  0
    5.4186  -16.8409   24.6724 N   0  0  0  0  0  0  0  0  0  0  0  0
    7.6253  -16.7145   23.8159 C   0  0  0  0  0  0  0  0  0  0  0  0
    7.9251  -17.5208   24.7264 O   0  0  0  0  0  0  0  0  0  0  0  0
    8.9756  -18.3348   20.6507 C   0  0  0  0  0  0  0  0  0  0  0  0
   10.1281  -17.6383   21.3300 C   0  0  1  0  0  0  0  0  0  0  0  0
   10.2462  -16.3898   20.6874 O   0  0  0  0  0  0  0  0  0  0  0  0
    9.8123  -17.3294   22.7910 C   0  0  2  0  0  0  0  0  0  0  0  0
    8.5872  -16.5074   22.8033 N   0  0  0  0  0  0  0  0  0  0  0  0
   10.8523  -16.5404   23.4599 C   0  0  0  0  0  0  0  0  0  0  0  0
   11.1389  -15.3790   23.0250 O   0  0  0  0  0  0  0  0  0  0  0  0
   11.6165  -16.9301   24.5896 N   0  0  0  0  0  0  0  0  0  0  0  0
   12.7753  -16.2033   25.0495 C   0  0  1  0  0  0  0  0  0  0  0  0
   12.4678  -14.8020   25.4830 C   0  0  0  0  0  0  0  0  0  0  0  0
   11.6337  -14.7182   26.7037 C   0  0  0  0  0  0  0  0  0  0  0  0
   10.2411  -14.7135   26.6664 C   0  0  0  0  0  0  0  0  0  0  0  0
    9.4683  -14.6421   27.7965 C   0  0  0  0  0  0  0  0  0  0  0  0
   10.0581  -14.5704   29.0393 C   0  0  0  0  0  0  0  0  0  0  0  0
   11.4308  -14.5731   29.1094 C   0  0  0  0  0  0  0  0  0  0  0  0
   12.1867  -14.6456   27.9608 C   0  0  0  0  0  0  0  0  0  0  0  0
   13.5214  -17.0009   26.0501 C   0  0  0  0  0  0  0  0  0  0  0  0
   13.1114  -18.0604   26.5340 O   0  0  0  0  0  0  0  0  0  0  0  0
   14.7599  -16.5443   26.4825 O   0  0  0  0  0  0  0  0  0  0  0  0
  2  1  1  0
  3  2  1  0
  4  3  1  0
  4  5  1  0
  5  7  1  0
  5  6  1  1
  7  8  2  0
 10 12  1  0
 10  9  1  6
 11 10  1  0
 13  7  1  0
 12 13  1  6
 14 12  1  0
 14 15  2  0
 16 14  1  0
 17 25  1  0
 17 16  1  0
 17 18  1  1
 19 18  1  0
 20 19  2  0
 21 20  1  0
 22 21  2  0
 22 23  1  0
 23 24  2  0
 24 19  1  0
 25 27  1  0
 26 25  2  0
M  END
$$$$
