MTF.pdb
     RDKit          3D

 27 27  0  0  1  0  0  0  0  0999 V2000
    8.7921  -11.6431   19.9008 C   0  0  0  0  0  0  0  0  0  0  0  0
    8.8023  -12.2262   18.1816 S   0  0  0  0  0  0  0  0  0  0  0  0
    8.8787  -14.0223   18.1059 C   0  0  0  0  0  0  0  0  0  0  0  0
    8.3062  -14.6806   19.3346 C   0  0  0  0  0  0  0  0  0  0  0  0
    8.4692  -16.1884   19.2972 C   0  0  2  0  0  0  0  0  0  0  0  0
    7.5970  -16.6800   18.2510 N   0  0  0  0  0  0  0  0  0  0  0  0
    7.9704  -16.6872   20.5918 C   0  0  0  0  0  0  0  0  0  0  0  0
    6.7357  -16.8185   20.7576 O   0  0  0  0  0  0  0  0  0  0  0  0
    7.9833  -19.8619   21.6063 C   0  0  0  0  0  0  0  0  0  0  0  0
    8.6158  -19.1696   22.7877 C   0  0  1  0  0  0  0  0  0  0  0  0
   10.0016  -19.1786   22.5328 O   0  0  0  0  0  0  0  0  0  0  0  0
    8.2119  -17.6993   22.8565 C   0  0  2  0  0  0  0  0  0  0  0  0
    8.8017  -17.0341   21.6791 N   0  0  0  0  0  0  0  0  0  0  0  0
    8.7362  -17.0035   24.0365 C   0  0  0  0  0  0  0  0  0  0  0  0
    9.8671  -16.4225   23.9741 O   0  0  0  0  0  0  0  0  0  0  0  0
    8.1071  -16.8907   25.3029 N   0  0  0  0  0  0  0  0  0  0  0  0
    8.7155  -16.2293   26.4321 C   0  0  1  0  0  0  0  0  0  0  0  0
    7.7248  -15.5664   27.3405 C   0  0  0  0  0  0  0  0  0  0  0  0
    7.3142  -14.2136   26.8998 C   0  0  0  0  0  0  0  0  0  0  0  0
    8.2308  -13.2141   26.5810 C   0  0  0  0  0  0  0  0  0  0  0  0
    7.8514  -11.9633   26.1671 C   0  0  0  0  0  0  0  0  0  0  0  0
    6.5165  -11.6446   26.0496 C   0  0  0  0  0  0  0  0  0  0  0  0
    5.5873  -12.6098   26.3568 C   0  0  0  0  0  0  0  0  0  0  0  0
    5.9918  -13.8592   26.7705 C   0  0  0  0  0  0  0  0  0  0  0  0
    9.6567  -17.1432   27.1199 C   0  0  0  0  0  0  0  0  0  0  0  0
    9.5716  -18.3746   27.0881 O   0  0  0  0  0  0  0  0  0  0  0  0
   10.7052  -16.5992   27.8507 O   0  0  0  0  0  0  0  0  0  0  0  0
  2  1  1  0
  3  2  1  0
  4  3  1  0
  4  5  1  0
  5  7  1  0
  5  6  1  6
  7  8  2  0
 10 12  1  0
 10  9  1  6
 11 10  1  0
 13  7  1  0
 12 13  1  6
 14 12  1  0
 14 15  2  0
 16 14  1  0
 17 25  1  0
 17 16  1  0
 17 18  1  1
 19 18  1  0
 20 19  2  0
 21 20  1  0
 22 21  2  0
 22 23  1  0
 23 24  2  0
 24 19  1  0
 25 27  1  0
 26 25  2  0
M  END
$$$$
