MTF.pdb
     RDKit          3D

 27 27  0  0  1  0  0  0  0  0999 V2000
    6.5256  -12.5132   20.2059 C   0  0  0  0  0  0  0  0  0  0  0  0
    8.0685  -12.3109   19.2710 S   0  0  0  0  0  0  0  0  0  0  0  0
    8.9157  -13.8853   19.0681 C   0  0  0  0  0  0  0  0  0  0  0  0
    8.4123  -14.6676   17.8826 C   0  0  0  0  0  0  0  0  0  0  0  0
    9.1867  -15.9570   17.6848 C   0  0  2  0  0  0  0  0  0  0  0  0
    8.5941  -16.6339   16.5502 N   0  0  0  0  0  0  0  0  0  0  0  0
    8.9443  -16.7700   18.8906 C   0  0  0  0  0  0  0  0  0  0  0  0
    8.2694  -17.8205   18.7897 O   0  0  0  0  0  0  0  0  0  0  0  0
    9.2840  -19.2390   19.6203 C   0  0  0  0  0  0  0  0  0  0  0  0
    9.8432  -18.7022   20.9141 C   0  0  1  0  0  0  0  0  0  0  0  0
   11.1957  -18.4098   20.6482 O   0  0  0  0  0  0  0  0  0  0  0  0
    9.1945  -17.3743   21.2956 C   0  0  2  0  0  0  0  0  0  0  0  0
    9.4283  -16.4424   20.1759 N   0  0  0  0  0  0  0  0  0  0  0  0
    9.7868  -16.7548   22.4860 C   0  0  0  0  0  0  0  0  0  0  0  0
   10.7719  -15.9590   22.3577 O   0  0  0  0  0  0  0  0  0  0  0  0
    9.3765  -16.9409   23.8311 N   0  0  0  0  0  0  0  0  0  0  0  0
    9.8764  -16.1468   24.9275 C   0  0  1  0  0  0  0  0  0  0  0  0
    8.8254  -15.7915   25.9351 C   0  0  0  0  0  0  0  0  0  0  0  0
    9.3398  -15.0410   27.1035 C   0  0  0  0  0  0  0  0  0  0  0  0
    9.9212  -15.6661   28.2044 C   0  0  0  0  0  0  0  0  0  0  0  0
   10.4031  -14.9716   29.2838 C   0  0  0  0  0  0  0  0  0  0  0  0
   10.3266  -13.5966   29.3168 C   0  0  0  0  0  0  0  0  0  0  0  0
    9.7582  -12.9504   28.2451 C   0  0  0  0  0  0  0  0  0  0  0  0
    9.2809  -13.6688   27.1719 C   0  0  0  0  0  0  0  0  0  0  0  0
   11.0890  -16.7706   25.5059 C   0  0  0  0  0  0  0  0  0  0  0  0
   12.1273  -16.1539   25.7636 O   0  0  0  0  0  0  0  0  0  0  0  0
   11.0758  -18.1319   25.7815 O   0  0  0  0  0  0  0  0  0  0  0  0
  2  1  1  0
  3  2  1  0
  4  3  1  0
  4  5  1  0
  5  7  1  0
  5  6  1  6
  7  8  2  0
 10 12  1  0
 10  9  1  6
 11 10  1  0
 13  7  1  0
 12 13  1  6
 14 12  1  0
 14 15  2  0
 16 14  1  0
 17 25  1  0
 17 16  1  0
 17 18  1  1
 19 18  1  0
 20 19  2  0
 21 20  1  0
 22 21  2  0
 22 23  1  0
 23 24  2  0
 24 19  1  0
 25 27  1  0
 26 25  2  0
M  END
$$$$
