PTE.pdb
     RDKit          3D

 24 24  0  0  1  0  0  0  0  0999 V2000
   27.1369  -19.1562  -15.1657 N   0  0  0  0  0  0  0  0  0  0  0  0
   28.4588  -18.6862  -15.5598 C   0  0  0  0  0  0  0  0  0  0  0  0
   29.4013  -19.8373  -15.4346 C   0  0  0  0  0  0  0  0  0  0  0  0
   28.5943  -20.8277  -14.6095 C   0  0  0  0  0  0  0  0  0  0  0  0
   27.2162  -20.5800  -15.1634 C   0  0  1  0  0  0  0  0  0  0  0  0
   26.1248  -21.2498  -14.4434 C   0  0  0  0  0  0  0  0  0  0  0  0
   26.1037  -22.5086  -14.4265 O   0  0  0  0  0  0  0  0  0  0  0  0
   25.5034  -21.0152  -11.0385 C   0  0  0  0  0  0  0  0  0  0  0  0
   24.1481  -20.7468  -11.6054 C   0  0  1  0  0  0  0  0  0  0  0  0
   24.0451  -19.3273  -11.6726 O   0  0  0  0  0  0  0  0  0  0  0  0
   24.0058  -21.2903  -13.0360 C   0  0  2  0  0  0  0  0  0  0  0  0
   25.0811  -20.5884  -13.7590 N   0  0  0  0  0  0  0  0  0  0  0  0
   22.6905  -20.8414  -13.5412 C   0  0  0  0  0  0  0  0  0  0  0  0
   22.5774  -19.6310  -13.9443 O   0  0  0  0  0  0  0  0  0  0  0  0
   21.5452  -21.6218  -13.6243 N   0  0  0  0  0  0  0  0  0  0  0  0
   20.2501  -21.1125  -14.0979 C   0  0  1  0  0  0  0  0  0  0  0  0
   19.6103  -22.2715  -14.8144 C   0  0  0  0  0  0  0  0  0  0  0  0
   20.4050  -22.8673  -15.9186 C   0  0  0  0  0  0  0  0  0  0  0  0
   19.7943  -24.0387  -16.5656 C   0  0  0  0  0  0  0  0  0  0  0  0
   20.3193  -24.6172  -17.5376 O   0  0  0  0  0  0  0  0  0  0  0  0
   19.3988  -20.6960  -12.9809 C   0  0  0  0  0  0  0  0  0  0  0  0
   18.3073  -20.1158  -13.1476 O   0  0  0  0  0  0  0  0  0  0  0  0
   18.5684  -24.5452  -16.0839 O   0  0  0  0  0  0  0  0  0  0  0  0
   19.7555  -20.9246  -11.6323 O   0  0  0  0  0  0  0  0  0  0  0  0
  1  2  1  0
  3  2  1  0
  4  3  1  0
  4  5  1  0
  5  1  1  0
  6 12  1  0
  5  6  1  1
  7  6  2  0
  9  8  1  6
  9 11  1  0
 10  9  1  0
 11 12  1  6
 11 13  1  0
 13 15  1  0
 14 13  2  0
 15 16  1  0
 16 17  1  1
 16 21  1  0
 18 17  1  0
 19 23  1  0
 19 18  1  0
 20 19  2  0
 21 24  1  0
 22 21  2  0
M  END
$$$$
