PTE.pdb
     RDKit          3D

 24 24  0  0  1  0  0  0  0  0999 V2000
   16.8650  -16.9909    3.3798 N   0  0  0  0  0  0  0  0  0  0  0  0
   15.6184  -17.7434    3.3194 C   0  0  0  0  0  0  0  0  0  0  0  0
   14.8635  -17.4651    4.5770 C   0  0  0  0  0  0  0  0  0  0  0  0
   15.9274  -16.8298    5.4589 C   0  0  0  0  0  0  0  0  0  0  0  0
   16.6945  -16.0417    4.4302 C   0  0  1  0  0  0  0  0  0  0  0  0
   17.9429  -15.4357    4.9124 C   0  0  0  0  0  0  0  0  0  0  0  0
   19.0339  -15.9688    4.5793 O   0  0  0  0  0  0  0  0  0  0  0  0
   19.0862  -11.8394    4.4717 C   0  0  0  0  0  0  0  0  0  0  0  0
   19.0525  -12.1824    5.9247 C   0  0  1  0  0  0  0  0  0  0  0  0
   17.7251  -11.8851    6.3486 O   0  0  0  0  0  0  0  0  0  0  0  0
   19.2921  -13.6812    6.1669 C   0  0  2  0  0  0  0  0  0  0  0  0
   18.0215  -14.2879    5.7318 N   0  0  0  0  0  0  0  0  0  0  0  0
   19.4576  -13.8634    7.6251 C   0  0  0  0  0  0  0  0  0  0  0  0
   18.4040  -13.9435    8.3489 O   0  0  0  0  0  0  0  0  0  0  0  0
   20.6686  -13.9604    8.2972 N   0  0  0  0  0  0  0  0  0  0  0  0
   20.7776  -14.0695    9.7591 C   0  0  1  0  0  0  0  0  0  0  0  0
   21.6311  -15.2859    9.9997 C   0  0  0  0  0  0  0  0  0  0  0  0
   21.0765  -16.5726    9.5070 C   0  0  0  0  0  0  0  0  0  0  0  0
   21.9698  -17.7326    9.6496 C   0  0  0  0  0  0  0  0  0  0  0  0
   21.5621  -18.9076    9.5589 O   0  0  0  0  0  0  0  0  0  0  0  0
   21.4292  -12.8912   10.3359 C   0  0  0  0  0  0  0  0  0  0  0  0
   21.5767  -12.7388   11.5650 O   0  0  0  0  0  0  0  0  0  0  0  0
   23.3444  -17.5319    9.8974 O   0  0  0  0  0  0  0  0  0  0  0  0
   21.9390  -11.8422    9.5371 O   0  0  0  0  0  0  0  0  0  0  0  0
  1  2  1  0
  3  2  1  0
  4  3  1  0
  4  5  1  0
  5  1  1  0
  6 12  1  0
  5  6  1  1
  7  6  2  0
  9  8  1  6
  9 11  1  0
 10  9  1  0
 11 12  1  1
 11 13  1  0
 13 15  1  0
 14 13  2  0
 15 16  1  0
 16 17  1  6
 16 21  1  0
 18 17  1  0
 19 23  1  0
 19 18  1  0
 20 19  2  0
 21 24  1  0
 22 21  2  0
M  END
$$$$
