PTE.pdb
     RDKit          3D

 24 24  0  0  1  0  0  0  0  0999 V2000
   24.5025  -11.8551  -15.8761 N   0  0  0  0  0  0  0  0  0  0  0  0
   25.1790  -13.1414  -15.9845 C   0  0  0  0  0  0  0  0  0  0  0  0
   24.3998  -13.9800  -16.9429 C   0  0  0  0  0  0  0  0  0  0  0  0
   23.0889  -13.2164  -17.0491 C   0  0  0  0  0  0  0  0  0  0  0  0
   23.5952  -11.8002  -16.9748 C   0  0  1  0  0  0  0  0  0  0  0  0
   22.5539  -10.7710  -16.8542 C   0  0  0  0  0  0  0  0  0  0  0  0
   21.8390  -10.5230  -17.8605 O   0  0  0  0  0  0  0  0  0  0  0  0
   19.5969  -10.7261  -14.8121 C   0  0  0  0  0  0  0  0  0  0  0  0
   20.3599   -9.4972  -14.4409 C   0  0  1  0  0  0  0  0  0  0  0  0
   21.2299   -9.9010  -13.3873 O   0  0  0  0  0  0  0  0  0  0  0  0
   21.2362   -8.9934  -15.5987 C   0  0  2  0  0  0  0  0  0  0  0  0
   22.2851  -10.0249  -15.6853 N   0  0  0  0  0  0  0  0  0  0  0  0
   21.8327   -7.7117  -15.1647 C   0  0  0  0  0  0  0  0  0  0  0  0
   22.9745   -7.7404  -14.5854 O   0  0  0  0  0  0  0  0  0  0  0  0
   21.2639   -6.4561  -15.3304 N   0  0  0  0  0  0  0  0  0  0  0  0
   21.9051   -5.2107  -14.8848 C   0  0  1  0  0  0  0  0  0  0  0  0
   21.1693   -4.1110  -15.6026 C   0  0  0  0  0  0  0  0  0  0  0  0
   21.6033   -2.7270  -15.2830 C   0  0  0  0  0  0  0  0  0  0  0  0
   20.8666   -1.6644  -15.9843 C   0  0  0  0  0  0  0  0  0  0  0  0
   19.9885   -1.9073  -16.8357 O   0  0  0  0  0  0  0  0  0  0  0  0
   21.7698   -5.0280  -13.4376 C   0  0  0  0  0  0  0  0  0  0  0  0
   20.9385   -5.6597  -12.7552 O   0  0  0  0  0  0  0  0  0  0  0  0
   21.1467   -0.3114  -15.6975 O   0  0  0  0  0  0  0  0  0  0  0  0
   22.5754   -4.1214  -12.7114 O   0  0  0  0  0  0  0  0  0  0  0  0
  1  2  1  0
  3  2  1  0
  4  3  1  0
  4  5  1  0
  5  1  1  0
  6 12  1  0
  5  6  1  1
  7  6  2  0
  9  8  1  6
  9 11  1  0
 10  9  1  0
 11 12  1  1
 11 13  1  0
 13 15  1  0
 14 13  2  0
 15 16  1  0
 16 17  1  6
 16 21  1  0
 18 17  1  0
 19 23  1  0
 19 18  1  0
 20 19  2  0
 21 24  1  0
 22 21  2  0
M  END
$$$$
