PTE.pdb
     RDKit          3D

 24 24  0  0  1  0  0  0  0  0999 V2000
   23.3282  -10.9022  -16.7540 N   0  0  0  0  0  0  0  0  0  0  0  0
   23.1781  -12.3247  -16.4752 C   0  0  0  0  0  0  0  0  0  0  0  0
   24.1955  -12.6912  -15.4459 C   0  0  0  0  0  0  0  0  0  0  0  0
   25.1251  -11.4877  -15.4672 C   0  0  0  0  0  0  0  0  0  0  0  0
   24.1289  -10.3817  -15.6950 C   0  0  1  0  0  0  0  0  0  0  0  0
   24.7136   -9.0614  -15.9655 C   0  0  0  0  0  0  0  0  0  0  0  0
   25.4273   -8.5298  -15.0749 O   0  0  0  0  0  0  0  0  0  0  0  0
   27.1037   -8.1089  -18.4875 C   0  0  0  0  0  0  0  0  0  0  0  0
   25.9280   -7.2116  -18.6942 C   0  0  1  0  0  0  0  0  0  0  0  0
   25.0840   -7.9055  -19.6086 O   0  0  0  0  0  0  0  0  0  0  0  0
   25.1315   -7.0001  -17.3968 C   0  0  2  0  0  0  0  0  0  0  0  0
   24.5378   -8.3279  -17.1597 N   0  0  0  0  0  0  0  0  0  0  0  0
   24.0630   -6.0234  -17.6987 C   0  0  0  0  0  0  0  0  0  0  0  0
   22.9137   -6.4705  -18.0442 O   0  0  0  0  0  0  0  0  0  0  0  0
   24.1880   -4.6419  -17.6400 N   0  0  0  0  0  0  0  0  0  0  0  0
   23.0542   -3.7185  -17.7908 C   0  0  1  0  0  0  0  0  0  0  0  0
   22.1747   -3.9778  -16.5969 C   0  0  0  0  0  0  0  0  0  0  0  0
   20.9533   -3.1384  -16.4993 C   0  0  0  0  0  0  0  0  0  0  0  0
   20.0556   -3.4704  -15.3823 C   0  0  0  0  0  0  0  0  0  0  0  0
   18.8256   -3.2704  -15.4287 O   0  0  0  0  0  0  0  0  0  0  0  0
   23.4970   -2.3222  -17.7798 C   0  0  0  0  0  0  0  0  0  0  0  0
   24.6143   -1.9748  -17.3479 O   0  0  0  0  0  0  0  0  0  0  0  0
   20.5843   -4.0390  -14.2040 O   0  0  0  0  0  0  0  0  0  0  0  0
   22.6868   -1.2683  -18.2607 O   0  0  0  0  0  0  0  0  0  0  0  0
  1  2  1  0
  3  2  1  0
  4  3  1  0
  4  5  1  0
  5  1  1  0
  6 12  1  0
  5  6  1  6
  7  6  2  0
  9  8  1  1
  9 11  1  0
 10  9  1  0
 11 12  1  6
 11 13  1  0
 13 15  1  0
 14 13  2  0
 15 16  1  0
 16 17  1  1
 16 21  1  0
 18 17  1  0
 19 23  1  0
 19 18  1  0
 20 19  2  0
 21 24  1  0
 22 21  2  0
M  END
$$$$
