PTE.pdb
     RDKit          3D

 24 24  0  0  1  0  0  0  0  0999 V2000
   20.5823  -12.2059  -16.0264 N   0  0  0  0  0  0  0  0  0  0  0  0
   20.4511  -13.6537  -16.1282 C   0  0  0  0  0  0  0  0  0  0  0  0
   19.5691  -13.9444  -17.2972 C   0  0  0  0  0  0  0  0  0  0  0  0
   18.9475  -12.5853  -17.5791 C   0  0  0  0  0  0  0  0  0  0  0  0
   20.1146  -11.6857  -17.2690 C   0  0  1  0  0  0  0  0  0  0  0  0
   19.8074  -10.2492  -17.2512 C   0  0  0  0  0  0  0  0  0  0  0  0
   19.6417   -9.6596  -18.3513 O   0  0  0  0  0  0  0  0  0  0  0  0
   16.8946   -8.5117  -15.7914 C   0  0  0  0  0  0  0  0  0  0  0  0
   18.1284   -7.9599  -15.1564 C   0  0  1  0  0  0  0  0  0  0  0  0
   18.3949   -8.8167  -14.0497 O   0  0  0  0  0  0  0  0  0  0  0  0
   19.3403   -8.0295  -16.0992 C   0  0  2  0  0  0  0  0  0  0  0  0
   19.6816   -9.4630  -16.0845 N   0  0  0  0  0  0  0  0  0  0  0  0
   20.4272   -7.2521  -15.4659 C   0  0  0  0  0  0  0  0  0  0  0  0
   21.2522   -7.8716  -14.7070 O   0  0  0  0  0  0  0  0  0  0  0  0
   20.6447   -5.8896  -15.6200 N   0  0  0  0  0  0  0  0  0  0  0  0
   21.7113   -5.1554  -14.9240 C   0  0  1  0  0  0  0  0  0  0  0  0
   21.6219   -3.7456  -15.4442 C   0  0  0  0  0  0  0  0  0  0  0  0
   22.6006   -2.7837  -14.8761 C   0  0  0  0  0  0  0  0  0  0  0  0
   22.4367   -1.3910  -15.3202 C   0  0  0  0  0  0  0  0  0  0  0  0
   21.6090   -1.0585  -16.1917 O   0  0  0  0  0  0  0  0  0  0  0  0
   21.5030   -5.1573  -13.4740 C   0  0  0  0  0  0  0  0  0  0  0  0
   20.3769   -5.2999  -12.9569 O   0  0  0  0  0  0  0  0  0  0  0  0
   23.2347   -0.3758  -14.7513 O   0  0  0  0  0  0  0  0  0  0  0  0
   22.5672   -4.9987  -12.5572 O   0  0  0  0  0  0  0  0  0  0  0  0
  1  2  1  0
  3  2  1  0
  4  3  1  0
  4  5  1  0
  5  1  1  0
  6 12  1  0
  5  6  1  1
  7  6  2  0
  9  8  1  6
  9 11  1  0
 10  9  1  0
 11 12  1  1
 11 13  1  0
 13 15  1  0
 14 13  2  0
 15 16  1  0
 16 17  1  6
 16 21  1  0
 18 17  1  0
 19 23  1  0
 19 18  1  0
 20 19  2  0
 21 24  1  0
 22 21  2  0
M  END
$$$$
