PTE.pdb
     RDKit          3D

 24 24  0  0  1  0  0  0  0  0999 V2000
   22.8195  -15.0465  -17.0999 N   0  0  0  0  0  0  0  0  0  0  0  0
   22.7443  -16.4804  -17.3490 C   0  0  0  0  0  0  0  0  0  0  0  0
   22.3787  -17.1420  -16.0616 C   0  0  0  0  0  0  0  0  0  0  0  0
   22.6263  -16.0358  -15.0477 C   0  0  0  0  0  0  0  0  0  0  0  0
   22.1802  -14.8371  -15.8426 C   0  0  1  0  0  0  0  0  0  0  0  0
   22.4660  -13.5362  -15.2228 C   0  0  0  0  0  0  0  0  0  0  0  0
   21.9985  -13.3041  -14.0770 O   0  0  0  0  0  0  0  0  0  0  0  0
   25.9124  -11.8859  -15.0560 C   0  0  0  0  0  0  0  0  0  0  0  0
   24.9360  -10.8996  -15.6073 C   0  0  1  0  0  0  0  0  0  0  0  0
   24.9996  -11.0607  -17.0216 O   0  0  0  0  0  0  0  0  0  0  0  0
   23.4959  -11.2105  -15.1694 C   0  0  2  0  0  0  0  0  0  0  0  0
   23.2327  -12.5085  -15.8155 N   0  0  0  0  0  0  0  0  0  0  0  0
   22.6281  -10.1721  -15.7655 C   0  0  0  0  0  0  0  0  0  0  0  0
   22.1835  -10.3620  -16.9516 O   0  0  0  0  0  0  0  0  0  0  0  0
   22.2394   -8.9898  -15.1501 N   0  0  0  0  0  0  0  0  0  0  0  0
   21.3601   -7.9971  -15.7844 C   0  0  1  0  0  0  0  0  0  0  0  0
   19.9646   -8.3963  -15.3853 C   0  0  0  0  0  0  0  0  0  0  0  0
   18.8744   -7.5164  -15.8787 C   0  0  0  0  0  0  0  0  0  0  0  0
   17.5300   -7.8521  -15.3854 C   0  0  0  0  0  0  0  0  0  0  0  0
   16.5297   -7.1508  -15.6358 O   0  0  0  0  0  0  0  0  0  0  0  0
   21.6417   -6.6447  -15.2968 C   0  0  0  0  0  0  0  0  0  0  0  0
   22.2859   -6.4279  -14.2510 O   0  0  0  0  0  0  0  0  0  0  0  0
   17.3411   -9.0079  -14.5980 O   0  0  0  0  0  0  0  0  0  0  0  0
   21.2029   -5.4879  -15.9805 O   0  0  0  0  0  0  0  0  0  0  0  0
  1  2  1  0
  3  2  1  0
  4  3  1  0
  4  5  1  0
  5  1  1  0
  6 12  1  0
  5  6  1  1
  7  6  2  0
  9  8  1  1
  9 11  1  0
 10  9  1  0
 11 12  1  6
 11 13  1  0
 13 15  1  0
 14 13  2  0
 15 16  1  0
 16 17  1  1
 16 21  1  0
 18 17  1  0
 19 23  1  0
 19 18  1  0
 20 19  2  0
 21 24  1  0
 22 21  2  0
M  END
$$$$
