PTE.pdb
     RDKit          3D

 24 24  0  0  1  0  0  0  0  0999 V2000
   22.8288  -14.2015  -16.4592 N   0  0  0  0  0  0  0  0  0  0  0  0
   22.8412  -15.6454  -16.2627 C   0  0  0  0  0  0  0  0  0  0  0  0
   24.1734  -16.0109  -15.6964 C   0  0  0  0  0  0  0  0  0  0  0  0
   24.9883  -14.7518  -15.9485 C   0  0  0  0  0  0  0  0  0  0  0  0
   23.9369  -13.6992  -15.7156 C   0  0  1  0  0  0  0  0  0  0  0  0
   24.3365  -12.3300  -16.0674 C   0  0  0  0  0  0  0  0  0  0  0  0
   25.2904  -11.8045  -15.4357 O   0  0  0  0  0  0  0  0  0  0  0  0
   25.3515  -10.9882  -19.4128 C   0  0  0  0  0  0  0  0  0  0  0  0
   24.2115  -10.1629  -18.9135 C   0  0  1  0  0  0  0  0  0  0  0  0
   23.0395  -10.8094  -19.4018 O   0  0  0  0  0  0  0  0  0  0  0  0
   24.1337  -10.1592  -17.3785 C   0  0  2  0  0  0  0  0  0  0  0  0
   23.7290  -11.5422  -17.0702 N   0  0  0  0  0  0  0  0  0  0  0  0
   23.0493   -9.2270  -17.0019 C   0  0  0  0  0  0  0  0  0  0  0  0
   21.8456   -9.6645  -17.0070 O   0  0  0  0  0  0  0  0  0  0  0  0
   23.2142   -7.8986  -16.6336 N   0  0  0  0  0  0  0  0  0  0  0  0
   22.1001   -7.0194  -16.2507 C   0  0  1  0  0  0  0  0  0  0  0  0
   22.5581   -6.3294  -14.9936 C   0  0  0  0  0  0  0  0  0  0  0  0
   21.6238   -5.3200  -14.4331 C   0  0  0  0  0  0  0  0  0  0  0  0
   22.1247   -4.5907  -13.2579 C   0  0  0  0  0  0  0  0  0  0  0  0
   23.2039   -4.8760  -12.7020 O   0  0  0  0  0  0  0  0  0  0  0  0
   21.8270   -6.0205  -17.2868 C   0  0  0  0  0  0  0  0  0  0  0  0
   22.6625   -5.7121  -18.1600 O   0  0  0  0  0  0  0  0  0  0  0  0
   21.3727   -3.5231  -12.7231 O   0  0  0  0  0  0  0  0  0  0  0  0
   20.5932   -5.3356  -17.3701 O   0  0  0  0  0  0  0  0  0  0  0  0
  1  2  1  0
  3  2  1  0
  4  3  1  0
  4  5  1  0
  5  1  1  0
  6 12  1  0
  5  6  1  6
  7  6  2  0
  9  8  1  1
  9 11  1  0
 10  9  1  0
 11 12  1  6
 11 13  1  0
 13 15  1  0
 14 13  2  0
 15 16  1  0
 16 17  1  1
 16 21  1  0
 18 17  1  0
 19 23  1  0
 19 18  1  0
 20 19  2  0
 21 24  1  0
 22 21  2  0
M  END
$$$$
