PTE.pdb
     RDKit          3D

 24 24  0  0  1  0  0  0  0  0999 V2000
   23.2135  -18.8075  -17.1036 N   0  0  0  0  0  0  0  0  0  0  0  0
   23.3120  -20.2563  -17.2262 C   0  0  0  0  0  0  0  0  0  0  0  0
   22.9240  -20.8464  -15.9109 C   0  0  0  0  0  0  0  0  0  0  0  0
   22.9740  -19.6391  -14.9874 C   0  0  0  0  0  0  0  0  0  0  0  0
   22.4626  -18.5689  -15.9151 C   0  0  1  0  0  0  0  0  0  0  0  0
   22.5593  -17.1971  -15.3984 C   0  0  0  0  0  0  0  0  0  0  0  0
   21.9685  -16.9209  -14.3213 O   0  0  0  0  0  0  0  0  0  0  0  0
   25.7064  -15.1295  -14.6959 C   0  0  0  0  0  0  0  0  0  0  0  0
   24.8265  -14.4178  -15.6702 C   0  0  1  0  0  0  0  0  0  0  0  0
   25.2222  -14.8983  -16.9519 O   0  0  0  0  0  0  0  0  0  0  0  0
   23.3451  -14.7787  -15.4767 C   0  0  2  0  0  0  0  0  0  0  0  0
   23.2701  -16.1465  -16.0198 N   0  0  0  0  0  0  0  0  0  0  0  0
   22.5604  -13.8603  -16.3296 C   0  0  0  0  0  0  0  0  0  0  0  0
   22.2551  -14.2444  -17.5126 O   0  0  0  0  0  0  0  0  0  0  0  0
   22.1121  -12.5984  -15.9630 N   0  0  0  0  0  0  0  0  0  0  0  0
   21.2452  -11.7682  -16.8117 C   0  0  1  0  0  0  0  0  0  0  0  0
   20.2730  -11.1184  -15.8637 C   0  0  0  0  0  0  0  0  0  0  0  0
   19.3253  -10.1504  -16.4726 C   0  0  0  0  0  0  0  0  0  0  0  0
   18.4655   -9.4341  -15.5179 C   0  0  0  0  0  0  0  0  0  0  0  0
   18.5474   -9.6027  -14.2850 O   0  0  0  0  0  0  0  0  0  0  0  0
   22.0130  -10.7352  -17.5112 C   0  0  0  0  0  0  0  0  0  0  0  0
   23.1602  -10.3958  -17.1583 O   0  0  0  0  0  0  0  0  0  0  0  0
   17.5054   -8.5153  -15.9926 O   0  0  0  0  0  0  0  0  0  0  0  0
   21.5062  -10.0500  -18.6390 O   0  0  0  0  0  0  0  0  0  0  0  0
  1  2  1  0
  3  2  1  0
  4  3  1  0
  4  5  1  0
  5  1  1  0
  6 12  1  0
  5  6  1  1
  7  6  2  0
  9  8  1  1
  9 11  1  0
 10  9  1  0
 11 12  1  6
 11 13  1  0
 13 15  1  0
 14 13  2  0
 15 16  1  0
 16 17  1  1
 16 21  1  0
 18 17  1  0
 19 23  1  0
 19 18  1  0
 20 19  2  0
 21 24  1  0
 22 21  2  0
M  END
$$$$
