TAY.pdb
     RDKit          3D

 25 25  0  0  1  0  0  0  0  0999 V2000
   10.6907  -14.8179   19.4856 C   0  0  0  0  0  0  0  0  0  0  0  0
    9.8534  -13.6226   19.1519 C   0  0  1  0  0  0  0  0  0  0  0  0
   10.2948  -12.9718   18.0061 O   0  0  0  0  0  0  0  0  0  0  0  0
    8.4150  -14.0627   18.9643 C   0  0  2  0  0  0  0  0  0  0  0  0
    7.5611  -13.0046   18.5185 N   0  0  0  0  0  0  0  0  0  0  0  0
    7.9402  -14.5998   20.2528 C   0  0  0  0  0  0  0  0  0  0  0  0
    7.6848  -13.7930   21.2008 O   0  0  0  0  0  0  0  0  0  0  0  0
    6.9102  -17.8825   21.6943 C   0  0  0  0  0  0  0  0  0  0  0  0
    7.3294  -16.4194   21.7884 C   0  0  2  0  0  0  0  0  0  0  0  0
    7.7484  -15.9838   20.5023 N   0  0  0  0  0  0  0  0  0  0  0  0
    8.3744  -16.2844   22.8309 C   0  0  0  0  0  0  0  0  0  0  0  0
    9.5987  -16.2763   22.6058 O   0  0  0  0  0  0  0  0  0  0  0  0
    5.8661  -10.3844   26.1883 O   0  0  0  0  0  0  0  0  0  0  0  0
    6.3905  -11.6642   26.2545 C   0  0  0  0  0  0  0  0  0  0  0  0
    5.5625  -12.7424   26.4523 C   0  0  0  0  0  0  0  0  0  0  0  0
    6.0467  -14.0267   26.5234 C   0  0  0  0  0  0  0  0  0  0  0  0
    7.4013  -14.2448   26.3931 C   0  0  0  0  0  0  0  0  0  0  0  0
    8.0362  -15.5560   26.4545 C   0  0  0  0  0  0  0  0  0  0  0  0
    8.8827  -15.9424   25.2923 C   0  0  2  0  0  0  0  0  0  0  0  0
    7.9461  -16.1556   24.1770 N   0  0  0  0  0  0  0  0  0  0  0  0
    9.6379  -17.1853   25.5728 C   0  0  0  0  0  0  0  0  0  0  0  0
   10.7888  -17.1736   26.3371 O   0  0  0  0  0  0  0  0  0  0  0  0
    8.2182  -13.1417   26.1942 C   0  0  0  0  0  0  0  0  0  0  0  0
    7.7381  -11.8523   26.1221 C   0  0  0  0  0  0  0  0  0  0  0  0
    9.2377  -18.2804   25.1134 O   0  0  0  0  0  0  0  0  0  0  0  0
  2  4  1  0
  2  1  1  6
  3  2  1  0
  4  6  1  0
  4  5  1  1
  6 10  1  0
  6  7  2  0
  9  8  1  6
  9 11  1  0
 10  9  1  0
 11 12  2  0
 13 14  1  0
 14 15  2  0
 15 16  1  0
 17 18  1  0
 17 16  2  0
 19 18  1  1
 19 21  1  0
 20 19  1  0
 20 11  1  0
 21 22  1  0
 23 17  1  0
 24 23  2  0
 24 14  1  0
 25 21  2  0
M  END
$$$$
