TAY.pdb
     RDKit          3D

 25 25  0  0  1  0  0  0  0  0999 V2000
    8.9414  -12.6026   20.3812 C   0  0  0  0  0  0  0  0  0  0  0  0
    8.0095  -13.0713   19.3074 C   0  0  1  0  0  0  0  0  0  0  0  0
    8.0196  -12.2351   18.1974 O   0  0  0  0  0  0  0  0  0  0  0  0
    8.4014  -14.4749   18.8899 C   0  0  2  0  0  0  0  0  0  0  0  0
    7.5595  -15.0073   17.8626 N   0  0  0  0  0  0  0  0  0  0  0  0
    8.3515  -15.3287   20.0910 C   0  0  0  0  0  0  0  0  0  0  0  0
    7.2209  -15.6963   20.5400 O   0  0  0  0  0  0  0  0  0  0  0  0
   10.3048  -17.8933   21.5546 C   0  0  0  0  0  0  0  0  0  0  0  0
    9.3792  -16.7156   21.8409 C   0  0  2  0  0  0  0  0  0  0  0  0
    9.5068  -15.7716   20.7865 N   0  0  0  0  0  0  0  0  0  0  0  0
    9.7044  -16.1618   23.1768 C   0  0  0  0  0  0  0  0  0  0  0  0
   10.6239  -15.3530   23.4006 O   0  0  0  0  0  0  0  0  0  0  0  0
    6.2829  -10.5493   26.8545 O   0  0  0  0  0  0  0  0  0  0  0  0
    6.6888  -11.8659   26.7161 C   0  0  0  0  0  0  0  0  0  0  0  0
    8.0171  -12.1967   26.8314 C   0  0  0  0  0  0  0  0  0  0  0  0
    8.4571  -13.4922   26.7003 C   0  0  0  0  0  0  0  0  0  0  0  0
    7.5434  -14.4922   26.4458 C   0  0  0  0  0  0  0  0  0  0  0  0
    7.8846  -15.9003   26.2820 C   0  0  0  0  0  0  0  0  0  0  0  0
    9.2054  -16.1992   25.6634 C   0  0  2  0  0  0  0  0  0  0  0  0
    8.9108  -16.5848   24.2738 N   0  0  0  0  0  0  0  0  0  0  0  0
    9.8862  -17.3085   26.3703 C   0  0  0  0  0  0  0  0  0  0  0  0
   10.6223  -17.0887   27.5186 O   0  0  0  0  0  0  0  0  0  0  0  0
    6.2078  -14.1352   26.3333 C   0  0  0  0  0  0  0  0  0  0  0  0
    5.7615  -12.8383   26.4639 C   0  0  0  0  0  0  0  0  0  0  0  0
    9.8031  -18.4787   25.9296 O   0  0  0  0  0  0  0  0  0  0  0  0
  2  4  1  0
  2  1  1  1
  3  2  1  0
  4  6  1  0
  4  5  1  6
  6 10  1  0
  6  7  2  0
  9  8  1  6
  9 11  1  0
 10  9  1  0
 11 12  2  0
 13 14  1  0
 14 15  2  0
 15 16  1  0
 17 18  1  0
 17 16  2  0
 19 18  1  1
 19 21  1  0
 20 19  1  0
 20 11  1  0
 21 22  1  0
 23 17  1  0
 24 23  2  0
 24 14  1  0
 25 21  2  0
M  END
$$$$
