TAY.pdb
     RDKit          3D

 25 25  0  0  1  0  0  0  0  0999 V2000
    6.4449  -20.9359   20.2024 C   0  0  0  0  0  0  0  0  0  0  0  0
    6.5984  -19.4485   20.1308 C   0  0  1  0  0  0  0  0  0  0  0  0
    5.4719  -18.8260   19.6065 O   0  0  0  0  0  0  0  0  0  0  0  0
    6.8747  -18.9119   21.5214 C   0  0  2  0  0  0  0  0  0  0  0  0
    5.6814  -18.5976   22.2458 N   0  0  0  0  0  0  0  0  0  0  0  0
    7.7212  -17.7131   21.3778 C   0  0  0  0  0  0  0  0  0  0  0  0
    8.8667  -17.8276   20.8396 O   0  0  0  0  0  0  0  0  0  0  0  0
    7.3738  -14.0718   21.3481 C   0  0  0  0  0  0  0  0  0  0  0  0
    8.2068  -15.3170   21.6326 C   0  0  2  0  0  0  0  0  0  0  0  0
    7.3283  -16.4197   21.8106 N   0  0  0  0  0  0  0  0  0  0  0  0
    9.0776  -15.0563   22.8034 C   0  0  0  0  0  0  0  0  0  0  0  0
    9.9281  -14.1492   22.8621 O   0  0  0  0  0  0  0  0  0  0  0  0
    5.1728  -11.2943   26.4435 O   0  0  0  0  0  0  0  0  0  0  0  0
    6.0179  -12.3900   26.3943 C   0  0  0  0  0  0  0  0  0  0  0  0
    5.5478  -13.6087   25.9688 C   0  0  0  0  0  0  0  0  0  0  0  0
    6.3568  -14.7180   25.9067 C   0  0  0  0  0  0  0  0  0  0  0  0
    7.6789  -14.6102   26.2810 C   0  0  0  0  0  0  0  0  0  0  0  0
    8.6343  -15.7116   26.2641 C   0  0  0  0  0  0  0  0  0  0  0  0
    9.6646  -15.6846   25.1897 C   0  0  2  0  0  0  0  0  0  0  0  0
    8.9287  -15.9007   23.9334 N   0  0  0  0  0  0  0  0  0  0  0  0
   10.6685  -16.7555   25.3869 C   0  0  0  0  0  0  0  0  0  0  0  0
   10.7687  -17.8208   24.5129 O   0  0  0  0  0  0  0  0  0  0  0  0
    8.1318  -13.3705   26.7073 C   0  0  0  0  0  0  0  0  0  0  0  0
    7.3251  -12.2554   26.7714 C   0  0  0  0  0  0  0  0  0  0  0  0
   11.4520  -16.7096   26.3640 O   0  0  0  0  0  0  0  0  0  0  0  0
  2  4  1  0
  2  1  1  1
  3  2  1  0
  4  6  1  0
  4  5  1  6
  6 10  1  0
  6  7  2  0
  9  8  1  1
  9 11  1  0
 10  9  1  0
 11 12  2  0
 13 14  1  0
 14 15  2  0
 15 16  1  0
 17 18  1  0
 17 16  2  0
 19 18  1  1
 19 21  1  0
 20 19  1  0
 20 11  1  0
 21 22  1  0
 23 17  1  0
 24 23  2  0
 24 14  1  0
 25 21  2  0
M  END
$$$$
