SRA.pdb
     RDKit          3D

 23 22  0  0  1  0  0  0  0  0999 V2000
   21.6761  -21.5483   -8.5811 O   0  0  0  0  0  0  0  0  0  0  0  0
   22.0741  -20.7682   -9.6687 C   0  0  0  0  0  0  0  0  0  0  0  0
   23.4786  -21.1667  -10.1272 C   0  0  2  0  0  0  0  0  0  0  0  0
   24.3991  -20.7661   -9.0998 N   0  0  0  0  0  0  0  0  0  0  0  0
   23.7187  -20.4596  -11.4111 C   0  0  0  0  0  0  0  0  0  0  0  0
   24.2616  -19.3250  -11.4094 O   0  0  0  0  0  0  0  0  0  0  0  0
   27.7034  -20.5719  -17.4444 N   0  0  0  0  0  0  0  0  0  0  0  0
   27.5385  -21.7865  -16.7226 C   0  0  0  0  0  0  0  0  0  0  0  0
   28.5438  -22.4069  -16.2098 N   0  0  0  0  0  0  0  0  0  0  0  0
   26.2579  -22.3837  -16.5264 N   0  0  0  0  0  0  0  0  0  0  0  0
   25.1045  -21.7795  -17.1380 C   0  0  0  0  0  0  0  0  0  0  0  0
   24.5057  -20.7024  -16.2376 C   0  0  0  0  0  0  0  0  0  0  0  0
   24.2148  -21.2199  -14.8751 C   0  0  0  0  0  0  0  0  0  0  0  0
   23.5885  -20.2605  -13.9270 C   0  0  2  0  0  0  0  0  0  0  0  0
   23.3636  -21.0003  -12.6714 N   0  0  0  0  0  0  0  0  0  0  0  0
   22.3198  -19.6642  -14.4068 C   0  0  0  0  0  0  0  0  0  0  0  0
   21.2972  -20.3866  -14.4399 O   0  0  0  0  0  0  0  0  0  0  0  0
   28.3514  -23.2835  -15.6813 C   0  0  0  0  0  0  0  0  0  0  0  0
   21.1325  -16.3410  -15.8371 C   0  0  1  0  0  0  0  0  0  0  0  0
   20.9555  -17.7149  -15.2698 N   0  0  0  0  0  0  0  0  0  0  0  0
   22.1908  -18.3170  -14.8335 C   0  0  0  0  0  0  0  0  0  0  0  0
   20.1968  -18.5664  -16.2007 O   0  0  0  0  0  0  0  0  0  0  0  0
   20.8596  -19.3080  -17.1474 O   0  0  0  0  0  0  0  0  0  0  0  0
  2  1  1  0
  3  5  1  0
  3  2  1  0
  3  4  1  1
  5  6  2  0
  7  8  1  0
  8 10  1  0
  8  9  2  0
 10 11  1  0
 11 12  1  0
 12 13  1  0
 14 13  1  6
 14 15  1  0
 14 16  1  0
 15  5  1  0
 16 20  1  0
 17 16  2  0
 19 18  1  1
 19 21  1  0
 20 19  1  0
 21 23  2  0
 21 22  1  0
M  END
$$$$
