SRA.pdb
     RDKit          3D

 23 22  0  0  1  0  0  0  0  0999 V2000
   28.4243  -11.6272  -15.5901 O   0  0  0  0  0  0  0  0  0  0  0  0
   27.3468  -10.8431  -16.0072 C   0  0  0  0  0  0  0  0  0  0  0  0
   26.3086  -11.7030  -16.7315 C   0  0  2  0  0  0  0  0  0  0  0  0
   26.9070  -12.1679  -17.9517 N   0  0  0  0  0  0  0  0  0  0  0  0
   25.1328  -10.8285  -16.9736 C   0  0  0  0  0  0  0  0  0  0  0  0
   25.0843  -10.1165  -18.0093 O   0  0  0  0  0  0  0  0  0  0  0  0
   17.4604  -10.1901  -13.8252 N   0  0  0  0  0  0  0  0  0  0  0  0
   17.1036   -9.9175  -15.1749 C   0  0  0  0  0  0  0  0  0  0  0  0
   16.0136   -9.2989  -15.4714 N   0  0  0  0  0  0  0  0  0  0  0  0
   17.9273  -10.3112  -16.2710 N   0  0  0  0  0  0  0  0  0  0  0  0
   19.1808  -10.9641  -16.0032 C   0  0  0  0  0  0  0  0  0  0  0  0
   20.3526  -10.0062  -16.1992 C   0  0  0  0  0  0  0  0  0  0  0  0
   21.6609  -10.6990  -16.0680 C   0  0  0  0  0  0  0  0  0  0  0  0
   22.8692   -9.8843  -16.3644 C   0  0  2  0  0  0  0  0  0  0  0  0
   24.0330  -10.7456  -16.0846 N   0  0  0  0  0  0  0  0  0  0  0  0
   22.9641   -8.6243  -15.5906 C   0  0  0  0  0  0  0  0  0  0  0  0
   23.1984   -8.6959  -14.3624 O   0  0  0  0  0  0  0  0  0  0  0  0
   15.7740   -9.2001  -16.4802 C   0  0  0  0  0  0  0  0  0  0  0  0
   22.8577   -4.8816  -16.2874 C   0  0  1  0  0  0  0  0  0  0  0  0
   22.9032   -6.0999  -15.4188 N   0  0  0  0  0  0  0  0  0  0  0  0
   22.8051   -7.3336  -16.1585 C   0  0  0  0  0  0  0  0  0  0  0  0
   21.9148   -5.9993  -14.3324 O   0  0  0  0  0  0  0  0  0  0  0  0
   22.1387   -5.1489  -13.2778 O   0  0  0  0  0  0  0  0  0  0  0  0
  2  1  1  0
  3  5  1  0
  3  2  1  0
  3  4  1  6
  5  6  2  0
  7  8  1  0
  8 10  1  0
  8  9  2  0
 10 11  1  0
 11 12  1  0
 12 13  1  0
 14 13  1  1
 14 15  1  0
 14 16  1  0
 15  5  1  0
 16 20  1  0
 17 16  2  0
 19 18  1  6
 19 21  1  0
 20 19  1  0
 21 23  2  0
 21 22  1  0
M  END
$$$$
