SRA.pdb
     RDKit          3D

 23 22  0  0  1  0  0  0  0  0999 V2000
   27.9683  -19.3407  -17.0103 O   0  0  0  0  0  0  0  0  0  0  0  0
   28.7035  -19.8190  -15.9238 C   0  0  0  0  0  0  0  0  0  0  0  0
   28.4199  -21.3059  -15.6993 C   0  0  2  0  0  0  0  0  0  0  0  0
   28.6729  -21.9866  -16.9385 N   0  0  0  0  0  0  0  0  0  0  0  0
   26.9991  -21.4044  -15.2778 C   0  0  0  0  0  0  0  0  0  0  0  0
   26.1653  -21.9876  -16.0172 O   0  0  0  0  0  0  0  0  0  0  0  0
   23.3782  -21.0742   -7.2282 N   0  0  0  0  0  0  0  0  0  0  0  0
   22.2625  -21.1898   -8.1030 C   0  0  0  0  0  0  0  0  0  0  0  0
   21.0629  -21.3141   -7.6514 N   0  0  0  0  0  0  0  0  0  0  0  0
   22.4072  -21.1749   -9.5221 N   0  0  0  0  0  0  0  0  0  0  0  0
   23.7239  -21.0526  -10.0885 C   0  0  0  0  0  0  0  0  0  0  0  0
   23.6696  -21.0644  -11.6136 C   0  0  0  0  0  0  0  0  0  0  0  0
   25.0263  -20.9868  -12.2157 C   0  0  0  0  0  0  0  0  0  0  0  0
   25.0843  -20.9231  -13.7003 C   0  0  2  0  0  0  0  0  0  0  0  0
   26.5131  -20.8667  -14.0606 N   0  0  0  0  0  0  0  0  0  0  0  0
   24.3587  -19.7755  -14.2936 C   0  0  0  0  0  0  0  0  0  0  0  0
   24.8139  -18.6234  -14.1092 O   0  0  0  0  0  0  0  0  0  0  0  0
   20.2933  -21.4114   -8.3464 C   0  0  0  0  0  0  0  0  0  0  0  0
   22.5303  -18.7252  -17.1204 C   0  0  1  0  0  0  0  0  0  0  0  0
   22.4454  -18.7925  -15.6273 N   0  0  0  0  0  0  0  0  0  0  0  0
   23.1728  -19.9019  -15.0626 C   0  0  0  0  0  0  0  0  0  0  0  0
   21.0424  -18.7383  -15.1848 O   0  0  0  0  0  0  0  0  0  0  0  0
   20.2657  -17.6502  -15.4985 O   0  0  0  0  0  0  0  0  0  0  0  0
  2  1  1  0
  3  5  1  0
  3  2  1  0
  3  4  1  6
  5  6  2  0
  7  8  1  0
  8 10  1  0
  8  9  2  0
 10 11  1  0
 11 12  1  0
 12 13  1  0
 14 13  1  1
 14 15  1  0
 14 16  1  0
 15  5  1  0
 16 20  1  0
 17 16  2  0
 19 18  1  1
 19 21  1  0
 20 19  1  0
 21 23  2  0
 21 22  1  0
M  END
$$$$
