SRA.pdb
     RDKit          3D

 23 22  0  0  1  0  0  0  0  0999 V2000
   30.8166  -19.2923  -10.7098 O   0  0  0  0  0  0  0  0  0  0  0  0
   29.8170  -19.7282  -11.5820 C   0  0  0  0  0  0  0  0  0  0  0  0
   29.3172  -21.1152  -11.1720 C   0  0  2  0  0  0  0  0  0  0  0  0
   30.3862  -22.0463  -11.4033 N   0  0  0  0  0  0  0  0  0  0  0  0
   28.1260  -21.3989  -12.0127 C   0  0  0  0  0  0  0  0  0  0  0  0
   28.2701  -21.9256  -13.1458 O   0  0  0  0  0  0  0  0  0  0  0  0
   23.0363  -25.1705  -14.5446 N   0  0  0  0  0  0  0  0  0  0  0  0
   21.9971  -24.7205  -13.6838 C   0  0  0  0  0  0  0  0  0  0  0  0
   20.9659  -25.4505  -13.4344 N   0  0  0  0  0  0  0  0  0  0  0  0
   22.0371  -23.4425  -13.0512 N   0  0  0  0  0  0  0  0  0  0  0  0
   23.1213  -22.5469  -13.3543 C   0  0  0  0  0  0  0  0  0  0  0  0
   23.1383  -21.3599  -12.3952 C   0  0  0  0  0  0  0  0  0  0  0  0
   24.4348  -21.2478  -11.6772 C   0  0  0  0  0  0  0  0  0  0  0  0
   25.6568  -21.2339  -12.5246 C   0  0  2  0  0  0  0  0  0  0  0  0
   26.8019  -21.1042  -11.6047 N   0  0  0  0  0  0  0  0  0  0  0  0
   25.6873  -20.1544  -13.5390 C   0  0  0  0  0  0  0  0  0  0  0  0
   25.7133  -18.9662  -13.1437 O   0  0  0  0  0  0  0  0  0  0  0  0
   20.2804  -25.0947  -12.7357 C   0  0  0  0  0  0  0  0  0  0  0  0
   26.7239  -19.4771  -16.9732 C   0  0  1  0  0  0  0  0  0  0  0  0
   25.6522  -19.3441  -15.9366 N   0  0  0  0  0  0  0  0  0  0  0  0
   25.6890  -20.3847  -14.9392 C   0  0  0  0  0  0  0  0  0  0  0  0
   24.3318  -19.2008  -16.5714 O   0  0  0  0  0  0  0  0  0  0  0  0
   24.1199  -18.2098  -17.4978 O   0  0  0  0  0  0  0  0  0  0  0  0
  2  1  1  0
  3  5  1  0
  3  2  1  0
  3  4  1  6
  5  6  2  0
  7  8  1  0
  8 10  1  0
  8  9  2  0
 10 11  1  0
 11 12  1  0
 12 13  1  0
 14 13  1  1
 14 15  1  0
 14 16  1  0
 15  5  1  0
 16 20  1  0
 17 16  2  0
 19 18  1  1
 19 21  1  0
 20 19  1  0
 21 23  2  0
 21 22  1  0
M  END
$$$$
