SRA.pdb
     RDKit          3D

 23 22  0  0  1  0  0  0  0  0999 V2000
   27.4833   -6.4096  -19.6819 O   0  0  0  0  0  0  0  0  0  0  0  0
   27.5485   -7.7336  -19.2429 C   0  0  0  0  0  0  0  0  0  0  0  0
   26.4470   -8.5692  -19.8987 C   0  0  2  0  0  0  0  0  0  0  0  0
   26.6021   -8.4494  -21.3216 N   0  0  0  0  0  0  0  0  0  0  0  0
   25.1555   -8.0132  -19.4200 C   0  0  0  0  0  0  0  0  0  0  0  0
   24.5393   -7.1690  -20.1196 O   0  0  0  0  0  0  0  0  0  0  0  0
   19.5504   -9.8346  -14.0463 N   0  0  0  0  0  0  0  0  0  0  0  0
   18.5873  -10.0129  -15.0779 C   0  0  0  0  0  0  0  0  0  0  0  0
   17.3255  -10.0454  -14.8226 N   0  0  0  0  0  0  0  0  0  0  0  0
   18.9614  -10.1651  -16.4460 N   0  0  0  0  0  0  0  0  0  0  0  0
   20.3497  -10.3515  -16.7738 C   0  0  0  0  0  0  0  0  0  0  0  0
   21.0183   -9.0216  -17.1107 C   0  0  0  0  0  0  0  0  0  0  0  0
   22.4471   -9.1991  -17.4797 C   0  0  0  0  0  0  0  0  0  0  0  0
   23.1957   -7.9615  -17.8254 C   0  0  2  0  0  0  0  0  0  0  0  0
   24.5599   -8.3864  -18.1901 N   0  0  0  0  0  0  0  0  0  0  0  0
   23.2441   -6.9515  -16.7424 C   0  0  0  0  0  0  0  0  0  0  0  0
   23.9086   -7.2129  -15.7135 O   0  0  0  0  0  0  0  0  0  0  0  0
   16.6739  -10.1712  -15.6253 C   0  0  0  0  0  0  0  0  0  0  0  0
   22.1303   -3.3523  -16.2300 C   0  0  1  0  0  0  0  0  0  0  0  0
   22.6947   -4.6692  -15.7963 N   0  0  0  0  0  0  0  0  0  0  0  0
   22.5801   -5.6987  -16.7992 C   0  0  0  0  0  0  0  0  0  0  0  0
   22.1367   -5.0688  -14.4940 O   0  0  0  0  0  0  0  0  0  0  0  0
   22.4100   -4.3244  -13.3730 O   0  0  0  0  0  0  0  0  0  0  0  0
  2  1  1  0
  3  5  1  0
  3  2  1  0
  3  4  1  6
  5  6  2  0
  7  8  1  0
  8 10  1  0
  8  9  2  0
 10 11  1  0
 11 12  1  0
 12 13  1  0
 14 13  1  1
 14 15  1  0
 14 16  1  0
 15  5  1  0
 16 20  1  0
 17 16  2  0
 19 18  1  6
 19 21  1  0
 20 19  1  0
 21 23  2  0
 21 22  1  0
M  END
$$$$
