SRA.pdb
     RDKit          3D

 23 22  0  0  1  0  0  0  0  0999 V2000
   14.6905   -4.9739   -7.0746 O   0  0  0  0  0  0  0  0  0  0  0  0
   15.6070   -5.7275   -7.8108 C   0  0  0  0  0  0  0  0  0  0  0  0
   14.8764   -6.7111   -8.7276 C   0  0  2  0  0  0  0  0  0  0  0  0
   14.2395   -7.6903   -7.8918 N   0  0  0  0  0  0  0  0  0  0  0  0
   15.9089   -7.3069   -9.6137 C   0  0  0  0  0  0  0  0  0  0  0  0
   16.6204   -8.2564   -9.1962 O   0  0  0  0  0  0  0  0  0  0  0  0
   17.1462   -7.1659  -17.6462 N   0  0  0  0  0  0  0  0  0  0  0  0
   17.4472   -8.5532  -17.5563 C   0  0  0  0  0  0  0  0  0  0  0  0
   18.1409   -9.1518  -18.4613 N   0  0  0  0  0  0  0  0  0  0  0  0
   17.0006   -9.3565  -16.4653 N   0  0  0  0  0  0  0  0  0  0  0  0
   16.2369   -8.7420  -15.4124 C   0  0  0  0  0  0  0  0  0  0  0  0
   17.1162   -8.4326  -14.2040 C   0  0  0  0  0  0  0  0  0  0  0  0
   16.3339   -7.8377  -13.0890 C   0  0  0  0  0  0  0  0  0  0  0  0
   17.0846   -7.5541  -11.8370 C   0  0  2  0  0  0  0  0  0  0  0  0
   16.1472   -6.8584  -10.9361 N   0  0  0  0  0  0  0  0  0  0  0  0
   18.3111   -6.7449  -12.0273 C   0  0  0  0  0  0  0  0  0  0  0  0
   18.1893   -5.5104  -12.1995 O   0  0  0  0  0  0  0  0  0  0  0  0
   18.3718  -10.1556  -18.3070 C   0  0  0  0  0  0  0  0  0  0  0  0
   22.0752   -7.3264  -12.1587 C   0  0  1  0  0  0  0  0  0  0  0  0
   20.8184   -6.5243  -12.2929 N   0  0  0  0  0  0  0  0  0  0  0  0
   19.6232   -7.2854  -12.0264 C   0  0  0  0  0  0  0  0  0  0  0  0
   20.7823   -5.8304  -13.5906 O   0  0  0  0  0  0  0  0  0  0  0  0
   21.4447   -4.6382  -13.7498 O   0  0  0  0  0  0  0  0  0  0  0  0
  2  1  1  0
  3  5  1  0
  3  2  1  0
  3  4  1  1
  5  6  2  0
  7  8  1  0
  8 10  1  0
  8  9  2  0
 10 11  1  0
 11 12  1  0
 12 13  1  0
 14 13  1  6
 14 15  1  0
 14 16  1  0
 15  5  1  0
 16 20  1  0
 17 16  2  0
 19 18  1  1
 19 21  1  0
 20 19  1  0
 21 23  2  0
 21 22  1  0
M  END
$$$$
