SRA.pdb
     RDKit          3D

 23 22  0  0  1  0  0  0  0  0999 V2000
   24.8804  -12.2183  -17.0049 O   0  0  0  0  0  0  0  0  0  0  0  0
   24.0780  -11.0767  -16.9527 C   0  0  0  0  0  0  0  0  0  0  0  0
   22.6656  -11.3927  -17.4495 C   0  0  2  0  0  0  0  0  0  0  0  0
   22.7182  -11.4700  -18.8828 N   0  0  0  0  0  0  0  0  0  0  0  0
   21.7947  -10.2881  -16.9726 C   0  0  0  0  0  0  0  0  0  0  0  0
   21.7056   -9.2271  -17.6420 O   0  0  0  0  0  0  0  0  0  0  0  0
   17.2618   -8.6098  -10.5054 N   0  0  0  0  0  0  0  0  0  0  0  0
   16.1246   -8.3070  -11.3046 C   0  0  0  0  0  0  0  0  0  0  0  0
   15.1299   -7.6380  -10.8341 N   0  0  0  0  0  0  0  0  0  0  0  0
   16.0212   -8.7245  -12.6648 N   0  0  0  0  0  0  0  0  0  0  0  0
   16.9918   -9.6487  -13.1872 C   0  0  0  0  0  0  0  0  0  0  0  0
   18.1063   -8.9152  -13.9282 C   0  0  0  0  0  0  0  0  0  0  0  0
   19.0544   -9.8592  -14.5754 C   0  0  0  0  0  0  0  0  0  0  0  0
   20.1782   -9.2468  -15.3327 C   0  0  2  0  0  0  0  0  0  0  0  0
   21.0380  -10.3594  -15.7771 N   0  0  0  0  0  0  0  0  0  0  0  0
   20.9711   -8.2603  -14.5625 C   0  0  0  0  0  0  0  0  0  0  0  0
   21.6073   -8.6595  -13.5603 O   0  0  0  0  0  0  0  0  0  0  0  0
   14.3074   -7.4943  -11.4567 C   0  0  0  0  0  0  0  0  0  0  0  0
   22.5199   -4.9146  -15.0045 C   0  0  1  0  0  0  0  0  0  0  0  0
   21.8081   -5.9091  -14.1412 N   0  0  0  0  0  0  0  0  0  0  0  0
   21.0549   -6.8825  -14.8921 C   0  0  0  0  0  0  0  0  0  0  0  0
   21.0037   -5.2240  -13.1161 O   0  0  0  0  0  0  0  0  0  0  0  0
   21.6176   -4.4250  -12.1832 O   0  0  0  0  0  0  0  0  0  0  0  0
  2  1  1  0
  3  5  1  0
  3  2  1  0
  3  4  1  6
  5  6  2  0
  7  8  1  0
  8 10  1  0
  8  9  2  0
 10 11  1  0
 11 12  1  0
 12 13  1  0
 14 13  1  1
 14 15  1  0
 14 16  1  0
 15  5  1  0
 16 20  1  0
 17 16  2  0
 19 18  1  6
 19 21  1  0
 20 19  1  0
 21 23  2  0
 21 22  1  0
M  END
$$$$
