YVK.pdb
     RDKit          3D

 29 29  0  0  1  0  0  0  0  0999 V2000
   25.3652  -14.1735  -25.2886 O   0  0  0  0  0  0  0  0  0  0  0  0
   25.2219  -15.0459  -24.1982 C   0  0  0  0  0  0  0  0  0  0  0  0
   24.6456  -14.6160  -23.0134 C   0  0  0  0  0  0  0  0  0  0  0  0
   24.5070  -15.4816  -21.9407 C   0  0  0  0  0  0  0  0  0  0  0  0
   24.9403  -16.7862  -22.0340 C   0  0  0  0  0  0  0  0  0  0  0  0
   24.7894  -17.6984  -20.8966 C   0  0  0  0  0  0  0  0  0  0  0  0
   25.8162  -17.4460  -19.8219 C   0  0  2  0  0  0  0  0  0  0  0  0
   27.0684  -17.9790  -20.3172 N   0  0  0  0  0  0  0  0  0  0  0  0
   25.5102  -18.0171  -18.5173 C   0  0  0  0  0  0  0  0  0  0  0  0
   25.9010  -19.1974  -18.2550 O   0  0  0  0  0  0  0  0  0  0  0  0
   25.5086  -17.2187  -23.1956 C   0  0  0  0  0  0  0  0  0  0  0  0
   25.6482  -16.3521  -24.2715 C   0  0  0  0  0  0  0  0  0  0  0  0
   26.4432  -16.5947  -15.2621 C   0  0  0  0  0  0  0  0  0  0  0  0
   25.0030  -16.9598  -15.1706 C   0  0  1  0  0  0  0  0  0  0  0  0
   24.1944  -15.6856  -15.4470 C   0  0  0  0  0  0  0  0  0  0  0  0
   24.5350  -17.9814  -16.1735 C   0  0  2  0  0  0  0  0  0  0  0  0
   24.8033  -17.3702  -17.4840 N   0  0  0  0  0  0  0  0  0  0  0  0
   23.1201  -18.3346  -16.0734 C   0  0  0  0  0  0  0  0  0  0  0  0
   22.2809  -17.4933  -16.5440 O   0  0  0  0  0  0  0  0  0  0  0  0
   22.5940  -19.4994  -15.5159 N   0  0  0  0  0  0  0  0  0  0  0  0
   21.1523  -19.6736  -15.4042 C   0  0  1  0  0  0  0  0  0  0  0  0
   20.7344  -21.0653  -15.7181 C   0  0  0  0  0  0  0  0  0  0  0  0
   21.0773  -21.4469  -17.1144 C   0  0  0  0  0  0  0  0  0  0  0  0
   20.6412  -22.8810  -17.4366 C   0  0  0  0  0  0  0  0  0  0  0  0
   20.9235  -23.2417  -18.8699 C   0  0  0  0  0  0  0  0  0  0  0  0
   20.3921  -24.5619  -19.1971 N   0  0  0  0  0  0  0  0  0  0  0  0
   20.6791  -19.2686  -14.0626 C   0  0  0  0  0  0  0  0  0  0  0  0
   19.2805  -19.1644  -13.8892 O   0  0  0  0  0  0  0  0  0  0  0  0
   21.3547  -19.0079  -13.0676 O   0  0  0  0  0  0  0  0  0  0  0  0
  2  3  2  0
  2  1  1  0
  4  3  1  0
  5  4  2  0
  6  5  1  0
  7  6  1  0
  7  8  1  6
  9  7  1  0
  9 10  2  0
 11  5  1  0
 11 12  2  0
 12  2  1  0
 14 13  1  6
 14 16  1  0
 15 14  1  0
 16 17  1  6
 17  9  1  0
 18 16  1  0
 19 18  2  0
 20 18  1  0
 21 20  1  0
 21 27  1  0
 21 22  1  1
 23 22  1  0
 24 23  1  0
 25 24  1  0
 26 25  1  0
 27 28  1  0
 29 27  2  0
M  END
$$$$
