YVK.pdb
     RDKit          3D

 29 29  0  0  1  0  0  0  0  0999 V2000
   22.4404  -14.3392  -20.7505 O   0  0  0  0  0  0  0  0  0  0  0  0
   22.7010  -15.4129  -19.8845 C   0  0  0  0  0  0  0  0  0  0  0  0
   22.3475  -16.7077  -20.2294 C   0  0  0  0  0  0  0  0  0  0  0  0
   22.6073  -17.7632  -19.3706 C   0  0  0  0  0  0  0  0  0  0  0  0
   23.2224  -17.5429  -18.1575 C   0  0  0  0  0  0  0  0  0  0  0  0
   23.4968  -18.6636  -17.2534 C   0  0  0  0  0  0  0  0  0  0  0  0
   24.9536  -19.0517  -17.2508 C   0  0  2  0  0  0  0  0  0  0  0  0
   25.2198  -19.6558  -18.5398 N   0  0  0  0  0  0  0  0  0  0  0  0
   25.3590  -19.9543  -16.1817 C   0  0  0  0  0  0  0  0  0  0  0  0
   25.0476  -21.1836  -16.2628 O   0  0  0  0  0  0  0  0  0  0  0  0
   23.5742  -16.2724  -17.8091 C   0  0  0  0  0  0  0  0  0  0  0  0
   23.3143  -15.2136  -18.6690 C   0  0  0  0  0  0  0  0  0  0  0  0
   28.7201  -20.6341  -15.1349 C   0  0  0  0  0  0  0  0  0  0  0  0
   27.9704  -20.4026  -13.8700 C   0  0  1  0  0  0  0  0  0  0  0  0
   28.2405  -18.9542  -13.4421 C   0  0  0  0  0  0  0  0  0  0  0  0
   26.4741  -20.5380  -13.9768 C   0  0  2  0  0  0  0  0  0  0  0  0
   26.0864  -19.5890  -15.0313 N   0  0  0  0  0  0  0  0  0  0  0  0
   25.7424  -20.2369  -12.7477 C   0  0  0  0  0  0  0  0  0  0  0  0
   25.5197  -19.0037  -12.4964 O   0  0  0  0  0  0  0  0  0  0  0  0
   25.2619  -21.1618  -11.8213 N   0  0  0  0  0  0  0  0  0  0  0  0
   24.5748  -20.7083  -10.6199 C   0  0  1  0  0  0  0  0  0  0  0  0
   23.2043  -21.2746  -10.5158 C   0  0  0  0  0  0  0  0  0  0  0  0
   22.5267  -20.8620   -9.2573 C   0  0  0  0  0  0  0  0  0  0  0  0
   21.1097  -21.4390   -9.1577 C   0  0  0  0  0  0  0  0  0  0  0  0
   20.4398  -21.0541   -7.8665 C   0  0  0  0  0  0  0  0  0  0  0  0
   19.0410  -21.4730   -7.8515 N   0  0  0  0  0  0  0  0  0  0  0  0
   25.3702  -21.0219   -9.4129 C   0  0  0  0  0  0  0  0  0  0  0  0
   26.3370  -22.0448   -9.5397 O   0  0  0  0  0  0  0  0  0  0  0  0
   25.2971  -20.5005   -8.3005 O   0  0  0  0  0  0  0  0  0  0  0  0
  2  3  2  0
  2  1  1  0
  4  3  1  0
  5  4  2  0
  6  5  1  0
  7  6  1  0
  7  8  1  6
  9  7  1  0
  9 10  2  0
 11  5  1  0
 11 12  2  0
 12  2  1  0
 14 13  1  6
 14 16  1  0
 15 14  1  0
 16 17  1  6
 17  9  1  0
 18 16  1  0
 19 18  2  0
 20 18  1  0
 21 20  1  0
 21 27  1  0
 21 22  1  1
 23 22  1  0
 24 23  1  0
 25 24  1  0
 26 25  1  0
 27 28  1  0
 29 27  2  0
M  END
$$$$
