YVK.pdb
     RDKit          3D

 29 29  0  0  1  0  0  0  0  0999 V2000
   29.1885  -20.6134   -3.5194 O   0  0  0  0  0  0  0  0  0  0  0  0
   28.6511  -20.3205   -4.7828 C   0  0  0  0  0  0  0  0  0  0  0  0
   29.3302  -19.5044   -5.6734 C   0  0  0  0  0  0  0  0  0  0  0  0
   28.7948  -19.2189   -6.9188 C   0  0  0  0  0  0  0  0  0  0  0  0
   27.5765  -19.7423   -7.2932 C   0  0  0  0  0  0  0  0  0  0  0  0
   27.0155  -19.4386   -8.6129 C   0  0  0  0  0  0  0  0  0  0  0  0
   26.7325  -20.6844   -9.4136 C   0  0  2  0  0  0  0  0  0  0  0  0
   27.9973  -21.3745   -9.5597 N   0  0  0  0  0  0  0  0  0  0  0  0
   26.1283  -20.4645  -10.7207 C   0  0  0  0  0  0  0  0  0  0  0  0
   26.8121  -19.8934  -11.6267 O   0  0  0  0  0  0  0  0  0  0  0  0
   26.9006  -20.5464   -6.4238 C   0  0  0  0  0  0  0  0  0  0  0  0
   27.4361  -20.8334   -5.1753 C   0  0  0  0  0  0  0  0  0  0  0  0
   25.2913  -22.8371  -13.1034 C   0  0  0  0  0  0  0  0  0  0  0  0
   25.1922  -21.3738  -13.3580 C   0  0  1  0  0  0  0  0  0  0  0  0
   24.6269  -21.1977  -14.7734 C   0  0  0  0  0  0  0  0  0  0  0  0
   24.2652  -20.6237  -12.4379 C   0  0  2  0  0  0  0  0  0  0  0  0
   24.8205  -20.8352  -11.0927 N   0  0  0  0  0  0  0  0  0  0  0  0
   22.8736  -21.0696  -12.4737 C   0  0  0  0  0  0  0  0  0  0  0  0
   22.5924  -22.1350  -11.8260 O   0  0  0  0  0  0  0  0  0  0  0  0
   21.8207  -20.4476  -13.1439 N   0  0  0  0  0  0  0  0  0  0  0  0
   20.4796  -21.0128  -13.0890 C   0  0  1  0  0  0  0  0  0  0  0  0
   19.4400  -19.9629  -12.9248 C   0  0  0  0  0  0  0  0  0  0  0  0
   18.0689  -20.5390  -12.8917 C   0  0  0  0  0  0  0  0  0  0  0  0
   17.3187  -20.1512  -11.6120 C   0  0  0  0  0  0  0  0  0  0  0  0
   15.9619  -20.7980  -11.5425 C   0  0  0  0  0  0  0  0  0  0  0  0
   15.2147  -20.3347  -10.3767 N   0  0  0  0  0  0  0  0  0  0  0  0
   20.2117  -21.8405  -14.2853 C   0  0  0  0  0  0  0  0  0  0  0  0
   19.5115  -23.0498  -14.0748 O   0  0  0  0  0  0  0  0  0  0  0  0
   20.5240  -21.6083  -15.4528 O   0  0  0  0  0  0  0  0  0  0  0  0
  2  3  2  0
  2  1  1  0
  4  3  1  0
  5  4  2  0
  6  5  1  0
  7  6  1  0
  7  8  1  6
  9  7  1  0
  9 10  2  0
 11  5  1  0
 11 12  2  0
 12  2  1  0
 14 13  1  1
 14 16  1  0
 15 14  1  0
 16 17  1  1
 17  9  1  0
 18 16  1  0
 19 18  2  0
 20 18  1  0
 21 20  1  0
 21 27  1  0
 21 22  1  6
 23 22  1  0
 24 23  1  0
 25 24  1  0
 26 25  1  0
 27 28  1  0
 29 27  2  0
M  END
$$$$
