YVK.pdb
     RDKit          3D

 29 29  0  0  1  0  0  0  0  0999 V2000
   31.6824  -21.8688  -10.7689 O   0  0  0  0  0  0  0  0  0  0  0  0
   30.4288  -21.3468  -11.1251 C   0  0  0  0  0  0  0  0  0  0  0  0
   30.3276  -20.2409  -11.9540 C   0  0  0  0  0  0  0  0  0  0  0  0
   29.0876  -19.7303  -12.3019 C   0  0  0  0  0  0  0  0  0  0  0  0
   27.9328  -20.3144  -11.8289 C   0  0  0  0  0  0  0  0  0  0  0  0
   26.6233  -19.7714  -12.2018 C   0  0  0  0  0  0  0  0  0  0  0  0
   25.7961  -20.7608  -12.9826 C   0  0  2  0  0  0  0  0  0  0  0  0
   26.4338  -20.8992  -14.2755 N   0  0  0  0  0  0  0  0  0  0  0  0
   24.3930  -20.4079  -13.1518 C   0  0  0  0  0  0  0  0  0  0  0  0
   24.0967  -19.2445  -13.5680 O   0  0  0  0  0  0  0  0  0  0  0  0
   28.0220  -21.4031  -11.0128 C   0  0  0  0  0  0  0  0  0  0  0  0
   29.2642  -21.9158  -10.6633 C   0  0  0  0  0  0  0  0  0  0  0  0
   22.8452  -19.6442  -15.0246 C   0  0  0  0  0  0  0  0  0  0  0  0
   21.7245  -20.4357  -14.4474 C   0  0  1  0  0  0  0  0  0  0  0  0
   21.6389  -21.7455  -15.2418 C   0  0  0  0  0  0  0  0  0  0  0  0
   21.8937  -20.8293  -13.0034 C   0  0  2  0  0  0  0  0  0  0  0  0
   23.2970  -21.2554  -12.8933 N   0  0  0  0  0  0  0  0  0  0  0  0
   21.0136  -21.9067  -12.5549 C   0  0  0  0  0  0  0  0  0  0  0  0
   21.3705  -23.1001  -12.8414 O   0  0  0  0  0  0  0  0  0  0  0  0
   19.8225  -21.7626  -11.8443 N   0  0  0  0  0  0  0  0  0  0  0  0
   19.1023  -22.9373  -11.3726 C   0  0  1  0  0  0  0  0  0  0  0  0
   18.8307  -22.8739   -9.9124 C   0  0  0  0  0  0  0  0  0  0  0  0
   18.1146  -24.0843   -9.4274 C   0  0  0  0  0  0  0  0  0  0  0  0
   17.9785  -24.0920   -7.9002 C   0  0  0  0  0  0  0  0  0  0  0  0
   17.3880  -25.3820   -7.3989 C   0  0  0  0  0  0  0  0  0  0  0  0
   17.3587  -25.4178   -5.9394 N   0  0  0  0  0  0  0  0  0  0  0  0
   17.8495  -23.1240  -12.1364 C   0  0  0  0  0  0  0  0  0  0  0  0
   17.3607  -24.4461  -12.2378 O   0  0  0  0  0  0  0  0  0  0  0  0
   17.1711  -22.2663  -12.7008 O   0  0  0  0  0  0  0  0  0  0  0  0
  2  3  2  0
  2  1  1  0
  4  3  1  0
  5  4  2  0
  6  5  1  0
  7  6  1  0
  7  8  1  6
  9  7  1  0
  9 10  2  0
 11  5  1  0
 11 12  2  0
 12  2  1  0
 14 13  1  6
 14 16  1  0
 15 14  1  0
 16 17  1  6
 17  9  1  0
 18 16  1  0
 19 18  2  0
 20 18  1  0
 21 20  1  0
 21 27  1  0
 21 22  1  1
 23 22  1  0
 24 23  1  0
 25 24  1  0
 26 25  1  0
 27 28  1  0
 29 27  2  0
M  END
$$$$
