YVK.pdb
     RDKit          3D

 29 29  0  0  1  0  0  0  0  0999 V2000
   19.7599  -15.3680  -18.3779 O   0  0  0  0  0  0  0  0  0  0  0  0
   20.3145  -16.3960  -17.5992 C   0  0  0  0  0  0  0  0  0  0  0  0
   21.3917  -16.1529  -16.7620 C   0  0  0  0  0  0  0  0  0  0  0  0
   21.9346  -17.1715  -15.9959 C   0  0  0  0  0  0  0  0  0  0  0  0
   21.4119  -18.4450  -16.0537 C   0  0  0  0  0  0  0  0  0  0  0  0
   21.9889  -19.5187  -15.2395 C   0  0  0  0  0  0  0  0  0  0  0  0
   23.4648  -19.6960  -15.4912 C   0  0  2  0  0  0  0  0  0  0  0  0
   23.5879  -20.3042  -16.7998 N   0  0  0  0  0  0  0  0  0  0  0  0
   24.1776  -20.4912  -14.5005 C   0  0  0  0  0  0  0  0  0  0  0  0
   23.7860  -21.6770  -14.2655 O   0  0  0  0  0  0  0  0  0  0  0  0
   20.3519  -18.6942  -16.8744 C   0  0  0  0  0  0  0  0  0  0  0  0
   19.8068  -17.6742  -17.6428 C   0  0  0  0  0  0  0  0  0  0  0  0
   27.7590  -21.2200  -14.4925 C   0  0  0  0  0  0  0  0  0  0  0  0
   27.4261  -20.8265  -13.0960 C   0  0  1  0  0  0  0  0  0  0  0  0
   27.8413  -19.3591  -12.9278 C   0  0  0  0  0  0  0  0  0  0  0  0
   25.9637  -20.8936  -12.7417 C   0  0  2  0  0  0  0  0  0  0  0  0
   25.2943  -20.0637  -13.7546 N   0  0  0  0  0  0  0  0  0  0  0  0
   25.6342  -20.4031  -11.4047 C   0  0  0  0  0  0  0  0  0  0  0  0
   25.4899  -19.1400  -11.2730 O   0  0  0  0  0  0  0  0  0  0  0  0
   25.4607  -21.1764  -10.2574 N   0  0  0  0  0  0  0  0  0  0  0  0
   25.2652  -20.5369   -8.9636 C   0  0  1  0  0  0  0  0  0  0  0  0
   24.4675  -21.3847   -8.0390 C   0  0  0  0  0  0  0  0  0  0  0  0
   23.0219  -21.0353   -8.0726 C   0  0  0  0  0  0  0  0  0  0  0  0
   22.1853  -21.9883   -7.2109 C   0  0  0  0  0  0  0  0  0  0  0  0
   20.7097  -21.7652   -7.4034 C   0  0  0  0  0  0  0  0  0  0  0  0
   19.9250  -22.7299   -6.6380 N   0  0  0  0  0  0  0  0  0  0  0  0
   26.5650  -20.1723   -8.3590 C   0  0  0  0  0  0  0  0  0  0  0  0
   26.5335  -19.2170   -7.3181 O   0  0  0  0  0  0  0  0  0  0  0  0
   27.6822  -20.5990   -8.6495 O   0  0  0  0  0  0  0  0  0  0  0  0
  2  3  2  0
  2  1  1  0
  4  3  1  0
  5  4  2  0
  6  5  1  0
  7  6  1  0
  7  8  1  6
  9  7  1  0
  9 10  2  0
 11  5  1  0
 11 12  2  0
 12  2  1  0
 14 13  1  6
 14 16  1  0
 15 14  1  0
 16 17  1  6
 17  9  1  0
 18 16  1  0
 19 18  2  0
 20 18  1  0
 21 20  1  0
 21 27  1  0
 21 22  1  1
 23 22  1  0
 24 23  1  0
 25 24  1  0
 26 25  1  0
 27 28  1  0
 29 27  2  0
M  END
$$$$
