YVK.pdb
     RDKit          3D

 29 29  0  0  1  0  0  0  0  0999 V2000
   28.1019  -29.4195  -17.9780 O   0  0  0  0  0  0  0  0  0  0  0  0
   27.4354  -28.3668  -17.3313 C   0  0  0  0  0  0  0  0  0  0  0  0
   26.0539  -28.2663  -17.3732 C   0  0  0  0  0  0  0  0  0  0  0  0
   25.4018  -27.2251  -16.7330 C   0  0  0  0  0  0  0  0  0  0  0  0
   26.1170  -26.2708  -16.0430 C   0  0  0  0  0  0  0  0  0  0  0  0
   25.4219  -25.1722  -15.3656 C   0  0  0  0  0  0  0  0  0  0  0  0
   25.1696  -24.0036  -16.2842 C   0  0  2  0  0  0  0  0  0  0  0  0
   26.4374  -23.3207  -16.4374 N   0  0  0  0  0  0  0  0  0  0  0  0
   24.1470  -23.0667  -15.8385 C   0  0  0  0  0  0  0  0  0  0  0  0
   24.4390  -22.2194  -14.9377 O   0  0  0  0  0  0  0  0  0  0  0  0
   27.4767  -26.3610  -15.9959 C   0  0  0  0  0  0  0  0  0  0  0  0
   28.1315  -27.4040  -16.6371 C   0  0  0  0  0  0  0  0  0  0  0  0
   20.1926  -20.3858  -16.7525 C   0  0  0  0  0  0  0  0  0  0  0  0
   21.3467  -21.2939  -16.9957 C   0  0  1  0  0  0  0  0  0  0  0  0
   22.5332  -20.4161  -17.4146 C   0  0  0  0  0  0  0  0  0  0  0  0
   21.8077  -22.0809  -15.7971 C   0  0  2  0  0  0  0  0  0  0  0  0
   22.8253  -23.0032  -16.3234 N   0  0  0  0  0  0  0  0  0  0  0  0
   20.7566  -22.8387  -15.1207 C   0  0  0  0  0  0  0  0  0  0  0  0
   20.4319  -23.9619  -15.6370 O   0  0  0  0  0  0  0  0  0  0  0  0
   20.0725  -22.4586  -13.9666 N   0  0  0  0  0  0  0  0  0  0  0  0
   18.9968  -23.2896  -13.4434 C   0  0  1  0  0  0  0  0  0  0  0  0
   19.3862  -23.9745  -12.1828 C   0  0  0  0  0  0  0  0  0  0  0  0
   18.2943  -24.8393  -11.6602 C   0  0  0  0  0  0  0  0  0  0  0  0
   18.6877  -25.5208  -10.3444 C   0  0  0  0  0  0  0  0  0  0  0  0
   17.5885  -26.4071   -9.8244 C   0  0  0  0  0  0  0  0  0  0  0  0
   17.9869  -27.0725   -8.5871 N   0  0  0  0  0  0  0  0  0  0  0  0
   17.7653  -22.4926  -13.2543 C   0  0  0  0  0  0  0  0  0  0  0  0
   16.5624  -23.2156  -13.0879 O   0  0  0  0  0  0  0  0  0  0  0  0
   17.6528  -21.2675  -13.2230 O   0  0  0  0  0  0  0  0  0  0  0  0
  2  3  2  0
  2  1  1  0
  4  3  1  0
  5  4  2  0
  6  5  1  0
  7  6  1  0
  7  8  1  1
  9  7  1  0
  9 10  2  0
 11  5  1  0
 11 12  2  0
 12  2  1  0
 14 13  1  1
 14 16  1  0
 15 14  1  0
 16 17  1  6
 17  9  1  0
 18 16  1  0
 19 18  2  0
 20 18  1  0
 21 20  1  0
 21 27  1  0
 21 22  1  1
 23 22  1  0
 24 23  1  0
 25 24  1  0
 26 25  1  0
 27 28  1  0
 29 27  2  0
M  END
$$$$
