YVK.pdb
     RDKit          3D

 29 29  0  0  1  0  0  0  0  0999 V2000
   20.1462  -15.7147  -16.9691 O   0  0  0  0  0  0  0  0  0  0  0  0
   20.1913  -16.8257  -16.1122 C   0  0  0  0  0  0  0  0  0  0  0  0
   20.5775  -18.0713  -16.5812 C   0  0  0  0  0  0  0  0  0  0  0  0
   20.6201  -19.1640  -15.7308 C   0  0  0  0  0  0  0  0  0  0  0  0
   20.2787  -19.0304  -14.4026 C   0  0  0  0  0  0  0  0  0  0  0  0
   20.3274  -20.1895  -13.5066 C   0  0  0  0  0  0  0  0  0  0  0  0
   21.5860  -20.2175  -12.6771 C   0  0  2  0  0  0  0  0  0  0  0  0
   22.6808  -20.4364  -13.5995 N   0  0  0  0  0  0  0  0  0  0  0  0
   21.6158  -21.2178  -11.6185 C   0  0  0  0  0  0  0  0  0  0  0  0
   21.8688  -22.4260  -11.9201 O   0  0  0  0  0  0  0  0  0  0  0  0
   19.8974  -17.8089  -13.9316 C   0  0  0  0  0  0  0  0  0  0  0  0
   19.8543  -16.7129  -14.7830 C   0  0  0  0  0  0  0  0  0  0  0  0
   23.7468  -20.8377   -8.5118 C   0  0  0  0  0  0  0  0  0  0  0  0
   22.3703  -21.2522   -8.1257 C   0  0  1  0  0  0  0  0  0  0  0  0
   21.5828  -19.9730   -7.8139 C   0  0  0  0  0  0  0  0  0  0  0  0
   21.5938  -21.9746   -9.1952 C   0  0  2  0  0  0  0  0  0  0  0  0
   21.3865  -20.9710  -10.2501 N   0  0  0  0  0  0  0  0  0  0  0  0
   20.3043  -22.5087   -8.7610 C   0  0  0  0  0  0  0  0  0  0  0  0
   19.2958  -21.7292   -8.8554 O   0  0  0  0  0  0  0  0  0  0  0  0
   20.0640  -23.7854   -8.2541 N   0  0  0  0  0  0  0  0  0  0  0  0
   18.7276  -24.1608   -7.8135 C   0  0  1  0  0  0  0  0  0  0  0  0
   18.4964  -25.6251   -7.9244 C   0  0  0  0  0  0  0  0  0  0  0  0
   17.0705  -25.9814   -7.6945 C   0  0  0  0  0  0  0  0  0  0  0  0
   16.8416  -27.4953   -7.7744 C   0  0  0  0  0  0  0  0  0  0  0  0
   15.3884  -27.8496   -7.6108 C   0  0  0  0  0  0  0  0  0  0  0  0
   15.1800  -29.2906   -7.7215 N   0  0  0  0  0  0  0  0  0  0  0  0
   18.4803  -23.6888   -6.4337 C   0  0  0  0  0  0  0  0  0  0  0  0
   17.1369  -23.4188   -6.0880 O   0  0  0  0  0  0  0  0  0  0  0  0
   19.3034  -23.4990   -5.5387 O   0  0  0  0  0  0  0  0  0  0  0  0
  2  3  2  0
  2  1  1  0
  4  3  1  0
  5  4  2  0
  6  5  1  0
  7  6  1  0
  7  8  1  6
  9  7  1  0
  9 10  2  0
 11  5  1  0
 11 12  2  0
 12  2  1  0
 14 13  1  6
 14 16  1  0
 15 14  1  0
 16 17  1  6
 17  9  1  0
 18 16  1  0
 19 18  2  0
 20 18  1  0
 21 20  1  0
 21 27  1  0
 21 22  1  1
 23 22  1  0
 24 23  1  0
 25 24  1  0
 26 25  1  0
 27 28  1  0
 29 27  2  0
M  END
$$$$
