YVK.pdb
     RDKit          3D

 29 29  0  0  1  0  0  0  0  0999 V2000
   26.5486  -13.2504  -25.6619 O   0  0  0  0  0  0  0  0  0  0  0  0
   25.9727  -13.0113  -24.4042 C   0  0  0  0  0  0  0  0  0  0  0  0
   26.5077  -12.0652  -23.5445 C   0  0  0  0  0  0  0  0  0  0  0  0
   25.9350  -11.8338  -22.3045 C   0  0  0  0  0  0  0  0  0  0  0  0
   24.8223  -12.5413  -21.9048 C   0  0  0  0  0  0  0  0  0  0  0  0
   24.2190  -12.2911  -20.5925 C   0  0  0  0  0  0  0  0  0  0  0  0
   25.1672  -12.5958  -19.4607 C   0  0  2  0  0  0  0  0  0  0  0  0
   25.4179  -14.0214  -19.5077 N   0  0  0  0  0  0  0  0  0  0  0  0
   24.7022  -12.2128  -18.1343 C   0  0  0  0  0  0  0  0  0  0  0  0
   23.9632  -13.0172  -17.4851 O   0  0  0  0  0  0  0  0  0  0  0  0
   24.2885  -13.4744  -22.7437 C   0  0  0  0  0  0  0  0  0  0  0  0
   24.8616  -13.7074  -23.9868 C   0  0  0  0  0  0  0  0  0  0  0  0
   26.6101  -11.5780  -15.1929 C   0  0  0  0  0  0  0  0  0  0  0  0
   25.6879  -10.4144  -15.3004 C   0  0  1  0  0  0  0  0  0  0  0  0
   26.4727   -9.2741  -15.9619 C   0  0  0  0  0  0  0  0  0  0  0  0
   24.4689  -10.6385  -16.1563 C   0  0  2  0  0  0  0  0  0  0  0  0
   25.0011  -11.0019  -17.4783 N   0  0  0  0  0  0  0  0  0  0  0  0
   23.5862   -9.4801  -16.2804 C   0  0  0  0  0  0  0  0  0  0  0  0
   23.9574   -8.5551  -17.0804 O   0  0  0  0  0  0  0  0  0  0  0  0
   22.3777   -9.2835  -15.6130 N   0  0  0  0  0  0  0  0  0  0  0  0
   21.6068   -8.0676  -15.8331 C   0  0  1  0  0  0  0  0  0  0  0  0
   20.2993   -8.3481  -16.4827 C   0  0  0  0  0  0  0  0  0  0  0  0
   19.5479   -7.0994  -16.7810 C   0  0  0  0  0  0  0  0  0  0  0  0
   18.1653   -7.3945  -17.3743 C   0  0  0  0  0  0  0  0  0  0  0  0
   17.4278   -6.1311  -17.7267 C   0  0  0  0  0  0  0  0  0  0  0  0
   16.3909   -5.8325  -16.7429 N   0  0  0  0  0  0  0  0  0  0  0  0
   21.4202   -7.3300  -14.5647 C   0  0  0  0  0  0  0  0  0  0  0  0
   20.9761   -5.9925  -14.6694 O   0  0  0  0  0  0  0  0  0  0  0  0
   21.6043   -7.7363  -13.4177 O   0  0  0  0  0  0  0  0  0  0  0  0
  2  3  2  0
  2  1  1  0
  4  3  1  0
  5  4  2  0
  6  5  1  0
  7  6  1  0
  7  8  1  1
  9  7  1  0
  9 10  2  0
 11  5  1  0
 11 12  2  0
 12  2  1  0
 14 13  1  6
 14 16  1  0
 15 14  1  0
 16 17  1  6
 17  9  1  0
 18 16  1  0
 19 18  2  0
 20 18  1  0
 21 20  1  0
 21 27  1  0
 21 22  1  1
 23 22  1  0
 24 23  1  0
 25 24  1  0
 26 25  1  0
 27 28  1  0
 29 27  2  0
M  END
$$$$
