YVK.pdb
     RDKit          3D

 29 29  0  0  1  0  0  0  0  0999 V2000
   27.0509  -19.4118   -5.8344 O   0  0  0  0  0  0  0  0  0  0  0  0
   27.0605  -19.6336   -7.2206 C   0  0  0  0  0  0  0  0  0  0  0  0
   26.9887  -18.5746   -8.1115 C   0  0  0  0  0  0  0  0  0  0  0  0
   26.9985  -18.7998   -9.4784 C   0  0  0  0  0  0  0  0  0  0  0  0
   27.0800  -20.0823   -9.9755 C   0  0  0  0  0  0  0  0  0  0  0  0
   27.0920  -20.3148  -11.4227 C   0  0  0  0  0  0  0  0  0  0  0  0
   25.7096  -20.2582  -12.0217 C   0  0  2  0  0  0  0  0  0  0  0  0
   24.9830  -21.3902  -11.4851 N   0  0  0  0  0  0  0  0  0  0  0  0
   25.6571  -20.2742  -13.4774 C   0  0  0  0  0  0  0  0  0  0  0  0
   25.3236  -21.3478  -14.0696 O   0  0  0  0  0  0  0  0  0  0  0  0
   27.1511  -21.1309   -9.1069 C   0  0  0  0  0  0  0  0  0  0  0  0
   27.1413  -20.9066   -7.7366 C   0  0  0  0  0  0  0  0  0  0  0  0
   23.4986  -17.9576  -14.8789 C   0  0  0  0  0  0  0  0  0  0  0  0
   24.0648  -19.0366  -15.7339 C   0  0  1  0  0  0  0  0  0  0  0  0
   23.6466  -18.7358  -17.1790 C   0  0  0  0  0  0  0  0  0  0  0  0
   25.5683  -19.1275  -15.7407 C   0  0  2  0  0  0  0  0  0  0  0  0
   25.9467  -19.1828  -14.3207 N   0  0  0  0  0  0  0  0  0  0  0  0
   26.2467  -18.0071  -16.3896 C   0  0  0  0  0  0  0  0  0  0  0  0
   26.2304  -16.8876  -15.7730 O   0  0  0  0  0  0  0  0  0  0  0  0
   26.9115  -18.0378  -17.6150 N   0  0  0  0  0  0  0  0  0  0  0  0
   27.8791  -17.0025  -17.9515 C   0  0  1  0  0  0  0  0  0  0  0  0
   29.2224  -17.5697  -18.2404 C   0  0  0  0  0  0  0  0  0  0  0  0
   30.2118  -16.5111  -18.5772 C   0  0  0  0  0  0  0  0  0  0  0  0
   31.5777  -17.1035  -18.9434 C   0  0  0  0  0  0  0  0  0  0  0  0
   32.6007  -16.0306  -19.2011 C   0  0  0  0  0  0  0  0  0  0  0  0
   33.9359  -16.6003  -19.3589 N   0  0  0  0  0  0  0  0  0  0  0  0
   27.3956  -16.1832  -19.0841 C   0  0  0  0  0  0  0  0  0  0  0  0
   28.1043  -14.9899  -19.3504 O   0  0  0  0  0  0  0  0  0  0  0  0
   26.4450  -16.4101  -19.8320 O   0  0  0  0  0  0  0  0  0  0  0  0
  2  3  2  0
  2  1  1  0
  4  3  1  0
  5  4  2  0
  6  5  1  0
  7  6  1  0
  7  8  1  1
  9  7  1  0
  9 10  2  0
 11  5  1  0
 11 12  2  0
 12  2  1  0
 14 13  1  1
 14 16  1  0
 15 14  1  0
 16 17  1  1
 17  9  1  0
 18 16  1  0
 19 18  2  0
 20 18  1  0
 21 20  1  0
 21 27  1  0
 21 22  1  6
 23 22  1  0
 24 23  1  0
 25 24  1  0
 26 25  1  0
 27 28  1  0
 29 27  2  0
M  END
$$$$
