YVK.pdb
     RDKit          3D

 29 29  0  0  1  0  0  0  0  0999 V2000
   22.9382  -13.8368  -19.4448 O   0  0  0  0  0  0  0  0  0  0  0  0
   22.5097  -14.9926  -18.7731 C   0  0  0  0  0  0  0  0  0  0  0  0
   21.9213  -16.0403  -19.4634 C   0  0  0  0  0  0  0  0  0  0  0  0
   21.5005  -17.1784  -18.7950 C   0  0  0  0  0  0  0  0  0  0  0  0
   21.6602  -17.2878  -17.4308 C   0  0  0  0  0  0  0  0  0  0  0  0
   21.2150  -18.4951  -16.7287 C   0  0  0  0  0  0  0  0  0  0  0  0
   22.3269  -19.1405  -15.9412 C   0  0  2  0  0  0  0  0  0  0  0  0
   23.3432  -19.5195  -16.9008 N   0  0  0  0  0  0  0  0  0  0  0  0
   21.9390  -20.2941  -15.1408 C   0  0  0  0  0  0  0  0  0  0  0  0
   21.8178  -21.4245  -15.7085 O   0  0  0  0  0  0  0  0  0  0  0  0
   22.2382  -16.2622  -16.7427 C   0  0  0  0  0  0  0  0  0  0  0  0
   22.6604  -15.1210  -17.4114 C   0  0  0  0  0  0  0  0  0  0  0  0
   23.5203  -21.4285  -11.9361 C   0  0  0  0  0  0  0  0  0  0  0  0
   22.0452  -21.4425  -11.7366 C   0  0  1  0  0  0  0  0  0  0  0  0
   21.6750  -20.1464  -11.0039 C   0  0  0  0  0  0  0  0  0  0  0  0
   21.2267  -21.4600  -13.0010 C   0  0  2  0  0  0  0  0  0  0  0  0
   21.6784  -20.2815  -13.7559 N   0  0  0  0  0  0  0  0  0  0  0  0
   19.7811  -21.3912  -12.7958 C   0  0  0  0  0  0  0  0  0  0  0  0
   19.2738  -20.2270  -12.6510 O   0  0  0  0  0  0  0  0  0  0  0  0
   18.8990  -22.4699  -12.7432 N   0  0  0  0  0  0  0  0  0  0  0  0
   17.4870  -22.2506  -12.4617 C   0  0  1  0  0  0  0  0  0  0  0  0
   16.6113  -22.8943  -13.4760 C   0  0  0  0  0  0  0  0  0  0  0  0
   15.1701  -22.7562  -13.1338 C   0  0  0  0  0  0  0  0  0  0  0  0
   14.2728  -23.4812  -14.1436 C   0  0  0  0  0  0  0  0  0  0  0  0
   12.8133  -23.2452  -13.8637 C   0  0  0  0  0  0  0  0  0  0  0  0
   11.9719  -23.8812  -14.8736 N   0  0  0  0  0  0  0  0  0  0  0  0
   17.1475  -22.7139  -11.0987 C   0  0  0  0  0  0  0  0  0  0  0  0
   15.9147  -22.2713  -10.5681 O   0  0  0  0  0  0  0  0  0  0  0  0
   17.8081  -23.4432  -10.3597 O   0  0  0  0  0  0  0  0  0  0  0  0
  2  3  2  0
  2  1  1  0
  4  3  1  0
  5  4  2  0
  6  5  1  0
  7  6  1  0
  7  8  1  6
  9  7  1  0
  9 10  2  0
 11  5  1  0
 11 12  2  0
 12  2  1  0
 14 13  1  6
 14 16  1  0
 15 14  1  0
 16 17  1  6
 17  9  1  0
 18 16  1  0
 19 18  2  0
 20 18  1  0
 21 20  1  0
 21 27  1  0
 21 22  1  6
 23 22  1  0
 24 23  1  0
 25 24  1  0
 26 25  1  0
 27 28  1  0
 29 27  2  0
M  END
$$$$
