LKM.pdb
     RDKit          3D

 26 25  0  0  1  0  0  0  0  0999 V2000
    7.1774  -12.4825   18.2718 C   0  0  0  0  0  0  0  0  0  0  0  0
    7.9899  -13.6862   18.6941 C   0  0  1  0  0  0  0  0  0  0  0  0
    9.3300  -13.2723   19.2600 C   0  0  0  0  0  0  0  0  0  0  0  0
    7.2105  -14.5330   19.6668 C   0  0  0  0  0  0  0  0  0  0  0  0
    8.1302  -15.5434   20.3080 C   0  0  2  0  0  0  0  0  0  0  0  0
    8.3041  -16.7363   19.5473 N   0  0  0  0  0  0  0  0  0  0  0  0
    7.7040  -15.8234   21.7169 C   0  0  0  0  0  0  0  0  0  0  0  0
    7.1641  -14.9290   22.4086 O   0  0  0  0  0  0  0  0  0  0  0  0
    7.8846  -17.0914   22.3334 N   0  0  0  0  0  0  0  0  0  0  0  0
    7.4203  -17.4131   23.6666 C   0  0  1  0  0  0  0  0  0  0  0  0
    7.5977  -18.8802   23.9823 C   0  0  0  0  0  0  0  0  0  0  0  0
    7.1942  -19.2484   25.3650 C   0  0  0  0  0  0  0  0  0  0  0  0
    7.3437  -20.7209   25.6608 C   0  0  0  0  0  0  0  0  0  0  0  0
    6.9188  -21.0500   27.0780 C   0  0  0  0  0  0  0  0  0  0  0  0
    7.0442  -22.4591   27.3697 N   0  0  0  0  0  0  0  0  0  0  0  0
    8.2715  -16.6719   24.6660 C   0  0  0  0  0  0  0  0  0  0  0  0
    9.5213  -16.7968   24.5938 O   0  0  0  0  0  0  0  0  0  0  0  0
    7.1213  -10.6320   26.9056 C   0  0  0  0  0  0  0  0  0  0  0  0
    5.8449  -11.8882   26.5135 S   0  0  0  0  0  0  0  0  0  0  0  0
    6.7645  -13.3507   25.8969 C   0  0  0  0  0  0  0  0  0  0  0  0
    7.8360  -13.7470   26.8639 C   0  0  0  0  0  0  0  0  0  0  0  0
    8.5641  -14.9536   26.4077 C   0  0  2  0  0  0  0  0  0  0  0  0
    7.6877  -15.8548   25.6627 N   0  0  0  0  0  0  0  0  0  0  0  0
    9.1679  -15.7104   27.4988 C   0  0  0  0  0  0  0  0  0  0  0  0
    8.7752  -16.9845   27.8115 O   0  0  0  0  0  0  0  0  0  0  0  0
   10.0930  -15.1921   28.2059 O   0  0  0  0  0  0  0  0  0  0  0  0
  2  3  1  1
  2  1  1  0
  4  2  1  0
  5  6  1  6
  5  4  1  0
  7  5  1  0
  8  7  2  0
  9  7  1  0
 10  9  1  0
 10 11  1  1
 11 12  1  0
 12 13  1  0
 13 14  1  0
 15 14  1  0
 16 10  1  0
 17 16  2  0
 19 20  1  0
 19 18  1  0
 20 21  1  0
 22 21  1  1
 22 24  1  0
 22 23  1  0
 23 16  1  0
 24 25  1  0
 26 24  2  0
M  END
$$$$
