LKM.pdb
     RDKit          3D

 26 25  0  0  1  0  0  0  0  0999 V2000
    5.9957  -11.5087   26.3949 C   0  0  0  0  0  0  0  0  0  0  0  0
    6.0111  -12.5869   25.3344 C   0  0  1  0  0  0  0  0  0  0  0  0
    6.3868  -12.0218   23.9829 C   0  0  0  0  0  0  0  0  0  0  0  0
    6.9247  -13.7137   25.7420 C   0  0  0  0  0  0  0  0  0  0  0  0
    6.4445  -15.0037   25.1230 C   0  0  2  0  0  0  0  0  0  0  0  0
    5.3281  -15.5881   25.7894 N   0  0  0  0  0  0  0  0  0  0  0  0
    7.5814  -15.9668   24.9647 C   0  0  0  0  0  0  0  0  0  0  0  0
    7.9420  -16.6893   25.9227 O   0  0  0  0  0  0  0  0  0  0  0  0
    8.2982  -16.1109   23.7457 N   0  0  0  0  0  0  0  0  0  0  0  0
    9.3644  -17.0699   23.5459 C   0  0  1  0  0  0  0  0  0  0  0  0
    9.8439  -17.0834   22.1130 C   0  0  0  0  0  0  0  0  0  0  0  0
   10.9213  -18.0738   21.8512 C   0  0  0  0  0  0  0  0  0  0  0  0
   11.3390  -18.1358   20.4022 C   0  0  0  0  0  0  0  0  0  0  0  0
   12.4354  -19.1591   20.1821 C   0  0  0  0  0  0  0  0  0  0  0  0
   12.7437  -19.3328   18.7818 N   0  0  0  0  0  0  0  0  0  0  0  0
   10.5527  -16.6498   24.3729 C   0  0  0  0  0  0  0  0  0  0  0  0
   11.1424  -15.5806   24.0696 O   0  0  0  0  0  0  0  0  0  0  0  0
   10.0965  -15.5606   29.7928 C   0  0  0  0  0  0  0  0  0  0  0  0
   10.8795  -14.1640   28.8998 S   0  0  0  0  0  0  0  0  0  0  0  0
   11.5224  -14.8759   27.3363 C   0  0  0  0  0  0  0  0  0  0  0  0
   11.7814  -16.3420   27.4908 C   0  0  0  0  0  0  0  0  0  0  0  0
   12.1699  -16.9662   26.2049 C   0  0  2  0  0  0  0  0  0  0  0  0
   10.9997  -17.4320   25.4639 N   0  0  0  0  0  0  0  0  0  0  0  0
   13.0824  -18.0932   26.3630 C   0  0  0  0  0  0  0  0  0  0  0  0
   12.7715  -19.3540   25.9280 O   0  0  0  0  0  0  0  0  0  0  0  0
   14.2145  -17.9298   26.9253 O   0  0  0  0  0  0  0  0  0  0  0  0
  2  3  1  6
  2  1  1  0
  4  2  1  0
  5  6  1  1
  5  4  1  0
  7  5  1  0
  8  7  2  0
  9  7  1  0
 10  9  1  0
 10 11  1  6
 11 12  1  0
 12 13  1  0
 13 14  1  0
 15 14  1  0
 16 10  1  0
 17 16  2  0
 19 20  1  0
 19 18  1  0
 20 21  1  0
 22 21  1  1
 22 24  1  0
 22 23  1  0
 23 16  1  0
 24 25  1  0
 26 24  2  0
M  END
$$$$
