LKM.pdb
     RDKit          3D

 26 25  0  0  1  0  0  0  0  0999 V2000
    7.5854  -11.8497   19.3451 C   0  0  0  0  0  0  0  0  0  0  0  0
    7.7268  -13.3330   19.0859 C   0  0  1  0  0  0  0  0  0  0  0  0
    9.1375  -13.6851   18.6696 C   0  0  0  0  0  0  0  0  0  0  0  0
    7.2867  -14.1228   20.2913 C   0  0  0  0  0  0  0  0  0  0  0  0
    7.3376  -15.5979   19.9759 C   0  0  2  0  0  0  0  0  0  0  0  0
    6.1767  -16.0908   19.3115 N   0  0  0  0  0  0  0  0  0  0  0  0
    7.6687  -16.3879   21.2054 C   0  0  0  0  0  0  0  0  0  0  0  0
    6.8718  -16.4263   22.1714 O   0  0  0  0  0  0  0  0  0  0  0  0
    8.8788  -17.1213   21.3410 N   0  0  0  0  0  0  0  0  0  0  0  0
    9.2347  -17.8782   22.5229 C   0  0  1  0  0  0  0  0  0  0  0  0
   10.3893  -18.8168   22.2598 C   0  0  0  0  0  0  0  0  0  0  0  0
   10.8166  -19.5905   23.4553 C   0  0  0  0  0  0  0  0  0  0  0  0
   11.9365  -20.5618   23.1716 C   0  0  0  0  0  0  0  0  0  0  0  0
   12.3009  -21.3665   24.4033 C   0  0  0  0  0  0  0  0  0  0  0  0
   13.4487  -22.2141   24.1788 N   0  0  0  0  0  0  0  0  0  0  0  0
    9.7169  -16.9203   23.5824 C   0  0  0  0  0  0  0  0  0  0  0  0
   10.5470  -16.0343   23.2522 O   0  0  0  0  0  0  0  0  0  0  0  0
    8.4130  -11.6212   28.7305 C   0  0  0  0  0  0  0  0  0  0  0  0
    7.6849  -12.8922   27.6281 S   0  0  0  0  0  0  0  0  0  0  0  0
    9.0701  -14.0073   27.1778 C   0  0  0  0  0  0  0  0  0  0  0  0
    8.6155  -15.0465   26.2013 C   0  0  0  0  0  0  0  0  0  0  0  0
    9.7040  -15.9933   25.8653 C   0  0  2  0  0  0  0  0  0  0  0  0
    9.2529  -17.0085   24.9161 N   0  0  0  0  0  0  0  0  0  0  0  0
   10.2541  -16.6770   27.0305 C   0  0  0  0  0  0  0  0  0  0  0  0
   11.1793  -16.0924   27.8537 O   0  0  0  0  0  0  0  0  0  0  0  0
    9.8823  -17.8624   27.3154 O   0  0  0  0  0  0  0  0  0  0  0  0
  2  3  1  1
  2  1  1  0
  4  2  1  0
  5  6  1  1
  5  4  1  0
  7  5  1  0
  8  7  2  0
  9  7  1  0
 10  9  1  0
 10 11  1  6
 11 12  1  0
 12 13  1  0
 13 14  1  0
 15 14  1  0
 16 10  1  0
 17 16  2  0
 19 20  1  0
 19 18  1  0
 20 21  1  0
 22 21  1  1
 22 24  1  0
 22 23  1  0
 23 16  1  0
 24 25  1  0
 26 24  2  0
M  END
$$$$
