LKM.pdb
     RDKit          3D

 26 25  0  0  1  0  0  0  0  0999 V2000
    7.6766  -12.0861   18.9898 C   0  0  0  0  0  0  0  0  0  0  0  0
    8.2149  -13.4968   18.9037 C   0  0  1  0  0  0  0  0  0  0  0  0
    9.6941  -13.5012   18.5882 C   0  0  0  0  0  0  0  0  0  0  0  0
    7.9120  -14.2546   20.1704 C   0  0  0  0  0  0  0  0  0  0  0  0
    8.4873  -15.6468   20.0770 C   0  0  2  0  0  0  0  0  0  0  0  0
    7.8026  -16.4987   19.1619 N   0  0  0  0  0  0  0  0  0  0  0  0
    8.6114  -16.2574   21.4397 C   0  0  0  0  0  0  0  0  0  0  0  0
    7.6138  -16.3419   22.1930 O   0  0  0  0  0  0  0  0  0  0  0  0
    9.8410  -16.7634   21.9425 N   0  0  0  0  0  0  0  0  0  0  0  0
    9.9979  -17.3340   23.2639 C   0  0  1  0  0  0  0  0  0  0  0  0
   11.3092  -18.0718   23.4030 C   0  0  0  0  0  0  0  0  0  0  0  0
   11.5364  -18.6395   24.7581 C   0  0  0  0  0  0  0  0  0  0  0  0
   12.6908  -19.6101   24.8153 C   0  0  0  0  0  0  0  0  0  0  0  0
   12.8634  -20.1885   26.2057 C   0  0  0  0  0  0  0  0  0  0  0  0
   14.0851  -20.9490   26.3302 N   0  0  0  0  0  0  0  0  0  0  0  0
   10.0483  -16.2132   24.2708 C   0  0  0  0  0  0  0  0  0  0  0  0
   10.8510  -15.2657   24.0689 O   0  0  0  0  0  0  0  0  0  0  0  0
    6.5766  -11.5105   26.0031 C   0  0  0  0  0  0  0  0  0  0  0  0
    6.7037  -12.2954   27.6549 S   0  0  0  0  0  0  0  0  0  0  0  0
    8.2188  -13.3278   27.5958 C   0  0  0  0  0  0  0  0  0  0  0  0
    8.1509  -14.3008   26.4605 C   0  0  0  0  0  0  0  0  0  0  0  0
    9.3744  -15.1318   26.3799 C   0  0  2  0  0  0  0  0  0  0  0  0
    9.2174  -16.2188   25.4160 N   0  0  0  0  0  0  0  0  0  0  0  0
    9.7611  -15.7152   27.6597 C   0  0  0  0  0  0  0  0  0  0  0  0
    9.8880  -17.0669   27.8400 O   0  0  0  0  0  0  0  0  0  0  0  0
    9.9917  -14.9658   28.6644 O   0  0  0  0  0  0  0  0  0  0  0  0
  2  3  1  1
  2  1  1  0
  4  2  1  0
  5  6  1  6
  5  4  1  0
  7  5  1  0
  8  7  2  0
  9  7  1  0
 10  9  1  0
 10 11  1  6
 11 12  1  0
 12 13  1  0
 13 14  1  0
 15 14  1  0
 16 10  1  0
 17 16  2  0
 19 20  1  0
 19 18  1  0
 20 21  1  0
 22 21  1  1
 22 24  1  0
 22 23  1  0
 23 16  1  0
 24 25  1  0
 26 24  2  0
M  END
$$$$
