NWG.pdb
     RDKit          3D

 27 28  0  0  1  0  0  0  0  0999 V2000
   13.4145  -19.4328    5.6358 N   0  0  0  0  0  0  0  0  0  0  0  0
   14.4094  -20.3816    5.9709 C   0  0  0  0  0  0  0  0  0  0  0  0
   14.1185  -21.4120    6.6141 O   0  0  0  0  0  0  0  0  0  0  0  0
   15.8040  -20.1485    5.5540 C   0  0  0  0  0  0  0  0  0  0  0  0
   15.8945  -18.8024    4.8532 C   0  0  2  0  0  0  0  0  0  0  0  0
   16.1171  -19.1281    3.4383 N   0  0  0  0  0  0  0  0  0  0  0  0
   17.1143  -18.1435    5.3585 C   0  0  0  0  0  0  0  0  0  0  0  0
   18.2499  -18.3849    4.8584 O   0  0  0  0  0  0  0  0  0  0  0  0
   17.0465  -17.1963    6.4484 N   0  0  0  0  0  0  0  0  0  0  0  0
   18.2092  -16.4784    6.8632 C   0  0  1  0  0  0  0  0  0  0  0  0
   18.0110  -15.0926    7.3301 C   0  0  0  0  0  0  0  0  0  0  0  0
   18.4688  -13.9980    6.4948 C   0  0  0  0  0  0  0  0  0  0  0  0
   17.9022  -13.4117    5.3891 C   0  0  0  0  0  0  0  0  0  0  0  0
   18.7094  -12.4074    4.9432 N   0  0  0  0  0  0  0  0  0  0  0  0
   19.7724  -12.3575    5.7541 C   0  0  0  0  0  0  0  0  0  0  0  0
   20.9040  -11.5390    5.7807 C   0  0  0  0  0  0  0  0  0  0  0  0
   21.8918  -11.6701    6.7338 C   0  0  0  0  0  0  0  0  0  0  0  0
   21.7654  -12.6447    7.7018 C   0  0  0  0  0  0  0  0  0  0  0  0
   20.6546  -13.4544    7.6826 C   0  0  0  0  0  0  0  0  0  0  0  0
   19.6520  -13.3162    6.7097 C   0  0  0  0  0  0  0  0  0  0  0  0
   19.0732  -17.2929    7.7824 C   0  0  0  0  0  0  0  0  0  0  0  0
   18.5045  -17.9442    8.6856 O   0  0  0  0  0  0  0  0  0  0  0  0
   20.4815  -17.3629    7.6836 N   0  0  0  0  0  0  0  0  0  0  0  0
   21.3254  -18.1638    8.5312 C   0  0  0  0  0  0  0  0  0  0  0  0
   21.4774  -17.6274    9.8852 C   0  0  0  0  0  0  0  0  0  0  0  0
   22.2628  -18.2737   10.8076 O   0  0  0  0  0  0  0  0  0  0  0  0
   20.8897  -16.5778   10.2031 O   0  0  0  0  0  0  0  0  0  0  0  0
  2  1  1  0
  3  2  2  0
  4  2  1  0
  5  4  1  0
  5  7  1  0
  5  6  1  6
  7  8  2  0
  9  7  1  0
  9 10  1  0
 10 11  1  1
 12 11  1  0
 12 20  1  0
 13 14  1  0
 13 12  2  0
 14 15  1  0
 15 16  1  0
 15 20  2  0
 16 17  2  0
 17 18  1  0
 19 18  2  0
 20 19  1  0
 21 10  1  0
 21 22  2  0
 23 21  1  0
 24 23  1  0
 25 24  1  0
 26 25  1  0
 27 25  2  0
M  END
$$$$
