NWG.pdb
     RDKit          3D

 27 28  0  0  1  0  0  0  0  0999 V2000
   27.9134  -21.5166  -16.9240 N   0  0  0  0  0  0  0  0  0  0  0  0
   27.8468  -22.7628  -16.2569 C   0  0  0  0  0  0  0  0  0  0  0  0
   28.3980  -23.7750  -16.7382 O   0  0  0  0  0  0  0  0  0  0  0  0
   27.1185  -22.8638  -14.9793 C   0  0  0  0  0  0  0  0  0  0  0  0
   26.4346  -21.5369  -14.6913 C   0  0  2  0  0  0  0  0  0  0  0  0
   27.5302  -20.6037  -14.3980 N   0  0  0  0  0  0  0  0  0  0  0  0
   25.6590  -21.7216  -13.4496 C   0  0  0  0  0  0  0  0  0  0  0  0
   24.8725  -22.7001  -13.3024 O   0  0  0  0  0  0  0  0  0  0  0  0
   25.7760  -20.7819  -12.3572 N   0  0  0  0  0  0  0  0  0  0  0  0
   24.9355  -20.8923  -11.2081 C   0  0  1  0  0  0  0  0  0  0  0  0
   25.5042  -20.4597   -9.9169 C   0  0  0  0  0  0  0  0  0  0  0  0
   26.8824  -20.7939   -9.6095 C   0  0  0  0  0  0  0  0  0  0  0  0
   27.8065  -21.5328  -10.3076 C   0  0  0  0  0  0  0  0  0  0  0  0
   28.9796  -21.5665   -9.6135 N   0  0  0  0  0  0  0  0  0  0  0  0
   28.8022  -20.8593   -8.4917 C   0  0  0  0  0  0  0  0  0  0  0  0
   29.6473  -20.5547   -7.4222 C   0  0  0  0  0  0  0  0  0  0  0  0
   29.2404  -19.7887   -6.3503 C   0  0  0  0  0  0  0  0  0  0  0  0
   27.9505  -19.3005   -6.3254 C   0  0  0  0  0  0  0  0  0  0  0  0
   27.1123  -19.5958   -7.3743 C   0  0  0  0  0  0  0  0  0  0  0  0
   27.5323  -20.3763   -8.4631 C   0  0  0  0  0  0  0  0  0  0  0  0
   23.5621  -20.3408  -11.4624 C   0  0  0  0  0  0  0  0  0  0  0  0
   23.4742  -19.1418  -11.8058 O   0  0  0  0  0  0  0  0  0  0  0  0
   22.3741  -21.0962  -11.3357 N   0  0  0  0  0  0  0  0  0  0  0  0
   21.0545  -20.6085  -11.6409 C   0  0  0  0  0  0  0  0  0  0  0  0
   19.9906  -21.5732  -11.3554 C   0  0  0  0  0  0  0  0  0  0  0  0
   18.6713  -21.2021  -11.4395 O   0  0  0  0  0  0  0  0  0  0  0  0
   20.2841  -22.7388  -11.0336 O   0  0  0  0  0  0  0  0  0  0  0  0
  2  1  1  0
  3  2  2  0
  4  2  1  0
  5  4  1  0
  5  7  1  0
  5  6  1  1
  7  8  2  0
  9  7  1  0
  9 10  1  0
 10 11  1  1
 12 11  1  0
 12 20  1  0
 13 14  1  0
 13 12  2  0
 14 15  1  0
 15 16  1  0
 15 20  2  0
 16 17  2  0
 17 18  1  0
 19 18  2  0
 20 19  1  0
 21 10  1  0
 21 22  2  0
 23 21  1  0
 24 23  1  0
 25 24  1  0
 26 25  1  0
 27 25  2  0
M  END
$$$$
