NWG.pdb
     RDKit          3D

 27 28  0  0  1  0  0  0  0  0999 V2000
   20.7095  -13.0346  -19.3768 N   0  0  0  0  0  0  0  0  0  0  0  0
   20.6768  -11.6204  -19.4135 C   0  0  0  0  0  0  0  0  0  0  0  0
   20.2778  -11.0170  -20.4317 O   0  0  0  0  0  0  0  0  0  0  0  0
   21.1186  -10.8536  -18.2346 C   0  0  0  0  0  0  0  0  0  0  0  0
   21.2070   -9.3815  -18.6041 C   0  0  2  0  0  0  0  0  0  0  0  0
   22.3557   -9.2896  -19.5149 N   0  0  0  0  0  0  0  0  0  0  0  0
   21.5562   -8.6553  -17.3679 C   0  0  0  0  0  0  0  0  0  0  0  0
   20.8983   -8.8155  -16.3005 O   0  0  0  0  0  0  0  0  0  0  0  0
   22.6684   -7.7322  -17.3409 N   0  0  0  0  0  0  0  0  0  0  0  0
   22.9994   -7.0251  -16.1453 C   0  0  1  0  0  0  0  0  0  0  0  0
   24.3475   -7.2455  -15.5869 C   0  0  0  0  0  0  0  0  0  0  0  0
   24.7973   -8.6053  -15.3540 C   0  0  0  0  0  0  0  0  0  0  0  0
   24.2399   -9.6245  -14.6206 C   0  0  0  0  0  0  0  0  0  0  0  0
   25.0331  -10.7303  -14.7030 N   0  0  0  0  0  0  0  0  0  0  0  0
   26.0783  -10.4172  -15.4773 C   0  0  0  0  0  0  0  0  0  0  0  0
   27.1906  -11.1460  -15.9048 C   0  0  0  0  0  0  0  0  0  0  0  0
   28.1619  -10.6061  -16.7212 C   0  0  0  0  0  0  0  0  0  0  0  0
   28.0381   -9.2965  -17.1361 C   0  0  0  0  0  0  0  0  0  0  0  0
   26.9463   -8.5722  -16.7197 C   0  0  0  0  0  0  0  0  0  0  0  0
   25.9604   -9.1273  -15.8885 C   0  0  0  0  0  0  0  0  0  0  0  0
   22.6262   -5.5731  -16.2306 C   0  0  0  0  0  0  0  0  0  0  0  0
   23.0328   -4.9281  -17.2216 O   0  0  0  0  0  0  0  0  0  0  0  0
   21.8476   -4.9015  -15.2606 N   0  0  0  0  0  0  0  0  0  0  0  0
   21.3821   -3.5444  -15.3772 C   0  0  0  0  0  0  0  0  0  0  0  0
   20.0817   -3.4237  -16.0395 C   0  0  0  0  0  0  0  0  0  0  0  0
   18.9473   -3.1703  -15.3086 O   0  0  0  0  0  0  0  0  0  0  0  0
   20.0037   -3.5522  -17.2747 O   0  0  0  0  0  0  0  0  0  0  0  0
  2  1  1  0
  3  2  2  0
  4  2  1  0
  5  4  1  0
  5  7  1  0
  5  6  1  6
  7  8  2  0
  9  7  1  0
  9 10  1  0
 10 11  1  6
 12 11  1  0
 12 20  1  0
 13 14  1  0
 13 12  2  0
 14 15  1  0
 15 16  1  0
 15 20  2  0
 16 17  2  0
 17 18  1  0
 19 18  2  0
 20 19  1  0
 21 10  1  0
 21 22  2  0
 23 21  1  0
 24 23  1  0
 25 24  1  0
 26 25  1  0
 27 25  2  0
M  END
$$$$
