NWG.pdb
     RDKit          3D

 27 28  0  0  1  0  0  0  0  0999 V2000
   29.1135  -18.1857  -14.5619 N   0  0  0  0  0  0  0  0  0  0  0  0
   27.7310  -18.1148  -14.8553 C   0  0  0  0  0  0  0  0  0  0  0  0
   27.2826  -17.2233  -15.6064 O   0  0  0  0  0  0  0  0  0  0  0  0
   26.8127  -19.1063  -14.2668 C   0  0  0  0  0  0  0  0  0  0  0  0
   27.6000  -20.0317  -13.3530 C   0  0  2  0  0  0  0  0  0  0  0  0
   28.0857  -21.1047  -14.2306 N   0  0  0  0  0  0  0  0  0  0  0  0
   26.6289  -20.6258  -12.4141 C   0  0  0  0  0  0  0  0  0  0  0  0
   25.9072  -21.6090  -12.7460 O   0  0  0  0  0  0  0  0  0  0  0  0
   26.4727  -20.0970  -11.0778 N   0  0  0  0  0  0  0  0  0  0  0  0
   25.5466  -20.6865  -10.1646 C   0  0  1  0  0  0  0  0  0  0  0  0
   25.9305  -20.7078   -8.7399 C   0  0  0  0  0  0  0  0  0  0  0  0
   27.3390  -20.7396   -8.3927 C   0  0  0  0  0  0  0  0  0  0  0  0
   28.4169  -21.2774   -9.0532 C   0  0  0  0  0  0  0  0  0  0  0  0
   29.5511  -21.0529   -8.3306 N   0  0  0  0  0  0  0  0  0  0  0  0
   29.1979  -20.3824   -7.2280 C   0  0  0  0  0  0  0  0  0  0  0  0
   29.9300  -19.8907   -6.1448 C   0  0  0  0  0  0  0  0  0  0  0  0
   29.3414  -19.2117   -5.0989 C   0  0  0  0  0  0  0  0  0  0  0  0
   27.9776  -19.0060   -5.1150 C   0  0  0  0  0  0  0  0  0  0  0  0
   27.2497  -19.4868   -6.1775 C   0  0  0  0  0  0  0  0  0  0  0  0
   27.8545  -20.1774   -7.2397 C   0  0  0  0  0  0  0  0  0  0  0  0
   24.1457  -20.1953  -10.3910 C   0  0  0  0  0  0  0  0  0  0  0  0
   23.8215  -19.1079   -9.8657 O   0  0  0  0  0  0  0  0  0  0  0  0
   23.1822  -20.8887  -11.1584 N   0  0  0  0  0  0  0  0  0  0  0  0
   21.8523  -20.4109  -11.4329 C   0  0  0  0  0  0  0  0  0  0  0  0
   21.0433  -21.3437  -12.2200 C   0  0  0  0  0  0  0  0  0  0  0  0
   19.8825  -21.8665  -11.7053 O   0  0  0  0  0  0  0  0  0  0  0  0
   21.4105  -21.6658  -13.3643 O   0  0  0  0  0  0  0  0  0  0  0  0
  2  1  1  0
  3  2  2  0
  4  2  1  0
  5  4  1  0
  5  7  1  0
  5  6  1  6
  7  8  2  0
  9  7  1  0
  9 10  1  0
 10 11  1  1
 12 11  1  0
 12 20  1  0
 13 14  1  0
 13 12  2  0
 14 15  1  0
 15 16  1  0
 15 20  2  0
 16 17  2  0
 17 18  1  0
 19 18  2  0
 20 19  1  0
 21 10  1  0
 21 22  2  0
 23 21  1  0
 24 23  1  0
 25 24  1  0
 26 25  1  0
 27 25  2  0
M  END
$$$$
