NWG.pdb
     RDKit          3D

 27 28  0  0  1  0  0  0  0  0999 V2000
   23.4559  -33.4249   -6.7532 N   0  0  0  0  0  0  0  0  0  0  0  0
   24.2919  -32.6089   -5.9547 C   0  0  0  0  0  0  0  0  0  0  0  0
   25.3417  -32.1196   -6.4221 O   0  0  0  0  0  0  0  0  0  0  0  0
   23.9161  -32.3345   -4.5560 C   0  0  0  0  0  0  0  0  0  0  0  0
   22.6287  -33.0760   -4.2329 C   0  0  2  0  0  0  0  0  0  0  0  0
   21.5947  -32.4001   -5.0274 N   0  0  0  0  0  0  0  0  0  0  0  0
   22.3387  -32.8195   -2.8090 C   0  0  0  0  0  0  0  0  0  0  0  0
   23.2178  -32.9867   -1.9162 O   0  0  0  0  0  0  0  0  0  0  0  0
   21.0313  -32.3669   -2.3899 N   0  0  0  0  0  0  0  0  0  0  0  0
   20.7123  -32.2455   -1.0033 C   0  0  1  0  0  0  0  0  0  0  0  0
   19.8508  -31.1139   -0.6097 C   0  0  0  0  0  0  0  0  0  0  0  0
   20.2220  -29.7727   -1.0206 C   0  0  0  0  0  0  0  0  0  0  0  0
   20.4475  -29.2436   -2.2683 C   0  0  0  0  0  0  0  0  0  0  0  0
   20.7707  -27.9243   -2.1509 N   0  0  0  0  0  0  0  0  0  0  0  0
   20.7505  -27.6209   -0.8481 C   0  0  0  0  0  0  0  0  0  0  0  0
   20.9942  -26.4364   -0.1489 C   0  0  0  0  0  0  0  0  0  0  0  0
   20.9101  -26.3556    1.2250 C   0  0  0  0  0  0  0  0  0  0  0  0
   20.5730  -27.4832    1.9444 C   0  0  0  0  0  0  0  0  0  0  0  0
   20.3316  -28.6530    1.2638 C   0  0  0  0  0  0  0  0  0  0  0  0
   20.4187  -28.7293   -0.1353 C   0  0  0  0  0  0  0  0  0  0  0  0
   20.2741  -33.5543   -0.4117 C   0  0  0  0  0  0  0  0  0  0  0  0
   19.4815  -34.2546   -1.0786 O   0  0  0  0  0  0  0  0  0  0  0  0
   20.7048  -34.0337    0.8464 N   0  0  0  0  0  0  0  0  0  0  0  0
   20.3833  -35.3291    1.3855 C   0  0  0  0  0  0  0  0  0  0  0  0
   18.9805  -35.4695    1.7814 C   0  0  0  0  0  0  0  0  0  0  0  0
   18.1006  -34.4288    1.6134 O   0  0  0  0  0  0  0  0  0  0  0  0
   18.5824  -36.5402    2.2745 O   0  0  0  0  0  0  0  0  0  0  0  0
  2  1  1  0
  3  2  2  0
  4  2  1  0
  5  4  1  0
  5  7  1  0
  5  6  1  6
  7  8  2  0
  9  7  1  0
  9 10  1  0
 10 11  1  6
 12 11  1  0
 12 20  1  0
 13 14  1  0
 13 12  2  0
 14 15  1  0
 15 16  1  0
 15 20  2  0
 16 17  2  0
 17 18  1  0
 19 18  2  0
 20 19  1  0
 21 10  1  0
 21 22  2  0
 23 21  1  0
 24 23  1  0
 25 24  1  0
 26 25  1  0
 27 25  2  0
M  END
$$$$
