NWG.pdb
     RDKit          3D

 27 28  0  0  1  0  0  0  0  0999 V2000
   26.4584  -18.5540  -17.4001 N   0  0  0  0  0  0  0  0  0  0  0  0
   26.2987  -19.9588  -17.4606 C   0  0  0  0  0  0  0  0  0  0  0  0
   26.6570  -20.5992  -18.4713 O   0  0  0  0  0  0  0  0  0  0  0  0
   25.7032  -20.6713  -16.3158 C   0  0  0  0  0  0  0  0  0  0  0  0
   26.7346  -20.7740  -15.2036 C   0  0  2  0  0  0  0  0  0  0  0  0
   27.6563  -21.8310  -15.6404 N   0  0  0  0  0  0  0  0  0  0  0  0
   26.0214  -21.2667  -14.0094 C   0  0  0  0  0  0  0  0  0  0  0  0
   25.6800  -22.4787  -13.8983 O   0  0  0  0  0  0  0  0  0  0  0  0
   25.6893  -20.3717  -12.9239 N   0  0  0  0  0  0  0  0  0  0  0  0
   25.0204  -20.8560  -11.7590 C   0  0  1  0  0  0  0  0  0  0  0  0
   25.5295  -20.3954  -10.4527 C   0  0  0  0  0  0  0  0  0  0  0  0
   26.8588  -20.8003  -10.0349 C   0  0  0  0  0  0  0  0  0  0  0  0
   27.8506  -21.4678  -10.7116 C   0  0  0  0  0  0  0  0  0  0  0  0
   28.9342  -21.6184   -9.8977 N   0  0  0  0  0  0  0  0  0  0  0  0
   28.6340  -21.0546   -8.7222 C   0  0  0  0  0  0  0  0  0  0  0  0
   29.3514  -20.9090   -7.5325 C   0  0  0  0  0  0  0  0  0  0  0  0
   28.8297  -20.2746   -6.4249 C   0  0  0  0  0  0  0  0  0  0  0  0
   27.5509  -19.7614   -6.4855 C   0  0  0  0  0  0  0  0  0  0  0  0
   26.8381  -19.9006   -7.6528 C   0  0  0  0  0  0  0  0  0  0  0  0
   27.3745  -20.5474   -8.7774 C   0  0  0  0  0  0  0  0  0  0  0  0
   23.5279  -20.7462  -11.8826 C   0  0  0  0  0  0  0  0  0  0  0  0
   23.0540  -19.6356  -12.2074 O   0  0  0  0  0  0  0  0  0  0  0  0
   22.6373  -21.8198  -11.6538 N   0  0  0  0  0  0  0  0  0  0  0  0
   21.2019  -21.7174  -11.6876 C   0  0  0  0  0  0  0  0  0  0  0  0
   20.6503  -21.6305  -13.0413 C   0  0  0  0  0  0  0  0  0  0  0  0
   19.8371  -22.6238  -13.5284 O   0  0  0  0  0  0  0  0  0  0  0  0
   20.9210  -20.6489  -13.7564 O   0  0  0  0  0  0  0  0  0  0  0  0
  2  1  1  0
  3  2  2  0
  4  2  1  0
  5  4  1  0
  5  7  1  0
  5  6  1  6
  7  8  2  0
  9  7  1  0
  9 10  1  0
 10 11  1  1
 12 11  1  0
 12 20  1  0
 13 14  1  0
 13 12  2  0
 14 15  1  0
 15 16  1  0
 15 20  2  0
 16 17  2  0
 17 18  1  0
 19 18  2  0
 20 19  1  0
 21 10  1  0
 21 22  2  0
 23 21  1  0
 24 23  1  0
 25 24  1  0
 26 25  1  0
 27 25  2  0
M  END
$$$$
