NWG.pdb
     RDKit          3D

 27 28  0  0  1  0  0  0  0  0999 V2000
   19.9928  -30.0548  -12.6724 N   0  0  0  0  0  0  0  0  0  0  0  0
   19.6222  -30.8100  -11.5345 C   0  0  0  0  0  0  0  0  0  0  0  0
   18.5701  -30.5530  -10.9125 O   0  0  0  0  0  0  0  0  0  0  0  0
   20.4896  -31.9123  -11.0813 C   0  0  0  0  0  0  0  0  0  0  0  0
   21.7278  -31.9643  -11.9620 C   0  0  2  0  0  0  0  0  0  0  0  0
   21.3390  -32.7934  -13.1105 N   0  0  0  0  0  0  0  0  0  0  0  0
   22.7556  -32.7032  -11.2037 C   0  0  0  0  0  0  0  0  0  0  0  0
   22.5740  -33.9001  -10.8399 O   0  0  0  0  0  0  0  0  0  0  0  0
   24.0093  -32.0756  -10.8513 N   0  0  0  0  0  0  0  0  0  0  0  0
   25.0333  -32.8162  -10.1865 C   0  0  1  0  0  0  0  0  0  0  0  0
   26.2887  -33.0405  -10.9291 C   0  0  0  0  0  0  0  0  0  0  0  0
   26.2678  -33.8950  -12.1016 C   0  0  0  0  0  0  0  0  0  0  0  0
   25.6897  -33.7166  -13.3351 C   0  0  0  0  0  0  0  0  0  0  0  0
   25.9461  -34.8025  -14.1187 N   0  0  0  0  0  0  0  0  0  0  0  0
   26.6762  -35.6571  -13.3929 C   0  0  0  0  0  0  0  0  0  0  0  0
   27.2208  -36.9120  -13.6751 C   0  0  0  0  0  0  0  0  0  0  0  0
   27.9576  -37.6250  -12.7530 C   0  0  0  0  0  0  0  0  0  0  0  0
   28.1696  -37.0854  -11.5014 C   0  0  0  0  0  0  0  0  0  0  0  0
   27.6369  -35.8507  -11.2157 C   0  0  0  0  0  0  0  0  0  0  0  0
   26.8876  -35.1293  -12.1586 C   0  0  0  0  0  0  0  0  0  0  0  0
   25.2565  -32.3299   -8.7834 C   0  0  0  0  0  0  0  0  0  0  0  0
   25.1622  -31.1007   -8.5748 O   0  0  0  0  0  0  0  0  0  0  0  0
   25.5647  -33.1780   -7.6954 N   0  0  0  0  0  0  0  0  0  0  0  0
   25.8803  -32.7260   -6.3656 C   0  0  0  0  0  0  0  0  0  0  0  0
   26.2627  -33.8054   -5.4530 C   0  0  0  0  0  0  0  0  0  0  0  0
   26.1712  -35.1176   -5.8472 O   0  0  0  0  0  0  0  0  0  0  0  0
   26.6734  -33.5318   -4.3108 O   0  0  0  0  0  0  0  0  0  0  0  0
  2  1  1  0
  3  2  2  0
  4  2  1  0
  5  4  1  0
  5  7  1  0
  5  6  1  6
  7  8  2  0
  9  7  1  0
  9 10  1  0
 10 11  1  6
 12 11  1  0
 12 20  1  0
 13 14  1  0
 13 12  2  0
 14 15  1  0
 15 16  1  0
 15 20  2  0
 16 17  2  0
 17 18  1  0
 19 18  2  0
 20 19  1  0
 21 10  1  0
 21 22  2  0
 23 21  1  0
 24 23  1  0
 25 24  1  0
 26 25  1  0
 27 25  2  0
M  END
$$$$
