NWG.pdb
     RDKit          3D

 27 28  0  0  1  0  0  0  0  0999 V2000
   27.3084  -19.5214  -16.9517 N   0  0  0  0  0  0  0  0  0  0  0  0
   27.3249  -19.1020  -15.6003 C   0  0  0  0  0  0  0  0  0  0  0  0
   27.9725  -18.0921  -15.2529 O   0  0  0  0  0  0  0  0  0  0  0  0
   26.5675  -19.8676  -14.5938 C   0  0  0  0  0  0  0  0  0  0  0  0
   27.4839  -20.1951  -13.4258 C   0  0  2  0  0  0  0  0  0  0  0  0
   28.3672  -21.2569  -13.9257 N   0  0  0  0  0  0  0  0  0  0  0  0
   26.6330  -20.7797  -12.3714 C   0  0  0  0  0  0  0  0  0  0  0  0
   26.0975  -21.9162  -12.5104 O   0  0  0  0  0  0  0  0  0  0  0  0
   26.3844  -20.0647  -11.1398 N   0  0  0  0  0  0  0  0  0  0  0  0
   25.5747  -20.6401  -10.1140 C   0  0  1  0  0  0  0  0  0  0  0  0
   25.9646  -20.3642   -8.7177 C   0  0  0  0  0  0  0  0  0  0  0  0
   27.2939  -20.7389   -8.2727 C   0  0  0  0  0  0  0  0  0  0  0  0
   28.2770  -21.4720   -8.8921 C   0  0  0  0  0  0  0  0  0  0  0  0
   29.3648  -21.5559   -8.0744 N   0  0  0  0  0  0  0  0  0  0  0  0
   29.0760  -20.8859   -6.9529 C   0  0  0  0  0  0  0  0  0  0  0  0
   29.8020  -20.6382   -5.7856 C   0  0  0  0  0  0  0  0  0  0  0  0
   29.2917  -19.9026   -4.7369 C   0  0  0  0  0  0  0  0  0  0  0  0
   28.0158  -19.3880   -4.8362 C   0  0  0  0  0  0  0  0  0  0  0  0
   27.2945  -19.6273   -5.9818 C   0  0  0  0  0  0  0  0  0  0  0  0
   27.8194  -20.3769   -7.0464 C   0  0  0  0  0  0  0  0  0  0  0  0
   24.1103  -20.4291  -10.3705 C   0  0  0  0  0  0  0  0  0  0  0  0
   23.7358  -19.2749  -10.6722 O   0  0  0  0  0  0  0  0  0  0  0  0
   23.1407  -21.4545  -10.2900 N   0  0  0  0  0  0  0  0  0  0  0  0
   21.7202  -21.2524  -10.4060 C   0  0  0  0  0  0  0  0  0  0  0  0
   21.2514  -21.1544  -11.7898 C   0  0  0  0  0  0  0  0  0  0  0  0
   19.9529  -20.8012  -12.0632 O   0  0  0  0  0  0  0  0  0  0  0  0
   22.0356  -21.3934  -12.7258 O   0  0  0  0  0  0  0  0  0  0  0  0
  2  1  1  0
  3  2  2  0
  4  2  1  0
  5  4  1  0
  5  7  1  0
  5  6  1  6
  7  8  2  0
  9  7  1  0
  9 10  1  0
 10 11  1  1
 12 11  1  0
 12 20  1  0
 13 14  1  0
 13 12  2  0
 14 15  1  0
 15 16  1  0
 15 20  2  0
 16 17  2  0
 17 18  1  0
 19 18  2  0
 20 19  1  0
 21 10  1  0
 21 22  2  0
 23 21  1  0
 24 23  1  0
 25 24  1  0
 26 25  1  0
 27 25  2  0
M  END
$$$$
