NWG.pdb
     RDKit          3D

 27 28  0  0  1  0  0  0  0  0999 V2000
   28.1471  -21.2618  -16.7266 N   0  0  0  0  0  0  0  0  0  0  0  0
   26.8576  -20.7022  -16.5638 C   0  0  0  0  0  0  0  0  0  0  0  0
   26.4020  -19.8939  -17.3999 O   0  0  0  0  0  0  0  0  0  0  0  0
   26.0452  -21.0802  -15.3933 C   0  0  0  0  0  0  0  0  0  0  0  0
   26.8342  -22.0563  -14.5354 C   0  0  2  0  0  0  0  0  0  0  0  0
   26.5274  -23.3806  -15.0917 N   0  0  0  0  0  0  0  0  0  0  0  0
   26.2532  -21.9940  -13.1804 C   0  0  0  0  0  0  0  0  0  0  0  0
   25.1236  -22.4998  -12.9231 O   0  0  0  0  0  0  0  0  0  0  0  0
   26.9632  -21.3477  -12.0997 N   0  0  0  0  0  0  0  0  0  0  0  0
   26.3492  -21.1817  -10.8211 C   0  0  1  0  0  0  0  0  0  0  0  0
   27.2321  -20.8218   -9.6947 C   0  0  0  0  0  0  0  0  0  0  0  0
   26.6380  -20.5206   -8.4055 C   0  0  0  0  0  0  0  0  0  0  0  0
   25.3244  -20.4934   -8.0041 C   0  0  0  0  0  0  0  0  0  0  0  0
   25.2592  -20.1570   -6.6844 N   0  0  0  0  0  0  0  0  0  0  0  0
   26.5130  -19.9735   -6.2551 C   0  0  0  0  0  0  0  0  0  0  0  0
   27.0453  -19.6246   -5.0117 C   0  0  0  0  0  0  0  0  0  0  0  0
   28.4009  -19.4930   -4.7959 C   0  0  0  0  0  0  0  0  0  0  0  0
   29.2717  -19.7124   -5.8429 C   0  0  0  0  0  0  0  0  0  0  0  0
   28.7558  -20.0562   -7.0699 C   0  0  0  0  0  0  0  0  0  0  0  0
   27.3746  -20.1888   -7.2837 C   0  0  0  0  0  0  0  0  0  0  0  0
   25.1142  -20.3310  -10.8980 C   0  0  0  0  0  0  0  0  0  0  0  0
   25.1911  -19.2544  -11.5290 O   0  0  0  0  0  0  0  0  0  0  0  0
   23.8805  -20.6777  -10.3013 N   0  0  0  0  0  0  0  0  0  0  0  0
   22.7365  -21.1824  -11.0144 C   0  0  0  0  0  0  0  0  0  0  0  0
   22.1534  -20.2174  -11.9487 C   0  0  0  0  0  0  0  0  0  0  0  0
   21.3786  -19.1814  -11.4885 O   0  0  0  0  0  0  0  0  0  0  0  0
   22.3610  -20.3372  -13.1696 O   0  0  0  0  0  0  0  0  0  0  0  0
  2  1  1  0
  3  2  2  0
  4  2  1  0
  5  4  1  0
  5  7  1  0
  5  6  1  6
  7  8  2  0
  9  7  1  0
  9 10  1  0
 10 11  1  1
 12 11  1  0
 12 20  1  0
 13 14  1  0
 13 12  2  0
 14 15  1  0
 15 16  1  0
 15 20  2  0
 16 17  2  0
 17 18  1  0
 19 18  2  0
 20 19  1  0
 21 10  1  0
 21 22  2  0
 23 21  1  0
 24 23  1  0
 25 24  1  0
 26 25  1  0
 27 25  2  0
M  END
$$$$
