NWG.pdb
     RDKit          3D

 27 28  0  0  1  0  0  0  0  0999 V2000
   28.4848  -21.2183  -17.9371 N   0  0  0  0  0  0  0  0  0  0  0  0
   29.0984  -22.0685  -16.9868 C   0  0  0  0  0  0  0  0  0  0  0  0
   30.1242  -22.7181  -17.2795 O   0  0  0  0  0  0  0  0  0  0  0  0
   28.5181  -22.1859  -15.6368 C   0  0  0  0  0  0  0  0  0  0  0  0
   27.2526  -21.3464  -15.5654 C   0  0  2  0  0  0  0  0  0  0  0  0
   27.7247  -19.9672  -15.3847 N   0  0  0  0  0  0  0  0  0  0  0  0
   26.5498  -21.7447  -14.3305 C   0  0  0  0  0  0  0  0  0  0  0  0
   26.3405  -22.9601  -14.0534 O   0  0  0  0  0  0  0  0  0  0  0  0
   26.0761  -20.7498  -13.3948 N   0  0  0  0  0  0  0  0  0  0  0  0
   25.2751  -21.1265  -12.2743 C   0  0  1  0  0  0  0  0  0  0  0  0
   25.6788  -20.6033  -10.9548 C   0  0  0  0  0  0  0  0  0  0  0  0
   26.9801  -20.9650  -10.4243 C   0  0  0  0  0  0  0  0  0  0  0  0
   28.0424  -21.6109  -11.0087 C   0  0  0  0  0  0  0  0  0  0  0  0
   29.0592  -21.7213  -10.1071 N   0  0  0  0  0  0  0  0  0  0  0  0
   28.6478  -21.1538   -8.9675 C   0  0  0  0  0  0  0  0  0  0  0  0
   29.2606  -20.9747   -7.7251 C   0  0  0  0  0  0  0  0  0  0  0  0
   28.6321  -20.3438   -6.6723 C   0  0  0  0  0  0  0  0  0  0  0  0
   27.3488  -19.8684   -6.8441 C   0  0  0  0  0  0  0  0  0  0  0  0
   26.7385  -20.0407   -8.0639 C   0  0  0  0  0  0  0  0  0  0  0  0
   27.3833  -20.6838   -9.1323 C   0  0  0  0  0  0  0  0  0  0  0  0
   23.8087  -20.9599  -12.5516 C   0  0  0  0  0  0  0  0  0  0  0  0
   23.4285  -19.8641  -13.0185 O   0  0  0  0  0  0  0  0  0  0  0  0
   22.8432  -21.9651  -12.3156 N   0  0  0  0  0  0  0  0  0  0  0  0
   21.4552  -21.8735  -12.6858 C   0  0  0  0  0  0  0  0  0  0  0  0
   20.6640  -21.0223  -11.7950 C   0  0  0  0  0  0  0  0  0  0  0  0
   20.7006  -21.2109  -10.4354 O   0  0  0  0  0  0  0  0  0  0  0  0
   19.9522  -20.1209  -12.2736 O   0  0  0  0  0  0  0  0  0  0  0  0
  2  1  1  0
  3  2  2  0
  4  2  1  0
  5  4  1  0
  5  7  1  0
  5  6  1  1
  7  8  2  0
  9  7  1  0
  9 10  1  0
 10 11  1  1
 12 11  1  0
 12 20  1  0
 13 14  1  0
 13 12  2  0
 14 15  1  0
 15 16  1  0
 15 20  2  0
 16 17  2  0
 17 18  1  0
 19 18  2  0
 20 19  1  0
 21 10  1  0
 21 22  2  0
 23 21  1  0
 24 23  1  0
 25 24  1  0
 26 25  1  0
 27 25  2  0
M  END
$$$$
