NWG.pdb
     RDKit          3D

 27 28  0  0  1  0  0  0  0  0999 V2000
   28.1629  -16.9951  -14.7129 N   0  0  0  0  0  0  0  0  0  0  0  0
   27.5309  -18.0793  -15.3667 C   0  0  0  0  0  0  0  0  0  0  0  0
   27.6535  -18.2411  -16.5991 O   0  0  0  0  0  0  0  0  0  0  0  0
   26.7200  -19.0271  -14.5812 C   0  0  0  0  0  0  0  0  0  0  0  0
   27.6103  -19.7126  -13.5571 C   0  0  2  0  0  0  0  0  0  0  0  0
   28.3977  -20.6819  -14.3305 N   0  0  0  0  0  0  0  0  0  0  0  0
   26.7173  -20.4734  -12.6620 C   0  0  0  0  0  0  0  0  0  0  0  0
   26.2182  -21.5804  -13.0133 O   0  0  0  0  0  0  0  0  0  0  0  0
   26.3838  -19.9716  -11.3480 N   0  0  0  0  0  0  0  0  0  0  0  0
   25.5842  -20.7460  -10.4536 C   0  0  1  0  0  0  0  0  0  0  0  0
   25.9103  -20.6606   -9.0169 C   0  0  0  0  0  0  0  0  0  0  0  0
   27.2894  -20.8296   -8.5987 C   0  0  0  0  0  0  0  0  0  0  0  0
   28.3634  -21.3920   -9.2449 C   0  0  0  0  0  0  0  0  0  0  0  0
   29.4654  -21.3165   -8.4456 N   0  0  0  0  0  0  0  0  0  0  0  0
   29.0959  -20.7150   -7.3092 C   0  0  0  0  0  0  0  0  0  0  0  0
   29.7952  -20.3731   -6.1494 C   0  0  0  0  0  0  0  0  0  0  0  0
   29.1954  -19.7403   -5.0811 C   0  0  0  0  0  0  0  0  0  0  0  0
   27.8535  -19.4295   -5.1523 C   0  0  0  0  0  0  0  0  0  0  0  0
   27.1579  -19.7626   -6.2903 C   0  0  0  0  0  0  0  0  0  0  0  0
   27.7739  -20.4068   -7.3749 C   0  0  0  0  0  0  0  0  0  0  0  0
   24.1174  -20.5921  -10.7359 C   0  0  0  0  0  0  0  0  0  0  0  0
   23.5625  -19.5375  -10.3572 O   0  0  0  0  0  0  0  0  0  0  0  0
   23.3366  -21.5653  -11.4002 N   0  0  0  0  0  0  0  0  0  0  0  0
   21.9251  -21.4499  -11.6575 C   0  0  0  0  0  0  0  0  0  0  0  0
   21.6099  -20.9925  -13.0124 C   0  0  0  0  0  0  0  0  0  0  0  0
   22.1069  -21.6569  -14.1064 O   0  0  0  0  0  0  0  0  0  0  0  0
   20.8861  -19.9934  -13.1740 O   0  0  0  0  0  0  0  0  0  0  0  0
  2  1  1  0
  3  2  2  0
  4  2  1  0
  5  4  1  0
  5  7  1  0
  5  6  1  6
  7  8  2  0
  9  7  1  0
  9 10  1  0
 10 11  1  1
 12 11  1  0
 12 20  1  0
 13 14  1  0
 13 12  2  0
 14 15  1  0
 15 16  1  0
 15 20  2  0
 16 17  2  0
 17 18  1  0
 19 18  2  0
 20 19  1  0
 21 10  1  0
 21 22  2  0
 23 21  1  0
 24 23  1  0
 25 24  1  0
 26 25  1  0
 27 25  2  0
M  END
$$$$
