YVR.pdb
     RDKit          3D

 31 31  0  0  1  0  0  0  0  0999 V2000
   10.2523  -14.1433   30.8493 O   0  0  0  0  0  0  0  0  0  0  0  0
   10.1312  -14.4534   29.4983 C   0  0  0  0  0  0  0  0  0  0  0  0
    9.5649  -13.5263   28.6619 C   0  0  0  0  0  0  0  0  0  0  0  0
    9.4229  -13.7898   27.3082 C   0  0  0  0  0  0  0  0  0  0  0  0
    9.8417  -14.9832   26.7556 C   0  0  0  0  0  0  0  0  0  0  0  0
    9.6515  -15.1764   25.3158 C   0  0  0  0  0  0  0  0  0  0  0  0
    8.2364  -15.5433   24.9405 C   0  0  2  0  0  0  0  0  0  0  0  0
    7.7323  -16.6381   25.7048 N   0  0  0  0  0  0  0  0  0  0  0  0
    8.1173  -15.6762   23.4864 C   0  0  0  0  0  0  0  0  0  0  0  0
    8.1407  -16.8439   22.9721 O   0  0  0  0  0  0  0  0  0  0  0  0
   10.4109  -15.9145   27.5982 C   0  0  0  0  0  0  0  0  0  0  0  0
   10.5453  -15.6366   28.9454 C   0  0  0  0  0  0  0  0  0  0  0  0
    6.4929  -12.8496   20.9721 C   0  0  0  0  0  0  0  0  0  0  0  0
    7.6736  -13.5672   20.3722 C   0  0  2  0  0  0  0  0  0  0  0  0
    7.5480  -13.8179   18.9050 C   0  0  0  0  0  0  0  0  0  0  0  0
    8.0116  -14.8317   21.1609 C   0  0  2  0  0  0  0  0  0  0  0  0
    7.9753  -14.5979   22.5751 N   0  0  0  0  0  0  0  0  0  0  0  0
    9.3260  -15.2736   20.6653 C   0  0  0  0  0  0  0  0  0  0  0  0
   10.3224  -15.0118   21.3939 O   0  0  0  0  0  0  0  0  0  0  0  0
   12.7397  -21.9910   19.3937 N   0  0  0  0  0  0  0  0  0  0  0  0
   13.0082  -21.7889   20.7723 C   0  0  0  0  0  0  0  0  0  0  0  0
   14.0097  -22.3723   21.3850 N   0  0  0  0  0  0  0  0  0  0  0  0
   12.1886  -20.9242   21.5861 N   0  0  0  0  0  0  0  0  0  0  0  0
   10.9913  -20.3216   21.0701 C   0  0  0  0  0  0  0  0  0  0  0  0
   11.2853  -19.2796   19.9891 C   0  0  0  0  0  0  0  0  0  0  0  0
   10.3472  -18.1280   20.2362 C   0  0  0  0  0  0  0  0  0  0  0  0
   10.5368  -17.0111   19.2679 C   0  0  2  0  0  0  0  0  0  0  0  0
    9.5483  -15.9548   19.4618 N   0  0  0  0  0  0  0  0  0  0  0  0
   10.5759  -17.3933   17.8527 C   0  0  0  0  0  0  0  0  0  0  0  0
   11.7074  -17.6907   17.1194 O   0  0  0  0  0  0  0  0  0  0  0  0
    9.4801  -17.4648   17.2145 O   0  0  0  0  0  0  0  0  0  0  0  0
  2 12  2  0
  2  1  1  0
  3  2  1  0
  4  5  1  0
  4  3  2  0
  5 11  2  0
  6  5  1  0
  7  6  1  0
  7  8  1  1
  9 10  2  0
  9  7  1  0
 11 12  1  0
 14 13  1  1
 14 16  1  0
 15 14  1  0
 16 18  1  0
 16 17  1  1
 17  9  1  0
 18 19  2  0
 21 20  1  0
 21 23  1  0
 22 21  2  0
 23 24  1  0
 24 25  1  0
 26 25  1  0
 27 26  1  1
 28 27  1  0
 28 18  1  0
 29 27  1  0
 30 29  1  0
 31 29  2  0
M  END
$$$$
