YVR.pdb
     RDKit          3D

 31 31  0  0  1  0  0  0  0  0999 V2000
   -0.0462  -21.4007   21.1716 O   0  0  0  0  0  0  0  0  0  0  0  0
    1.0699  -20.5753   21.2681 C   0  0  0  0  0  0  0  0  0  0  0  0
    2.0215  -20.8686   22.2106 C   0  0  0  0  0  0  0  0  0  0  0  0
    3.1508  -20.0756   22.3444 C   0  0  0  0  0  0  0  0  0  0  0  0
    3.3589  -18.9715   21.5426 C   0  0  0  0  0  0  0  0  0  0  0  0
    4.5801  -18.1904   21.7546 C   0  0  0  0  0  0  0  0  0  0  0  0
    5.4336  -18.0618   20.5164 C   0  0  2  0  0  0  0  0  0  0  0  0
    5.7624  -19.3267   19.9428 N   0  0  0  0  0  0  0  0  0  0  0  0
    6.5654  -17.1679   20.7731 C   0  0  0  0  0  0  0  0  0  0  0  0
    7.7001  -17.6787   21.0563 O   0  0  0  0  0  0  0  0  0  0  0  0
    2.4008  -18.6781   20.5954 C   0  0  0  0  0  0  0  0  0  0  0  0
    1.2806  -19.4786   20.4745 C   0  0  0  0  0  0  0  0  0  0  0  0
    6.9025  -13.2168   19.4165 C   0  0  0  0  0  0  0  0  0  0  0  0
    7.4356  -13.4806   20.8004 C   0  0  2  0  0  0  0  0  0  0  0  0
    8.6144  -12.6390   21.1657 C   0  0  0  0  0  0  0  0  0  0  0  0
    7.6829  -14.9722   21.0231 C   0  0  2  0  0  0  0  0  0  0  0  0
    6.5136  -15.7504   20.7351 N   0  0  0  0  0  0  0  0  0  0  0  0
    8.1525  -15.0973   22.4131 C   0  0  0  0  0  0  0  0  0  0  0  0
    7.2688  -15.0689   23.3133 O   0  0  0  0  0  0  0  0  0  0  0  0
    7.8410  -21.8701   26.0841 N   0  0  0  0  0  0  0  0  0  0  0  0
    7.4719  -20.6749   26.7541 C   0  0  0  0  0  0  0  0  0  0  0  0
    6.5219  -20.6414   27.6570 N   0  0  0  0  0  0  0  0  0  0  0  0
    8.1245  -19.4180   26.4784 N   0  0  0  0  0  0  0  0  0  0  0  0
    9.1435  -19.3067   25.4723 C   0  0  0  0  0  0  0  0  0  0  0  0
    9.8022  -17.9258   25.4638 C   0  0  0  0  0  0  0  0  0  0  0  0
    9.3418  -17.2381   24.2059 C   0  0  0  0  0  0  0  0  0  0  0  0
    9.9351  -15.8810   24.0397 C   0  0  2  0  0  0  0  0  0  0  0  0
    9.4894  -15.2446   22.8041 N   0  0  0  0  0  0  0  0  0  0  0  0
   11.3969  -15.8084   24.1299 C   0  0  0  0  0  0  0  0  0  0  0  0
   12.2627  -15.4954   23.1009 O   0  0  0  0  0  0  0  0  0  0  0  0
   11.9473  -16.0529   25.2481 O   0  0  0  0  0  0  0  0  0  0  0  0
  2 12  2  0
  2  1  1  0
  3  2  1  0
  4  5  1  0
  4  3  2  0
  5 11  2  0
  6  5  1  0
  7  6  1  0
  7  8  1  1
  9 10  2  0
  9  7  1  0
 11 12  1  0
 14 13  1  6
 14 16  1  0
 15 14  1  0
 16 18  1  0
 16 17  1  1
 17  9  1  0
 18 19  2  0
 21 20  1  0
 21 23  1  0
 22 21  2  0
 23 24  1  0
 24 25  1  0
 26 25  1  0
 27 26  1  6
 28 27  1  0
 28 18  1  0
 29 27  1  0
 30 29  1  0
 31 29  2  0
M  END
$$$$
