YVR.pdb
     RDKit          3D

 31 31  0  0  1  0  0  0  0  0999 V2000
    3.6071  -24.5000   26.1673 O   0  0  0  0  0  0  0  0  0  0  0  0
    4.4372  -23.4476   25.7937 C   0  0  0  0  0  0  0  0  0  0  0  0
    4.4066  -22.2947   26.5350 C   0  0  0  0  0  0  0  0  0  0  0  0
    5.2155  -21.2191   26.2017 C   0  0  0  0  0  0  0  0  0  0  0  0
    6.0739  -21.2666   25.1220 C   0  0  0  0  0  0  0  0  0  0  0  0
    6.8912  -20.0831   24.8429 C   0  0  0  0  0  0  0  0  0  0  0  0
    6.1118  -18.9460   24.2284 C   0  0  2  0  0  0  0  0  0  0  0  0
    5.3416  -19.3560   23.0990 N   0  0  0  0  0  0  0  0  0  0  0  0
    6.9870  -17.7909   24.0143 C   0  0  0  0  0  0  0  0  0  0  0  0
    7.7615  -17.7863   23.0001 O   0  0  0  0  0  0  0  0  0  0  0  0
    6.1033  -22.4269   24.3776 C   0  0  0  0  0  0  0  0  0  0  0  0
    5.2907  -23.4903   24.7229 C   0  0  0  0  0  0  0  0  0  0  0  0
    7.7862  -14.5684   26.8898 C   0  0  0  0  0  0  0  0  0  0  0  0
    7.7513  -14.3629   25.3979 C   0  0  2  0  0  0  0  0  0  0  0  0
    6.5021  -13.7080   24.9062 C   0  0  0  0  0  0  0  0  0  0  0  0
    8.0718  -15.6584   24.6534 C   0  0  2  0  0  0  0  0  0  0  0  0
    7.0539  -16.6483   24.8532 N   0  0  0  0  0  0  0  0  0  0  0  0
    9.4039  -16.0724   25.1249 C   0  0  0  0  0  0  0  0  0  0  0  0
    9.4417  -16.7542   26.1860 O   0  0  0  0  0  0  0  0  0  0  0  0
   13.5967  -16.5780   17.9892 N   0  0  0  0  0  0  0  0  0  0  0  0
   13.8447  -15.3459   18.6479 C   0  0  0  0  0  0  0  0  0  0  0  0
   14.3078  -14.2939   18.0174 N   0  0  0  0  0  0  0  0  0  0  0  0
   13.6009  -15.1780   20.0601 N   0  0  0  0  0  0  0  0  0  0  0  0
   13.0381  -16.2336   20.8549 C   0  0  0  0  0  0  0  0  0  0  0  0
   12.7879  -15.8011   22.3010 C   0  0  0  0  0  0  0  0  0  0  0  0
   12.1248  -16.9650   22.9887 C   0  0  0  0  0  0  0  0  0  0  0  0
   11.7623  -16.6690   24.4037 C   0  0  2  0  0  0  0  0  0  0  0  0
   10.6155  -15.7701   24.4905 N   0  0  0  0  0  0  0  0  0  0  0  0
   12.8487  -16.1618   25.2480 C   0  0  0  0  0  0  0  0  0  0  0  0
   14.0081  -16.8356   25.5768 O   0  0  0  0  0  0  0  0  0  0  0  0
   12.7401  -14.9953   25.7385 O   0  0  0  0  0  0  0  0  0  0  0  0
  2 12  2  0
  2  1  1  0
  3  2  1  0
  4  5  1  0
  4  3  2  0
  5 11  2  0
  6  5  1  0
  7  6  1  0
  7  8  1  6
  9 10  2  0
  9  7  1  0
 11 12  1  0
 14 13  1  1
 14 16  1  0
 15 14  1  0
 16 18  1  0
 16 17  1  1
 17  9  1  0
 18 19  2  0
 21 20  1  0
 21 23  1  0
 22 21  2  0
 23 24  1  0
 24 25  1  0
 26 25  1  0
 27 26  1  6
 28 27  1  0
 28 18  1  0
 29 27  1  0
 30 29  1  0
 31 29  2  0
M  END
$$$$
