YVR.pdb
     RDKit          3D

 31 31  0  0  1  0  0  0  0  0999 V2000
    7.2339  -14.0621   15.4003 O   0  0  0  0  0  0  0  0  0  0  0  0
    7.2219  -14.1385   16.7896 C   0  0  0  0  0  0  0  0  0  0  0  0
    6.9883  -15.3555   17.3763 C   0  0  0  0  0  0  0  0  0  0  0  0
    6.9668  -15.4814   18.7568 C   0  0  0  0  0  0  0  0  0  0  0  0
    7.1774  -14.3980   19.5856 C   0  0  0  0  0  0  0  0  0  0  0  0
    7.1361  -14.6232   21.0327 C   0  0  0  0  0  0  0  0  0  0  0  0
    8.4661  -14.4071   21.7127 C   0  0  2  0  0  0  0  0  0  0  0  0
    9.5269  -15.1256   21.0839 N   0  0  0  0  0  0  0  0  0  0  0  0
    8.3334  -14.6071   23.1578 C   0  0  0  0  0  0  0  0  0  0  0  0
    8.9834  -15.5568   23.7092 O   0  0  0  0  0  0  0  0  0  0  0  0
    7.4121  -13.1750   18.9938 C   0  0  0  0  0  0  0  0  0  0  0  0
    7.4304  -13.0660   17.6161 C   0  0  0  0  0  0  0  0  0  0  0  0
    6.6633  -11.5718   25.5363 C   0  0  0  0  0  0  0  0  0  0  0  0
    6.7637  -12.9327   26.1744 C   0  0  2  0  0  0  0  0  0  0  0  0
    7.0034  -12.8940   27.6483 C   0  0  0  0  0  0  0  0  0  0  0  0
    7.7669  -13.8175   25.4356 C   0  0  2  0  0  0  0  0  0  0  0  0
    7.5273  -13.8215   24.0220 N   0  0  0  0  0  0  0  0  0  0  0  0
    7.6637  -15.1473   26.0595 C   0  0  0  0  0  0  0  0  0  0  0  0
    6.5023  -15.6238   26.1866 O   0  0  0  0  0  0  0  0  0  0  0  0
   13.4181  -19.8025   24.4221 N   0  0  0  0  0  0  0  0  0  0  0  0
   12.7390  -19.1321   23.3719 C   0  0  0  0  0  0  0  0  0  0  0  0
   13.3638  -18.6636   22.3188 N   0  0  0  0  0  0  0  0  0  0  0  0
   11.3115  -18.9246   23.4023 N   0  0  0  0  0  0  0  0  0  0  0  0
   10.5362  -19.2137   24.5763 C   0  0  0  0  0  0  0  0  0  0  0  0
   10.1711  -17.9493   25.3566 C   0  0  0  0  0  0  0  0  0  0  0  0
    9.0393  -18.3242   26.2764 C   0  0  0  0  0  0  0  0  0  0  0  0
    8.6339  -17.2082   27.1772 C   0  0  2  0  0  0  0  0  0  0  0  0
    8.7451  -15.9122   26.5149 N   0  0  0  0  0  0  0  0  0  0  0  0
    9.3147  -17.1565   28.4750 C   0  0  0  0  0  0  0  0  0  0  0  0
   10.0578  -16.1007   28.9643 O   0  0  0  0  0  0  0  0  0  0  0  0
    9.2314  -18.1646   29.2429 O   0  0  0  0  0  0  0  0  0  0  0  0
  2 12  2  0
  2  1  1  0
  3  2  1  0
  4  5  1  0
  4  3  2  0
  5 11  2  0
  6  5  1  0
  7  6  1  0
  7  8  1  6
  9 10  2  0
  9  7  1  0
 11 12  1  0
 14 13  1  6
 14 16  1  0
 15 14  1  0
 16 18  1  0
 16 17  1  6
 17  9  1  0
 18 19  2  0
 21 20  1  0
 21 23  1  0
 22 21  2  0
 23 24  1  0
 24 25  1  0
 26 25  1  0
 27 26  1  6
 28 27  1  0
 28 18  1  0
 29 27  1  0
 30 29  1  0
 31 29  2  0
M  END
$$$$
