YVR.pdb
     RDKit          3D

 31 31  0  0  1  0  0  0  0  0999 V2000
    7.3396  -13.6033   15.6155 O   0  0  0  0  0  0  0  0  0  0  0  0
    7.4502  -13.8595   16.9787 C   0  0  0  0  0  0  0  0  0  0  0  0
    6.4011  -14.4685   17.6176 C   0  0  0  0  0  0  0  0  0  0  0  0
    6.4649  -14.7443   18.9748 C   0  0  0  0  0  0  0  0  0  0  0  0
    7.5753  -14.4199   19.7277 C   0  0  0  0  0  0  0  0  0  0  0  0
    7.5555  -14.7477   21.1555 C   0  0  0  0  0  0  0  0  0  0  0  0
    8.7684  -14.2499   21.9032 C   0  0  2  0  0  0  0  0  0  0  0  0
    9.9871  -14.7908   21.3941 N   0  0  0  0  0  0  0  0  0  0  0  0
    8.5655  -14.3914   23.3471 C   0  0  0  0  0  0  0  0  0  0  0  0
    9.2711  -15.2409   23.9866 O   0  0  0  0  0  0  0  0  0  0  0  0
    8.6294  -13.8074   19.0835 C   0  0  0  0  0  0  0  0  0  0  0  0
    8.5503  -13.5393   17.7299 C   0  0  0  0  0  0  0  0  0  0  0  0
    6.5022  -11.5502   25.6443 C   0  0  0  0  0  0  0  0  0  0  0  0
    6.4666  -12.9643   26.1620 C   0  0  2  0  0  0  0  0  0  0  0  0
    6.4278  -13.0627   27.6520 C   0  0  0  0  0  0  0  0  0  0  0  0
    7.5801  -13.8082   25.5429 C   0  0  2  0  0  0  0  0  0  0  0  0
    7.6321  -13.6517   24.1186 N   0  0  0  0  0  0  0  0  0  0  0  0
    7.3247  -15.1911   25.9798 C   0  0  0  0  0  0  0  0  0  0  0  0
    6.3360  -15.7758   25.4575 O   0  0  0  0  0  0  0  0  0  0  0  0
   12.4704  -20.6416   24.0381 N   0  0  0  0  0  0  0  0  0  0  0  0
   12.2835  -19.3124   23.5779 C   0  0  0  0  0  0  0  0  0  0  0  0
   13.2527  -18.6138   23.0382 N   0  0  0  0  0  0  0  0  0  0  0  0
   11.0071  -18.6471   23.6786 N   0  0  0  0  0  0  0  0  0  0  0  0
    9.8029  -19.3742   23.9686 C   0  0  0  0  0  0  0  0  0  0  0  0
    9.3162  -19.1434   25.4006 C   0  0  0  0  0  0  0  0  0  0  0  0
    8.9152  -17.6947   25.4896 C   0  0  0  0  0  0  0  0  0  0  0  0
    8.4089  -17.3178   26.8397 C   0  0  2  0  0  0  0  0  0  0  0  0
    8.0886  -15.8960   26.9186 N   0  0  0  0  0  0  0  0  0  0  0  0
    9.2655  -17.6917   27.9696 C   0  0  0  0  0  0  0  0  0  0  0  0
    9.4223  -18.9615   28.4887 O   0  0  0  0  0  0  0  0  0  0  0  0
    9.9383  -16.7819   28.5463 O   0  0  0  0  0  0  0  0  0  0  0  0
  2 12  2  0
  2  1  1  0
  3  2  1  0
  4  5  1  0
  4  3  2  0
  5 11  2  0
  6  5  1  0
  7  6  1  0
  7  8  1  6
  9 10  2  0
  9  7  1  0
 11 12  1  0
 14 13  1  1
 14 16  1  0
 15 14  1  0
 16 18  1  0
 16 17  1  6
 17  9  1  0
 18 19  2  0
 21 20  1  0
 21 23  1  0
 22 21  2  0
 23 24  1  0
 24 25  1  0
 26 25  1  0
 27 26  1  6
 28 27  1  0
 28 18  1  0
 29 27  1  0
 30 29  1  0
 31 29  2  0
M  END
$$$$
