YVR.pdb
     RDKit          3D

 31 31  0  0  1  0  0  0  0  0999 V2000
    6.0767  -14.4636   15.8224 O   0  0  0  0  0  0  0  0  0  0  0  0
    6.4949  -14.6069   17.1418 C   0  0  0  0  0  0  0  0  0  0  0  0
    5.6616  -14.1788   18.1429 C   0  0  0  0  0  0  0  0  0  0  0  0
    6.0345  -14.3006   19.4726 C   0  0  0  0  0  0  0  0  0  0  0  0
    7.2464  -14.8518   19.8367 C   0  0  0  0  0  0  0  0  0  0  0  0
    7.5580  -14.9403   21.2655 C   0  0  0  0  0  0  0  0  0  0  0  0
    8.4676  -13.8383   21.7515 C   0  0  2  0  0  0  0  0  0  0  0  0
    9.6278  -13.6842   20.9346 N   0  0  0  0  0  0  0  0  0  0  0  0
    8.7174  -13.9853   23.1874 C   0  0  0  0  0  0  0  0  0  0  0  0
    9.7162  -14.6819   23.5694 O   0  0  0  0  0  0  0  0  0  0  0  0
    8.0832  -15.2817   18.8286 C   0  0  0  0  0  0  0  0  0  0  0  0
    7.6968  -15.1533   17.5078 C   0  0  0  0  0  0  0  0  0  0  0  0
    7.8491  -12.8424   27.9484 C   0  0  0  0  0  0  0  0  0  0  0  0
    7.3609  -12.8049   26.5239 C   0  0  2  0  0  0  0  0  0  0  0  0
    5.9402  -13.2362   26.3592 C   0  0  0  0  0  0  0  0  0  0  0  0
    8.3161  -13.5494   25.5919 C   0  0  2  0  0  0  0  0  0  0  0  0
    7.9300  -13.4098   24.2181 N   0  0  0  0  0  0  0  0  0  0  0  0
    8.3328  -14.9435   26.0657 C   0  0  0  0  0  0  0  0  0  0  0  0
    7.2459  -15.5798   25.9895 O   0  0  0  0  0  0  0  0  0  0  0  0
   10.4156  -19.0207   21.1197 N   0  0  0  0  0  0  0  0  0  0  0  0
   11.6404  -18.9804   21.8353 C   0  0  0  0  0  0  0  0  0  0  0  0
   12.6745  -19.7121   21.4978 N   0  0  0  0  0  0  0  0  0  0  0  0
   11.8199  -18.1267   22.9845 N   0  0  0  0  0  0  0  0  0  0  0  0
   11.5630  -18.5979   24.3167 C   0  0  0  0  0  0  0  0  0  0  0  0
   10.2811  -18.0049   24.9049 C   0  0  0  0  0  0  0  0  0  0  0  0
   10.5457  -17.7782   26.3698 C   0  0  0  0  0  0  0  0  0  0  0  0
    9.4672  -16.9950   27.0366 C   0  0  2  0  0  0  0  0  0  0  0  0
    9.4513  -15.6065   26.5867 N   0  0  0  0  0  0  0  0  0  0  0  0
    9.4618  -17.0362   28.5024 C   0  0  0  0  0  0  0  0  0  0  0  0
    9.0187  -18.0825   29.2869 O   0  0  0  0  0  0  0  0  0  0  0  0
    9.8995  -16.0275   29.1381 O   0  0  0  0  0  0  0  0  0  0  0  0
  2 12  2  0
  2  1  1  0
  3  2  1  0
  4  5  1  0
  4  3  2  0
  5 11  2  0
  6  5  1  0
  7  6  1  0
  7  8  1  6
  9 10  2  0
  9  7  1  0
 11 12  1  0
 14 13  1  1
 14 16  1  0
 15 14  1  0
 16 18  1  0
 16 17  1  6
 17  9  1  0
 18 19  2  0
 21 20  1  0
 21 23  1  0
 22 21  2  0
 23 24  1  0
 24 25  1  0
 26 25  1  0
 27 26  1  1
 28 27  1  0
 28 18  1  0
 29 27  1  0
 30 29  1  0
 31 29  2  0
M  END
$$$$
