YVR.pdb
     RDKit          3D

 31 31  0  0  1  0  0  0  0  0999 V2000
   10.7851  -15.3432   31.3749 O   0  0  0  0  0  0  0  0  0  0  0  0
   10.3714  -15.4810   30.0535 C   0  0  0  0  0  0  0  0  0  0  0  0
   10.5121  -16.7027   29.4474 C   0  0  0  0  0  0  0  0  0  0  0  0
   10.1142  -16.8887   28.1324 C   0  0  0  0  0  0  0  0  0  0  0  0
    9.5667  -15.8621   27.3900 C   0  0  0  0  0  0  0  0  0  0  0  0
    9.1752  -16.1485   26.0076 C   0  0  0  0  0  0  0  0  0  0  0  0
    7.7268  -15.8391   25.7169 C   0  0  2  0  0  0  0  0  0  0  0  0
    6.8329  -16.7600   26.3414 N   0  0  0  0  0  0  0  0  0  0  0  0
    7.5310  -15.6408   24.2787 C   0  0  0  0  0  0  0  0  0  0  0  0
    6.5826  -16.2647   23.6957 O   0  0  0  0  0  0  0  0  0  0  0  0
    9.4259  -14.6341   28.0011 C   0  0  0  0  0  0  0  0  0  0  0  0
    9.8275  -14.4648   29.3128 C   0  0  0  0  0  0  0  0  0  0  0  0
    6.8589  -12.4436   22.6341 C   0  0  0  0  0  0  0  0  0  0  0  0
    7.8441  -13.1285   21.7236 C   0  0  2  0  0  0  0  0  0  0  0  0
    7.5855  -12.8999   20.2703 C   0  0  0  0  0  0  0  0  0  0  0  0
    7.9833  -14.6097   22.0731 C   0  0  2  0  0  0  0  0  0  0  0  0
    8.3199  -14.7974   23.4541 N   0  0  0  0  0  0  0  0  0  0  0  0
    8.9853  -15.1494   21.1387 C   0  0  0  0  0  0  0  0  0  0  0  0
   10.1964  -14.9451   21.4280 O   0  0  0  0  0  0  0  0  0  0  0  0
   10.3177  -15.9363   14.1246 N   0  0  0  0  0  0  0  0  0  0  0  0
    8.9612  -15.5556   13.9560 C   0  0  0  0  0  0  0  0  0  0  0  0
    8.5762  -14.7296   13.0135 N   0  0  0  0  0  0  0  0  0  0  0  0
    7.9193  -16.0581   14.8185 N   0  0  0  0  0  0  0  0  0  0  0  0
    8.1996  -17.0077   15.8589 C   0  0  0  0  0  0  0  0  0  0  0  0
    8.7922  -16.3458   17.1045 C   0  0  0  0  0  0  0  0  0  0  0  0
    8.9779  -17.4382   18.1241 C   0  0  0  0  0  0  0  0  0  0  0  0
    9.5215  -16.9345   19.4172 C   0  0  2  0  0  0  0  0  0  0  0  0
    8.6971  -15.8639   19.9689 N   0  0  0  0  0  0  0  0  0  0  0  0
   10.9258  -16.5127   19.3978 C   0  0  0  0  0  0  0  0  0  0  0  0
   12.0214  -17.3338   19.2193 O   0  0  0  0  0  0  0  0  0  0  0  0
   11.1902  -15.2810   19.5593 O   0  0  0  0  0  0  0  0  0  0  0  0
  2 12  2  0
  2  1  1  0
  3  2  1  0
  4  5  1  0
  4  3  2  0
  5 11  2  0
  6  5  1  0
  7  6  1  0
  7  8  1  6
  9 10  2  0
  9  7  1  0
 11 12  1  0
 14 13  1  1
 14 16  1  0
 15 14  1  0
 16 18  1  0
 16 17  1  1
 17  9  1  0
 18 19  2  0
 21 20  1  0
 21 23  1  0
 22 21  2  0
 23 24  1  0
 24 25  1  0
 26 25  1  0
 27 26  1  6
 28 27  1  0
 28 18  1  0
 29 27  1  0
 30 29  1  0
 31 29  2  0
M  END
$$$$
