YVR.pdb
     RDKit          3D

 31 31  0  0  1  0  0  0  0  0999 V2000
    5.0135  -10.4945   28.7557 O   0  0  0  0  0  0  0  0  0  0  0  0
    5.7614  -11.3980   28.0069 C   0  0  0  0  0  0  0  0  0  0  0  0
    5.4698  -11.5439   26.6752 C   0  0  0  0  0  0  0  0  0  0  0  0
    6.1873  -12.4316   25.8883 C   0  0  0  0  0  0  0  0  0  0  0  0
    7.2124  -13.1951   26.4093 C   0  0  0  0  0  0  0  0  0  0  0  0
    7.9161  -14.1076   25.5046 C   0  0  0  0  0  0  0  0  0  0  0  0
    7.0359  -15.2009   24.9497 C   0  0  2  0  0  0  0  0  0  0  0  0
    6.7124  -16.1924   25.9239 N   0  0  0  0  0  0  0  0  0  0  0  0
    7.5894  -15.7051   23.6905 C   0  0  0  0  0  0  0  0  0  0  0  0
    8.0975  -16.8756   23.6675 O   0  0  0  0  0  0  0  0  0  0  0  0
    7.5041  -13.0470   27.7488 C   0  0  0  0  0  0  0  0  0  0  0  0
    6.7795  -12.1578   28.5198 C   0  0  0  0  0  0  0  0  0  0  0  0
    6.6918  -14.4286   19.8273 C   0  0  0  0  0  0  0  0  0  0  0  0
    8.1588  -14.6324   20.1017 C   0  0  2  0  0  0  0  0  0  0  0  0
    8.9315  -15.1299   18.9241 C   0  0  0  0  0  0  0  0  0  0  0  0
    8.3747  -15.4835   21.3524 C   0  0  2  0  0  0  0  0  0  0  0  0
    7.6129  -14.9927   22.4636 N   0  0  0  0  0  0  0  0  0  0  0  0
    9.8286  -15.4910   21.5859 C   0  0  0  0  0  0  0  0  0  0  0  0
   10.2392  -14.8884   22.6156 O   0  0  0  0  0  0  0  0  0  0  0  0
   17.0276  -18.9022   25.1894 N   0  0  0  0  0  0  0  0  0  0  0  0
   15.8328  -18.2381   24.8086 C   0  0  0  0  0  0  0  0  0  0  0  0
   15.7929  -16.9507   24.5643 N   0  0  0  0  0  0  0  0  0  0  0  0
   14.5832  -18.9457   24.6681 N   0  0  0  0  0  0  0  0  0  0  0  0
   13.3808  -18.2718   24.2645 C   0  0  0  0  0  0  0  0  0  0  0  0
   13.5314  -17.5779   22.9093 C   0  0  0  0  0  0  0  0  0  0  0  0
   12.1414  -17.2226   22.4520 C   0  0  0  0  0  0  0  0  0  0  0  0
   12.1317  -16.4694   21.1660 C   0  0  2  0  0  0  0  0  0  0  0  0
   10.7762  -16.1102   20.7609 N   0  0  0  0  0  0  0  0  0  0  0  0
   12.8252  -17.1119   20.0450 C   0  0  0  0  0  0  0  0  0  0  0  0
   14.1177  -16.8566   19.6318 O   0  0  0  0  0  0  0  0  0  0  0  0
   12.2024  -17.9900   19.3711 O   0  0  0  0  0  0  0  0  0  0  0  0
  2 12  2  0
  2  1  1  0
  3  2  1  0
  4  5  1  0
  4  3  2  0
  5 11  2  0
  6  5  1  0
  7  6  1  0
  7  8  1  1
  9 10  2  0
  9  7  1  0
 11 12  1  0
 14 13  1  6
 14 16  1  0
 15 14  1  0
 16 18  1  0
 16 17  1  1
 17  9  1  0
 18 19  2  0
 21 20  1  0
 21 23  1  0
 22 21  2  0
 23 24  1  0
 24 25  1  0
 26 25  1  0
 27 26  1  1
 28 27  1  0
 28 18  1  0
 29 27  1  0
 30 29  1  0
 31 29  2  0
M  END
$$$$
