YVR.pdb
     RDKit          3D

 31 31  0  0  1  0  0  0  0  0999 V2000
    5.0315  -21.3823   13.0186 O   0  0  0  0  0  0  0  0  0  0  0  0
    5.7105  -20.6490   13.9868 C   0  0  0  0  0  0  0  0  0  0  0  0
    7.0791  -20.5940   13.9263 C   0  0  0  0  0  0  0  0  0  0  0  0
    7.7994  -19.8761   14.8685 C   0  0  0  0  0  0  0  0  0  0  0  0
    7.1735  -19.1958   15.8934 C   0  0  0  0  0  0  0  0  0  0  0  0
    8.0138  -18.4640   16.8446 C   0  0  0  0  0  0  0  0  0  0  0  0
    8.1470  -16.9954   16.5225 C   0  0  2  0  0  0  0  0  0  0  0  0
    8.7494  -16.7654   15.2493 N   0  0  0  0  0  0  0  0  0  0  0  0
    8.7540  -16.2837   17.6498 C   0  0  0  0  0  0  0  0  0  0  0  0
   10.0248  -16.2872   17.7664 O   0  0  0  0  0  0  0  0  0  0  0  0
    5.7971  -19.2523   15.9528 C   0  0  0  0  0  0  0  0  0  0  0  0
    5.0934  -19.9723   15.0058 C   0  0  0  0  0  0  0  0  0  0  0  0
    7.5246  -12.7746   19.2791 C   0  0  0  0  0  0  0  0  0  0  0  0
    7.9106  -13.7887   20.3239 C   0  0  2  0  0  0  0  0  0  0  0  0
    8.5460  -13.1948   21.5384 C   0  0  0  0  0  0  0  0  0  0  0  0
    8.7392  -14.9204   19.7171 C   0  0  2  0  0  0  0  0  0  0  0  0
    8.0398  -15.5734   18.6493 N   0  0  0  0  0  0  0  0  0  0  0  0
    9.0797  -15.8129   20.8377 C   0  0  0  0  0  0  0  0  0  0  0  0
    8.1271  -16.4563   21.3580 O   0  0  0  0  0  0  0  0  0  0  0  0
   15.8635  -18.7343   19.1333 N   0  0  0  0  0  0  0  0  0  0  0  0
   14.7474  -19.4508   18.6290 C   0  0  0  0  0  0  0  0  0  0  0  0
   14.7519  -20.0145   17.4454 N   0  0  0  0  0  0  0  0  0  0  0  0
   13.5335  -19.6012   19.3944 N   0  0  0  0  0  0  0  0  0  0  0  0
   13.3692  -18.9672   20.6727 C   0  0  0  0  0  0  0  0  0  0  0  0
   11.9794  -18.3497   20.8400 C   0  0  0  0  0  0  0  0  0  0  0  0
   11.9815  -17.6410   22.1685 C   0  0  0  0  0  0  0  0  0  0  0  0
   10.7056  -16.9203   22.4402 C   0  0  2  0  0  0  0  0  0  0  0  0
   10.3657  -15.9986   21.3607 N   0  0  0  0  0  0  0  0  0  0  0  0
   10.6299  -16.2197   23.7262 C   0  0  0  0  0  0  0  0  0  0  0  0
   11.2913  -15.0546   24.0600 O   0  0  0  0  0  0  0  0  0  0  0  0
    9.8948  -16.7083   24.6395 O   0  0  0  0  0  0  0  0  0  0  0  0
  2 12  2  0
  2  1  1  0
  3  2  1  0
  4  5  1  0
  4  3  2  0
  5 11  2  0
  6  5  1  0
  7  6  1  0
  7  8  1  6
  9 10  2  0
  9  7  1  0
 11 12  1  0
 14 13  1  6
 14 16  1  0
 15 14  1  0
 16 18  1  0
 16 17  1  6
 17  9  1  0
 18 19  2  0
 21 20  1  0
 21 23  1  0
 22 21  2  0
 23 24  1  0
 24 25  1  0
 26 25  1  0
 27 26  1  6
 28 27  1  0
 28 18  1  0
 29 27  1  0
 30 29  1  0
 31 29  2  0
M  END
$$$$
