YVR.pdb
     RDKit          3D

 31 31  0  0  1  0  0  0  0  0999 V2000
    5.1831  -10.3806   28.3455 O   0  0  0  0  0  0  0  0  0  0  0  0
    5.8330  -11.4343   27.7104 C   0  0  0  0  0  0  0  0  0  0  0  0
    5.5179  -11.7057   26.4039 C   0  0  0  0  0  0  0  0  0  0  0  0
    6.1389  -12.7454   25.7290 C   0  0  0  0  0  0  0  0  0  0  0  0
    7.0886  -13.5395   26.3396 C   0  0  0  0  0  0  0  0  0  0  0  0
    7.6925  -14.6161   25.5505 C   0  0  0  0  0  0  0  0  0  0  0  0
    6.7079  -15.3323   24.6585 C   0  0  2  0  0  0  0  0  0  0  0  0
    6.0631  -16.4222   25.3169 N   0  0  0  0  0  0  0  0  0  0  0  0
    7.3295  -15.6474   23.3700 C   0  0  0  0  0  0  0  0  0  0  0  0
    7.6722  -16.8533   23.1314 O   0  0  0  0  0  0  0  0  0  0  0  0
    7.4042  -13.2651   27.6535 C   0  0  0  0  0  0  0  0  0  0  0  0
    6.7761  -12.2250   28.3124 C   0  0  0  0  0  0  0  0  0  0  0  0
    7.1272  -13.1402   20.0155 C   0  0  0  0  0  0  0  0  0  0  0  0
    8.3809  -13.9659   20.1396 C   0  0  2  0  0  0  0  0  0  0  0  0
    8.9602  -14.3877   18.8290 C   0  0  0  0  0  0  0  0  0  0  0  0
    8.1794  -15.1368   21.1007 C   0  0  2  0  0  0  0  0  0  0  0  0
    7.5922  -14.7103   22.3373 N   0  0  0  0  0  0  0  0  0  0  0  0
    9.5043  -15.7603   21.2559 C   0  0  0  0  0  0  0  0  0  0  0  0
   10.3297  -15.1579   21.9960 O   0  0  0  0  0  0  0  0  0  0  0  0
   14.8013  -22.0075   21.4023 N   0  0  0  0  0  0  0  0  0  0  0  0
   13.5215  -22.5037   21.7622 C   0  0  0  0  0  0  0  0  0  0  0  0
   13.3588  -23.4231   22.6825 N   0  0  0  0  0  0  0  0  0  0  0  0
   12.3164  -22.0227   21.1313 N   0  0  0  0  0  0  0  0  0  0  0  0
   12.3627  -21.1152   20.0190 C   0  0  0  0  0  0  0  0  0  0  0  0
   12.5503  -19.6629   20.4622 C   0  0  0  0  0  0  0  0  0  0  0  0
   11.1843  -19.0294   20.4470 C   0  0  0  0  0  0  0  0  0  0  0  0
   11.2100  -17.5925   20.8418 C   0  0  2  0  0  0  0  0  0  0  0  0
    9.9098  -16.9571   20.6516 N   0  0  0  0  0  0  0  0  0  0  0  0
   12.2525  -16.7762   20.2116 C   0  0  0  0  0  0  0  0  0  0  0  0
   13.4828  -16.4635   20.7547 O   0  0  0  0  0  0  0  0  0  0  0  0
   12.0303  -16.2967   19.0567 O   0  0  0  0  0  0  0  0  0  0  0  0
  2 12  2  0
  2  1  1  0
  3  2  1  0
  4  5  1  0
  4  3  2  0
  5 11  2  0
  6  5  1  0
  7  6  1  0
  7  8  1  1
  9 10  2  0
  9  7  1  0
 11 12  1  0
 14 13  1  6
 14 16  1  0
 15 14  1  0
 16 18  1  0
 16 17  1  1
 17  9  1  0
 18 19  2  0
 21 20  1  0
 21 23  1  0
 22 21  2  0
 23 24  1  0
 24 25  1  0
 26 25  1  0
 27 26  1  6
 28 27  1  0
 28 18  1  0
 29 27  1  0
 30 29  1  0
 31 29  2  0
M  END
$$$$
