RVN.pdb
     RDKit          3D

 27 26  0  0  1  0  0  0  0  0999 V2000
    6.8886  -20.3156   19.2863 N   0  0  0  0  0  0  0  0  0  0  0  0
    6.4953  -19.4811   18.2064 C   0  0  0  0  0  0  0  0  0  0  0  0
    5.8183  -19.9669   17.2100 N   0  0  0  0  0  0  0  0  0  0  0  0
    6.8254  -18.0954   18.1749 N   0  0  0  0  0  0  0  0  0  0  0  0
    7.6458  -17.5139   19.2396 C   0  0  0  0  0  0  0  0  0  0  0  0
    6.7093  -17.2096   20.3861 C   0  0  0  0  0  0  0  0  0  0  0  0
    7.4008  -16.7047   21.6075 C   0  0  0  0  0  0  0  0  0  0  0  0
    7.6020  -15.2216   21.6598 C   0  0  2  0  0  0  0  0  0  0  0  0
    8.4653  -14.8774   20.5152 N   0  0  0  0  0  0  0  0  0  0  0  0
    8.2365  -14.7375   22.8843 C   0  0  0  0  0  0  0  0  0  0  0  0
    9.4442  -15.0091   23.1028 O   0  0  0  0  0  0  0  0  0  0  0  0
    5.5872  -19.3618   16.3926 C   0  0  0  0  0  0  0  0  0  0  0  0
    7.5937  -11.9350   26.9231 C   0  0  1  0  0  0  0  0  0  0  0  0
    7.0655  -12.4391   25.5995 C   0  0  0  0  0  0  0  0  0  0  0  0
    5.6670  -12.9664   25.7568 C   0  0  2  0  0  0  0  0  0  0  0  0
    8.0144  -13.5382   25.0990 N   0  0  0  0  0  0  0  0  0  0  0  0
    7.5159  -13.9672   23.8306 C   0  0  0  0  0  0  0  0  0  0  0  0
    7.8941  -14.6404   26.1042 O   0  0  0  0  0  0  0  0  0  0  0  0
    6.9497  -15.4938   26.0161 N   0  0  0  0  0  0  0  0  0  0  0  0
   10.2982  -19.1232   26.3768 C   0  0  0  0  0  0  0  0  0  0  0  0
   10.8977  -17.9059   26.7560 O   0  0  0  0  0  0  0  0  0  0  0  0
   11.9617  -17.9136   27.3983 C   0  0  0  0  0  0  0  0  0  0  0  0
   10.2602  -16.6333   26.3885 C   0  0  1  0  0  0  0  0  0  0  0  0
    9.3877  -16.0747   27.4572 N   0  0  0  0  0  0  0  0  0  0  0  0
    8.7862  -14.8126   27.1895 C   0  0  0  0  0  0  0  0  0  0  0  0
   10.2450  -15.9089   28.6858 O   0  0  0  0  0  0  0  0  0  0  0  0
   10.6960  -14.7861   29.0349 O   0  0  0  0  0  0  0  0  0  0  0  0
  2  1  1  0
  3  2  2  0
  4  2  1  0
  5  4  1  0
  6  5  1  0
  7  6  1  0
  8  7  1  0
  8  9  1  6
 10 16  1  0
 10  8  1  0
 11 10  2  0
 13 12  1  6
 13 14  1  0
 15 16  1  1
 15 13  1  0
 17 15  1  0
 18 17  2  0
 20 19  1  0
 21 20  2  0
 22 20  1  0
 23 22  1  6
 23 24  1  0
 24 17  1  0
 25 23  1  0
 26 25  2  0
 27 25  1  0
M  END
$$$$
