RVN.pdb
     RDKit          3D

 27 26  0  0  1  0  0  0  0  0999 V2000
    6.4911  -21.7661   14.3313 N   0  0  0  0  0  0  0  0  0  0  0  0
    7.3614  -20.7685   14.8454 C   0  0  0  0  0  0  0  0  0  0  0  0
    6.9575  -19.5399   14.9676 N   0  0  0  0  0  0  0  0  0  0  0  0
    8.6958  -21.0735   15.2413 N   0  0  0  0  0  0  0  0  0  0  0  0
    9.5636  -20.0167   15.7652 C   0  0  0  0  0  0  0  0  0  0  0  0
    8.9722  -18.7055   15.3011 C   0  0  0  0  0  0  0  0  0  0  0  0
    9.8515  -17.5277   15.5552 C   0  0  0  0  0  0  0  0  0  0  0  0
    9.1333  -16.2477   15.8532 C   0  0  2  0  0  0  0  0  0  0  0  0
    9.2228  -15.4255   14.6327 N   0  0  0  0  0  0  0  0  0  0  0  0
    9.6882  -15.4858   16.9703 C   0  0  0  0  0  0  0  0  0  0  0  0
   10.9348  -15.3627   17.0748 O   0  0  0  0  0  0  0  0  0  0  0  0
    7.6129  -18.8083   15.3181 C   0  0  0  0  0  0  0  0  0  0  0  0
    8.4875  -12.6280   20.8509 C   0  0  1  0  0  0  0  0  0  0  0  0
    8.0397  -13.5130   19.7101 C   0  0  0  0  0  0  0  0  0  0  0  0
    7.1243  -14.5948   20.2106 C   0  0  2  0  0  0  0  0  0  0  0  0
    9.2935  -14.1127   19.0563 N   0  0  0  0  0  0  0  0  0  0  0  0
    8.8474  -14.8826   17.9383 C   0  0  0  0  0  0  0  0  0  0  0  0
    9.8840  -15.0075   20.1006 O   0  0  0  0  0  0  0  0  0  0  0  0
    9.3834  -16.1602   20.3208 N   0  0  0  0  0  0  0  0  0  0  0  0
   14.6525  -14.3666   20.6447 C   0  0  0  0  0  0  0  0  0  0  0  0
   13.8727  -15.4791   21.0179 O   0  0  0  0  0  0  0  0  0  0  0  0
   13.9407  -16.5315   20.3600 C   0  0  0  0  0  0  0  0  0  0  0  0
   12.9832  -15.3878   22.1848 C   0  0  2  0  0  0  0  0  0  0  0  0
   11.5432  -15.5603   21.8499 N   0  0  0  0  0  0  0  0  0  0  0  0
   11.0016  -14.6548   20.8944 C   0  0  0  0  0  0  0  0  0  0  0  0
   10.7672  -15.3766   23.1289 O   0  0  0  0  0  0  0  0  0  0  0  0
    9.8963  -14.4756   23.2543 O   0  0  0  0  0  0  0  0  0  0  0  0
  2  1  1  0
  3  2  2  0
  4  2  1  0
  5  4  1  0
  6  5  1  0
  7  6  1  0
  8  7  1  0
  8  9  1  6
 10 16  1  0
 10  8  1  0
 11 10  2  0
 13 12  1  6
 13 14  1  0
 15 16  1  1
 15 13  1  0
 17 15  1  0
 18 17  2  0
 20 19  1  0
 21 20  2  0
 22 20  1  0
 23 22  1  6
 23 24  1  0
 24 17  1  0
 25 23  1  0
 26 25  2  0
 27 25  1  0
M  END
$$$$
