RVN.pdb
     RDKit          3D

 27 26  0  0  1  0  0  0  0  0999 V2000
    8.4181  -12.6069   16.1967 N   0  0  0  0  0  0  0  0  0  0  0  0
    7.8095  -13.7671   16.7449 C   0  0  0  0  0  0  0  0  0  0  0  0
    6.6478  -13.6929   17.3215 N   0  0  0  0  0  0  0  0  0  0  0  0
    8.4431  -15.0420   16.6848 N   0  0  0  0  0  0  0  0  0  0  0  0
    9.1146  -15.5822   17.8688 C   0  0  0  0  0  0  0  0  0  0  0  0
    8.8376  -14.6166   18.9980 C   0  0  0  0  0  0  0  0  0  0  0  0
    9.4070  -15.0466   20.3080 C   0  0  0  0  0  0  0  0  0  0  0  0
    8.3984  -15.4167   21.3514 C   0  0  2  0  0  0  0  0  0  0  0  0
    7.1578  -14.6993   21.0050 N   0  0  0  0  0  0  0  0  0  0  0  0
    8.7779  -15.0591   22.7168 C   0  0  0  0  0  0  0  0  0  0  0  0
    9.9941  -15.0373   23.0338 O   0  0  0  0  0  0  0  0  0  0  0  0
    6.2100  -14.5497   17.7239 C   0  0  0  0  0  0  0  0  0  0  0  0
    6.8705  -12.3286   24.5651 C   0  0  1  0  0  0  0  0  0  0  0  0
    6.9444  -13.4901   25.5297 C   0  0  0  0  0  0  0  0  0  0  0  0
    7.2023  -12.9992   26.9265 C   0  0  2  0  0  0  0  0  0  0  0  0
    8.0685  -14.4251   25.0593 N   0  0  0  0  0  0  0  0  0  0  0  0
    7.8006  -14.7359   23.6907 C   0  0  0  0  0  0  0  0  0  0  0  0
    7.9320  -15.6511   25.9067 O   0  0  0  0  0  0  0  0  0  0  0  0
    6.9515  -16.4490   25.7339 N   0  0  0  0  0  0  0  0  0  0  0  0
    9.9178  -19.9978   24.7186 C   0  0  0  0  0  0  0  0  0  0  0  0
    9.4118  -18.7022   24.9434 O   0  0  0  0  0  0  0  0  0  0  0  0
    8.3318  -18.3619   24.4311 C   0  0  0  0  0  0  0  0  0  0  0  0
   10.1655  -17.7606   25.7839 C   0  0  2  0  0  0  0  0  0  0  0  0
    9.4170  -17.3076   26.9880 N   0  0  0  0  0  0  0  0  0  0  0  0
    8.8468  -16.0047   26.9272 C   0  0  0  0  0  0  0  0  0  0  0  0
   10.3878  -17.3166   28.1410 O   0  0  0  0  0  0  0  0  0  0  0  0
   11.2859  -16.4418   28.2604 O   0  0  0  0  0  0  0  0  0  0  0  0
  2  1  1  0
  3  2  2  0
  4  2  1  0
  5  4  1  0
  6  5  1  0
  7  6  1  0
  8  7  1  0
  8  9  1  6
 10 16  1  0
 10  8  1  0
 11 10  2  0
 13 12  1  1
 13 14  1  0
 15 16  1  6
 15 13  1  0
 17 15  1  0
 18 17  2  0
 20 19  1  0
 21 20  2  0
 22 20  1  0
 23 22  1  6
 23 24  1  0
 24 17  1  0
 25 23  1  0
 26 25  2  0
 27 25  1  0
M  END
$$$$
