RVN.pdb
     RDKit          3D

 27 26  0  0  1  0  0  0  0  0999 V2000
    8.7570  -12.8113   16.8021 N   0  0  0  0  0  0  0  0  0  0  0  0
    7.9416  -13.8414   16.2626 C   0  0  0  0  0  0  0  0  0  0  0  0
    7.2416  -13.6340   15.1882 N   0  0  0  0  0  0  0  0  0  0  0  0
    7.8606  -15.1264   16.8728 N   0  0  0  0  0  0  0  0  0  0  0  0
    8.6881  -15.4356   18.0408 C   0  0  0  0  0  0  0  0  0  0  0  0
    8.1412  -14.6132   19.1848 C   0  0  0  0  0  0  0  0  0  0  0  0
    8.8491  -14.8394   20.4781 C   0  0  0  0  0  0  0  0  0  0  0  0
    7.9746  -14.8319   21.6940 C   0  0  2  0  0  0  0  0  0  0  0  0
    6.7752  -14.0510   21.3400 N   0  0  0  0  0  0  0  0  0  0  0  0
    8.5870  -14.2343   22.8789 C   0  0  0  0  0  0  0  0  0  0  0  0
    9.6538  -13.5803   22.7591 O   0  0  0  0  0  0  0  0  0  0  0  0
    6.6595  -14.4019   14.7892 C   0  0  0  0  0  0  0  0  0  0  0  0
    6.3892  -13.7178   26.3050 C   0  0  1  0  0  0  0  0  0  0  0  0
    7.7607  -13.1000   26.1551 C   0  0  0  0  0  0  0  0  0  0  0  0
    7.6726  -11.7955   25.4140 C   0  0  1  0  0  0  0  0  0  0  0  0
    8.6507  -14.1006   25.4029 N   0  0  0  0  0  0  0  0  0  0  0  0
    8.0009  -14.3779   24.1610 C   0  0  0  0  0  0  0  0  0  0  0  0
    8.6698  -15.3246   26.2638 O   0  0  0  0  0  0  0  0  0  0  0  0
    7.9371  -16.3284   25.9747 N   0  0  0  0  0  0  0  0  0  0  0  0
   10.0025  -18.2587   25.4281 C   0  0  0  0  0  0  0  0  0  0  0  0
   11.2448  -17.6046   25.5457 O   0  0  0  0  0  0  0  0  0  0  0  0
   12.1319  -17.8036   24.6982 C   0  0  0  0  0  0  0  0  0  0  0  0
   11.4835  -16.6894   26.6711 C   0  0  2  0  0  0  0  0  0  0  0  0
   10.3284  -16.5790   27.6033 N   0  0  0  0  0  0  0  0  0  0  0  0
    9.4726  -15.4560   27.4221 C   0  0  0  0  0  0  0  0  0  0  0  0
   10.8931  -16.4894   28.9979 O   0  0  0  0  0  0  0  0  0  0  0  0
   11.1108  -15.3820   29.5569 O   0  0  0  0  0  0  0  0  0  0  0  0
  2  1  1  0
  3  2  2  0
  4  2  1  0
  5  4  1  0
  6  5  1  0
  7  6  1  0
  8  7  1  0
  8  9  1  6
 10 16  1  0
 10  8  1  0
 11 10  2  0
 13 12  1  1
 13 14  1  0
 15 16  1  6
 15 13  1  0
 17 15  1  0
 18 17  2  0
 20 19  1  0
 21 20  2  0
 22 20  1  0
 23 22  1  6
 23 24  1  0
 24 17  1  0
 25 23  1  0
 26 25  2  0
 27 25  1  0
M  END
$$$$
