RVN.pdb
     RDKit          3D

 27 26  0  0  1  0  0  0  0  0999 V2000
    9.2000  -14.9155   16.3055 N   0  0  0  0  0  0  0  0  0  0  0  0
    8.2133  -13.8940   16.3144 C   0  0  0  0  0  0  0  0  0  0  0  0
    8.3632  -12.8257   15.5908 N   0  0  0  0  0  0  0  0  0  0  0  0
    7.0355  -14.0004   17.1092 N   0  0  0  0  0  0  0  0  0  0  0  0
    7.1090  -14.5764   18.4535 C   0  0  0  0  0  0  0  0  0  0  0  0
    8.0305  -13.6846   19.2534 C   0  0  0  0  0  0  0  0  0  0  0  0
    7.6056  -13.5011   20.6714 C   0  0  0  0  0  0  0  0  0  0  0  0
    7.8600  -14.6716   21.5703 C   0  0  2  0  0  0  0  0  0  0  0  0
    6.5388  -15.2295   21.9123 N   0  0  0  0  0  0  0  0  0  0  0  0
    8.5628  -14.3444   22.8094 C   0  0  0  0  0  0  0  0  0  0  0  0
    9.7619  -13.9704   22.7587 O   0  0  0  0  0  0  0  0  0  0  0  0
    7.6334  -12.0808   15.6037 C   0  0  0  0  0  0  0  0  0  0  0  0
    6.2664  -14.2680   26.2923 C   0  0  1  0  0  0  0  0  0  0  0  0
    7.5183  -13.4276   26.1845 C   0  0  0  0  0  0  0  0  0  0  0  0
    7.2057  -12.0933   25.5676 C   0  0  1  0  0  0  0  0  0  0  0  0
    8.5360  -14.2018   25.3335 N   0  0  0  0  0  0  0  0  0  0  0  0
    7.9181  -14.4405   24.0676 C   0  0  0  0  0  0  0  0  0  0  0  0
    8.7458  -15.4929   26.0608 O   0  0  0  0  0  0  0  0  0  0  0  0
    7.7699  -16.2924   26.2508 N   0  0  0  0  0  0  0  0  0  0  0  0
   12.1093  -17.9105   24.3552 C   0  0  0  0  0  0  0  0  0  0  0  0
   11.0351  -18.2670   25.1942 O   0  0  0  0  0  0  0  0  0  0  0  0
    9.9903  -18.7254   24.7012 C   0  0  0  0  0  0  0  0  0  0  0  0
   11.1576  -18.0946   26.6490 C   0  0  2  0  0  0  0  0  0  0  0  0
   10.1469  -17.1661   27.2252 N   0  0  0  0  0  0  0  0  0  0  0  0
    9.9974  -15.9088   26.5746 C   0  0  0  0  0  0  0  0  0  0  0  0
   10.5634  -16.8865   28.6465 O   0  0  0  0  0  0  0  0  0  0  0  0
   10.7492  -17.8131   29.4791 O   0  0  0  0  0  0  0  0  0  0  0  0
  2  1  1  0
  3  2  2  0
  4  2  1  0
  5  4  1  0
  6  5  1  0
  7  6  1  0
  8  7  1  0
  8  9  1  1
 10 16  1  0
 10  8  1  0
 11 10  2  0
 13 12  1  1
 13 14  1  0
 15 16  1  6
 15 13  1  0
 17 15  1  0
 18 17  2  0
 20 19  1  0
 21 20  2  0
 22 20  1  0
 23 22  1  6
 23 24  1  0
 24 17  1  0
 25 23  1  0
 26 25  2  0
 27 25  1  0
M  END
$$$$
