RVN.pdb
     RDKit          3D

 27 26  0  0  1  0  0  0  0  0999 V2000
    7.1722  -20.6305   15.1864 N   0  0  0  0  0  0  0  0  0  0  0  0
    8.0907  -20.6406   14.1032 C   0  0  0  0  0  0  0  0  0  0  0  0
    8.5265  -21.7641   13.6183 N   0  0  0  0  0  0  0  0  0  0  0  0
    8.5645  -19.4326   13.5146 N   0  0  0  0  0  0  0  0  0  0  0  0
    7.8194  -18.1858   13.7016 C   0  0  0  0  0  0  0  0  0  0  0  0
    7.6575  -18.0015   15.1929 C   0  0  0  0  0  0  0  0  0  0  0  0
    8.7240  -17.1628   15.8127 C   0  0  0  0  0  0  0  0  0  0  0  0
    8.3370  -15.7435   16.0938 C   0  0  2  0  0  0  0  0  0  0  0  0
    8.7418  -14.9594   14.9127 N   0  0  0  0  0  0  0  0  0  0  0  0
    8.9699  -15.1644   17.2771 C   0  0  0  0  0  0  0  0  0  0  0  0
   10.1695  -14.7936   17.2165 O   0  0  0  0  0  0  0  0  0  0  0  0
    9.2725  -21.7628   12.8895 C   0  0  0  0  0  0  0  0  0  0  0  0
    7.3808  -12.3949   19.4279 C   0  0  1  0  0  0  0  0  0  0  0  0
    7.6231  -13.6033   20.3032 C   0  0  0  0  0  0  0  0  0  0  0  0
    7.9600  -13.1793   21.7051 C   0  0  2  0  0  0  0  0  0  0  0  0
    8.7709  -14.4140   19.6833 N   0  0  0  0  0  0  0  0  0  0  0  0
    8.2567  -15.0124   18.4921 C   0  0  0  0  0  0  0  0  0  0  0  0
    9.0920  -15.4674   20.6968 O   0  0  0  0  0  0  0  0  0  0  0  0
    8.3142  -16.4659   20.8582 N   0  0  0  0  0  0  0  0  0  0  0  0
   13.5742  -16.6079   20.9122 C   0  0  0  0  0  0  0  0  0  0  0  0
   12.6277  -17.3692   21.6260 O   0  0  0  0  0  0  0  0  0  0  0  0
   12.3978  -18.5437   21.2905 C   0  0  0  0  0  0  0  0  0  0  0  0
   11.9178  -16.7686   22.7646 C   0  0  2  0  0  0  0  0  0  0  0  0
   10.4896  -16.4606   22.4797 N   0  0  0  0  0  0  0  0  0  0  0  0
   10.2406  -15.4361   21.5232 C   0  0  0  0  0  0  0  0  0  0  0  0
    9.8651  -16.0199   23.7787 O   0  0  0  0  0  0  0  0  0  0  0  0
    9.3699  -14.8708   23.9219 O   0  0  0  0  0  0  0  0  0  0  0  0
  2  1  1  0
  3  2  2  0
  4  2  1  0
  5  4  1  0
  6  5  1  0
  7  6  1  0
  8  7  1  0
  8  9  1  6
 10 16  1  0
 10  8  1  0
 11 10  2  0
 13 12  1  1
 13 14  1  0
 15 16  1  6
 15 13  1  0
 17 15  1  0
 18 17  2  0
 20 19  1  0
 21 20  2  0
 22 20  1  0
 23 22  1  6
 23 24  1  0
 24 17  1  0
 25 23  1  0
 26 25  2  0
 27 25  1  0
M  END
$$$$
