RVN.pdb
     RDKit          3D

 27 26  0  0  1  0  0  0  0  0999 V2000
   11.8916  -18.4641   13.5535 N   0  0  0  0  0  0  0  0  0  0  0  0
   11.0429  -19.5988   13.4577 C   0  0  0  0  0  0  0  0  0  0  0  0
   10.8195  -20.1604   12.3079 N   0  0  0  0  0  0  0  0  0  0  0  0
   10.4106  -20.1575   14.6059 N   0  0  0  0  0  0  0  0  0  0  0  0
   10.6862  -19.6061   15.9343 C   0  0  0  0  0  0  0  0  0  0  0  0
   10.3316  -18.1382   15.8724 C   0  0  0  0  0  0  0  0  0  0  0  0
   10.7109  -17.3774   17.0981 C   0  0  0  0  0  0  0  0  0  0  0  0
    9.7661  -17.5146   18.2521 C   0  0  2  0  0  0  0  0  0  0  0  0
    8.4150  -17.2671   17.7163 N   0  0  0  0  0  0  0  0  0  0  0  0
   10.0099  -16.5820   19.3507 C   0  0  0  0  0  0  0  0  0  0  0  0
   11.1532  -16.5254   19.8702 O   0  0  0  0  0  0  0  0  0  0  0  0
   10.1720  -20.9754   12.2429 C   0  0  0  0  0  0  0  0  0  0  0  0
    6.6814  -14.5511   21.1989 C   0  0  1  0  0  0  0  0  0  0  0  0
    7.9476  -13.8246   20.8064 C   0  0  0  0  0  0  0  0  0  0  0  0
    7.8345  -13.2871   19.4075 C   0  0  1  0  0  0  0  0  0  0  0  0
    9.1163  -14.8144   20.9222 N   0  0  0  0  0  0  0  0  0  0  0  0
    8.9817  -15.7396   19.8418 C   0  0  0  0  0  0  0  0  0  0  0  0
    8.9061  -15.5098   22.2308 O   0  0  0  0  0  0  0  0  0  0  0  0
    8.0716  -16.4703   22.3243 N   0  0  0  0  0  0  0  0  0  0  0  0
   14.0471  -16.3788   24.5431 C   0  0  0  0  0  0  0  0  0  0  0  0
   12.8790  -16.9276   23.9779 O   0  0  0  0  0  0  0  0  0  0  0  0
   12.6784  -18.1527   24.0390 C   0  0  0  0  0  0  0  0  0  0  0  0
   11.9039  -16.0463   23.3194 C   0  0  2  0  0  0  0  0  0  0  0  0
   10.5718  -16.0318   23.9834 N   0  0  0  0  0  0  0  0  0  0  0  0
    9.5921  -15.1661   23.4202 C   0  0  0  0  0  0  0  0  0  0  0  0
   10.7927  -15.5896   25.4073 O   0  0  0  0  0  0  0  0  0  0  0  0
   11.6388  -16.1494   26.1534 O   0  0  0  0  0  0  0  0  0  0  0  0
  2  1  1  0
  3  2  2  0
  4  2  1  0
  5  4  1  0
  6  5  1  0
  7  6  1  0
  8  7  1  0
  8  9  1  6
 10 16  1  0
 10  8  1  0
 11 10  2  0
 13 12  1  1
 13 14  1  0
 15 16  1  6
 15 13  1  0
 17 15  1  0
 18 17  2  0
 20 19  1  0
 21 20  2  0
 22 20  1  0
 23 22  1  6
 23 24  1  0
 24 17  1  0
 25 23  1  0
 26 25  2  0
 27 25  1  0
M  END
$$$$
