RVN.pdb
     RDKit          3D

 27 26  0  0  1  0  0  0  0  0999 V2000
    7.9168  -15.5734   17.0350 N   0  0  0  0  0  0  0  0  0  0  0  0
    8.2707  -14.1985   17.0723 C   0  0  0  0  0  0  0  0  0  0  0  0
    8.0643  -13.4360   16.0410 N   0  0  0  0  0  0  0  0  0  0  0  0
    8.8595  -13.6100   18.2286 N   0  0  0  0  0  0  0  0  0  0  0  0
    8.0389  -12.8133   19.1431 C   0  0  0  0  0  0  0  0  0  0  0  0
    6.9493  -13.7290   19.6514 C   0  0  0  0  0  0  0  0  0  0  0  0
    6.8314  -13.7531   21.1382 C   0  0  0  0  0  0  0  0  0  0  0  0
    7.5502  -14.8780   21.8172 C   0  0  2  0  0  0  0  0  0  0  0  0
    6.5114  -15.8104   22.2916 N   0  0  0  0  0  0  0  0  0  0  0  0
    8.3702  -14.4741   22.9577 C   0  0  0  0  0  0  0  0  0  0  0  0
    9.5944  -14.2451   22.7876 O   0  0  0  0  0  0  0  0  0  0  0  0
    8.3030  -12.4218   16.0867 C   0  0  0  0  0  0  0  0  0  0  0  0
    6.4542  -14.1060   26.7459 C   0  0  1  0  0  0  0  0  0  0  0  0
    7.5909  -13.1992   26.3328 C   0  0  0  0  0  0  0  0  0  0  0  0
    7.0652  -11.9926   25.6074 C   0  0  1  0  0  0  0  0  0  0  0  0
    8.5404  -14.0087   25.4370 N   0  0  0  0  0  0  0  0  0  0  0  0
    7.8113  -14.3354   24.2525 C   0  0  0  0  0  0  0  0  0  0  0  0
    8.8455  -15.2486   26.2177 O   0  0  0  0  0  0  0  0  0  0  0  0
    7.9390  -16.1233   26.4198 N   0  0  0  0  0  0  0  0  0  0  0  0
   12.0573  -17.4280   24.6529 C   0  0  0  0  0  0  0  0  0  0  0  0
   11.2878  -18.0393   25.6625 O   0  0  0  0  0  0  0  0  0  0  0  0
   10.4849  -18.9412   25.3682 C   0  0  0  0  0  0  0  0  0  0  0  0
   11.4404  -17.6059   27.0589 C   0  0  2  0  0  0  0  0  0  0  0  0
   10.3430  -16.7171   27.5291 N   0  0  0  0  0  0  0  0  0  0  0  0
   10.1167  -15.5336   26.7711 C   0  0  0  0  0  0  0  0  0  0  0  0
   10.6915  -16.2890   28.9317 O   0  0  0  0  0  0  0  0  0  0  0  0
   10.8135  -15.0753   29.2451 O   0  0  0  0  0  0  0  0  0  0  0  0
  2  1  1  0
  3  2  2  0
  4  2  1  0
  5  4  1  0
  6  5  1  0
  7  6  1  0
  8  7  1  0
  8  9  1  1
 10 16  1  0
 10  8  1  0
 11 10  2  0
 13 12  1  1
 13 14  1  0
 15 16  1  6
 15 13  1  0
 17 15  1  0
 18 17  2  0
 20 19  1  0
 21 20  2  0
 22 20  1  0
 23 22  1  6
 23 24  1  0
 24 17  1  0
 25 23  1  0
 26 25  2  0
 27 25  1  0
M  END
$$$$
