SSM.pdb
     RDKit          3D

 21 20  0  0  1  0  0  0  0  0999 V2000
   11.4397  -13.1448   18.2143 O   0  0  0  0  0  0  0  0  0  0  0  0
   10.3011  -12.9981   18.9732 C   0  0  0  0  0  0  0  0  0  0  0  0
    9.2583  -13.9872   18.4907 C   0  0  2  0  0  0  0  0  0  0  0  0
    8.2235  -13.2744   17.7310 N   0  0  0  0  0  0  0  0  0  0  0  0
    8.6266  -14.6103   19.6565 C   0  0  0  0  0  0  0  0  0  0  0  0
    7.6225  -14.0594   20.2054 O   0  0  0  0  0  0  0  0  0  0  0  0
   10.1868  -18.0961   21.6522 O   0  0  0  0  0  0  0  0  0  0  0  0
    8.8574  -17.8769   21.3681 C   0  0  0  0  0  0  0  0  0  0  0  0
    8.4902  -16.4220   21.3209 C   0  0  2  0  0  0  0  0  0  0  0  0
    9.1221  -15.8287   20.1850 N   0  0  0  0  0  0  0  0  0  0  0  0
    8.8395  -15.6887   22.5402 C   0  0  0  0  0  0  0  0  0  0  0  0
    9.9705  -15.0956   22.5580 O   0  0  0  0  0  0  0  0  0  0  0  0
    5.6114  -12.2785   28.3385 C   0  0  0  0  0  0  0  0  0  0  0  0
    6.5818  -11.8040   26.9260 S   0  0  0  0  0  0  0  0  0  0  0  0
    7.7955  -13.0169   26.4016 C   0  0  0  0  0  0  0  0  0  0  0  0
    7.4862  -13.7166   25.1470 C   0  0  0  0  0  0  0  0  0  0  0  0
    8.4848  -14.7955   24.8162 C   0  0  2  0  0  0  0  0  0  0  0  0
    8.0264  -15.5913   23.6827 N   0  0  0  0  0  0  0  0  0  0  0  0
    8.8422  -15.6733   25.9512 C   0  0  0  0  0  0  0  0  0  0  0  0
    8.4114  -16.8318   26.1377 O   0  0  0  0  0  0  0  0  0  0  0  0
    9.7434  -15.2256   26.9464 O   0  0  0  0  0  0  0  0  0  0  0  0
  2  1  1  0
  2  3  1  0
  3  5  1  0
  3  4  1  1
  5  6  2  0
  7  8  1  0
  9  8  1  1
 10  9  1  0
 10  5  1  0
 11 18  1  0
 11  9  1  0
 12 11  2  0
 13 14  1  0
 15 14  1  0
 16 15  1  0
 17 18  1  0
 17 16  1  1
 19 17  1  0
 20 19  2  0
 21 19  1  0
M  END
$$$$
