SSM.pdb
     RDKit          3D

 21 20  0  0  1  0  0  0  0  0999 V2000
   10.7492  -12.8893   19.4073 O   0  0  0  0  0  0  0  0  0  0  0  0
   10.6764  -14.0254   18.6342 C   0  0  0  0  0  0  0  0  0  0  0  0
    9.2190  -14.3393   18.3582 C   0  0  2  0  0  0  0  0  0  0  0  0
    8.5437  -13.1316   17.8668 N   0  0  0  0  0  0  0  0  0  0  0  0
    8.5802  -14.7460   19.6124 C   0  0  0  0  0  0  0  0  0  0  0  0
    7.8201  -13.9372   20.2298 O   0  0  0  0  0  0  0  0  0  0  0  0
    9.3479  -18.4234   21.7668 O   0  0  0  0  0  0  0  0  0  0  0  0
    8.1166  -17.9940   21.3248 C   0  0  0  0  0  0  0  0  0  0  0  0
    8.0006  -16.4994   21.2435 C   0  0  2  0  0  0  0  0  0  0  0  0
    8.7985  -16.0387   20.1515 N   0  0  0  0  0  0  0  0  0  0  0  0
    8.3828  -15.8130   22.4801 C   0  0  0  0  0  0  0  0  0  0  0  0
    9.5898  -15.4051   22.5693 O   0  0  0  0  0  0  0  0  0  0  0  0
    6.7193  -10.6445   27.8379 C   0  0  0  0  0  0  0  0  0  0  0  0
    6.1225  -12.2294   27.2960 S   0  0  0  0  0  0  0  0  0  0  0  0
    7.3612  -13.2848   26.5404 C   0  0  0  0  0  0  0  0  0  0  0  0
    6.9414  -13.9677   25.3089 C   0  0  0  0  0  0  0  0  0  0  0  0
    8.0257  -14.8324   24.7195 C   0  0  2  0  0  0  0  0  0  0  0  0
    7.5242  -15.5728   23.5669 N   0  0  0  0  0  0  0  0  0  0  0  0
    8.6720  -15.7513   25.6809 C   0  0  0  0  0  0  0  0  0  0  0  0
    8.3851  -16.9577   25.8383 O   0  0  0  0  0  0  0  0  0  0  0  0
    9.7105  -15.2903   26.5246 O   0  0  0  0  0  0  0  0  0  0  0  0
  2  1  1  0
  2  3  1  0
  3  5  1  0
  3  4  1  1
  5  6  2  0
  7  8  1  0
  9  8  1  1
 10  9  1  0
 10  5  1  0
 11 18  1  0
 11  9  1  0
 12 11  2  0
 13 14  1  0
 15 14  1  0
 16 15  1  0
 17 18  1  0
 17 16  1  1
 19 17  1  0
 20 19  2  0
 21 19  1  0
M  END
$$$$
