SSM.pdb
     RDKit          3D

 21 20  0  0  1  0  0  0  0  0999 V2000
   11.2267  -12.7634   18.3474 O   0  0  0  0  0  0  0  0  0  0  0  0
   10.8963  -13.9813   18.8963 C   0  0  0  0  0  0  0  0  0  0  0  0
    9.4542  -14.2997   18.5532 C   0  0  2  0  0  0  0  0  0  0  0  0
    8.7539  -13.0617   18.1887 N   0  0  0  0  0  0  0  0  0  0  0  0
    8.8033  -14.8654   19.7376 C   0  0  0  0  0  0  0  0  0  0  0  0
    7.9409  -14.1847   20.3747 O   0  0  0  0  0  0  0  0  0  0  0  0
    8.0311  -18.8474   20.1120 O   0  0  0  0  0  0  0  0  0  0  0  0
    8.5835  -18.2460   21.2207 C   0  0  0  0  0  0  0  0  0  0  0  0
    8.3797  -16.7591   21.2559 C   0  0  2  0  0  0  0  0  0  0  0  0
    9.1229  -16.1713   20.1865 N   0  0  0  0  0  0  0  0  0  0  0  0
    8.7517  -16.1458   22.5334 C   0  0  0  0  0  0  0  0  0  0  0  0
    9.9691  -15.7855   22.6726 O   0  0  0  0  0  0  0  0  0  0  0  0
    6.8055  -11.1559   28.2364 C   0  0  0  0  0  0  0  0  0  0  0  0
    6.2835  -12.2921   26.9721 S   0  0  0  0  0  0  0  0  0  0  0  0
    7.5769  -13.3611   26.3367 C   0  0  0  0  0  0  0  0  0  0  0  0
    7.1999  -14.1899   25.1833 C   0  0  0  0  0  0  0  0  0  0  0  0
    8.3106  -15.1009   24.7283 C   0  0  2  0  0  0  0  0  0  0  0  0
    7.8728  -15.9269   23.6083 N   0  0  0  0  0  0  0  0  0  0  0  0
    8.8917  -15.9445   25.7947 C   0  0  0  0  0  0  0  0  0  0  0  0
    9.4634  -15.5239   26.8236 O   0  0  0  0  0  0  0  0  0  0  0  0
    8.8295  -17.3556   25.7050 O   0  0  0  0  0  0  0  0  0  0  0  0
  2  1  1  0
  2  3  1  0
  3  5  1  0
  3  4  1  1
  5  6  2  0
  7  8  1  0
  9  8  1  1
 10  9  1  0
 10  5  1  0
 11 18  1  0
 11  9  1  0
 12 11  2  0
 13 14  1  0
 15 14  1  0
 16 15  1  0
 17 18  1  0
 17 16  1  1
 19 17  1  0
 20 19  2  0
 21 19  1  0
M  END
$$$$
