SSM.pdb
     RDKit          3D

 21 20  0  0  1  0  0  0  0  0999 V2000
   10.4268  -18.0917   20.3836 O   0  0  0  0  0  0  0  0  0  0  0  0
    9.6759  -17.6978   19.2998 C   0  0  0  0  0  0  0  0  0  0  0  0
    8.2866  -18.2925   19.4224 C   0  0  2  0  0  0  0  0  0  0  0  0
    7.4961  -17.9355   18.2376 N   0  0  0  0  0  0  0  0  0  0  0  0
    7.6328  -17.7199   20.6019 C   0  0  0  0  0  0  0  0  0  0  0  0
    7.0329  -16.6036   20.5168 O   0  0  0  0  0  0  0  0  0  0  0  0
    7.3491  -19.7814   24.3811 O   0  0  0  0  0  0  0  0  0  0  0  0
    6.3588  -19.0956   23.7140 C   0  0  0  0  0  0  0  0  0  0  0  0
    6.8699  -17.9176   22.9363 C   0  0  2  0  0  0  0  0  0  0  0  0
    7.6587  -18.3982   21.8462 N   0  0  0  0  0  0  0  0  0  0  0  0
    7.6407  -16.9701   23.7453 C   0  0  0  0  0  0  0  0  0  0  0  0
    8.9118  -17.0024   23.6248 O   0  0  0  0  0  0  0  0  0  0  0  0
    5.5874  -11.3204   26.7714 C   0  0  0  0  0  0  0  0  0  0  0  0
    7.1620  -11.6974   27.5066 S   0  0  0  0  0  0  0  0  0  0  0  0
    8.0210  -13.0938   26.7776 C   0  0  0  0  0  0  0  0  0  0  0  0
    7.1896  -13.9890   25.9611 C   0  0  0  0  0  0  0  0  0  0  0  0
    7.9732  -15.1229   25.3520 C   0  0  2  0  0  0  0  0  0  0  0  0
    7.0872  -16.0354   24.6374 N   0  0  0  0  0  0  0  0  0  0  0  0
    8.8204  -15.8693   26.3067 C   0  0  0  0  0  0  0  0  0  0  0  0
    9.9342  -15.4970   26.7349 O   0  0  0  0  0  0  0  0  0  0  0  0
    8.3935  -17.1179   26.8183 O   0  0  0  0  0  0  0  0  0  0  0  0
  2  1  1  0
  2  3  1  0
  3  5  1  0
  3  4  1  6
  5  6  2  0
  7  8  1  0
  9  8  1  1
 10  9  1  0
 10  5  1  0
 11 18  1  0
 11  9  1  0
 12 11  2  0
 13 14  1  0
 15 14  1  0
 16 15  1  0
 17 18  1  0
 17 16  1  1
 19 17  1  0
 20 19  2  0
 21 19  1  0
M  END
$$$$
