SSM.pdb
     RDKit          3D

 21 20  0  0  1  0  0  0  0  0999 V2000
   10.8728  -20.8068   22.3398 O   0  0  0  0  0  0  0  0  0  0  0  0
   10.3670  -19.5385   22.5108 C   0  0  0  0  0  0  0  0  0  0  0  0
   10.2098  -18.8848   21.1519 C   0  0  2  0  0  0  0  0  0  0  0  0
   11.4649  -19.0123   20.4004 N   0  0  0  0  0  0  0  0  0  0  0  0
    9.9316  -17.4595   21.3453 C   0  0  0  0  0  0  0  0  0  0  0  0
   10.8870  -16.6473   21.5470 O   0  0  0  0  0  0  0  0  0  0  0  0
    5.9901  -16.0192   21.4300 O   0  0  0  0  0  0  0  0  0  0  0  0
    7.0037  -15.2545   20.8971 C   0  0  0  0  0  0  0  0  0  0  0  0
    8.3541  -15.5711   21.4714 C   0  0  2  0  0  0  0  0  0  0  0  0
    8.6023  -16.9688   21.3096 N   0  0  0  0  0  0  0  0  0  0  0  0
    8.4986  -15.1865   22.8777 C   0  0  0  0  0  0  0  0  0  0  0  0
    8.3710  -13.9468   23.1574 O   0  0  0  0  0  0  0  0  0  0  0  0
    6.5552  -10.8328   26.5093 C   0  0  0  0  0  0  0  0  0  0  0  0
    6.6047  -12.5907   26.7719 S   0  0  0  0  0  0  0  0  0  0  0  0
    7.5322  -13.5120   25.5429 C   0  0  0  0  0  0  0  0  0  0  0  0
    7.6281  -14.9591   25.7797 C   0  0  0  0  0  0  0  0  0  0  0  0
    8.9231  -15.5494   25.2844 C   0  0  2  0  0  0  0  0  0  0  0  0
    8.7653  -16.0759   23.9331 N   0  0  0  0  0  0  0  0  0  0  0  0
    9.5120  -16.5752   26.1717 C   0  0  0  0  0  0  0  0  0  0  0  0
    9.4578  -17.8107   25.9903 O   0  0  0  0  0  0  0  0  0  0  0  0
   10.2097  -16.1939   27.3425 O   0  0  0  0  0  0  0  0  0  0  0  0
  2  1  1  0
  2  3  1  0
  3  5  1  0
  3  4  1  6
  5  6  2  0
  7  8  1  0
  9  8  1  1
 10  9  1  0
 10  5  1  0
 11 18  1  0
 11  9  1  0
 12 11  2  0
 13 14  1  0
 15 14  1  0
 16 15  1  0
 17 18  1  0
 17 16  1  1
 19 17  1  0
 20 19  2  0
 21 19  1  0
M  END
$$$$
