QFY.pdb
     RDKit          3D

 33 34  0  0  1  0  0  0  0  0999 V2000
    9.6540  -14.4868   15.0141 N   0  0  0  0  0  0  0  0  0  0  0  0
    8.2466  -14.4574   15.2991 C   0  0  0  0  0  0  0  0  0  0  0  0
    7.4831  -14.6197   14.3338 O   0  0  0  0  0  0  0  0  0  0  0  0
    7.8597  -14.2374   16.6919 C   0  0  0  0  0  0  0  0  0  0  0  0
    8.9697  -14.2251   17.6934 C   0  0  0  0  0  0  0  0  0  0  0  0
    8.9590  -15.3494   18.6614 C   0  0  2  0  0  0  0  0  0  0  0  0
    7.8524  -16.2595   18.5750 N   0  0  0  0  0  0  0  0  0  0  0  0
    9.0722  -14.8573   20.0832 C   0  0  0  0  0  0  0  0  0  0  0  0
   10.0453  -14.1386   20.4067 O   0  0  0  0  0  0  0  0  0  0  0  0
    8.0908  -15.1991   21.0546 N   0  0  0  0  0  0  0  0  0  0  0  0
    8.2254  -14.8561   22.4561 C   0  0  1  0  0  0  0  0  0  0  0  0
    6.8414  -14.6955   23.0335 C   0  0  0  0  0  0  0  0  0  0  0  0
    6.8044  -13.8505   24.2298 C   0  0  0  0  0  0  0  0  0  0  0  0
    6.1417  -14.2991   25.3505 C   0  0  0  0  0  0  0  0  0  0  0  0
    6.0826  -13.5282   26.5069 C   0  0  0  0  0  0  0  0  0  0  0  0
    6.6958  -12.2886   26.5441 C   0  0  0  0  0  0  0  0  0  0  0  0
    7.3693  -11.8205   25.4212 C   0  0  0  0  0  0  0  0  0  0  0  0
    7.4082  -12.6145   24.2865 C   0  0  0  0  0  0  0  0  0  0  0  0
    9.0373  -15.8569   23.1993 C   0  0  0  0  0  0  0  0  0  0  0  0
   10.2481  -16.0690   22.9451 O   0  0  0  0  0  0  0  0  0  0  0  0
   11.7656  -16.2606   31.2187 O   0  0  0  0  0  0  0  0  0  0  0  0
   11.1979  -16.0536   29.9721 C   0  0  0  0  0  0  0  0  0  0  0  0
   10.8124  -14.7911   29.5917 C   0  0  0  0  0  0  0  0  0  0  0  0
   10.2523  -14.6088   28.3527 C   0  0  0  0  0  0  0  0  0  0  0  0
   10.0529  -15.6323   27.4598 C   0  0  0  0  0  0  0  0  0  0  0  0
    9.4457  -15.4530   26.1249 C   0  0  0  0  0  0  0  0  0  0  0  0
    9.0193  -16.7535   25.5608 C   0  0  2  0  0  0  0  0  0  0  0  0
    8.4206  -16.5898   24.2234 N   0  0  0  0  0  0  0  0  0  0  0  0
    8.0917  -17.4950   26.4438 C   0  0  0  0  0  0  0  0  0  0  0  0
    6.8714  -17.2307   26.5707 O   0  0  0  0  0  0  0  0  0  0  0  0
   10.4512  -16.9123   27.8627 C   0  0  0  0  0  0  0  0  0  0  0  0
   11.0128  -17.0954   29.1046 C   0  0  0  0  0  0  0  0  0  0  0  0
    8.6165  -18.5630   27.1872 O   0  0  0  0  0  0  0  0  0  0  0  0
  2  1  1  0
  3  2  2  0
  4  2  1  0
  5  4  1  0
  6  5  1  0
  6  7  1  1
  8  6  1  0
  8  9  2  0
 10  8  1  0
 11 10  1  0
 11 12  1  1
 12 13  1  0
 13 18  1  0
 13 14  2  0
 14 15  1  0
 15 16  2  0
 17 16  1  0
 18 17  2  0
 19 11  1  0
 20 19  2  0
 22 21  1  0
 22 32  2  0
 23 22  1  0
 24 23  2  0
 24 25  1  0
 25 31  2  0
 26 25  1  0
 27 26  1  1
 27 28  1  0
 28 19  1  0
 29 33  1  0
 29 27  1  0
 30 29  2  0
 31 32  1  0
M  END
$$$$
