QFY.pdb
     RDKit          3D

 33 34  0  0  1  0  0  0  0  0999 V2000
    7.8223  -12.4467   17.3122 N   0  0  0  0  0  0  0  0  0  0  0  0
    7.9243  -13.8457   17.0038 C   0  0  0  0  0  0  0  0  0  0  0  0
    8.1452  -14.1359   15.8171 O   0  0  0  0  0  0  0  0  0  0  0  0
    7.7553  -14.7807   18.1151 C   0  0  0  0  0  0  0  0  0  0  0  0
    8.9945  -15.1456   18.8676 C   0  0  0  0  0  0  0  0  0  0  0  0
    8.7880  -16.0572   20.0198 C   0  0  2  0  0  0  0  0  0  0  0  0
    7.5979  -16.8594   19.9975 N   0  0  0  0  0  0  0  0  0  0  0  0
    8.8474  -15.3142   21.3317 C   0  0  0  0  0  0  0  0  0  0  0  0
    9.8785  -14.6655   21.6217 O   0  0  0  0  0  0  0  0  0  0  0  0
    7.7507  -15.3427   22.2373 N   0  0  0  0  0  0  0  0  0  0  0  0
    7.8224  -14.7776   23.5698 C   0  0  1  0  0  0  0  0  0  0  0  0
    6.7858  -13.6870   23.6720 C   0  0  0  0  0  0  0  0  0  0  0  0
    6.7919  -12.9974   24.9646 C   0  0  0  0  0  0  0  0  0  0  0  0
    5.8995  -13.3856   25.9389 C   0  0  0  0  0  0  0  0  0  0  0  0
    5.8721  -12.7573   27.1796 C   0  0  0  0  0  0  0  0  0  0  0  0
    6.7511  -11.7241   27.4514 C   0  0  0  0  0  0  0  0  0  0  0  0
    7.6588  -11.3196   26.4788 C   0  0  0  0  0  0  0  0  0  0  0  0
    7.6584  -11.9675   25.2541 C   0  0  0  0  0  0  0  0  0  0  0  0
    7.6606  -15.8145   24.6242 C   0  0  0  0  0  0  0  0  0  0  0  0
    6.6152  -16.4986   24.7455 O   0  0  0  0  0  0  0  0  0  0  0  0
    8.4472  -22.7726   29.4013 O   0  0  0  0  0  0  0  0  0  0  0  0
    8.4562  -21.7126   28.5094 C   0  0  0  0  0  0  0  0  0  0  0  0
    7.2858  -21.0638   28.1986 C   0  0  0  0  0  0  0  0  0  0  0  0
    7.3177  -20.0167   27.3128 C   0  0  0  0  0  0  0  0  0  0  0  0
    8.4703  -19.5754   26.7115 C   0  0  0  0  0  0  0  0  0  0  0  0
    8.5198  -18.4536   25.7514 C   0  0  0  0  0  0  0  0  0  0  0  0
    8.7572  -17.1710   26.4514 C   0  0  2  0  0  0  0  0  0  0  0  0
    8.7211  -16.0323   25.5154 N   0  0  0  0  0  0  0  0  0  0  0  0
   10.0204  -17.1535   27.2219 C   0  0  0  0  0  0  0  0  0  0  0  0
   11.1630  -17.0846   26.7074 O   0  0  0  0  0  0  0  0  0  0  0  0
    9.6539  -20.2471   27.0390 C   0  0  0  0  0  0  0  0  0  0  0  0
    9.6223  -21.2968   27.9269 C   0  0  0  0  0  0  0  0  0  0  0  0
    9.9292  -17.2194   28.6206 O   0  0  0  0  0  0  0  0  0  0  0  0
  2  1  1  0
  3  2  2  0
  4  2  1  0
  5  4  1  0
  6  5  1  0
  6  7  1  6
  8  6  1  0
  8  9  2  0
 10  8  1  0
 11 10  1  0
 11 12  1  6
 12 13  1  0
 13 18  1  0
 13 14  2  0
 14 15  1  0
 15 16  2  0
 17 16  1  0
 18 17  2  0
 19 11  1  0
 20 19  2  0
 22 21  1  0
 22 32  2  0
 23 22  1  0
 24 23  2  0
 24 25  1  0
 25 31  2  0
 26 25  1  0
 27 26  1  6
 27 28  1  0
 28 19  1  0
 29 33  1  0
 29 27  1  0
 30 29  2  0
 31 32  1  0
M  END
$$$$
