QFY.pdb
     RDKit          3D

 33 34  0  0  1  0  0  0  0  0999 V2000
   11.3450  -17.0502   15.4545 N   0  0  0  0  0  0  0  0  0  0  0  0
   10.1819  -17.7634   15.9030 C   0  0  0  0  0  0  0  0  0  0  0  0
    9.3101  -17.9927   15.0494 O   0  0  0  0  0  0  0  0  0  0  0  0
   10.1436  -18.1422   17.3148 C   0  0  0  0  0  0  0  0  0  0  0  0
    9.9805  -17.0258   18.2956 C   0  0  0  0  0  0  0  0  0  0  0  0
    9.7900  -17.4468   19.7055 C   0  0  2  0  0  0  0  0  0  0  0  0
    8.6515  -18.2772   19.9784 N   0  0  0  0  0  0  0  0  0  0  0  0
    9.7603  -16.2614   20.6384 C   0  0  0  0  0  0  0  0  0  0  0  0
   10.7055  -15.4403   20.6153 O   0  0  0  0  0  0  0  0  0  0  0  0
    8.6761  -16.0678   21.5388 N   0  0  0  0  0  0  0  0  0  0  0  0
    8.6462  -14.9887   22.5057 C   0  0  1  0  0  0  0  0  0  0  0  0
    7.2303  -14.8479   23.0059 C   0  0  0  0  0  0  0  0  0  0  0  0
    7.0910  -13.8753   24.0927 C   0  0  0  0  0  0  0  0  0  0  0  0
    6.5071  -14.2678   25.2765 C   0  0  0  0  0  0  0  0  0  0  0  0
    6.3557  -13.3758   26.3332 C   0  0  0  0  0  0  0  0  0  0  0  0
    6.7949  -12.0703   26.2049 C   0  0  0  0  0  0  0  0  0  0  0  0
    7.3868  -11.6575   25.0162 C   0  0  0  0  0  0  0  0  0  0  0  0
    7.5216  -12.5722   23.9844 C   0  0  0  0  0  0  0  0  0  0  0  0
    9.6192  -15.2032   23.6103 C   0  0  0  0  0  0  0  0  0  0  0  0
   10.2851  -14.2673   24.1164 O   0  0  0  0  0  0  0  0  0  0  0  0
   10.4168  -14.1453   31.0757 O   0  0  0  0  0  0  0  0  0  0  0  0
   10.2296  -14.9157   29.9396 C   0  0  0  0  0  0  0  0  0  0  0  0
   10.6034  -16.2376   29.9344 C   0  0  0  0  0  0  0  0  0  0  0  0
   10.4089  -16.9820   28.7986 C   0  0  0  0  0  0  0  0  0  0  0  0
    9.8541  -16.4720   27.6512 C   0  0  0  0  0  0  0  0  0  0  0  0
    9.6438  -17.2591   26.4186 C   0  0  0  0  0  0  0  0  0  0  0  0
   10.5442  -16.7968   25.3383 C   0  0  2  0  0  0  0  0  0  0  0  0
    9.7956  -16.5044   24.1021 N   0  0  0  0  0  0  0  0  0  0  0  0
   11.6444  -17.7442   25.0521 C   0  0  0  0  0  0  0  0  0  0  0  0
   12.5479  -18.0478   25.8685 O   0  0  0  0  0  0  0  0  0  0  0  0
    9.4787  -15.1237   27.6732 C   0  0  0  0  0  0  0  0  0  0  0  0
    9.6733  -14.3771   28.8116 C   0  0  0  0  0  0  0  0  0  0  0  0
   11.6755  -18.3392   23.7817 O   0  0  0  0  0  0  0  0  0  0  0  0
  2  1  1  0
  3  2  2  0
  4  2  1  0
  5  4  1  0
  6  5  1  0
  6  7  1  6
  8  6  1  0
  8  9  2  0
 10  8  1  0
 11 10  1  0
 11 12  1  1
 12 13  1  0
 13 18  1  0
 13 14  2  0
 14 15  1  0
 15 16  2  0
 17 16  1  0
 18 17  2  0
 19 11  1  0
 20 19  2  0
 22 21  1  0
 22 32  2  0
 23 22  1  0
 24 23  2  0
 24 25  1  0
 25 31  2  0
 26 25  1  0
 27 26  1  1
 27 28  1  0
 28 19  1  0
 29 33  1  0
 29 27  1  0
 30 29  2  0
 31 32  1  0
M  END
$$$$
