IIM.pdb
     RDKit          3D

 25 24  0  0  1  0  0  0  0  0999 V2000
    7.7502  -11.6870   19.0969 C   0  0  0  0  0  0  0  0  0  0  0  0
    8.0103  -13.1509   19.0092 C   0  0  0  0  0  0  0  0  0  0  0  0
    7.8798  -13.9104   20.2848 C   0  0  2  0  0  0  0  0  0  0  0  0
    8.8980  -13.3717   21.2852 C   0  0  0  0  0  0  0  0  0  0  0  0
    8.1207  -15.3759   20.1623 C   0  0  2  0  0  0  0  0  0  0  0  0
    7.2281  -15.9788   19.1947 N   0  0  0  0  0  0  0  0  0  0  0  0
    8.0797  -16.0992   21.4473 C   0  0  0  0  0  0  0  0  0  0  0  0
    6.9481  -16.3364   21.9415 O   0  0  0  0  0  0  0  0  0  0  0  0
   10.0015  -20.8122   22.4276 C   0  0  0  0  0  0  0  0  0  0  0  0
    9.1408  -19.5265   22.3789 C   0  0  0  0  0  0  0  0  0  0  0  0
    9.7546  -18.5734   23.3631 C   0  0  2  0  0  0  0  0  0  0  0  0
    9.7606  -19.2998   24.7017 C   0  0  0  0  0  0  0  0  0  0  0  0
    9.1384  -17.2198   23.4479 C   0  0  2  0  0  0  0  0  0  0  0  0
    9.2418  -16.5322   22.1403 N   0  0  0  0  0  0  0  0  0  0  0  0
    9.6406  -16.3298   24.4928 C   0  0  0  0  0  0  0  0  0  0  0  0
   10.8459  -15.8837   24.4454 O   0  0  0  0  0  0  0  0  0  0  0  0
    5.4941  -12.5841   26.6279 C   0  0  0  0  0  0  0  0  0  0  0  0
    7.0413  -11.7172   26.2520 S   0  0  0  0  0  0  0  0  0  0  0  0
    8.3112  -12.9679   25.8010 C   0  0  0  0  0  0  0  0  0  0  0  0
    8.5929  -13.8671   26.9625 C   0  0  0  0  0  0  0  0  0  0  0  0
    9.5060  -15.0211   26.6556 C   0  0  2  0  0  0  0  0  0  0  0  0
    8.8994  -15.8758   25.6144 N   0  0  0  0  0  0  0  0  0  0  0  0
    9.8455  -15.8382   27.8414 C   0  0  0  0  0  0  0  0  0  0  0  0
   10.5165  -15.3222   28.7850 O   0  0  0  0  0  0  0  0  0  0  0  0
    9.4692  -17.1570   27.9906 O   0  0  0  0  0  0  0  0  0  0  0  0
  2  1  1  0
  3  2  1  0
  3  5  1  0
  3  4  1  1
  5  6  1  6
  7  5  1  0
  7  8  2  0
 10  9  1  0
 11 13  1  0
 11 10  1  0
 11 12  1  1
 13 14  1  6
 14  7  1  0
 15 13  1  0
 16 15  2  0
 18 17  1  0
 19 18  1  0
 21 20  1  1
 20 19  1  0
 21 22  1  0
 22 15  1  0
 23 25  1  0
 23 21  1  0
 24 23  2  0
M  END
$$$$
