IIM.pdb
     RDKit          3D

 25 24  0  0  1  0  0  0  0  0999 V2000
    6.3885  -11.0350   27.6864 C   0  0  0  0  0  0  0  0  0  0  0  0
    5.8085  -12.0540   26.7679 C   0  0  0  0  0  0  0  0  0  0  0  0
    6.7823  -12.9940   26.1441 C   0  0  2  0  0  0  0  0  0  0  0  0
    7.7403  -12.1978   25.2630 C   0  0  0  0  0  0  0  0  0  0  0  0
    6.1678  -14.0442   25.2838 C   0  0  2  0  0  0  0  0  0  0  0  0
    5.2450  -14.8691   26.0350 N   0  0  0  0  0  0  0  0  0  0  0  0
    7.1484  -14.8707   24.5548 C   0  0  0  0  0  0  0  0  0  0  0  0
    7.4506  -15.9844   25.0538 O   0  0  0  0  0  0  0  0  0  0  0  0
    7.8735  -13.4037   19.5722 C   0  0  0  0  0  0  0  0  0  0  0  0
    7.6010  -14.6569   20.4389 C   0  0  0  0  0  0  0  0  0  0  0  0
    8.8621  -14.9145   21.2117 C   0  0  2  0  0  0  0  0  0  0  0  0
    9.6744  -15.8928   20.3736 C   0  0  0  0  0  0  0  0  0  0  0  0
    8.6951  -15.3677   22.6210 C   0  0  2  0  0  0  0  0  0  0  0  0
    7.7567  -14.4714   23.3346 N   0  0  0  0  0  0  0  0  0  0  0  0
    9.9123  -15.5110   23.4172 C   0  0  0  0  0  0  0  0  0  0  0  0
   10.6197  -14.4799   23.7180 O   0  0  0  0  0  0  0  0  0  0  0  0
    9.3585  -13.9518   27.8799 C   0  0  0  0  0  0  0  0  0  0  0  0
   11.0936  -14.2722   28.2960 S   0  0  0  0  0  0  0  0  0  0  0  0
   11.8817  -15.1292   26.8731 C   0  0  0  0  0  0  0  0  0  0  0  0
   10.9081  -16.0574   26.2193 C   0  0  0  0  0  0  0  0  0  0  0  0
   11.4359  -16.7653   25.0028 C   0  0  2  0  0  0  0  0  0  0  0  0
   10.4243  -16.7324   23.9266 N   0  0  0  0  0  0  0  0  0  0  0  0
   11.8471  -18.1624   25.2633 C   0  0  0  0  0  0  0  0  0  0  0  0
   11.0367  -19.1076   25.0251 O   0  0  0  0  0  0  0  0  0  0  0  0
   13.0858  -18.5115   25.7602 O   0  0  0  0  0  0  0  0  0  0  0  0
  2  1  1  0
  3  2  1  0
  3  5  1  0
  3  4  1  6
  5  6  1  1
  7  5  1  0
  7  8  2  0
 10  9  1  0
 11 13  1  0
 11 10  1  0
 11 12  1  6
 13 14  1  1
 14  7  1  0
 15 13  1  0
 16 15  2  0
 18 17  1  0
 19 18  1  0
 21 20  1  1
 20 19  1  0
 21 22  1  0
 22 15  1  0
 23 25  1  0
 23 21  1  0
 24 23  2  0
M  END
$$$$
