IIM.pdb
     RDKit          3D

 25 24  0  0  1  0  0  0  0  0999 V2000
    3.4312  -20.8325   23.1766 C   0  0  0  0  0  0  0  0  0  0  0  0
    4.5869  -20.3418   23.9779 C   0  0  0  0  0  0  0  0  0  0  0  0
    5.6413  -19.6137   23.2168 C   0  0  2  0  0  0  0  0  0  0  0  0
    6.1999  -20.5396   22.1405 C   0  0  0  0  0  0  0  0  0  0  0  0
    6.7953  -19.1537   24.0398 C   0  0  2  0  0  0  0  0  0  0  0  0
    6.5178  -19.2788   25.4553 N   0  0  0  0  0  0  0  0  0  0  0  0
    7.2644  -17.7952   23.7073 C   0  0  0  0  0  0  0  0  0  0  0  0
    7.5580  -17.5624   22.5071 O   0  0  0  0  0  0  0  0  0  0  0  0
    5.6338  -13.2836   26.3856 C   0  0  0  0  0  0  0  0  0  0  0  0
    6.0076  -14.0419   25.0889 C   0  0  0  0  0  0  0  0  0  0  0  0
    7.4647  -14.3834   25.2080 C   0  0  2  0  0  0  0  0  0  0  0  0
    8.2169  -13.0678   25.0574 C   0  0  0  0  0  0  0  0  0  0  0  0
    7.9741  -15.4433   24.2935 C   0  0  2  0  0  0  0  0  0  0  0  0
    7.3974  -16.7555   24.6662 N   0  0  0  0  0  0  0  0  0  0  0  0
    9.4252  -15.5775   24.1816 C   0  0  0  0  0  0  0  0  0  0  0  0
   10.1280  -14.6382   23.6545 O   0  0  0  0  0  0  0  0  0  0  0  0
    9.9705  -13.4247   28.8352 C   0  0  0  0  0  0  0  0  0  0  0  0
   11.4354  -14.4910   28.7730 S   0  0  0  0  0  0  0  0  0  0  0  0
   10.8966  -16.1895   28.3202 C   0  0  0  0  0  0  0  0  0  0  0  0
   10.1873  -16.1778   27.0035 C   0  0  0  0  0  0  0  0  0  0  0  0
   11.0188  -16.6373   25.8386 C   0  0  2  0  0  0  0  0  0  0  0  0
   10.1855  -16.6925   24.6199 N   0  0  0  0  0  0  0  0  0  0  0  0
   11.6739  -17.9454   26.0590 C   0  0  0  0  0  0  0  0  0  0  0  0
   11.0489  -19.0126   25.7807 O   0  0  0  0  0  0  0  0  0  0  0  0
   12.9522  -18.0822   26.5593 O   0  0  0  0  0  0  0  0  0  0  0  0
  2  1  1  0
  3  2  1  0
  3  5  1  0
  3  4  1  6
  5  6  1  1
  7  5  1  0
  7  8  2  0
 10  9  1  0
 11 13  1  0
 11 10  1  0
 11 12  1  6
 13 14  1  1
 14  7  1  0
 15 13  1  0
 16 15  2  0
 18 17  1  0
 19 18  1  0
 21 20  1  1
 20 19  1  0
 21 22  1  0
 22 15  1  0
 23 25  1  0
 23 21  1  0
 24 23  2  0
M  END
$$$$
