IIM.pdb
     RDKit          3D

 25 24  0  0  1  0  0  0  0  0999 V2000
    5.8582  -11.2600   27.2521 C   0  0  0  0  0  0  0  0  0  0  0  0
    5.4451  -12.4924   26.5247 C   0  0  0  0  0  0  0  0  0  0  0  0
    6.5485  -13.2828   25.9092 C   0  0  2  0  0  0  0  0  0  0  0  0
    7.3038  -12.3924   24.9272 C   0  0  0  0  0  0  0  0  0  0  0  0
    6.1027  -14.4872   25.1534 C   0  0  2  0  0  0  0  0  0  0  0  0
    5.3865  -15.4115   26.0072 N   0  0  0  0  0  0  0  0  0  0  0  0
    7.1861  -15.1696   24.4207 C   0  0  0  0  0  0  0  0  0  0  0  0
    7.6715  -16.2067   24.9401 O   0  0  0  0  0  0  0  0  0  0  0  0
    7.7278  -13.2172   19.7925 C   0  0  0  0  0  0  0  0  0  0  0  0
    7.5951  -14.6684   20.3145 C   0  0  0  0  0  0  0  0  0  0  0  0
    8.8666  -14.9655   21.0554 C   0  0  2  0  0  0  0  0  0  0  0  0
    9.6689  -15.8949   20.1544 C   0  0  0  0  0  0  0  0  0  0  0  0
    8.7188  -15.4953   22.4398 C   0  0  2  0  0  0  0  0  0  0  0  0
    7.6974  -14.7151   23.1756 N   0  0  0  0  0  0  0  0  0  0  0  0
    9.9323  -15.5718   23.2507 C   0  0  0  0  0  0  0  0  0  0  0  0
   10.6515  -14.5241   23.4481 O   0  0  0  0  0  0  0  0  0  0  0  0
    9.5641  -13.8610   27.8571 C   0  0  0  0  0  0  0  0  0  0  0  0
   11.0174  -14.6678   28.5806 S   0  0  0  0  0  0  0  0  0  0  0  0
   11.7180  -15.8243   27.3348 C   0  0  0  0  0  0  0  0  0  0  0  0
   10.8945  -15.8073   26.0865 C   0  0  0  0  0  0  0  0  0  0  0  0
   11.4185  -16.6760   24.9772 C   0  0  2  0  0  0  0  0  0  0  0  0
   10.4282  -16.7415   23.8828 N   0  0  0  0  0  0  0  0  0  0  0  0
   11.7746  -18.0436   25.4150 C   0  0  0  0  0  0  0  0  0  0  0  0
   12.7355  -18.2106   26.2248 O   0  0  0  0  0  0  0  0  0  0  0  0
   11.1121  -19.1763   24.9892 O   0  0  0  0  0  0  0  0  0  0  0  0
  2  1  1  0
  3  2  1  0
  3  5  1  0
  3  4  1  6
  5  6  1  1
  7  5  1  0
  7  8  2  0
 10  9  1  0
 11 13  1  0
 11 10  1  0
 11 12  1  6
 13 14  1  1
 14  7  1  0
 15 13  1  0
 16 15  2  0
 18 17  1  0
 19 18  1  0
 21 20  1  1
 20 19  1  0
 21 22  1  0
 22 15  1  0
 23 25  1  0
 23 21  1  0
 24 23  2  0
M  END
$$$$
