IIM.pdb
     RDKit          3D

 25 24  0  0  1  0  0  0  0  0999 V2000
    5.3279  -21.3676   24.6895 C   0  0  0  0  0  0  0  0  0  0  0  0
    5.2311  -20.5938   23.4205 C   0  0  0  0  0  0  0  0  0  0  0  0
    6.2113  -19.4824   23.2622 C   0  0  2  0  0  0  0  0  0  0  0  0
    6.0217  -18.4916   24.4067 C   0  0  0  0  0  0  0  0  0  0  0  0
    6.0789  -18.7140   21.9923 C   0  0  2  0  0  0  0  0  0  0  0  0
    6.0748  -19.5923   20.8413 N   0  0  0  0  0  0  0  0  0  0  0  0
    7.0755  -17.6374   21.8369 C   0  0  0  0  0  0  0  0  0  0  0  0
    8.2457  -17.9737   21.5232 O   0  0  0  0  0  0  0  0  0  0  0  0
    6.3593  -12.9059   19.3221 C   0  0  0  0  0  0  0  0  0  0  0  0
    6.9846  -14.2393   19.7988 C   0  0  0  0  0  0  0  0  0  0  0  0
    7.3652  -14.0336   21.2364 C   0  0  2  0  0  0  0  0  0  0  0  0
    8.3800  -12.8980   21.2426 C   0  0  0  0  0  0  0  0  0  0  0  0
    7.8454  -15.2358   21.9735 C   0  0  2  0  0  0  0  0  0  0  0  0
    6.7776  -16.2609   22.0231 N   0  0  0  0  0  0  0  0  0  0  0  0
    8.3593  -15.0205   23.3246 C   0  0  0  0  0  0  0  0  0  0  0  0
    7.6151  -14.4870   24.2277 O   0  0  0  0  0  0  0  0  0  0  0  0
    7.7230  -12.9896   27.7774 C   0  0  0  0  0  0  0  0  0  0  0  0
    9.3288  -13.7628   28.1095 S   0  0  0  0  0  0  0  0  0  0  0  0
    9.2552  -15.5132   27.5517 C   0  0  0  0  0  0  0  0  0  0  0  0
    8.9374  -15.5822   26.0919 C   0  0  0  0  0  0  0  0  0  0  0  0
   10.0690  -15.1885   25.1840 C   0  0  2  0  0  0  0  0  0  0  0  0
    9.6618  -15.3593   23.7741 N   0  0  0  0  0  0  0  0  0  0  0  0
   11.3199  -15.9360   25.4398 C   0  0  0  0  0  0  0  0  0  0  0  0
   12.0191  -15.6547   26.4591 O   0  0  0  0  0  0  0  0  0  0  0  0
   11.7854  -16.9442   24.6214 O   0  0  0  0  0  0  0  0  0  0  0  0
  2  1  1  0
  3  2  1  0
  3  5  1  0
  3  4  1  1
  5  6  1  6
  7  5  1  0
  7  8  2  0
 10  9  1  0
 11 13  1  0
 11 10  1  0
 11 12  1  6
 13 14  1  1
 14  7  1  0
 15 13  1  0
 16 15  2  0
 18 17  1  0
 19 18  1  0
 21 20  1  1
 20 19  1  0
 21 22  1  0
 22 15  1  0
 23 25  1  0
 23 21  1  0
 24 23  2  0
M  END
$$$$
