IIM.pdb
     RDKit          3D

 25 24  0  0  1  0  0  0  0  0999 V2000
    5.9870  -10.8528   27.0402 C   0  0  0  0  0  0  0  0  0  0  0  0
    5.5386  -12.1207   26.3999 C   0  0  0  0  0  0  0  0  0  0  0  0
    6.6137  -12.9578   25.7960 C   0  0  2  0  0  0  0  0  0  0  0  0
    7.3155  -12.1493   24.7091 C   0  0  0  0  0  0  0  0  0  0  0  0
    6.1363  -14.2195   25.1628 C   0  0  2  0  0  0  0  0  0  0  0  0
    5.4085  -15.0417   26.1066 N   0  0  0  0  0  0  0  0  0  0  0  0
    7.1988  -14.9924   24.4922 C   0  0  0  0  0  0  0  0  0  0  0  0
    7.6397  -16.0076   25.0888 O   0  0  0  0  0  0  0  0  0  0  0  0
    7.5817  -13.3290   20.0471 C   0  0  0  0  0  0  0  0  0  0  0  0
    7.5818  -14.8466   20.3523 C   0  0  0  0  0  0  0  0  0  0  0  0
    8.8480  -15.1217   21.1105 C   0  0  2  0  0  0  0  0  0  0  0  0
    9.6214  -16.1371   20.2796 C   0  0  0  0  0  0  0  0  0  0  0  0
    8.6921  -15.5427   22.5309 C   0  0  2  0  0  0  0  0  0  0  0  0
    7.7377  -14.6470   23.2239 N   0  0  0  0  0  0  0  0  0  0  0  0
    9.9130  -15.6426   23.3280 C   0  0  0  0  0  0  0  0  0  0  0  0
   10.6430  -14.6042   23.5353 O   0  0  0  0  0  0  0  0  0  0  0  0
    8.9854  -14.5434   28.2385 C   0  0  0  0  0  0  0  0  0  0  0  0
   10.7145  -14.8390   28.6962 S   0  0  0  0  0  0  0  0  0  0  0  0
   11.4270  -16.0536   27.5140 C   0  0  0  0  0  0  0  0  0  0  0  0
   10.6535  -16.0506   26.2340 C   0  0  0  0  0  0  0  0  0  0  0  0
   11.3130  -16.7857   25.1006 C   0  0  2  0  0  0  0  0  0  0  0  0
   10.4054  -16.8266   23.9356 N   0  0  0  0  0  0  0  0  0  0  0  0
   11.7392  -18.1577   25.4540 C   0  0  0  0  0  0  0  0  0  0  0  0
   11.0827  -19.1491   25.0146 O   0  0  0  0  0  0  0  0  0  0  0  0
   12.8317  -18.4346   26.2494 O   0  0  0  0  0  0  0  0  0  0  0  0
  2  1  1  0
  3  2  1  0
  3  5  1  0
  3  4  1  6
  5  6  1  1
  7  5  1  0
  7  8  2  0
 10  9  1  0
 11 13  1  0
 11 10  1  0
 11 12  1  6
 13 14  1  1
 14  7  1  0
 15 13  1  0
 16 15  2  0
 18 17  1  0
 19 18  1  0
 21 20  1  1
 20 19  1  0
 21 22  1  0
 22 15  1  0
 23 25  1  0
 23 21  1  0
 24 23  2  0
M  END
$$$$
