IIM.pdb
     RDKit          3D

 25 24  0  0  1  0  0  0  0  0999 V2000
    5.9292  -11.0916   27.4259 C   0  0  0  0  0  0  0  0  0  0  0  0
    5.4998  -12.3479   26.7507 C   0  0  0  0  0  0  0  0  0  0  0  0
    6.5859  -13.1468   26.1156 C   0  0  2  0  0  0  0  0  0  0  0  0
    7.3382  -12.2587   25.1292 C   0  0  0  0  0  0  0  0  0  0  0  0
    6.1164  -14.3412   25.3583 C   0  0  2  0  0  0  0  0  0  0  0  0
    5.3774  -15.2497   26.2098 N   0  0  0  0  0  0  0  0  0  0  0  0
    7.1870  -15.0471   24.6292 C   0  0  0  0  0  0  0  0  0  0  0  0
    7.6412  -16.0998   25.1454 O   0  0  0  0  0  0  0  0  0  0  0  0
    7.5836  -13.1563   20.0642 C   0  0  0  0  0  0  0  0  0  0  0  0
    7.5287  -14.6408   20.4994 C   0  0  0  0  0  0  0  0  0  0  0  0
    8.8087  -14.9093   21.2365 C   0  0  2  0  0  0  0  0  0  0  0  0
    9.6229  -15.8322   20.3394 C   0  0  0  0  0  0  0  0  0  0  0  0
    8.6769  -15.4299   22.6260 C   0  0  2  0  0  0  0  0  0  0  0  0
    7.7195  -14.5983   23.3909 N   0  0  0  0  0  0  0  0  0  0  0  0
    9.9093  -15.5672   23.3995 C   0  0  0  0  0  0  0  0  0  0  0  0
   10.4644  -14.5354   23.9298 O   0  0  0  0  0  0  0  0  0  0  0  0
    9.5407  -13.8705   28.5851 C   0  0  0  0  0  0  0  0  0  0  0  0
   10.3908  -15.4678   28.4735 S   0  0  0  0  0  0  0  0  0  0  0  0
   11.2734  -15.5429   26.8624 C   0  0  0  0  0  0  0  0  0  0  0  0
   10.8190  -16.7297   26.0738 C   0  0  0  0  0  0  0  0  0  0  0  0
   11.5417  -16.9318   24.7713 C   0  0  2  0  0  0  0  0  0  0  0  0
   10.5957  -16.7844   23.6461 N   0  0  0  0  0  0  0  0  0  0  0  0
   12.2363  -18.2346   24.6763 C   0  0  0  0  0  0  0  0  0  0  0  0
   11.6745  -19.2007   24.0779 O   0  0  0  0  0  0  0  0  0  0  0  0
   13.4865  -18.4717   25.2092 O   0  0  0  0  0  0  0  0  0  0  0  0
  2  1  1  0
  3  2  1  0
  3  5  1  0
  3  4  1  6
  5  6  1  1
  7  5  1  0
  7  8  2  0
 10  9  1  0
 11 13  1  0
 11 10  1  0
 11 12  1  6
 13 14  1  1
 14  7  1  0
 15 13  1  0
 16 15  2  0
 18 17  1  0
 19 18  1  0
 21 20  1  1
 20 19  1  0
 21 22  1  0
 22 15  1  0
 23 25  1  0
 23 21  1  0
 24 23  2  0
M  END
$$$$
