PNM.pdb
     RDKit          3D

 24 24  0  0  1  0  0  0  0  0999 V2000
    8.4174  -14.5842   18.2875 N   0  0  0  0  0  0  0  0  0  0  0  0
    7.1548  -13.9574   18.1100 C   0  0  0  0  0  0  0  0  0  0  0  0
    7.1463  -12.7286   19.0092 C   0  0  0  0  0  0  0  0  0  0  0  0
    8.5076  -12.6999   19.6747 C   0  0  0  0  0  0  0  0  0  0  0  0
    8.9963  -14.1312   19.4943 C   0  0  1  0  0  0  0  0  0  0  0  0
    8.6724  -14.9743   20.6356 C   0  0  0  0  0  0  0  0  0  0  0  0
    7.6701  -14.7913   21.3854 O   0  0  0  0  0  0  0  0  0  0  0  0
   10.4248  -19.2202   19.8273 N   0  0  0  0  0  0  0  0  0  0  0  0
    9.5176  -18.9304   20.8972 C   0  0  0  0  0  0  0  0  0  0  0  0
    8.3533  -19.3531   20.7681 O   0  0  0  0  0  0  0  0  0  0  0  0
    9.9786  -18.1727   22.0641 C   0  0  0  0  0  0  0  0  0  0  0  0
    9.2927  -16.8440   22.1878 C   0  0  2  0  0  0  0  0  0  0  0  0
    9.5041  -16.0887   20.9707 N   0  0  0  0  0  0  0  0  0  0  0  0
    9.8237  -16.1536   23.3802 C   0  0  0  0  0  0  0  0  0  0  0  0
   10.9444  -15.5951   23.3004 O   0  0  0  0  0  0  0  0  0  0  0  0
    5.7057  -11.7107   27.2011 C   0  0  0  0  0  0  0  0  0  0  0  0
    7.4313  -12.1804   27.0856 S   0  0  0  0  0  0  0  0  0  0  0  0
    7.7717  -13.6537   26.1516 C   0  0  0  0  0  0  0  0  0  0  0  0
    9.1601  -14.0620   25.9396 C   0  0  0  0  0  0  0  0  0  0  0  0
    9.5914  -15.4504   25.8018 C   0  0  2  0  0  0  0  0  0  0  0  0
    9.1024  -16.1100   24.5942 N   0  0  0  0  0  0  0  0  0  0  0  0
    9.3833  -16.3709   26.9261 C   0  0  0  0  0  0  0  0  0  0  0  0
    9.8369  -16.1353   28.0977 O   0  0  0  0  0  0  0  0  0  0  0  0
    8.6733  -17.5830   26.7981 O   0  0  0  0  0  0  0  0  0  0  0  0
  1  2  1  0
  3  2  1  0
  4  3  1  0
  5  4  1  0
  5  1  1  0
  5  6  1  1
  7  6  2  0
  8  9  1  0
  9 10  2  0
 11  9  1  0
 12 11  1  6
 12 13  1  0
 13  6  1  0
 14 15  2  0
 14 12  1  0
 17 16  1  0
 18 17  1  0
 18 19  1  0
 20 19  1  1
 20 22  1  0
 20 21  1  0
 21 14  1  0
 22 24  1  0
 23 22  2  0
M  END
$$$$
