PNM.pdb
     RDKit          3D

 24 24  0  0  1  0  0  0  0  0999 V2000
    8.7640  -14.4360   18.1165 N   0  0  0  0  0  0  0  0  0  0  0  0
    7.4744  -14.0300   17.6802 C   0  0  0  0  0  0  0  0  0  0  0  0
    7.0994  -12.8055   18.5040 C   0  0  0  0  0  0  0  0  0  0  0  0
    8.2875  -12.5412   19.4071 C   0  0  0  0  0  0  0  0  0  0  0  0
    9.0238  -13.8745   19.3869 C   0  0  1  0  0  0  0  0  0  0  0  0
    8.6284  -14.7416   20.4870 C   0  0  0  0  0  0  0  0  0  0  0  0
    7.5317  -14.6360   21.1087 O   0  0  0  0  0  0  0  0  0  0  0  0
   10.2858  -19.9714   23.3308 N   0  0  0  0  0  0  0  0  0  0  0  0
    9.3958  -18.9328   22.9054 C   0  0  0  0  0  0  0  0  0  0  0  0
    8.2676  -18.9175   23.4328 O   0  0  0  0  0  0  0  0  0  0  0  0
    9.8319  -17.9602   21.8994 C   0  0  0  0  0  0  0  0  0  0  0  0
    9.1378  -16.6382   22.0468 C   0  0  2  0  0  0  0  0  0  0  0  0
    9.4948  -15.7906   20.9284 N   0  0  0  0  0  0  0  0  0  0  0  0
    9.5229  -16.0510   23.3458 C   0  0  0  0  0  0  0  0  0  0  0  0
   10.6378  -15.4831   23.4403 O   0  0  0  0  0  0  0  0  0  0  0  0
    6.2350  -11.1378   26.9636 C   0  0  0  0  0  0  0  0  0  0  0  0
    5.8251  -12.5643   25.9593 S   0  0  0  0  0  0  0  0  0  0  0  0
    7.2054  -13.4860   25.3239 C   0  0  0  0  0  0  0  0  0  0  0  0
    7.7924  -14.5490   26.1392 C   0  0  0  0  0  0  0  0  0  0  0  0
    8.9118  -15.3836   25.7109 C   0  0  2  0  0  0  0  0  0  0  0  0
    8.6701  -16.1150   24.4703 N   0  0  0  0  0  0  0  0  0  0  0  0
    9.5028  -16.3224   26.6722 C   0  0  0  0  0  0  0  0  0  0  0  0
    9.9262  -15.9520   27.8200 O   0  0  0  0  0  0  0  0  0  0  0  0
    9.6518  -17.6986   26.4013 O   0  0  0  0  0  0  0  0  0  0  0  0
  1  2  1  0
  3  2  1  0
  4  3  1  0
  5  4  1  0
  5  1  1  0
  5  6  1  1
  7  6  2  0
  8  9  1  0
  9 10  2  0
 11  9  1  0
 12 11  1  6
 12 13  1  0
 13  6  1  0
 14 15  2  0
 14 12  1  0
 17 16  1  0
 18 17  1  0
 18 19  1  0
 20 19  1  1
 20 22  1  0
 20 21  1  0
 21 14  1  0
 22 24  1  0
 23 22  2  0
M  END
$$$$
