PNM.pdb
     RDKit          3D

 24 24  0  0  1  0  0  0  0  0999 V2000
    9.3018  -14.2377   18.1913 N   0  0  0  0  0  0  0  0  0  0  0  0
    8.1036  -14.3192   17.4322 C   0  0  0  0  0  0  0  0  0  0  0  0
    7.1176  -13.3471   18.0657 C   0  0  0  0  0  0  0  0  0  0  0  0
    7.8652  -12.6958   19.2120 C   0  0  0  0  0  0  0  0  0  0  0  0
    9.0168  -13.6637   19.4507 C   0  0  1  0  0  0  0  0  0  0  0  0
    8.7055  -14.6525   20.4724 C   0  0  0  0  0  0  0  0  0  0  0  0
    7.6951  -14.5885   21.2310 O   0  0  0  0  0  0  0  0  0  0  0  0
   11.1678  -18.7163   19.4923 N   0  0  0  0  0  0  0  0  0  0  0  0
   10.1324  -18.6049   20.4758 C   0  0  0  0  0  0  0  0  0  0  0  0
    9.0715  -19.2117   20.2366 O   0  0  0  0  0  0  0  0  0  0  0  0
   10.3534  -17.8077   21.6858 C   0  0  0  0  0  0  0  0  0  0  0  0
    9.3846  -16.6679   21.8017 C   0  0  2  0  0  0  0  0  0  0  0  0
    9.5602  -15.7823   20.6696 N   0  0  0  0  0  0  0  0  0  0  0  0
    9.6160  -15.9877   23.0918 C   0  0  0  0  0  0  0  0  0  0  0  0
   10.6182  -15.2412   23.2049 O   0  0  0  0  0  0  0  0  0  0  0  0
    5.7297  -11.4536   26.2995 C   0  0  0  0  0  0  0  0  0  0  0  0
    7.3471  -11.9950   26.8494 S   0  0  0  0  0  0  0  0  0  0  0  0
    7.5831  -13.7540   26.9462 C   0  0  0  0  0  0  0  0  0  0  0  0
    7.7352  -14.5246   25.7124 C   0  0  0  0  0  0  0  0  0  0  0  0
    8.8587  -15.4170   25.4398 C   0  0  2  0  0  0  0  0  0  0  0  0
    8.7410  -16.1590   24.1876 N   0  0  0  0  0  0  0  0  0  0  0  0
    9.2784  -16.3642   26.4798 C   0  0  0  0  0  0  0  0  0  0  0  0
    9.2569  -17.6300   26.3030 O   0  0  0  0  0  0  0  0  0  0  0  0
    9.7314  -15.9508   27.7501 O   0  0  0  0  0  0  0  0  0  0  0  0
  1  2  1  0
  3  2  1  0
  4  3  1  0
  5  4  1  0
  5  1  1  0
  5  6  1  1
  7  6  2  0
  8  9  1  0
  9 10  2  0
 11  9  1  0
 12 11  1  6
 12 13  1  0
 13  6  1  0
 14 15  2  0
 14 12  1  0
 17 16  1  0
 18 17  1  0
 18 19  1  0
 20 19  1  1
 20 22  1  0
 20 21  1  0
 21 14  1  0
 22 24  1  0
 23 22  2  0
M  END
$$$$
