PNM.pdb
     RDKit          3D

 24 24  0  0  1  0  0  0  0  0999 V2000
    9.5064  -14.2224   18.6109 N   0  0  0  0  0  0  0  0  0  0  0  0
    8.4127  -14.3776   17.7176 C   0  0  0  0  0  0  0  0  0  0  0  0
    7.2997  -13.4721   18.2275 C   0  0  0  0  0  0  0  0  0  0  0  0
    7.8655  -12.7781   19.4503 C   0  0  0  0  0  0  0  0  0  0  0  0
    9.0405  -13.6716   19.8259 C   0  0  1  0  0  0  0  0  0  0  0  0
    8.6756  -14.6814   20.8087 C   0  0  0  0  0  0  0  0  0  0  0  0
    7.5767  -14.6905   21.4355 O   0  0  0  0  0  0  0  0  0  0  0  0
    9.0323  -19.4394   20.5018 N   0  0  0  0  0  0  0  0  0  0  0  0
   10.1035  -18.5222   20.7529 C   0  0  0  0  0  0  0  0  0  0  0  0
   10.9034  -18.3327   19.8173 O   0  0  0  0  0  0  0  0  0  0  0  0
   10.2138  -17.8635   22.0576 C   0  0  0  0  0  0  0  0  0  0  0  0
    9.2901  -16.6878   22.1821 C   0  0  2  0  0  0  0  0  0  0  0  0
    9.5771  -15.7476   21.1190 N   0  0  0  0  0  0  0  0  0  0  0  0
    9.4667  -16.0951   23.5230 C   0  0  0  0  0  0  0  0  0  0  0  0
   10.5400  -15.4971   23.7777 O   0  0  0  0  0  0  0  0  0  0  0  0
    6.2281  -11.0654   26.2752 C   0  0  0  0  0  0  0  0  0  0  0  0
    6.3453  -12.7903   25.8036 S   0  0  0  0  0  0  0  0  0  0  0  0
    7.3307  -13.8183   26.8672 C   0  0  0  0  0  0  0  0  0  0  0  0
    7.4839  -15.2377   26.5493 C   0  0  0  0  0  0  0  0  0  0  0  0
    8.6654  -15.8084   25.9079 C   0  0  2  0  0  0  0  0  0  0  0  0
    8.4624  -16.1868   24.5122 N   0  0  0  0  0  0  0  0  0  0  0  0
    9.3653  -16.9152   26.5711 C   0  0  0  0  0  0  0  0  0  0  0  0
    9.7746  -16.8411   27.7798 O   0  0  0  0  0  0  0  0  0  0  0  0
    9.6423  -18.1384   25.9255 O   0  0  0  0  0  0  0  0  0  0  0  0
  1  2  1  0
  3  2  1  0
  4  3  1  0
  5  4  1  0
  5  1  1  0
  5  6  1  1
  7  6  2  0
  8  9  1  0
  9 10  2  0
 11  9  1  0
 12 11  1  1
 12 13  1  0
 13  6  1  0
 14 15  2  0
 14 12  1  0
 17 16  1  0
 18 17  1  0
 18 19  1  0
 20 19  1  1
 20 22  1  0
 20 21  1  0
 21 14  1  0
 22 24  1  0
 23 22  2  0
M  END
$$$$
