PNM.pdb
     RDKit          3D

 24 24  0  0  1  0  0  0  0  0999 V2000
    9.2815  -14.5318   18.9291 N   0  0  0  0  0  0  0  0  0  0  0  0
    8.2072  -14.5616   18.0000 C   0  0  0  0  0  0  0  0  0  0  0  0
    7.3648  -13.3212   18.2656 C   0  0  0  0  0  0  0  0  0  0  0  0
    8.0668  -12.5832   19.3879 C   0  0  0  0  0  0  0  0  0  0  0  0
    8.9515  -13.6645   19.9947 C   0  0  1  0  0  0  0  0  0  0  0  0
    8.3074  -14.3459   21.1080 C   0  0  0  0  0  0  0  0  0  0  0  0
    7.5755  -13.7659   21.9613 O   0  0  0  0  0  0  0  0  0  0  0  0
    8.0058  -19.0789   20.1779 N   0  0  0  0  0  0  0  0  0  0  0  0
    7.4051  -18.3933   21.2828 C   0  0  0  0  0  0  0  0  0  0  0  0
    6.1666  -18.2663   21.2507 O   0  0  0  0  0  0  0  0  0  0  0  0
    8.2426  -17.8843   22.3726 C   0  0  0  0  0  0  0  0  0  0  0  0
    8.1212  -16.3980   22.5377 C   0  0  2  0  0  0  0  0  0  0  0  0
    8.4799  -15.7539   21.2915 N   0  0  0  0  0  0  0  0  0  0  0  0
    8.9871  -15.9804   23.6587 C   0  0  0  0  0  0  0  0  0  0  0  0
    9.8821  -15.1287   23.4401 O   0  0  0  0  0  0  0  0  0  0  0  0
    5.7851  -12.4313   26.5550 C   0  0  0  0  0  0  0  0  0  0  0  0
    7.5103  -11.9479   26.5945 S   0  0  0  0  0  0  0  0  0  0  0  0
    8.6845  -13.2425   26.2716 C   0  0  0  0  0  0  0  0  0  0  0  0
    8.2743  -14.6372   26.4319 C   0  0  0  0  0  0  0  0  0  0  0  0
    9.1473  -15.7801   26.1779 C   0  0  2  0  0  0  0  0  0  0  0  0
    8.8284  -16.5147   24.9568 N   0  0  0  0  0  0  0  0  0  0  0  0
    9.3539  -16.7641   27.2474 C   0  0  0  0  0  0  0  0  0  0  0  0
    8.8098  -17.9206   27.2289 O   0  0  0  0  0  0  0  0  0  0  0  0
   10.1620  -16.5072   28.3746 O   0  0  0  0  0  0  0  0  0  0  0  0
  1  2  1  0
  3  2  1  0
  4  3  1  0
  5  4  1  0
  5  1  1  0
  5  6  1  1
  7  6  2  0
  8  9  1  0
  9 10  2  0
 11  9  1  0
 12 11  1  6
 12 13  1  0
 13  6  1  0
 14 15  2  0
 14 12  1  0
 17 16  1  0
 18 17  1  0
 18 19  1  0
 20 19  1  1
 20 22  1  0
 20 21  1  0
 21 14  1  0
 22 24  1  0
 23 22  2  0
M  END
$$$$
