PNM.pdb
     RDKit          3D

 24 24  0  0  1  0  0  0  0  0999 V2000
    9.1365  -14.4963   18.0315 N   0  0  0  0  0  0  0  0  0  0  0  0
    7.8395  -14.3815   17.4633 C   0  0  0  0  0  0  0  0  0  0  0  0
    7.1265  -13.2702   18.2217 C   0  0  0  0  0  0  0  0  0  0  0  0
    8.1324  -12.7538   19.2309 C   0  0  0  0  0  0  0  0  0  0  0  0
    9.1398  -13.8936   19.3096 C   0  0  1  0  0  0  0  0  0  0  0  0
    8.8351  -14.8280   20.3831 C   0  0  0  0  0  0  0  0  0  0  0  0
    7.8106  -14.7449   21.1206 O   0  0  0  0  0  0  0  0  0  0  0  0
   11.5733  -18.8203   19.7240 N   0  0  0  0  0  0  0  0  0  0  0  0
   10.4490  -18.7037   20.6038 C   0  0  0  0  0  0  0  0  0  0  0  0
    9.4277  -19.3424   20.2876 O   0  0  0  0  0  0  0  0  0  0  0  0
   10.5402  -17.8654   21.8026 C   0  0  0  0  0  0  0  0  0  0  0  0
    9.5110  -16.7738   21.8139 C   0  0  2  0  0  0  0  0  0  0  0  0
    9.7134  -15.9224   20.6603 N   0  0  0  0  0  0  0  0  0  0  0  0
    9.6270  -16.0357   23.0876 C   0  0  0  0  0  0  0  0  0  0  0  0
   10.6290  -15.3020   23.2665 O   0  0  0  0  0  0  0  0  0  0  0  0
    6.6470  -10.6107   26.3768 C   0  0  0  0  0  0  0  0  0  0  0  0
    6.0516  -12.2962   26.5045 S   0  0  0  0  0  0  0  0  0  0  0  0
    7.3034  -13.5542   26.6007 C   0  0  0  0  0  0  0  0  0  0  0  0
    7.5078  -14.4490   25.4619 C   0  0  0  0  0  0  0  0  0  0  0  0
    8.6543  -15.3426   25.3205 C   0  0  2  0  0  0  0  0  0  0  0  0
    8.6430  -16.1383   24.0961 N   0  0  0  0  0  0  0  0  0  0  0  0
    8.9924  -16.2409   26.4312 C   0  0  0  0  0  0  0  0  0  0  0  0
    9.0944  -15.8308   27.6375 O   0  0  0  0  0  0  0  0  0  0  0  0
    9.2338  -17.6189   26.2511 O   0  0  0  0  0  0  0  0  0  0  0  0
  1  2  1  0
  3  2  1  0
  4  3  1  0
  5  4  1  0
  5  1  1  0
  5  6  1  1
  7  6  2  0
  8  9  1  0
  9 10  2  0
 11  9  1  0
 12 11  1  1
 12 13  1  0
 13  6  1  0
 14 15  2  0
 14 12  1  0
 17 16  1  0
 18 17  1  0
 18 19  1  0
 20 19  1  1
 20 22  1  0
 20 21  1  0
 21 14  1  0
 22 24  1  0
 23 22  2  0
M  END
$$$$
