NWL.pdb
     RDKit          3D

 31 32  0  0  1  0  0  0  0  0999 V2000
   10.7492  -17.0231   19.0742 N   0  0  0  0  0  0  0  0  0  0  0  0
    9.6322  -16.1585   19.3221 C   0  0  0  0  0  0  0  0  0  0  0  0
    9.0231  -15.6995   18.3397 O   0  0  0  0  0  0  0  0  0  0  0  0
    9.2127  -15.8198   20.6876 C   0  0  0  0  0  0  0  0  0  0  0  0
   10.1527  -16.4136   21.6836 C   0  0  2  0  0  0  0  0  0  0  0  0
   10.1768  -17.8410   21.6040 N   0  0  0  0  0  0  0  0  0  0  0  0
    9.7989  -15.9601   23.0749 C   0  0  0  0  0  0  0  0  0  0  0  0
    9.3017  -14.8294   23.2854 O   0  0  0  0  0  0  0  0  0  0  0  0
   10.0304  -16.8209   24.1632 N   0  0  0  0  0  0  0  0  0  0  0  0
    9.2838  -16.6492   25.4261 C   0  0  1  0  0  0  0  0  0  0  0  0
    7.8392  -16.5097   25.1374 C   0  0  0  0  0  0  0  0  0  0  0  0
    7.3692  -15.1853   24.7431 C   0  0  0  0  0  0  0  0  0  0  0  0
    6.9846  -14.8332   23.4688 C   0  0  0  0  0  0  0  0  0  0  0  0
    6.6358  -13.5377   23.4439 N   0  0  0  0  0  0  0  0  0  0  0  0
    6.7837  -13.0219   24.6905 C   0  0  0  0  0  0  0  0  0  0  0  0
    6.5535  -11.7717   25.2009 C   0  0  0  0  0  0  0  0  0  0  0  0
    6.7802  -11.5455   26.5322 C   0  0  0  0  0  0  0  0  0  0  0  0
    7.2314  -12.5435   27.3588 C   0  0  0  0  0  0  0  0  0  0  0  0
    7.4588  -13.7866   26.8406 C   0  0  0  0  0  0  0  0  0  0  0  0
    7.2422  -14.0544   25.5007 C   0  0  0  0  0  0  0  0  0  0  0  0
    9.6906  -17.6838   26.3951 C   0  0  0  0  0  0  0  0  0  0  0  0
    9.1111  -17.9089   27.4779 O   0  0  0  0  0  0  0  0  0  0  0  0
   14.0895  -19.5254   24.7606 C   0  0  0  0  0  0  0  0  0  0  0  0
   13.6263  -19.2531   26.1971 C   0  0  2  0  0  0  0  0  0  0  0  0
   14.8324  -19.6255   27.0643 C   0  0  0  0  0  0  0  0  0  0  0  0
   12.4970  -20.1851   26.4758 C   0  0  0  0  0  0  0  0  0  0  0  0
   11.2719  -19.5529   27.0649 C   0  0  2  0  0  0  0  0  0  0  0  0
   10.8333  -18.5328   26.1376 N   0  0  0  0  0  0  0  0  0  0  0  0
   11.5462  -18.9100   28.3799 C   0  0  0  0  0  0  0  0  0  0  0  0
   11.7872  -19.5963   29.5487 O   0  0  0  0  0  0  0  0  0  0  0  0
   11.5630  -17.6551   28.4497 O   0  0  0  0  0  0  0  0  0  0  0  0
  1  2  1  0
  2  3  2  0
  4  5  1  0
  4  2  1  0
  5  6  1  1
  7  5  1  0
  7  8  2  0
  9  7  1  0
 10  9  1  0
 10 11  1  6
 12 13  2  0
 12 11  1  0
 14 13  1  0
 15 20  2  0
 15 14  1  0
 16 15  1  0
 17 18  1  0
 17 16  2  0
 18 19  2  0
 19 20  1  0
 20 12  1  0
 21 28  1  0
 21 10  1  0
 22 21  2  0
 24 23  1  6
 24 26  1  0
 25 24  1  0
 27 26  1  6
 27 28  1  0
 27 29  1  0
 29 31  2  0
 29 30  1  0
M  END
$$$$
