NWL.pdb
     RDKit          3D

 31 32  0  0  1  0  0  0  0  0999 V2000
   11.5867  -17.2357   16.7930 N   0  0  0  0  0  0  0  0  0  0  0  0
   12.1379  -16.8805   18.0684 C   0  0  0  0  0  0  0  0  0  0  0  0
   13.3565  -17.0567   18.2444 O   0  0  0  0  0  0  0  0  0  0  0  0
   11.2998  -16.3258   19.1385 C   0  0  0  0  0  0  0  0  0  0  0  0
   11.2818  -17.2445   20.3149 C   0  0  2  0  0  0  0  0  0  0  0  0
   10.4065  -18.3555   20.1063 N   0  0  0  0  0  0  0  0  0  0  0  0
   10.9046  -16.4918   21.5630 C   0  0  0  0  0  0  0  0  0  0  0  0
   11.5834  -15.5198   21.9684 O   0  0  0  0  0  0  0  0  0  0  0  0
    9.7677  -16.8858   22.2918 N   0  0  0  0  0  0  0  0  0  0  0  0
    9.3254  -16.1091   23.4678 C   0  0  1  0  0  0  0  0  0  0  0  0
    7.8612  -16.2440   23.6335 C   0  0  0  0  0  0  0  0  0  0  0  0
    7.2378  -15.4385   24.6791 C   0  0  0  0  0  0  0  0  0  0  0  0
    6.5521  -15.9453   25.7601 C   0  0  0  0  0  0  0  0  0  0  0  0
    6.0835  -14.9368   26.5111 N   0  0  0  0  0  0  0  0  0  0  0  0
    6.4509  -13.7611   25.9412 C   0  0  0  0  0  0  0  0  0  0  0  0
    6.2442  -12.4577   26.3085 C   0  0  0  0  0  0  0  0  0  0  0  0
    6.7619  -11.4578   25.5294 C   0  0  0  0  0  0  0  0  0  0  0  0
    7.4799  -11.7371   24.3939 C   0  0  0  0  0  0  0  0  0  0  0  0
    7.6802  -13.0398   24.0354 C   0  0  0  0  0  0  0  0  0  0  0  0
    7.1727  -14.0779   24.7960 C   0  0  0  0  0  0  0  0  0  0  0  0
   10.1770  -16.4267   24.6291 C   0  0  0  0  0  0  0  0  0  0  0  0
   11.4164  -16.5699   24.5822 O   0  0  0  0  0  0  0  0  0  0  0  0
   10.5778  -13.7811   27.8965 C   0  0  0  0  0  0  0  0  0  0  0  0
    9.3161  -14.6533   27.9071 C   0  0  2  0  0  0  0  0  0  0  0  0
    8.4675  -14.0831   29.0474 C   0  0  0  0  0  0  0  0  0  0  0  0
    9.7468  -16.0401   28.2429 C   0  0  0  0  0  0  0  0  0  0  0  0
   10.4092  -16.7949   27.1298 C   0  0  2  0  0  0  0  0  0  0  0  0
    9.6020  -16.5994   25.9454 N   0  0  0  0  0  0  0  0  0  0  0  0
   10.4916  -18.2553   27.4099 C   0  0  0  0  0  0  0  0  0  0  0  0
    9.7582  -19.2181   26.7541 O   0  0  0  0  0  0  0  0  0  0  0  0
   11.2786  -18.6579   28.3035 O   0  0  0  0  0  0  0  0  0  0  0  0
  1  2  1  0
  2  3  2  0
  4  5  1  0
  4  2  1  0
  5  6  1  6
  7  5  1  0
  7  8  2  0
  9  7  1  0
 10  9  1  0
 10 11  1  1
 12 13  2  0
 12 11  1  0
 14 13  1  0
 15 20  2  0
 15 14  1  0
 16 15  1  0
 17 18  1  0
 17 16  2  0
 18 19  2  0
 19 20  1  0
 20 12  1  0
 21 28  1  0
 21 10  1  0
 22 21  2  0
 24 23  1  1
 24 26  1  0
 25 24  1  0
 27 26  1  1
 27 28  1  0
 27 29  1  0
 29 31  2  0
 29 30  1  0
M  END
$$$$
