NWL.pdb
     RDKit          3D

 31 32  0  0  1  0  0  0  0  0999 V2000
   12.2361  -20.5321   19.8609 N   0  0  0  0  0  0  0  0  0  0  0  0
   11.7712  -19.4040   19.1074 C   0  0  0  0  0  0  0  0  0  0  0  0
   12.0192  -19.3767   17.8889 O   0  0  0  0  0  0  0  0  0  0  0  0
   11.0254  -18.3113   19.7438 C   0  0  0  0  0  0  0  0  0  0  0  0
   10.9399  -18.5287   21.2182 C   0  0  2  0  0  0  0  0  0  0  0  0
    9.8516  -19.3888   21.5647 N   0  0  0  0  0  0  0  0  0  0  0  0
   10.8319  -17.2108   21.9378 C   0  0  0  0  0  0  0  0  0  0  0  0
   11.6622  -16.2925   21.7447 O   0  0  0  0  0  0  0  0  0  0  0  0
    9.7787  -17.0030   22.8469 N   0  0  0  0  0  0  0  0  0  0  0  0
    9.6646  -15.7271   23.5824 C   0  0  1  0  0  0  0  0  0  0  0  0
    8.2406  -15.3408   23.6945 C   0  0  0  0  0  0  0  0  0  0  0  0
    7.5182  -15.1119   22.4470 C   0  0  0  0  0  0  0  0  0  0  0  0
    6.6231  -15.9926   21.8823 C   0  0  0  0  0  0  0  0  0  0  0  0
    6.1614  -15.4890   20.7274 N   0  0  0  0  0  0  0  0  0  0  0  0
    6.7398  -14.2795   20.5164 C   0  0  0  0  0  0  0  0  0  0  0  0
    6.6042  -13.3589   19.5111 C   0  0  0  0  0  0  0  0  0  0  0  0
    7.3182  -12.1925   19.5777 C   0  0  0  0  0  0  0  0  0  0  0  0
    8.1622  -11.9314   20.6277 C   0  0  0  0  0  0  0  0  0  0  0  0
    8.2914  -12.8557   21.6250 C   0  0  0  0  0  0  0  0  0  0  0  0
    7.5875  -14.0463   21.5933 C   0  0  0  0  0  0  0  0  0  0  0  0
   10.4555  -15.7911   24.8255 C   0  0  0  0  0  0  0  0  0  0  0  0
   11.4050  -15.0291   25.1024 O   0  0  0  0  0  0  0  0  0  0  0  0
   11.0578  -13.7670   28.2756 C   0  0  0  0  0  0  0  0  0  0  0  0
    9.8283  -14.1520   27.4434 C   0  0  2  0  0  0  0  0  0  0  0  0
    8.7140  -13.2394   27.9641 C   0  0  0  0  0  0  0  0  0  0  0  0
    9.5100  -15.5719   27.7658 C   0  0  0  0  0  0  0  0  0  0  0  0
   10.4805  -16.5846   27.2364 C   0  0  2  0  0  0  0  0  0  0  0  0
   10.1663  -16.7829   25.8383 N   0  0  0  0  0  0  0  0  0  0  0  0
   10.3671  -17.8940   27.9368 C   0  0  0  0  0  0  0  0  0  0  0  0
   10.9649  -18.1888   29.1413 O   0  0  0  0  0  0  0  0  0  0  0  0
    9.6834  -18.8069   27.4087 O   0  0  0  0  0  0  0  0  0  0  0  0
  1  2  1  0
  2  3  2  0
  4  5  1  0
  4  2  1  0
  5  6  1  6
  7  5  1  0
  7  8  2  0
  9  7  1  0
 10  9  1  0
 10 11  1  1
 12 13  2  0
 12 11  1  0
 14 13  1  0
 15 20  2  0
 15 14  1  0
 16 15  1  0
 17 18  1  0
 17 16  2  0
 18 19  2  0
 19 20  1  0
 20 12  1  0
 21 28  1  0
 21 10  1  0
 22 21  2  0
 24 23  1  1
 24 26  1  0
 25 24  1  0
 27 26  1  1
 27 28  1  0
 27 29  1  0
 29 31  2  0
 29 30  1  0
M  END
$$$$
