NWL.pdb
     RDKit          3D

 31 32  0  0  1  0  0  0  0  0999 V2000
   14.2071  -16.3510   18.4905 N   0  0  0  0  0  0  0  0  0  0  0  0
   12.9096  -16.9559   18.5737 C   0  0  0  0  0  0  0  0  0  0  0  0
   12.6730  -17.9280   17.8348 O   0  0  0  0  0  0  0  0  0  0  0  0
   11.8862  -16.4519   19.4978 C   0  0  0  0  0  0  0  0  0  0  0  0
   11.7512  -17.3631   20.6725 C   0  0  2  0  0  0  0  0  0  0  0  0
   11.0301  -18.5522   20.3406 N   0  0  0  0  0  0  0  0  0  0  0  0
   11.0985  -16.6437   21.8227 C   0  0  0  0  0  0  0  0  0  0  0  0
   11.5743  -15.5785   22.2798 O   0  0  0  0  0  0  0  0  0  0  0  0
    9.9306  -17.1759   22.3987 N   0  0  0  0  0  0  0  0  0  0  0  0
    9.3220  -16.5379   23.5837 C   0  0  1  0  0  0  0  0  0  0  0  0
    7.8626  -16.3992   23.3820 C   0  0  0  0  0  0  0  0  0  0  0  0
    7.3337  -15.0415   23.2959 C   0  0  0  0  0  0  0  0  0  0  0  0
    7.1031  -14.3590   22.1226 C   0  0  0  0  0  0  0  0  0  0  0  0
    6.6439  -13.1287   22.3983 N   0  0  0  0  0  0  0  0  0  0  0  0
    6.5653  -12.9840   23.7455 C   0  0  0  0  0  0  0  0  0  0  0  0
    6.1511  -11.9443   24.5354 C   0  0  0  0  0  0  0  0  0  0  0  0
    6.1648  -12.0972   25.8960 C   0  0  0  0  0  0  0  0  0  0  0  0
    6.5838  -13.2668   26.4785 C   0  0  0  0  0  0  0  0  0  0  0  0
    6.9956  -14.2977   25.6826 C   0  0  0  0  0  0  0  0  0  0  0  0
    6.9971  -14.1816   24.3041 C   0  0  0  0  0  0  0  0  0  0  0  0
    9.7813  -17.2149   24.8107 C   0  0  0  0  0  0  0  0  0  0  0  0
   10.5023  -18.2340   24.8313 O   0  0  0  0  0  0  0  0  0  0  0  0
   10.0246  -14.2418   30.1599 C   0  0  0  0  0  0  0  0  0  0  0  0
   10.7294  -15.3202   29.3276 C   0  0  2  0  0  0  0  0  0  0  0  0
   12.0873  -14.7049   28.9769 C   0  0  0  0  0  0  0  0  0  0  0  0
    9.9252  -15.5091   28.0870 C   0  0  0  0  0  0  0  0  0  0  0  0
   10.3319  -16.6682   27.2274 C   0  0  2  0  0  0  0  0  0  0  0  0
    9.4065  -16.7179   26.1166 N   0  0  0  0  0  0  0  0  0  0  0  0
   10.2629  -17.9638   27.9586 C   0  0  0  0  0  0  0  0  0  0  0  0
   11.3354  -18.5724   28.5704 O   0  0  0  0  0  0  0  0  0  0  0  0
    9.1587  -18.5596   28.0337 O   0  0  0  0  0  0  0  0  0  0  0  0
  1  2  1  0
  2  3  2  0
  4  5  1  0
  4  2  1  0
  5  6  1  6
  7  5  1  0
  7  8  2  0
  9  7  1  0
 10  9  1  0
 10 11  1  6
 12 13  2  0
 12 11  1  0
 14 13  1  0
 15 20  2  0
 15 14  1  0
 16 15  1  0
 17 18  1  0
 17 16  2  0
 18 19  2  0
 19 20  1  0
 20 12  1  0
 21 28  1  0
 21 10  1  0
 22 21  2  0
 24 23  1  1
 24 26  1  0
 25 24  1  0
 27 26  1  1
 27 28  1  0
 27 29  1  0
 29 31  2  0
 29 30  1  0
M  END
$$$$
