NWL.pdb
     RDKit          3D

 31 32  0  0  1  0  0  0  0  0999 V2000
   13.6164  -16.1480   17.5919 N   0  0  0  0  0  0  0  0  0  0  0  0
   13.6298  -16.8007   18.8687 C   0  0  0  0  0  0  0  0  0  0  0  0
   14.1583  -17.9242   18.9417 O   0  0  0  0  0  0  0  0  0  0  0  0
   13.0416  -16.1718   20.0578 C   0  0  0  0  0  0  0  0  0  0  0  0
   11.7168  -16.7848   20.3696 C   0  0  2  0  0  0  0  0  0  0  0  0
   10.8365  -16.7455   19.2437 N   0  0  0  0  0  0  0  0  0  0  0  0
   11.0931  -16.1091   21.5616 C   0  0  0  0  0  0  0  0  0  0  0  0
   11.3466  -14.9140   21.8403 O   0  0  0  0  0  0  0  0  0  0  0  0
   10.2075  -16.8315   22.3818 N   0  0  0  0  0  0  0  0  0  0  0  0
    9.5670  -16.1844   23.5450 C   0  0  1  0  0  0  0  0  0  0  0  0
    8.1057  -16.0999   23.3277 C   0  0  0  0  0  0  0  0  0  0  0  0
    7.3203  -15.4423   24.3674 C   0  0  0  0  0  0  0  0  0  0  0  0
    6.4644  -16.0854   25.2332 C   0  0  0  0  0  0  0  0  0  0  0  0
    5.8806  -15.1874   26.0416 N   0  0  0  0  0  0  0  0  0  0  0  0
    6.3398  -13.9504   25.7235 C   0  0  0  0  0  0  0  0  0  0  0  0
    6.0783  -12.7110   26.2450 C   0  0  0  0  0  0  0  0  0  0  0  0
    6.7199  -11.6208   25.7210 C   0  0  0  0  0  0  0  0  0  0  0  0
    7.6148  -11.7476   24.6885 C   0  0  0  0  0  0  0  0  0  0  0  0
    7.8685  -12.9874   24.1746 C   0  0  0  0  0  0  0  0  0  0  0  0
    7.2399  -14.1130   24.6765 C   0  0  0  0  0  0  0  0  0  0  0  0
   10.0373  -16.8145   24.7927 C   0  0  0  0  0  0  0  0  0  0  0  0
   10.5112  -17.9669   24.8708 O   0  0  0  0  0  0  0  0  0  0  0  0
   10.2537  -13.5535   29.4370 C   0  0  0  0  0  0  0  0  0  0  0  0
   10.9906  -14.6321   28.6333 C   0  0  2  0  0  0  0  0  0  0  0  0
   11.3396  -13.9487   27.3079 C   0  0  0  0  0  0  0  0  0  0  0  0
   10.0193  -15.7364   28.3916 C   0  0  0  0  0  0  0  0  0  0  0  0
   10.3949  -16.6963   27.3028 C   0  0  2  0  0  0  0  0  0  0  0  0
    9.9732  -16.1049   26.0518 N   0  0  0  0  0  0  0  0  0  0  0  0
    9.7179  -18.0141   27.4548 C   0  0  0  0  0  0  0  0  0  0  0  0
    8.6394  -18.4280   26.7062 O   0  0  0  0  0  0  0  0  0  0  0  0
   10.1446  -18.8187   28.3210 O   0  0  0  0  0  0  0  0  0  0  0  0
  1  2  1  0
  2  3  2  0
  4  5  1  0
  4  2  1  0
  5  6  1  6
  7  5  1  0
  7  8  2  0
  9  7  1  0
 10  9  1  0
 10 11  1  6
 12 13  2  0
 12 11  1  0
 14 13  1  0
 15 20  2  0
 15 14  1  0
 16 15  1  0
 17 18  1  0
 17 16  2  0
 18 19  2  0
 19 20  1  0
 20 12  1  0
 21 28  1  0
 21 10  1  0
 22 21  2  0
 24 23  1  1
 24 26  1  0
 25 24  1  0
 27 26  1  1
 27 28  1  0
 27 29  1  0
 29 31  2  0
 29 30  1  0
M  END
$$$$
