NWL.pdb
     RDKit          3D

 31 32  0  0  1  0  0  0  0  0999 V2000
   12.4891  -18.0282   18.2166 N   0  0  0  0  0  0  0  0  0  0  0  0
   11.6199  -16.9266   17.9204 C   0  0  0  0  0  0  0  0  0  0  0  0
   11.6641  -16.4429   16.7755 O   0  0  0  0  0  0  0  0  0  0  0  0
   10.7036  -16.3800   18.9288 C   0  0  0  0  0  0  0  0  0  0  0  0
   10.6422  -17.2793   20.1187 C   0  0  2  0  0  0  0  0  0  0  0  0
    9.7043  -18.3420   19.9318 N   0  0  0  0  0  0  0  0  0  0  0  0
   10.3169  -16.4888   21.3580 C   0  0  0  0  0  0  0  0  0  0  0  0
   11.0373  -15.5334   21.7297 O   0  0  0  0  0  0  0  0  0  0  0  0
    9.1819  -16.8276   22.1168 N   0  0  0  0  0  0  0  0  0  0  0  0
    8.9304  -16.1781   23.4194 C   0  0  1  0  0  0  0  0  0  0  0  0
    7.6417  -16.6504   23.9725 C   0  0  0  0  0  0  0  0  0  0  0  0
    6.8689  -15.6924   24.7570 C   0  0  0  0  0  0  0  0  0  0  0  0
    5.7200  -15.9907   25.4548 C   0  0  0  0  0  0  0  0  0  0  0  0
    5.2469  -14.8806   26.0417 N   0  0  0  0  0  0  0  0  0  0  0  0
    6.0701  -13.8439   25.7424 C   0  0  0  0  0  0  0  0  0  0  0  0
    6.0480  -12.5210   26.0970 C   0  0  0  0  0  0  0  0  0  0  0  0
    7.0453  -11.6964   25.6495 C   0  0  0  0  0  0  0  0  0  0  0  0
    8.0603  -12.1695   24.8565 C   0  0  0  0  0  0  0  0  0  0  0  0
    8.0734  -13.4900   24.5075 C   0  0  0  0  0  0  0  0  0  0  0  0
    7.0834  -14.3545   24.9392 C   0  0  0  0  0  0  0  0  0  0  0  0
   10.1250  -16.2917   24.2767 C   0  0  0  0  0  0  0  0  0  0  0  0
   11.3009  -16.1711   23.8747 O   0  0  0  0  0  0  0  0  0  0  0  0
   10.1057  -13.1161   27.6948 C   0  0  0  0  0  0  0  0  0  0  0  0
   10.0771  -14.6424   27.8434 C   0  0  2  0  0  0  0  0  0  0  0  0
   10.2245  -14.8822   29.3488 C   0  0  0  0  0  0  0  0  0  0  0  0
   11.2722  -15.1732   27.1282 C   0  0  0  0  0  0  0  0  0  0  0  0
   11.1334  -16.5656   26.5898 C   0  0  2  0  0  0  0  0  0  0  0  0
    9.9989  -16.5622   25.6923 N   0  0  0  0  0  0  0  0  0  0  0  0
   10.8819  -17.5636   27.6662 C   0  0  0  0  0  0  0  0  0  0  0  0
    9.6876  -18.2212   27.8567 O   0  0  0  0  0  0  0  0  0  0  0  0
   11.8106  -17.8389   28.4671 O   0  0  0  0  0  0  0  0  0  0  0  0
  1  2  1  0
  2  3  2  0
  4  5  1  0
  4  2  1  0
  5  6  1  6
  7  5  1  0
  7  8  2  0
  9  7  1  0
 10  9  1  0
 10 11  1  1
 12 13  2  0
 12 11  1  0
 14 13  1  0
 15 20  2  0
 15 14  1  0
 16 15  1  0
 17 18  1  0
 17 16  2  0
 18 19  2  0
 19 20  1  0
 20 12  1  0
 21 28  1  0
 21 10  1  0
 22 21  2  0
 24 23  1  1
 24 26  1  0
 25 24  1  0
 27 26  1  1
 27 28  1  0
 27 29  1  0
 29 31  2  0
 29 30  1  0
M  END
$$$$
