NWL.pdb
     RDKit          3D

 31 32  0  0  1  0  0  0  0  0999 V2000
   14.3844  -18.5211   18.5207 N   0  0  0  0  0  0  0  0  0  0  0  0
   13.1949  -18.6798   19.3059 C   0  0  0  0  0  0  0  0  0  0  0  0
   12.5439  -19.7307   19.1689 O   0  0  0  0  0  0  0  0  0  0  0  0
   12.7512  -17.6417   20.2443 C   0  0  0  0  0  0  0  0  0  0  0  0
   11.2956  -17.3643   20.0638 C   0  0  2  0  0  0  0  0  0  0  0  0
   11.0319  -16.7029   18.8240 N   0  0  0  0  0  0  0  0  0  0  0  0
   10.7664  -16.5620   21.2226 C   0  0  0  0  0  0  0  0  0  0  0  0
   11.1511  -15.3883   21.4328 O   0  0  0  0  0  0  0  0  0  0  0  0
    9.8207  -17.1393   22.0895 N   0  0  0  0  0  0  0  0  0  0  0  0
    9.3133  -16.3852   23.2538 C   0  0  1  0  0  0  0  0  0  0  0  0
    7.8383  -16.2896   23.1827 C   0  0  0  0  0  0  0  0  0  0  0  0
    7.1674  -15.6003   24.2805 C   0  0  0  0  0  0  0  0  0  0  0  0
    6.4265  -16.2182   25.2629 C   0  0  0  0  0  0  0  0  0  0  0  0
    5.9257  -15.2956   26.0987 N   0  0  0  0  0  0  0  0  0  0  0  0
    6.3262  -14.0672   25.6834 C   0  0  0  0  0  0  0  0  0  0  0  0
    6.1074  -12.8112   26.1844 C   0  0  0  0  0  0  0  0  0  0  0  0
    6.6677  -11.7355   25.5491 C   0  0  0  0  0  0  0  0  0  0  0  0
    7.4400  -11.8929   24.4259 C   0  0  0  0  0  0  0  0  0  0  0  0
    7.6521  -13.1491   23.9333 C   0  0  0  0  0  0  0  0  0  0  0  0
    7.1026  -14.2608   24.5465 C   0  0  0  0  0  0  0  0  0  0  0  0
    9.9048  -16.9188   24.4949 C   0  0  0  0  0  0  0  0  0  0  0  0
   10.2230  -18.1129   24.6730 O   0  0  0  0  0  0  0  0  0  0  0  0
    9.6610  -13.3699   27.3369 C   0  0  0  0  0  0  0  0  0  0  0  0
    9.9233  -14.6296   28.1717 C   0  0  2  0  0  0  0  0  0  0  0  0
   10.1932  -14.1023   29.5840 C   0  0  0  0  0  0  0  0  0  0  0  0
   11.1558  -15.2659   27.6262 C   0  0  0  0  0  0  0  0  0  0  0  0
   10.9302  -16.4791   26.7748 C   0  0  2  0  0  0  0  0  0  0  0  0
   10.1602  -16.0540   25.6263 N   0  0  0  0  0  0  0  0  0  0  0  0
   10.1651  -17.5367   27.4918 C   0  0  0  0  0  0  0  0  0  0  0  0
    8.8905  -17.9377   27.1608 O   0  0  0  0  0  0  0  0  0  0  0  0
   10.7016  -18.1154   28.4701 O   0  0  0  0  0  0  0  0  0  0  0  0
  1  2  1  0
  2  3  2  0
  4  5  1  0
  4  2  1  0
  5  6  1  6
  7  5  1  0
  7  8  2  0
  9  7  1  0
 10  9  1  0
 10 11  1  1
 12 13  2  0
 12 11  1  0
 14 13  1  0
 15 20  2  0
 15 14  1  0
 16 15  1  0
 17 18  1  0
 17 16  2  0
 18 19  2  0
 19 20  1  0
 20 12  1  0
 21 28  1  0
 21 10  1  0
 22 21  2  0
 24 23  1  6
 24 26  1  0
 25 24  1  0
 27 26  1  1
 27 28  1  0
 27 29  1  0
 29 31  2  0
 29 30  1  0
M  END
$$$$
