NWL.pdb
     RDKit          3D

 31 32  0  0  1  0  0  0  0  0999 V2000
   14.0207  -15.9273   17.9229 N   0  0  0  0  0  0  0  0  0  0  0  0
   12.7674  -16.5315   18.2707 C   0  0  0  0  0  0  0  0  0  0  0  0
   12.4013  -17.5261   17.6198 O   0  0  0  0  0  0  0  0  0  0  0  0
   11.9359  -16.0013   19.3581 C   0  0  0  0  0  0  0  0  0  0  0  0
   11.6483  -17.0684   20.3615 C   0  0  2  0  0  0  0  0  0  0  0  0
   10.7043  -18.0211   19.8661 N   0  0  0  0  0  0  0  0  0  0  0  0
   11.1686  -16.4598   21.6523 C   0  0  0  0  0  0  0  0  0  0  0  0
   11.8431  -15.5924   22.2544 O   0  0  0  0  0  0  0  0  0  0  0  0
    9.9386  -16.8718   22.1966 N   0  0  0  0  0  0  0  0  0  0  0  0
    9.4179  -16.2464   23.4293 C   0  0  1  0  0  0  0  0  0  0  0  0
    7.9419  -16.3482   23.4560 C   0  0  0  0  0  0  0  0  0  0  0  0
    7.2441  -15.5665   24.4721 C   0  0  0  0  0  0  0  0  0  0  0  0
    6.5457  -16.0982   25.5328 C   0  0  0  0  0  0  0  0  0  0  0  0
    6.0031  -15.1081   26.2582 N   0  0  0  0  0  0  0  0  0  0  0  0
    6.3337  -13.9201   25.6914 C   0  0  0  0  0  0  0  0  0  0  0  0
    6.0520  -12.6257   26.0400 C   0  0  0  0  0  0  0  0  0  0  0  0
    6.5486  -11.6074   25.2709 C   0  0  0  0  0  0  0  0  0  0  0  0
    7.3188  -11.8597   24.1637 C   0  0  0  0  0  0  0  0  0  0  0  0
    7.5938  -13.1538   23.8237 C   0  0  0  0  0  0  0  0  0  0  0  0
    7.1099  -14.2098   24.5750 C   0  0  0  0  0  0  0  0  0  0  0  0
   10.1592  -16.7504   24.6004 C   0  0  0  0  0  0  0  0  0  0  0  0
   10.9887  -17.6829   24.5675 O   0  0  0  0  0  0  0  0  0  0  0  0
   11.8080  -13.9107   27.5060 C   0  0  0  0  0  0  0  0  0  0  0  0
   10.3502  -14.2687   27.8208 C   0  0  2  0  0  0  0  0  0  0  0  0
    9.9978  -13.4026   29.0336 C   0  0  0  0  0  0  0  0  0  0  0  0
   10.3274  -15.7086   28.2048 C   0  0  0  0  0  0  0  0  0  0  0  0
   10.6179  -16.6746   27.0957 C   0  0  2  0  0  0  0  0  0  0  0  0
    9.9591  -16.1704   25.9106 N   0  0  0  0  0  0  0  0  0  0  0  0
   10.0935  -18.0383   27.3841 C   0  0  0  0  0  0  0  0  0  0  0  0
   10.6816  -18.9336   28.2488 O   0  0  0  0  0  0  0  0  0  0  0  0
    9.0427  -18.4183   26.8085 O   0  0  0  0  0  0  0  0  0  0  0  0
  1  2  1  0
  2  3  2  0
  4  5  1  0
  4  2  1  0
  5  6  1  6
  7  5  1  0
  7  8  2  0
  9  7  1  0
 10  9  1  0
 10 11  1  1
 12 13  2  0
 12 11  1  0
 14 13  1  0
 15 20  2  0
 15 14  1  0
 16 15  1  0
 17 18  1  0
 17 16  2  0
 18 19  2  0
 19 20  1  0
 20 12  1  0
 21 28  1  0
 21 10  1  0
 22 21  2  0
 24 23  1  1
 24 26  1  0
 25 24  1  0
 27 26  1  1
 27 28  1  0
 27 29  1  0
 29 31  2  0
 29 30  1  0
M  END
$$$$
