CMP.pdb
     RDKit          3D

 22 22  0  0  1  0  0  0  0  0999 V2000
    5.7457  -20.2251   24.1625 N   0  0  0  0  0  0  0  0  0  0  0  0
    6.4283  -19.1434   24.8134 C   0  0  1  0  0  0  0  0  0  0  0  0
    7.8887  -19.4886   24.9459 C   0  0  0  0  0  0  0  0  0  0  0  0
    8.6325  -19.3910   23.2872 S   0  0  0  0  0  0  0  0  0  0  0  0
    6.2301  -17.8496   24.1017 C   0  0  0  0  0  0  0  0  0  0  0  0
    5.8393  -17.9033   22.8932 O   0  0  0  0  0  0  0  0  0  0  0  0
    8.4292  -11.7063   27.1221 C   0  0  0  0  0  0  0  0  0  0  0  0
    6.9643  -12.7533   27.0504 S   0  0  0  0  0  0  0  0  0  0  0  0
    7.2551  -14.2671   26.0935 C   0  0  0  0  0  0  0  0  0  0  0  0
    6.4215  -14.1823   24.8379 C   0  0  0  0  0  0  0  0  0  0  0  0
    6.5726  -15.4159   23.9734 C   0  0  2  0  0  0  0  0  0  0  0  0
    6.4707  -16.6224   24.7565 N   0  0  0  0  0  0  0  0  0  0  0  0
    7.8679  -15.3914   23.2250 C   0  0  0  0  0  0  0  0  0  0  0  0
    8.6886  -16.3168   23.5195 O   0  0  0  0  0  0  0  0  0  0  0  0
    8.2027  -14.4271   22.2471 N   0  0  0  0  0  0  0  0  0  0  0  0
    7.8541  -13.0335   22.1479 C   0  0  0  0  0  0  0  0  0  0  0  0
    7.7430  -12.7813   20.6335 C   0  0  0  0  0  0  0  0  0  0  0  0
    8.1621  -14.0823   19.9835 C   0  0  0  0  0  0  0  0  0  0  0  0
    9.0219  -14.6976   21.0798 C   0  0  1  0  0  0  0  0  0  0  0  0
   10.3186  -13.9782   21.1224 C   0  0  0  0  0  0  0  0  0  0  0  0
   10.5098  -13.1584   22.0596 O   0  0  0  0  0  0  0  0  0  0  0  0
   11.3424  -14.1326   20.2136 O   0  0  0  0  0  0  0  0  0  0  0  0
  2  1  1  6
  3  2  1  0
  4  3  1  0
  5 12  1  0
  5  2  1  0
  6  5  2  0
  7  8  1  0
  8  9  1  0
  9 10  1  0
 11 10  1  1
 11 12  1  0
 11 13  1  0
 13 15  1  0
 14 13  2  0
 15 16  1  0
 15 19  1  0
 16 17  1  0
 17 18  1  0
 19 20  1  1
 19 18  1  0
 20 22  1  0
 21 20  2  0
M  END
$$$$
