CMP.pdb
     RDKit          3D

 22 22  0  0  1  0  0  0  0  0999 V2000
    5.0795  -19.4772   23.7959 N   0  0  0  0  0  0  0  0  0  0  0  0
    6.2999  -18.8294   24.1839 C   0  0  1  0  0  0  0  0  0  0  0  0
    7.4667  -19.7006   23.7976 C   0  0  0  0  0  0  0  0  0  0  0  0
    8.9473  -19.0411   24.6263 S   0  0  0  0  0  0  0  0  0  0  0  0
    6.4160  -17.4628   23.6019 C   0  0  0  0  0  0  0  0  0  0  0  0
    5.9471  -17.2853   22.4336 O   0  0  0  0  0  0  0  0  0  0  0  0
    6.0982  -11.7018   27.7818 C   0  0  0  0  0  0  0  0  0  0  0  0
    7.3302  -12.3428   26.6334 S   0  0  0  0  0  0  0  0  0  0  0  0
    6.6411  -13.6090   25.5318 C   0  0  0  0  0  0  0  0  0  0  0  0
    7.7622  -14.1131   24.6557 C   0  0  0  0  0  0  0  0  0  0  0  0
    7.2855  -15.1616   23.6731 C   0  0  2  0  0  0  0  0  0  0  0  0
    7.0245  -16.4182   24.3306 N   0  0  0  0  0  0  0  0  0  0  0  0
    8.2756  -15.3507   22.5676 C   0  0  0  0  0  0  0  0  0  0  0  0
    8.8385  -16.4900   22.5248 O   0  0  0  0  0  0  0  0  0  0  0  0
    8.5967  -14.3613   21.6103 N   0  0  0  0  0  0  0  0  0  0  0  0
    8.2779  -12.9577   21.5708 C   0  0  0  0  0  0  0  0  0  0  0  0
    8.1166  -12.6515   20.0709 C   0  0  0  0  0  0  0  0  0  0  0  0
    8.4801  -13.9386   19.3626 C   0  0  0  0  0  0  0  0  0  0  0  0
    9.3653  -14.6102   20.4044 C   0  0  1  0  0  0  0  0  0  0  0  0
   10.6794  -13.9221   20.4216 C   0  0  0  0  0  0  0  0  0  0  0  0
   10.9174  -13.1252   21.3677 O   0  0  0  0  0  0  0  0  0  0  0  0
   11.6721  -14.0828   19.4800 O   0  0  0  0  0  0  0  0  0  0  0  0
  2  1  1  6
  3  2  1  0
  4  3  1  0
  5 12  1  0
  5  2  1  0
  6  5  2  0
  7  8  1  0
  8  9  1  0
  9 10  1  0
 11 10  1  1
 11 12  1  0
 11 13  1  0
 13 15  1  0
 14 13  2  0
 15 16  1  0
 15 19  1  0
 16 17  1  0
 17 18  1  0
 19 20  1  1
 19 18  1  0
 20 22  1  0
 21 20  2  0
M  END
$$$$
