CMP.pdb
     RDKit          3D

 22 22  0  0  1  0  0  0  0  0999 V2000
    4.5253  -20.0791   23.0609 N   0  0  0  0  0  0  0  0  0  0  0  0
    5.7423  -19.5910   23.6443 C   0  0  1  0  0  0  0  0  0  0  0  0
    6.9015  -20.3940   23.1143 C   0  0  0  0  0  0  0  0  0  0  0  0
    8.3878  -19.8971   24.0406 S   0  0  0  0  0  0  0  0  0  0  0  0
    5.9286  -18.1318   23.4079 C   0  0  0  0  0  0  0  0  0  0  0  0
    5.6612  -17.6911   22.2458 O   0  0  0  0  0  0  0  0  0  0  0  0
    7.5622  -11.0080   26.4890 C   0  0  0  0  0  0  0  0  0  0  0  0
    7.2297  -12.7659   26.7049 S   0  0  0  0  0  0  0  0  0  0  0  0
    7.1087  -13.6364   25.1176 C   0  0  0  0  0  0  0  0  0  0  0  0
    6.7721  -15.0783   25.4107 C   0  0  0  0  0  0  0  0  0  0  0  0
    6.6708  -15.9045   24.1460 C   0  0  2  0  0  0  0  0  0  0  0  0
    6.3842  -17.2864   24.4424 N   0  0  0  0  0  0  0  0  0  0  0  0
    7.9223  -15.7974   23.3333 C   0  0  0  0  0  0  0  0  0  0  0  0
    8.7229  -16.7806   23.4274 O   0  0  0  0  0  0  0  0  0  0  0  0
    8.2379  -14.6991   22.5011 N   0  0  0  0  0  0  0  0  0  0  0  0
    7.7415  -13.3474   22.5055 C   0  0  0  0  0  0  0  0  0  0  0  0
    7.7520  -12.9389   21.0214 C   0  0  0  0  0  0  0  0  0  0  0  0
    8.3812  -14.1071   20.2935 C   0  0  0  0  0  0  0  0  0  0  0  0
    9.1942  -14.7488   21.4102 C   0  0  1  0  0  0  0  0  0  0  0  0
   10.3881  -13.9071   21.6686 C   0  0  0  0  0  0  0  0  0  0  0  0
   11.2044  -13.7328   20.7252 O   0  0  0  0  0  0  0  0  0  0  0  0
   10.6825  -13.2932   22.8663 O   0  0  0  0  0  0  0  0  0  0  0  0
  2  1  1  6
  3  2  1  0
  4  3  1  0
  5 12  1  0
  5  2  1  0
  6  5  2  0
  7  8  1  0
  8  9  1  0
  9 10  1  0
 11 10  1  1
 11 12  1  0
 11 13  1  0
 13 15  1  0
 14 13  2  0
 15 16  1  0
 15 19  1  0
 16 17  1  0
 17 18  1  0
 19 20  1  1
 19 18  1  0
 20 22  1  0
 21 20  2  0
M  END
$$$$
