CMP.pdb
     RDKit          3D

 22 22  0  0  1  0  0  0  0  0999 V2000
   10.8602  -16.0625   20.2457 N   0  0  0  0  0  0  0  0  0  0  0  0
   10.1134  -16.7465   21.2626 C   0  0  1  0  0  0  0  0  0  0  0  0
   10.7274  -18.1016   21.4999 C   0  0  0  0  0  0  0  0  0  0  0  0
    9.6625  -18.9927   22.6771 S   0  0  0  0  0  0  0  0  0  0  0  0
   10.0266  -15.9528   22.5205 C   0  0  0  0  0  0  0  0  0  0  0  0
   11.1029  -15.4387   22.9605 O   0  0  0  0  0  0  0  0  0  0  0  0
    6.1055  -11.5900   27.4896 C   0  0  0  0  0  0  0  0  0  0  0  0
    6.1298  -12.6253   26.0148 S   0  0  0  0  0  0  0  0  0  0  0  0
    7.3029  -14.0009   26.1673 C   0  0  0  0  0  0  0  0  0  0  0  0
    7.3506  -14.7117   24.8365 C   0  0  0  0  0  0  0  0  0  0  0  0
    8.7625  -15.1006   24.4524 C   0  0  2  0  0  0  0  0  0  0  0  0
    8.7922  -15.7876   23.1850 N   0  0  0  0  0  0  0  0  0  0  0  0
    9.3945  -15.9440   25.5143 C   0  0  0  0  0  0  0  0  0  0  0  0
    9.6479  -17.1448   25.1820 O   0  0  0  0  0  0  0  0  0  0  0  0
    9.7092  -15.4829   26.8130 N   0  0  0  0  0  0  0  0  0  0  0  0
    9.2406  -14.3296   27.5367 C   0  0  0  0  0  0  0  0  0  0  0  0
   10.4480  -13.9080   28.3934 C   0  0  0  0  0  0  0  0  0  0  0  0
   11.4984  -14.9694   28.1471 C   0  0  0  0  0  0  0  0  0  0  0  0
   10.6342  -16.1463   27.7137 C   0  0  1  0  0  0  0  0  0  0  0  0
    9.9555  -16.6998   28.9111 C   0  0  0  0  0  0  0  0  0  0  0  0
    8.7074  -16.5560   29.0030 O   0  0  0  0  0  0  0  0  0  0  0  0
   10.5818  -17.3650   29.9423 O   0  0  0  0  0  0  0  0  0  0  0  0
  2  1  1  6
  3  2  1  0
  4  3  1  0
  5 12  1  0
  5  2  1  0
  6  5  2  0
  7  8  1  0
  8  9  1  0
  9 10  1  0
 11 10  1  1
 11 12  1  0
 11 13  1  0
 13 15  1  0
 14 13  2  0
 15 16  1  0
 15 19  1  0
 16 17  1  0
 17 18  1  0
 19 20  1  1
 19 18  1  0
 20 22  1  0
 21 20  2  0
M  END
$$$$
