CMP.pdb
     RDKit          3D

 22 22  0  0  1  0  0  0  0  0999 V2000
   10.1586  -15.7480   20.1743 N   0  0  0  0  0  0  0  0  0  0  0  0
    9.6111  -16.4670   21.2892 C   0  0  1  0  0  0  0  0  0  0  0  0
   10.3768  -17.7512   21.4735 C   0  0  0  0  0  0  0  0  0  0  0  0
    9.4669  -18.7696   22.6772 S   0  0  0  0  0  0  0  0  0  0  0  0
    9.6032  -15.6466   22.5329 C   0  0  0  0  0  0  0  0  0  0  0  0
   10.6185  -14.9144   22.7544 O   0  0  0  0  0  0  0  0  0  0  0  0
    5.6326  -10.8903   26.1564 C   0  0  0  0  0  0  0  0  0  0  0  0
    5.8550  -12.6732   26.2942 S   0  0  0  0  0  0  0  0  0  0  0  0
    6.7935  -13.3527   24.8980 C   0  0  0  0  0  0  0  0  0  0  0  0
    7.2564  -14.7357   25.2872 C   0  0  0  0  0  0  0  0  0  0  0  0
    8.6182  -15.0603   24.7106 C   0  0  2  0  0  0  0  0  0  0  0  0
    8.5054  -15.6916   23.4191 N   0  0  0  0  0  0  0  0  0  0  0  0
    9.4037  -15.9261   25.6442 C   0  0  0  0  0  0  0  0  0  0  0  0
    9.8133  -17.0268   25.1571 O   0  0  0  0  0  0  0  0  0  0  0  0
    9.6982  -15.5870   26.9846 N   0  0  0  0  0  0  0  0  0  0  0  0
    9.1475  -14.5634   27.8345 C   0  0  0  0  0  0  0  0  0  0  0  0
   10.3285  -14.1410   28.7268 C   0  0  0  0  0  0  0  0  0  0  0  0
   11.4582  -15.0784   28.3586 C   0  0  0  0  0  0  0  0  0  0  0  0
   10.6867  -16.2674   27.8012 C   0  0  1  0  0  0  0  0  0  0  0  0
   10.0723  -17.0040   28.9329 C   0  0  0  0  0  0  0  0  0  0  0  0
   10.8392  -17.5725   29.7547 O   0  0  0  0  0  0  0  0  0  0  0  0
    8.7190  -17.1200   29.1633 O   0  0  0  0  0  0  0  0  0  0  0  0
  2  1  1  6
  3  2  1  0
  4  3  1  0
  5 12  1  0
  5  2  1  0
  6  5  2  0
  7  8  1  0
  8  9  1  0
  9 10  1  0
 11 10  1  1
 11 12  1  0
 11 13  1  0
 13 15  1  0
 14 13  2  0
 15 16  1  0
 15 19  1  0
 16 17  1  0
 17 18  1  0
 19 20  1  1
 19 18  1  0
 20 22  1  0
 21 20  2  0
M  END
$$$$
