CMP.pdb
     RDKit          3D

 22 22  0  0  1  0  0  0  0  0999 V2000
    5.0438  -20.4606   22.8370 N   0  0  0  0  0  0  0  0  0  0  0  0
    5.3393  -19.7877   24.0697 C   0  0  1  0  0  0  0  0  0  0  0  0
    6.2164  -20.6716   24.9177 C   0  0  0  0  0  0  0  0  0  0  0  0
    7.8242  -20.8242   24.0778 S   0  0  0  0  0  0  0  0  0  0  0  0
    5.9589  -18.4520   23.8418 C   0  0  0  0  0  0  0  0  0  0  0  0
    6.4191  -18.2136   22.6810 O   0  0  0  0  0  0  0  0  0  0  0  0
    7.4419  -11.1770   26.6002 C   0  0  0  0  0  0  0  0  0  0  0  0
    6.6984  -12.8037   26.8206 S   0  0  0  0  0  0  0  0  0  0  0  0
    7.2117  -13.9682   25.5275 C   0  0  0  0  0  0  0  0  0  0  0  0
    6.4219  -15.2405   25.7173 C   0  0  0  0  0  0  0  0  0  0  0  0
    6.7700  -16.2837   24.6768 C   0  0  2  0  0  0  0  0  0  0  0  0
    6.0246  -17.5008   24.8827 N   0  0  0  0  0  0  0  0  0  0  0  0
    8.2386  -16.5694   24.6737 C   0  0  0  0  0  0  0  0  0  0  0  0
    8.6196  -17.4901   25.4635 O   0  0  0  0  0  0  0  0  0  0  0  0
    9.1786  -15.8906   23.8650 N   0  0  0  0  0  0  0  0  0  0  0  0
    9.1207  -14.5884   23.2533 C   0  0  0  0  0  0  0  0  0  0  0  0
    9.9061  -14.7553   21.9400 C   0  0  0  0  0  0  0  0  0  0  0  0
   10.4515  -16.1665   21.9813 C   0  0  0  0  0  0  0  0  0  0  0  0
   10.4688  -16.4336   23.4807 C   0  0  1  0  0  0  0  0  0  0  0  0
   11.5980  -15.6818   24.0812 C   0  0  0  0  0  0  0  0  0  0  0  0
   11.3297  -14.6624   24.7708 O   0  0  0  0  0  0  0  0  0  0  0  0
   12.9297  -16.0080   23.9467 O   0  0  0  0  0  0  0  0  0  0  0  0
  2  1  1  6
  3  2  1  0
  4  3  1  0
  5 12  1  0
  5  2  1  0
  6  5  2  0
  7  8  1  0
  8  9  1  0
  9 10  1  0
 11 10  1  1
 11 12  1  0
 11 13  1  0
 13 15  1  0
 14 13  2  0
 15 16  1  0
 15 19  1  0
 16 17  1  0
 17 18  1  0
 19 20  1  1
 19 18  1  0
 20 22  1  0
 21 20  2  0
M  END
$$$$
