WRC.pdb
     RDKit          3D

 32 33  0  0  1  0  0  0  0  0999 V2000
    6.7679  -17.8344   25.5681 N   0  0  0  0  0  0  0  0  0  0  0  0
    7.0302  -16.5125   25.0122 C   0  0  1  0  0  0  0  0  0  0  0  0
    8.2603  -15.9278   25.6832 C   0  0  0  0  0  0  0  0  0  0  0  0
    7.8767  -14.9721   26.7467 C   0  0  0  0  0  0  0  0  0  0  0  0
    7.8644  -15.1403   28.1247 C   0  0  0  0  0  0  0  0  0  0  0  0
    7.4434  -14.0009   28.7135 N   0  0  0  0  0  0  0  0  0  0  0  0
    7.1731  -13.0756   27.7756 C   0  0  0  0  0  0  0  0  0  0  0  0
    6.7155  -11.7567   27.8583 C   0  0  0  0  0  0  0  0  0  0  0  0
    6.5371  -11.0662   26.6915 C   0  0  0  0  0  0  0  0  0  0  0  0
    6.7949  -11.6334   25.4542 C   0  0  0  0  0  0  0  0  0  0  0  0
    7.2427  -12.9284   25.4063 C   0  0  0  0  0  0  0  0  0  0  0  0
    7.4375  -13.6650   26.5594 C   0  0  0  0  0  0  0  0  0  0  0  0
    7.3918  -16.7000   23.5618 C   0  0  0  0  0  0  0  0  0  0  0  0
    8.0185  -17.7191   23.1803 O   0  0  0  0  0  0  0  0  0  0  0  0
    9.2990  -14.4771   16.3025 N   0  0  0  0  0  0  0  0  0  0  0  0
    7.8769  -14.2726   16.2876 C   0  0  0  0  0  0  0  0  0  0  0  0
    7.1754  -14.6536   15.2843 N   0  0  0  0  0  0  0  0  0  0  0  0
    7.2081  -13.6451   17.3734 N   0  0  0  0  0  0  0  0  0  0  0  0
    7.9224  -13.1498   18.5304 C   0  0  0  0  0  0  0  0  0  0  0  0
    8.4331  -14.2111   19.4359 C   0  0  0  0  0  0  0  0  0  0  0  0
    7.5698  -14.3151   20.6617 C   0  0  0  0  0  0  0  0  0  0  0  0
    7.7986  -15.6038   21.3752 C   0  0  2  0  0  0  0  0  0  0  0  0
    7.0356  -15.7347   22.5939 N   0  0  0  0  0  0  0  0  0  0  0  0
    9.2559  -15.6068   21.7863 C   0  0  0  0  0  0  0  0  0  0  0  0
    9.6202  -14.8977   22.7413 O   0  0  0  0  0  0  0  0  0  0  0  0
    6.1484  -14.4759   15.3081 N   0  0  0  0  0  0  0  0  0  0  0  0
   10.2149  -16.3832   21.1276 C   0  0  1  0  0  0  0  0  0  0  0  0
   11.5676  -16.4651   21.6365 C   0  0  0  0  0  0  0  0  0  0  0  0
   11.4854  -17.0494   23.0215 S   0  0  0  0  0  0  0  0  0  0  0  0
   12.6863  -16.3313   24.1546 C   0  0  0  0  0  0  0  0  0  0  0  0
   12.4058  -17.2943   20.7326 O   0  0  0  0  0  0  0  0  0  0  0  0
   13.7756  -17.1899   20.7089 O   0  0  0  0  0  0  0  0  0  0  0  0
  2  1  1  1
  2  3  1  0
  4  3  1  0
  5  4  2  0
  6  7  1  0
  6  5  1  0
  7 12  2  0
  8  9  2  0
  8  7  1  0
  9 10  1  0
 10 11  2  0
 12  4  1  0
 12 11  1  0
 13 14  2  0
 13  2  1  0
 16 15  1  0
 17 16  2  0
 18 16  1  0
 19 18  1  0
 20 19  1  0
 20 21  1  0
 22 21  1  1
 22 23  1  0
 23 13  1  0
 24 22  1  0
 24 26  1  0
 25 24  2  0
 27 26  1  0
 27 30  1  0
 27 28  1  6
 28 29  1  0
 30 32  2  0
 30 31  1  0
M  END
$$$$
