WRC.pdb
     RDKit          3D

 32 33  0  0  1  0  0  0  0  0999 V2000
    6.5669  -17.2955   25.0823 N   0  0  0  0  0  0  0  0  0  0  0  0
    7.0578  -16.0383   24.5314 C   0  0  1  0  0  0  0  0  0  0  0  0
    8.3077  -15.6212   25.2857 C   0  0  0  0  0  0  0  0  0  0  0  0
    7.9797  -14.6495   26.3533 C   0  0  0  0  0  0  0  0  0  0  0  0
    7.9799  -14.8163   27.7317 C   0  0  0  0  0  0  0  0  0  0  0  0
    7.6154  -13.6598   28.3249 N   0  0  0  0  0  0  0  0  0  0  0  0
    7.3711  -12.7245   27.3899 C   0  0  0  0  0  0  0  0  0  0  0  0
    6.9704  -11.3876   27.4774 C   0  0  0  0  0  0  0  0  0  0  0  0
    6.8047  -10.6909   26.3123 C   0  0  0  0  0  0  0  0  0  0  0  0
    7.0209  -11.2692   25.0723 C   0  0  0  0  0  0  0  0  0  0  0  0
    7.4132  -12.5818   25.0196 C   0  0  0  0  0  0  0  0  0  0  0  0
    7.5932  -13.3253   26.1708 C   0  0  0  0  0  0  0  0  0  0  0  0
    7.4928  -16.3092   23.1147 C   0  0  0  0  0  0  0  0  0  0  0  0
    7.7810  -17.4727   22.7403 O   0  0  0  0  0  0  0  0  0  0  0  0
    9.3376  -13.9862   14.9119 N   0  0  0  0  0  0  0  0  0  0  0  0
    8.1229  -14.5106   15.4722 C   0  0  0  0  0  0  0  0  0  0  0  0
    7.7254  -15.6921   15.1728 N   0  0  0  0  0  0  0  0  0  0  0  0
    7.3286  -13.7427   16.3665 N   0  0  0  0  0  0  0  0  0  0  0  0
    7.7479  -13.4721   17.7248 C   0  0  0  0  0  0  0  0  0  0  0  0
    7.8884  -14.6821   18.5752 C   0  0  0  0  0  0  0  0  0  0  0  0
    8.1887  -14.2932   19.9955 C   0  0  0  0  0  0  0  0  0  0  0  0
    8.2112  -15.4866   20.8886 C   0  0  2  0  0  0  0  0  0  0  0  0
    7.5877  -15.2620   22.1714 N   0  0  0  0  0  0  0  0  0  0  0  0
    9.6703  -15.7751   21.1725 C   0  0  0  0  0  0  0  0  0  0  0  0
   10.3568  -14.9195   21.7593 O   0  0  0  0  0  0  0  0  0  0  0  0
    6.8489  -16.0418   15.6160 N   0  0  0  0  0  0  0  0  0  0  0  0
   10.2797  -16.9767   20.7969 C   0  0  2  0  0  0  0  0  0  0  0  0
   11.7180  -17.1231   20.8681 C   0  0  0  0  0  0  0  0  0  0  0  0
   11.9985  -18.3435   21.7038 S   0  0  0  0  0  0  0  0  0  0  0  0
   11.3213  -18.2211   23.3676 C   0  0  0  0  0  0  0  0  0  0  0  0
   12.2892  -17.2423   19.5018 O   0  0  0  0  0  0  0  0  0  0  0  0
   13.6411  -17.3551   19.2842 O   0  0  0  0  0  0  0  0  0  0  0  0
  2  1  1  1
  2  3  1  0
  4  3  1  0
  5  4  2  0
  6  7  1  0
  6  5  1  0
  7 12  2  0
  8  9  2  0
  8  7  1  0
  9 10  1  0
 10 11  2  0
 12  4  1  0
 12 11  1  0
 13 14  2  0
 13  2  1  0
 16 15  1  0
 17 16  2  0
 18 16  1  0
 19 18  1  0
 20 19  1  0
 20 21  1  0
 22 21  1  6
 22 23  1  0
 23 13  1  0
 24 22  1  0
 24 26  1  0
 25 24  2  0
 27 26  1  0
 27 30  1  0
 27 28  1  1
 28 29  1  0
 30 32  2  0
 30 31  1  0
M  END
$$$$
