WRC.pdb
     RDKit          3D

 32 33  0  0  1  0  0  0  0  0999 V2000
    6.5312  -18.5833   24.1066 N   0  0  0  0  0  0  0  0  0  0  0  0
    6.5963  -17.1289   24.0327 C   0  0  1  0  0  0  0  0  0  0  0  0
    7.3831  -16.6069   25.2217 C   0  0  0  0  0  0  0  0  0  0  0  0
    6.7450  -15.3961   25.7858 C   0  0  0  0  0  0  0  0  0  0  0  0
    5.4308  -15.1931   26.1849 C   0  0  0  0  0  0  0  0  0  0  0  0
    5.2892  -13.9310   26.6424 N   0  0  0  0  0  0  0  0  0  0  0  0
    6.4646  -13.2822   26.5627 C   0  0  0  0  0  0  0  0  0  0  0  0
    6.8462  -11.9801   26.9009 C   0  0  0  0  0  0  0  0  0  0  0  0
    8.1488  -11.6197   26.6923 C   0  0  0  0  0  0  0  0  0  0  0  0
    9.0798  -12.4990   26.1640 C   0  0  0  0  0  0  0  0  0  0  0  0
    8.6748  -13.7688   25.8426 C   0  0  0  0  0  0  0  0  0  0  0  0
    7.3686  -14.1775   26.0358 C   0  0  0  0  0  0  0  0  0  0  0  0
    7.4020  -16.7778   22.8090 C   0  0  0  0  0  0  0  0  0  0  0  0
    8.2524  -17.5774   22.3460 O   0  0  0  0  0  0  0  0  0  0  0  0
    7.1106  -14.7490   15.4220 N   0  0  0  0  0  0  0  0  0  0  0  0
    8.4582  -14.9967   15.8545 C   0  0  0  0  0  0  0  0  0  0  0  0
    9.2653  -15.6663   15.1169 N   0  0  0  0  0  0  0  0  0  0  0  0
    8.9350  -14.5142   17.1034 N   0  0  0  0  0  0  0  0  0  0  0  0
    8.0593  -13.8796   18.0648 C   0  0  0  0  0  0  0  0  0  0  0  0
    8.7184  -13.5112   19.3443 C   0  0  0  0  0  0  0  0  0  0  0  0
    7.8154  -13.8156   20.5064 C   0  0  0  0  0  0  0  0  0  0  0  0
    7.9854  -15.2229   20.9679 C   0  0  2  0  0  0  0  0  0  0  0  0
    7.2216  -15.5408   22.1512 N   0  0  0  0  0  0  0  0  0  0  0  0
    9.4425  -15.3685   21.3533 C   0  0  0  0  0  0  0  0  0  0  0  0
   10.3075  -15.4062   20.4600 O   0  0  0  0  0  0  0  0  0  0  0  0
   10.2431  -15.7981   15.4539 N   0  0  0  0  0  0  0  0  0  0  0  0
    9.8553  -15.4629   22.6864 C   0  0  2  0  0  0  0  0  0  0  0  0
   11.2639  -15.4572   23.0200 C   0  0  0  0  0  0  0  0  0  0  0  0
   11.3711  -15.1260   24.4846 S   0  0  0  0  0  0  0  0  0  0  0  0
   10.8542  -16.4844   25.5473 C   0  0  0  0  0  0  0  0  0  0  0  0
   11.8709  -16.7756   22.7028 O   0  0  0  0  0  0  0  0  0  0  0  0
   13.2173  -17.0107   22.8426 O   0  0  0  0  0  0  0  0  0  0  0  0
  2  1  1  1
  2  3  1  0
  4  3  1  0
  5  4  2  0
  6  7  1  0
  6  5  1  0
  7 12  2  0
  8  9  2  0
  8  7  1  0
  9 10  1  0
 10 11  2  0
 12  4  1  0
 12 11  1  0
 13 14  2  0
 13  2  1  0
 16 15  1  0
 17 16  2  0
 18 16  1  0
 19 18  1  0
 20 19  1  0
 20 21  1  0
 22 21  1  1
 22 23  1  0
 23 13  1  0
 24 22  1  0
 24 26  1  0
 25 24  2  0
 27 26  1  0
 27 30  1  0
 27 28  1  6
 28 29  1  0
 30 32  2  0
 30 31  1  0
M  END
$$$$
