WRC.pdb
     RDKit          3D

 32 33  0  0  1  0  0  0  0  0999 V2000
    6.4910  -18.8033   24.8854 N   0  0  0  0  0  0  0  0  0  0  0  0
    6.5552  -17.3546   24.7358 C   0  0  1  0  0  0  0  0  0  0  0  0
    7.2514  -16.7616   25.9478 C   0  0  0  0  0  0  0  0  0  0  0  0
    6.8476  -15.3519   26.1504 C   0  0  0  0  0  0  0  0  0  0  0  0
    5.5831  -14.7798   26.1133 C   0  0  0  0  0  0  0  0  0  0  0  0
    5.6809  -13.4557   26.3570 N   0  0  0  0  0  0  0  0  0  0  0  0
    6.9685  -13.1221   26.5558 C   0  0  0  0  0  0  0  0  0  0  0  0
    7.5927  -11.9029   26.8377 C   0  0  0  0  0  0  0  0  0  0  0  0
    8.9522  -11.8985   26.9860 C   0  0  0  0  0  0  0  0  0  0  0  0
    9.7091  -13.0524   26.8656 C   0  0  0  0  0  0  0  0  0  0  0  0
    9.0678  -14.2322   26.5889 C   0  0  0  0  0  0  0  0  0  0  0  0
    7.6958  -14.2848   26.4306 C   0  0  0  0  0  0  0  0  0  0  0  0
    7.4461  -17.0650   23.5560 C   0  0  0  0  0  0  0  0  0  0  0  0
    8.4499  -17.7801   23.3154 O   0  0  0  0  0  0  0  0  0  0  0  0
    8.7530  -15.8302   17.0806 N   0  0  0  0  0  0  0  0  0  0  0  0
    8.3135  -14.5396   16.6272 C   0  0  0  0  0  0  0  0  0  0  0  0
    8.6063  -14.1300   15.4481 N   0  0  0  0  0  0  0  0  0  0  0  0
    7.5490  -13.6822   17.4641 N   0  0  0  0  0  0  0  0  0  0  0  0
    8.0490  -13.2076   18.7364 C   0  0  0  0  0  0  0  0  0  0  0  0
    8.5725  -14.2761   19.6261 C   0  0  0  0  0  0  0  0  0  0  0  0
    7.6172  -14.5311   20.7579 C   0  0  0  0  0  0  0  0  0  0  0  0
    8.0629  -15.6842   21.5909 C   0  0  2  0  0  0  0  0  0  0  0  0
    7.1755  -15.9820   22.6903 N   0  0  0  0  0  0  0  0  0  0  0  0
    9.3815  -15.2731   22.2114 C   0  0  0  0  0  0  0  0  0  0  0  0
    9.3839  -14.4577   23.1510 O   0  0  0  0  0  0  0  0  0  0  0  0
    8.2487  -13.1971   15.1500 N   0  0  0  0  0  0  0  0  0  0  0  0
   10.6062  -15.7797   21.7643 C   0  0  1  0  0  0  0  0  0  0  0  0
   11.7864  -15.6865   22.5973 C   0  0  0  0  0  0  0  0  0  0  0  0
   11.4765  -16.3997   23.8863 S   0  0  0  0  0  0  0  0  0  0  0  0
   12.8552  -16.3799   25.0441 C   0  0  0  0  0  0  0  0  0  0  0  0
   12.9545  -16.2828   21.8995 O   0  0  0  0  0  0  0  0  0  0  0  0
   12.8261  -16.9588   20.7103 O   0  0  0  0  0  0  0  0  0  0  0  0
  2  1  1  1
  2  3  1  0
  4  3  1  0
  5  4  2  0
  6  7  1  0
  6  5  1  0
  7 12  2  0
  8  9  2  0
  8  7  1  0
  9 10  1  0
 10 11  2  0
 12  4  1  0
 12 11  1  0
 13 14  2  0
 13  2  1  0
 16 15  1  0
 17 16  2  0
 18 16  1  0
 19 18  1  0
 20 19  1  0
 20 21  1  0
 22 21  1  1
 22 23  1  0
 23 13  1  0
 24 22  1  0
 24 26  1  0
 25 24  2  0
 27 26  1  0
 27 30  1  0
 27 28  1  6
 28 29  1  0
 30 32  2  0
 30 31  1  0
M  END
$$$$
