IHF.pdb
     RDKit          3D

 30 31  0  0  1  0  0  0  0  0999 V2000
    8.1857  -11.6826   19.3075 C   0  0  0  0  0  0  0  0  0  0  0  0
    8.4232  -13.1100   18.9044 C   0  0  0  0  0  0  0  0  0  0  0  0
    7.9663  -13.9883   20.0479 C   0  0  2  0  0  0  0  0  0  0  0  0
    8.7156  -13.6848   21.3225 C   0  0  0  0  0  0  0  0  0  0  0  0
    8.0821  -15.4421   19.7493 C   0  0  2  0  0  0  0  0  0  0  0  0
    7.4041  -15.8807   18.5738 N   0  0  0  0  0  0  0  0  0  0  0  0
    7.6228  -16.2570   20.9490 C   0  0  0  0  0  0  0  0  0  0  0  0
    6.4070  -16.5158   21.0896 O   0  0  0  0  0  0  0  0  0  0  0  0
    8.5446  -16.7209   21.8980 N   0  0  0  0  0  0  0  0  0  0  0  0
    8.3323  -17.4976   23.0811 C   0  0  1  0  0  0  0  0  0  0  0  0
    8.4734  -18.9933   22.9421 C   0  0  0  0  0  0  0  0  0  0  0  0
    8.1696  -19.7636   24.1442 C   0  0  0  0  0  0  0  0  0  0  0  0
    9.0052  -20.3672   25.0354 C   0  0  0  0  0  0  0  0  0  0  0  0
    8.2970  -21.0355   25.9831 N   0  0  0  0  0  0  0  0  0  0  0  0
    7.0120  -20.8381   25.6675 C   0  0  0  0  0  0  0  0  0  0  0  0
    6.9299  -20.0628   24.5463 N   0  0  0  0  0  0  0  0  0  0  0  0
    8.8914  -16.9714   24.3155 C   0  0  0  0  0  0  0  0  0  0  0  0
   10.0971  -16.6154   24.3853 O   0  0  0  0  0  0  0  0  0  0  0  0
    8.1357  -16.8168   25.5297 N   0  0  0  0  0  0  0  0  0  0  0  0
    8.7493  -16.2882   26.7319 C   0  0  1  0  0  0  0  0  0  0  0  0
    7.7497  -15.5455   27.5975 C   0  0  0  0  0  0  0  0  0  0  0  0
    7.3789  -14.2766   26.9324 C   0  0  0  0  0  0  0  0  0  0  0  0
    8.2627  -13.2434   26.9191 C   0  0  0  0  0  0  0  0  0  0  0  0
    7.9538  -12.0507   26.3117 C   0  0  0  0  0  0  0  0  0  0  0  0
    6.7230  -11.9194   25.7118 C   0  0  0  0  0  0  0  0  0  0  0  0
    5.8127  -12.9630   25.7173 C   0  0  0  0  0  0  0  0  0  0  0  0
    6.1567  -14.1434   26.3354 C   0  0  0  0  0  0  0  0  0  0  0  0
    9.2526  -17.4346   27.5217 C   0  0  0  0  0  0  0  0  0  0  0  0
    9.8494  -17.2584   28.6078 O   0  0  0  0  0  0  0  0  0  0  0  0
    9.0769  -18.7369   27.0801 O   0  0  0  0  0  0  0  0  0  0  0  0
  1  2  1  0
  3  4  1  1
  3  2  1  0
  5  6  1  6
  5  3  1  0
  7  8  2  0
  7  5  1  0
  9  7  1  0
 10 17  1  0
 10  9  1  0
 10 11  1  6
 12 16  1  0
 12 11  1  0
 13 12  2  0
 14 13  1  0
 14 15  1  0
 15 16  2  0
 17 19  1  0
 18 17  2  0
 19 20  1  0
 20 28  1  0
 20 21  1  1
 22 21  1  0
 23 22  2  0
 24 23  1  0
 25 24  2  0
 25 26  1  0
 26 27  2  0
 27 22  1  0
 28 29  2  0
 28 30  1  0
M  END
$$$$
