IHF.pdb
     RDKit          3D

 30 31  0  0  1  0  0  0  0  0999 V2000
    7.9055  -11.3612   19.9279 C   0  0  0  0  0  0  0  0  0  0  0  0
    7.7570  -12.7604   19.4020 C   0  0  0  0  0  0  0  0  0  0  0  0
    7.8220  -13.7009   20.5848 C   0  0  2  0  0  0  0  0  0  0  0  0
    9.1304  -13.5791   21.3274 C   0  0  0  0  0  0  0  0  0  0  0  0
    7.6054  -15.1253   20.2102 C   0  0  2  0  0  0  0  0  0  0  0  0
    6.3559  -15.4097   19.5841 N   0  0  0  0  0  0  0  0  0  0  0  0
    7.7912  -16.0169   21.4287 C   0  0  0  0  0  0  0  0  0  0  0  0
    6.8195  -16.2378   22.1850 O   0  0  0  0  0  0  0  0  0  0  0  0
    9.0369  -16.5934   21.7140 N   0  0  0  0  0  0  0  0  0  0  0  0
    9.4224  -17.4650   22.7817 C   0  0  1  0  0  0  0  0  0  0  0  0
   10.4253  -18.5413   22.4468 C   0  0  0  0  0  0  0  0  0  0  0  0
   10.7390  -19.4628   23.5345 C   0  0  0  0  0  0  0  0  0  0  0  0
   11.8017  -19.4863   24.3871 C   0  0  0  0  0  0  0  0  0  0  0  0
   11.7309  -20.5611   25.2154 N   0  0  0  0  0  0  0  0  0  0  0  0
   10.6107  -21.2031   24.8650 C   0  0  0  0  0  0  0  0  0  0  0  0
   10.0027  -20.5363   23.8399 N   0  0  0  0  0  0  0  0  0  0  0  0
    9.6402  -16.8487   24.0801 C   0  0  0  0  0  0  0  0  0  0  0  0
   10.5303  -15.9737   24.2453 O   0  0  0  0  0  0  0  0  0  0  0  0
    8.8782  -17.1770   25.2552 N   0  0  0  0  0  0  0  0  0  0  0  0
    9.1251  -16.5106   26.5186 C   0  0  1  0  0  0  0  0  0  0  0  0
    7.8378  -16.0558   27.1792 C   0  0  0  0  0  0  0  0  0  0  0  0
    7.4303  -14.7541   26.6050 C   0  0  0  0  0  0  0  0  0  0  0  0
    8.2373  -13.6708   26.7604 C   0  0  0  0  0  0  0  0  0  0  0  0
    7.8923  -12.4465   26.2417 C   0  0  0  0  0  0  0  0  0  0  0  0
    6.7050  -12.3353   25.5562 C   0  0  0  0  0  0  0  0  0  0  0  0
    5.8730  -13.4299   25.3901 C   0  0  0  0  0  0  0  0  0  0  0  0
    6.2512  -14.6408   25.9234 C   0  0  0  0  0  0  0  0  0  0  0  0
    9.7662  -17.4890   27.4258 C   0  0  0  0  0  0  0  0  0  0  0  0
    9.4055  -18.6875   27.4419 O   0  0  0  0  0  0  0  0  0  0  0  0
   10.7851  -17.1049   28.2837 O   0  0  0  0  0  0  0  0  0  0  0  0
  1  2  1  0
  3  4  1  6
  3  2  1  0
  5  6  1  1
  5  3  1  0
  7  8  2  0
  7  5  1  0
  9  7  1  0
 10 17  1  0
 10  9  1  0
 10 11  1  6
 12 16  1  0
 12 11  1  0
 13 12  2  0
 14 13  1  0
 14 15  1  0
 15 16  2  0
 17 19  1  0
 18 17  2  0
 19 20  1  0
 20 28  1  0
 20 21  1  1
 22 21  1  0
 23 22  2  0
 24 23  1  0
 25 24  2  0
 25 26  1  0
 26 27  2  0
 27 22  1  0
 28 29  2  0
 28 30  1  0
M  END
$$$$
