IHF.pdb
     RDKit          3D

 30 31  0  0  1  0  0  0  0  0999 V2000
    8.3996  -11.6303   21.7257 C   0  0  0  0  0  0  0  0  0  0  0  0
    7.8074  -13.0029   21.8722 C   0  0  0  0  0  0  0  0  0  0  0  0
    8.3308  -13.8489   20.7329 C   0  0  2  0  0  0  0  0  0  0  0  0
    8.1764  -13.1545   19.4016 C   0  0  0  0  0  0  0  0  0  0  0  0
    7.6895  -15.1903   20.6598 C   0  0  2  0  0  0  0  0  0  0  0  0
    6.2886  -15.1846   20.3927 N   0  0  0  0  0  0  0  0  0  0  0  0
    7.9726  -15.9716   21.9341 C   0  0  0  0  0  0  0  0  0  0  0  0
    7.0653  -16.1159   22.7832 O   0  0  0  0  0  0  0  0  0  0  0  0
    9.2366  -16.5310   22.1682 N   0  0  0  0  0  0  0  0  0  0  0  0
    9.6909  -17.3541   23.2471 C   0  0  1  0  0  0  0  0  0  0  0  0
   10.6172  -18.4895   22.8874 C   0  0  0  0  0  0  0  0  0  0  0  0
   10.8696  -19.4519   23.9555 C   0  0  0  0  0  0  0  0  0  0  0  0
   10.0152  -20.2995   24.5943 C   0  0  0  0  0  0  0  0  0  0  0  0
   10.6595  -20.9832   25.5761 N   0  0  0  0  0  0  0  0  0  0  0  0
   11.9240  -20.5481   25.5372 C   0  0  0  0  0  0  0  0  0  0  0  0
   12.0564  -19.6138   24.5499 N   0  0  0  0  0  0  0  0  0  0  0  0
   10.0546  -16.6728   24.4787 C   0  0  0  0  0  0  0  0  0  0  0  0
   10.8710  -15.7143   24.4766 O   0  0  0  0  0  0  0  0  0  0  0  0
    9.5274  -17.0258   25.7697 N   0  0  0  0  0  0  0  0  0  0  0  0
    9.9349  -16.3148   26.9653 C   0  0  1  0  0  0  0  0  0  0  0  0
    8.7438  -15.8103   27.7570 C   0  0  0  0  0  0  0  0  0  0  0  0
    8.1030  -14.7004   27.0170 C   0  0  0  0  0  0  0  0  0  0  0  0
    8.6491  -13.4563   27.0693 C   0  0  0  0  0  0  0  0  0  0  0  0
    8.0824  -12.4017   26.3958 C   0  0  0  0  0  0  0  0  0  0  0  0
    6.9422  -12.6292   25.6609 C   0  0  0  0  0  0  0  0  0  0  0  0
    6.3747  -13.8909   25.5983 C   0  0  0  0  0  0  0  0  0  0  0  0
    6.9699  -14.9236   26.2860 C   0  0  0  0  0  0  0  0  0  0  0  0
   10.6679  -17.2685   27.8282 C   0  0  0  0  0  0  0  0  0  0  0  0
   11.2048  -16.8932   28.8948 O   0  0  0  0  0  0  0  0  0  0  0  0
   10.7802  -18.6053   27.4788 O   0  0  0  0  0  0  0  0  0  0  0  0
  1  2  1  0
  3  4  1  6
  3  2  1  0
  5  6  1  1
  5  3  1  0
  7  8  2  0
  7  5  1  0
  9  7  1  0
 10 17  1  0
 10  9  1  0
 10 11  1  6
 12 16  1  0
 12 11  1  0
 13 12  2  0
 14 13  1  0
 14 15  1  0
 15 16  2  0
 17 19  1  0
 18 17  2  0
 19 20  1  0
 20 28  1  0
 20 21  1  1
 22 21  1  0
 23 22  2  0
 24 23  1  0
 25 24  2  0
 25 26  1  0
 26 27  2  0
 27 22  1  0
 28 29  2  0
 28 30  1  0
M  END
$$$$
