IHF.pdb
     RDKit          3D

 30 31  0  0  1  0  0  0  0  0999 V2000
    7.7800  -11.7195   19.4377 C   0  0  0  0  0  0  0  0  0  0  0  0
    8.1158  -13.1273   19.0355 C   0  0  0  0  0  0  0  0  0  0  0  0
    8.1666  -13.9614   20.2962 C   0  0  2  0  0  0  0  0  0  0  0  0
    9.1111  -13.3767   21.3181 C   0  0  0  0  0  0  0  0  0  0  0  0
    8.5407  -15.3798   20.0426 C   0  0  2  0  0  0  0  0  0  0  0  0
    7.7988  -16.0334   19.0148 N   0  0  0  0  0  0  0  0  0  0  0  0
    8.4543  -16.1787   21.3344 C   0  0  0  0  0  0  0  0  0  0  0  0
    7.3338  -16.4254   21.8330 O   0  0  0  0  0  0  0  0  0  0  0  0
    9.6140  -16.6412   21.9721 N   0  0  0  0  0  0  0  0  0  0  0  0
    9.7704  -17.2788   23.2438 C   0  0  1  0  0  0  0  0  0  0  0  0
   10.1860  -18.7291   23.2261 C   0  0  0  0  0  0  0  0  0  0  0  0
    9.4360  -19.5825   22.3096 C   0  0  0  0  0  0  0  0  0  0  0  0
    8.3823  -19.2871   21.4977 C   0  0  0  0  0  0  0  0  0  0  0  0
    7.9446  -20.4001   20.8527 N   0  0  0  0  0  0  0  0  0  0  0  0
    8.7407  -21.3886   21.2755 C   0  0  0  0  0  0  0  0  0  0  0  0
    9.6519  -20.8940   22.1644 N   0  0  0  0  0  0  0  0  0  0  0  0
   10.4149  -16.5002   24.2886 C   0  0  0  0  0  0  0  0  0  0  0  0
   11.4800  -15.8667   24.0664 O   0  0  0  0  0  0  0  0  0  0  0  0
    9.9049  -16.3902   25.6292 N   0  0  0  0  0  0  0  0  0  0  0  0
   10.6149  -15.6330   26.6411 C   0  0  1  0  0  0  0  0  0  0  0  0
   10.3811  -14.1413   26.4990 C   0  0  0  0  0  0  0  0  0  0  0  0
    8.9283  -13.8681   26.5682 C   0  0  0  0  0  0  0  0  0  0  0  0
    8.1267  -14.2374   25.5338 C   0  0  0  0  0  0  0  0  0  0  0  0
    6.7740  -14.0002   25.5623 C   0  0  0  0  0  0  0  0  0  0  0  0
    6.2403  -13.3768   26.6661 C   0  0  0  0  0  0  0  0  0  0  0  0
    7.0443  -12.9950   27.7271 C   0  0  0  0  0  0  0  0  0  0  0  0
    8.3953  -13.2487   27.6638 C   0  0  0  0  0  0  0  0  0  0  0  0
   10.0851  -16.0401   27.9620 C   0  0  0  0  0  0  0  0  0  0  0  0
    9.1395  -16.8550   28.0554 O   0  0  0  0  0  0  0  0  0  0  0  0
   10.6220  -15.5298   29.1338 O   0  0  0  0  0  0  0  0  0  0  0  0
  1  2  1  0
  3  4  1  1
  3  2  1  0
  5  6  1  6
  5  3  1  0
  7  8  2  0
  7  5  1  0
  9  7  1  0
 10 17  1  0
 10  9  1  0
 10 11  1  6
 12 16  1  0
 12 11  1  0
 13 12  2  0
 14 13  1  0
 14 15  1  0
 15 16  2  0
 17 19  1  0
 18 17  2  0
 19 20  1  0
 20 28  1  0
 20 21  1  6
 22 21  1  0
 23 22  2  0
 24 23  1  0
 25 24  2  0
 25 26  1  0
 26 27  2  0
 27 22  1  0
 28 29  2  0
 28 30  1  0
M  END
$$$$
