IHF.pdb
     RDKit          3D

 30 31  0  0  1  0  0  0  0  0999 V2000
    7.3972  -11.3974   19.9387 C   0  0  0  0  0  0  0  0  0  0  0  0
    8.0269  -12.6240   19.3424 C   0  0  0  0  0  0  0  0  0  0  0  0
    8.1345  -13.6598   20.4393 C   0  0  2  0  0  0  0  0  0  0  0  0
    8.8795  -13.1300   21.6403 C   0  0  0  0  0  0  0  0  0  0  0  0
    8.7766  -14.9243   19.9867 C   0  0  2  0  0  0  0  0  0  0  0  0
    8.2733  -15.4627   18.7657 N   0  0  0  0  0  0  0  0  0  0  0  0
    8.6969  -15.9706   21.0881 C   0  0  0  0  0  0  0  0  0  0  0  0
    7.6331  -16.6064   21.2588 O   0  0  0  0  0  0  0  0  0  0  0  0
    9.7999  -16.2307   21.9134 N   0  0  0  0  0  0  0  0  0  0  0  0
    9.9537  -17.1880   22.9660 C   0  0  1  0  0  0  0  0  0  0  0  0
   10.8784  -18.3488   22.6941 C   0  0  0  0  0  0  0  0  0  0  0  0
   10.5318  -19.1650   21.5346 C   0  0  0  0  0  0  0  0  0  0  0  0
   10.9224  -19.0542   20.2339 C   0  0  0  0  0  0  0  0  0  0  0  0
   10.3100  -19.9928   19.4656 N   0  0  0  0  0  0  0  0  0  0  0  0
    9.5351  -20.6864   20.3071 C   0  0  0  0  0  0  0  0  0  0  0  0
    9.6675  -20.1846   21.5703 N   0  0  0  0  0  0  0  0  0  0  0  0
   10.0614  -16.6606   24.3164 C   0  0  0  0  0  0  0  0  0  0  0  0
   10.9494  -15.8209   24.6193 O   0  0  0  0  0  0  0  0  0  0  0  0
    9.1868  -17.0426   25.3926 N   0  0  0  0  0  0  0  0  0  0  0  0
    9.3510  -16.4912   26.7231 C   0  0  1  0  0  0  0  0  0  0  0  0
    8.0205  -16.1225   27.3507 C   0  0  0  0  0  0  0  0  0  0  0  0
    7.5533  -14.8391   26.7810 C   0  0  0  0  0  0  0  0  0  0  0  0
    8.1251  -13.6757   27.1914 C   0  0  0  0  0  0  0  0  0  0  0  0
    7.7177  -12.4654   26.6852 C   0  0  0  0  0  0  0  0  0  0  0  0
    6.7118  -12.4517   25.7473 C   0  0  0  0  0  0  0  0  0  0  0  0
    6.1200  -13.6285   25.3197 C   0  0  0  0  0  0  0  0  0  0  0  0
    6.5539  -14.8224   25.8488 C   0  0  0  0  0  0  0  0  0  0  0  0
    9.9653  -17.5375   27.5712 C   0  0  0  0  0  0  0  0  0  0  0  0
   10.2769  -17.3040   28.7609 O   0  0  0  0  0  0  0  0  0  0  0  0
   10.2130  -18.8065   27.0710 O   0  0  0  0  0  0  0  0  0  0  0  0
  1  2  1  0
  3  4  1  1
  3  2  1  0
  5  6  1  6
  5  3  1  0
  7  8  2  0
  7  5  1  0
  9  7  1  0
 10 17  1  0
 10  9  1  0
 10 11  1  6
 12 16  1  0
 12 11  1  0
 13 12  2  0
 14 13  1  0
 14 15  1  0
 15 16  2  0
 17 19  1  0
 18 17  2  0
 19 20  1  0
 20 28  1  0
 20 21  1  1
 22 21  1  0
 23 22  2  0
 24 23  1  0
 25 24  2  0
 25 26  1  0
 26 27  2  0
 27 22  1  0
 28 29  2  0
 28 30  1  0
M  END
$$$$
