IHF.pdb
     RDKit          3D

 30 31  0  0  1  0  0  0  0  0999 V2000
    7.8728  -12.2061   18.9867 C   0  0  0  0  0  0  0  0  0  0  0  0
    7.7275  -13.6881   18.7898 C   0  0  0  0  0  0  0  0  0  0  0  0
    7.5751  -14.3166   20.1571 C   0  0  2  0  0  0  0  0  0  0  0  0
    8.8230  -14.1557   20.9908 C   0  0  0  0  0  0  0  0  0  0  0  0
    7.2107  -15.7588   20.0991 C   0  0  2  0  0  0  0  0  0  0  0  0
    6.1322  -16.0822   19.2238 N   0  0  0  0  0  0  0  0  0  0  0  0
    6.9176  -16.2773   21.4989 C   0  0  0  0  0  0  0  0  0  0  0  0
    5.9193  -15.8483   22.1188 O   0  0  0  0  0  0  0  0  0  0  0  0
    7.7519  -17.2290   22.1020 N   0  0  0  0  0  0  0  0  0  0  0  0
    7.7684  -17.7139   23.4484 C   0  0  1  0  0  0  0  0  0  0  0  0
    7.4463  -19.1748   23.6446 C   0  0  0  0  0  0  0  0  0  0  0  0
    7.4789  -19.6412   25.0274 C   0  0  0  0  0  0  0  0  0  0  0  0
    6.9251  -19.1022   26.1497 C   0  0  0  0  0  0  0  0  0  0  0  0
    7.2542  -19.8322   27.2474 N   0  0  0  0  0  0  0  0  0  0  0  0
    8.0189  -20.8304   26.7907 C   0  0  0  0  0  0  0  0  0  0  0  0
    8.1585  -20.7175   25.4369 N   0  0  0  0  0  0  0  0  0  0  0  0
    8.8438  -17.2344   24.3009 C   0  0  0  0  0  0  0  0  0  0  0  0
   10.0462  -17.5143   24.0532 O   0  0  0  0  0  0  0  0  0  0  0  0
    8.6321  -16.4214   25.4686 N   0  0  0  0  0  0  0  0  0  0  0  0
    9.7487  -15.8650   26.2066 C   0  0  1  0  0  0  0  0  0  0  0  0
    9.9041  -14.3766   25.9604 C   0  0  0  0  0  0  0  0  0  0  0  0
    8.6278  -13.6962   26.2739 C   0  0  0  0  0  0  0  0  0  0  0  0
    8.5124  -12.9864   27.4280 C   0  0  0  0  0  0  0  0  0  0  0  0
    7.3437  -12.3418   27.7528 C   0  0  0  0  0  0  0  0  0  0  0  0
    6.2828  -12.4281   26.8816 C   0  0  0  0  0  0  0  0  0  0  0  0
    6.3856  -13.1474   25.7026 C   0  0  0  0  0  0  0  0  0  0  0  0
    7.5720  -13.7803   25.4101 C   0  0  0  0  0  0  0  0  0  0  0  0
    9.4708  -16.0482   27.6490 C   0  0  0  0  0  0  0  0  0  0  0  0
   10.2939  -15.6799   28.5172 O   0  0  0  0  0  0  0  0  0  0  0  0
    8.2900  -16.6334   28.0791 O   0  0  0  0  0  0  0  0  0  0  0  0
  1  2  1  0
  3  4  1  6
  3  2  1  0
  5  6  1  6
  5  3  1  0
  7  8  2  0
  7  5  1  0
  9  7  1  0
 10 17  1  0
 10  9  1  0
 10 11  1  6
 12 16  1  0
 12 11  1  0
 13 12  2  0
 14 13  1  0
 14 15  1  0
 15 16  2  0
 17 19  1  0
 18 17  2  0
 19 20  1  0
 20 28  1  0
 20 21  1  1
 22 21  1  0
 23 22  2  0
 24 23  1  0
 25 24  2  0
 25 26  1  0
 26 27  2  0
 27 22  1  0
 28 29  2  0
 28 30  1  0
M  END
$$$$
