GDR.pdb
     RDKit          3D

 24 23  0  0  1  0  0  0  0  0999 V2000
   10.9161  -16.2951   16.8981 N   0  0  0  0  0  0  0  0  0  0  0  0
   12.1948  -16.4851   17.5370 C   0  0  0  0  0  0  0  0  0  0  0  0
   12.0195  -17.0474   18.9231 C   0  0  0  0  0  0  0  0  0  0  0  0
   10.8940  -17.4460   19.3184 O   0  0  0  0  0  0  0  0  0  0  0  0
   13.1005  -17.1481   19.8250 N   0  0  0  0  0  0  0  0  0  0  0  0
   12.9192  -17.8522   21.0995 C   0  0  1  0  0  0  0  0  0  0  0  0
   14.1914  -18.4632   21.5582 C   0  0  0  0  0  0  0  0  0  0  0  0
   14.0084  -19.2952   22.7400 C   0  0  0  0  0  0  0  0  0  0  0  0
   12.9765  -19.9383   22.9752 O   0  0  0  0  0  0  0  0  0  0  0  0
   12.3565  -16.8678   22.0915 C   0  0  0  0  0  0  0  0  0  0  0  0
   12.9424  -15.8744   22.5356 O   0  0  0  0  0  0  0  0  0  0  0  0
   15.0515  -19.3812   23.6706 O   0  0  0  0  0  0  0  0  0  0  0  0
    8.0102  -12.0820   20.4982 N   0  0  0  0  0  0  0  0  0  0  0  0
    8.3483  -12.9893   19.4392 C   0  0  0  0  0  0  0  0  0  0  0  0
    8.8661  -12.4840   18.3889 N   0  0  0  0  0  0  0  0  0  0  0  0
    8.1226  -14.3815   19.5428 N   0  0  0  0  0  0  0  0  0  0  0  0
    7.9675  -15.0130   20.8328 C   0  0  0  0  0  0  0  0  0  0  0  0
    9.2474  -14.8752   21.6710 C   0  0  0  0  0  0  0  0  0  0  0  0
    9.0778  -15.7415   22.8807 C   0  0  0  0  0  0  0  0  0  0  0  0
   10.3785  -16.1596   23.5158 C   0  0  2  0  0  0  0  0  0  0  0  0
   11.0277  -17.0821   22.5758 N   0  0  0  0  0  0  0  0  0  0  0  0
   10.2498  -16.7503   24.8479 C   0  0  0  0  0  0  0  0  0  0  0  0
   10.4055  -17.9760   25.0333 O   0  0  0  0  0  0  0  0  0  0  0  0
    9.9498  -15.9607   25.9448 O   0  0  0  0  0  0  0  0  0  0  0  0
  2  1  1  0
  3  2  1  0
  4  3  2  0
  5  3  1  0
  6  7  1  1
  6  5  1  0
  8 12  1  0
  8  7  1  0
  9  8  2  0
 10 11  2  0
 10  6  1  0
 14 13  1  0
 14 16  1  0
 15 14  2  0
 17 16  1  0
 18 17  1  0
 19 18  1  0
 20 21  1  0
 20 19  1  6
 21 10  1  0
 22 20  1  0
 23 22  2  0
 24 22  1  0
M  END
$$$$
