GDR.pdb
     RDKit          3D

 24 23  0  0  1  0  0  0  0  0999 V2000
    9.4081  -18.2493   16.0147 N   0  0  0  0  0  0  0  0  0  0  0  0
    8.1500  -18.7732   16.4858 C   0  0  0  0  0  0  0  0  0  0  0  0
    8.2598  -19.2116   17.9224 C   0  0  0  0  0  0  0  0  0  0  0  0
    7.4374  -18.8065   18.7835 O   0  0  0  0  0  0  0  0  0  0  0  0
    9.2802  -20.0853   18.3556 N   0  0  0  0  0  0  0  0  0  0  0  0
    9.3256  -20.5085   19.7598 C   0  0  1  0  0  0  0  0  0  0  0  0
    9.7293  -21.9318   19.8763 C   0  0  0  0  0  0  0  0  0  0  0  0
    8.5981  -22.8036   20.1637 C   0  0  0  0  0  0  0  0  0  0  0  0
    7.5466  -22.8043   19.5094 O   0  0  0  0  0  0  0  0  0  0  0  0
   10.2593  -19.5781   20.4894 C   0  0  0  0  0  0  0  0  0  0  0  0
   11.3963  -19.2615   20.1228 O   0  0  0  0  0  0  0  0  0  0  0  0
    8.6927  -23.6966   21.2384 O   0  0  0  0  0  0  0  0  0  0  0  0
    7.1686  -12.3936   21.4673 N   0  0  0  0  0  0  0  0  0  0  0  0
    7.9562  -12.7873   20.3343 C   0  0  0  0  0  0  0  0  0  0  0  0
    7.8920  -12.0442   19.2998 N   0  0  0  0  0  0  0  0  0  0  0  0
    8.7699  -13.9438   20.3512 N   0  0  0  0  0  0  0  0  0  0  0  0
    8.8730  -14.7599   21.5386 C   0  0  0  0  0  0  0  0  0  0  0  0
    9.8153  -15.9511   21.3083 C   0  0  0  0  0  0  0  0  0  0  0  0
    9.8097  -16.7672   22.5639 C   0  0  0  0  0  0  0  0  0  0  0  0
   10.6222  -18.0325   22.4697 C   0  0  2  0  0  0  0  0  0  0  0  0
    9.8109  -18.9978   21.7175 N   0  0  0  0  0  0  0  0  0  0  0  0
   11.0574  -18.5801   23.7545 C   0  0  0  0  0  0  0  0  0  0  0  0
   10.4628  -19.5417   24.2862 O   0  0  0  0  0  0  0  0  0  0  0  0
   12.1468  -18.0428   24.4189 O   0  0  0  0  0  0  0  0  0  0  0  0
  2  1  1  0
  3  2  1  0
  4  3  2  0
  5  3  1  0
  6  7  1  6
  6  5  1  0
  8 12  1  0
  8  7  1  0
  9  8  2  0
 10 11  2  0
 10  6  1  0
 14 13  1  0
 14 16  1  0
 15 14  2  0
 17 16  1  0
 18 17  1  0
 19 18  1  0
 20 21  1  0
 20 19  1  1
 21 10  1  0
 22 20  1  0
 23 22  2  0
 24 22  1  0
M  END
$$$$
