GDR.pdb
     RDKit          3D

 24 23  0  0  1  0  0  0  0  0999 V2000
   12.8056  -17.2249   17.1245 N   0  0  0  0  0  0  0  0  0  0  0  0
   13.6924  -17.1657   18.2601 C   0  0  0  0  0  0  0  0  0  0  0  0
   13.0403  -17.7667   19.4773 C   0  0  0  0  0  0  0  0  0  0  0  0
   11.8026  -17.9896   19.5005 O   0  0  0  0  0  0  0  0  0  0  0  0
   13.7844  -18.0998   20.6295 N   0  0  0  0  0  0  0  0  0  0  0  0
   13.1026  -18.6832   21.7903 C   0  0  1  0  0  0  0  0  0  0  0  0
   14.0349  -19.5066   22.5996 C   0  0  0  0  0  0  0  0  0  0  0  0
   13.3529  -20.2160   23.6739 C   0  0  0  0  0  0  0  0  0  0  0  0
   12.1854  -20.6221   23.5972 O   0  0  0  0  0  0  0  0  0  0  0  0
   12.4909  -17.5542   22.5783 C   0  0  0  0  0  0  0  0  0  0  0  0
   13.0995  -16.5833   23.0414 O   0  0  0  0  0  0  0  0  0  0  0  0
   14.0461  -20.4591   24.8662 O   0  0  0  0  0  0  0  0  0  0  0  0
    8.3852  -14.2836   18.4420 N   0  0  0  0  0  0  0  0  0  0  0  0
    8.2523  -13.1843   19.3546 C   0  0  0  0  0  0  0  0  0  0  0  0
    8.5455  -12.0256   18.9097 N   0  0  0  0  0  0  0  0  0  0  0  0
    7.8177  -13.3642   20.6882 N   0  0  0  0  0  0  0  0  0  0  0  0
    7.8799  -14.6622   21.3191 C   0  0  0  0  0  0  0  0  0  0  0  0
    9.1487  -14.7989   22.1741 C   0  0  0  0  0  0  0  0  0  0  0  0
    9.1534  -16.1864   22.7377 C   0  0  0  0  0  0  0  0  0  0  0  0
   10.3862  -16.5118   23.5406 C   0  0  2  0  0  0  0  0  0  0  0  0
   11.0822  -17.5881   22.8242 N   0  0  0  0  0  0  0  0  0  0  0  0
   10.1336  -16.8693   24.9363 C   0  0  0  0  0  0  0  0  0  0  0  0
    9.8995  -18.0496   25.2729 O   0  0  0  0  0  0  0  0  0  0  0  0
   10.1472  -15.9023   25.9270 O   0  0  0  0  0  0  0  0  0  0  0  0
  2  1  1  0
  3  2  1  0
  4  3  2  0
  5  3  1  0
  6  7  1  1
  6  5  1  0
  8 12  1  0
  8  7  1  0
  9  8  2  0
 10 11  2  0
 10  6  1  0
 14 13  1  0
 14 16  1  0
 15 14  2  0
 17 16  1  0
 18 17  1  0
 19 18  1  0
 20 21  1  0
 20 19  1  6
 21 10  1  0
 22 20  1  0
 23 22  2  0
 24 22  1  0
M  END
$$$$
