GDR.pdb
     RDKit          3D

 24 23  0  0  1  0  0  0  0  0999 V2000
    7.3058  -13.1686   18.0812 N   0  0  0  0  0  0  0  0  0  0  0  0
    8.5959  -13.7603   17.8266 C   0  0  0  0  0  0  0  0  0  0  0  0
    8.8324  -14.9354   18.7384 C   0  0  0  0  0  0  0  0  0  0  0  0
    8.0313  -15.1970   19.6721 O   0  0  0  0  0  0  0  0  0  0  0  0
    9.9518  -15.7812   18.5835 N   0  0  0  0  0  0  0  0  0  0  0  0
   10.1700  -16.8775   19.5339 C   0  0  1  0  0  0  0  0  0  0  0  0
   11.1739  -17.8407   19.0173 C   0  0  0  0  0  0  0  0  0  0  0  0
   10.6549  -18.6392   17.9148 C   0  0  0  0  0  0  0  0  0  0  0  0
    9.4558  -18.9123   17.7683 O   0  0  0  0  0  0  0  0  0  0  0  0
   10.5732  -16.2689   20.8517 C   0  0  0  0  0  0  0  0  0  0  0  0
   11.5110  -15.4836   21.0282 O   0  0  0  0  0  0  0  0  0  0  0  0
   11.5527  -19.1318   16.9595 O   0  0  0  0  0  0  0  0  0  0  0  0
    4.8203  -12.8111   26.2243 N   0  0  0  0  0  0  0  0  0  0  0  0
    6.1216  -12.3841   26.6524 C   0  0  0  0  0  0  0  0  0  0  0  0
    6.1789  -11.3200   27.3530 N   0  0  0  0  0  0  0  0  0  0  0  0
    7.2941  -13.1010   26.3191 N   0  0  0  0  0  0  0  0  0  0  0  0
    7.3149  -14.0047   25.1923 C   0  0  0  0  0  0  0  0  0  0  0  0
    8.7193  -14.5905   24.9819 C   0  0  0  0  0  0  0  0  0  0  0  0
    8.6800  -15.3858   23.7135 C   0  0  0  0  0  0  0  0  0  0  0  0
   10.0174  -15.9484   23.3075 C   0  0  2  0  0  0  0  0  0  0  0  0
    9.8174  -16.6165   22.0154 N   0  0  0  0  0  0  0  0  0  0  0  0
   10.6302  -16.8444   24.2880 C   0  0  0  0  0  0  0  0  0  0  0  0
   10.9668  -16.4366   25.4200 O   0  0  0  0  0  0  0  0  0  0  0  0
   10.8547  -18.1764   23.9845 O   0  0  0  0  0  0  0  0  0  0  0  0
  2  1  1  0
  3  2  1  0
  4  3  2  0
  5  3  1  0
  6  7  1  6
  6  5  1  0
  8 12  1  0
  8  7  1  0
  9  8  2  0
 10 11  2  0
 10  6  1  0
 14 13  1  0
 14 16  1  0
 15 14  2  0
 17 16  1  0
 18 17  1  0
 19 18  1  0
 20 21  1  0
 20 19  1  1
 21 10  1  0
 22 20  1  0
 23 22  2  0
 24 22  1  0
M  END
$$$$
