GDR.pdb
     RDKit          3D

 24 23  0  0  1  0  0  0  0  0999 V2000
    6.5262  -18.9814   19.1540 N   0  0  0  0  0  0  0  0  0  0  0  0
    6.4236  -17.5846   19.4970 C   0  0  0  0  0  0  0  0  0  0  0  0
    7.7427  -16.8873   19.2922 C   0  0  0  0  0  0  0  0  0  0  0  0
    8.7831  -17.5429   19.0282 O   0  0  0  0  0  0  0  0  0  0  0  0
    7.8630  -15.4843   19.3881 N   0  0  0  0  0  0  0  0  0  0  0  0
    9.1772  -14.8550   19.2153 C   0  0  1  0  0  0  0  0  0  0  0  0
    9.0420  -13.4629   18.7194 C   0  0  0  0  0  0  0  0  0  0  0  0
    8.4871  -13.4090   17.3734 C   0  0  0  0  0  0  0  0  0  0  0  0
    8.6949  -14.2710   16.5088 O   0  0  0  0  0  0  0  0  0  0  0  0
    9.9007  -14.9342   20.5344 C   0  0  0  0  0  0  0  0  0  0  0  0
    9.7308  -14.1796   21.4983 O   0  0  0  0  0  0  0  0  0  0  0  0
    7.6705  -12.3259   17.0250 O   0  0  0  0  0  0  0  0  0  0  0  0
   13.3072  -19.3152   26.7385 N   0  0  0  0  0  0  0  0  0  0  0  0
   13.0081  -20.3280   25.7670 C   0  0  0  0  0  0  0  0  0  0  0  0
   13.5439  -21.4720   25.9416 N   0  0  0  0  0  0  0  0  0  0  0  0
   12.1603  -20.0815   24.6624 N   0  0  0  0  0  0  0  0  0  0  0  0
   11.6085  -18.7667   24.4307 C   0  0  0  0  0  0  0  0  0  0  0  0
   12.4796  -17.9689   23.4485 C   0  0  0  0  0  0  0  0  0  0  0  0
   11.6089  -17.5980   22.2879 C   0  0  0  0  0  0  0  0  0  0  0  0
   11.6300  -16.1280   21.9580 C   0  0  2  0  0  0  0  0  0  0  0  0
   10.8751  -15.9668   20.7090 N   0  0  0  0  0  0  0  0  0  0  0  0
   12.9657  -15.5396   21.8599 C   0  0  0  0  0  0  0  0  0  0  0  0
   13.4842  -15.2854   20.7520 O   0  0  0  0  0  0  0  0  0  0  0  0
   13.6945  -15.2474   23.0002 O   0  0  0  0  0  0  0  0  0  0  0  0
  2  1  1  0
  3  2  1  0
  4  3  2  0
  5  3  1  0
  6  7  1  1
  6  5  1  0
  8 12  1  0
  8  7  1  0
  9  8  2  0
 10 11  2  0
 10  6  1  0
 14 13  1  0
 14 16  1  0
 15 14  2  0
 17 16  1  0
 18 17  1  0
 19 18  1  0
 20 21  1  0
 20 19  1  6
 21 10  1  0
 22 20  1  0
 23 22  2  0
 24 22  1  0
M  END
$$$$
