GDR.pdb
     RDKit          3D

 24 23  0  0  1  0  0  0  0  0999 V2000
   13.5233  -20.4926   21.7292 N   0  0  0  0  0  0  0  0  0  0  0  0
   12.0876  -20.4279   21.8476 C   0  0  0  0  0  0  0  0  0  0  0  0
   11.5734  -19.0942   21.3732 C   0  0  0  0  0  0  0  0  0  0  0  0
   12.3666  -18.1512   21.1211 O   0  0  0  0  0  0  0  0  0  0  0  0
   10.1944  -18.8515   21.1949 N   0  0  0  0  0  0  0  0  0  0  0  0
    9.7416  -17.5273   20.7540 C   0  0  1  0  0  0  0  0  0  0  0  0
    8.4247  -17.6115   20.0752 C   0  0  0  0  0  0  0  0  0  0  0  0
    8.1263  -18.9619   19.6170 C   0  0  0  0  0  0  0  0  0  0  0  0
    8.6515  -19.4828   18.6237 O   0  0  0  0  0  0  0  0  0  0  0  0
    9.7167  -16.6257   21.9608 C   0  0  0  0  0  0  0  0  0  0  0  0
    9.4671  -15.4154   21.9535 O   0  0  0  0  0  0  0  0  0  0  0  0
    7.1945  -19.7247   20.3319 O   0  0  0  0  0  0  0  0  0  0  0  0
    7.3625  -11.9603   24.8508 N   0  0  0  0  0  0  0  0  0  0  0  0
    6.7692  -12.2614   26.1222 C   0  0  0  0  0  0  0  0  0  0  0  0
    6.6297  -11.2917   26.9387 N   0  0  0  0  0  0  0  0  0  0  0  0
    6.3544  -13.5688   26.4661 N   0  0  0  0  0  0  0  0  0  0  0  0
    6.6374  -14.6883   25.5982 C   0  0  0  0  0  0  0  0  0  0  0  0
    8.1006  -15.1356   25.7351 C   0  0  0  0  0  0  0  0  0  0  0  0
    8.4307  -15.9431   24.5180 C   0  0  0  0  0  0  0  0  0  0  0  0
    9.8508  -16.4456   24.4890 C   0  0  2  0  0  0  0  0  0  0  0  0
   10.0042  -17.2002   23.2389 N   0  0  0  0  0  0  0  0  0  0  0  0
   10.2442  -17.2426   25.6509 C   0  0  0  0  0  0  0  0  0  0  0  0
   10.3194  -18.4882   25.5895 O   0  0  0  0  0  0  0  0  0  0  0  0
   10.5452  -16.6327   26.8569 O   0  0  0  0  0  0  0  0  0  0  0  0
  2  1  1  0
  3  2  1  0
  4  3  2  0
  5  3  1  0
  6  7  1  1
  6  5  1  0
  8 12  1  0
  8  7  1  0
  9  8  2  0
 10 11  2  0
 10  6  1  0
 14 13  1  0
 14 16  1  0
 15 14  2  0
 17 16  1  0
 18 17  1  0
 19 18  1  0
 20 21  1  0
 20 19  1  1
 21 10  1  0
 22 20  1  0
 23 22  2  0
 24 22  1  0
M  END
$$$$
