GDR.pdb
     RDKit          3D

 24 23  0  0  1  0  0  0  0  0999 V2000
    8.7484  -17.4950   15.1697 N   0  0  0  0  0  0  0  0  0  0  0  0
    9.7713  -17.1604   16.1295 C   0  0  0  0  0  0  0  0  0  0  0  0
    9.4259  -17.7080   17.4892 C   0  0  0  0  0  0  0  0  0  0  0  0
    8.5215  -18.5717   17.6244 O   0  0  0  0  0  0  0  0  0  0  0  0
   10.0961  -17.2779   18.6545 N   0  0  0  0  0  0  0  0  0  0  0  0
   10.2989  -18.2169   19.7635 C   0  0  1  0  0  0  0  0  0  0  0  0
   10.8897  -19.4909   19.2838 C   0  0  0  0  0  0  0  0  0  0  0  0
   11.0597  -20.4588   20.3594 C   0  0  0  0  0  0  0  0  0  0  0  0
   12.0484  -21.1963   20.4709 O   0  0  0  0  0  0  0  0  0  0  0  0
   11.1566  -17.5307   20.7947 C   0  0  0  0  0  0  0  0  0  0  0  0
   12.3101  -17.1229   20.6197 O   0  0  0  0  0  0  0  0  0  0  0  0
   10.0552  -20.5711   21.3287 O   0  0  0  0  0  0  0  0  0  0  0  0
    8.5546  -14.0783   28.3917 N   0  0  0  0  0  0  0  0  0  0  0  0
    9.9106  -14.4586   28.6666 C   0  0  0  0  0  0  0  0  0  0  0  0
   10.5002  -13.8478   29.6183 N   0  0  0  0  0  0  0  0  0  0  0  0
   10.5740  -15.4626   27.9237 N   0  0  0  0  0  0  0  0  0  0  0  0
   10.0232  -15.9502   26.6805 C   0  0  0  0  0  0  0  0  0  0  0  0
   11.1144  -16.0771   25.6067 C   0  0  0  0  0  0  0  0  0  0  0  0
   10.4549  -16.5978   24.3671 C   0  0  0  0  0  0  0  0  0  0  0  0
   11.3876  -16.7257   23.1907 C   0  0  2  0  0  0  0  0  0  0  0  0
   10.6075  -17.3217   22.0989 N   0  0  0  0  0  0  0  0  0  0  0  0
   12.6100  -17.4843   23.4556 C   0  0  0  0  0  0  0  0  0  0  0  0
   12.6384  -18.7289   23.3504 O   0  0  0  0  0  0  0  0  0  0  0  0
   13.7749  -16.8379   23.8326 O   0  0  0  0  0  0  0  0  0  0  0  0
  2  1  1  0
  3  2  1  0
  4  3  2  0
  5  3  1  0
  6  7  1  6
  6  5  1  0
  8 12  1  0
  8  7  1  0
  9  8  2  0
 10 11  2  0
 10  6  1  0
 14 13  1  0
 14 16  1  0
 15 14  2  0
 17 16  1  0
 18 17  1  0
 19 18  1  0
 20 21  1  0
 20 19  1  1
 21 10  1  0
 22 20  1  0
 23 22  2  0
 24 22  1  0
M  END
$$$$
