RAS.pdb
     RDKit          3D

 23 22  0  0  1  0  0  0  0  0999 V2000
   24.6535  -24.2845  -15.6464 N   0  0  0  0  0  0  0  0  0  0  0  0
   24.0509  -25.0502  -14.6115 C   0  0  0  0  0  0  0  0  0  0  0  0
   24.7456  -25.8600  -13.9061 N   0  0  0  0  0  0  0  0  0  0  0  0
   22.6565  -24.8842  -14.3901 N   0  0  0  0  0  0  0  0  0  0  0  0
   21.9379  -24.0132  -15.3132 C   0  0  0  0  0  0  0  0  0  0  0  0
   21.3304  -22.8892  -14.5489 C   0  0  0  0  0  0  0  0  0  0  0  0
   21.3728  -21.6243  -15.3246 C   0  0  0  0  0  0  0  0  0  0  0  0
   22.4920  -20.7079  -14.8869 C   0  0  2  0  0  0  0  0  0  0  0  0
   23.0021  -21.2544  -13.6456 N   0  0  0  0  0  0  0  0  0  0  0  0
   21.9445  -19.3517  -14.5746 C   0  0  0  0  0  0  0  0  0  0  0  0
   21.3445  -19.1662  -13.4931 O   0  0  0  0  0  0  0  0  0  0  0  0
   24.2860  -26.5072  -13.2392 C   0  0  0  0  0  0  0  0  0  0  0  0
   22.2459  -15.8968  -16.0957 C   0  0  2  0  0  0  0  0  0  0  0  0
   21.5934  -16.9304  -15.2079 N   0  0  0  0  0  0  0  0  0  0  0  0
   22.0780  -18.2647  -15.4565 C   0  0  0  0  0  0  0  0  0  0  0  0
   20.1135  -16.9169  -15.3449 O   0  0  0  0  0  0  0  0  0  0  0  0
   19.5364  -17.6664  -16.2040 O   0  0  0  0  0  0  0  0  0  0  0  0
   17.4027  -16.6976  -12.3733 C   0  0  0  0  0  0  0  0  0  0  0  0
   17.2712  -15.6918  -13.3252 C   0  0  2  0  0  0  0  0  0  0  0  0
   17.8112  -16.1354  -14.6841 N   0  0  0  0  0  0  0  0  0  0  0  0
   19.2761  -16.0962  -14.5547 C   0  0  0  0  0  0  0  0  0  0  0  0
   17.4258  -15.0931  -15.6607 O   0  0  0  0  0  0  0  0  0  0  0  0
   16.1336  -15.0046  -16.1619 O   0  0  0  0  0  0  0  0  0  0  0  0
  2  1  1  0
  2  4  1  0
  3  2  2  0
  5  4  1  0
  6  5  1  0
  7  8  1  0
  7  6  1  0
  8 10  1  0
  8  9  1  1
 10 14  1  0
 10 11  2  0
 13 12  1  1
 13 15  1  0
 14 13  1  0
 15 16  2  0
 17 18  1  0
 19 18  1  1
 19 21  1  0
 20 15  1  0
 20 19  1  0
 21 22  1  0
 23 21  2  0
M  END
$$$$
