RAS.pdb
     RDKit          3D

 23 22  0  0  1  0  0  0  0  0999 V2000
   21.3934  -20.7956   -8.9498 N   0  0  0  0  0  0  0  0  0  0  0  0
   21.0024  -21.5172  -10.1103 C   0  0  0  0  0  0  0  0  0  0  0  0
   19.7666  -21.6631  -10.4059 N   0  0  0  0  0  0  0  0  0  0  0  0
   22.0287  -22.0676  -10.9258 N   0  0  0  0  0  0  0  0  0  0  0  0
   23.3855  -21.5819  -10.7015 C   0  0  0  0  0  0  0  0  0  0  0  0
   23.5937  -20.3371  -11.4912 C   0  0  0  0  0  0  0  0  0  0  0  0
   24.9978  -19.8651  -11.3941 C   0  0  0  0  0  0  0  0  0  0  0  0
   25.9952  -20.8986  -11.8645 C   0  0  2  0  0  0  0  0  0  0  0  0
   26.9001  -21.1235  -10.7554 N   0  0  0  0  0  0  0  0  0  0  0  0
   26.8108  -20.3420  -12.9877 C   0  0  0  0  0  0  0  0  0  0  0  0
   27.5582  -19.3618  -12.7764 O   0  0  0  0  0  0  0  0  0  0  0  0
   19.4855  -22.1757  -11.2621 C   0  0  0  0  0  0  0  0  0  0  0  0
   27.7931  -21.4724  -16.4422 C   0  0  1  0  0  0  0  0  0  0  0  0
   27.5398  -20.4018  -15.4068 N   0  0  0  0  0  0  0  0  0  0  0  0
   26.7715  -20.8813  -14.2857 C   0  0  0  0  0  0  0  0  0  0  0  0
   26.8571  -19.2197  -15.9945 O   0  0  0  0  0  0  0  0  0  0  0  0
   25.5852  -19.1116  -15.9358 O   0  0  0  0  0  0  0  0  0  0  0  0
   29.0592  -16.5420  -18.0705 C   0  0  0  0  0  0  0  0  0  0  0  0
   27.9263  -15.9753  -17.4958 C   0  0  1  0  0  0  0  0  0  0  0  0
   26.8482  -17.0261  -17.2341 N   0  0  0  0  0  0  0  0  0  0  0  0
   27.5540  -18.1706  -16.6371 C   0  0  0  0  0  0  0  0  0  0  0  0
   26.3409  -17.4595  -18.5545 O   0  0  0  0  0  0  0  0  0  0  0  0
   25.5144  -16.6482  -19.3210 O   0  0  0  0  0  0  0  0  0  0  0  0
  2  1  1  0
  2  4  1  0
  3  2  2  0
  5  4  1  0
  6  5  1  0
  7  8  1  0
  7  6  1  0
  8 10  1  0
  8  9  1  1
 10 14  1  0
 10 11  2  0
 13 12  1  1
 13 15  1  0
 14 13  1  0
 15 16  2  0
 17 18  1  0
 19 18  1  1
 19 21  1  0
 20 15  1  0
 20 19  1  0
 21 22  1  0
 23 21  2  0
M  END
$$$$
