RAS.pdb
     RDKit          3D

 23 22  0  0  1  0  0  0  0  0999 V2000
   25.1411  -32.1067   -7.5728 N   0  0  0  0  0  0  0  0  0  0  0  0
   25.6700  -32.9584   -8.5803 C   0  0  0  0  0  0  0  0  0  0  0  0
   26.0011  -32.4928   -9.7246 N   0  0  0  0  0  0  0  0  0  0  0  0
   25.8169  -34.3384   -8.2719 N   0  0  0  0  0  0  0  0  0  0  0  0
   26.2998  -34.6713   -6.9366 C   0  0  0  0  0  0  0  0  0  0  0  0
   27.6516  -35.2854   -7.0469 C   0  0  0  0  0  0  0  0  0  0  0  0
   28.1498  -35.7347   -5.7227 C   0  0  0  0  0  0  0  0  0  0  0  0
   28.9321  -34.6633   -4.9987 C   0  0  2  0  0  0  0  0  0  0  0  0
   30.2818  -34.7222   -5.5227 N   0  0  0  0  0  0  0  0  0  0  0  0
   29.0143  -34.9921   -3.5421 C   0  0  0  0  0  0  0  0  0  0  0  0
   29.9429  -35.7208   -3.1289 O   0  0  0  0  0  0  0  0  0  0  0  0
   26.4091  -33.1124  -10.4489 C   0  0  0  0  0  0  0  0  0  0  0  0
   27.0383  -34.0341   -0.4328 C   0  0  1  0  0  0  0  0  0  0  0  0
   28.0991  -34.7933   -1.1948 N   0  0  0  0  0  0  0  0  0  0  0  0
   28.0804  -34.5104   -2.6078 C   0  0  0  0  0  0  0  0  0  0  0  0
   27.9780  -36.2605   -0.9908 O   0  0  0  0  0  0  0  0  0  0  0  0
   27.3099  -36.9751   -1.8129 O   0  0  0  0  0  0  0  0  0  0  0  0
   29.3029  -37.7710    2.4671 C   0  0  0  0  0  0  0  0  0  0  0  0
   29.2931  -38.7476    1.4767 C   0  0  1  0  0  0  0  0  0  0  0  0
   28.3536  -38.3720    0.3316 N   0  0  0  0  0  0  0  0  0  0  0  0
   28.5783  -36.9373    0.0959 C   0  0  0  0  0  0  0  0  0  0  0  0
   26.9730  -38.5254    0.8406 O   0  0  0  0  0  0  0  0  0  0  0  0
   26.4208  -39.7756    1.0874 O   0  0  0  0  0  0  0  0  0  0  0  0
  2  1  1  0
  2  4  1  0
  3  2  2  0
  5  4  1  0
  6  5  1  0
  7  8  1  0
  7  6  1  0
  8 10  1  0
  8  9  1  6
 10 14  1  0
 10 11  2  0
 13 12  1  1
 13 15  1  0
 14 13  1  0
 15 16  2  0
 17 18  1  0
 19 18  1  6
 19 21  1  0
 20 15  1  0
 20 19  1  0
 21 22  1  0
 23 21  2  0
M  END
$$$$
