RAS.pdb
     RDKit          3D

 23 22  0  0  1  0  0  0  0  0999 V2000
   14.6600  -11.9707  -18.1168 N   0  0  0  0  0  0  0  0  0  0  0  0
   14.3432  -13.1025  -17.3174 C   0  0  0  0  0  0  0  0  0  0  0  0
   13.4095  -13.9066  -17.6605 N   0  0  0  0  0  0  0  0  0  0  0  0
   15.0972  -13.3072  -16.1297 N   0  0  0  0  0  0  0  0  0  0  0  0
   16.0893  -12.2931  -15.7914 C   0  0  0  0  0  0  0  0  0  0  0  0
   17.3889  -12.6541  -16.4218 C   0  0  0  0  0  0  0  0  0  0  0  0
   18.4468  -11.6711  -16.0778 C   0  0  0  0  0  0  0  0  0  0  0  0
   19.7542  -11.9494  -16.7830 C   0  0  2  0  0  0  0  0  0  0  0  0
   20.2039  -13.2426  -16.3088 N   0  0  0  0  0  0  0  0  0  0  0  0
   20.7815  -10.9479  -16.3608 C   0  0  0  0  0  0  0  0  0  0  0  0
   21.1296  -10.8945  -15.1608 O   0  0  0  0  0  0  0  0  0  0  0  0
   13.1528  -14.7072  -17.0539 C   0  0  0  0  0  0  0  0  0  0  0  0
   23.0772   -8.4850  -18.1016 C   0  0  1  0  0  0  0  0  0  0  0  0
   22.3059   -9.0094  -16.9131 N   0  0  0  0  0  0  0  0  0  0  0  0
   21.3786  -10.0541  -17.2673 C   0  0  0  0  0  0  0  0  0  0  0  0
   21.5713   -7.9238  -16.2125 O   0  0  0  0  0  0  0  0  0  0  0  0
   20.3630   -7.6522  -16.5275 O   0  0  0  0  0  0  0  0  0  0  0  0
   21.7514   -4.4726  -12.7436 C   0  0  0  0  0  0  0  0  0  0  0  0
   22.3340   -5.5270  -13.4390 C   0  0  2  0  0  0  0  0  0  0  0  0
   21.4197   -6.0335  -14.5536 N   0  0  0  0  0  0  0  0  0  0  0  0
   22.1485   -7.1460  -15.1825 C   0  0  0  0  0  0  0  0  0  0  0  0
   21.3203   -4.9484  -15.5543 O   0  0  0  0  0  0  0  0  0  0  0  0
   22.2498   -4.8114  -16.5770 O   0  0  0  0  0  0  0  0  0  0  0  0
  2  1  1  0
  2  4  1  0
  3  2  2  0
  5  4  1  0
  6  5  1  0
  7  8  1  0
  7  6  1  0
  8 10  1  0
  8  9  1  1
 10 14  1  0
 10 11  2  0
 13 12  1  1
 13 15  1  0
 14 13  1  0
 15 16  2  0
 17 18  1  0
 19 18  1  1
 19 21  1  0
 20 15  1  0
 20 19  1  0
 21 22  1  0
 23 21  2  0
M  END
$$$$
