RAS.pdb
     RDKit          3D

 23 22  0  0  1  0  0  0  0  0999 V2000
   13.1535  -12.8128   -9.6763 N   0  0  0  0  0  0  0  0  0  0  0  0
   11.8986  -12.3812   -9.1669 C   0  0  0  0  0  0  0  0  0  0  0  0
   11.1582  -13.1746   -8.4899 N   0  0  0  0  0  0  0  0  0  0  0  0
   11.4986  -11.0437   -9.4355 N   0  0  0  0  0  0  0  0  0  0  0  0
   12.4884  -10.1669  -10.0509 C   0  0  0  0  0  0  0  0  0  0  0  0
   13.3613   -9.5967   -8.9881 C   0  0  0  0  0  0  0  0  0  0  0  0
   14.4300   -8.7446   -9.5673 C   0  0  0  0  0  0  0  0  0  0  0  0
   14.1139   -7.2694   -9.4771 C   0  0  2  0  0  0  0  0  0  0  0  0
   13.0231   -7.0309  -10.4007 N   0  0  0  0  0  0  0  0  0  0  0  0
   15.2805   -6.4700   -9.9633 C   0  0  0  0  0  0  0  0  0  0  0  0
   15.5951   -6.5166  -11.1728 O   0  0  0  0  0  0  0  0  0  0  0  0
   10.2306  -12.8658   -8.1449 C   0  0  0  0  0  0  0  0  0  0  0  0
   17.4663   -3.7429   -8.5109 C   0  0  1  0  0  0  0  0  0  0  0  0
   17.1415   -4.8184   -9.5209 N   0  0  0  0  0  0  0  0  0  0  0  0
   16.0466   -5.6592   -9.1072 C   0  0  0  0  0  0  0  0  0  0  0  0
   18.3237   -5.6693   -9.8166 O   0  0  0  0  0  0  0  0  0  0  0  0
   18.7442   -6.5146   -8.9555 O   0  0  0  0  0  0  0  0  0  0  0  0
   20.8844   -8.0868  -12.9361 C   0  0  0  0  0  0  0  0  0  0  0  0
   19.8061   -7.3393  -12.4743 C   0  0  1  0  0  0  0  0  0  0  0  0
   20.2063   -6.4501  -11.2979 N   0  0  0  0  0  0  0  0  0  0  0  0
   19.0362   -5.5977  -11.0358 C   0  0  0  0  0  0  0  0  0  0  0  0
   21.2958   -5.5705  -11.7753 O   0  0  0  0  0  0  0  0  0  0  0  0
   22.6324   -5.9149  -11.6215 O   0  0  0  0  0  0  0  0  0  0  0  0
  2  1  1  0
  2  4  1  0
  3  2  2  0
  5  4  1  0
  6  5  1  0
  7  8  1  0
  7  6  1  0
  8 10  1  0
  8  9  1  6
 10 14  1  0
 10 11  2  0
 13 12  1  6
 13 15  1  0
 14 13  1  0
 15 16  2  0
 17 18  1  0
 19 18  1  1
 19 21  1  0
 20 15  1  0
 20 19  1  0
 21 22  1  0
 23 21  2  0
M  END
$$$$
