RAS.pdb
     RDKit          3D

 23 22  0  0  1  0  0  0  0  0999 V2000
   27.5553  -20.1798  -14.7280 N   0  0  0  0  0  0  0  0  0  0  0  0
   26.7464  -21.1406  -15.3935 C   0  0  0  0  0  0  0  0  0  0  0  0
   27.2610  -22.2047  -15.8822 N   0  0  0  0  0  0  0  0  0  0  0  0
   25.3530  -20.8777  -15.4955 N   0  0  0  0  0  0  0  0  0  0  0  0
   24.8577  -19.6681  -14.8485 C   0  0  0  0  0  0  0  0  0  0  0  0
   24.6031  -18.6307  -15.8855 C   0  0  0  0  0  0  0  0  0  0  0  0
   23.9984  -17.4117  -15.2921 C   0  0  0  0  0  0  0  0  0  0  0  0
   23.6974  -16.3480  -16.3227 C   0  0  2  0  0  0  0  0  0  0  0  0
   24.8256  -16.3330  -17.2319 N   0  0  0  0  0  0  0  0  0  0  0  0
   23.6477  -15.0052  -15.6661 C   0  0  0  0  0  0  0  0  0  0  0  0
   22.7510  -14.7645  -14.8283 O   0  0  0  0  0  0  0  0  0  0  0  0
   26.6761  -22.8813  -16.4067 C   0  0  0  0  0  0  0  0  0  0  0  0
   25.9890  -12.0570  -15.3970 C   0  0  2  0  0  0  0  0  0  0  0  0
   24.6251  -12.7014  -15.3140 N   0  0  0  0  0  0  0  0  0  0  0  0
   24.5780  -13.9912  -15.9552 C   0  0  0  0  0  0  0  0  0  0  0  0
   23.5698  -11.8306  -15.8944 O   0  0  0  0  0  0  0  0  0  0  0  0
   23.4175  -11.7550  -17.1609 O   0  0  0  0  0  0  0  0  0  0  0  0
   20.8007  -10.0369  -13.4488 C   0  0  0  0  0  0  0  0  0  0  0  0
   20.4418  -10.3416  -14.7577 C   0  0  1  0  0  0  0  0  0  0  0  0
   21.6355  -10.2272  -15.7048 N   0  0  0  0  0  0  0  0  0  0  0  0
   22.6933  -11.0534  -15.1025 C   0  0  0  0  0  0  0  0  0  0  0  0
   22.0909   -8.8205  -15.6543 O   0  0  0  0  0  0  0  0  0  0  0  0
   21.3617   -7.7958  -16.2433 O   0  0  0  0  0  0  0  0  0  0  0  0
  2  1  1  0
  2  4  1  0
  3  2  2  0
  5  4  1  0
  6  5  1  0
  7  8  1  0
  7  6  1  0
  8 10  1  0
  8  9  1  6
 10 14  1  0
 10 11  2  0
 13 12  1  1
 13 15  1  0
 14 13  1  0
 15 16  2  0
 17 18  1  0
 19 18  1  6
 19 21  1  0
 20 15  1  0
 20 19  1  0
 21 22  1  0
 23 21  2  0
M  END
$$$$
