RAS.pdb
     RDKit          3D

 23 22  0  0  1  0  0  0  0  0999 V2000
   14.2559  -10.8334  -18.5599 N   0  0  0  0  0  0  0  0  0  0  0  0
   14.3312  -10.9334  -19.9758 C   0  0  0  0  0  0  0  0  0  0  0  0
   13.5704  -11.7367  -20.6174 N   0  0  0  0  0  0  0  0  0  0  0  0
   15.2772  -10.1130  -20.6489 N   0  0  0  0  0  0  0  0  0  0  0  0
   16.0969   -9.2329  -19.8240 C   0  0  0  0  0  0  0  0  0  0  0  0
   17.1651  -10.0360  -19.1678 C   0  0  0  0  0  0  0  0  0  0  0  0
   18.0909   -9.1719  -18.3934 C   0  0  0  0  0  0  0  0  0  0  0  0
   19.1547   -9.9609  -17.6653 C   0  0  2  0  0  0  0  0  0  0  0  0
   18.4541  -10.9480  -16.8688 N   0  0  0  0  0  0  0  0  0  0  0  0
   19.8847   -9.0689  -16.7123 C   0  0  0  0  0  0  0  0  0  0  0  0
   19.2716   -8.5782  -15.7390 O   0  0  0  0  0  0  0  0  0  0  0  0
   13.6232  -11.8021  -21.6508 C   0  0  0  0  0  0  0  0  0  0  0  0
   23.4917   -8.0808  -16.1275 C   0  0  1  0  0  0  0  0  0  0  0  0
   21.9995   -7.8787  -16.0067 N   0  0  0  0  0  0  0  0  0  0  0  0
   21.2467   -8.7560  -16.8674 C   0  0  0  0  0  0  0  0  0  0  0  0
   21.6111   -6.4717  -16.2866 O   0  0  0  0  0  0  0  0  0  0  0  0
   21.5056   -6.0568  -17.4905 O   0  0  0  0  0  0  0  0  0  0  0  0
   19.8911   -4.2076  -13.4303 C   0  0  0  0  0  0  0  0  0  0  0  0
   19.7374   -3.8379  -14.7624 C   0  0  1  0  0  0  0  0  0  0  0  0
   20.9984   -4.1342  -15.5730 N   0  0  0  0  0  0  0  0  0  0  0  0
   21.3419   -5.5313  -15.2655 C   0  0  0  0  0  0  0  0  0  0  0  0
   22.0744   -3.2826  -15.0204 O   0  0  0  0  0  0  0  0  0  0  0  0
   22.0397   -1.8987  -15.1316 O   0  0  0  0  0  0  0  0  0  0  0  0
  2  1  1  0
  2  4  1  0
  3  2  2  0
  5  4  1  0
  6  5  1  0
  7  8  1  0
  7  6  1  0
  8 10  1  0
  8  9  1  1
 10 14  1  0
 10 11  2  0
 13 12  1  1
 13 15  1  0
 14 13  1  0
 15 16  2  0
 17 18  1  0
 19 18  1  6
 19 21  1  0
 20 15  1  0
 20 19  1  0
 21 22  1  0
 23 21  2  0
M  END
$$$$
