RAS.pdb
     RDKit          3D

 23 22  0  0  1  0  0  0  0  0999 V2000
   26.0667  -20.9094   -9.4046 N   0  0  0  0  0  0  0  0  0  0  0  0
   24.9587  -20.6372  -10.2522 C   0  0  0  0  0  0  0  0  0  0  0  0
   23.7603  -20.8128   -9.8410 N   0  0  0  0  0  0  0  0  0  0  0  0
   25.2290  -20.1656  -11.5658 N   0  0  0  0  0  0  0  0  0  0  0  0
   26.2689  -20.8584  -12.3179 C   0  0  0  0  0  0  0  0  0  0  0  0
   27.2397  -19.8582  -12.8409 C   0  0  0  0  0  0  0  0  0  0  0  0
   27.3843  -19.9660  -14.3144 C   0  0  0  0  0  0  0  0  0  0  0  0
   26.7102  -21.1951  -14.8791 C   0  0  2  0  0  0  0  0  0  0  0  0
   27.7440  -22.2023  -15.0072 N   0  0  0  0  0  0  0  0  0  0  0  0
   26.2060  -20.9089  -16.2577 C   0  0  0  0  0  0  0  0  0  0  0  0
   27.0229  -20.7840  -17.1963 O   0  0  0  0  0  0  0  0  0  0  0  0
   22.9550  -20.6343  -10.4691 C   0  0  0  0  0  0  0  0  0  0  0  0
   22.8067  -20.9364  -17.9226 C   0  0  1  0  0  0  0  0  0  0  0  0
   24.2782  -20.5998  -17.8624 N   0  0  0  0  0  0  0  0  0  0  0  0
   24.8363  -20.7730  -16.5450 C   0  0  0  0  0  0  0  0  0  0  0  0
   24.5439  -19.2124  -18.3247 O   0  0  0  0  0  0  0  0  0  0  0  0
   24.6409  -18.2569  -17.4819 O   0  0  0  0  0  0  0  0  0  0  0  0
   24.4600  -18.3775  -22.3043 C   0  0  0  0  0  0  0  0  0  0  0  0
   25.3529  -17.5862  -21.5891 C   0  0  1  0  0  0  0  0  0  0  0  0
   24.9573  -17.4897  -20.1163 N   0  0  0  0  0  0  0  0  0  0  0  0
   24.7012  -18.8739  -19.6885 C   0  0  0  0  0  0  0  0  0  0  0  0
   23.6684  -16.7654  -20.0641 O   0  0  0  0  0  0  0  0  0  0  0  0
   23.5967  -15.3897  -20.2408 O   0  0  0  0  0  0  0  0  0  0  0  0
  2  1  1  0
  2  4  1  0
  3  2  2  0
  5  4  1  0
  6  5  1  0
  7  8  1  0
  7  6  1  0
  8 10  1  0
  8  9  1  6
 10 14  1  0
 10 11  2  0
 13 12  1  6
 13 15  1  0
 14 13  1  0
 15 16  2  0
 17 18  1  0
 19 18  1  1
 19 21  1  0
 20 15  1  0
 20 19  1  0
 21 22  1  0
 23 21  2  0
M  END
$$$$
