HEA.pdb
     RDKit          3D

 25 25  0  0  1  0  0  0  0  0999 V2000
   17.5898  -11.2732  -17.5076 N   0  0  0  0  0  0  0  0  0  0  0  0
   18.5463  -10.3689  -18.1083 C   0  0  1  0  0  0  0  0  0  0  0  0
   17.7745   -9.2168  -18.6961 C   0  0  0  0  0  0  0  0  0  0  0  0
   16.9174   -9.7632  -19.7764 C   0  0  0  0  0  0  0  0  0  0  0  0
   15.5696   -9.5053  -20.0075 C   0  0  0  0  0  0  0  0  0  0  0  0
   15.1672  -10.1935  -21.0818 N   0  0  0  0  0  0  0  0  0  0  0  0
   16.2084  -10.8865  -21.5521 C   0  0  0  0  0  0  0  0  0  0  0  0
   17.2662  -10.6186  -20.7528 N   0  0  0  0  0  0  0  0  0  0  0  0
   19.5431   -9.9734  -17.1154 C   0  0  0  0  0  0  0  0  0  0  0  0
   19.2705   -9.6345  -15.9320 O   0  0  0  0  0  0  0  0  0  0  0  0
   20.9172   -9.9556  -17.4630 N   0  0  0  0  0  0  0  0  0  0  0  0
   21.9790   -9.6113  -16.5164 C   0  0  1  0  0  0  0  0  0  0  0  0
   23.2085  -10.4054  -16.7458 C   0  0  0  0  0  0  0  0  0  0  0  0
   24.2423  -10.0861  -15.6979 C   0  0  0  0  0  0  0  0  0  0  0  0
   25.5071  -10.8381  -15.9429 C   0  0  0  0  0  0  0  0  0  0  0  0
   25.5942  -11.5599  -16.9546 O   0  0  0  0  0  0  0  0  0  0  0  0
   22.1302   -8.1481  -16.5820 C   0  0  0  0  0  0  0  0  0  0  0  0
   22.1591   -7.5126  -17.6558 O   0  0  0  0  0  0  0  0  0  0  0  0
   26.5666  -10.7422  -15.0703 O   0  0  0  0  0  0  0  0  0  0  0  0
   21.0548   -5.3908  -16.0487 C   0  0  0  0  0  0  0  0  0  0  0  0
   22.3676   -5.9005  -15.4522 C   0  0  2  0  0  0  0  0  0  0  0  0
   22.2565   -7.3404  -15.3973 N   0  0  0  0  0  0  0  0  0  0  0  0
   22.4817   -5.3143  -14.0972 C   0  0  0  0  0  0  0  0  0  0  0  0
   22.8229   -3.9923  -13.8509 O   0  0  0  0  0  0  0  0  0  0  0  0
   22.2560   -6.0587  -13.1103 O   0  0  0  0  0  0  0  0  0  0  0  0
  2  1  1  1
  3  2  1  0
  4  8  1  0
  4  3  1  0
  5  4  2  0
  6  5  1  0
  6  7  1  0
  7  8  2  0
  9  2  1  0
 10  9  2  0
 11  9  1  0
 12 11  1  0
 12 13  1  6
 13 14  1  0
 15 19  1  0
 15 14  1  0
 16 15  2  0
 17 22  1  0
 17 12  1  0
 18 17  2  0
 21 20  1  1
 21 22  1  0
 21 23  1  0
 23 24  1  0
 25 23  2  0
M  END
$$$$
