HEA.pdb
     RDKit          3D

 25 25  0  0  1  0  0  0  0  0999 V2000
   18.1000  -11.1770  -15.1715 N   0  0  0  0  0  0  0  0  0  0  0  0
   17.5225   -9.8552  -15.2844 C   0  0  1  0  0  0  0  0  0  0  0  0
   16.0854   -9.9484  -14.8433 C   0  0  0  0  0  0  0  0  0  0  0  0
   15.3861  -10.8422  -15.7984 C   0  0  0  0  0  0  0  0  0  0  0  0
   14.9035  -12.1266  -15.5664 C   0  0  0  0  0  0  0  0  0  0  0  0
   14.3367  -12.5931  -16.6849 N   0  0  0  0  0  0  0  0  0  0  0  0
   14.4369  -11.6544  -17.6307 C   0  0  0  0  0  0  0  0  0  0  0  0
   15.0754  -10.5954  -17.0827 N   0  0  0  0  0  0  0  0  0  0  0  0
   18.3203   -8.9006  -14.5175 C   0  0  0  0  0  0  0  0  0  0  0  0
   18.3245   -8.8286  -13.2588 O   0  0  0  0  0  0  0  0  0  0  0  0
   19.1579   -7.9774  -15.1926 N   0  0  0  0  0  0  0  0  0  0  0  0
   19.9610   -6.9689  -14.5001 C   0  0  1  0  0  0  0  0  0  0  0  0
   21.3524   -6.9210  -15.0066 C   0  0  0  0  0  0  0  0  0  0  0  0
   22.1415   -5.8679  -14.2739 C   0  0  0  0  0  0  0  0  0  0  0  0
   23.5020   -5.7067  -14.8642 C   0  0  0  0  0  0  0  0  0  0  0  0
   23.9933   -4.5647  -14.9461 O   0  0  0  0  0  0  0  0  0  0  0  0
   19.1988   -5.7114  -14.5779 C   0  0  0  0  0  0  0  0  0  0  0  0
   19.4197   -4.7326  -13.8358 O   0  0  0  0  0  0  0  0  0  0  0  0
   24.2109   -6.7968  -15.3139 O   0  0  0  0  0  0  0  0  0  0  0  0
   16.8158   -4.2386  -17.0386 C   0  0  0  0  0  0  0  0  0  0  0  0
   17.3951   -4.2842  -15.6239 C   0  0  2  0  0  0  0  0  0  0  0  0
   18.1333   -5.5228  -15.5272 N   0  0  0  0  0  0  0  0  0  0  0  0
   16.2482   -4.2630  -14.6875 C   0  0  0  0  0  0  0  0  0  0  0  0
   15.9000   -5.3241  -13.8644 O   0  0  0  0  0  0  0  0  0  0  0  0
   15.5476   -3.2212  -14.6347 O   0  0  0  0  0  0  0  0  0  0  0  0
  2  1  1  1
  3  2  1  0
  4  8  1  0
  4  3  1  0
  5  4  2  0
  6  5  1  0
  6  7  1  0
  7  8  2  0
  9  2  1  0
 10  9  2  0
 11  9  1  0
 12 11  1  0
 12 13  1  6
 13 14  1  0
 15 19  1  0
 15 14  1  0
 16 15  2  0
 17 22  1  0
 17 12  1  0
 18 17  2  0
 21 20  1  6
 21 22  1  0
 21 23  1  0
 23 24  1  0
 25 23  2  0
M  END
$$$$
