HEA.pdb
     RDKit          3D

 25 25  0  0  1  0  0  0  0  0999 V2000
   26.6150  -35.7662  -11.1513 N   0  0  0  0  0  0  0  0  0  0  0  0
   26.6394  -34.5347  -10.3922 C   0  0  1  0  0  0  0  0  0  0  0  0
   25.6793  -33.5777  -11.0486 C   0  0  0  0  0  0  0  0  0  0  0  0
   26.2136  -33.2699  -12.3976 C   0  0  0  0  0  0  0  0  0  0  0  0
   25.6814  -33.6384  -13.6294 C   0  0  0  0  0  0  0  0  0  0  0  0
   26.4626  -33.1643  -14.6065 N   0  0  0  0  0  0  0  0  0  0  0  0
   27.4804  -32.5027  -14.0482 C   0  0  0  0  0  0  0  0  0  0  0  0
   27.3203  -32.5725  -12.7068 N   0  0  0  0  0  0  0  0  0  0  0  0
   26.3378  -34.8130   -8.9896 C   0  0  0  0  0  0  0  0  0  0  0  0
   25.3161  -35.4367   -8.5935 O   0  0  0  0  0  0  0  0  0  0  0  0
   27.2244  -34.3713   -7.9757 N   0  0  0  0  0  0  0  0  0  0  0  0
   27.0646  -34.7202   -6.5634 C   0  0  1  0  0  0  0  0  0  0  0  0
   28.3462  -34.6482   -5.8235 C   0  0  0  0  0  0  0  0  0  0  0  0
   28.1467  -35.0572   -4.3877 C   0  0  0  0  0  0  0  0  0  0  0  0
   29.4271  -34.9883   -3.6255 C   0  0  0  0  0  0  0  0  0  0  0  0
   29.5028  -34.2310   -2.6391 O   0  0  0  0  0  0  0  0  0  0  0  0
   25.9722  -33.8756   -6.0520 C   0  0  0  0  0  0  0  0  0  0  0  0
   25.9477  -32.6352   -6.1881 O   0  0  0  0  0  0  0  0  0  0  0  0
   30.5134  -35.7459   -3.9988 O   0  0  0  0  0  0  0  0  0  0  0  0
   22.5730  -34.5142   -4.6394 C   0  0  0  0  0  0  0  0  0  0  0  0
   23.7900  -33.6034   -4.8076 C   0  0  2  0  0  0  0  0  0  0  0  0
   24.8435  -34.4299   -5.3513 N   0  0  0  0  0  0  0  0  0  0  0  0
   24.1394  -33.0975   -3.4605 C   0  0  0  0  0  0  0  0  0  0  0  0
   23.3683  -32.1893   -2.7497 O   0  0  0  0  0  0  0  0  0  0  0  0
   25.1981  -33.5158   -2.9285 O   0  0  0  0  0  0  0  0  0  0  0  0
  2  1  1  6
  3  2  1  0
  4  8  1  0
  4  3  1  0
  5  4  2  0
  6  5  1  0
  6  7  1  0
  7  8  2  0
  9  2  1  0
 10  9  2  0
 11  9  1  0
 12 11  1  0
 12 13  1  1
 13 14  1  0
 15 19  1  0
 15 14  1  0
 16 15  2  0
 17 22  1  0
 17 12  1  0
 18 17  2  0
 21 20  1  1
 21 22  1  0
 21 23  1  0
 23 24  1  0
 25 23  2  0
M  END
$$$$
