HEA.pdb
     RDKit          3D

 25 25  0  0  1  0  0  0  0  0999 V2000
   23.3003    3.8310   -6.8917 N   0  0  0  0  0  0  0  0  0  0  0  0
   23.3867    2.4174   -7.1880 C   0  0  1  0  0  0  0  0  0  0  0  0
   22.6551    2.1795   -8.4829 C   0  0  0  0  0  0  0  0  0  0  0  0
   21.3066    2.7822   -8.3468 C   0  0  0  0  0  0  0  0  0  0  0  0
   20.4420    2.6994   -7.2596 C   0  0  0  0  0  0  0  0  0  0  0  0
   19.3236    3.3806   -7.5331 N   0  0  0  0  0  0  0  0  0  0  0  0
   19.4363    3.9002   -8.7590 C   0  0  0  0  0  0  0  0  0  0  0  0
   20.6437    3.5313   -9.2447 N   0  0  0  0  0  0  0  0  0  0  0  0
   24.7877    2.0022   -7.2104 C   0  0  0  0  0  0  0  0  0  0  0  0
   25.1828    0.8553   -7.5545 O   0  0  0  0  0  0  0  0  0  0  0  0
   25.8012    2.9166   -6.8282 N   0  0  0  0  0  0  0  0  0  0  0  0
   27.2304    2.6304   -6.9604 C   0  0  1  0  0  0  0  0  0  0  0  0
   27.8456    3.3741   -8.0844 C   0  0  0  0  0  0  0  0  0  0  0  0
   29.3011    3.0109   -8.2195 C   0  0  0  0  0  0  0  0  0  0  0  0
   29.9404    3.7582   -9.3412 C   0  0  0  0  0  0  0  0  0  0  0  0
   29.2181    4.2436  -10.2326 O   0  0  0  0  0  0  0  0  0  0  0  0
   27.8206    2.8595   -5.6309 C   0  0  0  0  0  0  0  0  0  0  0  0
   27.5266    3.8372   -4.9131 O   0  0  0  0  0  0  0  0  0  0  0  0
   31.3063    3.9140   -9.3986 O   0  0  0  0  0  0  0  0  0  0  0  0
   29.6885    0.7732   -3.2031 C   0  0  0  0  0  0  0  0  0  0  0  0
   29.3518    2.1630   -3.7456 C   0  0  2  0  0  0  0  0  0  0  0  0
   28.7893    1.9600   -5.0612 N   0  0  0  0  0  0  0  0  0  0  0  0
   30.6229    2.9198   -3.8111 C   0  0  0  0  0  0  0  0  0  0  0  0
   31.2474    3.4831   -2.7077 O   0  0  0  0  0  0  0  0  0  0  0  0
   31.1696    3.0606   -4.9338 O   0  0  0  0  0  0  0  0  0  0  0  0
  2  1  1  6
  3  2  1  0
  4  8  1  0
  4  3  1  0
  5  4  2  0
  6  5  1  0
  6  7  1  0
  7  8  2  0
  9  2  1  0
 10  9  2  0
 11  9  1  0
 12 11  1  0
 12 13  1  6
 13 14  1  0
 15 19  1  0
 15 14  1  0
 16 15  2  0
 17 22  1  0
 17 12  1  0
 18 17  2  0
 21 20  1  6
 21 22  1  0
 21 23  1  0
 23 24  1  0
 25 23  2  0
M  END
$$$$
