HEA.pdb
     RDKit          3D

 25 25  0  0  1  0  0  0  0  0999 V2000
   28.1766  -20.2149  -17.3418 N   0  0  0  0  0  0  0  0  0  0  0  0
   27.7195  -19.4039  -16.2342 C   0  0  1  0  0  0  0  0  0  0  0  0
   27.1625  -18.1268  -16.8063 C   0  0  0  0  0  0  0  0  0  0  0  0
   28.3124  -17.3028  -17.2523 C   0  0  0  0  0  0  0  0  0  0  0  0
   29.6664  -17.6133  -17.1691 C   0  0  0  0  0  0  0  0  0  0  0  0
   30.3818  -16.6058  -17.6816 N   0  0  0  0  0  0  0  0  0  0  0  0
   29.5367  -15.6558  -18.0927 C   0  0  0  0  0  0  0  0  0  0  0  0
   28.2828  -16.0884  -17.8277 N   0  0  0  0  0  0  0  0  0  0  0  0
   26.7647  -20.1618  -15.4282 C   0  0  0  0  0  0  0  0  0  0  0  0
   25.9712  -21.0247  -15.8925 O   0  0  0  0  0  0  0  0  0  0  0  0
   26.6924  -19.9443  -14.0293 N   0  0  0  0  0  0  0  0  0  0  0  0
   25.7000  -20.5888  -13.1682 C   0  0  1  0  0  0  0  0  0  0  0  0
   26.0500  -20.4748  -11.7331 C   0  0  0  0  0  0  0  0  0  0  0  0
   25.0510  -21.2214  -10.8886 C   0  0  0  0  0  0  0  0  0  0  0  0
   25.4328  -21.1876   -9.4470 C   0  0  0  0  0  0  0  0  0  0  0  0
   26.5539  -20.7466   -9.1294 O   0  0  0  0  0  0  0  0  0  0  0  0
   24.3928  -20.0375  -13.5628 C   0  0  0  0  0  0  0  0  0  0  0  0
   24.2615  -18.9364  -14.1355 O   0  0  0  0  0  0  0  0  0  0  0  0
   24.5666  -21.6344   -8.4758 O   0  0  0  0  0  0  0  0  0  0  0  0
   21.7699  -20.4856  -15.2269 C   0  0  0  0  0  0  0  0  0  0  0  0
   21.8779  -20.2200  -13.7246 C   0  0  2  0  0  0  0  0  0  0  0  0
   23.1616  -20.7397  -13.3117 N   0  0  0  0  0  0  0  0  0  0  0  0
   20.7645  -20.9501  -13.0766 C   0  0  0  0  0  0  0  0  0  0  0  0
   19.5123  -20.4018  -12.8392 O   0  0  0  0  0  0  0  0  0  0  0  0
   20.9652  -22.1381  -12.7198 O   0  0  0  0  0  0  0  0  0  0  0  0
  2  1  1  6
  3  2  1  0
  4  8  1  0
  4  3  1  0
  5  4  2  0
  6  5  1  0
  6  7  1  0
  7  8  2  0
  9  2  1  0
 10  9  2  0
 11  9  1  0
 12 11  1  0
 12 13  1  1
 13 14  1  0
 15 19  1  0
 15 14  1  0
 16 15  2  0
 17 22  1  0
 17 12  1  0
 18 17  2  0
 21 20  1  6
 21 22  1  0
 21 23  1  0
 23 24  1  0
 25 23  2  0
M  END
$$$$
