HEA.pdb
     RDKit          3D

 25 25  0  0  1  0  0  0  0  0999 V2000
   26.1026  -21.7628  -11.2686 N   0  0  0  0  0  0  0  0  0  0  0  0
   26.1940  -20.6866  -12.2314 C   0  0  1  0  0  0  0  0  0  0  0  0
   27.5103  -20.8305  -12.9493 C   0  0  0  0  0  0  0  0  0  0  0  0
   28.5728  -20.8996  -11.9166 C   0  0  0  0  0  0  0  0  0  0  0  0
   29.6933  -21.7246  -11.9007 C   0  0  0  0  0  0  0  0  0  0  0  0
   30.4047  -21.4803  -10.7945 N   0  0  0  0  0  0  0  0  0  0  0  0
   29.7825  -20.5262  -10.0959 C   0  0  0  0  0  0  0  0  0  0  0  0
   28.6714  -20.1802  -10.7854 N   0  0  0  0  0  0  0  0  0  0  0  0
   25.0287  -20.7122  -13.1129 C   0  0  0  0  0  0  0  0  0  0  0  0
   25.0204  -21.2274  -14.2637 O   0  0  0  0  0  0  0  0  0  0  0  0
   23.8079  -20.1315  -12.6864 N   0  0  0  0  0  0  0  0  0  0  0  0
   22.5066  -20.5004  -13.2451 C   0  0  1  0  0  0  0  0  0  0  0  0
   21.4345  -20.4760  -12.2228 C   0  0  0  0  0  0  0  0  0  0  0  0
   21.8791  -21.1999  -10.9790 C   0  0  0  0  0  0  0  0  0  0  0  0
   20.8507  -21.1023   -9.9028 C   0  0  0  0  0  0  0  0  0  0  0  0
   21.2237  -21.0112   -8.7176 O   0  0  0  0  0  0  0  0  0  0  0  0
   22.3029  -19.6356  -14.4193 C   0  0  0  0  0  0  0  0  0  0  0  0
   22.5433  -18.4110  -14.4148 O   0  0  0  0  0  0  0  0  0  0  0  0
   19.5084  -21.1121  -10.2051 O   0  0  0  0  0  0  0  0  0  0  0  0
   21.3503  -20.2229  -18.0044 C   0  0  0  0  0  0  0  0  0  0  0  0
   21.5326  -19.2960  -16.8018 C   0  0  2  0  0  0  0  0  0  0  0  0
   21.8062  -20.1502  -15.6686 N   0  0  0  0  0  0  0  0  0  0  0  0
   20.2603  -18.5584  -16.6291 C   0  0  0  0  0  0  0  0  0  0  0  0
   19.3200  -18.8531  -15.6524 O   0  0  0  0  0  0  0  0  0  0  0  0
   20.0169  -17.6080  -17.4143 O   0  0  0  0  0  0  0  0  0  0  0  0
  2  1  1  1
  3  2  1  0
  4  8  1  0
  4  3  1  0
  5  4  2  0
  6  5  1  0
  6  7  1  0
  7  8  2  0
  9  2  1  0
 10  9  2  0
 11  9  1  0
 12 11  1  0
 12 13  1  1
 13 14  1  0
 15 19  1  0
 15 14  1  0
 16 15  2  0
 17 22  1  0
 17 12  1  0
 18 17  2  0
 21 20  1  6
 21 22  1  0
 21 23  1  0
 23 24  1  0
 25 23  2  0
M  END
$$$$
