HEA.pdb
     RDKit          3D

 25 25  0  0  1  0  0  0  0  0999 V2000
   24.9913  -11.9521  -18.3518 N   0  0  0  0  0  0  0  0  0  0  0  0
   24.8977  -11.2318  -17.1005 C   0  0  1  0  0  0  0  0  0  0  0  0
   26.2699  -10.7010  -16.7785 C   0  0  0  0  0  0  0  0  0  0  0  0
   27.1540  -11.8695  -16.5480 C   0  0  0  0  0  0  0  0  0  0  0  0
   28.3450  -12.1783  -17.1980 C   0  0  0  0  0  0  0  0  0  0  0  0
   28.8370  -13.3176  -16.6986 N   0  0  0  0  0  0  0  0  0  0  0  0
   28.0050  -13.7549  -15.7488 C   0  0  0  0  0  0  0  0  0  0  0  0
   26.9864  -12.8689  -15.6649 N   0  0  0  0  0  0  0  0  0  0  0  0
   23.8679  -10.1997  -17.2006 C   0  0  0  0  0  0  0  0  0  0  0  0
   23.5976   -9.5668  -18.2571 O   0  0  0  0  0  0  0  0  0  0  0  0
   23.0994   -9.8562  -16.0601 N   0  0  0  0  0  0  0  0  0  0  0  0
   21.9647   -8.9331  -16.1065 C   0  0  1  0  0  0  0  0  0  0  0  0
   20.7174   -9.5585  -15.6084 C   0  0  0  0  0  0  0  0  0  0  0  0
   19.6038   -8.5452  -15.5645 C   0  0  0  0  0  0  0  0  0  0  0  0
   18.3430   -9.1531  -15.0485 C   0  0  0  0  0  0  0  0  0  0  0  0
   18.3584  -10.3364  -14.6591 O   0  0  0  0  0  0  0  0  0  0  0  0
   22.4000   -7.7106  -15.4106 C   0  0  0  0  0  0  0  0  0  0  0  0
   23.0403   -7.7265  -14.3394 O   0  0  0  0  0  0  0  0  0  0  0  0
   17.1761   -8.4256  -14.9998 O   0  0  0  0  0  0  0  0  0  0  0  0
   22.0653   -4.0235  -16.1070 C   0  0  0  0  0  0  0  0  0  0  0  0
   22.4523   -5.1931  -15.2008 C   0  0  2  0  0  0  0  0  0  0  0  0
   22.1132   -6.3970  -15.9248 N   0  0  0  0  0  0  0  0  0  0  0  0
   21.6513   -5.0624  -13.9623 C   0  0  0  0  0  0  0  0  0  0  0  0
   22.0135   -4.2661  -12.8854 O   0  0  0  0  0  0  0  0  0  0  0  0
   20.5785   -5.7117  -13.8811 O   0  0  0  0  0  0  0  0  0  0  0  0
  2  1  1  6
  3  2  1  0
  4  8  1  0
  4  3  1  0
  5  4  2  0
  6  5  1  0
  6  7  1  0
  7  8  2  0
  9  2  1  0
 10  9  2  0
 11  9  1  0
 12 11  1  0
 12 13  1  1
 13 14  1  0
 15 19  1  0
 15 14  1  0
 16 15  2  0
 17 22  1  0
 17 12  1  0
 18 17  2  0
 21 20  1  6
 21 22  1  0
 21 23  1  0
 23 24  1  0
 25 23  2  0
M  END
$$$$
