HEA.pdb
     RDKit          3D

 25 25  0  0  1  0  0  0  0  0999 V2000
   16.5812  -10.6625  -10.0131 N   0  0  0  0  0  0  0  0  0  0  0  0
   16.6129  -10.3127  -11.4167 C   0  0  1  0  0  0  0  0  0  0  0  0
   15.1906  -10.2931  -11.9119 C   0  0  0  0  0  0  0  0  0  0  0  0
   14.6447  -11.6622  -11.7453 C   0  0  0  0  0  0  0  0  0  0  0  0
   13.5590  -12.0582  -10.9701 C   0  0  0  0  0  0  0  0  0  0  0  0
   13.3905  -13.3799  -11.0903 N   0  0  0  0  0  0  0  0  0  0  0  0
   14.3298  -13.8507  -11.9159 C   0  0  0  0  0  0  0  0  0  0  0  0
   15.0862  -12.8002  -12.3082 N   0  0  0  0  0  0  0  0  0  0  0  0
   17.3232   -9.0480  -11.5946 C   0  0  0  0  0  0  0  0  0  0  0  0
   17.3194   -8.1075  -10.7549 O   0  0  0  0  0  0  0  0  0  0  0  0
   18.0779   -8.8219  -12.7731 N   0  0  0  0  0  0  0  0  0  0  0  0
   18.8052   -7.5788  -13.0329 C   0  0  1  0  0  0  0  0  0  0  0  0
   20.1750   -7.8303  -13.5382 C   0  0  0  0  0  0  0  0  0  0  0  0
   20.9439   -6.5387  -13.6346 C   0  0  0  0  0  0  0  0  0  0  0  0
   22.2960   -6.7600  -14.2249 C   0  0  0  0  0  0  0  0  0  0  0  0
   22.9368   -5.7800  -14.6504 O   0  0  0  0  0  0  0  0  0  0  0  0
   17.9341   -6.7654  -13.8976 C   0  0  0  0  0  0  0  0  0  0  0  0
   17.5036   -7.1628  -14.9996 O   0  0  0  0  0  0  0  0  0  0  0  0
   22.8351   -8.0235  -14.3023 O   0  0  0  0  0  0  0  0  0  0  0  0
   15.5039   -4.1692  -13.6468 C   0  0  0  0  0  0  0  0  0  0  0  0
   16.7555   -4.5916  -14.4174 C   0  0  2  0  0  0  0  0  0  0  0  0
   17.5141   -5.4396  -13.5263 N   0  0  0  0  0  0  0  0  0  0  0  0
   17.4968   -3.3531  -14.7479 C   0  0  0  0  0  0  0  0  0  0  0  0
   18.7632   -3.0557  -14.2656 O   0  0  0  0  0  0  0  0  0  0  0  0
   16.9461   -2.5206  -15.5113 O   0  0  0  0  0  0  0  0  0  0  0  0
  2  1  1  1
  3  2  1  0
  4  8  1  0
  4  3  1  0
  5  4  2  0
  6  5  1  0
  6  7  1  0
  7  8  2  0
  9  2  1  0
 10  9  2  0
 11  9  1  0
 12 11  1  0
 12 13  1  6
 13 14  1  0
 15 19  1  0
 15 14  1  0
 16 15  2  0
 17 22  1  0
 17 12  1  0
 18 17  2  0
 21 20  1  1
 21 22  1  0
 21 23  1  0
 23 24  1  0
 25 23  2  0
M  END
$$$$
