WQF.pdb
     RDKit          3D

 35 37  0  0  1  0  0  0  0  0999 V2000
   24.3606  -20.9209   -9.1756 N   0  0  0  0  0  0  0  0  0  0  0  0
   25.6027  -20.2780   -9.6382 C   0  0  1  0  0  0  0  0  0  0  0  0
   26.7398  -20.7711   -8.8311 C   0  0  0  0  0  0  0  0  0  0  0  0
   26.6061  -20.7036   -7.3747 C   0  0  0  0  0  0  0  0  0  0  0  0
   25.6276  -21.3926   -6.6531 C   0  0  0  0  0  0  0  0  0  0  0  0
   25.8294  -21.1436   -5.3553 N   0  0  0  0  0  0  0  0  0  0  0  0
   26.8908  -20.3274   -5.2209 C   0  0  0  0  0  0  0  0  0  0  0  0
   27.4620  -19.7951   -4.0905 C   0  0  0  0  0  0  0  0  0  0  0  0
   28.5420  -18.9615   -4.1524 C   0  0  0  0  0  0  0  0  0  0  0  0
   29.0436  -18.6690   -5.3941 C   0  0  0  0  0  0  0  0  0  0  0  0
   28.4778  -19.1984   -6.5335 C   0  0  0  0  0  0  0  0  0  0  0  0
   27.3874  -20.0428   -6.4806 C   0  0  0  0  0  0  0  0  0  0  0  0
   25.7718  -20.3742  -11.1036 C   0  0  0  0  0  0  0  0  0  0  0  0
   25.6466  -21.4891  -11.6631 O   0  0  0  0  0  0  0  0  0  0  0  0
   24.1018  -19.6260  -15.5630 N   0  0  0  0  0  0  0  0  0  0  0  0
   23.3772  -18.8424  -14.6350 C   0  0  0  0  0  0  0  0  0  0  0  0
   22.1281  -18.9125  -14.5401 O   0  0  0  0  0  0  0  0  0  0  0  0
   24.1073  -17.9133  -13.7581 C   0  0  0  0  0  0  0  0  0  0  0  0
   25.5837  -17.9438  -13.9090 C   0  0  0  0  0  0  0  0  0  0  0  0
   26.3150  -19.0695  -13.2589 C   0  0  2  0  0  0  0  0  0  0  0  0
   26.0735  -19.2476  -11.8841 N   0  0  0  0  0  0  0  0  0  0  0  0
   27.7428  -19.0608  -13.6785 C   0  0  0  0  0  0  0  0  0  0  0  0
   28.5520  -18.1681  -13.3964 O   0  0  0  0  0  0  0  0  0  0  0  0
   28.2420  -20.1566  -14.4652 N   0  0  0  0  0  0  0  0  0  0  0  0
   29.4528  -20.8714  -14.0767 C   0  0  1  0  0  0  0  0  0  0  0  0
   29.4099  -21.3068  -12.6505 C   0  0  0  0  0  0  0  0  0  0  0  0
   30.7086  -21.8860  -12.2617 C   0  0  0  0  0  0  0  0  0  0  0  0
   31.5008  -21.2567  -11.3134 C   0  0  0  0  0  0  0  0  0  0  0  0
   32.7122  -21.7665  -10.9049 C   0  0  0  0  0  0  0  0  0  0  0  0
   33.1471  -22.9479  -11.4646 C   0  0  0  0  0  0  0  0  0  0  0  0
   32.4058  -23.6194  -12.4104 C   0  0  0  0  0  0  0  0  0  0  0  0
   31.2002  -23.0625  -12.7819 C   0  0  0  0  0  0  0  0  0  0  0  0
   29.7551  -21.9523  -15.0476 C   0  0  0  0  0  0  0  0  0  0  0  0
   30.7748  -22.0037  -15.7743 O   0  0  0  0  0  0  0  0  0  0  0  0
   28.8684  -23.0379  -15.2167 O   0  0  0  0  0  0  0  0  0  0  0  0
  2  1  1  1
  2  3  1  0
  4 12  1  0
  4  3  1  0
  5  4  2  0
  6  5  1  0
  6  7  1  0
  7 12  2  0
  8  7  1  0
  8  9  2  0
  9 10  1  0
 10 11  2  0
 12 11  1  0
 13  2  1  0
 13 21  1  0
 14 13  2  0
 16 15  1  0
 17 16  2  0
 18 16  1  0
 19 18  1  0
 20 21  1  0
 20 19  1  1
 22 20  1  0
 23 22  2  0
 24 22  1  0
 25 24  1  0
 25 33  1  0
 25 26  1  1
 27 26  1  0
 28 27  2  0
 29 28  1  0
 30 29  2  0
 30 31  1  0
 31 32  2  0
 32 27  1  0
 33 35  1  0
 34 33  2  0
M  END
$$$$
