WQF.pdb
     RDKit          3D

 35 37  0  0  1  0  0  0  0  0999 V2000
   27.2885  -20.4400  -17.2153 N   0  0  0  0  0  0  0  0  0  0  0  0
   26.5736  -21.0604  -16.0865 C   0  0  1  0  0  0  0  0  0  0  0  0
   26.2568  -20.0254  -15.0786 C   0  0  0  0  0  0  0  0  0  0  0  0
   27.3530  -19.5651  -14.2243 C   0  0  0  0  0  0  0  0  0  0  0  0
   28.0398  -18.3645  -14.4235 C   0  0  0  0  0  0  0  0  0  0  0  0
   28.9342  -18.2399  -13.4378 N   0  0  0  0  0  0  0  0  0  0  0  0
   28.8466  -19.3071  -12.6231 C   0  0  0  0  0  0  0  0  0  0  0  0
   29.5645  -19.6222  -11.4948 C   0  0  0  0  0  0  0  0  0  0  0  0
   29.3418  -20.7748  -10.7969 C   0  0  0  0  0  0  0  0  0  0  0  0
   28.3672  -21.6178  -11.2643 C   0  0  0  0  0  0  0  0  0  0  0  0
   27.6417  -21.3103  -12.3946 C   0  0  0  0  0  0  0  0  0  0  0  0
   27.8586  -20.1472  -13.1054 C   0  0  0  0  0  0  0  0  0  0  0  0
   25.4319  -21.8870  -16.5322 C   0  0  0  0  0  0  0  0  0  0  0  0
   24.6244  -21.4171  -17.3683 O   0  0  0  0  0  0  0  0  0  0  0  0
   24.3482  -28.1794  -16.2735 N   0  0  0  0  0  0  0  0  0  0  0  0
   25.0929  -27.3837  -17.1750 C   0  0  0  0  0  0  0  0  0  0  0  0
   25.7960  -27.8905  -18.0822 O   0  0  0  0  0  0  0  0  0  0  0  0
   25.0474  -25.9189  -17.0431 C   0  0  0  0  0  0  0  0  0  0  0  0
   24.2115  -25.4195  -15.9226 C   0  0  0  0  0  0  0  0  0  0  0  0
   24.0694  -23.9416  -15.7806 C   0  0  2  0  0  0  0  0  0  0  0  0
   25.2273  -23.1847  -16.0386 N   0  0  0  0  0  0  0  0  0  0  0  0
   23.3397  -23.6171  -14.5249 C   0  0  0  0  0  0  0  0  0  0  0  0
   23.7384  -23.9000  -13.3881 O   0  0  0  0  0  0  0  0  0  0  0  0
   22.0822  -22.9242  -14.6118 N   0  0  0  0  0  0  0  0  0  0  0  0
   21.3594  -22.5237  -13.4097 C   0  0  1  0  0  0  0  0  0  0  0  0
   22.2169  -21.7308  -12.4817 C   0  0  0  0  0  0  0  0  0  0  0  0
   22.5594  -20.4352  -13.0959 C   0  0  0  0  0  0  0  0  0  0  0  0
   21.5840  -19.4666  -13.2788 C   0  0  0  0  0  0  0  0  0  0  0  0
   21.8572  -18.2361  -13.8314 C   0  0  0  0  0  0  0  0  0  0  0  0
   23.1522  -17.9642  -14.2149 C   0  0  0  0  0  0  0  0  0  0  0  0
   24.1640  -18.8844  -14.0591 C   0  0  0  0  0  0  0  0  0  0  0  0
   23.8327  -20.1007  -13.4999 C   0  0  0  0  0  0  0  0  0  0  0  0
   20.0698  -21.8813  -13.7659 C   0  0  0  0  0  0  0  0  0  0  0  0
   19.7537  -21.4869  -14.9125 O   0  0  0  0  0  0  0  0  0  0  0  0
   19.0764  -21.6673  -12.7857 O   0  0  0  0  0  0  0  0  0  0  0  0
  2  1  1  6
  2  3  1  0
  4 12  1  0
  4  3  1  0
  5  4  2  0
  6  5  1  0
  6  7  1  0
  7 12  2  0
  8  7  1  0
  8  9  2  0
  9 10  1  0
 10 11  2  0
 12 11  1  0
 13  2  1  0
 13 21  1  0
 14 13  2  0
 16 15  1  0
 17 16  2  0
 18 16  1  0
 19 18  1  0
 20 21  1  0
 20 19  1  1
 22 20  1  0
 23 22  2  0
 24 22  1  0
 25 24  1  0
 25 33  1  0
 25 26  1  6
 27 26  1  0
 28 27  2  0
 29 28  1  0
 30 29  2  0
 30 31  1  0
 31 32  2  0
 32 27  1  0
 33 35  1  0
 34 33  2  0
M  END
$$$$
