WQF.pdb
     RDKit          3D

 35 37  0  0  1  0  0  0  0  0999 V2000
   27.4378  -21.0374  -12.9180 N   0  0  0  0  0  0  0  0  0  0  0  0
   26.3399  -21.5344  -12.0709 C   0  0  1  0  0  0  0  0  0  0  0  0
   26.4973  -20.9998  -10.7009 C   0  0  0  0  0  0  0  0  0  0  0  0
   27.8432  -21.0195  -10.1251 C   0  0  0  0  0  0  0  0  0  0  0  0
   28.9857  -21.3949  -10.8369 C   0  0  0  0  0  0  0  0  0  0  0  0
   30.0369  -21.2483  -10.0242 N   0  0  0  0  0  0  0  0  0  0  0  0
   29.6131  -20.7978   -8.8292 C   0  0  0  0  0  0  0  0  0  0  0  0
   30.3219  -20.5128   -7.6873 C   0  0  0  0  0  0  0  0  0  0  0  0
   29.7088  -20.0737   -6.5487 C   0  0  0  0  0  0  0  0  0  0  0  0
   28.3465  -19.9250   -6.5822 C   0  0  0  0  0  0  0  0  0  0  0  0
   27.6271  -20.2078   -7.7228 C   0  0  0  0  0  0  0  0  0  0  0  0
   28.2383  -20.6506   -8.8784 C   0  0  0  0  0  0  0  0  0  0  0  0
   25.0141  -21.3223  -12.6897 C   0  0  0  0  0  0  0  0  0  0  0  0
   24.5412  -20.1624  -12.7432 O   0  0  0  0  0  0  0  0  0  0  0  0
   25.5003  -24.6661  -15.1833 N   0  0  0  0  0  0  0  0  0  0  0  0
   25.4285  -23.6152  -16.1271 C   0  0  0  0  0  0  0  0  0  0  0  0
   26.3790  -23.3548  -16.9036 O   0  0  0  0  0  0  0  0  0  0  0  0
   24.2063  -22.7989  -16.1981 C   0  0  0  0  0  0  0  0  0  0  0  0
   23.1384  -23.1911  -15.2447 C   0  0  0  0  0  0  0  0  0  0  0  0
   23.0712  -22.4526  -13.9506 C   0  0  2  0  0  0  0  0  0  0  0  0
   24.2695  -22.3892  -13.2156 N   0  0  0  0  0  0  0  0  0  0  0  0
   21.8573  -22.8603  -13.1925 C   0  0  0  0  0  0  0  0  0  0  0  0
   21.8609  -23.6253  -12.2197 O   0  0  0  0  0  0  0  0  0  0  0  0
   20.5787  -22.3404  -13.5972 N   0  0  0  0  0  0  0  0  0  0  0  0
   19.3895  -22.5455  -12.7776 C   0  0  1  0  0  0  0  0  0  0  0  0
   19.5329  -21.9344  -11.4243 C   0  0  0  0  0  0  0  0  0  0  0  0
   19.4766  -20.4649  -11.5270 C   0  0  0  0  0  0  0  0  0  0  0  0
   18.2541  -19.8119  -11.5736 C   0  0  0  0  0  0  0  0  0  0  0  0
   18.1494  -18.4418  -11.6520 C   0  0  0  0  0  0  0  0  0  0  0  0
   19.3085  -17.6979  -11.6851 C   0  0  0  0  0  0  0  0  0  0  0  0
   20.5513  -18.2880  -11.6418 C   0  0  0  0  0  0  0  0  0  0  0  0
   20.5963  -19.6640  -11.5635 C   0  0  0  0  0  0  0  0  0  0  0  0
   18.1691  -22.1380  -13.5173 C   0  0  0  0  0  0  0  0  0  0  0  0
   16.9962  -22.2544  -13.0918 O   0  0  0  0  0  0  0  0  0  0  0  0
   18.2638  -21.5680  -14.8055 O   0  0  0  0  0  0  0  0  0  0  0  0
  2  1  1  6
  2  3  1  0
  4 12  1  0
  4  3  1  0
  5  4  2  0
  6  5  1  0
  6  7  1  0
  7 12  2  0
  8  7  1  0
  8  9  2  0
  9 10  1  0
 10 11  2  0
 12 11  1  0
 13  2  1  0
 13 21  1  0
 14 13  2  0
 16 15  1  0
 17 16  2  0
 18 16  1  0
 19 18  1  0
 20 21  1  0
 20 19  1  6
 22 20  1  0
 23 22  2  0
 24 22  1  0
 25 24  1  0
 25 33  1  0
 25 26  1  1
 27 26  1  0
 28 27  2  0
 29 28  1  0
 30 29  2  0
 30 31  1  0
 31 32  2  0
 32 27  1  0
 33 35  1  0
 34 33  2  0
M  END
$$$$
