NFE.pdb
     RDKit          3D

 29 29  0  0  1  0  0  0  0  0999 V2000
   17.8167  -13.3339  -21.2184 N   0  0  0  0  0  0  0  0  0  0  0  0
   18.9075  -12.6354  -20.6625 C   0  0  0  0  0  0  0  0  0  0  0  0
   20.0530  -12.8187  -21.1438 O   0  0  0  0  0  0  0  0  0  0  0  0
   18.6981  -11.7035  -19.5298 C   0  0  0  0  0  0  0  0  0  0  0  0
   19.4803  -12.1864  -18.3476 C   0  0  2  0  0  0  0  0  0  0  0  0
   18.9447  -13.3964  -17.7761 N   0  0  0  0  0  0  0  0  0  0  0  0
   19.5643  -11.0854  -17.3639 C   0  0  0  0  0  0  0  0  0  0  0  0
   18.5107  -10.6749  -16.8188 O   0  0  0  0  0  0  0  0  0  0  0  0
   20.7787  -10.4479  -16.9855 N   0  0  0  0  0  0  0  0  0  0  0  0
   20.7546   -9.3311  -16.0539 C   0  0  1  0  0  0  0  0  0  0  0  0
   22.0619   -9.2315  -15.2920 C   0  0  0  0  0  0  0  0  0  0  0  0
   21.9973   -8.0524  -14.3897 C   0  0  0  0  0  0  0  0  0  0  0  0
   22.4635   -6.8068  -14.7925 C   0  0  0  0  0  0  0  0  0  0  0  0
   22.4072   -5.7042  -13.9689 C   0  0  0  0  0  0  0  0  0  0  0  0
   21.8778   -5.7975  -12.6938 C   0  0  0  0  0  0  0  0  0  0  0  0
   21.4147   -7.0319  -12.2922 C   0  0  0  0  0  0  0  0  0  0  0  0
   21.4703   -8.1478  -13.1225 C   0  0  0  0  0  0  0  0  0  0  0  0
   20.4470   -8.0795  -16.7787 C   0  0  0  0  0  0  0  0  0  0  0  0
   21.0686   -7.8186  -17.8621 O   0  0  0  0  0  0  0  0  0  0  0  0
   19.4903   -7.1357  -16.3403 N   0  0  0  0  0  0  0  0  0  0  0  0
   19.2400   -5.8502  -17.0048 C   0  0  1  0  0  0  0  0  0  0  0  0
   17.8634   -5.8074  -17.5459 C   0  0  0  0  0  0  0  0  0  0  0  0
   17.4035   -4.5896  -18.2319 C   0  0  0  0  0  0  0  0  0  0  0  0
   15.9926   -4.5528  -18.6466 C   0  0  0  0  0  0  0  0  0  0  0  0
   15.1781   -5.4522  -18.3300 O   0  0  0  0  0  0  0  0  0  0  0  0
   19.7009   -4.6916  -16.3089 C   0  0  0  0  0  0  0  0  0  0  0  0
   20.2648   -3.5753  -16.9046 O   0  0  0  0  0  0  0  0  0  0  0  0
   15.5182   -3.4986  -19.4155 O   0  0  0  0  0  0  0  0  0  0  0  0
   19.6124   -4.6450  -15.0362 O   0  0  0  0  0  0  0  0  0  0  0  0
  2  3  2  0
  2  1  1  0
  4  2  1  0
  5  6  1  1
  5  4  1  0
  7  5  1  0
  8  7  2  0
  9  7  1  0
 10 18  1  0
 10  9  1  0
 10 11  1  6
 12 11  1  0
 12 13  2  0
 14 13  1  0
 15 14  2  0
 16 17  2  0
 16 15  1  0
 17 12  1  0
 18 19  2  0
 20 21  1  0
 20 18  1  0
 21 22  1  1
 23 22  1  0
 24 23  1  0
 25 24  2  0
 26 27  1  0
 26 21  1  0
 28 24  1  0
 29 26  2  0
M  END
$$$$
