NFE.pdb
     RDKit          3D

 29 29  0  0  1  0  0  0  0  0999 V2000
   25.0094  -21.1310  -16.2810 N   0  0  0  0  0  0  0  0  0  0  0  0
   25.3468  -20.3064  -15.1888 C   0  0  0  0  0  0  0  0  0  0  0  0
   25.8150  -19.1631  -15.4147 O   0  0  0  0  0  0  0  0  0  0  0  0
   25.1501  -20.7878  -13.8014 C   0  0  0  0  0  0  0  0  0  0  0  0
   26.4835  -20.9017  -13.1291 C   0  0  2  0  0  0  0  0  0  0  0  0
   27.3095  -21.9401  -13.6922 N   0  0  0  0  0  0  0  0  0  0  0  0
   26.2594  -21.0817  -11.6785 C   0  0  0  0  0  0  0  0  0  0  0  0
   26.0474  -22.2365  -11.2343 O   0  0  0  0  0  0  0  0  0  0  0  0
   26.2680  -20.0173  -10.7343 N   0  0  0  0  0  0  0  0  0  0  0  0
   26.1945  -20.3069   -9.3108 C   0  0  1  0  0  0  0  0  0  0  0  0
   27.1114  -19.3917   -8.5227 C   0  0  0  0  0  0  0  0  0  0  0  0
   27.0430  -19.7718   -7.0876 C   0  0  0  0  0  0  0  0  0  0  0  0
   27.7921  -20.8274   -6.5823 C   0  0  0  0  0  0  0  0  0  0  0  0
   27.7418  -21.1893   -5.2542 C   0  0  0  0  0  0  0  0  0  0  0  0
   26.9329  -20.5063   -4.3631 C   0  0  0  0  0  0  0  0  0  0  0  0
   26.1891  -19.4588   -4.8620 C   0  0  0  0  0  0  0  0  0  0  0  0
   26.2381  -19.0910   -6.2036 C   0  0  0  0  0  0  0  0  0  0  0  0
   24.7931  -20.2064   -8.8499 C   0  0  0  0  0  0  0  0  0  0  0  0
   24.0608  -19.2570   -9.2863 O   0  0  0  0  0  0  0  0  0  0  0  0
   24.2013  -21.1119   -7.9398 N   0  0  0  0  0  0  0  0  0  0  0  0
   22.7756  -21.1088   -7.5879 C   0  0  1  0  0  0  0  0  0  0  0  0
   22.3937  -22.3966   -6.9668 C   0  0  0  0  0  0  0  0  0  0  0  0
   20.9791  -22.6421   -6.6446 C   0  0  0  0  0  0  0  0  0  0  0  0
   20.6182  -24.0078   -6.2340 C   0  0  0  0  0  0  0  0  0  0  0  0
   21.4811  -24.8902   -6.0121 O   0  0  0  0  0  0  0  0  0  0  0  0
   22.2925  -19.9184   -6.9645 C   0  0  0  0  0  0  0  0  0  0  0  0
   21.0106  -19.4110   -7.0999 O   0  0  0  0  0  0  0  0  0  0  0  0
   19.2843  -24.3607   -6.0790 O   0  0  0  0  0  0  0  0  0  0  0  0
   23.0750  -19.2340   -6.2234 O   0  0  0  0  0  0  0  0  0  0  0  0
  2  3  2  0
  2  1  1  0
  4  2  1  0
  5  6  1  6
  5  4  1  0
  7  5  1  0
  8  7  2  0
  9  7  1  0
 10 18  1  0
 10  9  1  0
 10 11  1  1
 12 11  1  0
 12 13  2  0
 14 13  1  0
 15 14  2  0
 16 17  2  0
 16 15  1  0
 17 12  1  0
 18 19  2  0
 20 21  1  0
 20 18  1  0
 21 22  1  1
 23 22  1  0
 24 23  1  0
 25 24  2  0
 26 27  1  0
 26 21  1  0
 28 24  1  0
 29 26  2  0
M  END
$$$$
