NFE.pdb
     RDKit          3D

 29 29  0  0  1  0  0  0  0  0999 V2000
   19.2138   -7.0590  -16.9541 N   0  0  0  0  0  0  0  0  0  0  0  0
   17.9651   -6.4205  -17.0949 C   0  0  0  0  0  0  0  0  0  0  0  0
   17.8529   -5.4860  -17.9265 O   0  0  0  0  0  0  0  0  0  0  0  0
   16.8102   -6.8497  -16.2720 C   0  0  0  0  0  0  0  0  0  0  0  0
   17.2509   -7.9338  -15.3375 C   0  0  2  0  0  0  0  0  0  0  0  0
   16.7297   -9.2293  -15.6946 N   0  0  0  0  0  0  0  0  0  0  0  0
   16.8864   -7.5376  -13.9602 C   0  0  0  0  0  0  0  0  0  0  0  0
   15.6765   -7.3554  -13.6796 O   0  0  0  0  0  0  0  0  0  0  0  0
   17.8292   -7.3456  -12.9120 N   0  0  0  0  0  0  0  0  0  0  0  0
   17.3729   -6.9707  -11.5827 C   0  0  1  0  0  0  0  0  0  0  0  0
   17.9901   -7.8648  -10.5247 C   0  0  0  0  0  0  0  0  0  0  0  0
   19.4661   -7.8572  -10.6984 C   0  0  0  0  0  0  0  0  0  0  0  0
   20.0878   -8.6689  -11.6394 C   0  0  0  0  0  0  0  0  0  0  0  0
   21.4541   -8.6705  -11.8143 C   0  0  0  0  0  0  0  0  0  0  0  0
   22.2681   -7.8535  -11.0495 C   0  0  0  0  0  0  0  0  0  0  0  0
   21.6535   -7.0476  -10.1156 C   0  0  0  0  0  0  0  0  0  0  0  0
   20.2730   -7.0439   -9.9369 C   0  0  0  0  0  0  0  0  0  0  0  0
   17.6697   -5.5436  -11.3342 C   0  0  0  0  0  0  0  0  0  0  0  0
   18.7111   -5.0240  -11.8573 O   0  0  0  0  0  0  0  0  0  0  0  0
   16.8584   -4.7020  -10.5394 N   0  0  0  0  0  0  0  0  0  0  0  0
   17.1844   -3.3052  -10.2245 C   0  0  1  0  0  0  0  0  0  0  0  0
   16.4764   -2.3887  -11.1457 C   0  0  0  0  0  0  0  0  0  0  0  0
   16.7316   -0.9428  -11.0503 C   0  0  0  0  0  0  0  0  0  0  0  0
   15.5607   -0.0719  -10.8647 C   0  0  0  0  0  0  0  0  0  0  0  0
   14.3865   -0.5093  -10.9136 O   0  0  0  0  0  0  0  0  0  0  0  0
   17.1797   -2.9640   -8.8379 C   0  0  0  0  0  0  0  0  0  0  0  0
   17.8928   -1.9203   -8.2710 O   0  0  0  0  0  0  0  0  0  0  0  0
   15.7309    1.2852  -10.6257 O   0  0  0  0  0  0  0  0  0  0  0  0
   16.4836   -3.6561   -8.0218 O   0  0  0  0  0  0  0  0  0  0  0  0
  2  3  2  0
  2  1  1  0
  4  2  1  0
  5  6  1  6
  5  4  1  0
  7  5  1  0
  8  7  2  0
  9  7  1  0
 10 18  1  0
 10  9  1  0
 10 11  1  1
 12 11  1  0
 12 13  2  0
 14 13  1  0
 15 14  2  0
 16 17  2  0
 16 15  1  0
 17 12  1  0
 18 19  2  0
 20 21  1  0
 20 18  1  0
 21 22  1  6
 23 22  1  0
 24 23  1  0
 25 24  2  0
 26 27  1  0
 26 21  1  0
 28 24  1  0
 29 26  2  0
M  END
$$$$
