NFE.pdb
     RDKit          3D

 29 29  0  0  1  0  0  0  0  0999 V2000
   26.2489  -22.0057  -19.4933 N   0  0  0  0  0  0  0  0  0  0  0  0
   26.2367  -21.1894  -18.3442 C   0  0  0  0  0  0  0  0  0  0  0  0
   26.9663  -20.1675  -18.3194 O   0  0  0  0  0  0  0  0  0  0  0  0
   25.3757  -21.5382  -17.1899 C   0  0  0  0  0  0  0  0  0  0  0  0
   26.2248  -21.6464  -15.9610 C   0  0  2  0  0  0  0  0  0  0  0  0
   27.1490  -22.7512  -16.0125 N   0  0  0  0  0  0  0  0  0  0  0  0
   25.3327  -21.7098  -14.7832 C   0  0  0  0  0  0  0  0  0  0  0  0
   24.4844  -22.6322  -14.7115 O   0  0  0  0  0  0  0  0  0  0  0  0
   25.3705  -20.7808  -13.7061 N   0  0  0  0  0  0  0  0  0  0  0  0
   24.4193  -20.8967  -12.6118 C   0  0  1  0  0  0  0  0  0  0  0  0
   24.7965  -19.9787  -11.4653 C   0  0  0  0  0  0  0  0  0  0  0  0
   23.7909  -20.1339  -10.3819 C   0  0  0  0  0  0  0  0  0  0  0  0
   23.9854  -21.0294   -9.3373 C   0  0  0  0  0  0  0  0  0  0  0  0
   23.0644  -21.1820   -8.3246 C   0  0  0  0  0  0  0  0  0  0  0  0
   21.8966  -20.4396   -8.3101 C   0  0  0  0  0  0  0  0  0  0  0  0
   21.7017  -19.5507   -9.3451 C   0  0  0  0  0  0  0  0  0  0  0  0
   22.6309  -19.3946  -10.3698 C   0  0  0  0  0  0  0  0  0  0  0  0
   23.0520  -20.6238  -13.1043 C   0  0  0  0  0  0  0  0  0  0  0  0
   22.8643  -19.6584  -13.9173 O   0  0  0  0  0  0  0  0  0  0  0  0
   21.9181  -21.3781  -12.7253 N   0  0  0  0  0  0  0  0  0  0  0  0
   20.5475  -21.0736  -13.1558 C   0  0  1  0  0  0  0  0  0  0  0  0
   20.2440  -21.7540  -14.4344 C   0  0  0  0  0  0  0  0  0  0  0  0
   18.9327  -21.5362  -15.0653 C   0  0  0  0  0  0  0  0  0  0  0  0
   17.8693  -22.4984  -14.7378 C   0  0  0  0  0  0  0  0  0  0  0  0
   18.0730  -23.7353  -14.7033 O   0  0  0  0  0  0  0  0  0  0  0  0
   19.5493  -21.1313  -12.1362 C   0  0  0  0  0  0  0  0  0  0  0  0
   19.4756  -22.0972  -11.1460 O   0  0  0  0  0  0  0  0  0  0  0  0
   16.5863  -22.0508  -14.4528 O   0  0  0  0  0  0  0  0  0  0  0  0
   18.6293  -20.2467  -12.1054 O   0  0  0  0  0  0  0  0  0  0  0  0
  2  3  2  0
  2  1  1  0
  4  2  1  0
  5  6  1  6
  5  4  1  0
  7  5  1  0
  8  7  2  0
  9  7  1  0
 10 18  1  0
 10  9  1  0
 10 11  1  1
 12 11  1  0
 12 13  2  0
 14 13  1  0
 15 14  2  0
 16 17  2  0
 16 15  1  0
 17 12  1  0
 18 19  2  0
 20 21  1  0
 20 18  1  0
 21 22  1  6
 23 22  1  0
 24 23  1  0
 25 24  2  0
 26 27  1  0
 26 21  1  0
 28 24  1  0
 29 26  2  0
M  END
$$$$
