NFE.pdb
     RDKit          3D

 29 29  0  0  1  0  0  0  0  0999 V2000
   28.1439  -20.6946  -19.7504 N   0  0  0  0  0  0  0  0  0  0  0  0
   27.0924  -21.5898  -20.0330 C   0  0  0  0  0  0  0  0  0  0  0  0
   26.7471  -21.7607  -21.2284 O   0  0  0  0  0  0  0  0  0  0  0  0
   26.4111  -22.3121  -18.9334 C   0  0  0  0  0  0  0  0  0  0  0  0
   27.4080  -22.6219  -17.8597 C   0  0  2  0  0  0  0  0  0  0  0  0
   28.0709  -23.8865  -18.0568 N   0  0  0  0  0  0  0  0  0  0  0  0
   26.7234  -22.5402  -16.5514 C   0  0  0  0  0  0  0  0  0  0  0  0
   25.9248  -23.4519  -16.2247 O   0  0  0  0  0  0  0  0  0  0  0  0
   26.9111  -21.4807  -15.6204 N   0  0  0  0  0  0  0  0  0  0  0  0
   26.1847  -21.4824  -14.3602 C   0  0  1  0  0  0  0  0  0  0  0  0
   26.9036  -20.6475  -13.3182 C   0  0  0  0  0  0  0  0  0  0  0  0
   26.1312  -20.7027  -12.0497 C   0  0  0  0  0  0  0  0  0  0  0  0
   26.4661  -21.5935  -11.0371 C   0  0  0  0  0  0  0  0  0  0  0  0
   25.7620  -21.6541   -9.8548 C   0  0  0  0  0  0  0  0  0  0  0  0
   24.6814  -20.8196   -9.6292 C   0  0  0  0  0  0  0  0  0  0  0  0
   24.3476  -19.9352  -10.6321 C   0  0  0  0  0  0  0  0  0  0  0  0
   25.0574  -19.8719  -11.8278 C   0  0  0  0  0  0  0  0  0  0  0  0
   24.8001  -21.0117  -14.5784 C   0  0  0  0  0  0  0  0  0  0  0  0
   24.6066  -19.9099  -15.1923 O   0  0  0  0  0  0  0  0  0  0  0  0
   23.6553  -21.7174  -14.1428 N   0  0  0  0  0  0  0  0  0  0  0  0
   22.2846  -21.1996  -14.2404 C   0  0  1  0  0  0  0  0  0  0  0  0
   21.6348  -21.6868  -15.4775 C   0  0  0  0  0  0  0  0  0  0  0  0
   21.3948  -23.1297  -15.6372 C   0  0  0  0  0  0  0  0  0  0  0  0
   21.6568  -23.7041  -16.9659 C   0  0  0  0  0  0  0  0  0  0  0  0
   21.5633  -24.9336  -17.1941 O   0  0  0  0  0  0  0  0  0  0  0  0
   21.5146  -21.2506  -13.0388 C   0  0  0  0  0  0  0  0  0  0  0  0
   21.8309  -22.0042  -11.9204 O   0  0  0  0  0  0  0  0  0  0  0  0
   22.0220  -22.8809  -18.0227 O   0  0  0  0  0  0  0  0  0  0  0  0
   20.4384  -20.5694  -12.9517 O   0  0  0  0  0  0  0  0  0  0  0  0
  2  3  2  0
  2  1  1  0
  4  2  1  0
  5  6  1  6
  5  4  1  0
  7  5  1  0
  8  7  2  0
  9  7  1  0
 10 18  1  0
 10  9  1  0
 10 11  1  1
 12 11  1  0
 12 13  2  0
 14 13  1  0
 15 14  2  0
 16 17  2  0
 16 15  1  0
 17 12  1  0
 18 19  2  0
 20 21  1  0
 20 18  1  0
 21 22  1  6
 23 22  1  0
 24 23  1  0
 25 24  2  0
 26 27  1  0
 26 21  1  0
 28 24  1  0
 29 26  2  0
M  END
$$$$
