NFE.pdb
     RDKit          3D

 29 29  0  0  1  0  0  0  0  0999 V2000
   29.1647  -21.7873  -19.4740 N   0  0  0  0  0  0  0  0  0  0  0  0
   28.1051  -20.8769  -19.2863 C   0  0  0  0  0  0  0  0  0  0  0  0
   27.8905  -20.0072  -20.1665 O   0  0  0  0  0  0  0  0  0  0  0  0
   27.2642  -20.9511  -18.0687 C   0  0  0  0  0  0  0  0  0  0  0  0
   27.8680  -21.9362  -17.1160 C   0  0  2  0  0  0  0  0  0  0  0  0
   27.9601  -23.2654  -17.6659 N   0  0  0  0  0  0  0  0  0  0  0  0
   27.0956  -21.8981  -15.8554 C   0  0  0  0  0  0  0  0  0  0  0  0
   26.2240  -22.7775  -15.6492 O   0  0  0  0  0  0  0  0  0  0  0  0
   27.2757  -20.9160  -14.8418 N   0  0  0  0  0  0  0  0  0  0  0  0
   26.5308  -21.0111  -13.5961 C   0  0  1  0  0  0  0  0  0  0  0  0
   27.2791  -20.3356  -12.4633 C   0  0  0  0  0  0  0  0  0  0  0  0
   26.4513  -20.4175  -11.2317 C   0  0  0  0  0  0  0  0  0  0  0  0
   25.5790  -19.3955  -10.8772 C   0  0  0  0  0  0  0  0  0  0  0  0
   24.8029  -19.4584   -9.7410 C   0  0  0  0  0  0  0  0  0  0  0  0
   24.8643  -20.5556   -8.8999 C   0  0  0  0  0  0  0  0  0  0  0  0
   25.7287  -21.5705   -9.2497 C   0  0  0  0  0  0  0  0  0  0  0  0
   26.5141  -21.5095  -10.3973 C   0  0  0  0  0  0  0  0  0  0  0  0
   25.1784  -20.4407  -13.7753 C   0  0  0  0  0  0  0  0  0  0  0  0
   25.0485  -19.3246  -14.3800 O   0  0  0  0  0  0  0  0  0  0  0  0
   23.9977  -21.0644  -13.3112 N   0  0  0  0  0  0  0  0  0  0  0  0
   22.6496  -20.5126  -13.4971 C   0  0  1  0  0  0  0  0  0  0  0  0
   22.3352  -20.3902  -14.9379 C   0  0  0  0  0  0  0  0  0  0  0  0
   20.9876  -19.9575  -15.3404 C   0  0  0  0  0  0  0  0  0  0  0  0
   20.8679  -18.6125  -15.9240 C   0  0  0  0  0  0  0  0  0  0  0  0
   20.9433  -18.4096  -17.1592 O   0  0  0  0  0  0  0  0  0  0  0  0
   21.6339  -21.0582  -12.6545 C   0  0  0  0  0  0  0  0  0  0  0  0
   20.5219  -20.3698  -12.1976 O   0  0  0  0  0  0  0  0  0  0  0  0
   20.6643  -17.5111  -15.1036 O   0  0  0  0  0  0  0  0  0  0  0  0
   21.7253  -22.2695  -12.2620 O   0  0  0  0  0  0  0  0  0  0  0  0
  2  3  2  0
  2  1  1  0
  4  2  1  0
  5  6  1  6
  5  4  1  0
  7  5  1  0
  8  7  2  0
  9  7  1  0
 10 18  1  0
 10  9  1  0
 10 11  1  1
 12 11  1  0
 12 13  2  0
 14 13  1  0
 15 14  2  0
 16 17  2  0
 16 15  1  0
 17 12  1  0
 18 19  2  0
 20 21  1  0
 20 18  1  0
 21 22  1  6
 23 22  1  0
 24 23  1  0
 25 24  2  0
 26 27  1  0
 26 21  1  0
 28 24  1  0
 29 26  2  0
M  END
$$$$
