NFE.pdb
     RDKit          3D

 29 29  0  0  1  0  0  0  0  0999 V2000
   24.7819  -17.0237  -20.4763 N   0  0  0  0  0  0  0  0  0  0  0  0
   23.6145  -17.8010  -20.3357 C   0  0  0  0  0  0  0  0  0  0  0  0
   22.5724  -17.4436  -20.9388 O   0  0  0  0  0  0  0  0  0  0  0  0
   23.6247  -19.0167  -19.4889 C   0  0  0  0  0  0  0  0  0  0  0  0
   24.9666  -19.1480  -18.8371 C   0  0  2  0  0  0  0  0  0  0  0  0
   25.9346  -19.8122  -19.6734 N   0  0  0  0  0  0  0  0  0  0  0  0
   24.7869  -19.8237  -17.5340 C   0  0  0  0  0  0  0  0  0  0  0  0
   24.5555  -21.0573  -17.5151 O   0  0  0  0  0  0  0  0  0  0  0  0
   24.8597  -19.1602  -16.2774 N   0  0  0  0  0  0  0  0  0  0  0  0
   24.6674  -19.9106  -15.0463 C   0  0  1  0  0  0  0  0  0  0  0  0
   25.3691  -19.2354  -13.8838 C   0  0  0  0  0  0  0  0  0  0  0  0
   25.1808  -20.0677  -12.6670 C   0  0  0  0  0  0  0  0  0  0  0  0
   24.2177  -19.7518  -11.7165 C   0  0  0  0  0  0  0  0  0  0  0  0
   24.0292  -20.5153  -10.5856 C   0  0  0  0  0  0  0  0  0  0  0  0
   24.8020  -21.6391  -10.3516 C   0  0  0  0  0  0  0  0  0  0  0  0
   25.7577  -21.9544  -11.2931 C   0  0  0  0  0  0  0  0  0  0  0  0
   25.9503  -21.1846  -12.4368 C   0  0  0  0  0  0  0  0  0  0  0  0
   23.2225  -20.0861  -14.7860 C   0  0  0  0  0  0  0  0  0  0  0  0
   22.4568  -19.0657  -14.8119 O   0  0  0  0  0  0  0  0  0  0  0  0
   22.6235  -21.3354  -14.5053 N   0  0  0  0  0  0  0  0  0  0  0  0
   21.2142  -21.5046  -14.1286 C   0  0  1  0  0  0  0  0  0  0  0  0
   20.7394  -22.8570  -14.4969 C   0  0  0  0  0  0  0  0  0  0  0  0
   19.3206  -23.1937  -14.3001 C   0  0  0  0  0  0  0  0  0  0  0  0
   18.7547  -24.2280  -15.1798 C   0  0  0  0  0  0  0  0  0  0  0  0
   18.2542  -23.9562  -16.2970 O   0  0  0  0  0  0  0  0  0  0  0  0
   20.8552  -21.0202  -12.8341 C   0  0  0  0  0  0  0  0  0  0  0  0
   19.8044  -20.1574  -12.5687 O   0  0  0  0  0  0  0  0  0  0  0  0
   18.7610  -25.5594  -14.7858 O   0  0  0  0  0  0  0  0  0  0  0  0
   21.5366  -21.3798  -11.8162 O   0  0  0  0  0  0  0  0  0  0  0  0
  2  3  2  0
  2  1  1  0
  4  2  1  0
  5  6  1  6
  5  4  1  0
  7  5  1  0
  8  7  2  0
  9  7  1  0
 10 18  1  0
 10  9  1  0
 10 11  1  1
 12 11  1  0
 12 13  2  0
 14 13  1  0
 15 14  2  0
 16 17  2  0
 16 15  1  0
 17 12  1  0
 18 19  2  0
 20 21  1  0
 20 18  1  0
 21 22  1  1
 23 22  1  0
 24 23  1  0
 25 24  2  0
 26 27  1  0
 26 21  1  0
 28 24  1  0
 29 26  2  0
M  END
$$$$
