RII.pdb
     RDKit          3D

 28 27  0  0  1  0  0  0  0  0999 V2000
   26.5399  -20.0573  -20.9042 N   0  0  0  0  0  0  0  0  0  0  0  0
   26.6707  -21.0160  -19.8662 C   0  0  0  0  0  0  0  0  0  0  0  0
   26.3252  -22.2374  -19.9918 N   0  0  0  0  0  0  0  0  0  0  0  0
   27.2211  -20.5531  -18.6359 N   0  0  0  0  0  0  0  0  0  0  0  0
   27.5858  -19.1753  -18.4600 C   0  0  0  0  0  0  0  0  0  0  0  0
   26.3666  -18.2891  -18.1983 C   0  0  0  0  0  0  0  0  0  0  0  0
   25.9609  -18.5492  -16.7686 C   0  0  0  0  0  0  0  0  0  0  0  0
   24.4481  -18.7436  -16.6458 C   0  0  2  0  0  0  0  0  0  0  0  0
   23.8653  -17.5210  -17.1822 N   0  0  0  0  0  0  0  0  0  0  0  0
   24.1214  -18.8631  -15.2058 C   0  0  0  0  0  0  0  0  0  0  0  0
   24.0088  -17.8342  -14.5173 O   0  0  0  0  0  0  0  0  0  0  0  0
   26.3899  -22.9467  -19.2434 C   0  0  0  0  0  0  0  0  0  0  0  0
   19.6092  -20.4161  -13.6642 C   0  0  0  0  0  0  0  0  0  0  0  0
   21.0179  -19.9156  -13.8919 C   0  0  2  0  0  0  0  0  0  0  0  0
   22.0343  -20.6778  -13.0630 C   0  0  0  0  0  0  0  0  0  0  0  0
   21.5804  -20.7554  -11.6330 C   0  0  2  0  0  0  0  0  0  0  0  0
   23.4277  -20.1453  -13.2198 N   0  0  0  0  0  0  0  0  0  0  0  0
   23.9240  -20.0884  -14.5420 C   0  0  0  0  0  0  0  0  0  0  0  0
   24.3029  -20.9128  -12.3080 O   0  0  0  0  0  0  0  0  0  0  0  0
   24.5250  -22.1120  -12.5486 C   0  0  0  0  0  0  0  0  0  0  0  0
   29.1738  -20.0899   -8.8937 C   0  0  0  0  0  0  0  0  0  0  0  0
   27.9834  -20.9423   -9.1843 C   0  0  2  0  0  0  0  0  0  0  0  0
   26.8273  -20.3197   -9.8560 C   0  0  0  0  0  0  0  0  0  0  0  0
   26.4421  -19.0007   -9.1435 C   0  0  2  0  0  0  0  0  0  0  0  0
   25.6422  -21.1178  -10.1893 N   0  0  0  0  0  0  0  0  0  0  0  0
   24.8807  -20.3092  -11.1836 C   0  0  0  0  0  0  0  0  0  0  0  0
   24.7360  -21.5889   -9.1584 O   0  0  0  0  0  0  0  0  0  0  0  0
   23.6986  -21.0297   -8.7572 O   0  0  0  0  0  0  0  0  0  0  0  0
  2  4  1  0
  2  1  1  0
  3  2  2  0
  5  4  1  0
  6  5  1  0
  7  6  1  0
  8 10  1  0
  8  7  1  0
  8  9  1  1
 10 11  2  0
 13 12  1  0
 14 13  1  0
 14 16  1  0
 14 15  1  6
 16 18  1  0
 17 10  1  0
 16 17  1  1
 18 19  2  0
 20 21  1  0
 21 22  1  0
 22 24  1  0
 22 23  1  6
 24 26  1  0
 25 18  1  0
 24 25  1  1
 26 27  2  0
 26 28  1  0
M  END
$$$$
