RII.pdb
     RDKit          3D

 28 27  0  0  1  0  0  0  0  0999 V2000
   26.5433  -30.8650  -16.3783 N   0  0  0  0  0  0  0  0  0  0  0  0
   27.5885  -31.0005  -15.4281 C   0  0  0  0  0  0  0  0  0  0  0  0
   27.5367  -31.8031  -14.4380 N   0  0  0  0  0  0  0  0  0  0  0  0
   28.7388  -30.1824  -15.6240 N   0  0  0  0  0  0  0  0  0  0  0  0
   28.8340  -29.2963  -16.7501 C   0  0  0  0  0  0  0  0  0  0  0  0
   30.2305  -28.6861  -16.8822 C   0  0  0  0  0  0  0  0  0  0  0  0
   30.2009  -27.4013  -16.0919 C   0  0  0  0  0  0  0  0  0  0  0  0
   31.5267  -26.6460  -16.2075 C   0  0  2  0  0  0  0  0  0  0  0  0
   32.0146  -26.5277  -14.8400 N   0  0  0  0  0  0  0  0  0  0  0  0
   31.2359  -25.2996  -16.7525 C   0  0  0  0  0  0  0  0  0  0  0  0
   30.7298  -24.4374  -16.0136 O   0  0  0  0  0  0  0  0  0  0  0  0
   28.2894  -31.9267  -13.7413 C   0  0  0  0  0  0  0  0  0  0  0  0
   33.3926  -21.0693  -20.6131 C   0  0  0  0  0  0  0  0  0  0  0  0
   32.2250  -21.6148  -19.8219 C   0  0  2  0  0  0  0  0  0  0  0  0
   32.4341  -23.0631  -19.4227 C   0  0  0  0  0  0  0  0  0  0  0  0
   32.6287  -23.9130  -20.6462 C   0  0  2  0  0  0  0  0  0  0  0  0
   31.3628  -23.5728  -18.5050 N   0  0  0  0  0  0  0  0  0  0  0  0
   31.4971  -24.9143  -18.0808 C   0  0  0  0  0  0  0  0  0  0  0  0
   30.0592  -23.2989  -19.1471 O   0  0  0  0  0  0  0  0  0  0  0  0
   29.6181  -24.1009  -19.9881 C   0  0  0  0  0  0  0  0  0  0  0  0
   25.5536  -23.3842  -16.7777 C   0  0  0  0  0  0  0  0  0  0  0  0
   26.5805  -23.3335  -17.8597 C   0  0  2  0  0  0  0  0  0  0  0  0
   27.0173  -22.0110  -18.3450 C   0  0  0  0  0  0  0  0  0  0  0  0
   25.7908  -21.0966  -18.5808 C   0  0  2  0  0  0  0  0  0  0  0  0
   27.9874  -21.9037  -19.4404 N   0  0  0  0  0  0  0  0  0  0  0  0
   29.3204  -22.1540  -18.8216 C   0  0  0  0  0  0  0  0  0  0  0  0
   28.0589  -20.7159  -20.2708 O   0  0  0  0  0  0  0  0  0  0  0  0
   27.4751  -20.5192  -21.3526 O   0  0  0  0  0  0  0  0  0  0  0  0
  2  4  1  0
  2  1  1  0
  3  2  2  0
  5  4  1  0
  6  5  1  0
  7  6  1  0
  8 10  1  0
  8  7  1  0
  8  9  1  1
 10 11  2  0
 13 12  1  0
 14 13  1  0
 14 16  1  0
 14 15  1  1
 16 18  1  0
 17 10  1  0
 16 17  1  6
 18 19  2  0
 20 21  1  0
 21 22  1  0
 22 24  1  0
 22 23  1  1
 24 26  1  0
 25 18  1  0
 24 25  1  6
 26 27  2  0
 26 28  1  0
M  END
$$$$
