RII.pdb
     RDKit          3D

 28 27  0  0  1  0  0  0  0  0999 V2000
   26.3469  -17.9474  -17.4047 N   0  0  0  0  0  0  0  0  0  0  0  0
   26.9627  -16.8481  -16.7522 C   0  0  0  0  0  0  0  0  0  0  0  0
   27.1638  -15.7212  -17.3151 N   0  0  0  0  0  0  0  0  0  0  0  0
   27.3622  -17.0513  -15.3994 N   0  0  0  0  0  0  0  0  0  0  0  0
   27.2423  -18.3403  -14.7778 C   0  0  0  0  0  0  0  0  0  0  0  0
   25.8497  -18.5628  -14.1850 C   0  0  0  0  0  0  0  0  0  0  0  0
   25.8736  -19.9399  -13.5692 C   0  0  0  0  0  0  0  0  0  0  0  0
   27.0270  -20.0849  -12.5741 C   0  0  2  0  0  0  0  0  0  0  0  0
   27.9234  -21.0637  -13.1748 N   0  0  0  0  0  0  0  0  0  0  0  0
   26.4717  -20.6246  -11.3113 C   0  0  0  0  0  0  0  0  0  0  0  0
   26.0233  -21.7837  -11.2870 O   0  0  0  0  0  0  0  0  0  0  0  0
   27.6032  -14.9056  -16.8578 C   0  0  0  0  0  0  0  0  0  0  0  0
   28.4873  -19.2082   -6.4612 C   0  0  0  0  0  0  0  0  0  0  0  0
   27.9105  -20.0557   -7.5729 C   0  0  2  0  0  0  0  0  0  0  0  0
   26.3977  -19.9621   -7.6345 C   0  0  0  0  0  0  0  0  0  0  0  0
   25.7898  -20.6277   -6.4326 C   0  0  2  0  0  0  0  0  0  0  0  0
   25.8384  -20.4532   -8.9366 N   0  0  0  0  0  0  0  0  0  0  0  0
   26.4126  -19.9023  -10.1047 C   0  0  0  0  0  0  0  0  0  0  0  0
   24.3702  -20.2859   -8.8819 O   0  0  0  0  0  0  0  0  0  0  0  0
   23.8800  -19.1646   -9.0998 C   0  0  0  0  0  0  0  0  0  0  0  0
   20.2818  -20.8036  -12.1920 C   0  0  0  0  0  0  0  0  0  0  0  0
   20.4697  -20.8626  -10.7124 C   0  0  2  0  0  0  0  0  0  0  0  0
   21.8152  -21.1696  -10.1921 C   0  0  0  0  0  0  0  0  0  0  0  0
   22.4108  -22.3887  -10.9371 C   0  0  2  0  0  0  0  0  0  0  0  0
   22.0526  -21.2531   -8.7467 N   0  0  0  0  0  0  0  0  0  0  0  0
   23.5305  -21.3684   -8.5890 C   0  0  0  0  0  0  0  0  0  0  0  0
   21.4026  -22.2634   -7.9328 O   0  0  0  0  0  0  0  0  0  0  0  0
   20.2141  -22.2796   -7.5626 O   0  0  0  0  0  0  0  0  0  0  0  0
  2  4  1  0
  2  1  1  0
  3  2  2  0
  5  4  1  0
  6  5  1  0
  7  6  1  0
  8 10  1  0
  8  7  1  0
  8  9  1  6
 10 11  2  0
 13 12  1  0
 14 13  1  0
 14 16  1  0
 14 15  1  6
 16 18  1  0
 17 10  1  0
 16 17  1  6
 18 19  2  0
 20 21  1  0
 21 22  1  0
 22 24  1  0
 22 23  1  6
 24 26  1  0
 25 18  1  0
 24 25  1  1
 26 27  2  0
 26 28  1  0
M  END
$$$$
