RII.pdb
     RDKit          3D

 28 27  0  0  1  0  0  0  0  0999 V2000
   19.6017  -17.5238  -13.4852 N   0  0  0  0  0  0  0  0  0  0  0  0
   18.7406  -18.5564  -13.0313 C   0  0  0  0  0  0  0  0  0  0  0  0
   17.5777  -18.3407  -12.5535 N   0  0  0  0  0  0  0  0  0  0  0  0
   19.2349  -19.8893  -13.1312 N   0  0  0  0  0  0  0  0  0  0  0  0
   20.5888  -20.1485  -13.5340 C   0  0  0  0  0  0  0  0  0  0  0  0
   21.2005  -21.3209  -12.7651 C   0  0  0  0  0  0  0  0  0  0  0  0
   22.4701  -20.7947  -12.1426 C   0  0  0  0  0  0  0  0  0  0  0  0
   23.6967  -21.1718  -12.9761 C   0  0  2  0  0  0  0  0  0  0  0  0
   23.3546  -22.4443  -13.5973 N   0  0  0  0  0  0  0  0  0  0  0  0
   24.8360  -21.3590  -12.0480 C   0  0  0  0  0  0  0  0  0  0  0  0
   25.0347  -22.4769  -11.5420 O   0  0  0  0  0  0  0  0  0  0  0  0
   16.9329  -19.0762  -12.2211 C   0  0  0  0  0  0  0  0  0  0  0  0
   29.7232  -20.5035  -13.3618 C   0  0  0  0  0  0  0  0  0  0  0  0
   28.3946  -20.9013  -12.7590 C   0  0  2  0  0  0  0  0  0  0  0  0
   28.1860  -20.2905  -11.3863 C   0  0  0  0  0  0  0  0  0  0  0  0
   29.3094  -20.6844  -10.4697 C   0  0  2  0  0  0  0  0  0  0  0  0
   26.8261  -20.5788  -10.8232 N   0  0  0  0  0  0  0  0  0  0  0  0
   25.7339  -20.3370  -11.6871 C   0  0  0  0  0  0  0  0  0  0  0  0
   26.7146  -19.8577   -9.5371 O   0  0  0  0  0  0  0  0  0  0  0  0
   26.2070  -18.7232   -9.5211 C   0  0  0  0  0  0  0  0  0  0  0  0
   26.8573  -22.7062   -4.6788 C   0  0  0  0  0  0  0  0  0  0  0  0
   26.5327  -21.7429   -5.7718 C   0  0  2  0  0  0  0  0  0  0  0  0
   27.4626  -20.6240   -6.0141 C   0  0  0  0  0  0  0  0  0  0  0  0
   27.8172  -19.9254   -4.6790 C   0  0  2  0  0  0  0  0  0  0  0  0
   27.1929  -19.6492   -7.0769 N   0  0  0  0  0  0  0  0  0  0  0  0
   27.1714  -20.4335   -8.3444 C   0  0  0  0  0  0  0  0  0  0  0  0
   28.0272  -18.4751   -7.2528 O   0  0  0  0  0  0  0  0  0  0  0  0
   29.1845  -18.4374   -7.7099 O   0  0  0  0  0  0  0  0  0  0  0  0
  2  4  1  0
  2  1  1  0
  3  2  2  0
  5  4  1  0
  6  5  1  0
  7  6  1  0
  8 10  1  0
  8  7  1  0
  8  9  1  1
 10 11  2  0
 13 12  1  0
 14 13  1  0
 14 16  1  0
 14 15  1  1
 16 18  1  0
 17 10  1  0
 16 17  1  1
 18 19  2  0
 20 21  1  0
 21 22  1  0
 22 24  1  0
 22 23  1  6
 24 26  1  0
 25 18  1  0
 24 25  1  1
 26 27  2  0
 26 28  1  0
M  END
$$$$
