RII.pdb
     RDKit          3D

 28 27  0  0  1  0  0  0  0  0999 V2000
   20.5002  -21.8819  -15.7254 N   0  0  0  0  0  0  0  0  0  0  0  0
   19.8832  -20.7201  -15.1933 C   0  0  0  0  0  0  0  0  0  0  0  0
   18.6193  -20.5813  -15.0911 N   0  0  0  0  0  0  0  0  0  0  0  0
   20.7528  -19.6772  -14.7608 N   0  0  0  0  0  0  0  0  0  0  0  0
   22.0112  -19.9740  -14.1360 C   0  0  0  0  0  0  0  0  0  0  0  0
   21.8342  -20.4753  -12.7016 C   0  0  0  0  0  0  0  0  0  0  0  0
   22.6276  -21.7550  -12.6059 C   0  0  0  0  0  0  0  0  0  0  0  0
   24.0124  -21.6000  -13.2384 C   0  0  2  0  0  0  0  0  0  0  0  0
   24.0837  -22.6439  -14.2520 N   0  0  0  0  0  0  0  0  0  0  0  0
   25.0231  -21.8554  -12.1860 C   0  0  0  0  0  0  0  0  0  0  0  0
   25.1646  -23.0076  -11.7414 O   0  0  0  0  0  0  0  0  0  0  0  0
   18.1496  -19.7598  -14.6767 C   0  0  0  0  0  0  0  0  0  0  0  0
   30.7182  -21.3932  -10.7535 C   0  0  0  0  0  0  0  0  0  0  0  0
   29.3063  -21.5916  -10.2495 C   0  0  2  0  0  0  0  0  0  0  0  0
   28.2801  -20.9437  -11.1594 C   0  0  0  0  0  0  0  0  0  0  0  0
   28.6115  -19.4921  -11.3602 C   0  0  2  0  0  0  0  0  0  0  0  0
   26.8705  -21.1775  -10.7037 N   0  0  0  0  0  0  0  0  0  0  0  0
   25.8572  -20.8632  -11.6377 C   0  0  0  0  0  0  0  0  0  0  0  0
   26.6991  -20.4806   -9.4108 O   0  0  0  0  0  0  0  0  0  0  0  0
   25.8418  -19.5858   -9.3143 C   0  0  0  0  0  0  0  0  0  0  0  0
   28.7737  -21.4103   -3.6283 C   0  0  0  0  0  0  0  0  0  0  0  0
   27.9029  -20.6541   -4.5757 C   0  0  2  0  0  0  0  0  0  0  0  0
   28.0785  -20.8869   -6.0215 C   0  0  0  0  0  0  0  0  0  0  0  0
   29.5843  -20.9163   -6.3789 C   0  0  2  0  0  0  0  0  0  0  0  0
   27.3081  -20.1101   -6.9991 N   0  0  0  0  0  0  0  0  0  0  0  0
   27.4862  -20.8142   -8.3009 C   0  0  0  0  0  0  0  0  0  0  0  0
   27.5405  -18.6899   -7.1855 O   0  0  0  0  0  0  0  0  0  0  0  0
   27.0409  -17.7548   -6.5330 O   0  0  0  0  0  0  0  0  0  0  0  0
  2  4  1  0
  2  1  1  0
  3  2  2  0
  5  4  1  0
  6  5  1  0
  7  6  1  0
  8 10  1  0
  8  7  1  0
  8  9  1  6
 10 11  2  0
 13 12  1  0
 14 13  1  0
 14 16  1  0
 14 15  1  6
 16 18  1  0
 17 10  1  0
 16 17  1  1
 18 19  2  0
 20 21  1  0
 21 22  1  0
 22 24  1  0
 22 23  1  6
 24 26  1  0
 25 18  1  0
 24 25  1  6
 26 27  2  0
 26 28  1  0
M  END
$$$$
