RII.pdb
     RDKit          3D

 28 27  0  0  1  0  0  0  0  0999 V2000
   19.7042  -23.4504   -9.1156 N   0  0  0  0  0  0  0  0  0  0  0  0
   18.9833  -23.8440  -10.2728 C   0  0  0  0  0  0  0  0  0  0  0  0
   17.7867  -24.2845  -10.2378 N   0  0  0  0  0  0  0  0  0  0  0  0
   19.6639  -23.7259  -11.5193 N   0  0  0  0  0  0  0  0  0  0  0  0
   20.7954  -22.8537  -11.6651 C   0  0  0  0  0  0  0  0  0  0  0  0
   20.4074  -21.3819  -11.5121 C   0  0  0  0  0  0  0  0  0  0  0  0
   21.6360  -20.5863  -11.8780 C   0  0  0  0  0  0  0  0  0  0  0  0
   22.8728  -21.1000  -11.1377 C   0  0  2  0  0  0  0  0  0  0  0  0
   22.6458  -20.7576   -9.7400 N   0  0  0  0  0  0  0  0  0  0  0  0
   24.0486  -20.3582  -11.6493 C   0  0  0  0  0  0  0  0  0  0  0  0
   24.1465  -19.1392  -11.4263 O   0  0  0  0  0  0  0  0  0  0  0  0
   17.2901  -24.7020  -11.0417 C   0  0  0  0  0  0  0  0  0  0  0  0
   29.0519  -21.6679  -10.7144 C   0  0  0  0  0  0  0  0  0  0  0  0
   27.7370  -20.9867  -11.0208 C   0  0  2  0  0  0  0  0  0  0  0  0
   27.5509  -20.7497  -12.5075 C   0  0  0  0  0  0  0  0  0  0  0  0
   28.6858  -19.9249  -13.0449 C   0  0  2  0  0  0  0  0  0  0  0  0
   26.1981  -20.1950  -12.8419 N   0  0  0  0  0  0  0  0  0  0  0  0
   25.0907  -20.9477  -12.3892 C   0  0  0  0  0  0  0  0  0  0  0  0
   26.1676  -19.9437  -14.2988 O   0  0  0  0  0  0  0  0  0  0  0  0
   25.6260  -20.7767  -15.0457 C   0  0  0  0  0  0  0  0  0  0  0  0
   26.2984  -15.2093  -14.7387 C   0  0  0  0  0  0  0  0  0  0  0  0
   25.8068  -16.1437  -15.7937 C   0  0  2  0  0  0  0  0  0  0  0  0
   26.7810  -17.0476  -16.4336 C   0  0  0  0  0  0  0  0  0  0  0  0
   27.0130  -16.6275  -17.9052 C   0  0  2  0  0  0  0  0  0  0  0  0
   26.6424  -18.5024  -16.3043 N   0  0  0  0  0  0  0  0  0  0  0  0
   26.7383  -18.7862  -14.8440 C   0  0  0  0  0  0  0  0  0  0  0  0
   27.5129  -19.4102  -17.0281 O   0  0  0  0  0  0  0  0  0  0  0  0
   27.2443  -20.0395  -18.0681 O   0  0  0  0  0  0  0  0  0  0  0  0
  2  4  1  0
  2  1  1  0
  3  2  2  0
  5  4  1  0
  6  5  1  0
  7  6  1  0
  8 10  1  0
  8  7  1  0
  8  9  1  1
 10 11  2  0
 13 12  1  0
 14 13  1  0
 14 16  1  0
 14 15  1  6
 16 18  1  0
 17 10  1  0
 16 17  1  1
 18 19  2  0
 20 21  1  0
 21 22  1  0
 22 24  1  0
 22 23  1  1
 24 26  1  0
 25 18  1  0
 24 25  1  6
 26 27  2  0
 26 28  1  0
M  END
$$$$
