RII.pdb
     RDKit          3D

 28 27  0  0  1  0  0  0  0  0999 V2000
   28.1067  -28.1498  -17.6481 N   0  0  0  0  0  0  0  0  0  0  0  0
   28.2609  -27.6642  -18.9725 C   0  0  0  0  0  0  0  0  0  0  0  0
   29.0409  -28.1981  -19.8290 N   0  0  0  0  0  0  0  0  0  0  0  0
   27.4878  -26.5206  -19.3268 N   0  0  0  0  0  0  0  0  0  0  0  0
   26.8733  -25.7016  -18.3199 C   0  0  0  0  0  0  0  0  0  0  0  0
   27.2307  -26.1664  -16.9069 C   0  0  0  0  0  0  0  0  0  0  0  0
   27.2515  -24.9237  -16.0516 C   0  0  0  0  0  0  0  0  0  0  0  0
   27.5848  -23.6822  -16.8817 C   0  0  2  0  0  0  0  0  0  0  0  0
   29.0347  -23.5597  -16.8130 N   0  0  0  0  0  0  0  0  0  0  0  0
   26.9529  -22.5143  -16.2251 C   0  0  0  0  0  0  0  0  0  0  0  0
   27.6286  -21.8025  -15.4622 O   0  0  0  0  0  0  0  0  0  0  0  0
   29.1456  -27.8814  -20.8068 C   0  0  0  0  0  0  0  0  0  0  0  0
   23.1943  -17.8223  -16.9878 C   0  0  0  0  0  0  0  0  0  0  0  0
   23.8860  -18.7731  -16.0369 C   0  0  2  0  0  0  0  0  0  0  0  0
   24.3779  -20.0243  -16.7395 C   0  0  0  0  0  0  0  0  0  0  0  0
   23.2563  -20.6564  -17.5138 C   0  0  2  0  0  0  0  0  0  0  0  0
   25.0741  -20.9752  -15.8118 N   0  0  0  0  0  0  0  0  0  0  0  0
   25.6079  -22.1412  -16.4061 C   0  0  0  0  0  0  0  0  0  0  0  0
   24.1476  -21.2685  -14.6973 O   0  0  0  0  0  0  0  0  0  0  0  0
   23.2715  -22.1369  -14.8507 C   0  0  0  0  0  0  0  0  0  0  0  0
   26.1079  -21.2088   -9.6581 C   0  0  0  0  0  0  0  0  0  0  0  0
   25.3271  -21.4735  -10.9025 C   0  0  2  0  0  0  0  0  0  0  0  0
   24.0938  -20.6973  -11.1301 C   0  0  0  0  0  0  0  0  0  0  0  0
   23.1954  -20.7401   -9.8704 C   0  0  2  0  0  0  0  0  0  0  0  0
   23.3111  -20.8871  -12.3565 N   0  0  0  0  0  0  0  0  0  0  0  0
   24.2443  -20.5840  -13.4788 C   0  0  0  0  0  0  0  0  0  0  0  0
   22.0599  -20.1836  -12.5689 O   0  0  0  0  0  0  0  0  0  0  0  0
   21.9146  -19.0078  -12.9513 O   0  0  0  0  0  0  0  0  0  0  0  0
  2  4  1  0
  2  1  1  0
  3  2  2  0
  5  4  1  0
  6  5  1  0
  7  6  1  0
  8 10  1  0
  8  7  1  0
  8  9  1  1
 10 11  2  0
 13 12  1  0
 14 13  1  0
 14 16  1  0
 14 15  1  6
 16 18  1  0
 17 10  1  0
 16 17  1  1
 18 19  2  0
 20 21  1  0
 21 22  1  0
 22 24  1  0
 22 23  1  6
 24 26  1  0
 25 18  1  0
 24 25  1  6
 26 27  2  0
 26 28  1  0
M  END
$$$$
