FEG.pdb
     RDKit          3D

 25 25  0  0  1  0  0  0  0  0999 V2000
   23.1636  -10.8776  -17.0764 N   0  0  0  0  0  0  0  0  0  0  0  0
   23.4186   -9.6679  -16.3861 C   0  0  1  0  0  0  0  0  0  0  0  0
   24.8222   -9.1246  -16.6741 C   0  0  0  0  0  0  0  0  0  0  0  0
   25.8260  -10.1867  -16.4142 C   0  0  0  0  0  0  0  0  0  0  0  0
   26.1961  -10.4129  -15.1144 C   0  0  0  0  0  0  0  0  0  0  0  0
   27.1279  -11.3934  -14.8337 C   0  0  0  0  0  0  0  0  0  0  0  0
   27.6613  -12.1177  -15.8601 C   0  0  0  0  0  0  0  0  0  0  0  0
   27.2849  -11.8865  -17.1734 C   0  0  0  0  0  0  0  0  0  0  0  0
   26.3505  -10.9036  -17.4574 C   0  0  0  0  0  0  0  0  0  0  0  0
   22.4722   -8.5836  -16.6248 C   0  0  0  0  0  0  0  0  0  0  0  0
   21.7958   -8.6080  -17.6859 O   0  0  0  0  0  0  0  0  0  0  0  0
   22.2461   -7.4842  -15.7456 N   0  0  0  0  0  0  0  0  0  0  0  0
   21.2631   -6.4704  -15.9845 C   0  0  1  0  0  0  0  0  0  0  0  0
   20.0616   -6.7533  -15.1182 C   0  0  0  0  0  0  0  0  0  0  0  0
   18.9680   -5.7505  -15.4110 C   0  0  0  0  0  0  0  0  0  0  0  0
   17.7763   -5.9807  -14.5470 C   0  0  0  0  0  0  0  0  0  0  0  0
   16.8656   -5.1223  -14.4533 O   0  0  0  0  0  0  0  0  0  0  0  0
   21.7885   -5.0994  -15.7823 C   0  0  0  0  0  0  0  0  0  0  0  0
   21.0682   -4.0646  -15.8643 O   0  0  0  0  0  0  0  0  0  0  0  0
   17.6485   -7.1563  -13.8241 O   0  0  0  0  0  0  0  0  0  0  0  0
   23.1591   -4.8781  -15.4796 N   0  0  0  0  0  0  0  0  0  0  0  0
   23.6728   -3.5115  -15.3034 C   0  0  0  0  0  0  0  0  0  0  0  0
   23.9611   -2.9103  -16.6462 C   0  0  0  0  0  0  0  0  0  0  0  0
   24.5853   -1.6753  -16.7252 O   0  0  0  0  0  0  0  0  0  0  0  0
   23.6318   -3.5363  -17.6808 O   0  0  0  0  0  0  0  0  0  0  0  0
  2 10  1  0
  2  1  1  6
  3  4  1  0
  3  2  1  0
  4  9  2  0
  4  5  1  0
  5  6  2  0
  6  7  1  0
  8  7  2  0
  9  8  1  0
 10 11  2  0
 12 10  1  0
 12 13  1  0
 13 14  1  1
 14 15  1  0
 16 15  1  0
 16 17  2  0
 18 13  1  0
 18 21  1  0
 19 18  2  0
 20 16  1  0
 22 21  1  0
 23 22  1  0
 23 24  1  0
 25 23  2  0
M  END
$$$$
