FEG.pdb
     RDKit          3D

 25 25  0  0  1  0  0  0  0  0999 V2000
   25.2762  -21.1038   -7.3006 N   0  0  0  0  0  0  0  0  0  0  0  0
   26.0789  -20.4236   -8.2481 C   0  0  1  0  0  0  0  0  0  0  0  0
   27.5741  -20.6686   -8.0187 C   0  0  0  0  0  0  0  0  0  0  0  0
   27.9777  -20.0779   -6.7182 C   0  0  0  0  0  0  0  0  0  0  0  0
   28.5689  -20.9022   -5.7970 C   0  0  0  0  0  0  0  0  0  0  0  0
   28.9580  -20.3880   -4.5753 C   0  0  0  0  0  0  0  0  0  0  0  0
   28.7445  -19.0661   -4.3113 C   0  0  0  0  0  0  0  0  0  0  0  0
   28.1463  -18.2351   -5.2450 C   0  0  0  0  0  0  0  0  0  0  0  0
   27.7552  -18.7486   -6.4710 C   0  0  0  0  0  0  0  0  0  0  0  0
   25.7981  -20.7137   -9.6501 C   0  0  0  0  0  0  0  0  0  0  0  0
   25.6787  -21.9182   -9.9953 O   0  0  0  0  0  0  0  0  0  0  0  0
   25.6456  -19.7349  -10.6754 N   0  0  0  0  0  0  0  0  0  0  0  0
   25.4565  -20.0606  -12.0572 C   0  0  1  0  0  0  0  0  0  0  0  0
   24.6272  -18.9756  -12.6969 C   0  0  0  0  0  0  0  0  0  0  0  0
   23.7479  -19.5679  -13.7754 C   0  0  0  0  0  0  0  0  0  0  0  0
   22.5772  -20.2795  -13.1900 C   0  0  0  0  0  0  0  0  0  0  0  0
   21.7437  -19.6775  -12.4704 O   0  0  0  0  0  0  0  0  0  0  0  0
   26.7329  -20.2865  -12.7757 C   0  0  0  0  0  0  0  0  0  0  0  0
   27.8063  -19.6884  -12.4814 O   0  0  0  0  0  0  0  0  0  0  0  0
   22.3837  -21.6307  -13.4302 O   0  0  0  0  0  0  0  0  0  0  0  0
   26.8124  -21.2076  -13.8547 N   0  0  0  0  0  0  0  0  0  0  0  0
   28.0740  -21.3906  -14.5878 C   0  0  0  0  0  0  0  0  0  0  0  0
   27.9127  -22.4936  -15.5903 C   0  0  0  0  0  0  0  0  0  0  0  0
   28.9810  -22.8467  -16.3996 O   0  0  0  0  0  0  0  0  0  0  0  0
   26.8098  -23.0817  -15.6814 O   0  0  0  0  0  0  0  0  0  0  0  0
  2 10  1  0
  2  1  1  1
  3  4  1  0
  3  2  1  0
  4  9  2  0
  4  5  1  0
  5  6  2  0
  6  7  1  0
  8  7  2  0
  9  8  1  0
 10 11  2  0
 12 10  1  0
 12 13  1  0
 13 14  1  6
 14 15  1  0
 16 15  1  0
 16 17  2  0
 18 13  1  0
 18 21  1  0
 19 18  2  0
 20 16  1  0
 22 21  1  0
 23 22  1  0
 23 24  1  0
 25 23  2  0
M  END
$$$$
