FEG.pdb
     RDKit          3D

 25 25  0  0  1  0  0  0  0  0999 V2000
   25.0957  -20.1447  -17.8091 N   0  0  0  0  0  0  0  0  0  0  0  0
   23.9786  -19.3349  -17.4908 C   0  0  1  0  0  0  0  0  0  0  0  0
   23.2930  -18.7802  -18.7440 C   0  0  0  0  0  0  0  0  0  0  0  0
   24.1883  -17.7964  -19.4024 C   0  0  0  0  0  0  0  0  0  0  0  0
   24.8843  -18.2054  -20.5097 C   0  0  0  0  0  0  0  0  0  0  0  0
   25.7274  -17.3174  -21.1491 C   0  0  0  0  0  0  0  0  0  0  0  0
   25.8494  -16.0480  -20.6630 C   0  0  0  0  0  0  0  0  0  0  0  0
   25.1442  -15.6374  -19.5431 C   0  0  0  0  0  0  0  0  0  0  0  0
   24.2980  -16.5263  -18.9000 C   0  0  0  0  0  0  0  0  0  0  0  0
   22.9483  -19.9608  -16.6692 C   0  0  0  0  0  0  0  0  0  0  0  0
   22.5845  -21.1299  -16.9608 O   0  0  0  0  0  0  0  0  0  0  0  0
   22.3104  -19.3516  -15.5491 N   0  0  0  0  0  0  0  0  0  0  0  0
   21.2922  -19.9942  -14.7735 C   0  0  1  0  0  0  0  0  0  0  0  0
   21.3314  -19.4359  -13.3732 C   0  0  0  0  0  0  0  0  0  0  0  0
   20.3479  -20.1773  -12.4956 C   0  0  0  0  0  0  0  0  0  0  0  0
   20.2940  -19.5911  -11.1270 C   0  0  0  0  0  0  0  0  0  0  0  0
   21.0072  -18.6074  -10.8124 O   0  0  0  0  0  0  0  0  0  0  0  0
   19.9462  -19.8813  -15.3835 C   0  0  0  0  0  0  0  0  0  0  0  0
   19.5122  -18.8162  -15.9067 O   0  0  0  0  0  0  0  0  0  0  0  0
   19.4489  -20.1242  -10.1665 O   0  0  0  0  0  0  0  0  0  0  0  0
   19.0590  -20.9909  -15.4098 N   0  0  0  0  0  0  0  0  0  0  0  0
   17.7249  -20.8651  -16.0154 C   0  0  0  0  0  0  0  0  0  0  0  0
   16.7569  -20.3589  -14.9886 C   0  0  0  0  0  0  0  0  0  0  0  0
   15.6678  -21.1375  -14.6298 O   0  0  0  0  0  0  0  0  0  0  0  0
   16.9483  -19.2350  -14.4683 O   0  0  0  0  0  0  0  0  0  0  0  0
  2 10  1  0
  2  1  1  6
  3  4  1  0
  3  2  1  0
  4  9  2  0
  4  5  1  0
  5  6  2  0
  6  7  1  0
  8  7  2  0
  9  8  1  0
 10 11  2  0
 12 10  1  0
 12 13  1  0
 13 14  1  1
 14 15  1  0
 16 15  1  0
 16 17  2  0
 18 13  1  0
 18 21  1  0
 19 18  2  0
 20 16  1  0
 22 21  1  0
 23 22  1  0
 23 24  1  0
 25 23  2  0
M  END
$$$$
