FEG.pdb
     RDKit          3D

 25 25  0  0  1  0  0  0  0  0999 V2000
   25.5546  -18.9210  -16.5500 N   0  0  0  0  0  0  0  0  0  0  0  0
   24.4919  -18.2179  -15.9324 C   0  0  1  0  0  0  0  0  0  0  0  0
   24.2909  -16.8260  -16.5411 C   0  0  0  0  0  0  0  0  0  0  0  0
   25.4956  -15.9970  -16.2869 C   0  0  0  0  0  0  0  0  0  0  0  0
   26.3121  -15.7119  -17.3498 C   0  0  0  0  0  0  0  0  0  0  0  0
   27.4425  -14.9431  -17.1517 C   0  0  0  0  0  0  0  0  0  0  0  0
   27.7227  -14.4826  -15.8978 C   0  0  0  0  0  0  0  0  0  0  0  0
   26.8950  -14.7726  -14.8250 C   0  0  0  0  0  0  0  0  0  0  0  0
   25.7607  -15.5436  -15.0213 C   0  0  0  0  0  0  0  0  0  0  0  0
   23.1957  -18.8875  -15.9341 C   0  0  0  0  0  0  0  0  0  0  0  0
   22.8887  -19.5854  -16.9355 O   0  0  0  0  0  0  0  0  0  0  0  0
   22.2349  -18.8167  -14.8831 N   0  0  0  0  0  0  0  0  0  0  0  0
   20.9771  -19.5009  -14.9148 C   0  0  1  0  0  0  0  0  0  0  0  0
   20.8455  -20.3221  -13.6569 C   0  0  0  0  0  0  0  0  0  0  0  0
   19.6665  -21.2616  -13.7763 C   0  0  0  0  0  0  0  0  0  0  0  0
   19.5982  -22.1953  -12.6173 C   0  0  0  0  0  0  0  0  0  0  0  0
   20.4213  -22.1207  -11.6729 O   0  0  0  0  0  0  0  0  0  0  0  0
   19.8280  -18.5850  -15.1081 C   0  0  0  0  0  0  0  0  0  0  0  0
   19.7502  -17.4494  -14.5596 O   0  0  0  0  0  0  0  0  0  0  0  0
   18.6168  -23.1722  -12.5584 O   0  0  0  0  0  0  0  0  0  0  0  0
   18.7338  -18.9486  -15.9385 N   0  0  0  0  0  0  0  0  0  0  0  0
   18.9332  -19.1778  -17.3773 C   0  0  0  0  0  0  0  0  0  0  0  0
   18.7183  -17.8940  -18.1211 C   0  0  0  0  0  0  0  0  0  0  0  0
   19.3155  -16.7291  -17.6659 O   0  0  0  0  0  0  0  0  0  0  0  0
   17.9988  -17.8940  -19.1473 O   0  0  0  0  0  0  0  0  0  0  0  0
  2 10  1  0
  2  1  1  6
  3  4  1  0
  3  2  1  0
  4  9  2  0
  4  5  1  0
  5  6  2  0
  6  7  1  0
  8  7  2  0
  9  8  1  0
 10 11  2  0
 12 10  1  0
 12 13  1  0
 13 14  1  1
 14 15  1  0
 16 15  1  0
 16 17  2  0
 18 13  1  0
 18 21  1  0
 19 18  2  0
 20 16  1  0
 22 21  1  0
 23 22  1  0
 23 24  1  0
 25 23  2  0
M  END
$$$$
