FEG.pdb
     RDKit          3D

 25 25  0  0  1  0  0  0  0  0999 V2000
   19.7682   -8.9934  -20.2079 N   0  0  0  0  0  0  0  0  0  0  0  0
   20.7705   -8.6191  -19.2804 C   0  0  1  0  0  0  0  0  0  0  0  0
   21.7865   -7.6475  -19.8904 C   0  0  0  0  0  0  0  0  0  0  0  0
   22.4252   -8.2784  -21.0724 C   0  0  0  0  0  0  0  0  0  0  0  0
   23.3862   -9.2293  -20.8490 C   0  0  0  0  0  0  0  0  0  0  0  0
   24.0028   -9.8385  -21.9247 C   0  0  0  0  0  0  0  0  0  0  0  0
   23.6406   -9.4791  -23.1904 C   0  0  0  0  0  0  0  0  0  0  0  0
   22.6685   -8.5171  -23.4130 C   0  0  0  0  0  0  0  0  0  0  0  0
   22.0486   -7.9047  -22.3357 C   0  0  0  0  0  0  0  0  0  0  0  0
   20.2987   -8.0314  -18.0312 C   0  0  0  0  0  0  0  0  0  0  0  0
   19.5025   -7.0587  -18.0956 O   0  0  0  0  0  0  0  0  0  0  0  0
   20.6684   -8.4720  -16.7267 N   0  0  0  0  0  0  0  0  0  0  0  0
   20.1077   -7.9356  -15.5229 C   0  0  1  0  0  0  0  0  0  0  0  0
   19.6449   -9.0805  -14.6573 C   0  0  0  0  0  0  0  0  0  0  0  0
   18.3745   -9.6737  -15.2240 C   0  0  0  0  0  0  0  0  0  0  0  0
   17.8585  -10.7736  -14.3618 C   0  0  0  0  0  0  0  0  0  0  0  0
   18.3819  -11.9142  -14.3801 O   0  0  0  0  0  0  0  0  0  0  0  0
   21.0392   -7.0329  -14.8059 C   0  0  0  0  0  0  0  0  0  0  0  0
   22.1797   -7.3968  -14.4018 O   0  0  0  0  0  0  0  0  0  0  0  0
   16.7821  -10.5578  -13.5158 O   0  0  0  0  0  0  0  0  0  0  0  0
   20.6861   -5.6839  -14.5325 N   0  0  0  0  0  0  0  0  0  0  0  0
   21.6328   -4.7886  -13.8509 C   0  0  0  0  0  0  0  0  0  0  0  0
   21.0687   -3.4000  -13.8158 C   0  0  0  0  0  0  0  0  0  0  0  0
   21.7138   -2.4158  -13.0836 O   0  0  0  0  0  0  0  0  0  0  0  0
   20.0181   -3.1496  -14.4517 O   0  0  0  0  0  0  0  0  0  0  0  0
  2 10  1  0
  2  1  1  6
  3  4  1  0
  3  2  1  0
  4  9  2  0
  4  5  1  0
  5  6  2  0
  6  7  1  0
  8  7  2  0
  9  8  1  0
 10 11  2  0
 12 10  1  0
 12 13  1  0
 13 14  1  1
 14 15  1  0
 16 15  1  0
 16 17  2  0
 18 13  1  0
 18 21  1  0
 19 18  2  0
 20 16  1  0
 22 21  1  0
 23 22  1  0
 23 24  1  0
 25 23  2  0
M  END
$$$$
