FEG.pdb
     RDKit          3D

 25 25  0  0  1  0  0  0  0  0999 V2000
   26.0400  -10.0758  -18.5780 N   0  0  0  0  0  0  0  0  0  0  0  0
   25.4508   -9.7701  -17.3273 C   0  0  1  0  0  0  0  0  0  0  0  0
   26.5014   -9.4648  -16.2543 C   0  0  0  0  0  0  0  0  0  0  0  0
   27.3029  -10.6850  -15.9864 C   0  0  0  0  0  0  0  0  0  0  0  0
   28.5614  -10.7547  -16.5241 C   0  0  0  0  0  0  0  0  0  0  0  0
   29.3370  -11.8749  -16.2963 C   0  0  0  0  0  0  0  0  0  0  0  0
   28.8317  -12.8912  -15.5383 C   0  0  0  0  0  0  0  0  0  0  0  0
   27.5587  -12.8176  -14.9959 C   0  0  0  0  0  0  0  0  0  0  0  0
   26.7789  -11.6951  -15.2231 C   0  0  0  0  0  0  0  0  0  0  0  0
   24.4903   -8.6720  -17.3240 C   0  0  0  0  0  0  0  0  0  0  0  0
   24.7468   -7.6562  -18.0214 O   0  0  0  0  0  0  0  0  0  0  0  0
   23.2696   -8.6526  -16.5877 N   0  0  0  0  0  0  0  0  0  0  0  0
   22.3118   -7.5911  -16.6733 C   0  0  1  0  0  0  0  0  0  0  0  0
   20.9297   -8.1800  -16.5418 C   0  0  0  0  0  0  0  0  0  0  0  0
   20.7015   -9.2059  -17.6292 C   0  0  0  0  0  0  0  0  0  0  0  0
   20.5020  -10.5669  -17.0568 C   0  0  0  0  0  0  0  0  0  0  0  0
   20.8365  -11.5954  -17.6935 O   0  0  0  0  0  0  0  0  0  0  0  0
   22.5571   -6.5131  -15.6863 C   0  0  0  0  0  0  0  0  0  0  0  0
   22.8651   -6.7367  -14.4815 O   0  0  0  0  0  0  0  0  0  0  0  0
   19.9388  -10.7256  -15.8004 O   0  0  0  0  0  0  0  0  0  0  0  0
   22.4551   -5.1449  -16.0562 N   0  0  0  0  0  0  0  0  0  0  0  0
   22.8294   -4.0857  -15.1072 C   0  0  0  0  0  0  0  0  0  0  0  0
   21.6343   -3.7086  -14.2843 C   0  0  0  0  0  0  0  0  0  0  0  0
   20.7682   -4.6953  -13.8401 O   0  0  0  0  0  0  0  0  0  0  0  0
   21.4360   -2.5020  -14.0098 O   0  0  0  0  0  0  0  0  0  0  0  0
  2 10  1  0
  2  1  1  6
  3  4  1  0
  3  2  1  0
  4  9  2  0
  4  5  1  0
  5  6  2  0
  6  7  1  0
  8  7  2  0
  9  8  1  0
 10 11  2  0
 12 10  1  0
 12 13  1  0
 13 14  1  1
 14 15  1  0
 16 15  1  0
 16 17  2  0
 18 13  1  0
 18 21  1  0
 19 18  2  0
 20 16  1  0
 22 21  1  0
 23 22  1  0
 23 24  1  0
 25 23  2  0
M  END
$$$$
