FEG.pdb
     RDKit          3D

 25 25  0  0  1  0  0  0  0  0999 V2000
   27.6375  -22.5806  -10.7261 N   0  0  0  0  0  0  0  0  0  0  0  0
   26.8053  -21.4352  -10.7095 C   0  0  1  0  0  0  0  0  0  0  0  0
   27.6091  -20.1410  -10.5446 C   0  0  0  0  0  0  0  0  0  0  0  0
   27.9281  -19.9371   -9.1094 C   0  0  0  0  0  0  0  0  0  0  0  0
   26.9436  -19.4334   -8.3003 C   0  0  0  0  0  0  0  0  0  0  0  0
   27.2036  -19.2301   -6.9589 C   0  0  0  0  0  0  0  0  0  0  0  0
   28.4392  -19.5363   -6.4669 C   0  0  0  0  0  0  0  0  0  0  0  0
   29.4328  -20.0455   -7.2876 C   0  0  0  0  0  0  0  0  0  0  0  0
   29.1742  -20.2502   -8.6334 C   0  0  0  0  0  0  0  0  0  0  0  0
   25.9310  -21.2630  -11.8647 C   0  0  0  0  0  0  0  0  0  0  0  0
   26.3914  -21.5349  -13.0041 O   0  0  0  0  0  0  0  0  0  0  0  0
   24.5814  -20.8067  -11.8107 N   0  0  0  0  0  0  0  0  0  0  0  0
   23.7049  -20.7959  -12.9433 C   0  0  1  0  0  0  0  0  0  0  0  0
   22.2805  -20.8034  -12.4481 C   0  0  0  0  0  0  0  0  0  0  0  0
   21.3659  -20.2200  -13.5017 C   0  0  0  0  0  0  0  0  0  0  0  0
   19.9519  -20.1869  -13.0337 C   0  0  0  0  0  0  0  0  0  0  0  0
   19.6518  -20.4774  -11.8503 O   0  0  0  0  0  0  0  0  0  0  0  0
   23.9705  -19.6673  -13.8665 C   0  0  0  0  0  0  0  0  0  0  0  0
   24.2542  -18.5020  -13.4690 O   0  0  0  0  0  0  0  0  0  0  0  0
   18.9319  -19.8321  -13.9024 O   0  0  0  0  0  0  0  0  0  0  0  0
   23.9175  -19.8459  -15.2752 N   0  0  0  0  0  0  0  0  0  0  0  0
   24.5388  -18.8630  -16.1755 C   0  0  0  0  0  0  0  0  0  0  0  0
   24.4816  -19.3716  -17.5846 C   0  0  0  0  0  0  0  0  0  0  0  0
   23.6655  -18.7396  -18.5096 O   0  0  0  0  0  0  0  0  0  0  0  0
   25.1755  -20.3647  -17.9057 O   0  0  0  0  0  0  0  0  0  0  0  0
  2 10  1  0
  2  1  1  6
  3  4  1  0
  3  2  1  0
  4  9  2  0
  4  5  1  0
  5  6  2  0
  6  7  1  0
  8  7  2  0
  9  8  1  0
 10 11  2  0
 12 10  1  0
 12 13  1  0
 13 14  1  1
 14 15  1  0
 16 15  1  0
 16 17  2  0
 18 13  1  0
 18 21  1  0
 19 18  2  0
 20 16  1  0
 22 21  1  0
 23 22  1  0
 23 24  1  0
 25 23  2  0
M  END
$$$$
