FEG.pdb
     RDKit          3D

 25 25  0  0  1  0  0  0  0  0999 V2000
   24.6706  -32.2454   -6.4728 N   0  0  0  0  0  0  0  0  0  0  0  0
   25.5686  -33.3183   -6.2547 C   0  0  1  0  0  0  0  0  0  0  0  0
   26.8079  -33.2240   -7.1510 C   0  0  0  0  0  0  0  0  0  0  0  0
   26.4273  -33.5258   -8.5535 C   0  0  0  0  0  0  0  0  0  0  0  0
   26.3865  -32.4848   -9.4436 C   0  0  0  0  0  0  0  0  0  0  0  0
   26.0365  -32.7271  -10.7577 C   0  0  0  0  0  0  0  0  0  0  0  0
   25.7379  -34.0021  -11.1425 C   0  0  0  0  0  0  0  0  0  0  0  0
   25.7801  -35.0527  -10.2400 C   0  0  0  0  0  0  0  0  0  0  0  0
   26.1309  -34.8120   -8.9214 C   0  0  0  0  0  0  0  0  0  0  0  0
   26.0331  -33.4947   -4.8830 C   0  0  0  0  0  0  0  0  0  0  0  0
   26.3500  -32.4688   -4.2263 O   0  0  0  0  0  0  0  0  0  0  0  0
   26.1599  -34.7479   -4.2150 N   0  0  0  0  0  0  0  0  0  0  0  0
   26.6719  -34.8861   -2.8846 C   0  0  1  0  0  0  0  0  0  0  0  0
   25.7191  -35.7437   -2.0903 C   0  0  0  0  0  0  0  0  0  0  0  0
   24.3964  -35.0289   -1.9275 C   0  0  0  0  0  0  0  0  0  0  0  0
   24.4352  -34.0705   -0.7875 C   0  0  0  0  0  0  0  0  0  0  0  0
   25.4995  -33.8488   -0.1604 O   0  0  0  0  0  0  0  0  0  0  0  0
   28.0574  -35.4114   -2.8523 C   0  0  0  0  0  0  0  0  0  0  0  0
   28.4782  -36.2990   -3.6470 O   0  0  0  0  0  0  0  0  0  0  0  0
   23.2882  -33.3996   -0.3937 O   0  0  0  0  0  0  0  0  0  0  0  0
   29.0005  -34.9309   -1.9042 N   0  0  0  0  0  0  0  0  0  0  0  0
   30.3730  -35.4585   -1.8841 C   0  0  0  0  0  0  0  0  0  0  0  0
   30.4602  -36.5833   -0.8967 C   0  0  0  0  0  0  0  0  0  0  0  0
   31.5360  -36.6491   -0.0252 O   0  0  0  0  0  0  0  0  0  0  0  0
   29.5554  -37.4502   -0.8745 O   0  0  0  0  0  0  0  0  0  0  0  0
  2 10  1  0
  2  1  1  1
  3  4  1  0
  3  2  1  0
  4  9  2  0
  4  5  1  0
  5  6  2  0
  6  7  1  0
  8  7  2  0
  9  8  1  0
 10 11  2  0
 12 10  1  0
 12 13  1  0
 13 14  1  1
 14 15  1  0
 16 15  1  0
 16 17  2  0
 18 13  1  0
 18 21  1  0
 19 18  2  0
 20 16  1  0
 22 21  1  0
 23 22  1  0
 23 24  1  0
 25 23  2  0
M  END
$$$$
