FEG.pdb
     RDKit          3D

 25 25  0  0  1  0  0  0  0  0999 V2000
   27.2533  -20.0779  -14.2541 N   0  0  0  0  0  0  0  0  0  0  0  0
   26.3474  -20.5469  -13.2721 C   0  0  1  0  0  0  0  0  0  0  0  0
   26.6956  -20.0292  -11.8724 C   0  0  0  0  0  0  0  0  0  0  0  0
   28.0344  -20.5341  -11.4778 C   0  0  0  0  0  0  0  0  0  0  0  0
   28.0899  -21.6667  -10.7085 C   0  0  0  0  0  0  0  0  0  0  0  0
   29.3183  -22.1664  -10.3218 C   0  0  0  0  0  0  0  0  0  0  0  0
   30.4537  -21.5194  -10.7154 C   0  0  0  0  0  0  0  0  0  0  0  0
   30.3942  -20.3743  -11.4934 C   0  0  0  0  0  0  0  0  0  0  0  0
   29.1632  -19.8712  -11.8825 C   0  0  0  0  0  0  0  0  0  0  0  0
   24.9383  -20.2530  -13.5092 C   0  0  0  0  0  0  0  0  0  0  0  0
   24.5674  -19.0508  -13.4708 O   0  0  0  0  0  0  0  0  0  0  0  0
   23.9328  -21.2256  -13.7845 N   0  0  0  0  0  0  0  0  0  0  0  0
   22.5546  -20.8991  -13.9971 C   0  0  1  0  0  0  0  0  0  0  0  0
   22.2597  -20.9992  -15.4727 C   0  0  0  0  0  0  0  0  0  0  0  0
   20.8475  -20.5336  -15.7483 C   0  0  0  0  0  0  0  0  0  0  0  0
   20.5152  -20.6392  -17.1968 C   0  0  0  0  0  0  0  0  0  0  0  0
   21.2225  -20.0784  -18.0687 O   0  0  0  0  0  0  0  0  0  0  0  0
   21.6341  -21.7294  -13.1849 C   0  0  0  0  0  0  0  0  0  0  0  0
   21.8092  -22.9655  -12.9898 O   0  0  0  0  0  0  0  0  0  0  0  0
   19.4100  -21.3642  -17.6135 O   0  0  0  0  0  0  0  0  0  0  0  0
   20.4841  -21.1621  -12.5726 N   0  0  0  0  0  0  0  0  0  0  0  0
   19.5760  -21.9978  -11.7728 C   0  0  0  0  0  0  0  0  0  0  0  0
   18.6501  -22.7432  -12.6862 C   0  0  0  0  0  0  0  0  0  0  0  0
   17.7020  -23.6010  -12.1511 O   0  0  0  0  0  0  0  0  0  0  0  0
   18.7479  -22.5786  -13.9248 O   0  0  0  0  0  0  0  0  0  0  0  0
  2 10  1  0
  2  1  1  6
  3  4  1  0
  3  2  1  0
  4  9  2  0
  4  5  1  0
  5  6  2  0
  6  7  1  0
  8  7  2  0
  9  8  1  0
 10 11  2  0
 12 10  1  0
 12 13  1  0
 13 14  1  6
 14 15  1  0
 16 15  1  0
 16 17  2  0
 18 13  1  0
 18 21  1  0
 19 18  2  0
 20 16  1  0
 22 21  1  0
 23 22  1  0
 23 24  1  0
 25 23  2  0
M  END
$$$$
