YEA.pdb
     RDKit          3D

 27 27  0  0  1  0  0  0  0  0999 V2000
    5.6394   -9.9985   26.1478 O   0  0  0  0  0  0  0  0  0  0  0  0
    6.1819  -11.2706   26.1029 C   0  0  0  0  0  0  0  0  0  0  0  0
    5.7204  -12.2966   26.9011 C   0  0  0  0  0  0  0  0  0  0  0  0
    6.3200  -13.5180   26.7848 C   0  0  0  0  0  0  0  0  0  0  0  0
    7.3589  -13.7791   25.9145 C   0  0  0  0  0  0  0  0  0  0  0  0
    7.9535  -15.1302   25.8556 C   0  0  0  0  0  0  0  0  0  0  0  0
    7.4759  -15.9287   24.6625 C   0  0  2  0  0  0  0  0  0  0  0  0
    6.1865  -16.5218   25.0595 N   0  0  0  0  0  0  0  0  0  0  0  0
    8.4030  -17.0161   24.2817 C   0  0  0  0  0  0  0  0  0  0  0  0
    8.3507  -18.0997   24.9165 O   0  0  0  0  0  0  0  0  0  0  0  0
    7.7983  -12.7469   25.1348 C   0  0  0  0  0  0  0  0  0  0  0  0
    7.2181  -11.4973   25.2228 C   0  0  0  0  0  0  0  0  0  0  0  0
    9.3480  -16.8605   23.2167 N   0  0  0  0  0  0  0  0  0  0  0  0
   10.3872  -17.8622   22.9943 C   0  0  1  0  0  0  0  0  0  0  0  0
   11.3358  -17.4038   21.9289 C   0  0  0  0  0  0  0  0  0  0  0  0
   12.4330  -18.3505   21.5969 C   0  0  0  0  0  0  0  0  0  0  0  0
   13.2721  -17.9515   20.4632 C   0  0  0  0  0  0  0  0  0  0  0  0
   12.9550  -18.2402   19.2872 O   0  0  0  0  0  0  0  0  0  0  0  0
   11.2074  -17.9852   24.2530 C   0  0  0  0  0  0  0  0  0  0  0  0
   11.7878  -16.9519   24.6643 O   0  0  0  0  0  0  0  0  0  0  0  0
   14.4525  -17.2392   20.6252 O   0  0  0  0  0  0  0  0  0  0  0  0
   11.3495  -20.2040   27.1457 C   0  0  0  0  0  0  0  0  0  0  0  0
   12.1414  -19.3316   26.1687 C   0  0  2  0  0  0  0  0  0  0  0  0
   11.3516  -19.1804   24.9764 N   0  0  0  0  0  0  0  0  0  0  0  0
   13.4458  -19.9665   25.9067 C   0  0  0  0  0  0  0  0  0  0  0  0
   14.4516  -20.0024   26.8524 O   0  0  0  0  0  0  0  0  0  0  0  0
   13.6572  -20.4940   24.7902 O   0  0  0  0  0  0  0  0  0  0  0  0
  2  3  2  0
  2  1  1  0
  4  3  1  0
  5  4  2  0
  6  5  1  0
  7  9  1  0
  7  6  1  0
  7  8  1  1
  9 10  2  0
 11  5  1  0
 11 12  2  0
 12  2  1  0
 13  9  1  0
 13 14  1  0
 14 15  1  6
 15 16  1  0
 17 18  2  0
 17 16  1  0
 19 24  1  0
 19 14  1  0
 20 19  2  0
 21 17  1  0
 23 22  1  1
 23 24  1  0
 25 23  1  0
 25 26  1  0
 27 25  2  0
M  END
$$$$
