YEA.pdb
     RDKit          3D

 27 27  0  0  1  0  0  0  0  0999 V2000
    7.1487  -11.4790   18.4352 O   0  0  0  0  0  0  0  0  0  0  0  0
    7.7438  -12.4520   19.2186 C   0  0  0  0  0  0  0  0  0  0  0  0
    9.1136  -12.5783   19.3219 C   0  0  0  0  0  0  0  0  0  0  0  0
    9.6070  -13.5701   20.1204 C   0  0  0  0  0  0  0  0  0  0  0  0
    8.8111  -14.4492   20.8267 C   0  0  0  0  0  0  0  0  0  0  0  0
    9.4287  -15.4971   21.6650 C   0  0  0  0  0  0  0  0  0  0  0  0
    9.9736  -16.6514   20.8527 C   0  0  2  0  0  0  0  0  0  0  0  0
    8.7988  -17.3676   20.3245 N   0  0  0  0  0  0  0  0  0  0  0  0
   10.7854  -17.5934   21.6529 C   0  0  0  0  0  0  0  0  0  0  0  0
   10.1964  -18.5043   22.2881 O   0  0  0  0  0  0  0  0  0  0  0  0
    7.4578  -14.3039   20.7080 C   0  0  0  0  0  0  0  0  0  0  0  0
    6.9200  -13.3135   19.9107 C   0  0  0  0  0  0  0  0  0  0  0  0
   12.2124  -17.4897   21.7175 N   0  0  0  0  0  0  0  0  0  0  0  0
   13.0017  -18.5176   22.3906 C   0  0  1  0  0  0  0  0  0  0  0  0
   14.4528  -18.3715   22.0469 C   0  0  0  0  0  0  0  0  0  0  0  0
   15.3470  -19.4353   22.5750 C   0  0  0  0  0  0  0  0  0  0  0  0
   16.7661  -19.2689   22.2479 C   0  0  0  0  0  0  0  0  0  0  0  0
   17.5727  -18.7939   23.0789 O   0  0  0  0  0  0  0  0  0  0  0  0
   12.9048  -18.2945   23.8783 C   0  0  0  0  0  0  0  0  0  0  0  0
   13.3996  -17.2358   24.3343 O   0  0  0  0  0  0  0  0  0  0  0  0
   17.2920  -19.6239   21.0132 O   0  0  0  0  0  0  0  0  0  0  0  0
   10.9200  -19.6551   26.6747 C   0  0  0  0  0  0  0  0  0  0  0  0
   12.2345  -19.0368   26.1923 C   0  0  2  0  0  0  0  0  0  0  0  0
   12.2977  -19.1991   24.7648 N   0  0  0  0  0  0  0  0  0  0  0  0
   13.3572  -19.6928   26.8868 C   0  0  0  0  0  0  0  0  0  0  0  0
   14.2668  -20.4938   26.2249 O   0  0  0  0  0  0  0  0  0  0  0  0
   13.4980  -19.5228   28.1201 O   0  0  0  0  0  0  0  0  0  0  0  0
  2  3  2  0
  2  1  1  0
  4  3  1  0
  5  4  2  0
  6  5  1  0
  7  9  1  0
  7  6  1  0
  7  8  1  1
  9 10  2  0
 11  5  1  0
 11 12  2  0
 12  2  1  0
 13  9  1  0
 13 14  1  0
 14 15  1  6
 15 16  1  0
 17 18  2  0
 17 16  1  0
 19 24  1  0
 19 14  1  0
 20 19  2  0
 21 17  1  0
 23 22  1  1
 23 24  1  0
 25 23  1  0
 25 26  1  0
 27 25  2  0
M  END
$$$$
