YEA.pdb
     RDKit          3D

 27 27  0  0  1  0  0  0  0  0999 V2000
    5.5845  -10.4769   26.4558 O   0  0  0  0  0  0  0  0  0  0  0  0
    6.2110  -11.6718   26.1485 C   0  0  0  0  0  0  0  0  0  0  0  0
    7.2042  -11.7588   25.1952 C   0  0  0  0  0  0  0  0  0  0  0  0
    7.7630  -12.9828   24.9620 C   0  0  0  0  0  0  0  0  0  0  0  0
    7.3882  -14.1327   25.6271 C   0  0  0  0  0  0  0  0  0  0  0  0
    8.0430  -15.4183   25.3095 C   0  0  0  0  0  0  0  0  0  0  0  0
    7.2746  -16.2309   24.2903 C   0  0  2  0  0  0  0  0  0  0  0  0
    6.1949  -16.9023   25.0356 N   0  0  0  0  0  0  0  0  0  0  0  0
    8.1022  -17.2582   23.6221 C   0  0  0  0  0  0  0  0  0  0  0  0
    8.1173  -18.4209   24.0994 O   0  0  0  0  0  0  0  0  0  0  0  0
    6.4025  -14.0209   26.5665 C   0  0  0  0  0  0  0  0  0  0  0  0
    5.8128  -12.8011   26.8312 C   0  0  0  0  0  0  0  0  0  0  0  0
    8.8775  -16.9579   22.4559 N   0  0  0  0  0  0  0  0  0  0  0  0
    9.6690  -17.9971   21.8030 C   0  0  1  0  0  0  0  0  0  0  0  0
   10.1874  -17.5088   20.4846 C   0  0  0  0  0  0  0  0  0  0  0  0
   10.9891  -18.4905   19.7076 C   0  0  0  0  0  0  0  0  0  0  0  0
   11.0331  -18.2473   18.2628 C   0  0  0  0  0  0  0  0  0  0  0  0
   11.8519  -17.4423   17.7643 O   0  0  0  0  0  0  0  0  0  0  0  0
   10.8857  -18.2717   22.6495 C   0  0  0  0  0  0  0  0  0  0  0  0
   11.6664  -19.1726   22.2589 O   0  0  0  0  0  0  0  0  0  0  0  0
   10.1804  -18.8874   17.3739 O   0  0  0  0  0  0  0  0  0  0  0  0
   13.1822  -16.6581   24.7887 C   0  0  0  0  0  0  0  0  0  0  0  0
   12.2760  -17.8896   24.7172 C   0  0  2  0  0  0  0  0  0  0  0  0
   11.1836  -17.5797   23.8348 N   0  0  0  0  0  0  0  0  0  0  0  0
   11.8246  -18.2332   26.0779 C   0  0  0  0  0  0  0  0  0  0  0  0
   12.7010  -18.6382   27.0653 O   0  0  0  0  0  0  0  0  0  0  0  0
   10.6053  -18.1578   26.3561 O   0  0  0  0  0  0  0  0  0  0  0  0
  2  3  2  0
  2  1  1  0
  4  3  1  0
  5  4  2  0
  6  5  1  0
  7  9  1  0
  7  6  1  0
  7  8  1  1
  9 10  2  0
 11  5  1  0
 11 12  2  0
 12  2  1  0
 13  9  1  0
 13 14  1  0
 14 15  1  6
 15 16  1  0
 17 18  2  0
 17 16  1  0
 19 24  1  0
 19 14  1  0
 20 19  2  0
 21 17  1  0
 23 22  1  1
 23 24  1  0
 25 23  1  0
 25 26  1  0
 27 25  2  0
M  END
$$$$
