YEA.pdb
     RDKit          3D

 27 27  0  0  1  0  0  0  0  0999 V2000
    7.3020  -11.6324   27.6658 O   0  0  0  0  0  0  0  0  0  0  0  0
    7.1523  -12.5230   26.6174 C   0  0  0  0  0  0  0  0  0  0  0  0
    6.1231  -13.4404   26.5718 C   0  0  0  0  0  0  0  0  0  0  0  0
    6.0588  -14.2780   25.4952 C   0  0  0  0  0  0  0  0  0  0  0  0
    6.9653  -14.2554   24.4546 C   0  0  0  0  0  0  0  0  0  0  0  0
    6.8238  -15.2014   23.3289 C   0  0  0  0  0  0  0  0  0  0  0  0
    7.1161  -16.6320   23.7258 C   0  0  2  0  0  0  0  0  0  0  0  0
    6.0631  -17.0115   24.6844 N   0  0  0  0  0  0  0  0  0  0  0  0
    8.4340  -16.7973   24.3759 C   0  0  0  0  0  0  0  0  0  0  0  0
    8.4687  -17.1515   25.5815 O   0  0  0  0  0  0  0  0  0  0  0  0
    7.9755  -13.3381   24.5228 C   0  0  0  0  0  0  0  0  0  0  0  0
    8.0749  -12.4738   25.5946 C   0  0  0  0  0  0  0  0  0  0  0  0
    9.6568  -16.5646   23.6675 N   0  0  0  0  0  0  0  0  0  0  0  0
   10.9453  -16.7829   24.3193 C   0  0  1  0  0  0  0  0  0  0  0  0
   12.0658  -16.3692   23.4144 C   0  0  0  0  0  0  0  0  0  0  0  0
   13.4347  -16.5483   23.9660 C   0  0  0  0  0  0  0  0  0  0  0  0
   14.5216  -16.1751   23.0563 C   0  0  0  0  0  0  0  0  0  0  0  0
   15.2258  -15.1618   23.2669 O   0  0  0  0  0  0  0  0  0  0  0  0
   11.0300  -15.8783   25.5221 C   0  0  0  0  0  0  0  0  0  0  0  0
   11.0945  -14.6437   25.3096 O   0  0  0  0  0  0  0  0  0  0  0  0
   14.8300  -16.9140   21.9223 O   0  0  0  0  0  0  0  0  0  0  0  0
    9.8951  -14.5497   27.9570 C   0  0  0  0  0  0  0  0  0  0  0  0
   11.0918  -15.5024   28.0141 C   0  0  2  0  0  0  0  0  0  0  0  0
   11.0399  -16.3422   26.8478 N   0  0  0  0  0  0  0  0  0  0  0  0
   11.0327  -16.2729   29.2694 C   0  0  0  0  0  0  0  0  0  0  0  0
   10.9429  -17.6508   29.2853 O   0  0  0  0  0  0  0  0  0  0  0  0
   11.0645  -15.6641   30.3640 O   0  0  0  0  0  0  0  0  0  0  0  0
  2  3  2  0
  2  1  1  0
  4  3  1  0
  5  4  2  0
  6  5  1  0
  7  9  1  0
  7  6  1  0
  7  8  1  1
  9 10  2  0
 11  5  1  0
 11 12  2  0
 12  2  1  0
 13  9  1  0
 13 14  1  0
 14 15  1  6
 15 16  1  0
 17 18  2  0
 17 16  1  0
 19 24  1  0
 19 14  1  0
 20 19  2  0
 21 17  1  0
 23 22  1  6
 23 24  1  0
 25 23  1  0
 25 26  1  0
 27 25  2  0
M  END
$$$$
