YEA.pdb
     RDKit          3D

 27 27  0  0  1  0  0  0  0  0999 V2000
    7.2246  -11.3708   17.7977 O   0  0  0  0  0  0  0  0  0  0  0  0
    7.4874  -12.3371   18.7526 C   0  0  0  0  0  0  0  0  0  0  0  0
    8.7722  -12.6803   19.1189 C   0  0  0  0  0  0  0  0  0  0  0  0
    8.9305  -13.6462   20.0711 C   0  0  0  0  0  0  0  0  0  0  0  0
    7.8773  -14.2945   20.6840 C   0  0  0  0  0  0  0  0  0  0  0  0
    8.1385  -15.3318   21.7029 C   0  0  0  0  0  0  0  0  0  0  0  0
    8.5930  -16.6432   21.1003 C   0  0  2  0  0  0  0  0  0  0  0  0
    7.3932  -17.2523   20.4993 N   0  0  0  0  0  0  0  0  0  0  0  0
    9.1527  -17.5791   22.0991 C   0  0  0  0  0  0  0  0  0  0  0  0
    8.3579  -18.2448   22.8099 O   0  0  0  0  0  0  0  0  0  0  0  0
    6.6145  -13.9371   20.3042 C   0  0  0  0  0  0  0  0  0  0  0  0
    6.4128  -12.9651   19.3450 C   0  0  0  0  0  0  0  0  0  0  0  0
   10.5655  -17.7399   22.2706 N   0  0  0  0  0  0  0  0  0  0  0  0
   11.0923  -18.7560   23.1775 C   0  0  1  0  0  0  0  0  0  0  0  0
   12.5192  -19.0670   22.8423 C   0  0  0  0  0  0  0  0  0  0  0  0
   13.1348  -20.1726   23.6227 C   0  0  0  0  0  0  0  0  0  0  0  0
   14.5116  -20.5044   23.2447 C   0  0  0  0  0  0  0  0  0  0  0  0
   15.4729  -19.7830   23.5944 O   0  0  0  0  0  0  0  0  0  0  0  0
   11.1103  -18.1859   24.5729 C   0  0  0  0  0  0  0  0  0  0  0  0
   11.7488  -17.1208   24.7506 O   0  0  0  0  0  0  0  0  0  0  0  0
   14.8260  -21.6238   22.4864 O   0  0  0  0  0  0  0  0  0  0  0  0
    9.0803  -18.3724   27.5874 C   0  0  0  0  0  0  0  0  0  0  0  0
   10.4977  -18.2847   27.0162 C   0  0  2  0  0  0  0  0  0  0  0  0
   10.4579  -18.7788   25.6662 N   0  0  0  0  0  0  0  0  0  0  0  0
   11.4107  -19.0596   27.8759 C   0  0  0  0  0  0  0  0  0  0  0  0
   11.7984  -18.6188   29.1259 O   0  0  0  0  0  0  0  0  0  0  0  0
   11.8546  -20.1570   27.4657 O   0  0  0  0  0  0  0  0  0  0  0  0
  2  3  2  0
  2  1  1  0
  4  3  1  0
  5  4  2  0
  6  5  1  0
  7  9  1  0
  7  6  1  0
  7  8  1  1
  9 10  2  0
 11  5  1  0
 11 12  2  0
 12  2  1  0
 13  9  1  0
 13 14  1  0
 14 15  1  6
 15 16  1  0
 17 18  2  0
 17 16  1  0
 19 24  1  0
 19 14  1  0
 20 19  2  0
 21 17  1  0
 23 22  1  1
 23 24  1  0
 25 23  1  0
 25 26  1  0
 27 25  2  0
M  END
$$$$
