YEA.pdb
     RDKit          3D

 27 27  0  0  1  0  0  0  0  0999 V2000
    8.4377  -12.1940   28.1158 O   0  0  0  0  0  0  0  0  0  0  0  0
    8.0005  -12.7935   26.9479 C   0  0  0  0  0  0  0  0  0  0  0  0
    8.8689  -13.1769   25.9471 C   0  0  0  0  0  0  0  0  0  0  0  0
    8.3422  -13.7614   24.8310 C   0  0  0  0  0  0  0  0  0  0  0  0
    6.9924  -13.9879   24.6520 C   0  0  0  0  0  0  0  0  0  0  0  0
    6.5067  -14.6231   23.4099 C   0  0  0  0  0  0  0  0  0  0  0  0
    6.5822  -16.1336   23.4563 C   0  0  2  0  0  0  0  0  0  0  0  0
    5.8835  -16.5382   24.6891 N   0  0  0  0  0  0  0  0  0  0  0  0
    7.9688  -16.6453   23.5048 C   0  0  0  0  0  0  0  0  0  0  0  0
    8.3418  -17.2728   24.5281 O   0  0  0  0  0  0  0  0  0  0  0  0
    6.1527  -13.5993   25.6572 C   0  0  0  0  0  0  0  0  0  0  0  0
    6.6464  -13.0051   26.8013 C   0  0  0  0  0  0  0  0  0  0  0  0
    8.8839  -16.4424   22.4219 N   0  0  0  0  0  0  0  0  0  0  0  0
   10.0864  -17.2624   22.3028 C   0  0  1  0  0  0  0  0  0  0  0  0
   10.7398  -17.0422   20.9724 C   0  0  0  0  0  0  0  0  0  0  0  0
   11.9235  -17.8964   20.6903 C   0  0  0  0  0  0  0  0  0  0  0  0
   12.5251  -17.7021   19.3679 C   0  0  0  0  0  0  0  0  0  0  0  0
   11.8190  -17.4674   18.3613 O   0  0  0  0  0  0  0  0  0  0  0  0
   11.0830  -16.7992   23.3345 C   0  0  0  0  0  0  0  0  0  0  0  0
   11.4169  -15.5903   23.3093 O   0  0  0  0  0  0  0  0  0  0  0  0
   13.8956  -17.7662   19.1570 O   0  0  0  0  0  0  0  0  0  0  0  0
   12.5054  -18.1705   26.4835 C   0  0  0  0  0  0  0  0  0  0  0  0
   12.6292  -17.2369   25.2769 C   0  0  2  0  0  0  0  0  0  0  0  0
   11.6471  -17.6410   24.3072 N   0  0  0  0  0  0  0  0  0  0  0  0
   14.0051  -17.3093   24.7528 C   0  0  0  0  0  0  0  0  0  0  0  0
   14.2994  -17.8794   23.5300 O   0  0  0  0  0  0  0  0  0  0  0  0
   14.9457  -16.8395   25.4343 O   0  0  0  0  0  0  0  0  0  0  0  0
  2  3  2  0
  2  1  1  0
  4  3  1  0
  5  4  2  0
  6  5  1  0
  7  9  1  0
  7  6  1  0
  7  8  1  1
  9 10  2  0
 11  5  1  0
 11 12  2  0
 12  2  1  0
 13  9  1  0
 13 14  1  0
 14 15  1  6
 15 16  1  0
 17 18  2  0
 17 16  1  0
 19 24  1  0
 19 14  1  0
 20 19  2  0
 21 17  1  0
 23 22  1  1
 23 24  1  0
 25 23  1  0
 25 26  1  0
 27 25  2  0
M  END
$$$$
