YEA.pdb
     RDKit          3D

 27 27  0  0  1  0  0  0  0  0999 V2000
    8.7065  -13.4438   17.3780 O   0  0  0  0  0  0  0  0  0  0  0  0
    8.1845  -13.7689   18.6176 C   0  0  0  0  0  0  0  0  0  0  0  0
    7.9723  -12.8226   19.5985 C   0  0  0  0  0  0  0  0  0  0  0  0
    7.4527  -13.2406   20.7902 C   0  0  0  0  0  0  0  0  0  0  0  0
    7.1300  -14.5543   21.0640 C   0  0  0  0  0  0  0  0  0  0  0  0
    6.5755  -14.9209   22.3833 C   0  0  0  0  0  0  0  0  0  0  0  0
    7.4654  -14.4965   23.5310 C   0  0  2  0  0  0  0  0  0  0  0  0
    8.3766  -13.4758   22.9835 N   0  0  0  0  0  0  0  0  0  0  0  0
    8.2710  -15.6067   24.0835 C   0  0  0  0  0  0  0  0  0  0  0  0
    7.6828  -16.5152   24.7228 O   0  0  0  0  0  0  0  0  0  0  0  0
    7.3495  -15.4728   20.0767 C   0  0  0  0  0  0  0  0  0  0  0  0
    7.8732  -15.0899   18.8581 C   0  0  0  0  0  0  0  0  0  0  0  0
    9.6910  -15.6665   23.9067 N   0  0  0  0  0  0  0  0  0  0  0  0
   10.4612  -16.7790   24.4559 C   0  0  1  0  0  0  0  0  0  0  0  0
   11.7367  -16.9601   23.6907 C   0  0  0  0  0  0  0  0  0  0  0  0
   12.5790  -18.1107   24.1117 C   0  0  0  0  0  0  0  0  0  0  0  0
   13.8341  -18.2623   23.3699 C   0  0  0  0  0  0  0  0  0  0  0  0
   13.8856  -18.0689   22.1342 O   0  0  0  0  0  0  0  0  0  0  0  0
   10.8701  -16.4264   25.8634 C   0  0  0  0  0  0  0  0  0  0  0  0
   11.8443  -17.0477   26.3518 O   0  0  0  0  0  0  0  0  0  0  0  0
   15.0239  -18.6245   23.9863 O   0  0  0  0  0  0  0  0  0  0  0  0
    9.7603  -13.8765   28.3903 C   0  0  0  0  0  0  0  0  0  0  0  0
   10.5882  -15.0995   27.9882 C   0  0  2  0  0  0  0  0  0  0  0  0
   10.2245  -15.4521   26.6422 N   0  0  0  0  0  0  0  0  0  0  0  0
   10.3323  -16.1891   28.9475 C   0  0  0  0  0  0  0  0  0  0  0  0
   10.7819  -16.1434   30.2525 O   0  0  0  0  0  0  0  0  0  0  0  0
    9.6853  -17.1949   28.5740 O   0  0  0  0  0  0  0  0  0  0  0  0
  2  3  2  0
  2  1  1  0
  4  3  1  0
  5  4  2  0
  6  5  1  0
  7  9  1  0
  7  6  1  0
  7  8  1  6
  9 10  2  0
 11  5  1  0
 11 12  2  0
 12  2  1  0
 13  9  1  0
 13 14  1  0
 14 15  1  6
 15 16  1  0
 17 18  2  0
 17 16  1  0
 19 24  1  0
 19 14  1  0
 20 19  2  0
 21 17  1  0
 23 22  1  1
 23 24  1  0
 25 23  1  0
 25 26  1  0
 27 25  2  0
M  END
$$$$
