YEA.pdb
     RDKit          3D

 27 27  0  0  1  0  0  0  0  0999 V2000
    5.4638  -10.2413   26.5658 O   0  0  0  0  0  0  0  0  0  0  0  0
    5.8844  -11.3810   25.9034 C   0  0  0  0  0  0  0  0  0  0  0  0
    6.7460  -11.3317   24.8273 C   0  0  0  0  0  0  0  0  0  0  0  0
    7.1042  -12.5108   24.2389 C   0  0  0  0  0  0  0  0  0  0  0  0
    6.6515  -13.7441   24.6620 C   0  0  0  0  0  0  0  0  0  0  0  0
    7.0865  -14.9715   23.9645 C   0  0  0  0  0  0  0  0  0  0  0  0
    8.0861  -15.7772   24.7652 C   0  0  2  0  0  0  0  0  0  0  0  0
    9.0123  -14.7988   25.3624 N   0  0  0  0  0  0  0  0  0  0  0  0
    8.8634  -16.7259   23.9390 C   0  0  0  0  0  0  0  0  0  0  0  0
    8.2851  -17.7505   23.4966 O   0  0  0  0  0  0  0  0  0  0  0  0
    5.7991  -13.7668   25.7295 C   0  0  0  0  0  0  0  0  0  0  0  0
    5.4134  -12.5964   26.3516 C   0  0  0  0  0  0  0  0  0  0  0  0
   10.2455  -16.5029   23.6367 N   0  0  0  0  0  0  0  0  0  0  0  0
   11.2242  -17.5738   23.8044 C   0  0  1  0  0  0  0  0  0  0  0  0
   12.4293  -17.3192   22.9511 C   0  0  0  0  0  0  0  0  0  0  0  0
   13.4597  -18.3908   22.9608 C   0  0  0  0  0  0  0  0  0  0  0  0
   14.6652  -18.0965   22.1807 C   0  0  0  0  0  0  0  0  0  0  0  0
   15.8080  -18.2973   22.6505 O   0  0  0  0  0  0  0  0  0  0  0  0
   11.7147  -17.5519   25.2296 C   0  0  0  0  0  0  0  0  0  0  0  0
   12.5825  -18.3985   25.5520 O   0  0  0  0  0  0  0  0  0  0  0  0
   14.6110  -17.5845   20.8915 O   0  0  0  0  0  0  0  0  0  0  0  0
   11.2193  -15.2964   28.1821 C   0  0  0  0  0  0  0  0  0  0  0  0
   11.6792  -16.6231   27.5728 C   0  0  2  0  0  0  0  0  0  0  0  0
   11.2556  -16.6450   26.1987 N   0  0  0  0  0  0  0  0  0  0  0  0
   11.1117  -17.7343   28.3578 C   0  0  0  0  0  0  0  0  0  0  0  0
   11.4644  -17.9634   29.6732 O   0  0  0  0  0  0  0  0  0  0  0  0
   10.2801  -18.5020   27.8204 O   0  0  0  0  0  0  0  0  0  0  0  0
  2  3  2  0
  2  1  1  0
  4  3  1  0
  5  4  2  0
  6  5  1  0
  7  9  1  0
  7  6  1  0
  7  8  1  6
  9 10  2  0
 11  5  1  0
 11 12  2  0
 12  2  1  0
 13  9  1  0
 13 14  1  0
 14 15  1  6
 15 16  1  0
 17 18  2  0
 17 16  1  0
 19 24  1  0
 19 14  1  0
 20 19  2  0
 21 17  1  0
 23 22  1  1
 23 24  1  0
 25 23  1  0
 25 26  1  0
 27 25  2  0
M  END
$$$$
