YEA.pdb
     RDKit          3D

 27 27  0  0  1  0  0  0  0  0999 V2000
    7.3549  -12.6980   26.8144 O   0  0  0  0  0  0  0  0  0  0  0  0
    7.1960  -13.1839   25.5286 C   0  0  0  0  0  0  0  0  0  0  0  0
    6.7001  -14.4457   25.2742 C   0  0  0  0  0  0  0  0  0  0  0  0
    6.5796  -14.8359   23.9711 C   0  0  0  0  0  0  0  0  0  0  0  0
    6.9264  -14.0380   22.8996 C   0  0  0  0  0  0  0  0  0  0  0  0
    6.7675  -14.5413   21.5199 C   0  0  0  0  0  0  0  0  0  0  0  0
    8.0675  -15.0342   20.9230 C   0  0  2  0  0  0  0  0  0  0  0  0
    7.7221  -15.6008   19.6071 N   0  0  0  0  0  0  0  0  0  0  0  0
    8.7203  -16.0825   21.7364 C   0  0  0  0  0  0  0  0  0  0  0  0
    8.3034  -17.2644   21.6395 O   0  0  0  0  0  0  0  0  0  0  0  0
    7.4152  -12.7928   23.1774 C   0  0  0  0  0  0  0  0  0  0  0  0
    7.5520  -12.3613   24.4815 C   0  0  0  0  0  0  0  0  0  0  0  0
    9.8050  -15.7813   22.6218 N   0  0  0  0  0  0  0  0  0  0  0  0
   10.5116  -16.8513   23.3208 C   0  0  1  0  0  0  0  0  0  0  0  0
   11.9916  -16.6228   23.2669 C   0  0  0  0  0  0  0  0  0  0  0  0
   12.6349  -16.8951   21.9546 C   0  0  0  0  0  0  0  0  0  0  0  0
   14.0208  -17.3660   22.0312 C   0  0  0  0  0  0  0  0  0  0  0  0
   14.8912  -16.7235   22.6611 O   0  0  0  0  0  0  0  0  0  0  0  0
   10.1376  -16.7952   24.7800 C   0  0  0  0  0  0  0  0  0  0  0  0
   10.5615  -15.8196   25.4451 O   0  0  0  0  0  0  0  0  0  0  0  0
   14.4441  -18.5371   21.4177 O   0  0  0  0  0  0  0  0  0  0  0  0
    7.7839  -18.5696   27.0501 C   0  0  0  0  0  0  0  0  0  0  0  0
    9.1015  -17.8206   26.8367 C   0  0  2  0  0  0  0  0  0  0  0  0
    9.3505  -17.7656   25.4213 N   0  0  0  0  0  0  0  0  0  0  0  0
   10.1733  -18.5148   27.5733 C   0  0  0  0  0  0  0  0  0  0  0  0
   11.2432  -19.1083   26.9329 O   0  0  0  0  0  0  0  0  0  0  0  0
   10.1190  -18.5727   28.8236 O   0  0  0  0  0  0  0  0  0  0  0  0
  2  3  2  0
  2  1  1  0
  4  3  1  0
  5  4  2  0
  6  5  1  0
  7  9  1  0
  7  6  1  0
  7  8  1  6
  9 10  2  0
 11  5  1  0
 11 12  2  0
 12  2  1  0
 13  9  1  0
 13 14  1  0
 14 15  1  1
 15 16  1  0
 17 18  2  0
 17 16  1  0
 19 24  1  0
 19 14  1  0
 20 19  2  0
 21 17  1  0
 23 22  1  6
 23 24  1  0
 25 23  1  0
 25 26  1  0
 27 25  2  0
M  END
$$$$
