YEA.pdb
     RDKit          3D

 27 27  0  0  1  0  0  0  0  0999 V2000
    6.7543  -10.1477   26.0070 O   0  0  0  0  0  0  0  0  0  0  0  0
    6.7812  -11.5284   25.9205 C   0  0  0  0  0  0  0  0  0  0  0  0
    7.7856  -12.2055   25.2606 C   0  0  0  0  0  0  0  0  0  0  0  0
    7.7254  -13.5694   25.2294 C   0  0  0  0  0  0  0  0  0  0  0  0
    6.7169  -14.3032   25.8207 C   0  0  0  0  0  0  0  0  0  0  0  0
    6.7268  -15.7780   25.7352 C   0  0  0  0  0  0  0  0  0  0  0  0
    7.1567  -16.2829   24.3752 C   0  0  2  0  0  0  0  0  0  0  0  0
    6.0430  -17.1099   23.8775 N   0  0  0  0  0  0  0  0  0  0  0  0
    8.3807  -17.1114   24.4228 C   0  0  0  0  0  0  0  0  0  0  0  0
    8.3140  -18.2518   24.9472 O   0  0  0  0  0  0  0  0  0  0  0  0
    5.7337  -13.6099   26.4680 C   0  0  0  0  0  0  0  0  0  0  0  0
    5.7589  -12.2307   26.5219 C   0  0  0  0  0  0  0  0  0  0  0  0
    9.6257  -16.6454   23.8895 N   0  0  0  0  0  0  0  0  0  0  0  0
   10.8587  -17.3925   24.1220 C   0  0  1  0  0  0  0  0  0  0  0  0
   12.0173  -16.7074   23.4634 C   0  0  0  0  0  0  0  0  0  0  0  0
   13.3392  -17.3618   23.6494 C   0  0  0  0  0  0  0  0  0  0  0  0
   14.4298  -16.7892   22.8551 C   0  0  0  0  0  0  0  0  0  0  0  0
   14.6046  -17.1175   21.6598 O   0  0  0  0  0  0  0  0  0  0  0  0
   11.1544  -17.3757   25.6001 C   0  0  0  0  0  0  0  0  0  0  0  0
   11.3158  -16.2556   26.1413 O   0  0  0  0  0  0  0  0  0  0  0  0
   15.3215  -15.8610   23.3751 O   0  0  0  0  0  0  0  0  0  0  0  0
   10.4428  -18.9996   28.5962 C   0  0  0  0  0  0  0  0  0  0  0  0
   11.6532  -18.5569   27.7704 C   0  0  2  0  0  0  0  0  0  0  0  0
   11.2565  -18.5336   26.3883 N   0  0  0  0  0  0  0  0  0  0  0  0
   12.7715  -19.4837   28.0227 C   0  0  0  0  0  0  0  0  0  0  0  0
   13.3911  -19.5740   29.2535 O   0  0  0  0  0  0  0  0  0  0  0  0
   13.1799  -20.2182   27.0935 O   0  0  0  0  0  0  0  0  0  0  0  0
  2  3  2  0
  2  1  1  0
  4  3  1  0
  5  4  2  0
  6  5  1  0
  7  9  1  0
  7  6  1  0
  7  8  1  1
  9 10  2  0
 11  5  1  0
 11 12  2  0
 12  2  1  0
 13  9  1  0
 13 14  1  0
 14 15  1  6
 15 16  1  0
 17 18  2  0
 17 16  1  0
 19 24  1  0
 19 14  1  0
 20 19  2  0
 21 17  1  0
 23 22  1  1
 23 24  1  0
 25 23  1  0
 25 26  1  0
 27 25  2  0
M  END
$$$$
