YEA.pdb
     RDKit          3D

 27 27  0  0  1  0  0  0  0  0999 V2000
    7.2760  -11.6616   17.9391 O   0  0  0  0  0  0  0  0  0  0  0  0
    7.6651  -12.5497   18.9263 C   0  0  0  0  0  0  0  0  0  0  0  0
    8.9844  -12.9018   19.1219 C   0  0  0  0  0  0  0  0  0  0  0  0
    9.2698  -13.7862   20.1224 C   0  0  0  0  0  0  0  0  0  0  0  0
    8.3121  -14.3443   20.9449 C   0  0  0  0  0  0  0  0  0  0  0  0
    8.7082  -15.2975   22.0016 C   0  0  0  0  0  0  0  0  0  0  0  0
    9.1899  -16.6202   21.4467 C   0  0  2  0  0  0  0  0  0  0  0  0
    7.9989  -17.2855   20.8893 N   0  0  0  0  0  0  0  0  0  0  0  0
    9.7887  -17.4985   22.4747 C   0  0  0  0  0  0  0  0  0  0  0  0
    9.0229  -18.1159   23.2572 O   0  0  0  0  0  0  0  0  0  0  0  0
    7.0128  -13.9801   20.7313 C   0  0  0  0  0  0  0  0  0  0  0  0
    6.6835  -13.0886   19.7300 C   0  0  0  0  0  0  0  0  0  0  0  0
   11.2070  -17.6577   22.5947 N   0  0  0  0  0  0  0  0  0  0  0  0
   11.7699  -18.5825   23.5748 C   0  0  1  0  0  0  0  0  0  0  0  0
   13.2269  -18.8063   23.3060 C   0  0  0  0  0  0  0  0  0  0  0  0
   13.8907  -19.8163   24.1718 C   0  0  0  0  0  0  0  0  0  0  0  0
   15.2910  -20.0922   23.8380 C   0  0  0  0  0  0  0  0  0  0  0  0
   15.7168  -21.2654   23.7420 O   0  0  0  0  0  0  0  0  0  0  0  0
   11.6948  -17.9382   24.9356 C   0  0  0  0  0  0  0  0  0  0  0  0
   12.2772  -16.8369   25.0831 O   0  0  0  0  0  0  0  0  0  0  0  0
   16.2153  -19.0815   23.6116 O   0  0  0  0  0  0  0  0  0  0  0  0
    9.5386  -17.6332   27.7075 C   0  0  0  0  0  0  0  0  0  0  0  0
   10.9944  -17.9506   27.3571 C   0  0  2  0  0  0  0  0  0  0  0  0
   11.0159  -18.5009   26.0287 N   0  0  0  0  0  0  0  0  0  0  0  0
   11.5390  -18.8799   28.3636 C   0  0  0  0  0  0  0  0  0  0  0  0
   11.8727  -18.4716   29.6400 O   0  0  0  0  0  0  0  0  0  0  0  0
   11.7079  -20.0832   28.0585 O   0  0  0  0  0  0  0  0  0  0  0  0
  2  3  2  0
  2  1  1  0
  4  3  1  0
  5  4  2  0
  6  5  1  0
  7  9  1  0
  7  6  1  0
  7  8  1  1
  9 10  2  0
 11  5  1  0
 11 12  2  0
 12  2  1  0
 13  9  1  0
 13 14  1  0
 14 15  1  6
 15 16  1  0
 17 18  2  0
 17 16  1  0
 19 24  1  0
 19 14  1  0
 20 19  2  0
 21 17  1  0
 23 22  1  1
 23 24  1  0
 25 23  1  0
 25 26  1  0
 27 25  2  0
M  END
$$$$
