YEA.pdb
     RDKit          3D

 27 27  0  0  1  0  0  0  0  0999 V2000
    7.5968  -12.8904   16.3203 O   0  0  0  0  0  0  0  0  0  0  0  0
    7.6941  -13.2752   17.6458 C   0  0  0  0  0  0  0  0  0  0  0  0
    7.0364  -12.6061   18.6571 C   0  0  0  0  0  0  0  0  0  0  0  0
    7.1942  -13.0614   19.9348 C   0  0  0  0  0  0  0  0  0  0  0  0
    7.9737  -14.1511   20.2666 C   0  0  0  0  0  0  0  0  0  0  0  0
    8.0929  -14.5741   21.6770 C   0  0  0  0  0  0  0  0  0  0  0  0
    8.2494  -16.0714   21.8281 C   0  0  2  0  0  0  0  0  0  0  0  0
    6.9054  -16.6430   21.6316 N   0  0  0  0  0  0  0  0  0  0  0  0
    8.7471  -16.4723   23.1617 C   0  0  0  0  0  0  0  0  0  0  0  0
    7.9105  -16.6919   24.0738 O   0  0  0  0  0  0  0  0  0  0  0  0
    8.6151  -14.7968   19.2476 C   0  0  0  0  0  0  0  0  0  0  0  0
    8.4808  -14.3674   17.9426 C   0  0  0  0  0  0  0  0  0  0  0  0
   10.1467  -16.6136   23.4312 N   0  0  0  0  0  0  0  0  0  0  0  0
   10.6074  -17.0966   24.7300 C   0  0  1  0  0  0  0  0  0  0  0  0
   11.9610  -17.7268   24.6034 C   0  0  0  0  0  0  0  0  0  0  0  0
   11.9955  -19.0354   23.8987 C   0  0  0  0  0  0  0  0  0  0  0  0
   13.1043  -19.2000   22.9542 C   0  0  0  0  0  0  0  0  0  0  0  0
   12.9047  -19.5789   21.7780 O   0  0  0  0  0  0  0  0  0  0  0  0
   10.7874  -15.9106   25.6428 C   0  0  0  0  0  0  0  0  0  0  0  0
   11.7351  -15.1287   25.3895 O   0  0  0  0  0  0  0  0  0  0  0  0
   14.4238  -18.9485   23.3043 O   0  0  0  0  0  0  0  0  0  0  0  0
    8.9866  -13.6835   27.7308 C   0  0  0  0  0  0  0  0  0  0  0  0
   10.1995  -14.6173   27.7253 C   0  0  2  0  0  0  0  0  0  0  0  0
    9.9596  -15.6420   26.7452 N   0  0  0  0  0  0  0  0  0  0  0  0
   10.3906  -15.1642   29.0808 C   0  0  0  0  0  0  0  0  0  0  0  0
   10.2869  -16.5142   29.3527 O   0  0  0  0  0  0  0  0  0  0  0  0
   10.6567  -14.3840   30.0243 O   0  0  0  0  0  0  0  0  0  0  0  0
  2  3  2  0
  2  1  1  0
  4  3  1  0
  5  4  2  0
  6  5  1  0
  7  9  1  0
  7  6  1  0
  7  8  1  1
  9 10  2  0
 11  5  1  0
 11 12  2  0
 12  2  1  0
 13  9  1  0
 13 14  1  0
 14 15  1  6
 15 16  1  0
 17 18  2  0
 17 16  1  0
 19 24  1  0
 19 14  1  0
 20 19  2  0
 21 17  1  0
 23 22  1  1
 23 24  1  0
 25 23  1  0
 25 26  1  0
 27 25  2  0
M  END
$$$$
