MYC.pdb
     RDKit          3D

 27 27  0  0  1  0  0  0  0  0999 V2000
   18.3368  -15.2679  -16.7516 C   0  0  0  0  0  0  0  0  0  0  0  0
   20.0526  -15.6295  -17.2147 S   0  0  0  0  0  0  0  0  0  0  0  0
   20.6948  -14.2017  -18.1012 C   0  0  0  0  0  0  0  0  0  0  0  0
   20.9366  -13.0508  -17.2127 C   0  0  0  0  0  0  0  0  0  0  0  0
   20.7451  -11.6771  -17.7046 C   0  0  2  0  0  0  0  0  0  0  0  0
   21.6274  -11.5569  -18.8951 N   0  0  0  0  0  0  0  0  0  0  0  0
   21.0075  -10.5482  -16.8389 C   0  0  0  0  0  0  0  0  0  0  0  0
   20.6401  -10.4001  -15.6381 O   0  0  0  0  0  0  0  0  0  0  0  0
   27.4974  -11.9907  -15.9318 O   0  0  0  0  0  0  0  0  0  0  0  0
   26.5425  -10.9853  -16.1504 C   0  0  0  0  0  0  0  0  0  0  0  0
   26.0355  -10.7779  -17.4095 C   0  0  0  0  0  0  0  0  0  0  0  0
   25.0861   -9.7799  -17.6317 C   0  0  0  0  0  0  0  0  0  0  0  0
   24.6306   -8.9791  -16.6082 C   0  0  0  0  0  0  0  0  0  0  0  0
   23.6328   -7.9528  -16.8654 C   0  0  0  0  0  0  0  0  0  0  0  0
   22.2062   -8.3248  -16.5540 C   0  0  2  0  0  0  0  0  0  0  0  0
   21.7692   -9.4366  -17.3560 N   0  0  0  0  0  0  0  0  0  0  0  0
   21.3972   -7.1323  -16.9477 C   0  0  0  0  0  0  0  0  0  0  0  0
   21.0266   -7.0297  -18.1308 O   0  0  0  0  0  0  0  0  0  0  0  0
   25.1461   -9.1963  -15.3511 C   0  0  0  0  0  0  0  0  0  0  0  0
   26.0977  -10.1934  -15.1182 C   0  0  0  0  0  0  0  0  0  0  0  0
   21.0411   -6.1214  -16.0234 N   0  0  0  0  0  0  0  0  0  0  0  0
   20.1904   -5.0159  -16.4136 C   0  0  1  0  0  0  0  0  0  0  0  0
   18.8530   -5.4887  -16.9267 C   0  0  0  0  0  0  0  0  0  0  0  0
   17.6643   -4.1384  -16.9667 S   0  0  0  0  0  0  0  0  0  0  0  0
   20.0224   -4.0762  -15.2912 C   0  0  0  0  0  0  0  0  0  0  0  0
   19.9123   -4.5377  -13.9940 O   0  0  0  0  0  0  0  0  0  0  0  0
   19.9751   -2.8329  -15.4852 O   0  0  0  0  0  0  0  0  0  0  0  0
  2  1  1  0
  3  2  1  0
  4  3  1  0
  4  5  1  0
  5  7  1  0
  5  6  1  6
  7  8  2  0
  9 10  1  0
 10 11  2  0
 10 20  1  0
 11 12  1  0
 12 13  2  0
 13 14  1  0
 15 14  1  6
 16 15  1  0
 16  7  1  0
 17 18  2  0
 17 15  1  0
 19 13  1  0
 20 19  2  0
 21 17  1  0
 22 25  1  0
 22 21  1  0
 22 23  1  1
 24 23  1  0
 25 26  1  0
 27 25  2  0
M  END
$$$$
