MYC.pdb
     RDKit          3D

 27 27  0  0  1  0  0  0  0  0999 V2000
   21.9633  -13.4749  -15.3934 C   0  0  0  0  0  0  0  0  0  0  0  0
   21.5456  -11.7641  -14.9604 S   0  0  0  0  0  0  0  0  0  0  0  0
   23.0765  -10.9111  -14.5530 C   0  0  0  0  0  0  0  0  0  0  0  0
   22.8476   -9.5188  -14.1268 C   0  0  0  0  0  0  0  0  0  0  0  0
   21.9028   -8.6613  -14.8603 C   0  0  2  0  0  0  0  0  0  0  0  0
   22.5747   -8.3439  -16.1478 N   0  0  0  0  0  0  0  0  0  0  0  0
   21.4418   -7.4192  -14.2794 C   0  0  0  0  0  0  0  0  0  0  0  0
   22.1480   -6.4955  -13.7824 O   0  0  0  0  0  0  0  0  0  0  0  0
   23.2289   -1.9400  -17.2567 O   0  0  0  0  0  0  0  0  0  0  0  0
   22.2037   -2.7190  -16.6977 C   0  0  0  0  0  0  0  0  0  0  0  0
   21.4831   -2.2462  -15.6288 C   0  0  0  0  0  0  0  0  0  0  0  0
   20.4631   -3.0168  -15.0697 C   0  0  0  0  0  0  0  0  0  0  0  0
   20.1482   -4.2625  -15.5652 C   0  0  0  0  0  0  0  0  0  0  0  0
   19.0734   -5.0407  -14.9701 C   0  0  0  0  0  0  0  0  0  0  0  0
   19.4553   -5.9079  -13.7984 C   0  0  2  0  0  0  0  0  0  0  0  0
   20.0234   -7.1556  -14.2352 N   0  0  0  0  0  0  0  0  0  0  0  0
   18.1692   -6.2111  -13.1018 C   0  0  0  0  0  0  0  0  0  0  0  0
   17.4096   -7.0613  -13.5995 O   0  0  0  0  0  0  0  0  0  0  0  0
   20.8773   -4.7256  -16.6362 C   0  0  0  0  0  0  0  0  0  0  0  0
   21.9011   -3.9613  -17.2032 C   0  0  0  0  0  0  0  0  0  0  0  0
   17.7893   -5.5658  -11.9008 N   0  0  0  0  0  0  0  0  0  0  0  0
   16.5399   -5.8860  -11.2415 C   0  0  1  0  0  0  0  0  0  0  0  0
   16.5276   -5.4261   -9.8049 C   0  0  0  0  0  0  0  0  0  0  0  0
   17.8519   -6.2048   -8.8678 S   0  0  0  0  0  0  0  0  0  0  0  0
   15.4046   -5.3156  -11.9876 C   0  0  0  0  0  0  0  0  0  0  0  0
   14.1105   -5.7183  -11.7213 O   0  0  0  0  0  0  0  0  0  0  0  0
   15.5845   -4.4494  -12.8838 O   0  0  0  0  0  0  0  0  0  0  0  0
  2  1  1  0
  3  2  1  0
  4  3  1  0
  4  5  1  0
  5  7  1  0
  5  6  1  6
  7  8  2  0
  9 10  1  0
 10 11  2  0
 10 20  1  0
 11 12  1  0
 12 13  2  0
 13 14  1  0
 15 14  1  6
 16 15  1  0
 16  7  1  0
 17 18  2  0
 17 15  1  0
 19 13  1  0
 20 19  2  0
 21 17  1  0
 22 25  1  0
 22 21  1  0
 22 23  1  1
 24 23  1  0
 25 26  1  0
 27 25  2  0
M  END
$$$$
