MYC.pdb
     RDKit          3D

 27 27  0  0  1  0  0  0  0  0999 V2000
   29.3114  -17.5840  -17.6065 C   0  0  0  0  0  0  0  0  0  0  0  0
   28.6143  -17.2990  -15.9566 S   0  0  0  0  0  0  0  0  0  0  0  0
   26.8746  -17.7549  -16.0091 C   0  0  0  0  0  0  0  0  0  0  0  0
   26.6615  -19.1893  -15.7449 C   0  0  0  0  0  0  0  0  0  0  0  0
   27.1246  -19.7911  -14.4841 C   0  0  2  0  0  0  0  0  0  0  0  0
   28.3609  -20.5389  -14.8337 N   0  0  0  0  0  0  0  0  0  0  0  0
   26.2607  -20.6805  -13.7390 C   0  0  0  0  0  0  0  0  0  0  0  0
   26.1863  -21.9389  -13.8371 O   0  0  0  0  0  0  0  0  0  0  0  0
   28.3345  -20.2879   -6.8165 O   0  0  0  0  0  0  0  0  0  0  0  0
   27.2988  -20.2870   -7.7641 C   0  0  0  0  0  0  0  0  0  0  0  0
   26.7690  -19.0996   -8.2054 C   0  0  0  0  0  0  0  0  0  0  0  0
   25.7396  -19.0936   -9.1472 C   0  0  0  0  0  0  0  0  0  0  0  0
   25.2264  -20.2641   -9.6600 C   0  0  0  0  0  0  0  0  0  0  0  0
   24.1602  -20.2291  -10.6484 C   0  0  0  0  0  0  0  0  0  0  0  0
   24.4552  -20.9030  -11.9634 C   0  0  2  0  0  0  0  0  0  0  0  0
   25.3599  -20.1185  -12.7611 N   0  0  0  0  0  0  0  0  0  0  0  0
   23.1444  -20.9550  -12.6780 C   0  0  0  0  0  0  0  0  0  0  0  0
   22.7327  -19.9246  -13.2402 O   0  0  0  0  0  0  0  0  0  0  0  0
   25.7651  -21.4475   -9.2100 C   0  0  0  0  0  0  0  0  0  0  0  0
   26.7965  -21.4641   -8.2666 C   0  0  0  0  0  0  0  0  0  0  0  0
   22.3606  -22.1321  -12.7355 N   0  0  0  0  0  0  0  0  0  0  0  0
   21.1548  -22.1904  -13.5359 C   0  0  1  0  0  0  0  0  0  0  0  0
   20.8185  -23.6029  -13.9448 C   0  0  0  0  0  0  0  0  0  0  0  0
   22.2436  -24.4165  -14.6831 S   0  0  0  0  0  0  0  0  0  0  0  0
   20.0300  -21.5677  -12.8162 C   0  0  0  0  0  0  0  0  0  0  0  0
   18.8007  -21.4114  -13.4264 O   0  0  0  0  0  0  0  0  0  0  0  0
   20.1601  -21.1636  -11.6307 O   0  0  0  0  0  0  0  0  0  0  0  0
  2  1  1  0
  3  2  1  0
  4  3  1  0
  4  5  1  0
  5  7  1  0
  5  6  1  6
  7  8  2  0
  9 10  1  0
 10 11  2  0
 10 20  1  0
 11 12  1  0
 12 13  2  0
 13 14  1  0
 15 14  1  1
 16 15  1  0
 16  7  1  0
 17 18  2  0
 17 15  1  0
 19 13  1  0
 20 19  2  0
 21 17  1  0
 22 25  1  0
 22 21  1  0
 22 23  1  1
 24 23  1  0
 25 26  1  0
 27 25  2  0
M  END
$$$$
