MYC.pdb
     RDKit          3D

 27 27  0  0  1  0  0  0  0  0999 V2000
   24.7841  -20.6832  -20.0487 C   0  0  0  0  0  0  0  0  0  0  0  0
   26.4169  -20.1420  -20.6232 S   0  0  0  0  0  0  0  0  0  0  0  0
   27.6454  -20.8000  -19.4853 C   0  0  0  0  0  0  0  0  0  0  0  0
   27.0582  -21.1985  -18.1934 C   0  0  0  0  0  0  0  0  0  0  0  0
   27.9195  -21.6742  -17.0989 C   0  0  2  0  0  0  0  0  0  0  0  0
   28.5276  -22.9368  -17.5947 N   0  0  0  0  0  0  0  0  0  0  0  0
   27.3611  -21.9318  -15.7895 C   0  0  0  0  0  0  0  0  0  0  0  0
   26.6657  -22.9261  -15.4337 O   0  0  0  0  0  0  0  0  0  0  0  0
   26.0091  -20.4988   -7.0563 O   0  0  0  0  0  0  0  0  0  0  0  0
   26.4324  -20.4072   -8.3915 C   0  0  0  0  0  0  0  0  0  0  0  0
   27.3950  -21.2616   -8.8699 C   0  0  0  0  0  0  0  0  0  0  0  0
   27.8189  -21.1746  -10.1963 C   0  0  0  0  0  0  0  0  0  0  0  0
   27.2925  -20.2403  -11.0603 C   0  0  0  0  0  0  0  0  0  0  0  0
   27.7450  -20.1779  -12.4410 C   0  0  0  0  0  0  0  0  0  0  0  0
   27.0499  -21.1021  -13.4071 C   0  0  2  0  0  0  0  0  0  0  0  0
   27.5926  -20.9754  -14.7336 N   0  0  0  0  0  0  0  0  0  0  0  0
   25.6329  -20.6309  -13.4468 C   0  0  0  0  0  0  0  0  0  0  0  0
   25.3876  -19.5280  -13.9673 O   0  0  0  0  0  0  0  0  0  0  0  0
   26.3289  -19.3896  -10.5695 C   0  0  0  0  0  0  0  0  0  0  0  0
   25.8976  -19.4687   -9.2422 C   0  0  0  0  0  0  0  0  0  0  0  0
   24.5668  -21.3945  -12.9144 N   0  0  0  0  0  0  0  0  0  0  0  0
   23.2013  -20.9142  -12.9690 C   0  0  1  0  0  0  0  0  0  0  0  0
   22.3110  -21.8382  -13.7621 C   0  0  0  0  0  0  0  0  0  0  0  0
   23.0476  -22.2315  -15.3561 S   0  0  0  0  0  0  0  0  0  0  0  0
   22.6732  -20.7122  -11.6084 C   0  0  0  0  0  0  0  0  0  0  0  0
   23.3707  -21.1651  -10.5055 O   0  0  0  0  0  0  0  0  0  0  0  0
   21.5766  -20.1237  -11.4169 O   0  0  0  0  0  0  0  0  0  0  0  0
  2  1  1  0
  3  2  1  0
  4  3  1  0
  4  5  1  0
  5  7  1  0
  5  6  1  6
  7  8  2  0
  9 10  1  0
 10 11  2  0
 10 20  1  0
 11 12  1  0
 12 13  2  0
 13 14  1  0
 15 14  1  1
 16 15  1  0
 16  7  1  0
 17 18  2  0
 17 15  1  0
 19 13  1  0
 20 19  2  0
 21 17  1  0
 22 25  1  0
 22 21  1  0
 22 23  1  1
 24 23  1  0
 25 26  1  0
 27 25  2  0
M  END
$$$$
