MYC.pdb
     RDKit          3D

 27 27  0  0  1  0  0  0  0  0999 V2000
   31.4825  -21.8996  -10.3311 C   0  0  0  0  0  0  0  0  0  0  0  0
   32.3639  -22.5375  -11.7820 S   0  0  0  0  0  0  0  0  0  0  0  0
   31.4928  -21.9663  -13.2490 C   0  0  0  0  0  0  0  0  0  0  0  0
   30.4893  -20.9320  -12.9393 C   0  0  0  0  0  0  0  0  0  0  0  0
   29.0528  -21.2289  -13.0580 C   0  0  2  0  0  0  0  0  0  0  0  0
   28.7222  -21.0160  -14.4917 N   0  0  0  0  0  0  0  0  0  0  0  0
   28.0883  -20.4991  -12.2644 C   0  0  0  0  0  0  0  0  0  0  0  0
   27.7797  -19.2769  -12.3642 O   0  0  0  0  0  0  0  0  0  0  0  0
   21.7340  -20.1581  -14.7300 O   0  0  0  0  0  0  0  0  0  0  0  0
   22.5722  -20.4446  -13.6411 C   0  0  0  0  0  0  0  0  0  0  0  0
   23.1074  -19.4232  -12.8956 C   0  0  0  0  0  0  0  0  0  0  0  0
   23.9410  -19.7029  -11.8122 C   0  0  0  0  0  0  0  0  0  0  0  0
   24.2512  -20.9970  -11.4580 C   0  0  0  0  0  0  0  0  0  0  0  0
   25.1146  -21.2608  -10.3179 C   0  0  0  0  0  0  0  0  0  0  0  0
   26.4488  -20.5604  -10.3228 C   0  0  2  0  0  0  0  0  0  0  0  0
   27.3702  -21.1979  -11.2256 N   0  0  0  0  0  0  0  0  0  0  0  0
   26.9807  -20.7246   -8.9366 C   0  0  0  0  0  0  0  0  0  0  0  0
   27.4792  -21.8186   -8.6169 O   0  0  0  0  0  0  0  0  0  0  0  0
   23.7092  -22.0119  -12.2126 C   0  0  0  0  0  0  0  0  0  0  0  0
   22.8731  -21.7420  -13.2999 C   0  0  0  0  0  0  0  0  0  0  0  0
   26.9361  -19.6816   -7.9810 N   0  0  0  0  0  0  0  0  0  0  0  0
   27.4551  -19.8702   -6.6419 C   0  0  1  0  0  0  0  0  0  0  0  0
   27.9393  -18.5752   -6.0384 C   0  0  0  0  0  0  0  0  0  0  0  0
   28.4366  -18.8092   -4.3249 S   0  0  0  0  0  0  0  0  0  0  0  0
   26.4407  -20.5056   -5.7827 C   0  0  0  0  0  0  0  0  0  0  0  0
   26.8125  -21.2167   -4.6584 O   0  0  0  0  0  0  0  0  0  0  0  0
   25.2135  -20.4170   -6.0504 O   0  0  0  0  0  0  0  0  0  0  0  0
  2  1  1  0
  3  2  1  0
  4  3  1  0
  4  5  1  0
  5  7  1  0
  5  6  1  6
  7  8  2  0
  9 10  1  0
 10 11  2  0
 10 20  1  0
 11 12  1  0
 12 13  2  0
 13 14  1  0
 15 14  1  1
 16 15  1  0
 16  7  1  0
 17 18  2  0
 17 15  1  0
 19 13  1  0
 20 19  2  0
 21 17  1  0
 22 25  1  0
 22 21  1  0
 22 23  1  1
 24 23  1  0
 25 26  1  0
 27 25  2  0
M  END
$$$$
