MYC.pdb
     RDKit          3D

 27 27  0  0  1  0  0  0  0  0999 V2000
   27.4682  -16.0023  -16.4770 C   0  0  0  0  0  0  0  0  0  0  0  0
   27.9626  -17.5560  -17.2711 S   0  0  0  0  0  0  0  0  0  0  0  0
   28.6128  -18.6433  -15.9936 C   0  0  0  0  0  0  0  0  0  0  0  0
   27.9203  -18.4716  -14.7038 C   0  0  0  0  0  0  0  0  0  0  0  0
   27.6554  -19.6337  -13.8404 C   0  0  2  0  0  0  0  0  0  0  0  0
   26.9390  -20.6109  -14.7016 N   0  0  0  0  0  0  0  0  0  0  0  0
   26.8983  -19.4773  -12.6176 C   0  0  0  0  0  0  0  0  0  0  0  0
   26.0425  -18.5847  -12.3535 O   0  0  0  0  0  0  0  0  0  0  0  0
   20.5923  -20.9246  -13.2868 O   0  0  0  0  0  0  0  0  0  0  0  0
   21.7701  -21.0877  -12.5406 C   0  0  0  0  0  0  0  0  0  0  0  0
   22.8064  -21.8357  -13.0426 C   0  0  0  0  0  0  0  0  0  0  0  0
   23.9791  -22.0005  -12.3048 C   0  0  0  0  0  0  0  0  0  0  0  0
   24.1351  -21.4253  -11.0633 C   0  0  0  0  0  0  0  0  0  0  0  0
   25.3720  -21.6047  -10.3197 C   0  0  0  0  0  0  0  0  0  0  0  0
   26.3276  -20.4397  -10.3351 C   0  0  2  0  0  0  0  0  0  0  0  0
   27.1073  -20.4194  -11.5443 N   0  0  0  0  0  0  0  0  0  0  0  0
   27.2605  -20.6852   -9.1946 C   0  0  0  0  0  0  0  0  0  0  0  0
   28.4547  -20.9275   -9.4450 O   0  0  0  0  0  0  0  0  0  0  0  0
   23.0899  -20.6783  -10.5708 C   0  0  0  0  0  0  0  0  0  0  0  0
   21.9109  -20.5074  -11.3022 C   0  0  0  0  0  0  0  0  0  0  0  0
   26.8319  -20.6512   -7.8462 N   0  0  0  0  0  0  0  0  0  0  0  0
   27.7679  -20.4031   -6.7689 C   0  0  1  0  0  0  0  0  0  0  0  0
   28.4791  -19.0831   -6.9341 C   0  0  0  0  0  0  0  0  0  0  0  0
   29.4803  -18.7052   -5.4874 S   0  0  0  0  0  0  0  0  0  0  0  0
   27.0824  -20.4734   -5.4666 C   0  0  0  0  0  0  0  0  0  0  0  0
   27.8044  -20.5244   -4.2901 O   0  0  0  0  0  0  0  0  0  0  0  0
   25.8254  -20.4889   -5.3931 O   0  0  0  0  0  0  0  0  0  0  0  0
  2  1  1  0
  3  2  1  0
  4  3  1  0
  4  5  1  0
  5  7  1  0
  5  6  1  6
  7  8  2  0
  9 10  1  0
 10 11  2  0
 10 20  1  0
 11 12  1  0
 12 13  2  0
 13 14  1  0
 15 14  1  6
 16 15  1  0
 16  7  1  0
 17 18  2  0
 17 15  1  0
 19 13  1  0
 20 19  2  0
 21 17  1  0
 22 25  1  0
 22 21  1  0
 22 23  1  6
 24 23  1  0
 25 26  1  0
 27 25  2  0
M  END
$$$$
