MYC.pdb
     RDKit          3D

 27 27  0  0  1  0  0  0  0  0999 V2000
   26.8875  -18.7820  -17.4132 C   0  0  0  0  0  0  0  0  0  0  0  0
   26.9842  -18.4406  -19.1917 S   0  0  0  0  0  0  0  0  0  0  0  0
   26.3210  -16.7916  -19.4713 C   0  0  0  0  0  0  0  0  0  0  0  0
   25.3699  -16.3832  -18.4220 C   0  0  0  0  0  0  0  0  0  0  0  0
   23.9203  -16.5185  -18.6372 C   0  0  2  0  0  0  0  0  0  0  0  0
   23.5673  -15.4651  -19.6250 N   0  0  0  0  0  0  0  0  0  0  0  0
   23.0036  -16.4110  -17.5233 C   0  0  0  0  0  0  0  0  0  0  0  0
   22.8594  -15.4290  -16.7398 O   0  0  0  0  0  0  0  0  0  0  0  0
   17.3717  -12.9132  -18.5460 O   0  0  0  0  0  0  0  0  0  0  0  0
   17.9771  -14.0905  -18.0791 C   0  0  0  0  0  0  0  0  0  0  0  0
   17.7830  -14.4982  -16.7824 C   0  0  0  0  0  0  0  0  0  0  0  0
   18.3826  -15.6677  -16.3137 C   0  0  0  0  0  0  0  0  0  0  0  0
   19.1793  -16.4434  -17.1260 C   0  0  0  0  0  0  0  0  0  0  0  0
   19.7840  -17.6633  -16.6150 C   0  0  0  0  0  0  0  0  0  0  0  0
   21.2052  -17.5435  -16.1287 C   0  0  2  0  0  0  0  0  0  0  0  0
   22.1335  -17.5241  -17.2279 N   0  0  0  0  0  0  0  0  0  0  0  0
   21.4548  -18.7888  -15.3424 C   0  0  0  0  0  0  0  0  0  0  0  0
   22.3915  -19.5314  -15.6867 O   0  0  0  0  0  0  0  0  0  0  0  0
   19.3665  -16.0246  -18.4232 C   0  0  0  0  0  0  0  0  0  0  0  0
   18.7704  -14.8545  -18.9022 C   0  0  0  0  0  0  0  0  0  0  0  0
   20.6645  -19.1487  -14.2248 N   0  0  0  0  0  0  0  0  0  0  0  0
   20.9810  -20.3167  -13.4288 C   0  0  1  0  0  0  0  0  0  0  0  0
   22.3159  -20.1830  -12.7391 C   0  0  0  0  0  0  0  0  0  0  0  0
   22.5791  -21.5322  -11.5779 S   0  0  0  0  0  0  0  0  0  0  0  0
   19.9078  -20.5802  -12.4542 C   0  0  0  0  0  0  0  0  0  0  0  0
   19.6601  -21.8629  -12.0058 O   0  0  0  0  0  0  0  0  0  0  0  0
   19.1917  -19.6460  -12.0068 O   0  0  0  0  0  0  0  0  0  0  0  0
  2  1  1  0
  3  2  1  0
  4  3  1  0
  4  5  1  0
  5  7  1  0
  5  6  1  6
  7  8  2  0
  9 10  1  0
 10 11  2  0
 10 20  1  0
 11 12  1  0
 12 13  2  0
 13 14  1  0
 15 14  1  6
 16 15  1  0
 16  7  1  0
 17 18  2  0
 17 15  1  0
 19 13  1  0
 20 19  2  0
 21 17  1  0
 22 25  1  0
 22 21  1  0
 22 23  1  1
 24 23  1  0
 25 26  1  0
 27 25  2  0
M  END
$$$$
