MYC.pdb
     RDKit          3D

 27 27  0  0  1  0  0  0  0  0999 V2000
   33.2621  -25.1240  -19.1423 C   0  0  0  0  0  0  0  0  0  0  0  0
   32.5872  -23.4411  -19.1057 S   0  0  0  0  0  0  0  0  0  0  0  0
   31.7052  -23.2367  -17.5510 C   0  0  0  0  0  0  0  0  0  0  0  0
   30.8027  -24.3662  -17.2643 C   0  0  0  0  0  0  0  0  0  0  0  0
   29.4495  -24.4032  -17.8418 C   0  0  2  0  0  0  0  0  0  0  0  0
   28.6900  -23.3366  -17.1379 N   0  0  0  0  0  0  0  0  0  0  0  0
   28.6659  -25.6181  -17.7888 C   0  0  0  0  0  0  0  0  0  0  0  0
   27.9639  -26.0373  -16.8243 O   0  0  0  0  0  0  0  0  0  0  0  0
   24.2623  -32.6150  -21.1397 O   0  0  0  0  0  0  0  0  0  0  0  0
   25.0604  -31.4722  -20.9735 C   0  0  0  0  0  0  0  0  0  0  0  0
   24.5397  -30.3476  -20.3823 C   0  0  0  0  0  0  0  0  0  0  0  0
   25.3291  -29.2093  -20.2149 C   0  0  0  0  0  0  0  0  0  0  0  0
   26.6412  -29.1757  -20.6315 C   0  0  0  0  0  0  0  0  0  0  0  0
   27.4449  -27.9796  -20.4356 C   0  0  0  0  0  0  0  0  0  0  0  0
   27.8757  -27.6971  -19.0196 C   0  0  2  0  0  0  0  0  0  0  0  0
   28.6510  -26.4876  -18.9408 N   0  0  0  0  0  0  0  0  0  0  0  0
   28.7682  -28.8362  -18.6487 C   0  0  0  0  0  0  0  0  0  0  0  0
   29.9737  -28.7687  -18.9482 O   0  0  0  0  0  0  0  0  0  0  0  0
   27.1516  -30.3085  -21.2227 C   0  0  0  0  0  0  0  0  0  0  0  0
   26.3689  -31.4538  -21.3951 C   0  0  0  0  0  0  0  0  0  0  0  0
   28.2891  -29.9829  -17.9716 N   0  0  0  0  0  0  0  0  0  0  0  0
   29.1974  -31.0071  -17.4981 C   0  0  1  0  0  0  0  0  0  0  0  0
   28.7396  -31.6048  -16.1910 C   0  0  0  0  0  0  0  0  0  0  0  0
   29.7650  -33.0102  -15.7310 S   0  0  0  0  0  0  0  0  0  0  0  0
   29.3729  -32.0513  -18.5227 C   0  0  0  0  0  0  0  0  0  0  0  0
   30.6101  -32.6251  -18.7418 O   0  0  0  0  0  0  0  0  0  0  0  0
   28.4030  -32.4459  -19.2223 O   0  0  0  0  0  0  0  0  0  0  0  0
  2  1  1  0
  3  2  1  0
  4  3  1  0
  4  5  1  0
  5  7  1  0
  5  6  1  1
  7  8  2  0
  9 10  1  0
 10 11  2  0
 10 20  1  0
 11 12  1  0
 12 13  2  0
 13 14  1  0
 15 14  1  6
 16 15  1  0
 16  7  1  0
 17 18  2  0
 17 15  1  0
 19 13  1  0
 20 19  2  0
 21 17  1  0
 22 25  1  0
 22 21  1  0
 22 23  1  1
 24 23  1  0
 25 26  1  0
 27 25  2  0
M  END
$$$$
