MYC.pdb
     RDKit          3D

 27 27  0  0  1  0  0  0  0  0999 V2000
   28.7160  -21.4565  -17.3381 C   0  0  0  0  0  0  0  0  0  0  0  0
   27.0812  -22.2367  -17.4268 S   0  0  0  0  0  0  0  0  0  0  0  0
   26.6524  -22.8027  -15.7737 C   0  0  0  0  0  0  0  0  0  0  0  0
   26.5735  -21.6957  -14.8036 C   0  0  0  0  0  0  0  0  0  0  0  0
   25.5963  -21.7374  -13.7040 C   0  0  2  0  0  0  0  0  0  0  0  0
   24.2623  -21.7040  -14.3592 N   0  0  0  0  0  0  0  0  0  0  0  0
   25.6129  -20.7222  -12.6735 C   0  0  0  0  0  0  0  0  0  0  0  0
   25.7634  -19.4760  -12.8260 O   0  0  0  0  0  0  0  0  0  0  0  0
   19.6339  -20.5788  -12.6722 O   0  0  0  0  0  0  0  0  0  0  0  0
   20.7756  -20.4529  -11.8653 C   0  0  0  0  0  0  0  0  0  0  0  0
   21.9924  -20.1646  -12.4325 C   0  0  0  0  0  0  0  0  0  0  0  0
   23.1300  -20.0383  -11.6346 C   0  0  0  0  0  0  0  0  0  0  0  0
   23.0718  -20.1964  -10.2679 C   0  0  0  0  0  0  0  0  0  0  0  0
   24.2711  -20.0493   -9.4586 C   0  0  0  0  0  0  0  0  0  0  0  0
   25.5818  -20.2280  -10.1802 C   0  0  2  0  0  0  0  0  0  0  0  0
   25.4451  -21.1243  -11.2975 N   0  0  0  0  0  0  0  0  0  0  0  0
   26.4900  -20.8739   -9.1855 C   0  0  0  0  0  0  0  0  0  0  0  0
   26.3653  -22.0927   -8.9704 O   0  0  0  0  0  0  0  0  0  0  0  0
   21.8471  -20.4853   -9.7111 C   0  0  0  0  0  0  0  0  0  0  0  0
   20.7016  -20.6139  -10.5019 C   0  0  0  0  0  0  0  0  0  0  0  0
   27.4819  -20.1478   -8.4840 N   0  0  0  0  0  0  0  0  0  0  0  0
   27.9566  -20.5883   -7.1884 C   0  0  1  0  0  0  0  0  0  0  0  0
   29.4573  -20.4863   -7.0743 C   0  0  0  0  0  0  0  0  0  0  0  0
   30.0134  -18.8021   -7.3777 S   0  0  0  0  0  0  0  0  0  0  0  0
   27.2932  -19.8299   -6.1133 C   0  0  0  0  0  0  0  0  0  0  0  0
   26.4801  -18.7526   -6.4070 O   0  0  0  0  0  0  0  0  0  0  0  0
   27.4500  -20.1433   -4.9039 O   0  0  0  0  0  0  0  0  0  0  0  0
  2  1  1  0
  3  2  1  0
  4  3  1  0
  4  5  1  0
  5  7  1  0
  5  6  1  6
  7  8  2  0
  9 10  1  0
 10 11  2  0
 10 20  1  0
 11 12  1  0
 12 13  2  0
 13 14  1  0
 15 14  1  1
 16 15  1  0
 16  7  1  0
 17 18  2  0
 17 15  1  0
 19 13  1  0
 20 19  2  0
 21 17  1  0
 22 25  1  0
 22 21  1  0
 22 23  1  6
 24 23  1  0
 25 26  1  0
 27 25  2  0
M  END
$$$$
