AHD.pdb
     RDKit          3D

 24 24  0  0  1  0  0  0  0  0999 V2000
   26.0884  -20.7980   -9.7447 C   0  0  0  0  0  0  0  0  0  0  0  0
   26.4039  -21.2513  -11.1600 C   0  0  2  0  0  0  0  0  0  0  0  0
   27.8044  -21.0536  -11.3849 N   0  0  0  0  0  0  0  0  0  0  0  0
   25.5944  -20.3993  -12.1206 C   0  0  0  0  0  0  0  0  0  0  0  0
   25.5463  -19.1601  -11.9537 O   0  0  0  0  0  0  0  0  0  0  0  0
   24.9009  -20.9924  -13.1931 N   0  0  0  0  0  0  0  0  0  0  0  0
   24.1847  -20.4053  -14.2644 C   0  0  1  0  0  0  0  0  0  0  0  0
   24.7927  -20.5553  -15.6420 C   0  0  0  0  0  0  0  0  0  0  0  0
   25.9972  -19.7542  -15.8687 C   0  0  0  0  0  0  0  0  0  0  0  0
   26.5577  -18.8117  -15.0410 C   0  0  0  0  0  0  0  0  0  0  0  0
   27.6210  -18.2554  -15.6364 N   0  0  0  0  0  0  0  0  0  0  0  0
   27.7157  -18.8554  -16.8318 C   0  0  0  0  0  0  0  0  0  0  0  0
   26.7357  -19.7671  -16.9844 N   0  0  0  0  0  0  0  0  0  0  0  0
   22.7480  -20.6597  -14.3222 C   0  0  0  0  0  0  0  0  0  0  0  0
   22.2199  -21.7453  -13.9300 O   0  0  0  0  0  0  0  0  0  0  0  0
   21.8436  -19.7006  -14.8232 N   0  0  0  0  0  0  0  0  0  0  0  0
   20.3793  -19.9257  -14.7669 C   0  0  1  0  0  0  0  0  0  0  0  0
   19.8965  -19.0739  -13.6376 C   0  0  0  0  0  0  0  0  0  0  0  0
   18.4740  -19.1122  -13.3487 C   0  0  0  0  0  0  0  0  0  0  0  0
   17.6692  -19.8015  -14.0079 O   0  0  0  0  0  0  0  0  0  0  0  0
   19.8752  -19.3484  -16.0405 C   0  0  0  0  0  0  0  0  0  0  0  0
   20.4369  -18.3442  -16.5324 O   0  0  0  0  0  0  0  0  0  0  0  0
   17.9823  -18.3541  -12.2984 O   0  0  0  0  0  0  0  0  0  0  0  0
   18.7945  -19.8501  -16.7538 O   0  0  0  0  0  0  0  0  0  0  0  0
  2  1  1  1
  2  3  1  0
  4  2  1  0
  4  5  2  0
  6  7  1  0
  6  4  1  0
  7  8  1  6
  9  8  1  0
 10  9  2  0
 11 10  1  0
 12 11  1  0
 12 13  2  0
 13  9  1  0
 14  7  1  0
 15 14  2  0
 16 14  1  0
 17 16  1  0
 17 21  1  0
 17 18  1  1
 19 20  2  0
 19 18  1  0
 21 24  1  0
 22 21  2  0
 23 19  1  0
M  END
$$$$
