AHD.pdb
     RDKit          3D

 24 24  0  0  1  0  0  0  0  0999 V2000
   39.9415  -29.0503  -18.0358 C   0  0  0  0  0  0  0  0  0  0  0  0
   39.6786  -29.6174  -16.6511 C   0  0  2  0  0  0  0  0  0  0  0  0
   40.9158  -30.1276  -16.1409 N   0  0  0  0  0  0  0  0  0  0  0  0
   38.6654  -30.7397  -16.7846 C   0  0  0  0  0  0  0  0  0  0  0  0
   39.0226  -31.8375  -17.2671 O   0  0  0  0  0  0  0  0  0  0  0  0
   37.3324  -30.5533  -16.3707 N   0  0  0  0  0  0  0  0  0  0  0  0
   36.2464  -31.4610  -16.3243 C   0  0  1  0  0  0  0  0  0  0  0  0
   35.3698  -31.3983  -15.0924 C   0  0  0  0  0  0  0  0  0  0  0  0
   35.9205  -32.0734  -13.9156 C   0  0  0  0  0  0  0  0  0  0  0  0
   37.0353  -32.8727  -13.8400 C   0  0  0  0  0  0  0  0  0  0  0  0
   37.1698  -33.3528  -12.5965 N   0  0  0  0  0  0  0  0  0  0  0  0
   36.1371  -32.8488  -11.9055 C   0  0  0  0  0  0  0  0  0  0  0  0
   35.3718  -32.0707  -12.6953 N   0  0  0  0  0  0  0  0  0  0  0  0
   35.4181  -31.5686  -17.5218 C   0  0  0  0  0  0  0  0  0  0  0  0
   34.8202  -30.5773  -18.0425 O   0  0  0  0  0  0  0  0  0  0  0  0
   35.2288  -32.7983  -18.1858 N   0  0  0  0  0  0  0  0  0  0  0  0
   34.3788  -32.8920  -19.3969 C   0  0  1  0  0  0  0  0  0  0  0  0
   34.6267  -34.2611  -19.9429 C   0  0  0  0  0  0  0  0  0  0  0  0
   33.8591  -34.6498  -21.1126 C   0  0  0  0  0  0  0  0  0  0  0  0
   33.1865  -33.8373  -21.7797 O   0  0  0  0  0  0  0  0  0  0  0  0
   32.9902  -32.8401  -18.8694 C   0  0  0  0  0  0  0  0  0  0  0  0
   32.7361  -33.3188  -17.7415 O   0  0  0  0  0  0  0  0  0  0  0  0
   33.8690  -35.9768  -21.5108 O   0  0  0  0  0  0  0  0  0  0  0  0
   31.9145  -32.2846  -19.5497 O   0  0  0  0  0  0  0  0  0  0  0  0
  2  1  1  6
  2  3  1  0
  4  2  1  0
  4  5  2  0
  6  7  1  0
  6  4  1  0
  7  8  1  1
  9  8  1  0
 10  9  2  0
 11 10  1  0
 12 11  1  0
 12 13  2  0
 13  9  1  0
 14  7  1  0
 15 14  2  0
 16 14  1  0
 17 16  1  0
 17 21  1  0
 17 18  1  1
 19 20  2  0
 19 18  1  0
 21 24  1  0
 22 21  2  0
 23 19  1  0
M  END
$$$$
