AHD.pdb
     RDKit          3D

 24 24  0  0  1  0  0  0  0  0999 V2000
   19.7209  -11.7370  -17.8900 C   0  0  0  0  0  0  0  0  0  0  0  0
   20.2531  -10.3909  -18.3516 C   0  0  2  0  0  0  0  0  0  0  0  0
   21.2059  -10.6271  -19.3944 N   0  0  0  0  0  0  0  0  0  0  0  0
   20.9271   -9.7185  -17.1695 C   0  0  0  0  0  0  0  0  0  0  0  0
   20.2523   -9.4379  -16.1539 O   0  0  0  0  0  0  0  0  0  0  0  0
   22.3006   -9.4104  -17.2090 N   0  0  0  0  0  0  0  0  0  0  0  0
   23.1271   -8.7616  -16.2597 C   0  0  1  0  0  0  0  0  0  0  0  0
   24.5540   -9.2558  -16.1610 C   0  0  0  0  0  0  0  0  0  0  0  0
   24.6889  -10.7054  -16.0052 C   0  0  0  0  0  0  0  0  0  0  0  0
   23.6927  -11.6387  -15.8501 C   0  0  0  0  0  0  0  0  0  0  0  0
   24.2285  -12.8542  -15.6760 N   0  0  0  0  0  0  0  0  0  0  0  0
   25.5557  -12.6696  -15.7237 C   0  0  0  0  0  0  0  0  0  0  0  0
   25.8476  -11.3697  -15.9231 N   0  0  0  0  0  0  0  0  0  0  0  0
   23.1020   -7.3018  -16.2437 C   0  0  0  0  0  0  0  0  0  0  0  0
   23.3843   -6.5924  -17.2578 O   0  0  0  0  0  0  0  0  0  0  0  0
   22.7558   -6.5777  -15.0840 N   0  0  0  0  0  0  0  0  0  0  0  0
   22.6147   -5.1022  -15.1160 C   0  0  1  0  0  0  0  0  0  0  0  0
   21.4142   -4.8432  -15.9678 C   0  0  0  0  0  0  0  0  0  0  0  0
   20.9231   -3.4774  -16.0117 C   0  0  0  0  0  0  0  0  0  0  0  0
   19.7078   -3.1978  -16.0598 O   0  0  0  0  0  0  0  0  0  0  0  0
   22.2831   -4.7399  -13.7130 C   0  0  0  0  0  0  0  0  0  0  0  0
   22.1387   -3.5370  -13.3998 O   0  0  0  0  0  0  0  0  0  0  0  0
   21.8364   -2.4355  -15.9999 O   0  0  0  0  0  0  0  0  0  0  0  0
   22.1144   -5.6593  -12.6861 O   0  0  0  0  0  0  0  0  0  0  0  0
  2  1  1  1
  2  3  1  0
  4  2  1  0
  4  5  2  0
  6  7  1  0
  6  4  1  0
  7  8  1  6
  9  8  1  0
 10  9  2  0
 11 10  1  0
 12 11  1  0
 12 13  2  0
 13  9  1  0
 14  7  1  0
 15 14  2  0
 16 14  1  0
 17 16  1  0
 17 21  1  0
 17 18  1  6
 19 20  2  0
 19 18  1  0
 21 24  1  0
 22 21  2  0
 23 19  1  0
M  END
$$$$
