AHD.pdb
     RDKit          3D

 24 24  0  0  1  0  0  0  0  0999 V2000
   21.9582  -13.4311  -17.0194 C   0  0  0  0  0  0  0  0  0  0  0  0
   21.8286  -12.0594  -17.6597 C   0  0  2  0  0  0  0  0  0  0  0  0
   22.6602  -12.0362  -18.8254 N   0  0  0  0  0  0  0  0  0  0  0  0
   22.3037  -11.0232  -16.6574 C   0  0  0  0  0  0  0  0  0  0  0  0
   21.7690  -10.9692  -15.5275 O   0  0  0  0  0  0  0  0  0  0  0  0
   23.3376  -10.1270  -16.9903 N   0  0  0  0  0  0  0  0  0  0  0  0
   23.8446   -9.0045  -16.2915 C   0  0  1  0  0  0  0  0  0  0  0  0
   25.3324   -8.7548  -16.4095 C   0  0  0  0  0  0  0  0  0  0  0  0
   26.1719   -9.9201  -16.1246 C   0  0  0  0  0  0  0  0  0  0  0  0
   25.8547  -11.0346  -15.3865 C   0  0  0  0  0  0  0  0  0  0  0  0
   26.9164  -11.8477  -15.3076 N   0  0  0  0  0  0  0  0  0  0  0  0
   27.8885  -11.2338  -15.9976 C   0  0  0  0  0  0  0  0  0  0  0  0
   27.4488  -10.0630  -16.4983 N   0  0  0  0  0  0  0  0  0  0  0  0
   23.1145   -7.7479  -16.4327 C   0  0  0  0  0  0  0  0  0  0  0  0
   22.9232   -7.1793  -17.5514 O   0  0  0  0  0  0  0  0  0  0  0  0
   22.5666   -7.0782  -15.3191 N   0  0  0  0  0  0  0  0  0  0  0  0
   21.7881   -5.8274  -15.4843 C   0  0  1  0  0  0  0  0  0  0  0  0
   20.3556   -6.2443  -15.3941 C   0  0  0  0  0  0  0  0  0  0  0  0
   19.3626   -5.1849  -15.3964 C   0  0  0  0  0  0  0  0  0  0  0  0
   19.6479   -3.9923  -15.6279 O   0  0  0  0  0  0  0  0  0  0  0  0
   22.1231   -5.0302  -14.2753 C   0  0  0  0  0  0  0  0  0  0  0  0
   21.6779   -3.8669  -14.1555 O   0  0  0  0  0  0  0  0  0  0  0  0
   18.0407   -5.5041  -15.1312 O   0  0  0  0  0  0  0  0  0  0  0  0
   22.9174   -5.4870  -13.2318 O   0  0  0  0  0  0  0  0  0  0  0  0
  2  1  1  1
  2  3  1  0
  4  2  1  0
  4  5  2  0
  6  7  1  0
  6  4  1  0
  7  8  1  6
  9  8  1  0
 10  9  2  0
 11 10  1  0
 12 11  1  0
 12 13  2  0
 13  9  1  0
 14  7  1  0
 15 14  2  0
 16 14  1  0
 17 16  1  0
 17 21  1  0
 17 18  1  1
 19 20  2  0
 19 18  1  0
 21 24  1  0
 22 21  2  0
 23 19  1  0
M  END
$$$$
