AHD.pdb
     RDKit          3D

 24 24  0  0  1  0  0  0  0  0999 V2000
   21.2021  -12.8902  -19.3843 C   0  0  0  0  0  0  0  0  0  0  0  0
   21.5503  -11.4150  -19.2793 C   0  0  2  0  0  0  0  0  0  0  0  0
   22.7535  -11.2992  -18.5111 N   0  0  0  0  0  0  0  0  0  0  0  0
   20.4080  -10.7091  -18.5717 C   0  0  0  0  0  0  0  0  0  0  0  0
   19.2634  -10.7313  -19.0768 O   0  0  0  0  0  0  0  0  0  0  0  0
   20.6279  -10.0326  -17.3564 N   0  0  0  0  0  0  0  0  0  0  0  0
   19.7508   -9.2524  -16.5643 C   0  0  1  0  0  0  0  0  0  0  0  0
   19.3746   -9.8248  -15.2149 C   0  0  0  0  0  0  0  0  0  0  0  0
   18.6415  -11.0909  -15.2712 C   0  0  0  0  0  0  0  0  0  0  0  0
   19.1334  -12.3641  -15.1144 C   0  0  0  0  0  0  0  0  0  0  0  0
   18.1534  -13.2585  -15.2999 N   0  0  0  0  0  0  0  0  0  0  0  0
   17.0570  -12.5359  -15.5712 C   0  0  0  0  0  0  0  0  0  0  0  0
   17.3405  -11.2190  -15.5567 N   0  0  0  0  0  0  0  0  0  0  0  0
   20.0579   -7.8308  -16.4358 C   0  0  0  0  0  0  0  0  0  0  0  0
   20.9968   -7.3877  -15.7054 O   0  0  0  0  0  0  0  0  0  0  0  0
   19.3210   -6.8465  -17.1264 N   0  0  0  0  0  0  0  0  0  0  0  0
   19.7024   -5.4154  -17.0579 C   0  0  1  0  0  0  0  0  0  0  0  0
   19.0226   -4.7739  -18.2242 C   0  0  0  0  0  0  0  0  0  0  0  0
   19.1814   -3.3377  -18.3675 C   0  0  0  0  0  0  0  0  0  0  0  0
   19.8827   -2.6551  -17.5931 O   0  0  0  0  0  0  0  0  0  0  0  0
   19.0569   -4.9282  -15.8107 C   0  0  0  0  0  0  0  0  0  0  0  0
   19.1463   -3.7204  -15.4962 O   0  0  0  0  0  0  0  0  0  0  0  0
   18.5301   -2.6911  -19.4055 O   0  0  0  0  0  0  0  0  0  0  0  0
   18.3379   -5.7320  -14.9358 O   0  0  0  0  0  0  0  0  0  0  0  0
  2  1  1  1
  2  3  1  0
  4  2  1  0
  4  5  2  0
  6  7  1  0
  6  4  1  0
  7  8  1  1
  9  8  1  0
 10  9  2  0
 11 10  1  0
 12 11  1  0
 12 13  2  0
 13  9  1  0
 14  7  1  0
 15 14  2  0
 16 14  1  0
 17 16  1  0
 17 21  1  0
 17 18  1  6
 19 20  2  0
 19 18  1  0
 21 24  1  0
 22 21  2  0
 23 19  1  0
M  END
$$$$
