AHD.pdb
     RDKit          3D

 24 24  0  0  1  0  0  0  0  0999 V2000
   22.3419  -12.5546  -19.5191 C   0  0  0  0  0  0  0  0  0  0  0  0
   23.1171  -11.8504  -18.4184 C   0  0  2  0  0  0  0  0  0  0  0  0
   23.3329  -12.7906  -17.3597 N   0  0  0  0  0  0  0  0  0  0  0  0
   22.2798  -10.6860  -17.9213 C   0  0  0  0  0  0  0  0  0  0  0  0
   21.9566   -9.7762  -18.7172 O   0  0  0  0  0  0  0  0  0  0  0  0
   21.8668  -10.6242  -16.5765 N   0  0  0  0  0  0  0  0  0  0  0  0
   21.0960   -9.6526  -15.8930 C   0  0  1  0  0  0  0  0  0  0  0  0
   20.0748  -10.1764  -14.9067 C   0  0  0  0  0  0  0  0  0  0  0  0
   19.0124  -10.9897  -15.5013 C   0  0  0  0  0  0  0  0  0  0  0  0
   18.0085  -10.5868  -16.3483 C   0  0  0  0  0  0  0  0  0  0  0  0
   17.1983  -11.6187  -16.6198 N   0  0  0  0  0  0  0  0  0  0  0  0
   17.7034  -12.6579  -15.9395 C   0  0  0  0  0  0  0  0  0  0  0  0
   18.8045  -12.2887  -15.2569 N   0  0  0  0  0  0  0  0  0  0  0  0
   21.8142   -8.5206  -15.3145 C   0  0  0  0  0  0  0  0  0  0  0  0
   22.8272   -8.6541  -14.5613 O   0  0  0  0  0  0  0  0  0  0  0  0
   21.4228   -7.1883  -15.5612 N   0  0  0  0  0  0  0  0  0  0  0  0
   22.2575   -6.0489  -15.1105 C   0  0  1  0  0  0  0  0  0  0  0  0
   21.8344   -4.8948  -15.9608 C   0  0  0  0  0  0  0  0  0  0  0  0
   22.4330   -3.6059  -15.6624 C   0  0  0  0  0  0  0  0  0  0  0  0
   23.4436   -3.4814  -14.9408 O   0  0  0  0  0  0  0  0  0  0  0  0
   21.8049   -5.7976  -13.7172 C   0  0  0  0  0  0  0  0  0  0  0  0
   20.6185   -6.0345  -13.3974 O   0  0  0  0  0  0  0  0  0  0  0  0
   21.8637   -2.4618  -16.1978 O   0  0  0  0  0  0  0  0  0  0  0  0
   22.6194   -5.3043  -12.7065 O   0  0  0  0  0  0  0  0  0  0  0  0
  2  1  1  6
  2  3  1  0
  4  2  1  0
  4  5  2  0
  6  7  1  0
  6  4  1  0
  7  8  1  1
  9  8  1  0
 10  9  2  0
 11 10  1  0
 12 11  1  0
 12 13  2  0
 13  9  1  0
 14  7  1  0
 15 14  2  0
 16 14  1  0
 17 16  1  0
 17 21  1  0
 17 18  1  6
 19 20  2  0
 19 18  1  0
 21 24  1  0
 22 21  2  0
 23 19  1  0
M  END
$$$$
