AHD.pdb
     RDKit          3D

 24 24  0  0  1  0  0  0  0  0999 V2000
   23.9219  -11.9913  -20.4098 C   0  0  0  0  0  0  0  0  0  0  0  0
   23.8885  -10.8145  -19.4494 C   0  0  2  0  0  0  0  0  0  0  0  0
   25.2039  -10.6496  -18.9075 N   0  0  0  0  0  0  0  0  0  0  0  0
   22.9027  -11.1367  -18.3411 C   0  0  0  0  0  0  0  0  0  0  0  0
   21.6976  -11.3206  -18.6233 O   0  0  0  0  0  0  0  0  0  0  0  0
   23.3345  -11.2295  -17.0040 N   0  0  0  0  0  0  0  0  0  0  0  0
   22.6058  -11.4784  -15.8156 C   0  0  1  0  0  0  0  0  0  0  0  0
   23.2548  -12.4051  -14.8105 C   0  0  0  0  0  0  0  0  0  0  0  0
   24.0270  -13.5007  -15.3995 C   0  0  0  0  0  0  0  0  0  0  0  0
   25.3923  -13.6209  -15.4955 C   0  0  0  0  0  0  0  0  0  0  0  0
   25.7066  -14.7416  -16.1589 N   0  0  0  0  0  0  0  0  0  0  0  0
   24.5343  -15.3122  -16.4718 C   0  0  0  0  0  0  0  0  0  0  0  0
   23.5075  -14.5685  -16.0163 N   0  0  0  0  0  0  0  0  0  0  0  0
   22.0335  -10.3221  -15.1319 C   0  0  0  0  0  0  0  0  0  0  0  0
   21.2150  -10.4224  -14.1669 O   0  0  0  0  0  0  0  0  0  0  0  0
   22.3603   -9.0020  -15.5052 N   0  0  0  0  0  0  0  0  0  0  0  0
   21.7397   -7.8385  -14.8276 C   0  0  1  0  0  0  0  0  0  0  0  0
   22.8354   -6.8297  -14.7021 C   0  0  0  0  0  0  0  0  0  0  0  0
   22.4734   -5.5320  -14.1603 C   0  0  0  0  0  0  0  0  0  0  0  0
   21.8082   -5.3991  -13.1128 O   0  0  0  0  0  0  0  0  0  0  0  0
   20.7463   -7.3342  -15.8117 C   0  0  0  0  0  0  0  0  0  0  0  0
   20.8784   -7.6111  -17.0248 O   0  0  0  0  0  0  0  0  0  0  0  0
   22.8802   -4.3888  -14.8291 O   0  0  0  0  0  0  0  0  0  0  0  0
   19.6456   -6.5540  -15.4831 O   0  0  0  0  0  0  0  0  0  0  0  0
  2  1  1  6
  2  3  1  0
  4  2  1  0
  4  5  2  0
  6  7  1  0
  6  4  1  0
  7  8  1  1
  9  8  1  0
 10  9  2  0
 11 10  1  0
 12 11  1  0
 12 13  2  0
 13  9  1  0
 14  7  1  0
 15 14  2  0
 16 14  1  0
 17 16  1  0
 17 21  1  0
 17 18  1  6
 19 20  2  0
 19 18  1  0
 21 24  1  0
 22 21  2  0
 23 19  1  0
M  END
$$$$
