YIF.pdb
     RDKit          3D

 32 33  0  0  1  0  0  0  0  0999 V2000
    9.4737  -22.9841   15.8795 O   0  0  0  0  0  0  0  0  0  0  0  0
    9.6857  -21.7874   16.5662 C   0  0  0  0  0  0  0  0  0  0  0  0
    9.1152  -20.6262   16.1227 C   0  0  0  0  0  0  0  0  0  0  0  0
    9.2958  -19.4413   16.7612 C   0  0  0  0  0  0  0  0  0  0  0  0
   10.0750  -19.3918   17.8916 C   0  0  0  0  0  0  0  0  0  0  0  0
   10.2860  -18.1114   18.5623 C   0  0  0  0  0  0  0  0  0  0  0  0
    9.7624  -18.1424   19.9662 C   0  0  2  0  0  0  0  0  0  0  0  0
    8.3057  -18.3555   19.9253 N   0  0  0  0  0  0  0  0  0  0  0  0
    9.9882  -16.8312   20.6117 C   0  0  0  0  0  0  0  0  0  0  0  0
   11.1425  -16.3224   20.5171 O   0  0  0  0  0  0  0  0  0  0  0  0
   10.6680  -20.5325   18.3732 C   0  0  0  0  0  0  0  0  0  0  0  0
   10.4655  -21.7186   17.7032 C   0  0  0  0  0  0  0  0  0  0  0  0
    7.0055  -12.6837   19.8586 C   0  0  0  0  0  0  0  0  0  0  0  0
    8.1681  -13.5406   20.2428 C   0  0  0  0  0  0  0  0  0  0  0  0
    8.1452  -13.8999   21.7245 C   0  0  2  0  0  0  0  0  0  0  0  0
    8.1492  -12.6989   22.5960 C   0  0  0  0  0  0  0  0  0  0  0  0
    9.2555  -14.8684   22.0522 C   0  0  2  0  0  0  0  0  0  0  0  0
    8.9855  -16.1398   21.3172 N   0  0  0  0  0  0  0  0  0  0  0  0
    9.3807  -15.1640   23.4853 C   0  0  0  0  0  0  0  0  0  0  0  0
   10.3029  -14.5595   24.1419 O   0  0  0  0  0  0  0  0  0  0  0  0
    8.6053  -16.0395   24.2587 N   0  0  0  0  0  0  0  0  0  0  0  0
    8.8036  -16.2643   25.6953 C   0  0  1  0  0  0  0  0  0  0  0  0
    7.5451  -16.0178   26.4628 C   0  0  0  0  0  0  0  0  0  0  0  0
    7.2518  -14.5731   26.4932 C   0  0  0  0  0  0  0  0  0  0  0  0
    6.0840  -14.0285   26.0358 C   0  0  0  0  0  0  0  0  0  0  0  0
    5.8453  -12.6842   26.0808 C   0  0  0  0  0  0  0  0  0  0  0  0
    6.8177  -11.8404   26.6073 C   0  0  0  0  0  0  0  0  0  0  0  0
    8.0086  -12.3395   27.0802 C   0  0  0  0  0  0  0  0  0  0  0  0
    8.1937  -13.7122   27.0082 C   0  0  0  0  0  0  0  0  0  0  0  0
    9.4381  -17.5620   25.9497 C   0  0  0  0  0  0  0  0  0  0  0  0
    9.6157  -17.9324   27.1362 O   0  0  0  0  0  0  0  0  0  0  0  0
    9.8638  -18.4296   24.9661 O   0  0  0  0  0  0  0  0  0  0  0  0
  2  1  1  0
  3  2  2  0
  4  3  1  0
  5 11  1  0
  5  4  2  0
  6  5  1  0
  7  8  1  6
  7  6  1  0
  9 10  2  0
  9  7  1  0
 11 12  2  0
 12  2  1  0
 14 13  1  0
 15 14  1  0
 15 16  1  1
 17 15  1  0
 17 18  1  6
 18  9  1  0
 19 17  1  0
 20 19  2  0
 21 19  1  0
 22 23  1  1
 22 21  1  0
 23 24  1  0
 24 29  1  0
 25 24  2  0
 25 26  1  0
 26 27  2  0
 27 28  1  0
 29 28  2  0
 30 32  1  0
 30 22  1  0
 31 30  2  0
M  END
$$$$
