YIF.pdb
     RDKit          3D

 32 33  0  0  1  0  0  0  0  0999 V2000
    6.1630  -23.7614   29.3331 O   0  0  0  0  0  0  0  0  0  0  0  0
    6.4531  -22.6363   28.5595 C   0  0  0  0  0  0  0  0  0  0  0  0
    7.7507  -22.3033   28.2840 C   0  0  0  0  0  0  0  0  0  0  0  0
    8.0760  -21.2178   27.5355 C   0  0  0  0  0  0  0  0  0  0  0  0
    7.0792  -20.4181   27.0316 C   0  0  0  0  0  0  0  0  0  0  0  0
    7.4335  -19.2382   26.2466 C   0  0  0  0  0  0  0  0  0  0  0  0
    6.4008  -18.9548   25.1981 C   0  0  2  0  0  0  0  0  0  0  0  0
    6.3661  -20.0804   24.2490 N   0  0  0  0  0  0  0  0  0  0  0  0
    6.7887  -17.7535   24.4280 C   0  0  0  0  0  0  0  0  0  0  0  0
    7.1874  -17.9228   23.2394 O   0  0  0  0  0  0  0  0  0  0  0  0
    5.7621  -20.7133   27.2827 C   0  0  0  0  0  0  0  0  0  0  0  0
    5.4649  -21.8212   28.0451 C   0  0  0  0  0  0  0  0  0  0  0  0
    5.2053  -12.9034   26.2374 C   0  0  0  0  0  0  0  0  0  0  0  0
    5.6063  -13.9354   25.2335 C   0  0  0  0  0  0  0  0  0  0  0  0
    7.1218  -14.0606   25.1205 C   0  0  2  0  0  0  0  0  0  0  0  0
    7.7485  -12.8374   24.5611 C   0  0  0  0  0  0  0  0  0  0  0  0
    7.4953  -15.3119   24.3636 C   0  0  2  0  0  0  0  0  0  0  0  0
    6.7342  -16.4507   24.9581 N   0  0  0  0  0  0  0  0  0  0  0  0
    8.9297  -15.6241   24.4052 C   0  0  0  0  0  0  0  0  0  0  0  0
    9.6960  -15.0264   23.5670 O   0  0  0  0  0  0  0  0  0  0  0  0
    9.5975  -16.5093   25.2632 N   0  0  0  0  0  0  0  0  0  0  0  0
   11.0547  -16.5492   25.4331 C   0  0  1  0  0  0  0  0  0  0  0  0
   11.5514  -15.3363   26.1512 C   0  0  0  0  0  0  0  0  0  0  0  0
   10.8766  -15.2157   27.4567 C   0  0  0  0  0  0  0  0  0  0  0  0
   11.1380  -16.0326   28.5216 C   0  0  0  0  0  0  0  0  0  0  0  0
   10.4940  -15.8911   29.7180 C   0  0  0  0  0  0  0  0  0  0  0  0
    9.5427  -14.8865   29.8611 C   0  0  0  0  0  0  0  0  0  0  0  0
    9.2444  -14.0393   28.8198 C   0  0  0  0  0  0  0  0  0  0  0  0
    9.9306  -14.2316   27.6299 C   0  0  0  0  0  0  0  0  0  0  0  0
   11.4905  -17.8275   26.0052 C   0  0  0  0  0  0  0  0  0  0  0  0
   10.6362  -18.7215   26.2230 O   0  0  0  0  0  0  0  0  0  0  0  0
   12.7953  -18.1340   26.3291 O   0  0  0  0  0  0  0  0  0  0  0  0
  2  1  1  0
  3  2  2  0
  4  3  1  0
  5 11  1  0
  5  4  2  0
  6  5  1  0
  7  8  1  6
  7  6  1  0
  9 10  2  0
  9  7  1  0
 11 12  2  0
 12  2  1  0
 14 13  1  0
 15 14  1  0
 15 16  1  6
 17 15  1  0
 17 18  1  1
 18  9  1  0
 19 17  1  0
 20 19  2  0
 21 19  1  0
 22 23  1  1
 22 21  1  0
 23 24  1  0
 24 29  1  0
 25 24  2  0
 25 26  1  0
 26 27  2  0
 27 28  1  0
 29 28  2  0
 30 32  1  0
 30 22  1  0
 31 30  2  0
M  END
$$$$
