YIF.pdb
     RDKit          3D

 32 33  0  0  1  0  0  0  0  0999 V2000
   14.1576  -22.8379   17.9720 O   0  0  0  0  0  0  0  0  0  0  0  0
   13.6560  -21.7610   18.7049 C   0  0  0  0  0  0  0  0  0  0  0  0
   14.4697  -21.0670   19.5576 C   0  0  0  0  0  0  0  0  0  0  0  0
   14.0218  -20.0136   20.2884 C   0  0  0  0  0  0  0  0  0  0  0  0
   12.7102  -19.6203   20.1780 C   0  0  0  0  0  0  0  0  0  0  0  0
   12.2262  -18.5016   20.9831 C   0  0  0  0  0  0  0  0  0  0  0  0
   11.6033  -17.4444   20.1227 C   0  0  2  0  0  0  0  0  0  0  0  0
   12.6671  -16.7527   19.3750 N   0  0  0  0  0  0  0  0  0  0  0  0
   10.9467  -16.4303   20.9755 C   0  0  0  0  0  0  0  0  0  0  0  0
   11.6838  -15.7359   21.7336 O   0  0  0  0  0  0  0  0  0  0  0  0
   11.8567  -20.2875   19.3348 C   0  0  0  0  0  0  0  0  0  0  0  0
   12.3413  -21.3517   18.6071 C   0  0  0  0  0  0  0  0  0  0  0  0
    7.1801  -13.1820   19.1198 C   0  0  0  0  0  0  0  0  0  0  0  0
    8.2880  -13.7366   19.9555 C   0  0  0  0  0  0  0  0  0  0  0  0
    7.7615  -14.5842   21.1086 C   0  0  2  0  0  0  0  0  0  0  0  0
    6.8270  -13.8313   21.9812 C   0  0  0  0  0  0  0  0  0  0  0  0
    8.9040  -15.2098   21.8713 C   0  0  2  0  0  0  0  0  0  0  0  0
    9.5560  -16.2127   20.9776 N   0  0  0  0  0  0  0  0  0  0  0  0
    8.4932  -15.8752   23.1144 C   0  0  0  0  0  0  0  0  0  0  0  0
    8.1526  -17.1107   23.0466 O   0  0  0  0  0  0  0  0  0  0  0  0
    8.4235  -15.3306   24.4045 N   0  0  0  0  0  0  0  0  0  0  0  0
    7.9933  -16.0786   25.5916 C   0  0  1  0  0  0  0  0  0  0  0  0
    8.4039  -15.3842   26.8497 C   0  0  0  0  0  0  0  0  0  0  0  0
    7.9682  -13.9761   26.8096 C   0  0  0  0  0  0  0  0  0  0  0  0
    6.6670  -13.5824   26.9555 C   0  0  0  0  0  0  0  0  0  0  0  0
    6.2993  -12.2674   26.9143 C   0  0  0  0  0  0  0  0  0  0  0  0
    7.2757  -11.2964   26.7181 C   0  0  0  0  0  0  0  0  0  0  0  0
    8.5981  -11.6416   26.5662 C   0  0  0  0  0  0  0  0  0  0  0  0
    8.9105  -12.9919   26.6172 C   0  0  0  0  0  0  0  0  0  0  0  0
    6.5711  -16.4288   25.5152 C   0  0  0  0  0  0  0  0  0  0  0  0
    5.8442  -15.8486   24.6717 O   0  0  0  0  0  0  0  0  0  0  0  0
    5.9539  -17.3684   26.3138 O   0  0  0  0  0  0  0  0  0  0  0  0
  2  1  1  0
  3  2  2  0
  4  3  1  0
  5 11  1  0
  5  4  2  0
  6  5  1  0
  7  8  1  1
  7  6  1  0
  9 10  2  0
  9  7  1  0
 11 12  2  0
 12  2  1  0
 14 13  1  0
 15 14  1  0
 15 16  1  1
 17 15  1  0
 17 18  1  6
 18  9  1  0
 19 17  1  0
 20 19  2  0
 21 19  1  0
 22 23  1  1
 22 21  1  0
 23 24  1  0
 24 29  1  0
 25 24  2  0
 25 26  1  0
 26 27  2  0
 27 28  1  0
 29 28  2  0
 30 32  1  0
 30 22  1  0
 31 30  2  0
M  END
$$$$
