YIF.pdb
     RDKit          3D

 32 33  0  0  1  0  0  0  0  0999 V2000
    6.5175  -24.5512   18.0975 O   0  0  0  0  0  0  0  0  0  0  0  0
    7.0846  -23.4078   18.6630 C   0  0  0  0  0  0  0  0  0  0  0  0
    6.2865  -22.4175   19.1658 C   0  0  0  0  0  0  0  0  0  0  0  0
    6.7973  -21.2899   19.7243 C   0  0  0  0  0  0  0  0  0  0  0  0
    8.1594  -21.1245   19.7935 C   0  0  0  0  0  0  0  0  0  0  0  0
    8.7051  -19.8999   20.3737 C   0  0  0  0  0  0  0  0  0  0  0  0
    8.3320  -18.7002   19.5567 C   0  0  2  0  0  0  0  0  0  0  0  0
    8.9181  -18.8397   18.2127 N   0  0  0  0  0  0  0  0  0  0  0  0
    8.9197  -17.4843   20.1590 C   0  0  0  0  0  0  0  0  0  0  0  0
   10.1806  -17.3818   20.1608 O   0  0  0  0  0  0  0  0  0  0  0  0
    8.9995  -22.0922   19.3012 C   0  0  0  0  0  0  0  0  0  0  0  0
    8.4505  -23.2243   18.7410 C   0  0  0  0  0  0  0  0  0  0  0  0
    7.0222  -12.5962   19.4353 C   0  0  0  0  0  0  0  0  0  0  0  0
    7.9259  -13.7454   19.7450 C   0  0  0  0  0  0  0  0  0  0  0  0
    7.9175  -14.0920   21.2299 C   0  0  2  0  0  0  0  0  0  0  0  0
    8.3092  -12.9405   22.0799 C   0  0  0  0  0  0  0  0  0  0  0  0
    8.7472  -15.3254   21.4911 C   0  0  2  0  0  0  0  0  0  0  0  0
    8.1433  -16.4545   20.7229 N   0  0  0  0  0  0  0  0  0  0  0  0
    8.8223  -15.7003   22.9091 C   0  0  0  0  0  0  0  0  0  0  0  0
    7.7269  -15.7354   23.5768 O   0  0  0  0  0  0  0  0  0  0  0  0
    9.9602  -16.0390   23.6549 N   0  0  0  0  0  0  0  0  0  0  0  0
   10.2503  -15.5184   24.9960 C   0  0  1  0  0  0  0  0  0  0  0  0
    9.1556  -15.8522   25.9571 C   0  0  0  0  0  0  0  0  0  0  0  0
    9.4528  -15.2673   27.2777 C   0  0  0  0  0  0  0  0  0  0  0  0
   10.2018  -15.8969   28.2327 C   0  0  0  0  0  0  0  0  0  0  0  0
   10.4584  -15.3240   29.4460 C   0  0  0  0  0  0  0  0  0  0  0  0
    9.9437  -14.0616   29.7219 C   0  0  0  0  0  0  0  0  0  0  0  0
    9.1847  -13.3874   28.7943 C   0  0  0  0  0  0  0  0  0  0  0  0
    8.9580  -14.0195   27.5808 C   0  0  0  0  0  0  0  0  0  0  0  0
   11.5965  -15.8993   25.4365 C   0  0  0  0  0  0  0  0  0  0  0  0
   12.5296  -15.0649   25.3387 O   0  0  0  0  0  0  0  0  0  0  0  0
   11.9268  -17.1298   25.9640 O   0  0  0  0  0  0  0  0  0  0  0  0
  2  1  1  0
  3  2  2  0
  4  3  1  0
  5 11  1  0
  5  4  2  0
  6  5  1  0
  7  8  1  6
  7  6  1  0
  9 10  2  0
  9  7  1  0
 11 12  2  0
 12  2  1  0
 14 13  1  0
 15 14  1  0
 15 16  1  1
 17 15  1  0
 17 18  1  6
 18  9  1  0
 19 17  1  0
 20 19  2  0
 21 19  1  0
 22 23  1  1
 22 21  1  0
 23 24  1  0
 24 29  1  0
 25 24  2  0
 25 26  1  0
 26 27  2  0
 27 28  1  0
 29 28  2  0
 30 32  1  0
 30 22  1  0
 31 30  2  0
M  END
$$$$
