YIF.pdb
     RDKit          3D

 32 33  0  0  1  0  0  0  0  0999 V2000
    3.9195  -24.2236   25.4965 O   0  0  0  0  0  0  0  0  0  0  0  0
    4.5968  -23.0451   25.1790 C   0  0  0  0  0  0  0  0  0  0  0  0
    4.0261  -22.1240   24.3444 C   0  0  0  0  0  0  0  0  0  0  0  0
    4.6506  -20.9652   24.0104 C   0  0  0  0  0  0  0  0  0  0  0  0
    5.8974  -20.6954   24.5201 C   0  0  0  0  0  0  0  0  0  0  0  0
    6.5760  -19.4588   24.1401 C   0  0  0  0  0  0  0  0  0  0  0  0
    6.7791  -19.3859   22.6571 C   0  0  2  0  0  0  0  0  0  0  0  0
    7.3449  -20.6636   22.1917 N   0  0  0  0  0  0  0  0  0  0  0  0
    7.7702  -18.3350   22.3406 C   0  0  0  0  0  0  0  0  0  0  0  0
    8.9920  -18.6631   22.3390 O   0  0  0  0  0  0  0  0  0  0  0  0
    6.5093  -21.5911   25.3616 C   0  0  0  0  0  0  0  0  0  0  0  0
    5.8499  -22.7572   25.6813 C   0  0  0  0  0  0  0  0  0  0  0  0
    7.4903  -12.3019   21.0797 C   0  0  0  0  0  0  0  0  0  0  0  0
    8.2555  -13.4749   21.6012 C   0  0  0  0  0  0  0  0  0  0  0  0
    7.6941  -14.7955   21.0855 C   0  0  2  0  0  0  0  0  0  0  0  0
    6.2215  -14.8831   21.2457 C   0  0  0  0  0  0  0  0  0  0  0  0
    8.4241  -15.9609   21.7076 C   0  0  2  0  0  0  0  0  0  0  0  0
    7.4127  -17.0055   22.0478 N   0  0  0  0  0  0  0  0  0  0  0  0
    9.1744  -15.6113   22.9208 C   0  0  0  0  0  0  0  0  0  0  0  0
   10.1983  -14.8485   22.7911 O   0  0  0  0  0  0  0  0  0  0  0  0
    8.9156  -16.0051   24.2412 N   0  0  0  0  0  0  0  0  0  0  0  0
    9.7408  -15.6195   25.3920 C   0  0  1  0  0  0  0  0  0  0  0  0
    9.9012  -14.1359   25.4728 C   0  0  0  0  0  0  0  0  0  0  0  0
    8.6065  -13.5089   25.7969 C   0  0  0  0  0  0  0  0  0  0  0  0
    7.8618  -12.8013   24.8946 C   0  0  0  0  0  0  0  0  0  0  0  0
    6.6648  -12.2346   25.2296 C   0  0  0  0  0  0  0  0  0  0  0  0
    6.1858  -12.3797   26.5274 C   0  0  0  0  0  0  0  0  0  0  0  0
    6.8976  -13.0822   27.4712 C   0  0  0  0  0  0  0  0  0  0  0  0
    8.1055  -13.6347   27.0723 C   0  0  0  0  0  0  0  0  0  0  0  0
    9.2684  -16.2578   26.6251 C   0  0  0  0  0  0  0  0  0  0  0  0
    8.2037  -16.9228   26.5989 O   0  0  0  0  0  0  0  0  0  0  0  0
    9.9169  -16.1858   27.8399 O   0  0  0  0  0  0  0  0  0  0  0  0
  2  1  1  0
  3  2  2  0
  4  3  1  0
  5 11  1  0
  5  4  2  0
  6  5  1  0
  7  8  1  1
  7  6  1  0
  9 10  2  0
  9  7  1  0
 11 12  2  0
 12  2  1  0
 14 13  1  0
 15 14  1  0
 15 16  1  1
 17 15  1  0
 17 18  1  1
 18  9  1  0
 19 17  1  0
 20 19  2  0
 21 19  1  0
 22 23  1  1
 22 21  1  0
 23 24  1  0
 24 29  1  0
 25 24  2  0
 25 26  1  0
 26 27  2  0
 27 28  1  0
 29 28  2  0
 30 32  1  0
 30 22  1  0
 31 30  2  0
M  END
$$$$
