YIF.pdb
     RDKit          3D

 32 33  0  0  1  0  0  0  0  0999 V2000
    7.4271  -11.8006   17.0891 O   0  0  0  0  0  0  0  0  0  0  0  0
    7.4818  -12.6075   18.2269 C   0  0  0  0  0  0  0  0  0  0  0  0
    8.4532  -12.4082   19.1689 C   0  0  0  0  0  0  0  0  0  0  0  0
    8.5417  -13.1701   20.2895 C   0  0  0  0  0  0  0  0  0  0  0  0
    7.6322  -14.1785   20.4977 C   0  0  0  0  0  0  0  0  0  0  0  0
    7.7445  -15.0111   21.6927 C   0  0  0  0  0  0  0  0  0  0  0  0
    8.6662  -16.1698   21.4610 C   0  0  2  0  0  0  0  0  0  0  0  0
    8.0258  -17.1058   20.5213 N   0  0  0  0  0  0  0  0  0  0  0  0
    8.8720  -16.9044   22.7278 C   0  0  0  0  0  0  0  0  0  0  0  0
    7.9783  -17.7275   23.0799 O   0  0  0  0  0  0  0  0  0  0  0  0
    6.6400  -14.4154   19.5788 C   0  0  0  0  0  0  0  0  0  0  0  0
    6.5769  -13.6253   18.4526 C   0  0  0  0  0  0  0  0  0  0  0  0
   12.4007  -20.1602   22.9136 C   0  0  0  0  0  0  0  0  0  0  0  0
   11.1927  -19.3653   23.2909 C   0  0  0  0  0  0  0  0  0  0  0  0
   11.4711  -18.4273   24.4603 C   0  0  2  0  0  0  0  0  0  0  0  0
   11.9662  -19.1504   25.6577 C   0  0  0  0  0  0  0  0  0  0  0  0
   10.2645  -17.5677   24.7492 C   0  0  2  0  0  0  0  0  0  0  0  0
   10.0042  -16.7246   23.5445 N   0  0  0  0  0  0  0  0  0  0  0  0
   10.4259  -16.6925   25.9174 C   0  0  0  0  0  0  0  0  0  0  0  0
   11.3126  -15.7669   25.8529 O   0  0  0  0  0  0  0  0  0  0  0  0
    9.7203  -16.7278   27.1285 N   0  0  0  0  0  0  0  0  0  0  0  0
   10.0444  -15.8977   28.2945 C   0  0  1  0  0  0  0  0  0  0  0  0
    8.8937  -15.0237   28.6761 C   0  0  0  0  0  0  0  0  0  0  0  0
    8.5797  -14.0984   27.5718 C   0  0  0  0  0  0  0  0  0  0  0  0
    7.6121  -14.3383   26.6359 C   0  0  0  0  0  0  0  0  0  0  0  0
    7.3470  -13.4572   25.6262 C   0  0  0  0  0  0  0  0  0  0  0  0
    8.0817  -12.2789   25.5444 C   0  0  0  0  0  0  0  0  0  0  0  0
    9.0653  -11.9919   26.4616 C   0  0  0  0  0  0  0  0  0  0  0  0
    9.2889  -12.9242   27.4638 C   0  0  0  0  0  0  0  0  0  0  0  0
   10.5959  -16.7051   29.3877 C   0  0  0  0  0  0  0  0  0  0  0  0
   10.4765  -17.9543   29.3441 O   0  0  0  0  0  0  0  0  0  0  0  0
   11.2526  -16.1897   30.4852 O   0  0  0  0  0  0  0  0  0  0  0  0
  2  1  1  0
  3  2  2  0
  4  3  1  0
  5 11  1  0
  5  4  2  0
  6  5  1  0
  7  8  1  6
  7  6  1  0
  9 10  2  0
  9  7  1  0
 11 12  2  0
 12  2  1  0
 14 13  1  0
 15 14  1  0
 15 16  1  1
 17 15  1  0
 17 18  1  6
 18  9  1  0
 19 17  1  0
 20 19  2  0
 21 19  1  0
 22 23  1  1
 22 21  1  0
 23 24  1  0
 24 29  1  0
 25 24  2  0
 25 26  1  0
 26 27  2  0
 27 28  1  0
 29 28  2  0
 30 32  1  0
 30 22  1  0
 31 30  2  0
M  END
$$$$
