YIF.pdb
     RDKit          3D

 32 33  0  0  1  0  0  0  0  0999 V2000
    6.1112  -23.7098   29.0632 O   0  0  0  0  0  0  0  0  0  0  0  0
    6.4587  -22.5963   28.2964 C   0  0  0  0  0  0  0  0  0  0  0  0
    7.1997  -22.7465   27.1567 C   0  0  0  0  0  0  0  0  0  0  0  0
    7.5586  -21.6901   26.3824 C   0  0  0  0  0  0  0  0  0  0  0  0
    7.1719  -20.4222   26.7434 C   0  0  0  0  0  0  0  0  0  0  0  0
    7.5796  -19.2860   25.9209 C   0  0  0  0  0  0  0  0  0  0  0  0
    6.4191  -18.7278   25.1544 C   0  0  2  0  0  0  0  0  0  0  0  0
    5.9951  -19.7159   24.1478 N   0  0  0  0  0  0  0  0  0  0  0  0
    6.8434  -17.5176   24.4182 C   0  0  0  0  0  0  0  0  0  0  0  0
    7.1614  -17.6532   23.2013 O   0  0  0  0  0  0  0  0  0  0  0  0
    6.4275  -20.2234   27.8797 C   0  0  0  0  0  0  0  0  0  0  0  0
    6.0793  -21.3153   28.6436 C   0  0  0  0  0  0  0  0  0  0  0  0
    5.5212  -12.8112   26.4990 C   0  0  0  0  0  0  0  0  0  0  0  0
    5.8782  -13.6334   25.3031 C   0  0  0  0  0  0  0  0  0  0  0  0
    7.3813  -13.8697   25.2031 C   0  0  2  0  0  0  0  0  0  0  0  0
    8.1078  -12.6759   24.7044 C   0  0  0  0  0  0  0  0  0  0  0  0
    7.6699  -15.1131   24.3978 C   0  0  2  0  0  0  0  0  0  0  0  0
    6.9078  -16.2420   25.0098 N   0  0  0  0  0  0  0  0  0  0  0  0
    9.0935  -15.4706   24.3486 C   0  0  0  0  0  0  0  0  0  0  0  0
    9.8196  -14.9109   23.4506 O   0  0  0  0  0  0  0  0  0  0  0  0
    9.7899  -16.3635   25.1754 N   0  0  0  0  0  0  0  0  0  0  0  0
   11.2520  -16.4874   25.2058 C   0  0  1  0  0  0  0  0  0  0  0  0
   11.8845  -15.3007   25.8579 C   0  0  0  0  0  0  0  0  0  0  0  0
   11.2540  -15.0535   27.1677 C   0  0  0  0  0  0  0  0  0  0  0  0
   11.3413  -15.9170   28.2242 C   0  0  0  0  0  0  0  0  0  0  0  0
   10.7450  -15.6548   29.4250 C   0  0  0  0  0  0  0  0  0  0  0  0
   10.0262  -14.4743   29.5813 C   0  0  0  0  0  0  0  0  0  0  0  0
    9.9092  -13.5736   28.5488 C   0  0  0  0  0  0  0  0  0  0  0  0
   10.5362  -13.8944   27.3540 C   0  0  0  0  0  0  0  0  0  0  0  0
   11.6662  -17.7850   25.7499 C   0  0  0  0  0  0  0  0  0  0  0  0
   12.8910  -18.0462   25.8396 O   0  0  0  0  0  0  0  0  0  0  0  0
   10.7969  -18.7640   26.1829 O   0  0  0  0  0  0  0  0  0  0  0  0
  2  1  1  0
  3  2  2  0
  4  3  1  0
  5 11  1  0
  5  4  2  0
  6  5  1  0
  7  8  1  6
  7  6  1  0
  9 10  2  0
  9  7  1  0
 11 12  2  0
 12  2  1  0
 14 13  1  0
 15 14  1  0
 15 16  1  6
 17 15  1  0
 17 18  1  1
 18  9  1  0
 19 17  1  0
 20 19  2  0
 21 19  1  0
 22 23  1  1
 22 21  1  0
 23 24  1  0
 24 29  1  0
 25 24  2  0
 25 26  1  0
 26 27  2  0
 27 28  1  0
 29 28  2  0
 30 32  1  0
 30 22  1  0
 31 30  2  0
M  END
$$$$
