YIF.pdb
     RDKit          3D

 32 33  0  0  1  0  0  0  0  0999 V2000
    6.6303  -25.1389   21.1158 O   0  0  0  0  0  0  0  0  0  0  0  0
    7.2371  -23.8985   21.3207 C   0  0  0  0  0  0  0  0  0  0  0  0
    6.5326  -22.8693   21.8819 C   0  0  0  0  0  0  0  0  0  0  0  0
    7.0850  -21.6477   22.0986 C   0  0  0  0  0  0  0  0  0  0  0  0
    8.3942  -21.4235   21.7477 C   0  0  0  0  0  0  0  0  0  0  0  0
    8.9780  -20.1015   21.9608 C   0  0  0  0  0  0  0  0  0  0  0  0
    8.2821  -19.0623   21.1351 C   0  0  2  0  0  0  0  0  0  0  0  0
    8.4284  -19.4104   19.7115 N   0  0  0  0  0  0  0  0  0  0  0  0
    8.9379  -17.7510   21.3276 C   0  0  0  0  0  0  0  0  0  0  0  0
   10.0419  -17.5561   20.7415 O   0  0  0  0  0  0  0  0  0  0  0  0
    9.1400  -22.4272   21.1811 C   0  0  0  0  0  0  0  0  0  0  0  0
    8.5510  -23.6549   20.9743 C   0  0  0  0  0  0  0  0  0  0  0  0
    6.0032  -13.2897   23.2293 C   0  0  0  0  0  0  0  0  0  0  0  0
    7.0642  -14.3354   23.3490 C   0  0  0  0  0  0  0  0  0  0  0  0
    8.0032  -14.3335   22.1476 C   0  0  2  0  0  0  0  0  0  0  0  0
    7.2712  -14.4183   20.8596 C   0  0  0  0  0  0  0  0  0  0  0  0
    9.0572  -15.4034   22.2969 C   0  0  2  0  0  0  0  0  0  0  0  0
    8.3912  -16.7289   22.1262 N   0  0  0  0  0  0  0  0  0  0  0  0
    9.7465  -15.3800   23.5935 C   0  0  0  0  0  0  0  0  0  0  0  0
   10.5839  -14.4314   23.8081 O   0  0  0  0  0  0  0  0  0  0  0  0
    9.6082  -16.2763   24.6627 N   0  0  0  0  0  0  0  0  0  0  0  0
   10.3846  -16.2007   25.9058 C   0  0  1  0  0  0  0  0  0  0  0  0
    9.4944  -16.0162   27.0920 C   0  0  0  0  0  0  0  0  0  0  0  0
    8.7978  -14.7199   26.9987 C   0  0  0  0  0  0  0  0  0  0  0  0
    7.5069  -14.5841   26.5691 C   0  0  0  0  0  0  0  0  0  0  0  0
    6.8921  -13.3664   26.4965 C   0  0  0  0  0  0  0  0  0  0  0  0
    7.5977  -12.2275   26.8702 C   0  0  0  0  0  0  0  0  0  0  0  0
    8.8982  -12.3117   27.3091 C   0  0  0  0  0  0  0  0  0  0  0  0
    9.4689  -13.5747   27.3614 C   0  0  0  0  0  0  0  0  0  0  0  0
   11.3319  -17.3155   26.0119 C   0  0  0  0  0  0  0  0  0  0  0  0
   12.1142  -17.3603   26.9929 O   0  0  0  0  0  0  0  0  0  0  0  0
   11.4331  -18.3442   25.0992 O   0  0  0  0  0  0  0  0  0  0  0  0
  2  1  1  0
  3  2  2  0
  4  3  1  0
  5 11  1  0
  5  4  2  0
  6  5  1  0
  7  8  1  6
  7  6  1  0
  9 10  2  0
  9  7  1  0
 11 12  2  0
 12  2  1  0
 14 13  1  0
 15 14  1  0
 15 16  1  6
 17 15  1  0
 17 18  1  1
 18  9  1  0
 19 17  1  0
 20 19  2  0
 21 19  1  0
 22 23  1  1
 22 21  1  0
 23 24  1  0
 24 29  1  0
 25 24  2  0
 25 26  1  0
 26 27  2  0
 27 28  1  0
 29 28  2  0
 30 32  1  0
 30 22  1  0
 31 30  2  0
M  END
$$$$
