PKQ.pdb
     RDKit          3D

 26 26  0  0  1  0  0  0  0  0999 V2000
   28.2926  -20.9446  -16.8614 N   0  0  0  0  0  0  0  0  0  0  0  0
   29.5115  -21.3027  -17.5815 C   0  0  0  0  0  0  0  0  0  0  0  0
   29.8117  -22.6706  -17.0410 C   0  0  0  0  0  0  0  0  0  0  0  0
   28.4309  -23.2966  -16.9435 C   0  0  0  0  0  0  0  0  0  0  0  0
   27.4844  -22.1279  -17.1001 C   0  0  1  0  0  0  0  0  0  0  0  0
   26.4379  -22.2215  -16.0776 C   0  0  0  0  0  0  0  0  0  0  0  0
   25.5711  -23.1449  -16.0427 O   0  0  0  0  0  0  0  0  0  0  0  0
   26.3369  -21.2483  -15.0356 N   0  0  0  0  0  0  0  0  0  0  0  0
   25.3639  -21.3612  -13.9888 C   0  0  1  0  0  0  0  0  0  0  0  0
   25.9579  -20.9750  -12.6586 C   0  0  0  0  0  0  0  0  0  0  0  0
   25.0355  -21.0871  -11.4992 C   0  0  0  0  0  0  0  0  0  0  0  0
   25.8199  -20.6999  -10.2502 C   0  0  0  0  0  0  0  0  0  0  0  0
   25.0050  -20.7739   -9.0004 C   0  0  0  0  0  0  0  0  0  0  0  0
   25.7570  -20.4781   -7.8075 N   0  0  0  0  0  0  0  0  0  0  0  0
   24.1638  -20.5974  -14.3682 C   0  0  0  0  0  0  0  0  0  0  0  0
   24.1999  -19.3843  -14.6859 O   0  0  0  0  0  0  0  0  0  0  0  0
   19.6219  -22.6753  -17.9362 N   0  0  0  0  0  0  0  0  0  0  0  0
   19.0661  -21.4641  -17.4415 C   0  0  0  0  0  0  0  0  0  0  0  0
   17.9900  -21.0744  -18.0036 O   0  0  0  0  0  0  0  0  0  0  0  0
   19.7023  -20.7301  -16.3505 C   0  0  0  0  0  0  0  0  0  0  0  0
   20.9673  -21.2583  -15.8166 C   0  0  0  0  0  0  0  0  0  0  0  0
   21.6450  -20.5415  -14.7170 C   0  0  2  0  0  0  0  0  0  0  0  0
   22.9078  -21.2425  -14.3809 N   0  0  0  0  0  0  0  0  0  0  0  0
   20.8902  -20.2005  -13.5230 C   0  0  0  0  0  0  0  0  0  0  0  0
   20.8002  -20.9682  -12.3637 O   0  0  0  0  0  0  0  0  0  0  0  0
   20.2243  -19.1048  -13.4890 O   0  0  0  0  0  0  0  0  0  0  0  0
  1  5  1  0
  1  2  1  0
  2  3  1  0
  4  3  1  0
  5  4  1  0
  6  7  2  0
  5  6  1  1
  8  6  1  0
  9  8  1  0
  9 10  1  1
 11 10  1  0
 11 12  1  0
 12 13  1  0
 13 14  1  0
 15  9  1  0
 16 15  2  0
 18 20  1  0
 18 17  1  0
 19 18  2  0
 21 20  1  0
 22 21  1  6
 22 23  1  0
 23 15  1  0
 24 22  1  0
 24 25  1  0
 26 24  2  0
M  END
$$$$
