PKQ.pdb
     RDKit          3D

 26 26  0  0  1  0  0  0  0  0999 V2000
   26.5963  -14.5277  -15.7248 N   0  0  0  0  0  0  0  0  0  0  0  0
   27.1426  -13.1735  -15.7360 C   0  0  0  0  0  0  0  0  0  0  0  0
   28.0007  -13.1854  -16.9676 C   0  0  0  0  0  0  0  0  0  0  0  0
   27.1581  -13.9827  -17.9485 C   0  0  0  0  0  0  0  0  0  0  0  0
   26.0958  -14.6247  -17.0851 C   0  0  1  0  0  0  0  0  0  0  0  0
   25.9652  -16.0360  -17.4601 C   0  0  0  0  0  0  0  0  0  0  0  0
   25.3232  -16.4357  -18.4765 O   0  0  0  0  0  0  0  0  0  0  0  0
   26.5728  -17.0657  -16.6768 N   0  0  0  0  0  0  0  0  0  0  0  0
   26.3611  -18.4548  -16.9610 C   0  0  1  0  0  0  0  0  0  0  0  0
   27.6341  -19.2409  -16.7801 C   0  0  0  0  0  0  0  0  0  0  0  0
   27.5050  -20.7069  -16.9841 C   0  0  0  0  0  0  0  0  0  0  0  0
   28.8975  -21.3131  -16.8476 C   0  0  0  0  0  0  0  0  0  0  0  0
   28.9058  -22.7999  -16.9931 C   0  0  0  0  0  0  0  0  0  0  0  0
   30.2257  -23.3745  -16.9309 N   0  0  0  0  0  0  0  0  0  0  0  0
   25.2242  -18.9380  -16.1598 C   0  0  0  0  0  0  0  0  0  0  0  0
   25.1295  -18.7434  -14.9240 O   0  0  0  0  0  0  0  0  0  0  0  0
   21.1168  -16.6606  -14.1359 N   0  0  0  0  0  0  0  0  0  0  0  0
   20.5435  -17.9503  -13.9664 C   0  0  0  0  0  0  0  0  0  0  0  0
   19.4948  -18.0032  -13.2431 O   0  0  0  0  0  0  0  0  0  0  0  0
   21.1330  -19.1287  -14.5970 C   0  0  0  0  0  0  0  0  0  0  0  0
   22.3864  -18.9493  -15.3460 C   0  0  0  0  0  0  0  0  0  0  0  0
   22.9599  -20.0937  -16.0833 C   0  0  2  0  0  0  0  0  0  0  0  0
   24.1852  -19.6539  -16.7934 N   0  0  0  0  0  0  0  0  0  0  0  0
   22.0978  -20.8835  -16.9463 C   0  0  0  0  0  0  0  0  0  0  0  0
   21.1705  -21.8356  -16.5281 O   0  0  0  0  0  0  0  0  0  0  0  0
   22.1660  -20.7292  -18.2179 O   0  0  0  0  0  0  0  0  0  0  0  0
  1  5  1  0
  1  2  1  0
  2  3  1  0
  4  3  1  0
  5  4  1  0
  6  7  2  0
  5  6  1  6
  8  6  1  0
  9  8  1  0
  9 10  1  1
 11 10  1  0
 11 12  1  0
 12 13  1  0
 13 14  1  0
 15  9  1  0
 16 15  2  0
 18 20  1  0
 18 17  1  0
 19 18  2  0
 21 20  1  0
 22 21  1  6
 22 23  1  0
 23 15  1  0
 24 22  1  0
 24 25  1  0
 26 24  2  0
M  END
$$$$
