PKQ.pdb
     RDKit          3D

 26 26  0  0  1  0  0  0  0  0999 V2000
   27.4940  -21.2982  -10.1798 N   0  0  0  0  0  0  0  0  0  0  0  0
   28.4141  -21.0515   -9.0731 C   0  0  0  0  0  0  0  0  0  0  0  0
   28.1207  -19.6207   -8.7266 C   0  0  0  0  0  0  0  0  0  0  0  0
   26.6097  -19.5508   -8.8676 C   0  0  0  0  0  0  0  0  0  0  0  0
   26.2489  -20.8218   -9.6029 C   0  0  1  0  0  0  0  0  0  0  0  0
   25.3028  -20.4998  -10.6757 C   0  0  0  0  0  0  0  0  0  0  0  0
   24.2193  -19.8700  -10.4905 O   0  0  0  0  0  0  0  0  0  0  0  0
   25.5599  -20.8904  -12.0264 N   0  0  0  0  0  0  0  0  0  0  0  0
   24.6334  -20.6079  -13.0834 C   0  0  1  0  0  0  0  0  0  0  0  0
   25.2852  -20.7831  -14.4309 C   0  0  0  0  0  0  0  0  0  0  0  0
   24.4484  -20.3869  -15.5930 C   0  0  0  0  0  0  0  0  0  0  0  0
   25.2587  -20.6595  -16.8556 C   0  0  0  0  0  0  0  0  0  0  0  0
   24.5171  -20.3305  -18.1099 C   0  0  0  0  0  0  0  0  0  0  0  0
   25.2529  -20.6413  -19.3091 N   0  0  0  0  0  0  0  0  0  0  0  0
   23.4186  -21.4149  -12.8815 C   0  0  0  0  0  0  0  0  0  0  0  0
   23.4075  -22.4738  -12.2089 O   0  0  0  0  0  0  0  0  0  0  0  0
   20.7489  -22.9670   -9.1010 N   0  0  0  0  0  0  0  0  0  0  0  0
   19.5313  -22.8976   -9.8313 C   0  0  0  0  0  0  0  0  0  0  0  0
   18.5077  -23.3953   -9.2566 O   0  0  0  0  0  0  0  0  0  0  0  0
   19.4776  -22.2831  -11.1554 C   0  0  0  0  0  0  0  0  0  0  0  0
   20.7233  -21.7211  -11.7001 C   0  0  0  0  0  0  0  0  0  0  0  0
   20.9007  -21.6370  -13.1642 C   0  0  2  0  0  0  0  0  0  0  0  0
   22.2029  -20.9937  -13.4633 N   0  0  0  0  0  0  0  0  0  0  0  0
   19.8319  -21.0800  -13.9760 C   0  0  0  0  0  0  0  0  0  0  0  0
   19.8666  -19.8626  -14.6529 O   0  0  0  0  0  0  0  0  0  0  0  0
   18.7337  -21.7301  -14.1054 O   0  0  0  0  0  0  0  0  0  0  0  0
  1  5  1  0
  1  2  1  0
  2  3  1  0
  4  3  1  0
  5  4  1  0
  6  7  2  0
  5  6  1  6
  8  6  1  0
  9  8  1  0
  9 10  1  6
 11 10  1  0
 11 12  1  0
 12 13  1  0
 13 14  1  0
 15  9  1  0
 16 15  2  0
 18 20  1  0
 18 17  1  0
 19 18  2  0
 21 20  1  0
 22 21  1  1
 22 23  1  0
 23 15  1  0
 24 22  1  0
 24 25  1  0
 26 24  2  0
M  END
$$$$
