PKQ.pdb
     RDKit          3D

 26 26  0  0  1  0  0  0  0  0999 V2000
   24.6274  -20.5548  -13.3316 N   0  0  0  0  0  0  0  0  0  0  0  0
   26.0767  -20.4238  -13.2101 C   0  0  0  0  0  0  0  0  0  0  0  0
   26.4507  -21.6798  -12.4780 C   0  0  0  0  0  0  0  0  0  0  0  0
   25.5430  -22.7166  -13.1177 C   0  0  0  0  0  0  0  0  0  0  0  0
   24.5258  -21.8967  -13.8787 C   0  0  1  0  0  0  0  0  0  0  0  0
   23.1872  -22.4336  -13.6153 C   0  0  0  0  0  0  0  0  0  0  0  0
   22.8123  -23.5903  -13.9711 O   0  0  0  0  0  0  0  0  0  0  0  0
   22.2057  -21.6588  -12.9230 N   0  0  0  0  0  0  0  0  0  0  0  0
   20.8826  -22.1560  -12.6833 C   0  0  1  0  0  0  0  0  0  0  0  0
   20.6884  -22.4872  -11.2260 C   0  0  0  0  0  0  0  0  0  0  0  0
   19.4377  -23.2232  -10.9073 C   0  0  0  0  0  0  0  0  0  0  0  0
   19.3767  -23.3893   -9.3928 C   0  0  0  0  0  0  0  0  0  0  0  0
   18.1863  -24.1679   -8.9364 C   0  0  0  0  0  0  0  0  0  0  0  0
   18.1786  -24.4248   -7.5186 N   0  0  0  0  0  0  0  0  0  0  0  0
   19.9066  -21.1981  -13.2288 C   0  0  0  0  0  0  0  0  0  0  0  0
   20.1722  -19.9864  -13.4161 O   0  0  0  0  0  0  0  0  0  0  0  0
   18.7524  -16.6283  -14.0983 N   0  0  0  0  0  0  0  0  0  0  0  0
   17.6812  -17.0215  -14.9461 C   0  0  0  0  0  0  0  0  0  0  0  0
   17.0817  -16.0785  -15.5603 O   0  0  0  0  0  0  0  0  0  0  0  0
   17.3111  -18.4268  -15.0948 C   0  0  0  0  0  0  0  0  0  0  0  0
   18.0157  -19.4120  -14.2599 C   0  0  0  0  0  0  0  0  0  0  0  0
   17.6637  -20.8421  -14.3740 C   0  0  2  0  0  0  0  0  0  0  0  0
   18.6093  -21.6452  -13.5616 N   0  0  0  0  0  0  0  0  0  0  0  0
   17.4696  -21.4203  -15.6930 C   0  0  0  0  0  0  0  0  0  0  0  0
   16.7933  -20.8261  -16.7564 O   0  0  0  0  0  0  0  0  0  0  0  0
   17.9408  -22.5861  -15.9464 O   0  0  0  0  0  0  0  0  0  0  0  0
  1  5  1  0
  1  2  1  0
  2  3  1  0
  4  3  1  0
  5  4  1  0
  6  7  2  0
  5  6  1  1
  8  6  1  0
  9  8  1  0
  9 10  1  1
 11 10  1  0
 11 12  1  0
 12 13  1  0
 13 14  1  0
 15  9  1  0
 16 15  2  0
 18 20  1  0
 18 17  1  0
 19 18  2  0
 21 20  1  0
 22 21  1  6
 22 23  1  0
 23 15  1  0
 24 22  1  0
 24 25  1  0
 26 24  2  0
M  END
$$$$
