PKQ.pdb
     RDKit          3D

 26 26  0  0  1  0  0  0  0  0999 V2000
   27.3568  -18.9341  -16.2852 N   0  0  0  0  0  0  0  0  0  0  0  0
   28.5661  -18.5929  -17.0293 C   0  0  0  0  0  0  0  0  0  0  0  0
   29.5342  -19.6414  -16.5636 C   0  0  0  0  0  0  0  0  0  0  0  0
   28.6642  -20.8848  -16.4926 C   0  0  0  0  0  0  0  0  0  0  0  0
   27.2519  -20.3521  -16.5824 C   0  0  1  0  0  0  0  0  0  0  0  0
   26.4293  -21.0077  -15.5610 C   0  0  0  0  0  0  0  0  0  0  0  0
   25.9362  -22.1670  -15.6946 O   0  0  0  0  0  0  0  0  0  0  0  0
   26.1313  -20.3552  -14.3247 N   0  0  0  0  0  0  0  0  0  0  0  0
   25.2713  -20.9511  -13.3446 C   0  0  1  0  0  0  0  0  0  0  0  0
   25.8423  -20.7901  -11.9592 C   0  0  0  0  0  0  0  0  0  0  0  0
   25.0544  -21.4293  -10.8737 C   0  0  0  0  0  0  0  0  0  0  0  0
   25.4085  -20.7197   -9.5714 C   0  0  0  0  0  0  0  0  0  0  0  0
   24.7979  -21.3628   -8.3692 C   0  0  0  0  0  0  0  0  0  0  0  0
   23.7287  -20.5919   -7.7874 N   0  0  0  0  0  0  0  0  0  0  0  0
   23.9112  -20.4129  -13.5125 C   0  0  0  0  0  0  0  0  0  0  0  0
   23.6496  -19.1878  -13.4441 O   0  0  0  0  0  0  0  0  0  0  0  0
   20.5325  -20.9254  -18.2233 N   0  0  0  0  0  0  0  0  0  0  0  0
   20.1243  -19.8103  -17.4418 C   0  0  0  0  0  0  0  0  0  0  0  0
   19.5054  -18.8879  -18.0678 O   0  0  0  0  0  0  0  0  0  0  0  0
   20.4018  -19.7488  -16.0090 C   0  0  0  0  0  0  0  0  0  0  0  0
   21.1202  -20.8800  -15.4018 C   0  0  0  0  0  0  0  0  0  0  0  0
   21.4449  -20.8427  -13.9612 C   0  0  2  0  0  0  0  0  0  0  0  0
   22.8415  -21.3000  -13.7624 N   0  0  0  0  0  0  0  0  0  0  0  0
   20.5384  -21.4705  -13.0148 C   0  0  0  0  0  0  0  0  0  0  0  0
   19.4891  -20.8434  -12.3461 O   0  0  0  0  0  0  0  0  0  0  0  0
   20.6828  -22.7134  -12.7322 O   0  0  0  0  0  0  0  0  0  0  0  0
  1  5  1  0
  1  2  1  0
  2  3  1  0
  4  3  1  0
  5  4  1  0
  6  7  2  0
  5  6  1  1
  8  6  1  0
  9  8  1  0
  9 10  1  1
 11 10  1  0
 11 12  1  0
 12 13  1  0
 13 14  1  0
 15  9  1  0
 16 15  2  0
 18 20  1  0
 18 17  1  0
 19 18  2  0
 21 20  1  0
 22 21  1  6
 22 23  1  0
 23 15  1  0
 24 22  1  0
 24 25  1  0
 26 24  2  0
M  END
$$$$
