KGC.pdb
     RDKit          3D

 20 19  0  0  1  0  0  0  0  0999 V2000
    6.5921  -17.8267   20.5023 N   0  0  0  0  0  0  0  0  0  0  0  0
    7.2741  -16.8149   21.2447 C   0  0  1  0  0  0  0  0  0  0  0  0
    7.2174  -15.4428   20.6686 C   0  0  0  0  0  0  0  0  0  0  0  0
    7.8221  -15.2560   19.3272 C   0  0  0  0  0  0  0  0  0  0  0  0
    7.7683  -13.8844   18.7499 C   0  0  0  0  0  0  0  0  0  0  0  0
    8.4648  -13.9614   17.3835 C   0  0  0  0  0  0  0  0  0  0  0  0
    8.3961  -12.6660   16.7166 N   0  0  0  0  0  0  0  0  0  0  0  0
    6.6971  -16.7591   22.6236 C   0  0  0  0  0  0  0  0  0  0  0  0
    5.4903  -16.4818   22.7639 O   0  0  0  0  0  0  0  0  0  0  0  0
    7.4941  -17.0165   23.7919 N   0  0  0  0  0  0  0  0  0  0  0  0
    7.1557  -16.5807   25.1029 C   0  0  0  0  0  0  0  0  0  0  0  0
    8.1014  -15.6011   25.6764 C   0  0  0  0  0  0  0  0  0  0  0  0
    9.2674  -15.4441   25.2081 O   0  0  0  0  0  0  0  0  0  0  0  0
    7.7576  -14.7933   26.7640 N   0  0  0  0  0  0  0  0  0  0  0  0
    8.6878  -13.8879   27.4208 C   0  0  1  0  0  0  0  0  0  0  0  0
    7.8186  -12.8032   28.0691 C   0  0  0  0  0  0  0  0  0  0  0  0
    6.6542  -12.1136   26.8798 S   0  0  0  0  0  0  0  0  0  0  0  0
    9.5339  -14.5489   28.4028 C   0  0  0  0  0  0  0  0  0  0  0  0
   10.5823  -13.8686   28.9788 O   0  0  0  0  0  0  0  0  0  0  0  0
    9.3193  -15.7317   28.7307 O   0  0  0  0  0  0  0  0  0  0  0  0
  2  1  1  6
  3  2  1  0
  4  3  1  0
  5  4  1  0
  6  5  1  0
  7  6  1  0
  8  9  2  0
  8  2  1  0
 10  8  1  0
 11 12  1  0
 11 10  1  0
 12 14  1  0
 13 12  2  0
 14 15  1  0
 15 18  1  0
 15 16  1  1
 16 17  1  0
 18 20  2  0
 18 19  1  0
M  END
$$$$
