KGC.pdb
     RDKit          3D

 20 19  0  0  1  0  0  0  0  0999 V2000
    6.4688  -16.8097   21.2737 N   0  0  0  0  0  0  0  0  0  0  0  0
    7.7444  -16.1786   21.3956 C   0  0  1  0  0  0  0  0  0  0  0  0
    7.8929  -14.8800   20.6820 C   0  0  0  0  0  0  0  0  0  0  0  0
    7.7791  -14.9134   19.2035 C   0  0  0  0  0  0  0  0  0  0  0  0
    8.0530  -13.6419   18.4786 C   0  0  0  0  0  0  0  0  0  0  0  0
    7.8009  -13.9278   16.9910 C   0  0  0  0  0  0  0  0  0  0  0  0
    8.0234  -12.7180   16.2074 N   0  0  0  0  0  0  0  0  0  0  0  0
    8.0270  -15.9417   22.8454 C   0  0  0  0  0  0  0  0  0  0  0  0
    7.1066  -15.5412   23.5838 O   0  0  0  0  0  0  0  0  0  0  0  0
    9.3295  -16.1631   23.4117 N   0  0  0  0  0  0  0  0  0  0  0  0
    9.6394  -16.0050   24.7909 C   0  0  0  0  0  0  0  0  0  0  0  0
   11.0583  -16.2488   25.1227 C   0  0  0  0  0  0  0  0  0  0  0  0
   11.5291  -15.9976   26.2711 O   0  0  0  0  0  0  0  0  0  0  0  0
   11.9551  -16.7731   24.1876 N   0  0  0  0  0  0  0  0  0  0  0  0
   13.3845  -16.9009   24.4261 C   0  0  1  0  0  0  0  0  0  0  0  0
   13.7596  -18.3058   23.9383 C   0  0  0  0  0  0  0  0  0  0  0  0
   12.4364  -19.4807   24.2766 S   0  0  0  0  0  0  0  0  0  0  0  0
   14.1710  -15.8771   23.7550 C   0  0  0  0  0  0  0  0  0  0  0  0
   13.5740  -15.0357   22.8444 O   0  0  0  0  0  0  0  0  0  0  0  0
   15.3870  -15.7521   23.9965 O   0  0  0  0  0  0  0  0  0  0  0  0
  2  1  1  1
  3  2  1  0
  4  3  1  0
  5  4  1  0
  6  5  1  0
  7  6  1  0
  8  9  2  0
  8  2  1  0
 10  8  1  0
 11 12  1  0
 11 10  1  0
 12 14  1  0
 13 12  2  0
 14 15  1  0
 15 18  1  0
 15 16  1  6
 16 17  1  0
 18 20  2  0
 18 19  1  0
M  END
$$$$
