KGC.pdb
     RDKit          3D

 20 19  0  0  1  0  0  0  0  0999 V2000
    7.2076  -17.4517   22.9519 N   0  0  0  0  0  0  0  0  0  0  0  0
    8.0118  -17.2516   21.7884 C   0  0  1  0  0  0  0  0  0  0  0  0
    7.3503  -17.5484   20.4877 C   0  0  0  0  0  0  0  0  0  0  0  0
    7.2932  -18.9724   20.0768 C   0  0  0  0  0  0  0  0  0  0  0  0
    6.5855  -19.2774   18.8027 C   0  0  0  0  0  0  0  0  0  0  0  0
    6.5523  -20.8078   18.6807 C   0  0  0  0  0  0  0  0  0  0  0  0
    5.9139  -21.1930   17.4271 N   0  0  0  0  0  0  0  0  0  0  0  0
    8.4676  -15.8271   21.7583 C   0  0  0  0  0  0  0  0  0  0  0  0
    9.0617  -15.4030   20.7483 O   0  0  0  0  0  0  0  0  0  0  0  0
    8.2397  -14.9329   22.8604 N   0  0  0  0  0  0  0  0  0  0  0  0
    8.6379  -13.5675   22.8782 C   0  0  0  0  0  0  0  0  0  0  0  0
    8.2040  -12.8275   24.0810 C   0  0  0  0  0  0  0  0  0  0  0  0
    8.4758  -11.6018   24.2462 O   0  0  0  0  0  0  0  0  0  0  0  0
    7.4674  -13.4405   25.0985 N   0  0  0  0  0  0  0  0  0  0  0  0
    7.8451  -13.4001   26.5028 C   0  0  1  0  0  0  0  0  0  0  0  0
    6.5782  -12.9801   27.2584 C   0  0  0  0  0  0  0  0  0  0  0  0
    5.6442  -11.7572   26.3215 S   0  0  0  0  0  0  0  0  0  0  0  0
    8.3614  -14.6688   26.9939 C   0  0  0  0  0  0  0  0  0  0  0  0
    8.8193  -14.7724   28.2875 O   0  0  0  0  0  0  0  0  0  0  0  0
    8.3942  -15.6695   26.2522 O   0  0  0  0  0  0  0  0  0  0  0  0
  2  1  1  1
  3  2  1  0
  4  3  1  0
  5  4  1  0
  6  5  1  0
  7  6  1  0
  8  9  2  0
  8  2  1  0
 10  8  1  0
 11 12  1  0
 11 10  1  0
 12 14  1  0
 13 12  2  0
 14 15  1  0
 15 18  1  0
 15 16  1  1
 16 17  1  0
 18 20  2  0
 18 19  1  0
M  END
$$$$
