KGC.pdb
     RDKit          3D

 20 19  0  0  1  0  0  0  0  0999 V2000
    7.0778  -19.4342   21.9797 N   0  0  0  0  0  0  0  0  0  0  0  0
    6.0287  -18.5559   21.5697 C   0  0  1  0  0  0  0  0  0  0  0  0
    4.7415  -19.2121   21.2086 C   0  0  0  0  0  0  0  0  0  0  0  0
    4.7759  -20.6800   20.9989 C   0  0  0  0  0  0  0  0  0  0  0  0
    4.7027  -21.5355   22.2154 C   0  0  0  0  0  0  0  0  0  0  0  0
    4.5645  -22.9826   21.7204 C   0  0  0  0  0  0  0  0  0  0  0  0
    4.6260  -23.9028   22.8503 N   0  0  0  0  0  0  0  0  0  0  0  0
    5.7558  -17.5845   22.6740 C   0  0  0  0  0  0  0  0  0  0  0  0
    5.0027  -16.6159   22.4558 O   0  0  0  0  0  0  0  0  0  0  0  0
    6.3368  -17.7360   23.9801 N   0  0  0  0  0  0  0  0  0  0  0  0
    6.1710  -16.8046   25.0422 C   0  0  0  0  0  0  0  0  0  0  0  0
    7.1925  -15.7378   25.0749 C   0  0  0  0  0  0  0  0  0  0  0  0
    8.3326  -15.8873   24.5443 O   0  0  0  0  0  0  0  0  0  0  0  0
    6.9532  -14.5058   25.6901 N   0  0  0  0  0  0  0  0  0  0  0  0
    7.9542  -13.4567   25.8088 C   0  0  1  0  0  0  0  0  0  0  0  0
    7.1738  -12.1778   26.1368 C   0  0  0  0  0  0  0  0  0  0  0  0
    5.7715  -12.5352   27.2101 S   0  0  0  0  0  0  0  0  0  0  0  0
    8.9624  -13.7387   26.8194 C   0  0  0  0  0  0  0  0  0  0  0  0
   10.0848  -12.9480   26.9127 O   0  0  0  0  0  0  0  0  0  0  0  0
    8.8208  -14.6940   27.6068 O   0  0  0  0  0  0  0  0  0  0  0  0
  2  1  1  1
  3  2  1  0
  4  3  1  0
  5  4  1  0
  6  5  1  0
  7  6  1  0
  8  9  2  0
  8  2  1  0
 10  8  1  0
 11 12  1  0
 11 10  1  0
 12 14  1  0
 13 12  2  0
 14 15  1  0
 15 18  1  0
 15 16  1  1
 16 17  1  0
 18 20  2  0
 18 19  1  0
M  END
$$$$
