KGC.pdb
     RDKit          3D

 20 19  0  0  1  0  0  0  0  0999 V2000
    3.6058  -17.0141   21.4086 N   0  0  0  0  0  0  0  0  0  0  0  0
    3.9267  -18.2133   22.1149 C   0  0  1  0  0  0  0  0  0  0  0  0
    4.0226  -19.4457   21.2844 C   0  0  0  0  0  0  0  0  0  0  0  0
    2.9215  -20.4301   21.4201 C   0  0  0  0  0  0  0  0  0  0  0  0
    3.0131  -21.6613   20.5877 C   0  0  0  0  0  0  0  0  0  0  0  0
    1.7643  -22.4955   20.9082 C   0  0  0  0  0  0  0  0  0  0  0  0
    1.7226  -23.6770   20.0540 N   0  0  0  0  0  0  0  0  0  0  0  0
    5.2371  -18.0249   22.8115 C   0  0  0  0  0  0  0  0  0  0  0  0
    6.2818  -17.9805   22.1338 O   0  0  0  0  0  0  0  0  0  0  0  0
    5.3261  -17.8933   24.2401 N   0  0  0  0  0  0  0  0  0  0  0  0
    6.5463  -17.7383   24.9545 C   0  0  0  0  0  0  0  0  0  0  0  0
    7.0934  -16.3662   24.9247 C   0  0  0  0  0  0  0  0  0  0  0  0
    8.0117  -16.0299   24.1201 O   0  0  0  0  0  0  0  0  0  0  0  0
    6.6238  -15.3660   25.7806 N   0  0  0  0  0  0  0  0  0  0  0  0
    7.2191  -14.0420   25.8754 C   0  0  1  0  0  0  0  0  0  0  0  0
    6.1080  -13.1275   26.4060 C   0  0  0  0  0  0  0  0  0  0  0  0
    6.7419  -11.4774   26.7538 S   0  0  0  0  0  0  0  0  0  0  0  0
    8.3948  -14.0025   26.7318 C   0  0  0  0  0  0  0  0  0  0  0  0
    9.2742  -12.9474   26.6472 O   0  0  0  0  0  0  0  0  0  0  0  0
    8.6166  -14.9188   27.5466 O   0  0  0  0  0  0  0  0  0  0  0  0
  2  1  1  6
  3  2  1  0
  4  3  1  0
  5  4  1  0
  6  5  1  0
  7  6  1  0
  8  9  2  0
  8  2  1  0
 10  8  1  0
 11 12  1  0
 11 10  1  0
 12 14  1  0
 13 12  2  0
 14 15  1  0
 15 18  1  0
 15 16  1  1
 16 17  1  0
 18 20  2  0
 18 19  1  0
M  END
$$$$
