KGC.pdb
     RDKit          3D

 20 19  0  0  1  0  0  0  0  0999 V2000
    7.7203  -18.5882   21.3983 N   0  0  0  0  0  0  0  0  0  0  0  0
    6.5497  -19.2091   21.9316 C   0  0  1  0  0  0  0  0  0  0  0  0
    6.6992  -20.6373   22.3258 C   0  0  0  0  0  0  0  0  0  0  0  0
    8.0766  -21.1875   22.3335 C   0  0  0  0  0  0  0  0  0  0  0  0
    8.2286  -22.6156   22.7267 C   0  0  0  0  0  0  0  0  0  0  0  0
    9.7338  -22.9176   22.6905 C   0  0  0  0  0  0  0  0  0  0  0  0
    9.9840  -24.2611   23.2002 N   0  0  0  0  0  0  0  0  0  0  0  0
    6.1062  -18.4430   23.1375 C   0  0  0  0  0  0  0  0  0  0  0  0
    5.0830  -18.8112   23.7459 O   0  0  0  0  0  0  0  0  0  0  0  0
    6.8265  -17.2944   23.6153 N   0  0  0  0  0  0  0  0  0  0  0  0
    6.4649  -16.5471   24.7703 C   0  0  0  0  0  0  0  0  0  0  0  0
    7.3479  -15.3949   25.0449 C   0  0  0  0  0  0  0  0  0  0  0  0
    8.3887  -15.1717   24.3588 O   0  0  0  0  0  0  0  0  0  0  0  0
    7.0792  -14.4883   26.0741 N   0  0  0  0  0  0  0  0  0  0  0  0
    8.0365  -13.5006   26.5480 C   0  0  1  0  0  0  0  0  0  0  0  0
    7.2222  -12.5056   27.3842 C   0  0  0  0  0  0  0  0  0  0  0  0
    5.6425  -12.1431   26.5975 S   0  0  0  0  0  0  0  0  0  0  0  0
    9.1234  -14.0814   27.3217 C   0  0  0  0  0  0  0  0  0  0  0  0
   10.2354  -13.3281   27.6213 O   0  0  0  0  0  0  0  0  0  0  0  0
    9.0590  -15.2606   27.7190 O   0  0  0  0  0  0  0  0  0  0  0  0
  2  1  1  1
  3  2  1  0
  4  3  1  0
  5  4  1  0
  6  5  1  0
  7  6  1  0
  8  9  2  0
  8  2  1  0
 10  8  1  0
 11 12  1  0
 11 10  1  0
 12 14  1  0
 13 12  2  0
 14 15  1  0
 15 18  1  0
 15 16  1  1
 16 17  1  0
 18 20  2  0
 18 19  1  0
M  END
$$$$
