KGC.pdb
     RDKit          3D

 20 19  0  0  1  0  0  0  0  0999 V2000
    9.2028  -16.1358   19.6069 N   0  0  0  0  0  0  0  0  0  0  0  0
    9.1943  -14.7198   19.7944 C   0  0  1  0  0  0  0  0  0  0  0  0
    8.6657  -13.9208   18.6543 C   0  0  0  0  0  0  0  0  0  0  0  0
    8.4966  -14.6305   17.3629 C   0  0  0  0  0  0  0  0  0  0  0  0
    8.0462  -13.8153   16.2010 C   0  0  0  0  0  0  0  0  0  0  0  0
    8.0127  -14.7631   14.9932 C   0  0  0  0  0  0  0  0  0  0  0  0
    7.4842  -14.0643   13.8271 N   0  0  0  0  0  0  0  0  0  0  0  0
    8.3705  -14.3998   21.0014 C   0  0  0  0  0  0  0  0  0  0  0  0
    8.3006  -13.2180   21.3904 O   0  0  0  0  0  0  0  0  0  0  0  0
    7.6568  -15.4159   21.7255 N   0  0  0  0  0  0  0  0  0  0  0  0
    6.9589  -15.1889   22.9439 C   0  0  0  0  0  0  0  0  0  0  0  0
    7.7790  -14.5646   24.0023 C   0  0  0  0  0  0  0  0  0  0  0  0
    9.0387  -14.4757   23.9071 O   0  0  0  0  0  0  0  0  0  0  0  0
    7.2075  -14.0359   25.1631 N   0  0  0  0  0  0  0  0  0  0  0  0
    7.9758  -13.3964   26.2201 C   0  0  1  0  0  0  0  0  0  0  0  0
    7.1222  -12.2126   26.6915 C   0  0  0  0  0  0  0  0  0  0  0  0
    5.4774  -12.7589   27.1833 S   0  0  0  0  0  0  0  0  0  0  0  0
    8.2943  -14.2940   27.3202 C   0  0  0  0  0  0  0  0  0  0  0  0
    9.1442  -13.8828   28.3214 O   0  0  0  0  0  0  0  0  0  0  0  0
    7.8035  -15.4383   27.3670 O   0  0  0  0  0  0  0  0  0  0  0  0
  2  1  1  6
  3  2  1  0
  4  3  1  0
  5  4  1  0
  6  5  1  0
  7  6  1  0
  8  9  2  0
  8  2  1  0
 10  8  1  0
 11 12  1  0
 11 10  1  0
 12 14  1  0
 13 12  2  0
 14 15  1  0
 15 18  1  0
 15 16  1  1
 16 17  1  0
 18 20  2  0
 18 19  1  0
M  END
$$$$
