KGC.pdb
     RDKit          3D

 20 19  0  0  1  0  0  0  0  0999 V2000
    6.6206  -17.7501   20.3060 N   0  0  0  0  0  0  0  0  0  0  0  0
    7.8138  -17.2938   20.9450 C   0  0  1  0  0  0  0  0  0  0  0  0
    8.6039  -16.2821   20.1901 C   0  0  0  0  0  0  0  0  0  0  0  0
    7.8537  -15.1333   19.6268 C   0  0  0  0  0  0  0  0  0  0  0  0
    8.6405  -14.1239   18.8656 C   0  0  0  0  0  0  0  0  0  0  0  0
    7.6363  -13.0702   18.3766 C   0  0  0  0  0  0  0  0  0  0  0  0
    8.3309  -12.0348   17.6195 N   0  0  0  0  0  0  0  0  0  0  0  0
    7.4529  -16.7005   22.2699 C   0  0  0  0  0  0  0  0  0  0  0  0
    6.2539  -16.4798   22.5277 O   0  0  0  0  0  0  0  0  0  0  0  0
    8.4490  -16.3778   23.2547 N   0  0  0  0  0  0  0  0  0  0  0  0
    8.1556  -15.9193   24.5688 C   0  0  0  0  0  0  0  0  0  0  0  0
    9.3496  -15.5879   25.3734 C   0  0  0  0  0  0  0  0  0  0  0  0
   10.5233  -15.7845   24.9404 O   0  0  0  0  0  0  0  0  0  0  0  0
    9.2467  -15.0367   26.6537 N   0  0  0  0  0  0  0  0  0  0  0  0
   10.3954  -14.6633   27.4646 C   0  0  1  0  0  0  0  0  0  0  0  0
   10.0055  -13.3480   28.1504 C   0  0  0  0  0  0  0  0  0  0  0  0
    8.2146  -13.1726   28.2382 S   0  0  0  0  0  0  0  0  0  0  0  0
   10.7654  -15.6808   28.4367 C   0  0  0  0  0  0  0  0  0  0  0  0
   11.9515  -15.5761   29.1266 O   0  0  0  0  0  0  0  0  0  0  0  0
   10.0162  -16.6525   28.6536 O   0  0  0  0  0  0  0  0  0  0  0  0
  2  1  1  6
  3  2  1  0
  4  3  1  0
  5  4  1  0
  6  5  1  0
  7  6  1  0
  8  9  2  0
  8  2  1  0
 10  8  1  0
 11 12  1  0
 11 10  1  0
 12 14  1  0
 13 12  2  0
 14 15  1  0
 15 18  1  0
 15 16  1  1
 16 17  1  0
 18 20  2  0
 18 19  1  0
M  END
$$$$
