TKQ.pdb
     RDKit          3D

 26 25  0  0  1  0  0  0  0  0999 V2000
   17.6841  -10.9989  -23.3709 C   0  0  0  0  0  0  0  0  0  0  0  0
   17.7468  -11.2823  -21.8852 C   0  0  1  0  0  0  0  0  0  0  0  0
   17.7236  -12.6430  -21.6640 O   0  0  0  0  0  0  0  0  0  0  0  0
   18.9665  -10.6520  -21.2506 C   0  0  2  0  0  0  0  0  0  0  0  0
   20.1569  -11.3713  -21.6513 N   0  0  0  0  0  0  0  0  0  0  0  0
   18.8951  -10.6836  -19.7698 C   0  0  0  0  0  0  0  0  0  0  0  0
   17.9292  -10.1719  -19.1305 O   0  0  0  0  0  0  0  0  0  0  0  0
   19.9035  -11.2877  -18.9964 N   0  0  0  0  0  0  0  0  0  0  0  0
   19.8786  -11.2562  -17.5137 C   0  0  1  0  0  0  0  0  0  0  0  0
   20.3058  -12.5915  -17.0625 C   0  0  0  0  0  0  0  0  0  0  0  0
   19.4848  -13.7686  -17.4084 C   0  0  0  0  0  0  0  0  0  0  0  0
   20.1948  -14.9696  -16.7462 C   0  0  0  0  0  0  0  0  0  0  0  0
   19.4495  -16.2474  -17.0395 C   0  0  0  0  0  0  0  0  0  0  0  0
   20.1778  -17.3872  -16.5136 N   0  0  0  0  0  0  0  0  0  0  0  0
   20.6579  -10.1021  -17.0911 C   0  0  0  0  0  0  0  0  0  0  0  0
   21.5524   -9.6265  -17.8309 O   0  0  0  0  0  0  0  0  0  0  0  0
   20.3632   -5.1849  -18.6691 N   0  0  0  0  0  0  0  0  0  0  0  0
   21.1548   -4.8915  -17.5232 C   0  0  0  0  0  0  0  0  0  0  0  0
   21.6345   -3.7080  -17.4653 O   0  0  0  0  0  0  0  0  0  0  0  0
   21.4203   -5.8585  -16.4506 C   0  0  0  0  0  0  0  0  0  0  0  0
   20.8465   -7.2126  -16.6275 C   0  0  0  0  0  0  0  0  0  0  0  0
   21.0511   -8.1465  -15.5132 C   0  0  2  0  0  0  0  0  0  0  0  0
   20.4473   -9.4634  -15.8396 N   0  0  0  0  0  0  0  0  0  0  0  0
   20.6780   -7.7079  -14.1846 C   0  0  0  0  0  0  0  0  0  0  0  0
   21.4396   -6.9722  -13.2908 O   0  0  0  0  0  0  0  0  0  0  0  0
   19.5155   -8.0241  -13.7368 O   0  0  0  0  0  0  0  0  0  0  0  0
  2  1  1  6
  2  4  1  0
  2  3  1  0
  4  5  1  1
  6  4  1  0
  7  6  2  0
  8  6  1  0
  9  8  1  0
  9 10  1  1
 10 11  1  0
 11 12  1  0
 12 13  1  0
 13 14  1  0
 15 23  1  0
 15  9  1  0
 16 15  2  0
 17 18  1  0
 18 19  2  0
 20 18  1  0
 20 21  1  0
 22 21  1  6
 22 23  1  0
 24 22  1  0
 24 25  1  0
 26 24  2  0
M  END
$$$$
