TKQ.pdb
     RDKit          3D

 26 25  0  0  1  0  0  0  0  0999 V2000
   27.3303  -18.9909  -16.3405 C   0  0  0  0  0  0  0  0  0  0  0  0
   27.5110  -20.3742  -16.9282 C   0  0  1  0  0  0  0  0  0  0  0  0
   28.5655  -20.3743  -17.8165 O   0  0  0  0  0  0  0  0  0  0  0  0
   27.7132  -21.4141  -15.8487 C   0  0  2  0  0  0  0  0  0  0  0  0
   27.7975  -22.7309  -16.4435 N   0  0  0  0  0  0  0  0  0  0  0  0
   26.5915  -21.4261  -14.8789 C   0  0  0  0  0  0  0  0  0  0  0  0
   25.4367  -21.8432  -15.1889 O   0  0  0  0  0  0  0  0  0  0  0  0
   26.7554  -20.9715  -13.5573 N   0  0  0  0  0  0  0  0  0  0  0  0
   25.6022  -20.7898  -12.6425 C   0  0  1  0  0  0  0  0  0  0  0  0
   26.1617  -20.3664  -11.3475 C   0  0  0  0  0  0  0  0  0  0  0  0
   25.2540  -19.8632  -10.2976 C   0  0  0  0  0  0  0  0  0  0  0  0
   24.8819  -21.1012   -9.4529 C   0  0  0  0  0  0  0  0  0  0  0  0
   23.9556  -20.7110   -8.3286 C   0  0  0  0  0  0  0  0  0  0  0  0
   23.5353  -21.8879   -7.5909 N   0  0  0  0  0  0  0  0  0  0  0  0
   24.6555  -19.9071  -13.3077 C   0  0  0  0  0  0  0  0  0  0  0  0
   25.0287  -19.1468  -14.2331 O   0  0  0  0  0  0  0  0  0  0  0  0
   23.3424  -17.1413  -17.2135 N   0  0  0  0  0  0  0  0  0  0  0  0
   22.1789  -17.9562  -17.3032 C   0  0  0  0  0  0  0  0  0  0  0  0
   21.3907  -17.6972  -18.2757 O   0  0  0  0  0  0  0  0  0  0  0  0
   21.8724  -19.0402  -16.3615 C   0  0  0  0  0  0  0  0  0  0  0  0
   22.8167  -19.2207  -15.2346 C   0  0  0  0  0  0  0  0  0  0  0  0
   22.2148  -19.5822  -13.9451 C   0  0  2  0  0  0  0  0  0  0  0  0
   23.2811  -19.8636  -12.9505 N   0  0  0  0  0  0  0  0  0  0  0  0
   21.1983  -20.6134  -13.9374 C   0  0  0  0  0  0  0  0  0  0  0  0
   19.8948  -20.5139  -13.4780 O   0  0  0  0  0  0  0  0  0  0  0  0
   21.4998  -21.7771  -14.3922 O   0  0  0  0  0  0  0  0  0  0  0  0
  2  1  1  1
  2  4  1  0
  2  3  1  0
  4  5  1  6
  6  4  1  0
  7  6  2  0
  8  6  1  0
  9  8  1  0
  9 10  1  1
 10 11  1  0
 11 12  1  0
 12 13  1  0
 13 14  1  0
 15 23  1  0
 15  9  1  0
 16 15  2  0
 17 18  1  0
 18 19  2  0
 20 18  1  0
 20 21  1  0
 22 21  1  6
 22 23  1  0
 24 22  1  0
 24 25  1  0
 26 24  2  0
M  END
$$$$
