TKQ.pdb
     RDKit          3D

 26 25  0  0  1  0  0  0  0  0999 V2000
   26.5068  -19.0882  -16.7385 C   0  0  0  0  0  0  0  0  0  0  0  0
   26.9778  -20.4354  -17.2434 C   0  0  1  0  0  0  0  0  0  0  0  0
   27.8963  -20.2634  -18.2571 O   0  0  0  0  0  0  0  0  0  0  0  0
   27.5560  -21.2757  -16.1266 C   0  0  2  0  0  0  0  0  0  0  0  0
   27.9092  -22.5862  -16.6291 N   0  0  0  0  0  0  0  0  0  0  0  0
   26.5874  -21.4611  -15.0191 C   0  0  0  0  0  0  0  0  0  0  0  0
   25.5354  -22.1532  -15.1524 O   0  0  0  0  0  0  0  0  0  0  0  0
   26.7904  -20.8733  -13.7568 N   0  0  0  0  0  0  0  0  0  0  0  0
   25.7281  -20.8531  -12.7220 C   0  0  1  0  0  0  0  0  0  0  0  0
   26.3604  -20.3591  -11.4869 C   0  0  0  0  0  0  0  0  0  0  0  0
   25.5093  -19.8646  -10.3868 C   0  0  0  0  0  0  0  0  0  0  0  0
   25.2398  -21.0962   -9.4948 C   0  0  0  0  0  0  0  0  0  0  0  0
   24.4026  -20.7079   -8.3020 C   0  0  0  0  0  0  0  0  0  0  0  0
   24.0544  -21.8841   -7.5268 N   0  0  0  0  0  0  0  0  0  0  0  0
   24.6042  -20.1074  -13.2685 C   0  0  0  0  0  0  0  0  0  0  0  0
   24.7517  -18.9287  -13.6717 O   0  0  0  0  0  0  0  0  0  0  0  0
   23.0151  -22.2680  -17.9090 N   0  0  0  0  0  0  0  0  0  0  0  0
   22.4484  -21.1034  -17.3186 C   0  0  0  0  0  0  0  0  0  0  0  0
   22.4155  -20.0625  -18.0599 O   0  0  0  0  0  0  0  0  0  0  0  0
   21.9180  -21.0631  -15.9500 C   0  0  0  0  0  0  0  0  0  0  0  0
   22.0426  -19.7729  -15.2330 C   0  0  0  0  0  0  0  0  0  0  0  0
   22.1231  -19.8577  -13.7694 C   0  0  2  0  0  0  0  0  0  0  0  0
   23.3030  -20.6682  -13.3740 N   0  0  0  0  0  0  0  0  0  0  0  0
   20.9355  -20.2651  -13.0481 C   0  0  0  0  0  0  0  0  0  0  0  0
   20.8170  -21.2883  -12.1213 O   0  0  0  0  0  0  0  0  0  0  0  0
   19.8361  -19.6371  -13.2697 O   0  0  0  0  0  0  0  0  0  0  0  0
  2  1  1  1
  2  4  1  0
  2  3  1  0
  4  5  1  6
  6  4  1  0
  7  6  2  0
  8  6  1  0
  9  8  1  0
  9 10  1  1
 10 11  1  0
 11 12  1  0
 12 13  1  0
 13 14  1  0
 15 23  1  0
 15  9  1  0
 16 15  2  0
 17 18  1  0
 18 19  2  0
 20 18  1  0
 20 21  1  0
 22 21  1  6
 22 23  1  0
 24 22  1  0
 24 25  1  0
 26 24  2  0
M  END
$$$$
