TKQ.pdb
     RDKit          3D

 26 25  0  0  1  0  0  0  0  0999 V2000
   13.6166   -9.2521  -11.2931 C   0  0  0  0  0  0  0  0  0  0  0  0
   14.2287  -10.4277  -10.5617 C   0  0  1  0  0  0  0  0  0  0  0  0
   13.4820  -11.5642  -10.7891 O   0  0  0  0  0  0  0  0  0  0  0  0
   15.6719  -10.6399  -10.9613 C   0  0  2  0  0  0  0  0  0  0  0  0
   16.2372  -11.7344  -10.2015 N   0  0  0  0  0  0  0  0  0  0  0  0
   16.4974   -9.4354  -10.7032 C   0  0  0  0  0  0  0  0  0  0  0  0
   16.7840   -9.0533   -9.5304 O   0  0  0  0  0  0  0  0  0  0  0  0
   17.0066   -8.6519  -11.7553 N   0  0  0  0  0  0  0  0  0  0  0  0
   17.8382   -7.4495  -11.5054 C   0  0  1  0  0  0  0  0  0  0  0  0
   18.7848   -7.3578  -12.6300 C   0  0  0  0  0  0  0  0  0  0  0  0
   19.6540   -6.1705  -12.7484 C   0  0  0  0  0  0  0  0  0  0  0  0
   20.5299   -6.4292  -13.9937 C   0  0  0  0  0  0  0  0  0  0  0  0
   21.5654   -5.3429  -14.1426 C   0  0  0  0  0  0  0  0  0  0  0  0
   22.2343   -5.4572  -15.4253 N   0  0  0  0  0  0  0  0  0  0  0  0
   16.9311   -6.3353  -11.2735 C   0  0  0  0  0  0  0  0  0  0  0  0
   15.8822   -6.2105  -11.9502 O   0  0  0  0  0  0  0  0  0  0  0  0
   13.2198   -5.1663   -7.0199 N   0  0  0  0  0  0  0  0  0  0  0  0
   13.3622   -3.8569   -7.5593 C   0  0  0  0  0  0  0  0  0  0  0  0
   12.5890   -2.9649   -7.0688 O   0  0  0  0  0  0  0  0  0  0  0  0
   14.3298   -3.5118   -8.6085 C   0  0  0  0  0  0  0  0  0  0  0  0
   15.2786   -4.5776   -9.0060 C   0  0  0  0  0  0  0  0  0  0  0  0
   16.2524   -4.2151  -10.0433 C   0  0  2  0  0  0  0  0  0  0  0  0
   17.1818   -5.3484  -10.2827 N   0  0  0  0  0  0  0  0  0  0  0  0
   16.9688   -2.9658   -9.8931 C   0  0  0  0  0  0  0  0  0  0  0  0
   18.3406   -2.7774   -9.8407 O   0  0  0  0  0  0  0  0  0  0  0  0
   16.2921   -1.8787   -9.7819 O   0  0  0  0  0  0  0  0  0  0  0  0
  2  1  1  6
  2  4  1  0
  2  3  1  0
  4  5  1  1
  6  4  1  0
  7  6  2  0
  8  6  1  0
  9  8  1  0
  9 10  1  6
 10 11  1  0
 11 12  1  0
 12 13  1  0
 13 14  1  0
 15 23  1  0
 15  9  1  0
 16 15  2  0
 17 18  1  0
 18 19  2  0
 20 18  1  0
 20 21  1  0
 22 21  1  1
 22 23  1  0
 24 22  1  0
 24 25  1  0
 26 24  2  0
M  END
$$$$
