LPH.pdb
     RDKit          3D

 26 27  0  0  1  0  0  0  0  0999 V2000
   26.8925  -16.7844  -14.7882 C   0  0  0  0  0  0  0  0  0  0  0  0
   26.2045  -17.9803  -15.3450 C   0  0  1  0  0  0  0  0  0  0  0  0
   25.0605  -17.4499  -16.2238 C   0  0  0  0  0  0  0  0  0  0  0  0
   27.0243  -18.9308  -16.1285 C   0  0  0  0  0  0  0  0  0  0  0  0
   27.4878  -20.1290  -15.3308 C   0  0  2  0  0  0  0  0  0  0  0  0
   28.2587  -20.9763  -16.1639 N   0  0  0  0  0  0  0  0  0  0  0  0
   26.3564  -20.7698  -14.6248 C   0  0  0  0  0  0  0  0  0  0  0  0
   25.6167  -21.5238  -15.3721 O   0  0  0  0  0  0  0  0  0  0  0  0
   25.9985  -20.6618  -13.2834 N   0  0  0  0  0  0  0  0  0  0  0  0
   26.5685  -19.8936  -12.2237 C   0  0  0  0  0  0  0  0  0  0  0  0
   26.6282  -20.8985  -11.0839 C   0  0  0  0  0  0  0  0  0  0  0  0
   25.4600  -21.7857  -11.3397 C   0  0  0  0  0  0  0  0  0  0  0  0
   24.8756  -21.3722  -12.6679 C   0  0  1  0  0  0  0  0  0  0  0  0
   23.6900  -20.5055  -12.5396 C   0  0  0  0  0  0  0  0  0  0  0  0
   23.8696  -19.2780  -12.3070 O   0  0  0  0  0  0  0  0  0  0  0  0
   22.3651  -20.9472  -12.6579 N   0  0  0  0  0  0  0  0  0  0  0  0
   21.4349  -20.4723  -13.6987 C   0  0  1  0  0  0  0  0  0  0  0  0
   21.9094  -20.9384  -15.0525 C   0  0  0  0  0  0  0  0  0  0  0  0
   21.0023  -20.4361  -16.0999 C   0  0  0  0  0  0  0  0  0  0  0  0
   19.7583  -19.8350  -15.8414 C   0  0  0  0  0  0  0  0  0  0  0  0
   19.1979  -19.4975  -17.0130 N   0  0  0  0  0  0  0  0  0  0  0  0
   20.0188  -19.8519  -17.9991 C   0  0  0  0  0  0  0  0  0  0  0  0
   21.0888  -20.4095  -17.4360 N   0  0  0  0  0  0  0  0  0  0  0  0
   20.1323  -21.1667  -13.4311 C   0  0  0  0  0  0  0  0  0  0  0  0
   20.1547  -22.4406  -13.2931 O   0  0  0  0  0  0  0  0  0  0  0  0
   18.9116  -20.5826  -13.3164 O   0  0  0  0  0  0  0  0  0  0  0  0
  2  1  1  6
  3  2  1  0
  4  2  1  0
  5  6  1  6
  5  4  1  0
  7  8  2  0
  7  5  1  0
  9  7  1  0
 10  9  1  0
 11 10  1  0
 12 11  1  0
 12 13  1  0
 13 14  1  1
 13  9  1  0
 14 15  2  0
 16 17  1  0
 16 14  1  0
 18 19  1  0
 17 18  1  6
 19 23  1  0
 20 19  2  0
 20 21  1  0
 21 22  1  0
 23 22  2  0
 24 17  1  0
 25 24  2  0
 26 24  1  0
M  END
$$$$
