LPH.pdb
     RDKit          3D

 26 27  0  0  1  0  0  0  0  0999 V2000
   28.2306  -13.0911  -15.6681 C   0  0  0  0  0  0  0  0  0  0  0  0
   27.0688  -13.4520  -16.5244 C   0  0  1  0  0  0  0  0  0  0  0  0
   26.4129  -14.6772  -15.8679 C   0  0  0  0  0  0  0  0  0  0  0  0
   26.0434  -12.4096  -16.7508 C   0  0  0  0  0  0  0  0  0  0  0  0
   25.0024  -12.7989  -17.7762 C   0  0  2  0  0  0  0  0  0  0  0  0
   25.6464  -13.1434  -18.9898 N   0  0  0  0  0  0  0  0  0  0  0  0
   23.9410  -11.7728  -17.8748 C   0  0  0  0  0  0  0  0  0  0  0  0
   24.1603  -10.8591  -18.7643 O   0  0  0  0  0  0  0  0  0  0  0  0
   22.7610  -11.6730  -17.1422 N   0  0  0  0  0  0  0  0  0  0  0  0
   22.2836  -12.4334  -16.0324 C   0  0  0  0  0  0  0  0  0  0  0  0
   20.8370  -12.7031  -16.4160 C   0  0  0  0  0  0  0  0  0  0  0  0
   20.4593  -11.5055  -17.2161 C   0  0  0  0  0  0  0  0  0  0  0  0
   21.7117  -10.6836  -17.3963 C   0  0  1  0  0  0  0  0  0  0  0  0
   21.8021   -9.5452  -16.4640 C   0  0  0  0  0  0  0  0  0  0  0  0
   22.3448   -9.7349  -15.3403 O   0  0  0  0  0  0  0  0  0  0  0  0
   21.3258   -8.2551  -16.7349 N   0  0  0  0  0  0  0  0  0  0  0  0
   21.5290   -7.1034  -15.8371 C   0  0  1  0  0  0  0  0  0  0  0  0
   21.5175   -5.8269  -16.6407 C   0  0  0  0  0  0  0  0  0  0  0  0
   22.7152   -5.7652  -17.4973 C   0  0  0  0  0  0  0  0  0  0  0  0
   23.9320   -6.4006  -17.1955 C   0  0  0  0  0  0  0  0  0  0  0  0
   24.8038   -6.1397  -18.1817 N   0  0  0  0  0  0  0  0  0  0  0  0
   24.2056   -5.3739  -19.0914 C   0  0  0  0  0  0  0  0  0  0  0  0
   22.9617   -5.1610  -18.6667 N   0  0  0  0  0  0  0  0  0  0  0  0
   20.3259   -7.0651  -14.9418 C   0  0  0  0  0  0  0  0  0  0  0  0
   19.3507   -7.8479  -15.2221 O   0  0  0  0  0  0  0  0  0  0  0  0
   20.1549   -6.2786  -13.8480 O   0  0  0  0  0  0  0  0  0  0  0  0
  2  1  1  1
  3  2  1  0
  4  2  1  0
  5  6  1  6
  5  4  1  0
  7  8  2  0
  7  5  1  0
  9  7  1  0
 10  9  1  0
 11 10  1  0
 12 11  1  0
 12 13  1  0
 13 14  1  1
 13  9  1  0
 14 15  2  0
 16 17  1  0
 16 14  1  0
 18 19  1  0
 17 18  1  6
 19 23  1  0
 20 19  2  0
 20 21  1  0
 21 22  1  0
 23 22  2  0
 24 17  1  0
 25 24  2  0
 26 24  1  0
M  END
$$$$
