LPH.pdb
     RDKit          3D

 26 27  0  0  1  0  0  0  0  0999 V2000
   18.6042  -16.1820  -22.6910 C   0  0  0  0  0  0  0  0  0  0  0  0
   19.8437  -16.0324  -21.8820 C   0  0  1  0  0  0  0  0  0  0  0  0
   21.0044  -15.9345  -22.8847 C   0  0  0  0  0  0  0  0  0  0  0  0
   19.9080  -14.8893  -20.9447 C   0  0  0  0  0  0  0  0  0  0  0  0
   21.1662  -14.8658  -20.1061 C   0  0  2  0  0  0  0  0  0  0  0  0
   21.2819  -16.0887  -19.4010 N   0  0  0  0  0  0  0  0  0  0  0  0
   21.2378  -13.6362  -19.2862 C   0  0  0  0  0  0  0  0  0  0  0  0
   20.9118  -13.8004  -18.0449 O   0  0  0  0  0  0  0  0  0  0  0  0
   21.6049  -12.3519  -19.6798 N   0  0  0  0  0  0  0  0  0  0  0  0
   21.9426  -11.8297  -20.9648 C   0  0  0  0  0  0  0  0  0  0  0  0
   23.1852  -11.0047  -20.6686 C   0  0  0  0  0  0  0  0  0  0  0  0
   22.9651  -10.5307  -19.2744 C   0  0  0  0  0  0  0  0  0  0  0  0
   21.7146  -11.2087  -18.7712 C   0  0  1  0  0  0  0  0  0  0  0  0
   20.5187  -10.3490  -18.8341 C   0  0  0  0  0  0  0  0  0  0  0  0
   19.9135  -10.2471  -19.9369 O   0  0  0  0  0  0  0  0  0  0  0  0
   19.9984   -9.6292  -17.7497 N   0  0  0  0  0  0  0  0  0  0  0  0
   18.7742   -8.8109  -17.8236 C   0  0  1  0  0  0  0  0  0  0  0  0
   17.8880   -9.1179  -16.6423 C   0  0  0  0  0  0  0  0  0  0  0  0
   16.6670   -8.2950  -16.7066 C   0  0  0  0  0  0  0  0  0  0  0  0
   16.6606   -6.8908  -16.6466 C   0  0  0  0  0  0  0  0  0  0  0  0
   15.3901   -6.4676  -16.7321 N   0  0  0  0  0  0  0  0  0  0  0  0
   14.5917   -7.5269  -16.8430 C   0  0  0  0  0  0  0  0  0  0  0  0
   15.3702   -8.6070  -16.8259 N   0  0  0  0  0  0  0  0  0  0  0  0
   19.2236   -7.3876  -17.6724 C   0  0  0  0  0  0  0  0  0  0  0  0
   20.3374   -7.1758  -17.0750 O   0  0  0  0  0  0  0  0  0  0  0  0
   18.5681   -6.2806  -18.1076 O   0  0  0  0  0  0  0  0  0  0  0  0
  2  1  1  6
  3  2  1  0
  4  2  1  0
  5  6  1  1
  5  4  1  0
  7  8  2  0
  7  5  1  0
  9  7  1  0
 10  9  1  0
 11 10  1  0
 12 11  1  0
 12 13  1  0
 13 14  1  6
 13  9  1  0
 14 15  2  0
 16 17  1  0
 16 14  1  0
 18 19  1  0
 17 18  1  1
 19 23  1  0
 20 19  2  0
 20 21  1  0
 21 22  1  0
 23 22  2  0
 24 17  1  0
 25 24  2  0
 26 24  1  0
M  END
$$$$
