LPH.pdb
     RDKit          3D

 26 27  0  0  1  0  0  0  0  0999 V2000
    9.7569  -17.2025    4.0033 C   0  0  0  0  0  0  0  0  0  0  0  0
   10.9655  -16.6297    3.3519 C   0  0  1  0  0  0  0  0  0  0  0  0
   10.9104  -15.1134    3.5973 C   0  0  0  0  0  0  0  0  0  0  0  0
   12.2810  -17.1490    3.7869 C   0  0  0  0  0  0  0  0  0  0  0  0
   13.4251  -16.7177    2.8971 C   0  0  2  0  0  0  0  0  0  0  0  0
   13.2657  -17.2983    1.6150 N   0  0  0  0  0  0  0  0  0  0  0  0
   14.7296  -16.9496    3.5555 C   0  0  0  0  0  0  0  0  0  0  0  0
   15.4742  -17.8328    2.9728 O   0  0  0  0  0  0  0  0  0  0  0  0
   15.2417  -16.3464    4.7013 N   0  0  0  0  0  0  0  0  0  0  0  0
   14.6631  -15.3940    5.5935 C   0  0  0  0  0  0  0  0  0  0  0  0
   15.7915  -14.3923    5.7828 C   0  0  0  0  0  0  0  0  0  0  0  0
   17.0205  -15.2228    5.6525 C   0  0  0  0  0  0  0  0  0  0  0  0
   16.5760  -16.6061    5.2461 C   0  0  1  0  0  0  0  0  0  0  0  0
   16.5269  -17.5576    6.3710 C   0  0  0  0  0  0  0  0  0  0  0  0
   15.4690  -17.6179    7.0568 O   0  0  0  0  0  0  0  0  0  0  0  0
   17.5778  -18.4088    6.7396 N   0  0  0  0  0  0  0  0  0  0  0  0
   17.4715  -19.4266    7.8011 C   0  0  1  0  0  0  0  0  0  0  0  0
   17.9060  -20.7669    7.2626 C   0  0  0  0  0  0  0  0  0  0  0  0
   16.8764  -21.2966    6.3509 C   0  0  0  0  0  0  0  0  0  0  0  0
   15.7478  -22.0199    6.7738 C   0  0  0  0  0  0  0  0  0  0  0  0
   15.0239  -22.3481    5.6927 N   0  0  0  0  0  0  0  0  0  0  0  0
   15.6321  -21.8723    4.6085 C   0  0  0  0  0  0  0  0  0  0  0  0
   16.7342  -21.2487    5.0202 N   0  0  0  0  0  0  0  0  0  0  0  0
   18.4718  -19.0326    8.8474 C   0  0  0  0  0  0  0  0  0  0  0  0
   19.4217  -18.2473    8.4963 O   0  0  0  0  0  0  0  0  0  0  0  0
   18.4801  -19.4235   10.1480 O   0  0  0  0  0  0  0  0  0  0  0  0
  2  1  1  1
  3  2  1  0
  4  2  1  0
  5  6  1  6
  5  4  1  0
  7  8  2  0
  7  5  1  0
  9  7  1  0
 10  9  1  0
 11 10  1  0
 12 11  1  0
 12 13  1  0
 13 14  1  1
 13  9  1  0
 14 15  2  0
 16 17  1  0
 16 14  1  0
 18 19  1  0
 17 18  1  6
 19 23  1  0
 20 19  2  0
 20 21  1  0
 21 22  1  0
 23 22  2  0
 24 17  1  0
 25 24  2  0
 26 24  1  0
M  END
$$$$
