LPH.pdb
     RDKit          3D

 26 27  0  0  1  0  0  0  0  0999 V2000
   26.0684  -15.2526  -14.9159 C   0  0  0  0  0  0  0  0  0  0  0  0
   25.8862  -16.7140  -15.1261 C   0  0  1  0  0  0  0  0  0  0  0  0
   27.2633  -17.2676  -15.5256 C   0  0  0  0  0  0  0  0  0  0  0  0
   25.3518  -17.5008  -13.9927 C   0  0  0  0  0  0  0  0  0  0  0  0
   25.2443  -18.9811  -14.2823 C   0  0  2  0  0  0  0  0  0  0  0  0
   24.0241  -19.2395  -14.9536 N   0  0  0  0  0  0  0  0  0  0  0  0
   25.4957  -19.7826  -13.0642 C   0  0  0  0  0  0  0  0  0  0  0  0
   24.4266  -20.1527  -12.4365 O   0  0  0  0  0  0  0  0  0  0  0  0
   26.7164  -20.1776  -12.5230 N   0  0  0  0  0  0  0  0  0  0  0  0
   28.0545  -19.8712  -12.9147 C   0  0  0  0  0  0  0  0  0  0  0  0
   28.7343  -21.2301  -12.8550 C   0  0  0  0  0  0  0  0  0  0  0  0
   28.0056  -21.9371  -11.7659 C   0  0  0  0  0  0  0  0  0  0  0  0
   26.8592  -21.0471  -11.3534 C   0  0  1  0  0  0  0  0  0  0  0  0
   27.1335  -20.2708  -10.1305 C   0  0  0  0  0  0  0  0  0  0  0  0
   27.5076  -19.0719  -10.2553 O   0  0  0  0  0  0  0  0  0  0  0  0
   27.0085  -20.7697   -8.8267 N   0  0  0  0  0  0  0  0  0  0  0  0
   27.4920  -20.0581   -7.6292 C   0  0  1  0  0  0  0  0  0  0  0  0
   26.4297  -20.0889   -6.5588 C   0  0  0  0  0  0  0  0  0  0  0  0
   26.9770  -19.5603   -5.2967 C   0  0  0  0  0  0  0  0  0  0  0  0
   28.2131  -18.8996   -5.1907 C   0  0  0  0  0  0  0  0  0  0  0  0
   28.4010  -18.5530   -3.9080 N   0  0  0  0  0  0  0  0  0  0  0  0
   27.3517  -18.9580   -3.1961 C   0  0  0  0  0  0  0  0  0  0  0  0
   26.5135  -19.5561   -4.0403 N   0  0  0  0  0  0  0  0  0  0  0  0
   28.6506  -20.8610   -7.1160 C   0  0  0  0  0  0  0  0  0  0  0  0
   29.5476  -20.2452   -6.4390 O   0  0  0  0  0  0  0  0  0  0  0  0
   28.8557  -22.1918   -7.2932 O   0  0  0  0  0  0  0  0  0  0  0  0
  2  1  1  1
  3  2  1  0
  4  2  1  0
  5  6  1  1
  5  4  1  0
  7  8  2  0
  7  5  1  0
  9  7  1  0
 10  9  1  0
 11 10  1  0
 12 11  1  0
 12 13  1  0
 13 14  1  1
 13  9  1  0
 14 15  2  0
 16 17  1  0
 16 14  1  0
 18 19  1  0
 17 18  1  1
 19 23  1  0
 20 19  2  0
 20 21  1  0
 21 22  1  0
 23 22  2  0
 24 17  1  0
 25 24  2  0
 26 24  1  0
M  END
$$$$
