LPH.pdb
     RDKit          3D

 26 27  0  0  1  0  0  0  0  0999 V2000
   21.5753  -14.0031  -22.2477 C   0  0  0  0  0  0  0  0  0  0  0  0
   21.6206  -14.6480  -20.9078 C   0  0  1  0  0  0  0  0  0  0  0  0
   22.9836  -15.3520  -20.8136 C   0  0  0  0  0  0  0  0  0  0  0  0
   21.4377  -13.7742  -19.7279 C   0  0  0  0  0  0  0  0  0  0  0  0
   21.3852  -14.5296  -18.4190 C   0  0  2  0  0  0  0  0  0  0  0  0
   20.3713  -15.5162  -18.4881 N   0  0  0  0  0  0  0  0  0  0  0  0
   21.3078  -13.6009  -17.2698 C   0  0  0  0  0  0  0  0  0  0  0  0
   20.1337  -13.5080  -16.7343 O   0  0  0  0  0  0  0  0  0  0  0  0
   22.3228  -12.8310  -16.7075 N   0  0  0  0  0  0  0  0  0  0  0  0
   23.6831  -12.6485  -17.1001 C   0  0  0  0  0  0  0  0  0  0  0  0
   24.4268  -12.7761  -15.7798 C   0  0  0  0  0  0  0  0  0  0  0  0
   23.4553  -12.2523  -14.7803 C   0  0  0  0  0  0  0  0  0  0  0  0
   22.1627  -11.9959  -15.5153 C   0  0  1  0  0  0  0  0  0  0  0  0
   21.9632  -10.5786  -15.8685 C   0  0  0  0  0  0  0  0  0  0  0  0
   22.5905  -10.1163  -16.8613 O   0  0  0  0  0  0  0  0  0  0  0  0
   21.1204   -9.6974  -15.1772 N   0  0  0  0  0  0  0  0  0  0  0  0
   20.6377   -8.4209  -15.7353 C   0  0  1  0  0  0  0  0  0  0  0  0
   19.1299   -8.3941  -15.7072 C   0  0  0  0  0  0  0  0  0  0  0  0
   18.6440   -7.0951  -16.2058 C   0  0  0  0  0  0  0  0  0  0  0  0
   17.9724   -6.1491  -15.4123 C   0  0  0  0  0  0  0  0  0  0  0  0
   17.6738   -5.0880  -16.1775 N   0  0  0  0  0  0  0  0  0  0  0  0
   18.1196   -5.3102  -17.4119 C   0  0  0  0  0  0  0  0  0  0  0  0
   18.6948   -6.5111  -17.4098 N   0  0  0  0  0  0  0  0  0  0  0  0
   21.1098   -7.3563  -14.7895 C   0  0  0  0  0  0  0  0  0  0  0  0
   21.3176   -7.6930  -13.5706 O   0  0  0  0  0  0  0  0  0  0  0  0
   21.3455   -6.0529  -15.0895 O   0  0  0  0  0  0  0  0  0  0  0  0
  2  1  1  6
  3  2  1  0
  4  2  1  0
  5  6  1  6
  5  4  1  0
  7  8  2  0
  7  5  1  0
  9  7  1  0
 10  9  1  0
 11 10  1  0
 12 11  1  0
 12 13  1  0
 13 14  1  6
 13  9  1  0
 14 15  2  0
 16 17  1  0
 16 14  1  0
 18 19  1  0
 17 18  1  1
 19 23  1  0
 20 19  2  0
 20 21  1  0
 21 22  1  0
 23 22  2  0
 24 17  1  0
 25 24  2  0
 26 24  1  0
M  END
$$$$
