LPH.pdb
     RDKit          3D

 26 27  0  0  1  0  0  0  0  0999 V2000
   26.0189  -15.9457  -16.1766 C   0  0  0  0  0  0  0  0  0  0  0  0
   26.6375  -17.2475  -15.8080 C   0  0  1  0  0  0  0  0  0  0  0  0
   27.8487  -16.9144  -14.9224 C   0  0  0  0  0  0  0  0  0  0  0  0
   25.7798  -18.2338  -15.1146 C   0  0  0  0  0  0  0  0  0  0  0  0
   26.4400  -19.5811  -14.9254 C   0  0  2  0  0  0  0  0  0  0  0  0
   26.9488  -20.0319  -16.1680 N   0  0  0  0  0  0  0  0  0  0  0  0
   25.5437  -20.5190  -14.2139 C   0  0  0  0  0  0  0  0  0  0  0  0
   25.0219  -21.4347  -14.9644 O   0  0  0  0  0  0  0  0  0  0  0  0
   25.2007  -20.5351  -12.8644 N   0  0  0  0  0  0  0  0  0  0  0  0
   25.5924  -19.6794  -11.7910 C   0  0  0  0  0  0  0  0  0  0  0  0
   25.9182  -20.6690  -10.6833 C   0  0  0  0  0  0  0  0  0  0  0  0
   24.9930  -21.8053  -10.9474 C   0  0  0  0  0  0  0  0  0  0  0  0
   24.2963  -21.5113  -12.2531 C   0  0  1  0  0  0  0  0  0  0  0  0
   22.9400  -20.9604  -12.0801 C   0  0  0  0  0  0  0  0  0  0  0  0
   22.8232  -19.7305  -11.8218 O   0  0  0  0  0  0  0  0  0  0  0  0
   21.7586  -21.7078  -12.1820 N   0  0  0  0  0  0  0  0  0  0  0  0
   20.4103  -21.1112  -12.1715 C   0  0  1  0  0  0  0  0  0  0  0  0
   19.6184  -21.6293  -13.3461 C   0  0  0  0  0  0  0  0  0  0  0  0
   19.9750  -20.8746  -14.5607 C   0  0  0  0  0  0  0  0  0  0  0  0
   20.8271  -19.7568  -14.5707 C   0  0  0  0  0  0  0  0  0  0  0  0
   20.9351  -19.3161  -15.8336 N   0  0  0  0  0  0  0  0  0  0  0  0
   20.1980  -20.0936  -16.6237 C   0  0  0  0  0  0  0  0  0  0  0  0
   19.6334  -21.0166  -15.8478 N   0  0  0  0  0  0  0  0  0  0  0  0
   19.7425  -21.6311  -10.9329 C   0  0  0  0  0  0  0  0  0  0  0  0
   20.1944  -22.7172  -10.4246 O   0  0  0  0  0  0  0  0  0  0  0  0
   18.6939  -21.0663  -10.2802 O   0  0  0  0  0  0  0  0  0  0  0  0
  2  1  1  1
  3  2  1  0
  4  2  1  0
  5  6  1  6
  5  4  1  0
  7  8  2  0
  7  5  1  0
  9  7  1  0
 10  9  1  0
 11 10  1  0
 12 11  1  0
 12 13  1  0
 13 14  1  1
 13  9  1  0
 14 15  2  0
 16 17  1  0
 16 14  1  0
 18 19  1  0
 17 18  1  6
 19 23  1  0
 20 19  2  0
 20 21  1  0
 21 22  1  0
 23 22  2  0
 24 17  1  0
 25 24  2  0
 26 24  1  0
M  END
$$$$
