GRY.pdb
     RDKit          3D

 28 28  0  0  1  0  0  0  0  0999 V2000
   24.3287  -17.5323  -21.3574 N   0  0  0  0  0  0  0  0  0  0  0  0
   24.8610  -18.6650  -20.6883 C   0  0  0  0  0  0  0  0  0  0  0  0
   24.7316  -18.5858  -19.2063 C   0  0  0  0  0  0  0  0  0  0  0  0
   24.9750  -17.4611  -18.6263 O   0  0  0  0  0  0  0  0  0  0  0  0
   23.6305  -24.9869  -14.1853 N   0  0  0  0  0  0  0  0  0  0  0  0
   24.3989  -24.3643  -15.2563 C   0  0  0  0  0  0  0  0  0  0  0  0
   25.2614  -25.0916  -15.7820 N   0  0  0  0  0  0  0  0  0  0  0  0
   24.0646  -23.0212  -15.6225 N   0  0  0  0  0  0  0  0  0  0  0  0
   23.2012  -22.3043  -14.6738 C   0  0  0  0  0  0  0  0  0  0  0  0
   22.7832  -21.0315  -15.3327 C   0  0  0  0  0  0  0  0  0  0  0  0
   23.2400  -20.7632  -16.6929 C   0  0  0  0  0  0  0  0  0  0  0  0
   24.2401  -19.7033  -16.9804 C   0  0  2  0  0  0  0  0  0  0  0  0
   24.3517  -19.7142  -18.4545 N   0  0  0  0  0  0  0  0  0  0  0  0
   25.5585  -20.0866  -16.3907 C   0  0  0  0  0  0  0  0  0  0  0  0
   26.2715  -20.9781  -16.9655 O   0  0  0  0  0  0  0  0  0  0  0  0
   25.9228  -24.8780  -16.5859 O   0  0  0  0  0  0  0  0  0  0  0  0
   23.2187  -20.8418   -9.7778 C   0  0  0  0  0  0  0  0  0  0  0  0
   24.2588  -20.4468  -10.6095 C   0  0  0  0  0  0  0  0  0  0  0  0
   24.0100  -19.7109  -11.7683 C   0  0  0  0  0  0  0  0  0  0  0  0
   25.0209  -19.3008  -12.6018 C   0  0  0  0  0  0  0  0  0  0  0  0
   26.3289  -19.5883  -12.3512 C   0  0  0  0  0  0  0  0  0  0  0  0
   27.4547  -19.2208  -13.2127 C   0  0  1  0  0  0  0  0  0  0  0  0
   27.3341  -19.8925  -14.5833 N   0  0  0  0  0  0  0  0  0  0  0  0
   26.0919  -19.5201  -15.2159 C   0  0  0  0  0  0  0  0  0  0  0  0
   27.4961  -21.3300  -14.4222 O   0  0  0  0  0  0  0  0  0  0  0  0
   26.6070  -22.1990  -14.5249 C   0  0  0  0  0  0  0  0  0  0  0  0
   26.6106  -20.3313  -11.1918 C   0  0  0  0  0  0  0  0  0  0  0  0
   25.5906  -20.7413  -10.3578 O   0  0  0  0  0  0  0  0  0  0  0  0
  1  2  1  0
  3  2  1  0
  3  4  2  0
  5  6  1  0
  6  7  2  0
  8  6  1  0
  8  9  1  0
 10  9  1  0
 11 10  1  0
 12 13  1  0
 12 11  1  6
 13  3  1  0
 14 12  1  0
 15 14  2  0
 17 16  1  0
 17 18  2  0
 19 18  1  0
 20 19  2  0
 21 20  1  0
 22 21  1  6
 22 23  1  0
 23 14  1  0
 24 22  1  0
 24 28  1  0
 25 24  2  0
 26 27  2  0
 26 20  1  0
 27 17  1  0
M  END
$$$$
