GRY.pdb
     RDKit          3D

 28 28  0  0  1  0  0  0  0  0999 V2000
   25.1326  -20.2212   -9.4445 N   0  0  0  0  0  0  0  0  0  0  0  0
   25.6875  -21.0990  -10.4118 C   0  0  0  0  0  0  0  0  0  0  0  0
   25.7490  -20.5052  -11.7766 C   0  0  0  0  0  0  0  0  0  0  0  0
   25.0922  -19.4204  -12.0062 O   0  0  0  0  0  0  0  0  0  0  0  0
   29.9270  -24.4641  -15.8285 N   0  0  0  0  0  0  0  0  0  0  0  0
   28.5718  -24.4006  -16.3621 C   0  0  0  0  0  0  0  0  0  0  0  0
   27.8978  -25.4376  -16.2221 N   0  0  0  0  0  0  0  0  0  0  0  0
   28.1412  -23.1647  -16.9424 N   0  0  0  0  0  0  0  0  0  0  0  0
   29.0580  -22.0301  -16.7641 C   0  0  0  0  0  0  0  0  0  0  0  0
   28.2954  -20.9518  -16.0681 C   0  0  0  0  0  0  0  0  0  0  0  0
   27.8621  -21.1756  -14.6922 C   0  0  0  0  0  0  0  0  0  0  0  0
   26.6176  -20.5623  -14.1614 C   0  0  2  0  0  0  0  0  0  0  0  0
   26.5077  -21.1144  -12.7944 N   0  0  0  0  0  0  0  0  0  0  0  0
   25.4483  -21.0260  -14.9680 C   0  0  0  0  0  0  0  0  0  0  0  0
   25.0346  -22.2291  -14.8454 O   0  0  0  0  0  0  0  0  0  0  0  0
   26.9357  -25.6721  -16.6076 O   0  0  0  0  0  0  0  0  0  0  0  0
   17.2362  -18.8346  -14.3676 C   0  0  0  0  0  0  0  0  0  0  0  0
   18.6196  -18.9544  -14.4079 C   0  0  0  0  0  0  0  0  0  0  0  0
   19.4138  -17.9251  -14.9139 C   0  0  0  0  0  0  0  0  0  0  0  0
   20.7830  -18.0152  -14.9563 C   0  0  0  0  0  0  0  0  0  0  0  0
   21.4515  -19.1151  -14.5096 C   0  0  0  0  0  0  0  0  0  0  0  0
   22.9034  -19.2996  -14.5598 C   0  0  2  0  0  0  0  0  0  0  0  0
   23.3228  -19.9671  -15.8724 N   0  0  0  0  0  0  0  0  0  0  0  0
   24.7448  -20.2118  -15.8778 C   0  0  0  0  0  0  0  0  0  0  0  0
   22.8702  -19.1470  -16.9866 O   0  0  0  0  0  0  0  0  0  0  0  0
   23.4290  -18.1287  -17.4412 C   0  0  0  0  0  0  0  0  0  0  0  0
   20.6776  -20.1703  -13.9964 C   0  0  0  0  0  0  0  0  0  0  0  0
   19.3016  -20.0746  -13.9567 O   0  0  0  0  0  0  0  0  0  0  0  0
  1  2  1  0
  3  2  1  0
  3  4  2  0
  5  6  1  0
  6  7  2  0
  8  6  1  0
  8  9  1  0
 10  9  1  0
 11 10  1  0
 12 13  1  0
 12 11  1  6
 13  3  1  0
 14 12  1  0
 15 14  2  0
 17 16  1  0
 17 18  2  0
 19 18  1  0
 20 19  2  0
 21 20  1  0
 22 21  1  1
 22 23  1  0
 23 14  1  0
 24 22  1  0
 24 28  1  0
 25 24  2  0
 26 27  2  0
 26 20  1  0
 27 17  1  0
M  END
$$$$
