GRY.pdb
     RDKit          3D

 28 28  0  0  1  0  0  0  0  0999 V2000
   28.3195  -22.5639  -15.6917 N   0  0  0  0  0  0  0  0  0  0  0  0
   27.2784  -22.3503  -16.6322 C   0  0  0  0  0  0  0  0  0  0  0  0
   26.3767  -21.2231  -16.2638 C   0  0  0  0  0  0  0  0  0  0  0  0
   26.5745  -20.6172  -15.1437 O   0  0  0  0  0  0  0  0  0  0  0  0
   23.1854  -14.4058  -16.3231 N   0  0  0  0  0  0  0  0  0  0  0  0
   21.9225  -15.1341  -16.3269 C   0  0  0  0  0  0  0  0  0  0  0  0
   20.9637  -14.5354  -15.8057 N   0  0  0  0  0  0  0  0  0  0  0  0
   21.8965  -16.4200  -16.9556 N   0  0  0  0  0  0  0  0  0  0  0  0
   23.1755  -16.8729  -17.5201 C   0  0  0  0  0  0  0  0  0  0  0  0
   22.9226  -18.1822  -18.1914 C   0  0  0  0  0  0  0  0  0  0  0  0
   23.9333  -19.2303  -18.0872 C   0  0  0  0  0  0  0  0  0  0  0  0
   24.3560  -19.7721  -16.7704 C   0  0  2  0  0  0  0  0  0  0  0  0
   25.3310  -20.8272  -17.1196 N   0  0  0  0  0  0  0  0  0  0  0  0
   23.1841  -20.4003  -16.0885 C   0  0  0  0  0  0  0  0  0  0  0  0
   22.7189  -21.5076  -16.5256 O   0  0  0  0  0  0  0  0  0  0  0  0
   19.9486  -14.8376  -15.7188 O   0  0  0  0  0  0  0  0  0  0  0  0
   16.8502  -21.9224   -9.9952 C   0  0  0  0  0  0  0  0  0  0  0  0
   17.9253  -21.4003  -10.7032 C   0  0  0  0  0  0  0  0  0  0  0  0
   19.1462  -22.0735  -10.7521 C   0  0  0  0  0  0  0  0  0  0  0  0
   20.2207  -21.5834  -11.4521 C   0  0  0  0  0  0  0  0  0  0  0  0
   20.1631  -20.4091  -12.1404 C   0  0  0  0  0  0  0  0  0  0  0  0
   21.2769  -19.8044  -12.8743 C   0  0  2  0  0  0  0  0  0  0  0  0
   21.4117  -20.4244  -14.2678 N   0  0  0  0  0  0  0  0  0  0  0  0
   22.5362  -19.8490  -14.9652 C   0  0  0  0  0  0  0  0  0  0  0  0
   20.1495  -20.2745  -14.9771 O   0  0  0  0  0  0  0  0  0  0  0  0
   19.7606  -19.2710  -15.6078 C   0  0  0  0  0  0  0  0  0  0  0  0
   18.9462  -19.7064  -12.1074 C   0  0  0  0  0  0  0  0  0  0  0  0
   17.8696  -20.2034  -11.4018 O   0  0  0  0  0  0  0  0  0  0  0  0
  1  2  1  0
  3  2  1  0
  3  4  2  0
  5  6  1  0
  6  7  2  0
  8  6  1  0
  8  9  1  0
 10  9  1  0
 11 10  1  0
 12 13  1  0
 12 11  1  6
 13  3  1  0
 14 12  1  0
 15 14  2  0
 17 16  1  0
 17 18  2  0
 19 18  1  0
 20 19  2  0
 21 20  1  0
 22 21  1  1
 22 23  1  0
 23 14  1  0
 24 22  1  0
 24 28  1  0
 25 24  2  0
 26 27  2  0
 26 20  1  0
 27 17  1  0
M  END
$$$$
