GRY.pdb
     RDKit          3D

 28 28  0  0  1  0  0  0  0  0999 V2000
   22.7949  -27.0291  -13.5005 N   0  0  0  0  0  0  0  0  0  0  0  0
   23.0943  -26.4209  -14.7472 C   0  0  0  0  0  0  0  0  0  0  0  0
   23.9599  -25.2152  -14.6193 C   0  0  0  0  0  0  0  0  0  0  0  0
   24.2105  -24.7595  -13.4402 O   0  0  0  0  0  0  0  0  0  0  0  0
   30.2251  -25.5221  -18.6612 N   0  0  0  0  0  0  0  0  0  0  0  0
   30.0235  -25.4840  -17.2179 C   0  0  0  0  0  0  0  0  0  0  0  0
   30.3504  -26.5195  -16.6094 N   0  0  0  0  0  0  0  0  0  0  0  0
   29.5224  -24.2707  -16.6467 N   0  0  0  0  0  0  0  0  0  0  0  0
   28.1075  -24.2964  -16.2506 C   0  0  0  0  0  0  0  0  0  0  0  0
   27.3536  -23.4883  -17.2543 C   0  0  0  0  0  0  0  0  0  0  0  0
   25.9249  -23.2706  -17.0488 C   0  0  0  0  0  0  0  0  0  0  0  0
   25.3134  -23.3579  -15.6980 C   0  0  2  0  0  0  0  0  0  0  0  0
   24.4934  -24.5865  -15.7607 N   0  0  0  0  0  0  0  0  0  0  0  0
   24.4142  -22.1845  -15.4793 C   0  0  0  0  0  0  0  0  0  0  0  0
   23.3285  -22.0888  -16.1468 O   0  0  0  0  0  0  0  0  0  0  0  0
   30.3095  -26.7298  -15.5686 O   0  0  0  0  0  0  0  0  0  0  0  0
   23.0112  -21.8271   -8.2237 C   0  0  0  0  0  0  0  0  0  0  0  0
   23.3310  -21.1921   -9.4171 C   0  0  0  0  0  0  0  0  0  0  0  0
   24.6553  -21.0953   -9.8451 C   0  0  0  0  0  0  0  0  0  0  0  0
   24.9965  -20.4812  -11.0246 C   0  0  0  0  0  0  0  0  0  0  0  0
   24.0648  -19.9262  -11.8491 C   0  0  0  0  0  0  0  0  0  0  0  0
   24.3558  -19.2208  -13.0991 C   0  0  2  0  0  0  0  0  0  0  0  0
   23.8327  -20.0082  -14.3036 N   0  0  0  0  0  0  0  0  0  0  0  0
   24.6797  -21.1470  -14.5636 C   0  0  0  0  0  0  0  0  0  0  0  0
   23.7057  -19.1071  -15.4397 O   0  0  0  0  0  0  0  0  0  0  0  0
   24.4911  -19.0030  -16.4032 C   0  0  0  0  0  0  0  0  0  0  0  0
   22.7215  -20.0057  -11.4430 C   0  0  0  0  0  0  0  0  0  0  0  0
   22.3842  -20.6237  -10.2562 O   0  0  0  0  0  0  0  0  0  0  0  0
  1  2  1  0
  3  2  1  0
  3  4  2  0
  5  6  1  0
  6  7  2  0
  8  6  1  0
  8  9  1  0
 10  9  1  0
 11 10  1  0
 12 13  1  0
 12 11  1  6
 13  3  1  0
 14 12  1  0
 15 14  2  0
 17 16  1  0
 17 18  2  0
 19 18  1  0
 20 19  2  0
 21 20  1  0
 22 21  1  1
 22 23  1  0
 23 14  1  0
 24 22  1  0
 24 28  1  0
 25 24  2  0
 26 27  2  0
 26 20  1  0
 27 17  1  0
M  END
$$$$
