GRY.pdb
     RDKit          3D

 28 28  0  0  1  0  0  0  0  0999 V2000
   27.7246  -17.3171  -17.1534 N   0  0  0  0  0  0  0  0  0  0  0  0
   27.9582  -18.5482  -16.4872 C   0  0  0  0  0  0  0  0  0  0  0  0
   26.8440  -19.5238  -16.6489 C   0  0  0  0  0  0  0  0  0  0  0  0
   25.7360  -19.1133  -17.1632 O   0  0  0  0  0  0  0  0  0  0  0  0
   28.5272  -27.7183  -16.0012 N   0  0  0  0  0  0  0  0  0  0  0  0
   28.3972  -26.8619  -17.1737 C   0  0  0  0  0  0  0  0  0  0  0  0
   28.9391  -27.2931  -18.2079 N   0  0  0  0  0  0  0  0  0  0  0  0
   27.6377  -25.6561  -17.0374 N   0  0  0  0  0  0  0  0  0  0  0  0
   26.5685  -25.6937  -16.0298 C   0  0  0  0  0  0  0  0  0  0  0  0
   25.8181  -24.4073  -16.1346 C   0  0  0  0  0  0  0  0  0  0  0  0
   26.5707  -23.1568  -16.1614 C   0  0  0  0  0  0  0  0  0  0  0  0
   25.8865  -21.8415  -16.2532 C   0  0  2  0  0  0  0  0  0  0  0  0
   26.9967  -20.8653  -16.2492 N   0  0  0  0  0  0  0  0  0  0  0  0
   25.0477  -21.6280  -15.0351 C   0  0  0  0  0  0  0  0  0  0  0  0
   25.6089  -21.5397  -13.8902 O   0  0  0  0  0  0  0  0  0  0  0  0
   28.9457  -26.8797  -19.1869 O   0  0  0  0  0  0  0  0  0  0  0  0
   18.9154  -19.0468   -9.3379 C   0  0  0  0  0  0  0  0  0  0  0  0
   19.8233  -19.2502  -10.3695 C   0  0  0  0  0  0  0  0  0  0  0  0
   21.1913  -19.3438  -10.1123 C   0  0  0  0  0  0  0  0  0  0  0  0
   22.1077  -19.5538  -11.1127 C   0  0  0  0  0  0  0  0  0  0  0  0
   21.7397  -19.6814  -12.4182 C   0  0  0  0  0  0  0  0  0  0  0  0
   22.6609  -19.8657  -13.5416 C   0  0  1  0  0  0  0  0  0  0  0  0
   22.7902  -21.3481  -13.9027 N   0  0  0  0  0  0  0  0  0  0  0  0
   23.6437  -21.5102  -15.0548 C   0  0  0  0  0  0  0  0  0  0  0  0
   21.4594  -21.9098  -14.0818 O   0  0  0  0  0  0  0  0  0  0  0  0
   20.7702  -22.4899  -13.2190 C   0  0  0  0  0  0  0  0  0  0  0  0
   20.3675  -19.5887  -12.7088 C   0  0  0  0  0  0  0  0  0  0  0  0
   19.4508  -19.3771  -11.6994 O   0  0  0  0  0  0  0  0  0  0  0  0
  1  2  1  0
  3  2  1  0
  3  4  2  0
  5  6  1  0
  6  7  2  0
  8  6  1  0
  8  9  1  0
 10  9  1  0
 11 10  1  0
 12 13  1  0
 12 11  1  1
 13  3  1  0
 14 12  1  0
 15 14  2  0
 17 16  1  0
 17 18  2  0
 19 18  1  0
 20 19  2  0
 21 20  1  0
 22 21  1  1
 22 23  1  0
 23 14  1  0
 24 22  1  0
 24 28  1  0
 25 24  2  0
 26 27  2  0
 26 20  1  0
 27 17  1  0
M  END
$$$$
