GRY.pdb
     RDKit          3D

 28 28  0  0  1  0  0  0  0  0999 V2000
   17.4277  -27.5535  -20.3463 N   0  0  0  0  0  0  0  0  0  0  0  0
   18.6180  -26.9890  -20.8740 C   0  0  0  0  0  0  0  0  0  0  0  0
   19.2692  -26.0207  -19.9478 C   0  0  0  0  0  0  0  0  0  0  0  0
   18.5723  -25.5288  -18.9818 O   0  0  0  0  0  0  0  0  0  0  0  0
   27.0390  -25.3651  -17.0760 N   0  0  0  0  0  0  0  0  0  0  0  0
   26.6085  -23.9829  -17.2478 C   0  0  0  0  0  0  0  0  0  0  0  0
   27.4809  -23.2052  -17.6761 N   0  0  0  0  0  0  0  0  0  0  0  0
   25.2423  -23.6693  -16.9568 N   0  0  0  0  0  0  0  0  0  0  0  0
   24.2586  -24.6728  -17.3868 C   0  0  0  0  0  0  0  0  0  0  0  0
   23.8176  -24.2971  -18.7627 C   0  0  0  0  0  0  0  0  0  0  0  0
   22.7563  -25.0743  -19.3955 C   0  0  0  0  0  0  0  0  0  0  0  0
   21.3244  -24.7232  -19.2145 C   0  0  2  0  0  0  0  0  0  0  0  0
   20.6163  -25.6503  -20.1227 N   0  0  0  0  0  0  0  0  0  0  0  0
   21.0914  -23.3206  -19.6741 C   0  0  0  0  0  0  0  0  0  0  0  0
   21.3436  -23.0038  -20.8864 O   0  0  0  0  0  0  0  0  0  0  0  0
   27.4090  -22.1677  -17.8944 O   0  0  0  0  0  0  0  0  0  0  0  0
   15.4615  -22.1269  -15.2527 C   0  0  0  0  0  0  0  0  0  0  0  0
   16.2721  -21.8152  -16.3369 C   0  0  0  0  0  0  0  0  0  0  0  0
   16.6083  -22.7842  -17.2826 C   0  0  0  0  0  0  0  0  0  0  0  0
   17.3998  -22.4994  -18.3675 C   0  0  0  0  0  0  0  0  0  0  0  0
   17.9082  -21.2547  -18.5874 C   0  0  0  0  0  0  0  0  0  0  0  0
   18.7904  -20.8863  -19.6967 C   0  0  1  0  0  0  0  0  0  0  0  0
   20.2594  -20.9538  -19.2703 N   0  0  0  0  0  0  0  0  0  0  0  0
   20.5973  -22.2915  -18.8480 C   0  0  0  0  0  0  0  0  0  0  0  0
   20.5037  -19.9436  -18.2512 O   0  0  0  0  0  0  0  0  0  0  0  0
   20.8748  -20.1406  -17.0767 C   0  0  0  0  0  0  0  0  0  0  0  0
   17.5888  -20.2576  -17.6496 C   0  0  0  0  0  0  0  0  0  0  0  0
   16.7932  -20.5495  -16.5607 O   0  0  0  0  0  0  0  0  0  0  0  0
  1  2  1  0
  3  2  1  0
  3  4  2  0
  5  6  1  0
  6  7  2  0
  8  6  1  0
  8  9  1  0
 10  9  1  0
 11 10  1  0
 12 13  1  0
 12 11  1  6
 13  3  1  0
 14 12  1  0
 15 14  2  0
 17 16  1  0
 17 18  2  0
 19 18  1  0
 20 19  2  0
 21 20  1  0
 22 21  1  6
 22 23  1  0
 23 14  1  0
 24 22  1  0
 24 28  1  0
 25 24  2  0
 26 27  2  0
 26 20  1  0
 27 17  1  0
M  END
$$$$
