GRY.pdb
     RDKit          3D

 28 28  0  0  1  0  0  0  0  0999 V2000
   20.1410  -21.4672  -13.1649 N   0  0  0  0  0  0  0  0  0  0  0  0
   19.4615  -20.8510  -14.2478 C   0  0  0  0  0  0  0  0  0  0  0  0
   20.1075  -19.5885  -14.7039 C   0  0  0  0  0  0  0  0  0  0  0  0
   20.0477  -18.5544  -13.9373 O   0  0  0  0  0  0  0  0  0  0  0  0
   26.7750  -17.9491  -18.4069 N   0  0  0  0  0  0  0  0  0  0  0  0
   26.0590  -16.8711  -19.0780 C   0  0  0  0  0  0  0  0  0  0  0  0
   26.3778  -16.6821  -20.2663 N   0  0  0  0  0  0  0  0  0  0  0  0
   25.0490  -16.1787  -18.3362 N   0  0  0  0  0  0  0  0  0  0  0  0
   24.3664  -16.9731  -17.3054 C   0  0  0  0  0  0  0  0  0  0  0  0
   23.4050  -17.8742  -18.0074 C   0  0  0  0  0  0  0  0  0  0  0  0
   22.5806  -18.7773  -17.2103 C   0  0  0  0  0  0  0  0  0  0  0  0
   21.3901  -18.2893  -16.4681 C   0  0  2  0  0  0  0  0  0  0  0  0
   20.7694  -19.5250  -15.9451 N   0  0  0  0  0  0  0  0  0  0  0  0
   20.4417  -17.6345  -17.4193 C   0  0  0  0  0  0  0  0  0  0  0  0
   19.8425  -18.3414  -18.2996 O   0  0  0  0  0  0  0  0  0  0  0  0
   25.9876  -15.9826  -20.9647 O   0  0  0  0  0  0  0  0  0  0  0  0
   23.3028  -10.8783  -19.7015 C   0  0  0  0  0  0  0  0  0  0  0  0
   22.2513  -11.6690  -19.2557 C   0  0  0  0  0  0  0  0  0  0  0  0
   22.3325  -12.3520  -18.0419 C   0  0  0  0  0  0  0  0  0  0  0  0
   21.3039  -13.1322  -17.5749 C   0  0  0  0  0  0  0  0  0  0  0  0
   20.1414  -13.2902  -18.2677 C   0  0  0  0  0  0  0  0  0  0  0  0
   19.0197  -14.1359  -17.8540 C   0  0  1  0  0  0  0  0  0  0  0  0
   19.2324  -15.5831  -18.3063 N   0  0  0  0  0  0  0  0  0  0  0  0
   20.1473  -16.2565  -17.4165 C   0  0  0  0  0  0  0  0  0  0  0  0
   19.6652  -15.5863  -19.6960 O   0  0  0  0  0  0  0  0  0  0  0  0
   20.7994  -15.8783  -20.1255 C   0  0  0  0  0  0  0  0  0  0  0  0
   20.0313  -12.6162  -19.4962 C   0  0  0  0  0  0  0  0  0  0  0  0
   21.0685  -11.8338  -19.9611 O   0  0  0  0  0  0  0  0  0  0  0  0
  1  2  1  0
  3  2  1  0
  3  4  2  0
  5  6  1  0
  6  7  2  0
  8  6  1  0
  8  9  1  0
 10  9  1  0
 11 10  1  0
 12 13  1  0
 12 11  1  6
 13  3  1  0
 14 12  1  0
 15 14  2  0
 17 16  1  0
 17 18  2  0
 19 18  1  0
 20 19  2  0
 21 20  1  0
 22 21  1  1
 22 23  1  0
 23 14  1  0
 24 22  1  0
 24 28  1  0
 25 24  2  0
 26 27  2  0
 26 20  1  0
 27 17  1  0
M  END
$$$$
