CWV.pdb
     RDKit          3D

 28 29  0  0  1  0  0  0  0  0999 V2000
   29.6329  -22.1239  -18.6085 N   0  0  0  0  0  0  0  0  0  0  0  0
   29.0107  -22.7015  -17.4585 C   0  0  1  0  0  0  0  0  0  0  0  0
   30.0392  -23.5147  -16.7020 C   0  0  0  0  0  0  0  0  0  0  0  0
   30.4008  -25.0805  -17.5428 S   0  0  0  0  0  0  0  0  0  0  0  0
   28.4581  -21.6978  -16.5125 C   0  0  0  0  0  0  0  0  0  0  0  0
   28.8273  -20.4949  -16.5401 O   0  0  0  0  0  0  0  0  0  0  0  0
   27.4730  -22.0282  -15.5075 N   0  0  0  0  0  0  0  0  0  0  0  0
   26.5150  -21.0390  -15.0613 C   0  0  1  0  0  0  0  0  0  0  0  0
   25.7374  -20.5057  -16.2168 C   0  0  0  0  0  0  0  0  0  0  0  0
   24.6950  -19.5286  -15.8954 C   0  0  0  0  0  0  0  0  0  0  0  0
   24.7645  -18.3297  -15.2477 C   0  0  0  0  0  0  0  0  0  0  0  0
   23.5402  -17.7955  -15.2044 N   0  0  0  0  0  0  0  0  0  0  0  0
   22.6806  -18.6248  -15.8110 C   0  0  0  0  0  0  0  0  0  0  0  0
   21.3134  -18.5624  -16.0457 C   0  0  0  0  0  0  0  0  0  0  0  0
   20.6351  -19.5700  -16.7118 C   0  0  0  0  0  0  0  0  0  0  0  0
   21.3297  -20.6722  -17.1595 C   0  0  0  0  0  0  0  0  0  0  0  0
   22.6857  -20.7410  -16.9302 C   0  0  0  0  0  0  0  0  0  0  0  0
   23.3595  -19.7231  -16.2593 C   0  0  0  0  0  0  0  0  0  0  0  0
   25.6493  -21.4927  -13.9631 C   0  0  0  0  0  0  0  0  0  0  0  0
   24.9692  -22.5531  -14.0567 O   0  0  0  0  0  0  0  0  0  0  0  0
   26.5582  -21.6728  -10.2330 C   0  0  0  0  0  0  0  0  0  0  0  0
   25.2023  -21.0130  -10.3411 C   0  0  1  0  0  0  0  0  0  0  0  0
   25.3751  -19.5526  -10.0090 C   0  0  0  0  0  0  0  0  0  0  0  0
   24.6644  -21.2665  -11.7171 C   0  0  2  0  0  0  0  0  0  0  0  0
   25.5375  -20.7693  -12.7545 N   0  0  0  0  0  0  0  0  0  0  0  0
   23.3307  -20.5732  -11.7764 C   0  0  0  0  0  0  0  0  0  0  0  0
   22.2494  -21.0804  -11.0470 O   0  0  0  0  0  0  0  0  0  0  0  0
   23.1351  -19.5532  -12.4539 O   0  0  0  0  0  0  0  0  0  0  0  0
  2  3  1  0
  2  1  1  6
  3  4  1  0
  5  2  1  0
  6  5  2  0
  7  5  1  0
  8  7  1  0
  8  9  1  6
 10  9  1  0
 10 18  1  0
 11 12  1  0
 11 10  2  0
 12 13  1  0
 13 18  2  0
 13 14  1  0
 14 15  2  0
 15 16  1  0
 17 16  2  0
 18 17  1  0
 19 20  2  0
 19  8  1  0
 22 24  1  0
 22 21  1  6
 23 22  1  0
 24 25  1  6
 25 19  1  0
 26 24  1  0
 27 26  1  0
 28 26  2  0
M  END
$$$$
