CWV.pdb
     RDKit          3D

 28 29  0  0  1  0  0  0  0  0999 V2000
   13.8962  -12.6808  -14.6460 N   0  0  0  0  0  0  0  0  0  0  0  0
   14.1494  -11.2802  -14.7775 C   0  0  1  0  0  0  0  0  0  0  0  0
   12.8442  -10.5299  -14.6195 C   0  0  0  0  0  0  0  0  0  0  0  0
   11.7613  -10.7662  -16.0551 S   0  0  0  0  0  0  0  0  0  0  0  0
   15.0918  -10.7466  -13.7601 C   0  0  0  0  0  0  0  0  0  0  0  0
   14.9477  -10.9968  -12.5351 O   0  0  0  0  0  0  0  0  0  0  0  0
   16.2228   -9.9135  -14.1010 N   0  0  0  0  0  0  0  0  0  0  0  0
   17.0397   -9.3196  -13.0641 C   0  0  1  0  0  0  0  0  0  0  0  0
   18.4290   -9.0946  -13.5575 C   0  0  0  0  0  0  0  0  0  0  0  0
   19.3542   -8.4660  -12.6123 C   0  0  0  0  0  0  0  0  0  0  0  0
   19.6429   -8.7656  -11.3128 C   0  0  0  0  0  0  0  0  0  0  0  0
   20.5653   -7.9055  -10.8705 N   0  0  0  0  0  0  0  0  0  0  0  0
   20.8787   -7.0558  -11.8577 C   0  0  0  0  0  0  0  0  0  0  0  0
   21.7608   -5.9866  -11.9399 C   0  0  0  0  0  0  0  0  0  0  0  0
   21.9104   -5.2444  -13.0999 C   0  0  0  0  0  0  0  0  0  0  0  0
   21.1656   -5.5694  -14.2123 C   0  0  0  0  0  0  0  0  0  0  0  0
   20.2888   -6.6286  -14.1382 C   0  0  0  0  0  0  0  0  0  0  0  0
   20.1446   -7.3692  -12.9673 C   0  0  0  0  0  0  0  0  0  0  0  0
   16.4574   -8.1143  -12.4562 C   0  0  0  0  0  0  0  0  0  0  0  0
   15.9488   -7.2004  -13.1646 O   0  0  0  0  0  0  0  0  0  0  0  0
   15.3651   -7.8961   -8.4388 C   0  0  0  0  0  0  0  0  0  0  0  0
   14.7738   -7.0070   -9.5091 C   0  0  1  0  0  0  0  0  0  0  0  0
   14.2232   -5.7778   -8.8315 C   0  0  0  0  0  0  0  0  0  0  0  0
   15.8396   -6.7191  -10.5230 C   0  0  2  0  0  0  0  0  0  0  0  0
   16.4369   -7.9208  -11.0567 N   0  0  0  0  0  0  0  0  0  0  0  0
   16.8744   -5.8887   -9.8140 C   0  0  0  0  0  0  0  0  0  0  0  0
   16.6328   -4.5314   -9.5739 O   0  0  0  0  0  0  0  0  0  0  0  0
   17.9551   -6.3548   -9.4232 O   0  0  0  0  0  0  0  0  0  0  0  0
  2  3  1  0
  2  1  1  1
  3  4  1  0
  5  2  1  0
  6  5  2  0
  7  5  1  0
  8  7  1  0
  8  9  1  6
 10  9  1  0
 10 18  1  0
 11 12  1  0
 11 10  2  0
 12 13  1  0
 13 18  2  0
 13 14  1  0
 14 15  2  0
 15 16  1  0
 17 16  2  0
 18 17  1  0
 19 20  2  0
 19  8  1  0
 22 24  1  0
 22 21  1  1
 23 22  1  0
 24 25  1  1
 25 19  1  0
 26 24  1  0
 27 26  1  0
 28 26  2  0
M  END
$$$$
