CWV.pdb
     RDKit          3D

 28 29  0  0  1  0  0  0  0  0999 V2000
   29.1136  -21.1931  -14.7574 N   0  0  0  0  0  0  0  0  0  0  0  0
   29.0985  -20.7216  -13.4081 C   0  0  1  0  0  0  0  0  0  0  0  0
   29.1070  -19.2079  -13.4183 C   0  0  0  0  0  0  0  0  0  0  0  0
   27.6133  -18.5380  -14.1990 S   0  0  0  0  0  0  0  0  0  0  0  0
   27.9017  -21.1516  -12.6396 C   0  0  0  0  0  0  0  0  0  0  0  0
   26.8909  -21.6350  -13.2129 O   0  0  0  0  0  0  0  0  0  0  0  0
   27.8150  -21.0448  -11.2007 N   0  0  0  0  0  0  0  0  0  0  0  0
   26.6143  -21.4526  -10.5024 C   0  0  1  0  0  0  0  0  0  0  0  0
   26.8971  -21.6590   -9.0527 C   0  0  0  0  0  0  0  0  0  0  0  0
   27.0594  -20.4455   -8.2492 C   0  0  0  0  0  0  0  0  0  0  0  0
   26.6652  -19.1605   -8.4836 C   0  0  0  0  0  0  0  0  0  0  0  0
   27.0364  -18.4035   -7.4466 N   0  0  0  0  0  0  0  0  0  0  0  0
   27.6627  -19.1732   -6.5465 C   0  0  0  0  0  0  0  0  0  0  0  0
   28.2390  -18.9053   -5.3119 C   0  0  0  0  0  0  0  0  0  0  0  0
   28.8401  -19.8947   -4.5510 C   0  0  0  0  0  0  0  0  0  0  0  0
   28.8718  -21.1877   -5.0250 C   0  0  0  0  0  0  0  0  0  0  0  0
   28.3023  -21.4608   -6.2486 C   0  0  0  0  0  0  0  0  0  0  0  0
   27.7002  -20.4595   -7.0071 C   0  0  0  0  0  0  0  0  0  0  0  0
   25.4585  -20.5730  -10.7296 C   0  0  0  0  0  0  0  0  0  0  0  0
   25.6074  -19.3661  -11.0714 O   0  0  0  0  0  0  0  0  0  0  0  0
   22.1881  -20.0507  -13.6293 C   0  0  0  0  0  0  0  0  0  0  0  0
   23.2497  -20.7942  -12.8510 C   0  0  1  0  0  0  0  0  0  0  0  0
   24.5905  -20.4146  -13.4266 C   0  0  0  0  0  0  0  0  0  0  0  0
   23.0912  -20.4568  -11.3991 C   0  0  2  0  0  0  0  0  0  0  0  0
   24.1309  -21.0328  -10.5788 N   0  0  0  0  0  0  0  0  0  0  0  0
   21.7451  -20.9913  -10.9927 C   0  0  0  0  0  0  0  0  0  0  0  0
   20.7246  -20.1050  -10.6301 O   0  0  0  0  0  0  0  0  0  0  0  0
   21.4872  -22.2039  -10.9608 O   0  0  0  0  0  0  0  0  0  0  0  0
  2  3  1  0
  2  1  1  6
  3  4  1  0
  5  2  1  0
  6  5  2  0
  7  5  1  0
  8  7  1  0
  8  9  1  1
 10  9  1  0
 10 18  1  0
 11 12  1  0
 11 10  2  0
 12 13  1  0
 13 18  2  0
 13 14  1  0
 14 15  2  0
 15 16  1  0
 17 16  2  0
 18 17  1  0
 19 20  2  0
 19  8  1  0
 22 24  1  0
 22 21  1  6
 23 22  1  0
 24 25  1  1
 25 19  1  0
 26 24  1  0
 27 26  1  0
 28 26  2  0
M  END
$$$$
