CWV.pdb
     RDKit          3D

 28 29  0  0  1  0  0  0  0  0999 V2000
   28.8321  -22.0845  -15.2866 N   0  0  0  0  0  0  0  0  0  0  0  0
   28.7284  -20.9673  -14.4010 C   0  0  1  0  0  0  0  0  0  0  0  0
   28.1827  -19.7827  -15.1693 C   0  0  0  0  0  0  0  0  0  0  0  0
   28.1943  -18.2733  -14.1638 S   0  0  0  0  0  0  0  0  0  0  0  0
   27.8208  -21.2025  -13.2483 C   0  0  0  0  0  0  0  0  0  0  0  0
   26.7155  -21.7873  -13.3904 O   0  0  0  0  0  0  0  0  0  0  0  0
   28.1385  -20.7808  -11.9027 N   0  0  0  0  0  0  0  0  0  0  0  0
   27.1765  -20.9426  -10.8332 C   0  0  1  0  0  0  0  0  0  0  0  0
   27.7897  -20.5888   -9.5205 C   0  0  0  0  0  0  0  0  0  0  0  0
   26.8880  -20.5936   -8.3666 C   0  0  0  0  0  0  0  0  0  0  0  0
   25.5625  -20.9027   -8.2708 C   0  0  0  0  0  0  0  0  0  0  0  0
   25.1822  -20.7649   -6.9970 N   0  0  0  0  0  0  0  0  0  0  0  0
   26.2351  -20.3730   -6.2673 C   0  0  0  0  0  0  0  0  0  0  0  0
   26.3963  -20.0886   -4.9177 C   0  0  0  0  0  0  0  0  0  0  0  0
   27.6147  -19.6932   -4.3901 C   0  0  0  0  0  0  0  0  0  0  0  0
   28.7065  -19.5759   -5.2219 C   0  0  0  0  0  0  0  0  0  0  0  0
   28.5541  -19.8562   -6.5614 C   0  0  0  0  0  0  0  0  0  0  0  0
   27.3250  -20.2529   -7.0833 C   0  0  0  0  0  0  0  0  0  0  0  0
   25.9005  -20.2494  -11.0622 C   0  0  0  0  0  0  0  0  0  0  0  0
   25.8382  -18.9892  -11.1241 O   0  0  0  0  0  0  0  0  0  0  0  0
   24.1894  -19.8574  -13.8812 C   0  0  0  0  0  0  0  0  0  0  0  0
   23.0931  -20.4184  -13.0043 C   0  0  1  0  0  0  0  0  0  0  0  0
   22.8864  -21.8601  -13.3943 C   0  0  0  0  0  0  0  0  0  0  0  0
   23.4912  -20.2247  -11.5722 C   0  0  2  0  0  0  0  0  0  0  0  0
   24.6874  -20.9555  -11.2250 N   0  0  0  0  0  0  0  0  0  0  0  0
   22.3264  -20.7025  -10.7487 C   0  0  0  0  0  0  0  0  0  0  0  0
   22.4714  -21.8218   -9.9212 O   0  0  0  0  0  0  0  0  0  0  0  0
   21.2194  -20.1439  -10.7659 O   0  0  0  0  0  0  0  0  0  0  0  0
  2  3  1  0
  2  1  1  6
  3  4  1  0
  5  2  1  0
  6  5  2  0
  7  5  1  0
  8  7  1  0
  8  9  1  1
 10  9  1  0
 10 18  1  0
 11 12  1  0
 11 10  2  0
 12 13  1  0
 13 18  2  0
 13 14  1  0
 14 15  2  0
 15 16  1  0
 17 16  2  0
 18 17  1  0
 19 20  2  0
 19  8  1  0
 22 24  1  0
 22 21  1  6
 23 22  1  0
 24 25  1  1
 25 19  1  0
 26 24  1  0
 27 26  1  0
 28 26  2  0
M  END
$$$$
