CWV.pdb
     RDKit          3D

 28 29  0  0  1  0  0  0  0  0999 V2000
   18.9612  -24.2036   -9.0136 N   0  0  0  0  0  0  0  0  0  0  0  0
   17.6661  -24.7201   -8.6986 C   0  0  1  0  0  0  0  0  0  0  0  0
   17.5894  -26.1612   -9.1554 C   0  0  0  0  0  0  0  0  0  0  0  0
   18.6387  -26.4580  -10.6047 S   0  0  0  0  0  0  0  0  0  0  0  0
   17.3533  -24.6997   -7.2462 C   0  0  0  0  0  0  0  0  0  0  0  0
   18.2581  -24.8006   -6.3772 O   0  0  0  0  0  0  0  0  0  0  0  0
   16.0071  -24.5661   -6.7368 N   0  0  0  0  0  0  0  0  0  0  0  0
   15.7709  -24.3617   -5.3234 C   0  0  1  0  0  0  0  0  0  0  0  0
   14.4320  -23.7433   -5.1011 C   0  0  0  0  0  0  0  0  0  0  0  0
   14.0713  -23.4722   -3.7080 C   0  0  0  0  0  0  0  0  0  0  0  0
   14.6326  -22.6364   -2.7871 C   0  0  0  0  0  0  0  0  0  0  0  0
   13.9405  -22.7292   -1.6475 N   0  0  0  0  0  0  0  0  0  0  0  0
   12.9432  -23.6082   -1.8130 C   0  0  0  0  0  0  0  0  0  0  0  0
   11.9431  -24.0727   -0.9691 C   0  0  0  0  0  0  0  0  0  0  0  0
   11.0057  -25.0048   -1.3833 C   0  0  0  0  0  0  0  0  0  0  0  0
   11.0586  -25.4919   -2.6708 C   0  0  0  0  0  0  0  0  0  0  0  0
   12.0476  -25.0358   -3.5133 C   0  0  0  0  0  0  0  0  0  0  0  0
   12.9863  -24.0986   -3.0882 C   0  0  0  0  0  0  0  0  0  0  0  0
   15.9794  -25.5610   -4.4991 C   0  0  0  0  0  0  0  0  0  0  0  0
   15.5871  -26.6990   -4.8824 O   0  0  0  0  0  0  0  0  0  0  0  0
   18.4069  -28.0520   -1.1723 C   0  0  0  0  0  0  0  0  0  0  0  0
   18.3074  -26.9201   -2.1695 C   0  0  1  0  0  0  0  0  0  0  0  0
   19.1796  -27.2697   -3.3486 C   0  0  0  0  0  0  0  0  0  0  0  0
   16.8623  -26.7245   -2.5161 C   0  0  2  0  0  0  0  0  0  0  0  0
   16.6271  -25.5000   -3.2449 N   0  0  0  0  0  0  0  0  0  0  0  0
   16.1196  -26.7078   -1.2080 C   0  0  0  0  0  0  0  0  0  0  0  0
   15.6787  -25.4921   -0.6731 O   0  0  0  0  0  0  0  0  0  0  0  0
   15.8728  -27.7386   -0.5642 O   0  0  0  0  0  0  0  0  0  0  0  0
  2  3  1  0
  2  1  1  1
  3  4  1  0
  5  2  1  0
  6  5  2  0
  7  5  1  0
  8  7  1  0
  8  9  1  6
 10  9  1  0
 10 18  1  0
 11 12  1  0
 11 10  2  0
 12 13  1  0
 13 18  2  0
 13 14  1  0
 14 15  2  0
 15 16  1  0
 17 16  2  0
 18 17  1  0
 19 20  2  0
 19  8  1  0
 22 24  1  0
 22 21  1  1
 23 22  1  0
 24 25  1  1
 25 19  1  0
 26 24  1  0
 27 26  1  0
 28 26  2  0
M  END
$$$$
