CWV.pdb
     RDKit          3D

 28 29  0  0  1  0  0  0  0  0999 V2000
   28.0485  -23.3052  -16.8251 N   0  0  0  0  0  0  0  0  0  0  0  0
   28.0879  -22.0413  -16.1586 C   0  0  1  0  0  0  0  0  0  0  0  0
   27.5479  -20.9788  -17.0918 C   0  0  0  0  0  0  0  0  0  0  0  0
   28.6702  -20.6822  -18.4853 S   0  0  0  0  0  0  0  0  0  0  0  0
   27.2718  -21.9959  -14.9178 C   0  0  0  0  0  0  0  0  0  0  0  0
   26.1446  -22.5517  -14.8515 O   0  0  0  0  0  0  0  0  0  0  0  0
   27.7083  -21.3186  -13.7177 N   0  0  0  0  0  0  0  0  0  0  0  0
   26.8506  -21.2562  -12.5533 C   0  0  1  0  0  0  0  0  0  0  0  0
   27.5923  -20.6958  -11.3870 C   0  0  0  0  0  0  0  0  0  0  0  0
   26.8223  -20.5337  -10.1519 C   0  0  0  0  0  0  0  0  0  0  0  0
   25.4783  -20.5902   -9.9241 C   0  0  0  0  0  0  0  0  0  0  0  0
   25.2563  -20.3854   -8.6222 N   0  0  0  0  0  0  0  0  0  0  0  0
   26.4297  -20.1975   -8.0037 C   0  0  0  0  0  0  0  0  0  0  0  0
   26.7718  -19.9497   -6.6809 C   0  0  0  0  0  0  0  0  0  0  0  0
   28.0879  -19.7891   -6.2796 C   0  0  0  0  0  0  0  0  0  0  0  0
   29.0961  -19.8765   -7.2143 C   0  0  0  0  0  0  0  0  0  0  0  0
   28.7643  -20.1220   -8.5280 C   0  0  0  0  0  0  0  0  0  0  0  0
   27.4381  -20.2819   -8.9226 C   0  0  0  0  0  0  0  0  0  0  0  0
   25.5700  -20.5726  -12.7856 C   0  0  0  0  0  0  0  0  0  0  0  0
   25.5258  -19.3596  -13.1356 O   0  0  0  0  0  0  0  0  0  0  0  0
   21.2849  -20.1749  -14.5399 C   0  0  0  0  0  0  0  0  0  0  0  0
   22.5816  -20.9187  -14.3137 C   0  0  1  0  0  0  0  0  0  0  0  0
   23.5068  -20.5853  -15.4564 C   0  0  0  0  0  0  0  0  0  0  0  0
   23.1140  -20.5361  -12.9657 C   0  0  2  0  0  0  0  0  0  0  0  0
   24.3321  -21.2361  -12.6311 N   0  0  0  0  0  0  0  0  0  0  0  0
   22.0284  -20.8708  -11.9796 C   0  0  0  0  0  0  0  0  0  0  0  0
   21.1131  -19.8860  -11.5910 O   0  0  0  0  0  0  0  0  0  0  0  0
   21.8999  -21.9991  -11.4815 O   0  0  0  0  0  0  0  0  0  0  0  0
  2  3  1  0
  2  1  1  6
  3  4  1  0
  5  2  1  0
  6  5  2  0
  7  5  1  0
  8  7  1  0
  8  9  1  1
 10  9  1  0
 10 18  1  0
 11 12  1  0
 11 10  2  0
 12 13  1  0
 13 18  2  0
 13 14  1  0
 14 15  2  0
 15 16  1  0
 17 16  2  0
 18 17  1  0
 19 20  2  0
 19  8  1  0
 22 24  1  0
 22 21  1  6
 23 22  1  0
 24 25  1  1
 25 19  1  0
 26 24  1  0
 27 26  1  0
 28 26  2  0
M  END
$$$$
