PLM.pdb
     RDKit          3D

 24 24  0  0  1  0  0  0  0  0999 V2000
    7.2979  -18.8640   20.6167 N   0  0  0  0  0  0  0  0  0  0  0  0
    6.6173  -18.7330   19.3644 C   0  0  0  0  0  0  0  0  0  0  0  0
    7.4634  -19.5990   18.4441 C   0  0  0  0  0  0  0  0  0  0  0  0
    8.8609  -19.3472   18.9688 C   0  0  0  0  0  0  0  0  0  0  0  0
    8.7073  -18.8754   20.3808 C   0  0  1  0  0  0  0  0  0  0  0  0
    9.2546  -17.5227   20.6033 C   0  0  0  0  0  0  0  0  0  0  0  0
   10.4821  -17.2825   20.4646 O   0  0  0  0  0  0  0  0  0  0  0  0
    7.0146  -12.4916   19.2923 C   0  0  0  0  0  0  0  0  0  0  0  0
    7.9601  -13.6976   19.5086 C   0  0  1  0  0  0  0  0  0  0  0  0
    9.2746  -13.2902   18.8787 C   0  0  0  0  0  0  0  0  0  0  0  0
    8.1199  -13.9619   20.9625 C   0  0  0  0  0  0  0  0  0  0  0  0
    8.9489  -15.1421   21.3615 C   0  0  2  0  0  0  0  0  0  0  0  0
    8.4346  -16.4104   20.9866 N   0  0  0  0  0  0  0  0  0  0  0  0
    9.2492  -15.0350   22.8171 C   0  0  0  0  0  0  0  0  0  0  0  0
   10.2365  -14.3434   23.1489 O   0  0  0  0  0  0  0  0  0  0  0  0
    7.3999  -11.7626   28.0765 C   0  0  0  0  0  0  0  0  0  0  0  0
    6.3584  -12.6512   26.9006 S   0  0  0  0  0  0  0  0  0  0  0  0
    6.7535  -14.4398   26.9264 C   0  0  0  0  0  0  0  0  0  0  0  0
    6.9982  -14.9153   25.5335 C   0  0  0  0  0  0  0  0  0  0  0  0
    8.4251  -15.2300   25.2053 C   0  0  2  0  0  0  0  0  0  0  0  0
    8.4811  -15.6693   23.8188 N   0  0  0  0  0  0  0  0  0  0  0  0
    8.9422  -16.3071   26.0895 C   0  0  0  0  0  0  0  0  0  0  0  0
    9.4504  -17.4977   25.5398 O   0  0  0  0  0  0  0  0  0  0  0  0
    8.9558  -16.2221   27.3476 O   0  0  0  0  0  0  0  0  0  0  0  0
  2  1  1  0
  3  2  1  0
  4  3  1  0
  4  5  1  0
  5  6  1  6
  5  1  1  0
  6  7  2  0
  9  8  1  1
  9 11  1  0
 10  9  1  0
 12 11  1  1
 13 12  1  0
 13  6  1  0
 14 15  2  0
 14 12  1  0
 16 17  1  0
 18 17  1  0
 18 19  1  0
 20 19  1  1
 20 22  1  0
 20 21  1  0
 21 14  1  0
 22 23  1  0
 24 22  2  0
M  END
$$$$
