PLM.pdb
     RDKit          3D

 24 24  0  0  1  0  0  0  0  0999 V2000
    7.3215  -16.7315   19.9894 N   0  0  0  0  0  0  0  0  0  0  0  0
    6.5264  -15.7303   19.3459 C   0  0  0  0  0  0  0  0  0  0  0  0
    7.4442  -15.2560   18.2300 C   0  0  0  0  0  0  0  0  0  0  0  0
    8.8055  -15.3248   18.8888 C   0  0  0  0  0  0  0  0  0  0  0  0
    8.6819  -16.2949   20.0219 C   0  0  1  0  0  0  0  0  0  0  0  0
    8.9738  -15.6913   21.3368 C   0  0  0  0  0  0  0  0  0  0  0  0
   10.1080  -15.2137   21.6003 O   0  0  0  0  0  0  0  0  0  0  0  0
    7.7202  -12.2028   25.0251 C   0  0  0  0  0  0  0  0  0  0  0  0
    7.2006  -13.5793   25.5053 C   0  0  1  0  0  0  0  0  0  0  0  0
    5.8888  -13.2881   26.2018 C   0  0  0  0  0  0  0  0  0  0  0  0
    7.0020  -14.4806   24.3402 C   0  0  0  0  0  0  0  0  0  0  0  0
    8.2251  -14.9662   23.6280 C   0  0  2  0  0  0  0  0  0  0  0  0
    7.9980  -15.6110   22.3845 N   0  0  0  0  0  0  0  0  0  0  0  0
    9.0284  -15.7857   24.5786 C   0  0  0  0  0  0  0  0  0  0  0  0
    8.7290  -16.9948   24.6870 O   0  0  0  0  0  0  0  0  0  0  0  0
    9.8876  -13.6070   30.0274 C   0  0  0  0  0  0  0  0  0  0  0  0
   11.2211  -14.7954   30.2856 S   0  0  0  0  0  0  0  0  0  0  0  0
   11.3986  -15.8804   28.8203 C   0  0  0  0  0  0  0  0  0  0  0  0
   10.7954  -15.2119   27.6305 C   0  0  0  0  0  0  0  0  0  0  0  0
   10.8069  -16.0180   26.3684 C   0  0  2  0  0  0  0  0  0  0  0  0
   10.0928  -15.2651   25.3478 N   0  0  0  0  0  0  0  0  0  0  0  0
   10.1396  -17.3298   26.5768 C   0  0  0  0  0  0  0  0  0  0  0  0
    8.7374  -17.4129   26.6467 O   0  0  0  0  0  0  0  0  0  0  0  0
   10.7706  -18.4146   26.7005 O   0  0  0  0  0  0  0  0  0  0  0  0
  2  1  1  0
  3  2  1  0
  4  3  1  0
  4  5  1  0
  5  6  1  1
  5  1  1  0
  6  7  2  0
  9  8  1  6
  9 11  1  0
 10  9  1  0
 12 11  1  1
 13 12  1  0
 13  6  1  0
 14 15  2  0
 14 12  1  0
 16 17  1  0
 18 17  1  0
 18 19  1  0
 20 19  1  1
 20 22  1  0
 20 21  1  0
 21 14  1  0
 22 23  1  0
 24 22  2  0
M  END
$$$$
