PLM.pdb
     RDKit          3D

 24 24  0  0  1  0  0  0  0  0999 V2000
    7.2517  -17.8763   20.9005 N   0  0  0  0  0  0  0  0  0  0  0  0
    6.1554  -17.3930   20.1174 C   0  0  0  0  0  0  0  0  0  0  0  0
    6.8080  -17.1422   18.7669 C   0  0  0  0  0  0  0  0  0  0  0  0
    8.1801  -16.6422   19.1663 C   0  0  0  0  0  0  0  0  0  0  0  0
    8.4288  -17.1435   20.5545 C   0  0  1  0  0  0  0  0  0  0  0  0
    8.6394  -16.0595   21.5338 C   0  0  0  0  0  0  0  0  0  0  0  0
    9.6307  -15.2883   21.4531 O   0  0  0  0  0  0  0  0  0  0  0  0
    6.7883  -12.1565   24.7771 C   0  0  0  0  0  0  0  0  0  0  0  0
    6.9544  -13.4924   25.5406 C   0  0  1  0  0  0  0  0  0  0  0  0
    5.8339  -13.5108   26.5580 C   0  0  0  0  0  0  0  0  0  0  0  0
    6.8409  -14.6339   24.5954 C   0  0  0  0  0  0  0  0  0  0  0  0
    7.9701  -14.8507   23.6377 C   0  0  2  0  0  0  0  0  0  0  0  0
    7.7410  -15.8181   22.6251 N   0  0  0  0  0  0  0  0  0  0  0  0
    9.2110  -15.1026   24.4233 C   0  0  0  0  0  0  0  0  0  0  0  0
   10.0507  -14.1780   24.4798 O   0  0  0  0  0  0  0  0  0  0  0  0
   11.4401  -12.7040   28.4204 C   0  0  0  0  0  0  0  0  0  0  0  0
   11.4363  -14.2686   29.3200 S   0  0  0  0  0  0  0  0  0  0  0  0
   11.5666  -15.6739   28.1520 C   0  0  0  0  0  0  0  0  0  0  0  0
   10.5195  -15.5427   27.0973 C   0  0  0  0  0  0  0  0  0  0  0  0
   10.6104  -16.5331   25.9776 C   0  0  2  0  0  0  0  0  0  0  0  0
    9.4742  -16.3179   25.0938 N   0  0  0  0  0  0  0  0  0  0  0  0
   10.5761  -17.9236   26.5021 C   0  0  0  0  0  0  0  0  0  0  0  0
   11.6890  -18.4591   27.1747 O   0  0  0  0  0  0  0  0  0  0  0  0
    9.5780  -18.6845   26.3792 O   0  0  0  0  0  0  0  0  0  0  0  0
  2  1  1  0
  3  2  1  0
  4  3  1  0
  4  5  1  0
  5  6  1  1
  5  1  1  0
  6  7  2  0
  9  8  1  6
  9 11  1  0
 10  9  1  0
 12 11  1  1
 13 12  1  0
 13  6  1  0
 14 15  2  0
 14 12  1  0
 16 17  1  0
 18 17  1  0
 18 19  1  0
 20 19  1  1
 20 22  1  0
 20 21  1  0
 21 14  1  0
 22 23  1  0
 24 22  2  0
M  END
$$$$
