PLM.pdb
     RDKit          3D

 24 24  0  0  1  0  0  0  0  0999 V2000
    7.5732  -16.5075   21.0383 N   0  0  0  0  0  0  0  0  0  0  0  0
    6.7616  -15.5765   20.3149 C   0  0  0  0  0  0  0  0  0  0  0  0
    7.7041  -15.1115   19.2157 C   0  0  0  0  0  0  0  0  0  0  0  0
    9.0374  -15.0845   19.9323 C   0  0  0  0  0  0  0  0  0  0  0  0
    8.9094  -16.0054   21.1051 C   0  0  1  0  0  0  0  0  0  0  0  0
    9.1164  -15.3279   22.4001 C   0  0  0  0  0  0  0  0  0  0  0  0
   10.2573  -14.9354   22.7582 O   0  0  0  0  0  0  0  0  0  0  0  0
    8.1920  -11.8249   26.2212 C   0  0  0  0  0  0  0  0  0  0  0  0
    7.2217  -13.0137   26.4229 C   0  0  1  0  0  0  0  0  0  0  0  0
    5.9215  -12.3918   26.8847 C   0  0  0  0  0  0  0  0  0  0  0  0
    7.0425  -13.7446   25.1412 C   0  0  0  0  0  0  0  0  0  0  0  0
    8.2253  -14.4823   24.5970 C   0  0  2  0  0  0  0  0  0  0  0  0
    8.0462  -15.0764   23.3209 N   0  0  0  0  0  0  0  0  0  0  0  0
    8.6975  -15.4432   25.6333 C   0  0  0  0  0  0  0  0  0  0  0  0
    7.9458  -16.4037   25.9088 O   0  0  0  0  0  0  0  0  0  0  0  0
   14.2554  -18.9073   25.6150 C   0  0  0  0  0  0  0  0  0  0  0  0
   14.2988  -17.8247   27.0583 S   0  0  0  0  0  0  0  0  0  0  0  0
   12.6062  -17.5634   27.7084 C   0  0  0  0  0  0  0  0  0  0  0  0
   11.8947  -16.5662   26.8567 C   0  0  0  0  0  0  0  0  0  0  0  0
   10.4664  -16.3104   27.2270 C   0  0  2  0  0  0  0  0  0  0  0  0
    9.9339  -15.3179   26.3051 N   0  0  0  0  0  0  0  0  0  0  0  0
   10.3681  -15.7992   28.6193 C   0  0  0  0  0  0  0  0  0  0  0  0
   10.5935  -16.6568   29.7108 O   0  0  0  0  0  0  0  0  0  0  0  0
   10.0846  -14.6025   28.8981 O   0  0  0  0  0  0  0  0  0  0  0  0
  2  1  1  0
  3  2  1  0
  4  3  1  0
  4  5  1  0
  5  6  1  1
  5  1  1  0
  6  7  2  0
  9  8  1  6
  9 11  1  0
 10  9  1  0
 12 11  1  1
 13 12  1  0
 13  6  1  0
 14 15  2  0
 14 12  1  0
 16 17  1  0
 18 17  1  0
 18 19  1  0
 20 19  1  6
 20 22  1  0
 20 21  1  0
 21 14  1  0
 22 23  1  0
 24 22  2  0
M  END
$$$$
