PLM.pdb
     RDKit          3D

 24 24  0  0  1  0  0  0  0  0999 V2000
    7.2937  -17.2613   20.8492 N   0  0  0  0  0  0  0  0  0  0  0  0
    6.2703  -16.4903   20.2114 C   0  0  0  0  0  0  0  0  0  0  0  0
    6.9036  -16.1596   18.8688 C   0  0  0  0  0  0  0  0  0  0  0  0
    8.3570  -15.9631   19.2442 C   0  0  0  0  0  0  0  0  0  0  0  0
    8.5673  -16.6963   20.5319 C   0  0  1  0  0  0  0  0  0  0  0  0
    9.0047  -15.8182   21.6348 C   0  0  0  0  0  0  0  0  0  0  0  0
   10.1061  -15.2108   21.5901 O   0  0  0  0  0  0  0  0  0  0  0  0
    5.6654  -13.1890   25.8232 C   0  0  0  0  0  0  0  0  0  0  0  0
    6.6750  -13.3475   24.6610 C   0  0  1  0  0  0  0  0  0  0  0  0
    7.4470  -12.0461   24.6248 C   0  0  0  0  0  0  0  0  0  0  0  0
    7.5760  -14.4996   24.9259 C   0  0  0  0  0  0  0  0  0  0  0  0
    8.6288  -14.8001   23.9058 C   0  0  2  0  0  0  0  0  0  0  0  0
    8.2144  -15.6032   22.8118 N   0  0  0  0  0  0  0  0  0  0  0  0
    9.8265  -15.3375   24.6109 C   0  0  0  0  0  0  0  0  0  0  0  0
   10.8966  -14.7028   24.4873 O   0  0  0  0  0  0  0  0  0  0  0  0
   10.3379  -13.3158   29.3370 C   0  0  0  0  0  0  0  0  0  0  0  0
   10.7332  -14.8878   30.1305 S   0  0  0  0  0  0  0  0  0  0  0  0
   11.1957  -16.1365   28.8725 C   0  0  0  0  0  0  0  0  0  0  0  0
   10.3623  -15.9434   27.6501 C   0  0  0  0  0  0  0  0  0  0  0  0
   10.7438  -16.7889   26.4744 C   0  0  2  0  0  0  0  0  0  0  0  0
    9.8052  -16.5108   25.3974 N   0  0  0  0  0  0  0  0  0  0  0  0
   10.6857  -18.2323   26.8245 C   0  0  0  0  0  0  0  0  0  0  0  0
   11.6447  -18.7961   27.6850 O   0  0  0  0  0  0  0  0  0  0  0  0
    9.8008  -19.0155   26.3843 O   0  0  0  0  0  0  0  0  0  0  0  0
  2  1  1  0
  3  2  1  0
  4  3  1  0
  4  5  1  0
  5  6  1  1
  5  1  1  0
  6  7  2  0
  9  8  1  1
  9 11  1  0
 10  9  1  0
 12 11  1  1
 13 12  1  0
 13  6  1  0
 14 15  2  0
 14 12  1  0
 16 17  1  0
 18 17  1  0
 18 19  1  0
 20 19  1  1
 20 22  1  0
 20 21  1  0
 21 14  1  0
 22 23  1  0
 24 22  2  0
M  END
$$$$
