PLM.pdb
     RDKit          3D

 24 24  0  0  1  0  0  0  0  0999 V2000
    7.6019  -17.0601   20.5099 N   0  0  0  0  0  0  0  0  0  0  0  0
    6.6040  -16.1513   20.0334 C   0  0  0  0  0  0  0  0  0  0  0  0
    7.2612  -15.5719   18.7903 C   0  0  0  0  0  0  0  0  0  0  0  0
    8.7139  -15.4909   19.2087 C   0  0  0  0  0  0  0  0  0  0  0  0
    8.8917  -16.4740   20.3232 C   0  0  1  0  0  0  0  0  0  0  0  0
    9.3350  -15.8476   21.5841 C   0  0  0  0  0  0  0  0  0  0  0  0
   10.4430  -15.2566   21.6670 O   0  0  0  0  0  0  0  0  0  0  0  0
    6.3185  -13.0120   25.4345 C   0  0  0  0  0  0  0  0  0  0  0  0
    7.3690  -13.5221   24.4187 C   0  0  1  0  0  0  0  0  0  0  0  0
    8.3875  -12.4082   24.3070 C   0  0  0  0  0  0  0  0  0  0  0  0
    7.9940  -14.7734   24.9213 C   0  0  0  0  0  0  0  0  0  0  0  0
    9.0113  -15.4356   24.0460 C   0  0  2  0  0  0  0  0  0  0  0  0
    8.5430  -15.8714   22.7794 N   0  0  0  0  0  0  0  0  0  0  0  0
    9.6765  -16.5134   24.8310 C   0  0  0  0  0  0  0  0  0  0  0  0
    9.0171  -17.5530   25.0497 O   0  0  0  0  0  0  0  0  0  0  0  0
    9.8124  -13.1116   28.8148 C   0  0  0  0  0  0  0  0  0  0  0  0
   10.3315  -14.4063   29.9600 S   0  0  0  0  0  0  0  0  0  0  0  0
   11.0695  -15.8091   29.0417 C   0  0  0  0  0  0  0  0  0  0  0  0
   10.7976  -15.6471   27.5836 C   0  0  0  0  0  0  0  0  0  0  0  0
   11.3734  -16.7122   26.7022 C   0  0  2  0  0  0  0  0  0  0  0  0
   10.9946  -16.4129   25.3292 N   0  0  0  0  0  0  0  0  0  0  0  0
   10.8482  -18.0497   27.0827 C   0  0  0  0  0  0  0  0  0  0  0  0
   11.5249  -18.8377   28.0309 O   0  0  0  0  0  0  0  0  0  0  0  0
    9.7967  -18.5445   26.5931 O   0  0  0  0  0  0  0  0  0  0  0  0
  2  1  1  0
  3  2  1  0
  4  3  1  0
  4  5  1  0
  5  6  1  1
  5  1  1  0
  6  7  2  0
  9  8  1  1
  9 11  1  0
 10  9  1  0
 12 11  1  1
 13 12  1  0
 13  6  1  0
 14 15  2  0
 14 12  1  0
 16 17  1  0
 18 17  1  0
 18 19  1  0
 20 19  1  1
 20 22  1  0
 20 21  1  0
 21 14  1  0
 22 23  1  0
 24 22  2  0
M  END
$$$$
