PLM.pdb
     RDKit          3D

 24 24  0  0  1  0  0  0  0  0999 V2000
    7.5497  -17.2920   20.1660 N   0  0  0  0  0  0  0  0  0  0  0  0
    6.6401  -16.4795   19.4169 C   0  0  0  0  0  0  0  0  0  0  0  0
    7.4769  -16.0856   18.2097 C   0  0  0  0  0  0  0  0  0  0  0  0
    8.8534  -15.9222   18.8183 C   0  0  0  0  0  0  0  0  0  0  0  0
    8.8579  -16.7230   20.0828 C   0  0  1  0  0  0  0  0  0  0  0  0
    9.1173  -15.9072   21.2852 C   0  0  0  0  0  0  0  0  0  0  0  0
   10.1820  -15.2482   21.4117 O   0  0  0  0  0  0  0  0  0  0  0  0
    8.0682  -12.2419   24.8475 C   0  0  0  0  0  0  0  0  0  0  0  0
    7.5008  -13.5795   25.3808 C   0  0  1  0  0  0  0  0  0  0  0  0
    6.2100  -13.2128   26.0808 C   0  0  0  0  0  0  0  0  0  0  0  0
    7.2529  -14.5116   24.2500 C   0  0  0  0  0  0  0  0  0  0  0  0
    8.4470  -15.1127   23.5776 C   0  0  2  0  0  0  0  0  0  0  0  0
    8.1862  -15.8140   22.3719 N   0  0  0  0  0  0  0  0  0  0  0  0
    9.1930  -15.9232   24.5810 C   0  0  0  0  0  0  0  0  0  0  0  0
    8.6150  -16.9278   25.0499 O   0  0  0  0  0  0  0  0  0  0  0  0
    9.9401  -12.8867   29.0856 C   0  0  0  0  0  0  0  0  0  0  0  0
   10.6896  -14.2946   29.9302 S   0  0  0  0  0  0  0  0  0  0  0  0
   11.1327  -15.5985   28.7222 C   0  0  0  0  0  0  0  0  0  0  0  0
   10.7375  -15.1616   27.3514 C   0  0  0  0  0  0  0  0  0  0  0  0
   11.0910  -16.1118   26.2492 C   0  0  2  0  0  0  0  0  0  0  0  0
   10.5000  -15.6109   25.0170 N   0  0  0  0  0  0  0  0  0  0  0  0
   10.5627  -17.4709   26.5376 C   0  0  0  0  0  0  0  0  0  0  0  0
   11.4416  -18.5330   26.8157 O   0  0  0  0  0  0  0  0  0  0  0  0
    9.3321  -17.7462   26.5494 O   0  0  0  0  0  0  0  0  0  0  0  0
  2  1  1  0
  3  2  1  0
  4  3  1  0
  4  5  1  0
  5  6  1  1
  5  1  1  0
  6  7  2  0
  9  8  1  6
  9 11  1  0
 10  9  1  0
 12 11  1  1
 13 12  1  0
 13  6  1  0
 14 15  2  0
 14 12  1  0
 16 17  1  0
 18 17  1  0
 18 19  1  0
 20 19  1  1
 20 22  1  0
 20 21  1  0
 21 14  1  0
 22 23  1  0
 24 22  2  0
M  END
$$$$
