PLM.pdb
     RDKit          3D

 24 24  0  0  1  0  0  0  0  0999 V2000
    7.8996  -17.0016   20.1654 N   0  0  0  0  0  0  0  0  0  0  0  0
    7.1484  -16.0669   19.3840 C   0  0  0  0  0  0  0  0  0  0  0  0
    8.1565  -15.6451   18.3264 C   0  0  0  0  0  0  0  0  0  0  0  0
    9.4517  -15.6343   19.1102 C   0  0  0  0  0  0  0  0  0  0  0  0
    9.2422  -16.5288   20.2917 C   0  0  1  0  0  0  0  0  0  0  0  0
    9.3988  -15.8307   21.5828 C   0  0  0  0  0  0  0  0  0  0  0  0
   10.4656  -15.2317   21.8776 O   0  0  0  0  0  0  0  0  0  0  0  0
    8.1082  -12.3018   24.9659 C   0  0  0  0  0  0  0  0  0  0  0  0
    7.4918  -13.6009   25.5385 C   0  0  1  0  0  0  0  0  0  0  0  0
    6.1684  -13.1810   26.1410 C   0  0  0  0  0  0  0  0  0  0  0  0
    7.2957  -14.5921   24.4484 C   0  0  0  0  0  0  0  0  0  0  0  0
    8.5194  -15.2224   23.8614 C   0  0  2  0  0  0  0  0  0  0  0  0
    8.3603  -15.7905   22.5709 N   0  0  0  0  0  0  0  0  0  0  0  0
    9.0820  -16.1753   24.8594 C   0  0  0  0  0  0  0  0  0  0  0  0
    8.8291  -17.3891   24.6982 O   0  0  0  0  0  0  0  0  0  0  0  0
    9.4203  -12.9600   28.6954 C   0  0  0  0  0  0  0  0  0  0  0  0
   11.1158  -13.4257   29.1019 S   0  0  0  0  0  0  0  0  0  0  0  0
   11.6983  -14.7501   27.9782 C   0  0  0  0  0  0  0  0  0  0  0  0
   10.8329  -15.9549   28.1389 C   0  0  0  0  0  0  0  0  0  0  0  0
   10.5267  -16.6970   26.8747 C   0  0  2  0  0  0  0  0  0  0  0  0
    9.8735  -15.7737   25.9585 N   0  0  0  0  0  0  0  0  0  0  0  0
    9.6266  -17.8483   27.1462 C   0  0  0  0  0  0  0  0  0  0  0  0
   10.1598  -19.1077   27.4743 O   0  0  0  0  0  0  0  0  0  0  0  0
    8.3690  -17.7688   27.0997 O   0  0  0  0  0  0  0  0  0  0  0  0
  2  1  1  0
  3  2  1  0
  4  3  1  0
  4  5  1  0
  5  6  1  1
  5  1  1  0
  6  7  2  0
  9  8  1  6
  9 11  1  0
 10  9  1  0
 12 11  1  1
 13 12  1  0
 13  6  1  0
 14 15  2  0
 14 12  1  0
 16 17  1  0
 18 17  1  0
 18 19  1  0
 20 19  1  1
 20 22  1  0
 20 21  1  0
 21 14  1  0
 22 23  1  0
 24 22  2  0
M  END
$$$$
