PLM.pdb
     RDKit          3D

 24 24  0  0  1  0  0  0  0  0999 V2000
    7.3698  -17.3861   21.6637 N   0  0  0  0  0  0  0  0  0  0  0  0
    6.2905  -16.6543   21.0736 C   0  0  0  0  0  0  0  0  0  0  0  0
    6.7612  -16.4853   19.6374 C   0  0  0  0  0  0  0  0  0  0  0  0
    8.2529  -16.2960   19.8133 C   0  0  0  0  0  0  0  0  0  0  0  0
    8.6053  -16.8970   21.1379 C   0  0  1  0  0  0  0  0  0  0  0  0
    9.1899  -15.9227   22.0800 C   0  0  0  0  0  0  0  0  0  0  0  0
   10.2632  -15.3206   21.8165 O   0  0  0  0  0  0  0  0  0  0  0  0
    5.9663  -12.9316   25.6283 C   0  0  0  0  0  0  0  0  0  0  0  0
    6.9696  -13.3842   24.5402 C   0  0  1  0  0  0  0  0  0  0  0  0
    7.3471  -12.1207   23.7973 C   0  0  0  0  0  0  0  0  0  0  0  0
    8.1587  -14.0095   25.1759 C   0  0  0  0  0  0  0  0  0  0  0  0
    9.1385  -14.6975   24.2781 C   0  0  2  0  0  0  0  0  0  0  0  0
    8.5815  -15.6035   23.3387 N   0  0  0  0  0  0  0  0  0  0  0  0
   10.2037  -15.3063   25.1237 C   0  0  0  0  0  0  0  0  0  0  0  0
   11.0795  -14.5403   25.5813 O   0  0  0  0  0  0  0  0  0  0  0  0
   11.3896  -13.7573   28.1035 C   0  0  0  0  0  0  0  0  0  0  0  0
   10.4424  -14.9717   29.0443 S   0  0  0  0  0  0  0  0  0  0  0  0
   11.1658  -16.6418   28.8365 C   0  0  0  0  0  0  0  0  0  0  0  0
   10.4824  -17.3433   27.7108 C   0  0  0  0  0  0  0  0  0  0  0  0
   11.1842  -17.2700   26.3899 C   0  0  2  0  0  0  0  0  0  0  0  0
   10.2653  -16.6853   25.4245 N   0  0  0  0  0  0  0  0  0  0  0  0
   11.5883  -18.6258   25.9337 C   0  0  0  0  0  0  0  0  0  0  0  0
   12.6236  -19.3183   26.5870 O   0  0  0  0  0  0  0  0  0  0  0  0
   11.0449  -19.2192   24.9628 O   0  0  0  0  0  0  0  0  0  0  0  0
  2  1  1  0
  3  2  1  0
  4  3  1  0
  4  5  1  0
  5  6  1  1
  5  1  1  0
  6  7  2  0
  9  8  1  1
  9 11  1  0
 10  9  1  0
 12 11  1  1
 13 12  1  0
 13  6  1  0
 14 15  2  0
 14 12  1  0
 16 17  1  0
 18 17  1  0
 18 19  1  0
 20 19  1  1
 20 22  1  0
 20 21  1  0
 21 14  1  0
 22 23  1  0
 24 22  2  0
M  END
$$$$
