PLM.pdb
     RDKit          3D

 24 24  0  0  1  0  0  0  0  0999 V2000
    7.1913  -18.6247   20.9562 N   0  0  0  0  0  0  0  0  0  0  0  0
    6.4039  -18.4441   19.7747 C   0  0  0  0  0  0  0  0  0  0  0  0
    7.0926  -19.3680   18.7823 C   0  0  0  0  0  0  0  0  0  0  0  0
    8.5489  -19.2178   19.1681 C   0  0  0  0  0  0  0  0  0  0  0  0
    8.5668  -18.7373   20.5854 C   0  0  1  0  0  0  0  0  0  0  0  0
    9.2286  -17.4278   20.7457 C   0  0  0  0  0  0  0  0  0  0  0  0
   10.4507  -17.2761   20.4861 O   0  0  0  0  0  0  0  0  0  0  0  0
    6.9377  -12.4398   19.7128 C   0  0  0  0  0  0  0  0  0  0  0  0
    7.8388  -13.6936   19.8188 C   0  0  1  0  0  0  0  0  0  0  0  0
    8.9274  -13.4893   18.7873 C   0  0  0  0  0  0  0  0  0  0  0  0
    8.4079  -13.7944   21.1881 C   0  0  0  0  0  0  0  0  0  0  0  0
    9.1712  -15.0360   21.5277 C   0  0  2  0  0  0  0  0  0  0  0  0
    8.5319  -16.2600   21.2011 N   0  0  0  0  0  0  0  0  0  0  0  0
    9.5919  -14.9534   22.9548 C   0  0  0  0  0  0  0  0  0  0  0  0
   10.4780  -14.1200   23.2434 O   0  0  0  0  0  0  0  0  0  0  0  0
    6.8503  -11.9888   26.0635 C   0  0  0  0  0  0  0  0  0  0  0  0
    6.5178  -13.1545   27.4005 S   0  0  0  0  0  0  0  0  0  0  0  0
    7.6199  -14.6113   27.2628 C   0  0  0  0  0  0  0  0  0  0  0  0
    7.7365  -15.0131   25.8306 C   0  0  0  0  0  0  0  0  0  0  0  0
    9.1043  -15.4382   25.3937 C   0  0  2  0  0  0  0  0  0  0  0  0
    9.0432  -15.7611   23.9758 N   0  0  0  0  0  0  0  0  0  0  0  0
    9.5521  -16.6326   26.1569 C   0  0  0  0  0  0  0  0  0  0  0  0
    9.9221  -17.8108   25.4839 O   0  0  0  0  0  0  0  0  0  0  0  0
    9.6246  -16.6617   27.4155 O   0  0  0  0  0  0  0  0  0  0  0  0
  2  1  1  0
  3  2  1  0
  4  3  1  0
  4  5  1  0
  5  6  1  6
  5  1  1  0
  6  7  2  0
  9  8  1  1
  9 11  1  0
 10  9  1  0
 12 11  1  1
 13 12  1  0
 13  6  1  0
 14 15  2  0
 14 12  1  0
 16 17  1  0
 18 17  1  0
 18 19  1  0
 20 19  1  1
 20 22  1  0
 20 21  1  0
 21 14  1  0
 22 23  1  0
 24 22  2  0
M  END
$$$$
