PLM.pdb
     RDKit          3D

 24 24  0  0  1  0  0  0  0  0999 V2000
    7.2948  -16.6118   20.2476 N   0  0  0  0  0  0  0  0  0  0  0  0
    6.4445  -15.5825   19.7317 C   0  0  0  0  0  0  0  0  0  0  0  0
    7.2731  -15.0221   18.5862 C   0  0  0  0  0  0  0  0  0  0  0  0
    8.6797  -15.1138   19.1385 C   0  0  0  0  0  0  0  0  0  0  0  0
    8.6494  -16.1579   20.2103 C   0  0  1  0  0  0  0  0  0  0  0  0
    9.0309  -15.6377   21.5379 C   0  0  0  0  0  0  0  0  0  0  0  0
   10.1405  -15.0743   21.7258 O   0  0  0  0  0  0  0  0  0  0  0  0
    5.6483  -13.0153   25.5899 C   0  0  0  0  0  0  0  0  0  0  0  0
    6.7069  -13.3440   24.5099 C   0  0  1  0  0  0  0  0  0  0  0  0
    7.7875  -12.2982   24.6811 C   0  0  0  0  0  0  0  0  0  0  0  0
    7.2444  -14.7127   24.7270 C   0  0  0  0  0  0  0  0  0  0  0  0
    8.4445  -15.1165   23.9296 C   0  0  2  0  0  0  0  0  0  0  0  0
    8.1743  -15.7393   22.6835 N   0  0  0  0  0  0  0  0  0  0  0  0
    9.3432  -15.9188   24.8065 C   0  0  0  0  0  0  0  0  0  0  0  0
    9.4588  -17.1365   24.5474 O   0  0  0  0  0  0  0  0  0  0  0  0
   10.4620  -13.7930   30.5399 C   0  0  0  0  0  0  0  0  0  0  0  0
   11.5894  -15.1872   30.7457 S   0  0  0  0  0  0  0  0  0  0  0  0
   11.7169  -16.1376   29.1848 C   0  0  0  0  0  0  0  0  0  0  0  0
   10.9365  -15.4471   28.1169 C   0  0  0  0  0  0  0  0  0  0  0  0
   10.8945  -16.1523   26.7965 C   0  0  2  0  0  0  0  0  0  0  0  0
   10.0563  -15.3731   25.8972 N   0  0  0  0  0  0  0  0  0  0  0  0
   10.3263  -17.5176   26.9479 C   0  0  0  0  0  0  0  0  0  0  0  0
    8.9390  -17.7005   27.0880 O   0  0  0  0  0  0  0  0  0  0  0  0
   11.0319  -18.5627   26.9603 O   0  0  0  0  0  0  0  0  0  0  0  0
  2  1  1  0
  3  2  1  0
  4  3  1  0
  4  5  1  0
  5  6  1  1
  5  1  1  0
  6  7  2  0
  9  8  1  1
  9 11  1  0
 10  9  1  0
 12 11  1  1
 13 12  1  0
 13  6  1  0
 14 15  2  0
 14 12  1  0
 16 17  1  0
 18 17  1  0
 18 19  1  0
 20 19  1  1
 20 22  1  0
 20 21  1  0
 21 14  1  0
 22 23  1  0
 24 22  2  0
M  END
$$$$
