HAE.pdb
     RDKit          3D

 25 25  0  0  1  0  0  0  0  0999 V2000
    9.7796  -14.8034   20.3942 N   0  0  0  0  0  0  0  0  0  0  0  0
    8.6326  -14.8935   21.2698 C   0  0  1  0  0  0  0  0  0  0  0  0
    8.0484  -16.2955   21.0714 C   0  0  0  0  0  0  0  0  0  0  0  0
    7.4620  -16.3942   19.7192 C   0  0  0  0  0  0  0  0  0  0  0  0
    7.4699  -15.4102   18.7672 C   0  0  0  0  0  0  0  0  0  0  0  0
    6.8259  -15.9217   17.6769 N   0  0  0  0  0  0  0  0  0  0  0  0
    6.4291  -17.1787   17.9361 C   0  0  0  0  0  0  0  0  0  0  0  0
    6.8304  -17.4559   19.2031 N   0  0  0  0  0  0  0  0  0  0  0  0
    9.0183  -14.8215   22.7059 C   0  0  0  0  0  0  0  0  0  0  0  0
   10.1188  -15.3314   23.0486 O   0  0  0  0  0  0  0  0  0  0  0  0
    7.5050  -13.5539   25.8667 C   0  0  0  0  0  0  0  0  0  0  0  0
    8.5979  -14.2920   25.1034 C   0  0  2  0  0  0  0  0  0  0  0  0
    8.2396  -14.2234   23.7061 N   0  0  0  0  0  0  0  0  0  0  0  0
    8.6411  -15.6837   25.6062 C   0  0  0  0  0  0  0  0  0  0  0  0
    7.8824  -16.5963   25.2011 O   0  0  0  0  0  0  0  0  0  0  0  0
    9.5901  -16.0088   26.6006 N   0  0  0  0  0  0  0  0  0  0  0  0
    9.9816  -17.4534   26.8027 C   0  0  1  0  0  0  0  0  0  0  0  0
   11.2152  -17.5664   25.9775 C   0  0  0  0  0  0  0  0  0  0  0  0
   12.0316  -18.7764   26.1078 C   0  0  0  0  0  0  0  0  0  0  0  0
   12.2680  -19.5030   24.8634 C   0  0  0  0  0  0  0  0  0  0  0  0
   13.1297  -19.0892   24.0291 O   0  0  0  0  0  0  0  0  0  0  0  0
   10.2241  -17.6664   28.2338 C   0  0  0  0  0  0  0  0  0  0  0  0
   10.3989  -18.7598   28.7889 O   0  0  0  0  0  0  0  0  0  0  0  0
   11.5649  -20.6580   24.5677 O   0  0  0  0  0  0  0  0  0  0  0  0
   10.2605  -16.5069   29.0521 O   0  0  0  0  0  0  0  0  0  0  0  0
  2  1  1  6
  2  9  1  0
  3  4  1  0
  3  2  1  0
  4  8  1  0
  4  5  2  0
  5  6  1  0
  7  6  1  0
  8  7  2  0
  9 13  1  0
  9 10  2  0
 12 11  1  1
 12 14  1  0
 13 12  1  0
 14 16  1  0
 14 15  2  0
 16 17  1  0
 17 22  1  0
 17 18  1  6
 19 20  1  0
 19 18  1  0
 20 24  1  0
 21 20  2  0
 22 25  1  0
 23 22  2  0
M  END
$$$$
