HAE.pdb
     RDKit          3D

 25 25  0  0  1  0  0  0  0  0999 V2000
15224.8857 6884.6880-27967.5664 N   0  0  0  0  0  0  0  0  0  0  0  0
15226.2520 6884.4922-27967.1465 C   0  0  1  0  0  0  0  0  0  0  0  0
15226.7617 6885.8726-27966.7148 C   0  0  0  0  0  0  0  0  0  0  0  0
15226.0693 6886.9219-27967.4961 C   0  0  0  0  0  0  0  0  0  0  0  0
15224.7197 6887.1997-27967.4512 C   0  0  0  0  0  0  0  0  0  0  0  0
15224.5137 6888.2393-27968.3145 N   0  0  0  0  0  0  0  0  0  0  0  0
15225.6787 6888.5898-27968.8867 C   0  0  0  0  0  0  0  0  0  0  0  0
15226.6240 6887.7749-27968.3574 N   0  0  0  0  0  0  0  0  0  0  0  0
15226.3379 6883.6450-27965.9277 C   0  0  0  0  0  0  0  0  0  0  0  0
15225.2998 6883.4780-27965.2402 O   0  0  0  0  0  0  0  0  0  0  0  0
15228.4756 6883.7119-27967.5410 C   0  0  0  0  0  0  0  0  0  0  0  0
15228.6299 6882.7583-27966.3594 C   0  0  2  0  0  0  0  0  0  0  0  0
15227.5107 6883.0093-27965.4824 N   0  0  0  0  0  0  0  0  0  0  0  0
15229.9297 6883.0449-27965.7168 C   0  0  0  0  0  0  0  0  0  0  0  0
15230.2354 6884.1582-27965.2188 O   0  0  0  0  0  0  0  0  0  0  0  0
15230.8906 6882.0068-27965.6484 N   0  0  0  0  0  0  0  0  0  0  0  0
15232.3398 6882.3628-27965.4961 C   0  0  1  0  0  0  0  0  0  0  0  0
15232.2734 6883.6328-27964.7168 C   0  0  0  0  0  0  0  0  0  0  0  0
15233.4443 6884.5112-27964.7148 C   0  0  0  0  0  0  0  0  0  0  0  0
15233.4756 6885.5103-27963.6504 C   0  0  0  0  0  0  0  0  0  0  0  0
15232.7246 6885.3843-27962.6270 O   0  0  0  0  0  0  0  0  0  0  0  0
15233.0078 6881.2764-27964.7539 C   0  0  0  0  0  0  0  0  0  0  0  0
15233.4893 6881.3628-27963.6172 O   0  0  0  0  0  0  0  0  0  0  0  0
15234.3330 6886.5859-27963.7148 O   0  0  0  0  0  0  0  0  0  0  0  0
15233.0879 6880.0210-27965.4082 O   0  0  0  0  0  0  0  0  0  0  0  0
  2  1  1  1
  2  9  1  0
  3  4  1  0
  3  2  1  0
  4  8  1  0
  4  5  2  0
  5  6  1  0
  7  6  1  0
  8  7  2  0
  9 13  1  0
  9 10  2  0
 12 11  1  6
 12 14  1  0
 13 12  1  0
 14 16  1  0
 14 15  2  0
 16 17  1  0
 17 22  1  0
 17 18  1  1
 19 20  1  0
 19 18  1  0
 20 24  1  0
 21 20  2  0
 22 25  1  0
 23 22  2  0
M  END
$$$$
