HAE.pdb
     RDKit          3D

 25 25  0  0  1  0  0  0  0  0999 V2000
   10.0529  -13.6861   19.9558 N   0  0  0  0  0  0  0  0  0  0  0  0
    8.7492  -13.6460   20.5799 C   0  0  1  0  0  0  0  0  0  0  0  0
    7.9186  -14.7467   19.9130 C   0  0  0  0  0  0  0  0  0  0  0  0
    7.7997  -14.4625   18.4683 C   0  0  0  0  0  0  0  0  0  0  0  0
    7.5946  -13.2307   17.9069 C   0  0  0  0  0  0  0  0  0  0  0  0
    7.5495  -13.4241   16.5557 N   0  0  0  0  0  0  0  0  0  0  0  0
    7.7196  -14.7280   16.2809 C   0  0  0  0  0  0  0  0  0  0  0  0
    7.8732  -15.3565   17.4745 N   0  0  0  0  0  0  0  0  0  0  0  0
    8.8084  -14.0091   22.0224 C   0  0  0  0  0  0  0  0  0  0  0  0
    9.7767  -14.7137   22.4153 O   0  0  0  0  0  0  0  0  0  0  0  0
    6.7386  -13.4334   25.0665 C   0  0  0  0  0  0  0  0  0  0  0  0
    7.9967  -13.9466   24.3766 C   0  0  2  0  0  0  0  0  0  0  0  0
    7.8585  -13.6200   22.9767 N   0  0  0  0  0  0  0  0  0  0  0  0
    8.0778  -15.4063   24.6092 C   0  0  0  0  0  0  0  0  0  0  0  0
    7.3352  -16.2454   24.0461 O   0  0  0  0  0  0  0  0  0  0  0  0
    9.0460  -15.8883   25.5177 N   0  0  0  0  0  0  0  0  0  0  0  0
    9.3506  -17.3671   25.5556 C   0  0  1  0  0  0  0  0  0  0  0  0
   10.5192  -17.4741   24.6400 C   0  0  0  0  0  0  0  0  0  0  0  0
   11.2153  -18.7602   24.5469 C   0  0  0  0  0  0  0  0  0  0  0  0
   12.3868  -18.7707   23.6752 C   0  0  0  0  0  0  0  0  0  0  0  0
   13.3437  -17.9612   23.8717 O   0  0  0  0  0  0  0  0  0  0  0  0
    9.6679  -17.7341   26.9402 C   0  0  0  0  0  0  0  0  0  0  0  0
    9.8099  -18.8850   27.3751 O   0  0  0  0  0  0  0  0  0  0  0  0
   12.4834  -19.6633   22.6217 O   0  0  0  0  0  0  0  0  0  0  0  0
    9.8254  -16.6653   27.8611 O   0  0  0  0  0  0  0  0  0  0  0  0
  2  1  1  6
  2  9  1  0
  3  4  1  0
  3  2  1  0
  4  8  1  0
  4  5  2  0
  5  6  1  0
  7  6  1  0
  8  7  2  0
  9 13  1  0
  9 10  2  0
 12 11  1  1
 12 14  1  0
 13 12  1  0
 14 16  1  0
 14 15  2  0
 16 17  1  0
 17 22  1  0
 17 18  1  6
 19 20  1  0
 19 18  1  0
 20 24  1  0
 21 20  2  0
 22 25  1  0
 23 22  2  0
M  END
$$$$
