HAE.pdb
     RDKit          3D

 25 25  0  0  1  0  0  0  0  0999 V2000
   10.6159  -12.8818   18.5864 N   0  0  0  0  0  0  0  0  0  0  0  0
    9.4118  -13.4985   19.0965 C   0  0  1  0  0  0  0  0  0  0  0  0
    9.2364  -14.8073   18.3204 C   0  0  0  0  0  0  0  0  0  0  0  0
    8.9994  -14.5027   16.8946 C   0  0  0  0  0  0  0  0  0  0  0  0
    8.1082  -13.5845   16.4075 C   0  0  0  0  0  0  0  0  0  0  0  0
    8.2146  -13.6264   15.0466 N   0  0  0  0  0  0  0  0  0  0  0  0
    9.1374  -14.5368   14.6943 C   0  0  0  0  0  0  0  0  0  0  0  0
    9.6134  -15.0696   15.8488 N   0  0  0  0  0  0  0  0  0  0  0  0
    9.5492  -13.8965   20.5244 C   0  0  0  0  0  0  0  0  0  0  0  0
   10.6700  -14.3207   20.9146 O   0  0  0  0  0  0  0  0  0  0  0  0
    7.3849  -13.9407   23.5577 C   0  0  0  0  0  0  0  0  0  0  0  0
    8.7186  -14.1690   22.8570 C   0  0  2  0  0  0  0  0  0  0  0  0
    8.5146  -13.8313   21.4678 N   0  0  0  0  0  0  0  0  0  0  0  0
    9.0907  -15.5897   23.0427 C   0  0  0  0  0  0  0  0  0  0  0  0
    8.8432  -16.4913   22.2070 O   0  0  0  0  0  0  0  0  0  0  0  0
    9.7641  -15.9576   24.2286 N   0  0  0  0  0  0  0  0  0  0  0  0
   10.1350  -17.4052   24.4478 C   0  0  1  0  0  0  0  0  0  0  0  0
   11.1914  -17.6211   23.4218 C   0  0  0  0  0  0  0  0  0  0  0  0
   12.4079  -16.8071   23.4930 C   0  0  0  0  0  0  0  0  0  0  0  0
   13.4218  -17.1164   22.4886 C   0  0  0  0  0  0  0  0  0  0  0  0
   14.6158  -17.3696   22.8348 O   0  0  0  0  0  0  0  0  0  0  0  0
   10.6283  -17.5486   25.8219 C   0  0  0  0  0  0  0  0  0  0  0  0
   11.0396  -18.5941   26.3435 O   0  0  0  0  0  0  0  0  0  0  0  0
   13.1050  -17.1459   21.1415 O   0  0  0  0  0  0  0  0  0  0  0  0
   10.6317  -16.3760   26.6220 O   0  0  0  0  0  0  0  0  0  0  0  0
  2  1  1  6
  2  9  1  0
  3  4  1  0
  3  2  1  0
  4  8  1  0
  4  5  2  0
  5  6  1  0
  7  6  1  0
  8  7  2  0
  9 13  1  0
  9 10  2  0
 12 11  1  1
 12 14  1  0
 13 12  1  0
 14 16  1  0
 14 15  2  0
 16 17  1  0
 17 22  1  0
 17 18  1  6
 19 20  1  0
 19 18  1  0
 20 24  1  0
 21 20  2  0
 22 25  1  0
 23 22  2  0
M  END
$$$$
