HAE.pdb
     RDKit          3D

 25 25  0  0  1  0  0  0  0  0999 V2000
    8.4767  -12.6542   18.4007 N   0  0  0  0  0  0  0  0  0  0  0  0
    8.5991  -13.9959   18.9255 C   0  0  1  0  0  0  0  0  0  0  0  0
   10.0307  -14.4481   18.6219 C   0  0  0  0  0  0  0  0  0  0  0  0
   10.0991  -14.9593   17.2377 C   0  0  0  0  0  0  0  0  0  0  0  0
    9.0693  -14.9732   16.3356 C   0  0  0  0  0  0  0  0  0  0  0  0
    9.5662  -15.5261   15.1899 N   0  0  0  0  0  0  0  0  0  0  0  0
   10.8586  -15.8467   15.3676 C   0  0  0  0  0  0  0  0  0  0  0  0
   11.1728  -15.4896   16.6392 N   0  0  0  0  0  0  0  0  0  0  0  0
    8.4760  -14.0295   20.4087 C   0  0  0  0  0  0  0  0  0  0  0  0
    8.9800  -13.0792   21.0654 O   0  0  0  0  0  0  0  0  0  0  0  0
    6.5095  -15.8934   22.9115 C   0  0  0  0  0  0  0  0  0  0  0  0
    7.6989  -15.0064   22.5644 C   0  0  2  0  0  0  0  0  0  0  0  0
    7.8358  -15.0484   21.1274 N   0  0  0  0  0  0  0  0  0  0  0  0
    8.8876  -15.5498   23.2596 C   0  0  0  0  0  0  0  0  0  0  0  0
    9.7682  -16.2439   22.6982 O   0  0  0  0  0  0  0  0  0  0  0  0
    9.0444  -15.2738   24.6360 N   0  0  0  0  0  0  0  0  0  0  0  0
   10.1772  -15.9239   25.3944 C   0  0  1  0  0  0  0  0  0  0  0  0
   10.1442  -15.2013   26.6953 C   0  0  0  0  0  0  0  0  0  0  0  0
   10.9887  -15.6939   27.7870 C   0  0  0  0  0  0  0  0  0  0  0  0
   10.9835  -14.8732   28.9948 C   0  0  0  0  0  0  0  0  0  0  0  0
   10.3647  -13.7659   29.0191 O   0  0  0  0  0  0  0  0  0  0  0  0
    9.8809  -17.3550   25.5226 C   0  0  0  0  0  0  0  0  0  0  0  0
    8.7553  -17.8591   25.6364 O   0  0  0  0  0  0  0  0  0  0  0  0
   11.6460  -15.2841   30.1386 O   0  0  0  0  0  0  0  0  0  0  0  0
   10.9926  -18.2378   25.5146 O   0  0  0  0  0  0  0  0  0  0  0  0
  2  1  1  1
  2  9  1  0
  3  4  1  0
  3  2  1  0
  4  8  1  0
  4  5  2  0
  5  6  1  0
  7  6  1  0
  8  7  2  0
  9 13  1  0
  9 10  2  0
 12 11  1  6
 12 14  1  0
 13 12  1  0
 14 16  1  0
 14 15  2  0
 16 17  1  0
 17 22  1  0
 17 18  1  1
 19 20  1  0
 19 18  1  0
 20 24  1  0
 21 20  2  0
 22 25  1  0
 23 22  2  0
M  END
$$$$
