HAE.pdb
     RDKit          3D

 25 25  0  0  1  0  0  0  0  0999 V2000
    9.8744  -16.1715   18.0676 N   0  0  0  0  0  0  0  0  0  0  0  0
   10.7691  -15.0573   18.2877 C   0  0  1  0  0  0  0  0  0  0  0  0
   10.1352  -14.2079   19.3934 C   0  0  0  0  0  0  0  0  0  0  0  0
    8.9242  -13.5451   18.8678 C   0  0  0  0  0  0  0  0  0  0  0  0
    8.4264  -13.6727   17.5988 C   0  0  0  0  0  0  0  0  0  0  0  0
    7.3045  -12.8959   17.5435 N   0  0  0  0  0  0  0  0  0  0  0  0
    7.1071  -12.3036   18.7330 C   0  0  0  0  0  0  0  0  0  0  0  0
    8.1174  -12.7156   19.5410 N   0  0  0  0  0  0  0  0  0  0  0  0
   12.0860  -15.4954   18.8263 C   0  0  0  0  0  0  0  0  0  0  0  0
   12.1077  -16.4948   19.5941 O   0  0  0  0  0  0  0  0  0  0  0  0
   15.6594  -14.5580   18.3784 C   0  0  0  0  0  0  0  0  0  0  0  0
   14.5587  -15.3404   19.0844 C   0  0  2  0  0  0  0  0  0  0  0  0
   13.3073  -14.8714   18.5372 N   0  0  0  0  0  0  0  0  0  0  0  0
   14.6736  -15.0747   20.5362 C   0  0  0  0  0  0  0  0  0  0  0  0
   13.9592  -14.2496   21.1537 O   0  0  0  0  0  0  0  0  0  0  0  0
   15.6431  -15.7890   21.2745 N   0  0  0  0  0  0  0  0  0  0  0  0
   15.6781  -15.6469   22.7777 C   0  0  1  0  0  0  0  0  0  0  0  0
   14.4182  -16.3237   23.1899 C   0  0  0  0  0  0  0  0  0  0  0  0
   14.2054  -16.5907   24.6150 C   0  0  0  0  0  0  0  0  0  0  0  0
   12.9575  -17.2764   24.9388 C   0  0  0  0  0  0  0  0  0  0  0  0
   12.1285  -17.5721   24.0250 O   0  0  0  0  0  0  0  0  0  0  0  0
   16.8831  -16.3208   23.2736 C   0  0  0  0  0  0  0  0  0  0  0  0
   17.3893  -16.1777   24.3949 O   0  0  0  0  0  0  0  0  0  0  0  0
   12.6526  -17.6235   26.2436 O   0  0  0  0  0  0  0  0  0  0  0  0
   17.5229  -17.2189   22.3796 O   0  0  0  0  0  0  0  0  0  0  0  0
  2  1  1  1
  2  9  1  0
  3  4  1  0
  3  2  1  0
  4  8  1  0
  4  5  2  0
  5  6  1  0
  7  6  1  0
  8  7  2  0
  9 13  1  0
  9 10  2  0
 12 11  1  6
 12 14  1  0
 13 12  1  0
 14 16  1  0
 14 15  2  0
 16 17  1  0
 17 22  1  0
 17 18  1  1
 19 20  1  0
 19 18  1  0
 20 24  1  0
 21 20  2  0
 22 25  1  0
 23 22  2  0
M  END
$$$$
