CPV.pdb
     RDKit          3D

 21 21  0  0  1  0  0  0  0  0999 V2000
   11.3425  -16.8680   19.7472 N   0  0  0  0  0  0  0  0  0  0  0  0
   10.2037  -17.1523   20.6556 C   0  0  1  0  0  0  0  0  0  0  0  0
   10.3623  -18.6120   21.0846 C   0  0  0  0  0  0  0  0  0  0  0  0
    8.9940  -19.5036   20.2470 S   0  0  0  0  0  0  0  0  0  0  0  0
   10.2401  -16.2085   21.7632 C   0  0  0  0  0  0  0  0  0  0  0  0
   11.3843  -15.8171   22.1792 O   0  0  0  0  0  0  0  0  0  0  0  0
    9.0701  -15.7230   22.3782 N   0  0  0  0  0  0  0  0  0  0  0  0
    7.7406  -16.0874   21.8218 C   0  0  0  0  0  0  0  0  0  0  0  0
    6.9117  -14.8463   22.2150 C   0  0  0  0  0  0  0  0  0  0  0  0
    7.3854  -14.7099   23.6391 C   0  0  0  0  0  0  0  0  0  0  0  0
    8.8793  -14.8972   23.5242 C   0  0  1  0  0  0  0  0  0  0  0  0
    9.2721  -15.5914   24.7924 C   0  0  0  0  0  0  0  0  0  0  0  0
    9.3202  -16.8266   24.8012 O   0  0  0  0  0  0  0  0  0  0  0  0
   11.1741  -13.4115   27.8441 C   0  0  0  0  0  0  0  0  0  0  0  0
   10.1980  -14.4748   28.2947 C   0  0  1  0  0  0  0  0  0  0  0  0
    8.8901  -13.9098   28.7385 C   0  0  0  0  0  0  0  0  0  0  0  0
   10.0631  -15.4737   27.1712 C   0  0  2  0  0  0  0  0  0  0  0  0
    9.5812  -14.8635   25.9518 N   0  0  0  0  0  0  0  0  0  0  0  0
    9.2311  -16.6184   27.5957 C   0  0  0  0  0  0  0  0  0  0  0  0
    8.0465  -16.7246   27.2420 O   0  0  0  0  0  0  0  0  0  0  0  0
    9.7919  -17.5859   28.4033 O   0  0  0  0  0  0  0  0  0  0  0  0
  2  1  1  6
  3  2  1  0
  4  3  1  0
  5  7  1  0
  5  2  1  0
  6  5  2  0
  7  8  1  0
  9  8  1  0
 10  9  1  0
 11 10  1  0
 11  7  1  0
 11 12  1  1
 12 18  1  0
 13 12  2  0
 15 14  1  6
 15 16  1  0
 17 15  1  0
 17 18  1  6
 19 17  1  0
 19 21  1  0
 20 19  2  0
M  END
$$$$
