CPV.pdb
     RDKit          3D

 21 21  0  0  1  0  0  0  0  0999 V2000
    5.3701  -18.5292   19.1955 N   0  0  0  0  0  0  0  0  0  0  0  0
    5.3909  -17.2743   19.9876 C   0  0  1  0  0  0  0  0  0  0  0  0
    4.3748  -17.4713   21.1141 C   0  0  0  0  0  0  0  0  0  0  0  0
    5.2781  -18.4080   22.4085 S   0  0  0  0  0  0  0  0  0  0  0  0
    6.7483  -17.0382   20.4572 C   0  0  0  0  0  0  0  0  0  0  0  0
    7.5738  -18.0142   20.4181 O   0  0  0  0  0  0  0  0  0  0  0  0
    7.1700  -15.7863   20.9445 N   0  0  0  0  0  0  0  0  0  0  0  0
    6.2137  -14.6485   20.9758 C   0  0  0  0  0  0  0  0  0  0  0  0
    7.1767  -13.4554   20.7999 C   0  0  0  0  0  0  0  0  0  0  0  0
    8.2372  -13.8847   21.7808 C   0  0  0  0  0  0  0  0  0  0  0  0
    8.4219  -15.3503   21.4683 C   0  0  1  0  0  0  0  0  0  0  0  0
    8.7322  -15.9828   22.7904 C   0  0  0  0  0  0  0  0  0  0  0  0
    7.8207  -16.1067   23.6163 O   0  0  0  0  0  0  0  0  0  0  0  0
   11.2347  -19.2776   25.2082 C   0  0  0  0  0  0  0  0  0  0  0  0
   10.8892  -18.5751   23.9145 C   0  0  1  0  0  0  0  0  0  0  0  0
    9.9663  -19.3698   23.0524 C   0  0  0  0  0  0  0  0  0  0  0  0
   10.3457  -17.2121   24.2683 C   0  0  2  0  0  0  0  0  0  0  0  0
   10.0276  -16.4289   23.0948 N   0  0  0  0  0  0  0  0  0  0  0  0
   11.2700  -16.5092   25.1816 C   0  0  0  0  0  0  0  0  0  0  0  0
   11.2375  -16.6978   26.4076 O   0  0  0  0  0  0  0  0  0  0  0  0
   12.1863  -15.6252   24.6508 O   0  0  0  0  0  0  0  0  0  0  0  0
  2  1  1  6
  3  2  1  0
  4  3  1  0
  5  7  1  0
  5  2  1  0
  6  5  2  0
  7  8  1  0
  9  8  1  0
 10  9  1  0
 11 10  1  0
 11  7  1  0
 11 12  1  1
 12 18  1  0
 13 12  2  0
 15 14  1  1
 15 16  1  0
 17 15  1  0
 17 18  1  6
 19 17  1  0
 19 21  1  0
 20 19  2  0
M  END
$$$$
