CPV.pdb
     RDKit          3D

 21 21  0  0  1  0  0  0  0  0999 V2000
   11.6272  -16.6665   19.8560 N   0  0  0  0  0  0  0  0  0  0  0  0
   10.4451  -17.0463   20.6690 C   0  0  1  0  0  0  0  0  0  0  0  0
   10.6609  -18.5074   21.0677 C   0  0  0  0  0  0  0  0  0  0  0  0
   10.4004  -19.4636   19.5228 S   0  0  0  0  0  0  0  0  0  0  0  0
   10.3436  -16.1384   21.8023 C   0  0  0  0  0  0  0  0  0  0  0  0
   11.4253  -15.6437   22.2721 O   0  0  0  0  0  0  0  0  0  0  0  0
    9.1085  -15.7957   22.3850 N   0  0  0  0  0  0  0  0  0  0  0  0
    7.8472  -16.3205   21.7987 C   0  0  0  0  0  0  0  0  0  0  0  0
    6.8647  -15.1874   22.1628 C   0  0  0  0  0  0  0  0  0  0  0  0
    7.2824  -14.9890   23.5971 C   0  0  0  0  0  0  0  0  0  0  0  0
    8.7903  -14.9945   23.5202 C   0  0  1  0  0  0  0  0  0  0  0  0
    9.2322  -15.6309   24.8024 C   0  0  0  0  0  0  0  0  0  0  0  0
    9.3796  -16.8578   24.8347 O   0  0  0  0  0  0  0  0  0  0  0  0
   10.5956  -14.9935   29.5097 C   0  0  0  0  0  0  0  0  0  0  0  0
    9.8166  -14.4330   28.3411 C   0  0  1  0  0  0  0  0  0  0  0  0
   10.2416  -13.0513   27.9711 C   0  0  0  0  0  0  0  0  0  0  0  0
    9.9351  -15.4162   27.2020 C   0  0  2  0  0  0  0  0  0  0  0  0
    9.4763  -14.8590   25.9488 N   0  0  0  0  0  0  0  0  0  0  0  0
    9.2521  -16.6819   27.5398 C   0  0  0  0  0  0  0  0  0  0  0  0
    8.0560  -16.8657   27.2654 O   0  0  0  0  0  0  0  0  0  0  0  0
    9.9677  -17.6760   28.1742 O   0  0  0  0  0  0  0  0  0  0  0  0
  2  1  1  6
  3  2  1  0
  4  3  1  0
  5  7  1  0
  5  2  1  0
  6  5  2  0
  7  8  1  0
  9  8  1  0
 10  9  1  0
 11 10  1  0
 11  7  1  0
 11 12  1  1
 12 18  1  0
 13 12  2  0
 15 14  1  1
 15 16  1  0
 17 15  1  0
 17 18  1  6
 19 17  1  0
 19 21  1  0
 20 19  2  0
M  END
$$$$
