CPV.pdb
     RDKit          3D

 21 21  0  0  1  0  0  0  0  0999 V2000
   11.4341  -16.8028   19.6366 N   0  0  0  0  0  0  0  0  0  0  0  0
   10.6049  -17.4241   20.6993 C   0  0  1  0  0  0  0  0  0  0  0  0
   11.5882  -17.9456   21.7488 C   0  0  0  0  0  0  0  0  0  0  0  0
   11.5231  -19.7732   21.5926 S   0  0  0  0  0  0  0  0  0  0  0  0
    9.6747  -16.4283   21.2111 C   0  0  0  0  0  0  0  0  0  0  0  0
   10.0755  -15.2161   21.2842 O   0  0  0  0  0  0  0  0  0  0  0  0
    8.3684  -16.7576   21.6204 N   0  0  0  0  0  0  0  0  0  0  0  0
    7.8581  -18.1384   21.4131 C   0  0  0  0  0  0  0  0  0  0  0  0
    6.3482  -17.8673   21.2442 C   0  0  0  0  0  0  0  0  0  0  0  0
    6.1692  -16.9076   22.3922 C   0  0  0  0  0  0  0  0  0  0  0  0
    7.3545  -15.9824   22.2552 C   0  0  1  0  0  0  0  0  0  0  0  0
    7.7177  -15.6219   23.6633 C   0  0  0  0  0  0  0  0  0  0  0  0
    8.5258  -16.3358   24.2679 O   0  0  0  0  0  0  0  0  0  0  0  0
    7.1501  -12.5147   27.4662 C   0  0  0  0  0  0  0  0  0  0  0  0
    6.6206  -12.9518   26.1190 C   0  0  1  0  0  0  0  0  0  0  0  0
    6.5457  -11.8324   25.1351 C   0  0  0  0  0  0  0  0  0  0  0  0
    7.4753  -14.1024   25.6459 C   0  0  2  0  0  0  0  0  0  0  0  0
    7.1577  -14.4990   24.2919 N   0  0  0  0  0  0  0  0  0  0  0  0
    7.3948  -15.2301   26.5970 C   0  0  0  0  0  0  0  0  0  0  0  0
    8.2085  -15.3537   27.5256 O   0  0  0  0  0  0  0  0  0  0  0  0
    6.3893  -16.1616   26.4417 O   0  0  0  0  0  0  0  0  0  0  0  0
  2  1  1  6
  3  2  1  0
  4  3  1  0
  5  7  1  0
  5  2  1  0
  6  5  2  0
  7  8  1  0
  9  8  1  0
 10  9  1  0
 11 10  1  0
 11  7  1  0
 11 12  1  1
 12 18  1  0
 13 12  2  0
 15 14  1  1
 15 16  1  0
 17 15  1  0
 17 18  1  6
 19 17  1  0
 19 21  1  0
 20 19  2  0
M  END
$$$$
