RKW.pdb
     RDKit          3D

 35 36  0  0  1  0  0  0  0  0999 V2000
    7.9716  -11.9360   18.2943 N   0  0  0  0  0  0  0  0  0  0  0  0
    8.2217  -13.1937   17.6588 C   0  0  0  0  0  0  0  0  0  0  0  0
    8.0128  -13.2681   16.3870 N   0  0  0  0  0  0  0  0  0  0  0  0
    8.6831  -14.3113   18.4163 N   0  0  0  0  0  0  0  0  0  0  0  0
    7.6406  -15.2367   18.8679 C   0  0  0  0  0  0  0  0  0  0  0  0
    7.9227  -15.5831   20.2891 C   0  0  0  0  0  0  0  0  0  0  0  0
    8.9953  -16.5813   20.5256 C   0  0  0  0  0  0  0  0  0  0  0  0
    8.5481  -17.9634   20.8809 C   0  0  2  0  0  0  0  0  0  0  0  0
    7.2167  -18.2515   20.4531 N   0  0  0  0  0  0  0  0  0  0  0  0
    8.6549  -18.0763   22.3845 C   0  0  0  0  0  0  0  0  0  0  0  0
    7.8269  -18.8453   22.9350 O   0  0  0  0  0  0  0  0  0  0  0  0
    8.1237  -14.1398   15.8570 N   0  0  0  0  0  0  0  0  0  0  0  0
    9.6522  -17.3318   23.0614 C   0  0  2  0  0  0  0  0  0  0  0  0
   10.1008  -17.8134   24.3819 C   0  0  0  0  0  0  0  0  0  0  0  0
   10.5870  -19.1819   24.1897 C   0  0  0  0  0  0  0  0  0  0  0  0
   11.1204  -19.9569   25.3167 C   0  0  0  0  0  0  0  0  0  0  0  0
   11.5985  -21.3382   24.9983 C   0  0  0  0  0  0  0  0  0  0  0  0
   12.2739  -21.9853   26.2206 N   0  0  0  0  0  0  0  0  0  0  0  0
   13.6891  -22.1798   25.9637 C   0  0  0  0  0  0  0  0  0  0  0  0
   11.0087  -16.8032   24.9098 O   0  0  0  0  0  0  0  0  0  0  0  0
   12.2072  -16.7597   24.4621 N   0  0  0  0  0  0  0  0  0  0  0  0
   10.7117  -15.8243   25.8967 C   0  0  2  0  0  0  0  0  0  0  0  0
    9.7056  -16.0294   26.9202 C   0  0  0  0  0  0  0  0  0  0  0  0
    8.3984  -16.5467   26.3065 C   0  0  0  0  0  0  0  0  0  0  0  0
    7.6812  -15.3856   25.7347 C   0  0  0  0  0  0  0  0  0  0  0  0
    6.9593  -15.3680   24.5627 N   0  0  0  0  0  0  0  0  0  0  0  0
    6.4612  -14.1276   24.3898 C   0  0  0  0  0  0  0  0  0  0  0  0
    6.8402  -13.3532   25.4105 C   0  0  0  0  0  0  0  0  0  0  0  0
    6.5902  -12.0222   25.6890 C   0  0  0  0  0  0  0  0  0  0  0  0
    7.1310  -11.4987   26.8431 C   0  0  0  0  0  0  0  0  0  0  0  0
    7.9035  -12.2427   27.7217 C   0  0  0  0  0  0  0  0  0  0  0  0
    8.1363  -13.5562   27.4243 C   0  0  0  0  0  0  0  0  0  0  0  0
    7.6117  -14.1070   26.2827 C   0  0  0  0  0  0  0  0  0  0  0  0
   10.1841  -16.8676   28.0199 O   0  0  0  0  0  0  0  0  0  0  0  0
   11.1809  -17.7992   27.9379 O   0  0  0  0  0  0  0  0  0  0  0  0
  2  3  2  0
  2  1  1  0
  4  2  1  0
  5  4  1  0
  6  5  1  0
  7  6  1  0
  8  7  1  0
  8  9  1  1
 10 12  1  0
 10  8  1  0
 11 10  2  0
 13 12  1  0
 13 19  1  0
 14 15  1  0
 13 14  1  6
 15 16  1  0
 16 17  1  0
 17 18  1  0
 19 21  1  0
 20 19  2  0
 21 22  1  0
 22 23  1  6
 22 33  1  0
 23 24  1  0
 24 25  2  0
 25 26  1  0
 27 28  2  0
 27 26  1  0
 29 28  1  0
 30 29  2  0
 31 30  1  0
 31 32  2  0
 32 24  1  0
 32 27  1  0
 33 34  1  0
 35 33  2  0
M  END
$$$$
