RKW.pdb
     RDKit          3D

 35 36  0  0  1  0  0  0  0  0999 V2000
    9.6115  -14.7002   14.7699 N   0  0  0  0  0  0  0  0  0  0  0  0
    8.2616  -14.2510   14.9245 C   0  0  0  0  0  0  0  0  0  0  0  0
    7.5903  -14.0069   13.8490 N   0  0  0  0  0  0  0  0  0  0  0  0
    7.6956  -14.0846   16.2236 N   0  0  0  0  0  0  0  0  0  0  0  0
    8.5919  -13.5080   17.2293 C   0  0  0  0  0  0  0  0  0  0  0  0
    7.8214  -13.3600   18.4957 C   0  0  0  0  0  0  0  0  0  0  0  0
    8.2355  -14.2274   19.6265 C   0  0  0  0  0  0  0  0  0  0  0  0
    8.2554  -15.6989   19.3605 C   0  0  2  0  0  0  0  0  0  0  0  0
    6.9881  -16.2141   18.9516 N   0  0  0  0  0  0  0  0  0  0  0  0
    8.7052  -16.3613   20.6426 C   0  0  0  0  0  0  0  0  0  0  0  0
    7.7975  -16.6155   21.4741 O   0  0  0  0  0  0  0  0  0  0  0  0
    6.6128  -13.6949   13.8644 N   0  0  0  0  0  0  0  0  0  0  0  0
   10.0809  -16.6476   20.8234 C   0  0  1  0  0  0  0  0  0  0  0  0
   10.4756  -17.4366   22.0059 C   0  0  0  0  0  0  0  0  0  0  0  0
   11.4434  -18.4348   21.5439 C   0  0  0  0  0  0  0  0  0  0  0  0
   12.0386  -19.3964   22.4801 C   0  0  0  0  0  0  0  0  0  0  0  0
   13.0406  -20.3447   21.9015 C   0  0  0  0  0  0  0  0  0  0  0  0
   13.5757  -21.3076   22.9763 N   0  0  0  0  0  0  0  0  0  0  0  0
   12.6615  -22.4218   23.1475 C   0  0  0  0  0  0  0  0  0  0  0  0
   10.8730  -16.4821   23.0328 O   0  0  0  0  0  0  0  0  0  0  0  0
   11.4266  -15.3858   22.6718 N   0  0  0  0  0  0  0  0  0  0  0  0
   10.7124  -16.6273   24.4376 C   0  0  1  0  0  0  0  0  0  0  0  0
    9.6991  -15.9085   25.1848 C   0  0  0  0  0  0  0  0  0  0  0  0
    8.3999  -15.7966   24.3770 C   0  0  0  0  0  0  0  0  0  0  0  0
    7.4147  -15.0724   25.2104 C   0  0  0  0  0  0  0  0  0  0  0  0
    6.2540  -15.5908   25.7386 N   0  0  0  0  0  0  0  0  0  0  0  0
    5.6329  -14.6177   26.4344 C   0  0  0  0  0  0  0  0  0  0  0  0
    6.3569  -13.4968   26.3686 C   0  0  0  0  0  0  0  0  0  0  0  0
    6.1476  -12.2414   26.9087 C   0  0  0  0  0  0  0  0  0  0  0  0
    7.0943  -11.2722   26.6577 C   0  0  0  0  0  0  0  0  0  0  0  0
    8.2300  -11.5032   25.8968 C   0  0  0  0  0  0  0  0  0  0  0  0
    8.4143  -12.7523   25.3738 C   0  0  0  0  0  0  0  0  0  0  0  0
    7.4899  -13.7390   25.6058 C   0  0  0  0  0  0  0  0  0  0  0  0
    9.4869  -16.4626   26.5223 O   0  0  0  0  0  0  0  0  0  0  0  0
    9.6285  -15.7826   27.6995 O   0  0  0  0  0  0  0  0  0  0  0  0
  2  3  2  0
  2  1  1  0
  4  2  1  0
  5  4  1  0
  6  5  1  0
  7  6  1  0
  8  7  1  0
  8  9  1  1
 10 12  1  0
 10  8  1  0
 11 10  2  0
 13 12  1  0
 13 19  1  0
 14 15  1  0
 13 14  1  1
 15 16  1  0
 16 17  1  0
 17 18  1  0
 19 21  1  0
 20 19  2  0
 21 22  1  0
 22 23  1  1
 22 33  1  0
 23 24  1  0
 24 25  2  0
 25 26  1  0
 27 28  2  0
 27 26  1  0
 29 28  1  0
 30 29  2  0
 31 30  1  0
 31 32  2  0
 32 24  1  0
 32 27  1  0
 33 34  1  0
 35 33  2  0
M  END
$$$$
