RKW.pdb
     RDKit          3D

 35 36  0  0  1  0  0  0  0  0999 V2000
    8.1904  -13.1350   14.7522 N   0  0  0  0  0  0  0  0  0  0  0  0
    8.5964  -14.4328   15.1981 C   0  0  0  0  0  0  0  0  0  0  0  0
    8.8540  -15.3175   14.2939 N   0  0  0  0  0  0  0  0  0  0  0  0
    8.7064  -14.7208   16.5912 N   0  0  0  0  0  0  0  0  0  0  0  0
    7.4358  -14.9242   17.2922 C   0  0  0  0  0  0  0  0  0  0  0  0
    7.2120  -13.7495   18.1807 C   0  0  0  0  0  0  0  0  0  0  0  0
    7.0932  -14.0322   19.6329 C   0  0  0  0  0  0  0  0  0  0  0  0
    8.3469  -13.9040   20.4379 C   0  0  2  0  0  0  0  0  0  0  0  0
    9.5281  -13.8608   19.6370 N   0  0  0  0  0  0  0  0  0  0  0  0
    8.3838  -15.0948   21.3682 C   0  0  0  0  0  0  0  0  0  0  0  0
    7.3351  -15.3055   22.0283 O   0  0  0  0  0  0  0  0  0  0  0  0
    9.1899  -16.2604   14.5204 N   0  0  0  0  0  0  0  0  0  0  0  0
    9.5624  -15.8781   21.4370 C   0  0  1  0  0  0  0  0  0  0  0  0
    9.5616  -17.0559   22.3256 C   0  0  0  0  0  0  0  0  0  0  0  0
   10.4371  -18.0535   21.7055 C   0  0  0  0  0  0  0  0  0  0  0  0
   10.6698  -19.3536   22.3465 C   0  0  0  0  0  0  0  0  0  0  0  0
   11.6072  -20.2790   21.6373 C   0  0  0  0  0  0  0  0  0  0  0  0
   11.7141  -21.6276   22.3713 N   0  0  0  0  0  0  0  0  0  0  0  0
   12.5598  -22.5380   21.6215 C   0  0  0  0  0  0  0  0  0  0  0  0
    9.8718  -16.5707   23.6643 O   0  0  0  0  0  0  0  0  0  0  0  0
   10.8324  -15.7370   23.8086 N   0  0  0  0  0  0  0  0  0  0  0  0
    9.2107  -16.9241   24.8720 C   0  0  1  0  0  0  0  0  0  0  0  0
    9.6721  -16.4789   26.1723 C   0  0  0  0  0  0  0  0  0  0  0  0
    8.4893  -16.2297   27.1166 C   0  0  0  0  0  0  0  0  0  0  0  0
    7.5381  -15.3369   26.4181 C   0  0  0  0  0  0  0  0  0  0  0  0
    6.4762  -15.7281   25.6344 N   0  0  0  0  0  0  0  0  0  0  0  0
    5.8549  -14.6221   25.1791 C   0  0  0  0  0  0  0  0  0  0  0  0
    6.4833  -13.5390   25.6449 C   0  0  0  0  0  0  0  0  0  0  0  0
    6.2353  -12.1908   25.4645 C   0  0  0  0  0  0  0  0  0  0  0  0
    7.0789  -11.2973   26.0876 C   0  0  0  0  0  0  0  0  0  0  0  0
    8.1495  -11.6911   26.8757 C   0  0  0  0  0  0  0  0  0  0  0  0
    8.3739  -13.0294   27.0387 C   0  0  0  0  0  0  0  0  0  0  0  0
    7.5517  -13.9442   26.4315 C   0  0  0  0  0  0  0  0  0  0  0  0
   10.6772  -17.3721   26.7491 O   0  0  0  0  0  0  0  0  0  0  0  0
   11.4200  -17.1205   27.8686 O   0  0  0  0  0  0  0  0  0  0  0  0
  2  3  2  0
  2  1  1  0
  4  2  1  0
  5  4  1  0
  6  5  1  0
  7  6  1  0
  8  7  1  0
  8  9  1  6
 10 12  1  0
 10  8  1  0
 11 10  2  0
 13 12  1  0
 13 19  1  0
 14 15  1  0
 13 14  1  1
 15 16  1  0
 16 17  1  0
 17 18  1  0
 19 21  1  0
 20 19  2  0
 21 22  1  0
 22 23  1  1
 22 33  1  0
 23 24  1  0
 24 25  2  0
 25 26  1  0
 27 28  2  0
 27 26  1  0
 29 28  1  0
 30 29  2  0
 31 30  1  0
 31 32  2  0
 32 24  1  0
 32 27  1  0
 33 34  1  0
 35 33  2  0
M  END
$$$$
