RKW.pdb
     RDKit          3D

 35 36  0  0  1  0  0  0  0  0999 V2000
    7.8524  -20.6995   26.2612 N   0  0  0  0  0  0  0  0  0  0  0  0
    6.4633  -20.9375   26.5100 C   0  0  0  0  0  0  0  0  0  0  0  0
    6.0720  -20.9365   27.7403 N   0  0  0  0  0  0  0  0  0  0  0  0
    5.5603  -21.1655   25.4291 N   0  0  0  0  0  0  0  0  0  0  0  0
    6.1780  -21.2526   24.1032 C   0  0  0  0  0  0  0  0  0  0  0  0
    6.5419  -19.8720   23.6780 C   0  0  0  0  0  0  0  0  0  0  0  0
    5.6522  -19.2327   22.6766 C   0  0  0  0  0  0  0  0  0  0  0  0
    6.2046  -19.0905   21.2942 C   0  0  2  0  0  0  0  0  0  0  0  0
    6.6113  -20.3328   20.7200 N   0  0  0  0  0  0  0  0  0  0  0  0
    7.3809  -18.1466   21.3965 C   0  0  0  0  0  0  0  0  0  0  0  0
    8.5135  -18.6888   21.4518 O   0  0  0  0  0  0  0  0  0  0  0  0
    5.0927  -21.0817   28.0107 N   0  0  0  0  0  0  0  0  0  0  0  0
    7.1426  -16.7503   21.4222 C   0  0  2  0  0  0  0  0  0  0  0  0
    8.3093  -15.8481   21.4619 C   0  0  0  0  0  0  0  0  0  0  0  0
    8.0114  -14.7321   20.5607 C   0  0  0  0  0  0  0  0  0  0  0  0
    8.2425  -14.8488   19.1156 C   0  0  0  0  0  0  0  0  0  0  0  0
    7.8447  -13.6679   18.2877 C   0  0  0  0  0  0  0  0  0  0  0  0
    7.9895  -13.9713   16.7858 N   0  0  0  0  0  0  0  0  0  0  0  0
    7.4493  -12.8762   16.0014 C   0  0  0  0  0  0  0  0  0  0  0  0
    8.5799  -15.5750   22.8675 O   0  0  0  0  0  0  0  0  0  0  0  0
    7.6170  -15.1815   23.6136 N   0  0  0  0  0  0  0  0  0  0  0  0
    9.8295  -15.6991   23.5334 C   0  0  2  0  0  0  0  0  0  0  0  0
   10.0070  -15.3502   24.9293 C   0  0  0  0  0  0  0  0  0  0  0  0
    9.0040  -16.1023   25.8132 C   0  0  0  0  0  0  0  0  0  0  0  0
    7.7727  -15.2852   25.8894 C   0  0  0  0  0  0  0  0  0  0  0  0
    6.4924  -15.7103   25.6154 N   0  0  0  0  0  0  0  0  0  0  0  0
    5.6523  -14.6725   25.8001 C   0  0  0  0  0  0  0  0  0  0  0  0
    6.3519  -13.6004   26.1821 C   0  0  0  0  0  0  0  0  0  0  0  0
    5.9543  -12.3123   26.4893 C   0  0  0  0  0  0  0  0  0  0  0  0
    6.9313  -11.4129   26.8567 C   0  0  0  0  0  0  0  0  0  0  0  0
    8.2757  -11.7438   26.9291 C   0  0  0  0  0  0  0  0  0  0  0  0
    8.6435  -13.0234   26.6207 C   0  0  0  0  0  0  0  0  0  0  0  0
    7.6945  -13.9425   26.2514 C   0  0  0  0  0  0  0  0  0  0  0  0
   11.3899  -15.5135   25.3789 O   0  0  0  0  0  0  0  0  0  0  0  0
   12.4466  -15.8789   24.5928 O   0  0  0  0  0  0  0  0  0  0  0  0
  2  3  2  0
  2  1  1  0
  4  2  1  0
  5  4  1  0
  6  5  1  0
  7  6  1  0
  8  7  1  0
  8  9  1  1
 10 12  1  0
 10  8  1  0
 11 10  2  0
 13 12  1  0
 13 19  1  0
 14 15  1  0
 13 14  1  6
 15 16  1  0
 16 17  1  0
 17 18  1  0
 19 21  1  0
 20 19  2  0
 21 22  1  0
 22 23  1  6
 22 33  1  0
 23 24  1  0
 24 25  2  0
 25 26  1  0
 27 28  2  0
 27 26  1  0
 29 28  1  0
 30 29  2  0
 31 30  1  0
 31 32  2  0
 32 24  1  0
 32 27  1  0
 33 34  1  0
 35 33  2  0
M  END
$$$$
