RKW.pdb
     RDKit          3D

 35 36  0  0  1  0  0  0  0  0999 V2000
    8.5758  -16.8528   17.1227 N   0  0  0  0  0  0  0  0  0  0  0  0
    7.9048  -17.9508   16.4965 C   0  0  0  0  0  0  0  0  0  0  0  0
    6.7566  -17.7144   15.9557 N   0  0  0  0  0  0  0  0  0  0  0  0
    8.4957  -19.2494   16.4800 N   0  0  0  0  0  0  0  0  0  0  0  0
    9.3002  -19.5877   17.6571 C   0  0  0  0  0  0  0  0  0  0  0  0
    8.5551  -20.6134   18.4393 C   0  0  0  0  0  0  0  0  0  0  0  0
    9.1886  -21.0713   19.7010 C   0  0  0  0  0  0  0  0  0  0  0  0
    8.6439  -20.4883   20.9659 C   0  0  2  0  0  0  0  0  0  0  0  0
    7.2171  -20.4476   20.9981 N   0  0  0  0  0  0  0  0  0  0  0  0
    9.2140  -19.0926   21.0760 C   0  0  0  0  0  0  0  0  0  0  0  0
   10.4474  -18.9873   20.8585 O   0  0  0  0  0  0  0  0  0  0  0  0
    6.1749  -18.4530   15.5443 N   0  0  0  0  0  0  0  0  0  0  0  0
    8.3492  -18.0203   21.4069 C   0  0  1  0  0  0  0  0  0  0  0  0
    8.9174  -16.6594   21.4513 C   0  0  0  0  0  0  0  0  0  0  0  0
    8.1007  -15.8313   20.5605 C   0  0  0  0  0  0  0  0  0  0  0  0
    8.5106  -14.4641   20.2171 C   0  0  0  0  0  0  0  0  0  0  0  0
    7.6604  -13.7548   19.2111 C   0  0  0  0  0  0  0  0  0  0  0  0
    8.3178  -12.4379   18.7614 N   0  0  0  0  0  0  0  0  0  0  0  0
    7.5532  -11.8420   17.6812 C   0  0  0  0  0  0  0  0  0  0  0  0
    9.0267  -16.2969   22.8585 O   0  0  0  0  0  0  0  0  0  0  0  0
    8.0071  -15.7902   23.4436 N   0  0  0  0  0  0  0  0  0  0  0  0
   10.1705  -16.4452   23.6892 C   0  0  2  0  0  0  0  0  0  0  0  0
   10.2365  -15.8976   25.0299 C   0  0  0  0  0  0  0  0  0  0  0  0
    9.0730  -16.4100   25.8882 C   0  0  0  0  0  0  0  0  0  0  0  0
    7.9348  -15.4834   25.6997 C   0  0  0  0  0  0  0  0  0  0  0  0
    6.7337  -15.7779   25.0951 N   0  0  0  0  0  0  0  0  0  0  0  0
    5.9638  -14.6719   25.1200 C   0  0  0  0  0  0  0  0  0  0  0  0
    6.6318  -13.6821   25.7193 C   0  0  0  0  0  0  0  0  0  0  0  0
    6.2787  -12.3721   25.9856 C   0  0  0  0  0  0  0  0  0  0  0  0
    7.2034  -11.5799   26.6303 C   0  0  0  0  0  0  0  0  0  0  0  0
    8.4539  -12.0378   27.0161 C   0  0  0  0  0  0  0  0  0  0  0  0
    8.7794  -13.3365   26.7417 C   0  0  0  0  0  0  0  0  0  0  0  0
    7.8804  -14.1508   26.1010 C   0  0  0  0  0  0  0  0  0  0  0  0
   11.5398  -16.1089   25.6607 O   0  0  0  0  0  0  0  0  0  0  0  0
   12.1528  -15.2525   26.5320 O   0  0  0  0  0  0  0  0  0  0  0  0
  2  3  2  0
  2  1  1  0
  4  2  1  0
  5  4  1  0
  6  5  1  0
  7  6  1  0
  8  7  1  0
  8  9  1  6
 10 12  1  0
 10  8  1  0
 11 10  2  0
 13 12  1  0
 13 19  1  0
 14 15  1  0
 13 14  1  6
 15 16  1  0
 16 17  1  0
 17 18  1  0
 19 21  1  0
 20 19  2  0
 21 22  1  0
 22 23  1  6
 22 33  1  0
 23 24  1  0
 24 25  2  0
 25 26  1  0
 27 28  2  0
 27 26  1  0
 29 28  1  0
 30 29  2  0
 31 30  1  0
 31 32  2  0
 32 24  1  0
 32 27  1  0
 33 34  1  0
 35 33  2  0
M  END
$$$$
