RKW.pdb
     RDKit          3D

 35 36  0  0  1  0  0  0  0  0999 V2000
   12.2708  -15.5649   19.6696 N   0  0  0  0  0  0  0  0  0  0  0  0
   12.8943  -14.3294   20.0340 C   0  0  0  0  0  0  0  0  0  0  0  0
   14.1380  -14.1774   19.7224 N   0  0  0  0  0  0  0  0  0  0  0  0
   12.1559  -13.3161   20.7150 N   0  0  0  0  0  0  0  0  0  0  0  0
   10.8577  -12.9812   20.1237 C   0  0  0  0  0  0  0  0  0  0  0  0
   10.1816  -14.2566   19.7554 C   0  0  0  0  0  0  0  0  0  0  0  0
    8.7754  -14.1496   19.2927 C   0  0  0  0  0  0  0  0  0  0  0  0
    8.0855  -15.4354   18.9659 C   0  0  2  0  0  0  0  0  0  0  0  0
    6.8291  -15.2500   18.3134 N   0  0  0  0  0  0  0  0  0  0  0  0
    7.8967  -16.1667   20.2754 C   0  0  0  0  0  0  0  0  0  0  0  0
    6.8067  -15.9583   20.8656 O   0  0  0  0  0  0  0  0  0  0  0  0
   14.6479  -13.3022   19.8870 N   0  0  0  0  0  0  0  0  0  0  0  0
    8.9284  -17.0174   20.7434 C   0  0  2  0  0  0  0  0  0  0  0  0
    8.6822  -17.7945   21.9732 C   0  0  0  0  0  0  0  0  0  0  0  0
    9.0217  -19.1867   21.6683 C   0  0  0  0  0  0  0  0  0  0  0  0
    8.9547  -20.2229   22.7062 C   0  0  0  0  0  0  0  0  0  0  0  0
    9.3096  -21.6107   22.2749 C   0  0  0  0  0  0  0  0  0  0  0  0
    9.2267  -22.5949   23.4552 N   0  0  0  0  0  0  0  0  0  0  0  0
    9.6713  -23.9122   23.0385 C   0  0  0  0  0  0  0  0  0  0  0  0
    9.3866  -17.1096   23.0494 O   0  0  0  0  0  0  0  0  0  0  0  0
   10.5215  -16.5736   22.7978 N   0  0  0  0  0  0  0  0  0  0  0  0
    8.9478  -16.9589   24.3930 C   0  0  1  0  0  0  0  0  0  0  0  0
    9.7524  -16.3065   25.4073 C   0  0  0  0  0  0  0  0  0  0  0  0
    8.8919  -15.8995   26.6101 C   0  0  0  0  0  0  0  0  0  0  0  0
    7.8399  -14.9821   26.1189 C   0  0  0  0  0  0  0  0  0  0  0  0
    6.5937  -15.3412   25.6575 N   0  0  0  0  0  0  0  0  0  0  0  0
    5.9334  -14.2208   25.3034 C   0  0  0  0  0  0  0  0  0  0  0  0
    6.7148  -13.1596   25.5229 C   0  0  0  0  0  0  0  0  0  0  0  0
    6.4977  -11.8087   25.3236 C   0  0  0  0  0  0  0  0  0  0  0  0
    7.5176  -10.9426   25.6526 C   0  0  0  0  0  0  0  0  0  0  0  0
    8.7332  -11.3661   26.1673 C   0  0  0  0  0  0  0  0  0  0  0  0
    8.9235  -12.7064   26.3552 C   0  0  0  0  0  0  0  0  0  0  0  0
    7.9274  -13.5944   26.0374 C   0  0  0  0  0  0  0  0  0  0  0  0
   10.9229  -17.0961   25.7913 O   0  0  0  0  0  0  0  0  0  0  0  0
   12.0696  -16.6038   26.3490 O   0  0  0  0  0  0  0  0  0  0  0  0
  2  3  2  0
  2  1  1  0
  4  2  1  0
  5  4  1  0
  6  5  1  0
  7  6  1  0
  8  7  1  0
  8  9  1  1
 10 12  1  0
 10  8  1  0
 11 10  2  0
 13 12  1  0
 13 19  1  0
 14 15  1  0
 13 14  1  6
 15 16  1  0
 16 17  1  0
 17 18  1  0
 19 21  1  0
 20 19  2  0
 21 22  1  0
 22 23  1  1
 22 33  1  0
 23 24  1  0
 24 25  2  0
 25 26  1  0
 27 28  2  0
 27 26  1  0
 29 28  1  0
 30 29  2  0
 31 30  1  0
 31 32  2  0
 32 24  1  0
 32 27  1  0
 33 34  1  0
 35 33  2  0
M  END
$$$$
