RKW.pdb
     RDKit          3D

 35 36  0  0  1  0  0  0  0  0999 V2000
   10.3854  -13.4023   18.9985 N   0  0  0  0  0  0  0  0  0  0  0  0
    9.1248  -12.7249   18.9997 C   0  0  0  0  0  0  0  0  0  0  0  0
    9.1207  -11.4792   19.3389 N   0  0  0  0  0  0  0  0  0  0  0  0
    7.9292  -13.4143   18.6380 N   0  0  0  0  0  0  0  0  0  0  0  0
    7.6824  -14.6644   19.3616 C   0  0  0  0  0  0  0  0  0  0  0  0
    7.2984  -14.3150   20.7579 C   0  0  0  0  0  0  0  0  0  0  0  0
    7.0250  -15.4517   21.6723 C   0  0  0  0  0  0  0  0  0  0  0  0
    7.3594  -16.8142   21.1545 C   0  0  2  0  0  0  0  0  0  0  0  0
    6.2126  -17.6461   20.9773 N   0  0  0  0  0  0  0  0  0  0  0  0
    8.3099  -17.4324   22.1541 C   0  0  0  0  0  0  0  0  0  0  0  0
    7.7803  -17.9083   23.1899 O   0  0  0  0  0  0  0  0  0  0  0  0
    8.2627  -10.9173   19.3753 N   0  0  0  0  0  0  0  0  0  0  0  0
    9.6981  -17.4385   21.8710 C   0  0  2  0  0  0  0  0  0  0  0  0
   10.6025  -18.0747   22.8477 C   0  0  0  0  0  0  0  0  0  0  0  0
   11.5912  -18.8327   22.0768 C   0  0  0  0  0  0  0  0  0  0  0  0
   11.2222  -20.0833   21.4021 C   0  0  0  0  0  0  0  0  0  0  0  0
   12.2925  -20.7282   20.5796 C   0  0  0  0  0  0  0  0  0  0  0  0
   11.8105  -22.0689   19.9974 N   0  0  0  0  0  0  0  0  0  0  0  0
   12.8789  -22.6983   19.2432 C   0  0  0  0  0  0  0  0  0  0  0  0
   11.0563  -17.0212   23.7464 O   0  0  0  0  0  0  0  0  0  0  0  0
   11.2783  -15.8560   23.2649 N   0  0  0  0  0  0  0  0  0  0  0  0
   11.2891  -17.1363   25.1439 C   0  0  1  0  0  0  0  0  0  0  0  0
   10.7910  -16.1665   26.0995 C   0  0  0  0  0  0  0  0  0  0  0  0
    9.3777  -15.7039   25.7235 C   0  0  0  0  0  0  0  0  0  0  0  0
    8.9770  -14.6565   26.6890 C   0  0  0  0  0  0  0  0  0  0  0  0
    9.5733  -14.3923   27.9013 N   0  0  0  0  0  0  0  0  0  0  0  0
    8.9183  -13.3673   28.4818 C   0  0  0  0  0  0  0  0  0  0  0  0
    7.9251  -12.9683   27.6821 C   0  0  0  0  0  0  0  0  0  0  0  0
    6.9815  -11.9681   27.8271 C   0  0  0  0  0  0  0  0  0  0  0  0
    6.0694  -11.7982   26.8085 C   0  0  0  0  0  0  0  0  0  0  0  0
    6.0609  -12.5786   25.6626 C   0  0  0  0  0  0  0  0  0  0  0  0
    7.0037  -13.5607   25.5428 C   0  0  0  0  0  0  0  0  0  0  0  0
    7.9259  -13.7550   26.5396 C   0  0  0  0  0  0  0  0  0  0  0  0
   10.8817  -16.6399   27.4811 O   0  0  0  0  0  0  0  0  0  0  0  0
   11.4012  -15.9380   28.5326 O   0  0  0  0  0  0  0  0  0  0  0  0
  2  3  2  0
  2  1  1  0
  4  2  1  0
  5  4  1  0
  6  5  1  0
  7  6  1  0
  8  7  1  0
  8  9  1  1
 10 12  1  0
 10  8  1  0
 11 10  2  0
 13 12  1  0
 13 19  1  0
 14 15  1  0
 13 14  1  6
 15 16  1  0
 16 17  1  0
 17 18  1  0
 19 21  1  0
 20 19  2  0
 21 22  1  0
 22 23  1  1
 22 33  1  0
 23 24  1  0
 24 25  2  0
 25 26  1  0
 27 28  2  0
 27 26  1  0
 29 28  1  0
 30 29  2  0
 31 30  1  0
 31 32  2  0
 32 24  1  0
 32 27  1  0
 33 34  1  0
 35 33  2  0
M  END
$$$$
