RKW.pdb
     RDKit          3D

 35 36  0  0  1  0  0  0  0  0999 V2000
    9.6201  -14.1409   18.2995 N   0  0  0  0  0  0  0  0  0  0  0  0
    8.4710  -13.3038   18.1352 C   0  0  0  0  0  0  0  0  0  0  0  0
    8.1950  -12.9024   16.9396 N   0  0  0  0  0  0  0  0  0  0  0  0
    7.6729  -12.9368   19.2595 N   0  0  0  0  0  0  0  0  0  0  0  0
    8.1655  -13.4040   20.5581 C   0  0  0  0  0  0  0  0  0  0  0  0
    7.5235  -14.7176   20.8437 C   0  0  0  0  0  0  0  0  0  0  0  0
    8.0117  -15.8770   20.0561 C   0  0  0  0  0  0  0  0  0  0  0  0
    7.3210  -17.1810   20.2985 C   0  0  2  0  0  0  0  0  0  0  0  0
    5.9106  -17.1190   20.0854 N   0  0  0  0  0  0  0  0  0  0  0  0
    7.6217  -17.5673   21.7287 C   0  0  0  0  0  0  0  0  0  0  0  0
    6.6962  -17.3666   22.5551 O   0  0  0  0  0  0  0  0  0  0  0  0
    7.4444  -12.2319   16.7393 N   0  0  0  0  0  0  0  0  0  0  0  0
    8.8899  -18.1161   22.0411 C   0  0  2  0  0  0  0  0  0  0  0  0
    9.0692  -18.7373   23.3673 C   0  0  0  0  0  0  0  0  0  0  0  0
    9.9087  -19.9215   23.1692 C   0  0  0  0  0  0  0  0  0  0  0  0
   10.2969  -20.7679   24.3041 C   0  0  0  0  0  0  0  0  0  0  0  0
   11.2865  -21.8506   24.0100 C   0  0  0  0  0  0  0  0  0  0  0  0
   11.6371  -22.6405   25.2834 N   0  0  0  0  0  0  0  0  0  0  0  0
   12.6287  -23.6569   24.9829 C   0  0  0  0  0  0  0  0  0  0  0  0
    9.5250  -17.6839   24.2651 O   0  0  0  0  0  0  0  0  0  0  0  0
   10.2909  -16.7693   23.8007 N   0  0  0  0  0  0  0  0  0  0  0  0
    9.2086  -17.5446   25.6438 C   0  0  1  0  0  0  0  0  0  0  0  0
    9.8857  -16.5971   26.5072 C   0  0  0  0  0  0  0  0  0  0  0  0
    8.9171  -16.0106   27.5420 C   0  0  0  0  0  0  0  0  0  0  0  0
    7.8244  -15.3397   26.8035 C   0  0  0  0  0  0  0  0  0  0  0  0
    6.7423  -15.9519   26.2123 N   0  0  0  0  0  0  0  0  0  0  0  0
    5.9765  -15.0009   25.6416 C   0  0  0  0  0  0  0  0  0  0  0  0
    6.5321  -13.8035   25.8480 C   0  0  0  0  0  0  0  0  0  0  0  0
    6.1360  -12.5349   25.4666 C   0  0  0  0  0  0  0  0  0  0  0  0
    6.9376  -11.4773   25.8373 C   0  0  0  0  0  0  0  0  0  0  0  0
    8.1068  -11.6331   26.5658 C   0  0  0  0  0  0  0  0  0  0  0  0
    8.4768  -12.8971   26.9310 C   0  0  0  0  0  0  0  0  0  0  0  0
    7.7001  -13.9710   26.5773 C   0  0  0  0  0  0  0  0  0  0  0  0
   11.0939  -17.1543   27.1163 O   0  0  0  0  0  0  0  0  0  0  0  0
   12.0350  -16.4484   27.8122 O   0  0  0  0  0  0  0  0  0  0  0  0
  2  3  2  0
  2  1  1  0
  4  2  1  0
  5  4  1  0
  6  5  1  0
  7  6  1  0
  8  7  1  0
  8  9  1  1
 10 12  1  0
 10  8  1  0
 11 10  2  0
 13 12  1  0
 13 19  1  0
 14 15  1  0
 13 14  1  6
 15 16  1  0
 16 17  1  0
 17 18  1  0
 19 21  1  0
 20 19  2  0
 21 22  1  0
 22 23  1  1
 22 33  1  0
 23 24  1  0
 24 25  2  0
 25 26  1  0
 27 28  2  0
 27 26  1  0
 29 28  1  0
 30 29  2  0
 31 30  1  0
 31 32  2  0
 32 24  1  0
 32 27  1  0
 33 34  1  0
 35 33  2  0
M  END
$$$$
