RKW.pdb
     RDKit          3D

 35 36  0  0  1  0  0  0  0  0999 V2000
    8.4899  -11.9365   18.2834 N   0  0  0  0  0  0  0  0  0  0  0  0
    8.3951  -13.2848   17.8131 C   0  0  0  0  0  0  0  0  0  0  0  0
    7.5452  -13.5269   16.8720 N   0  0  0  0  0  0  0  0  0  0  0  0
    9.2149  -14.3091   18.3738 N   0  0  0  0  0  0  0  0  0  0  0  0
    9.2026  -14.3923   19.8367 C   0  0  0  0  0  0  0  0  0  0  0  0
    7.7937  -14.2255   20.2911 C   0  0  0  0  0  0  0  0  0  0  0  0
    7.0147  -15.4715   20.5000 C   0  0  0  0  0  0  0  0  0  0  0  0
    7.7467  -16.7562   20.2761 C   0  0  2  0  0  0  0  0  0  0  0  0
    6.9757  -17.7272   19.5681 N   0  0  0  0  0  0  0  0  0  0  0  0
    8.1260  -17.2786   21.6429 C   0  0  0  0  0  0  0  0  0  0  0  0
    7.1684  -17.6137   22.3850 O   0  0  0  0  0  0  0  0  0  0  0  0
    7.4887  -14.4342   16.3958 N   0  0  0  0  0  0  0  0  0  0  0  0
    9.4964  -17.3571   21.9937 C   0  0  1  0  0  0  0  0  0  0  0  0
    9.8558  -18.0782   23.2297 C   0  0  0  0  0  0  0  0  0  0  0  0
   10.9823  -18.9533   22.8958 C   0  0  0  0  0  0  0  0  0  0  0  0
   11.5757  -19.8363   23.9076 C   0  0  0  0  0  0  0  0  0  0  0  0
   12.7862  -20.6054   23.4819 C   0  0  0  0  0  0  0  0  0  0  0  0
   13.3170  -21.4815   24.6306 N   0  0  0  0  0  0  0  0  0  0  0  0
   14.4585  -22.2565   24.1802 C   0  0  0  0  0  0  0  0  0  0  0  0
   10.0211  -17.0707   24.2694 O   0  0  0  0  0  0  0  0  0  0  0  0
   10.8443  -16.1109   24.0699 N   0  0  0  0  0  0  0  0  0  0  0  0
    9.3526  -17.0236   25.5229 C   0  0  1  0  0  0  0  0  0  0  0  0
    9.8535  -16.2546   26.6452 C   0  0  0  0  0  0  0  0  0  0  0  0
    8.7133  -15.8663   27.5949 C   0  0  0  0  0  0  0  0  0  0  0  0
    7.6638  -15.2045   26.7885 C   0  0  0  0  0  0  0  0  0  0  0  0
    6.5672  -15.8114   26.2193 N   0  0  0  0  0  0  0  0  0  0  0  0
    5.8533  -14.8722   25.5674 C   0  0  0  0  0  0  0  0  0  0  0  0
    6.4563  -13.6874   25.7008 C   0  0  0  0  0  0  0  0  0  0  0  0
    6.1222  -12.4336   25.2231 C   0  0  0  0  0  0  0  0  0  0  0  0
    6.9619  -11.3868   25.5353 C   0  0  0  0  0  0  0  0  0  0  0  0
    8.1101  -11.5391   26.2972 C   0  0  0  0  0  0  0  0  0  0  0  0
    8.4187  -12.7883   26.7578 C   0  0  0  0  0  0  0  0  0  0  0  0
    7.6028  -13.8513   26.4643 C   0  0  0  0  0  0  0  0  0  0  0  0
   10.9606  -16.9192   27.3335 O   0  0  0  0  0  0  0  0  0  0  0  0
   11.7483  -16.3615   28.3014 O   0  0  0  0  0  0  0  0  0  0  0  0
  2  3  2  0
  2  1  1  0
  4  2  1  0
  5  4  1  0
  6  5  1  0
  7  6  1  0
  8  7  1  0
  8  9  1  1
 10 12  1  0
 10  8  1  0
 11 10  2  0
 13 12  1  0
 13 19  1  0
 14 15  1  0
 13 14  1  6
 15 16  1  0
 16 17  1  0
 17 18  1  0
 19 21  1  0
 20 19  2  0
 21 22  1  0
 22 23  1  1
 22 33  1  0
 23 24  1  0
 24 25  2  0
 25 26  1  0
 27 28  2  0
 27 26  1  0
 29 28  1  0
 30 29  2  0
 31 30  1  0
 31 32  2  0
 32 24  1  0
 32 27  1  0
 33 34  1  0
 35 33  2  0
M  END
$$$$
