RKW.pdb
     RDKit          3D

 35 36  0  0  1  0  0  0  0  0999 V2000
    8.2636  -21.4621   17.1832 N   0  0  0  0  0  0  0  0  0  0  0  0
    7.6861  -20.2361   16.7234 C   0  0  0  0  0  0  0  0  0  0  0  0
    6.5537  -20.3074   16.1076 N   0  0  0  0  0  0  0  0  0  0  0  0
    8.3496  -18.9925   16.9451 N   0  0  0  0  0  0  0  0  0  0  0  0
    9.6463  -19.0850   17.6212 C   0  0  0  0  0  0  0  0  0  0  0  0
    9.4818  -19.9761   18.8036 C   0  0  0  0  0  0  0  0  0  0  0  0
   10.6781  -20.1630   19.6619 C   0  0  0  0  0  0  0  0  0  0  0  0
   10.4912  -19.9092   21.1238 C   0  0  2  0  0  0  0  0  0  0  0  0
    9.2119  -20.3194   21.6073 N   0  0  0  0  0  0  0  0  0  0  0  0
   10.6814  -18.4238   21.3297 C   0  0  0  0  0  0  0  0  0  0  0  0
   11.7866  -17.9571   20.9549 O   0  0  0  0  0  0  0  0  0  0  0  0
    6.0371  -19.4762   15.7989 N   0  0  0  0  0  0  0  0  0  0  0  0
    9.6335  -17.6704   21.9143 C   0  0  1  0  0  0  0  0  0  0  0  0
    9.7920  -16.2056   21.9916 C   0  0  0  0  0  0  0  0  0  0  0  0
    8.7970  -15.6247   21.0867 C   0  0  0  0  0  0  0  0  0  0  0  0
    8.8262  -14.1954   20.7528 C   0  0  0  0  0  0  0  0  0  0  0  0
    8.0490  -13.7860   19.5419 C   0  0  0  0  0  0  0  0  0  0  0  0
    8.2162  -12.2824   19.2594 N   0  0  0  0  0  0  0  0  0  0  0  0
    7.3938  -11.8927   18.1288 C   0  0  0  0  0  0  0  0  0  0  0  0
    9.7587  -15.8548   23.4055 O   0  0  0  0  0  0  0  0  0  0  0  0
    9.9959  -14.6432   23.7440 N   0  0  0  0  0  0  0  0  0  0  0  0
    9.4830  -16.7279   24.4928 C   0  0  1  0  0  0  0  0  0  0  0  0
    9.9331  -16.4566   25.8439 C   0  0  0  0  0  0  0  0  0  0  0  0
    8.7689  -16.5528   26.8382 C   0  0  0  0  0  0  0  0  0  0  0  0
    7.6259  -15.8091   26.2636 C   0  0  0  0  0  0  0  0  0  0  0  0
    6.5566  -16.3508   25.5868 N   0  0  0  0  0  0  0  0  0  0  0  0
    5.7320  -15.3481   25.2243 C   0  0  0  0  0  0  0  0  0  0  0  0
    6.2380  -14.1858   25.6462 C   0  0  0  0  0  0  0  0  0  0  0  0
    5.7736  -12.8893   25.5234 C   0  0  0  0  0  0  0  0  0  0  0  0
    6.5362  -11.8829   26.0748 C   0  0  0  0  0  0  0  0  0  0  0  0
    7.7317  -12.1159   26.7371 C   0  0  0  0  0  0  0  0  0  0  0  0
    8.1694  -13.4061   26.8454 C   0  0  0  0  0  0  0  0  0  0  0  0
    7.4328  -14.4304   26.3070 C   0  0  0  0  0  0  0  0  0  0  0  0
   11.0775  -17.2815   26.2323 O   0  0  0  0  0  0  0  0  0  0  0  0
   11.8072  -17.1442   27.3799 O   0  0  0  0  0  0  0  0  0  0  0  0
  2  3  2  0
  2  1  1  0
  4  2  1  0
  5  4  1  0
  6  5  1  0
  7  6  1  0
  8  7  1  0
  8  9  1  6
 10 12  1  0
 10  8  1  0
 11 10  2  0
 13 12  1  0
 13 19  1  0
 14 15  1  0
 13 14  1  6
 15 16  1  0
 16 17  1  0
 17 18  1  0
 19 21  1  0
 20 19  2  0
 21 22  1  0
 22 23  1  1
 22 33  1  0
 23 24  1  0
 24 25  2  0
 25 26  1  0
 27 28  2  0
 27 26  1  0
 29 28  1  0
 30 29  2  0
 31 30  1  0
 31 32  2  0
 32 24  1  0
 32 27  1  0
 33 34  1  0
 35 33  2  0
M  END
$$$$
