RKW.pdb
     RDKit          3D

 35 36  0  0  1  0  0  0  0  0999 V2000
    9.0402  -14.9758   16.5066 N   0  0  0  0  0  0  0  0  0  0  0  0
    8.7068  -13.6280   16.1595 C   0  0  0  0  0  0  0  0  0  0  0  0
    8.6199  -13.3427   14.9034 N   0  0  0  0  0  0  0  0  0  0  0  0
    8.4828  -12.6507   17.1745 N   0  0  0  0  0  0  0  0  0  0  0  0
    8.8131  -13.0747   18.5377 C   0  0  0  0  0  0  0  0  0  0  0  0
    7.5819  -13.6510   19.1470 C   0  0  0  0  0  0  0  0  0  0  0  0
    7.7801  -14.5618   20.3020 C   0  0  0  0  0  0  0  0  0  0  0  0
    7.6567  -16.0254   20.0208 C   0  0  2  0  0  0  0  0  0  0  0  0
    6.3441  -16.4113   19.6124 N   0  0  0  0  0  0  0  0  0  0  0  0
    8.0448  -16.7418   21.2940 C   0  0  0  0  0  0  0  0  0  0  0  0
    7.1241  -16.8988   22.1353 O   0  0  0  0  0  0  0  0  0  0  0  0
    8.5192  -12.3812   14.5589 N   0  0  0  0  0  0  0  0  0  0  0  0
    9.3821  -17.1804   21.4567 C   0  0  2  0  0  0  0  0  0  0  0  0
    9.7308  -17.8976   22.6980 C   0  0  0  0  0  0  0  0  0  0  0  0
   10.8049  -18.8340   22.3573 C   0  0  0  0  0  0  0  0  0  0  0  0
   11.3877  -19.7146   23.3772 C   0  0  0  0  0  0  0  0  0  0  0  0
   12.5447  -20.5552   22.9379 C   0  0  0  0  0  0  0  0  0  0  0  0
   13.0701  -21.4218   24.0962 N   0  0  0  0  0  0  0  0  0  0  0  0
   14.2266  -22.1846   23.6638 C   0  0  0  0  0  0  0  0  0  0  0  0
    9.9682  -16.8822   23.7158 O   0  0  0  0  0  0  0  0  0  0  0  0
   10.8006  -15.9427   23.4645 N   0  0  0  0  0  0  0  0  0  0  0  0
    9.3631  -16.8065   24.9998 C   0  0  1  0  0  0  0  0  0  0  0  0
   10.0880  -16.3752   26.1789 C   0  0  0  0  0  0  0  0  0  0  0  0
    9.8581  -14.8825   26.4471 C   0  0  0  0  0  0  0  0  0  0  0  0
    8.4653  -14.5667   26.0597 C   0  0  0  0  0  0  0  0  0  0  0  0
    7.4627  -15.4750   25.8050 N   0  0  0  0  0  0  0  0  0  0  0  0
    6.3446  -14.7938   25.4845 C   0  0  0  0  0  0  0  0  0  0  0  0
    6.5990  -13.4829   25.5259 C   0  0  0  0  0  0  0  0  0  0  0  0
    5.7914  -12.3877   25.2807 C   0  0  0  0  0  0  0  0  0  0  0  0
    6.3557  -11.1371   25.4074 C   0  0  0  0  0  0  0  0  0  0  0  0
    7.6802  -10.9374   25.7652 C   0  0  0  0  0  0  0  0  0  0  0  0
    8.4580  -12.0359   26.0024 C   0  0  0  0  0  0  0  0  0  0  0  0
    7.9257  -13.2947   25.8847 C   0  0  0  0  0  0  0  0  0  0  0  0
    9.8079  -17.2091   27.3482 O   0  0  0  0  0  0  0  0  0  0  0  0
    8.9045  -18.2335   27.3998 O   0  0  0  0  0  0  0  0  0  0  0  0
  2  3  2  0
  2  1  1  0
  4  2  1  0
  5  4  1  0
  6  5  1  0
  7  6  1  0
  8  7  1  0
  8  9  1  1
 10 12  1  0
 10  8  1  0
 11 10  2  0
 13 12  1  0
 13 19  1  0
 14 15  1  0
 13 14  1  6
 15 16  1  0
 16 17  1  0
 17 18  1  0
 19 21  1  0
 20 19  2  0
 21 22  1  0
 22 23  1  1
 22 33  1  0
 23 24  1  0
 24 25  2  0
 25 26  1  0
 27 28  2  0
 27 26  1  0
 29 28  1  0
 30 29  2  0
 31 30  1  0
 31 32  2  0
 32 24  1  0
 32 27  1  0
 33 34  1  0
 35 33  2  0
M  END
$$$$
