RKW.pdb
     RDKit          3D

 35 36  0  0  1  0  0  0  0  0999 V2000
    8.5884  -13.5592   17.5998 N   0  0  0  0  0  0  0  0  0  0  0  0
    9.2612  -12.9346   18.6977 C   0  0  0  0  0  0  0  0  0  0  0  0
   10.5354  -12.7573   18.5898 N   0  0  0  0  0  0  0  0  0  0  0  0
    8.5368  -12.5302   19.8585 N   0  0  0  0  0  0  0  0  0  0  0  0
    7.1509  -13.0008   19.9288 C   0  0  0  0  0  0  0  0  0  0  0  0
    7.1689  -14.4876   19.8382 C   0  0  0  0  0  0  0  0  0  0  0  0
    7.6661  -15.2165   21.0317 C   0  0  0  0  0  0  0  0  0  0  0  0
    7.7789  -16.7020   20.9018 C   0  0  2  0  0  0  0  0  0  0  0  0
    6.5487  -17.3304   20.5407 N   0  0  0  0  0  0  0  0  0  0  0  0
    8.2603  -17.2150   22.2398 C   0  0  0  0  0  0  0  0  0  0  0  0
    7.3700  -17.6621   23.0062 O   0  0  0  0  0  0  0  0  0  0  0  0
   11.0953  -12.3005   19.3185 N   0  0  0  0  0  0  0  0  0  0  0  0
    9.6440  -17.1631   22.5393 C   0  0  2  0  0  0  0  0  0  0  0  0
   10.1213  -17.8769   23.7391 C   0  0  0  0  0  0  0  0  0  0  0  0
   11.3628  -18.5564   23.3605 C   0  0  0  0  0  0  0  0  0  0  0  0
   11.3722  -19.5724   22.3007 C   0  0  0  0  0  0  0  0  0  0  0  0
   12.6955  -20.2053   22.0071 C   0  0  0  0  0  0  0  0  0  0  0  0
   12.5664  -21.2714   20.9046 N   0  0  0  0  0  0  0  0  0  0  0  0
   13.8647  -21.8541   20.6196 C   0  0  0  0  0  0  0  0  0  0  0  0
   10.1448  -16.9040   24.8237 O   0  0  0  0  0  0  0  0  0  0  0  0
   10.5776  -15.7238   24.5814 N   0  0  0  0  0  0  0  0  0  0  0  0
    9.7284  -17.1157   26.1661 C   0  0  1  0  0  0  0  0  0  0  0  0
   10.0156  -16.1729   27.2293 C   0  0  0  0  0  0  0  0  0  0  0  0
    8.7494  -15.8530   28.0338 C   0  0  0  0  0  0  0  0  0  0  0  0
    7.7902  -15.1967   27.1180 C   0  0  0  0  0  0  0  0  0  0  0  0
    6.8243  -15.8219   26.3622 N   0  0  0  0  0  0  0  0  0  0  0  0
    6.1582  -14.8816   25.6631 C   0  0  0  0  0  0  0  0  0  0  0  0
    6.6653  -13.6785   25.9465 C   0  0  0  0  0  0  0  0  0  0  0  0
    6.3308  -12.4162   25.4920 C   0  0  0  0  0  0  0  0  0  0  0  0
    7.0540  -11.3496   25.9794 C   0  0  0  0  0  0  0  0  0  0  0  0
    8.0874  -11.4904   26.8929 C   0  0  0  0  0  0  0  0  0  0  0  0
    8.3990  -12.7484   27.3270 C   0  0  0  0  0  0  0  0  0  0  0  0
    7.6975  -13.8310   26.8606 C   0  0  0  0  0  0  0  0  0  0  0  0
   11.1297  -16.6013   28.0757 O   0  0  0  0  0  0  0  0  0  0  0  0
   11.7115  -15.8590   29.0651 O   0  0  0  0  0  0  0  0  0  0  0  0
  2  3  2  0
  2  1  1  0
  4  2  1  0
  5  4  1  0
  6  5  1  0
  7  6  1  0
  8  7  1  0
  8  9  1  1
 10 12  1  0
 10  8  1  0
 11 10  2  0
 13 12  1  0
 13 19  1  0
 14 15  1  0
 13 14  1  6
 15 16  1  0
 16 17  1  0
 17 18  1  0
 19 21  1  0
 20 19  2  0
 21 22  1  0
 22 23  1  1
 22 33  1  0
 23 24  1  0
 24 25  2  0
 25 26  1  0
 27 28  2  0
 27 26  1  0
 29 28  1  0
 30 29  2  0
 31 30  1  0
 31 32  2  0
 32 24  1  0
 32 27  1  0
 33 34  1  0
 35 33  2  0
M  END
$$$$
