EDP.pdb
     RDKit          3D

 25 25  0  0  1  0  0  0  0  0999 V2000
    6.7542  -15.4194   19.8936 N   0  0  0  0  0  0  0  0  0  0  0  0
    7.6578  -14.6211   20.6793 C   0  0  1  0  0  0  0  0  0  0  0  0
    7.4182  -13.1773   20.4086 C   0  0  0  0  0  0  0  0  0  0  0  0
    7.4073  -12.8382   18.9593 C   0  0  0  0  0  0  0  0  0  0  0  0
    8.5642  -13.3250   18.1833 C   0  0  0  0  0  0  0  0  0  0  0  0
    9.7383  -13.0971   18.5657 O   0  0  0  0  0  0  0  0  0  0  0  0
    7.4273  -14.8739   22.1437 C   0  0  0  0  0  0  0  0  0  0  0  0
    6.4171  -14.3943   22.7365 O   0  0  0  0  0  0  0  0  0  0  0  0
    8.4000  -14.0473   17.0107 O   0  0  0  0  0  0  0  0  0  0  0  0
    8.3207  -15.6523   22.9197 N   0  0  0  0  0  0  0  0  0  0  0  0
    8.0383  -15.9076   24.3533 C   0  0  1  0  0  0  0  0  0  0  0  0
    7.6032  -17.3560   24.3887 C   0  0  0  0  0  0  0  0  0  0  0  0
    7.5022  -17.9311   25.7314 C   0  0  0  0  0  0  0  0  0  0  0  0
    6.3818  -17.7616   26.3229 O   0  0  0  0  0  0  0  0  0  0  0  0
    9.2196  -15.6098   25.1643 C   0  0  0  0  0  0  0  0  0  0  0  0
   10.3688  -15.9541   24.6951 O   0  0  0  0  0  0  0  0  0  0  0  0
    8.4583  -18.6234   26.4244 O   0  0  0  0  0  0  0  0  0  0  0  0
    9.2242  -14.9735   26.4226 N   0  0  0  0  0  0  0  0  0  0  0  0
    8.0044  -14.5321   27.1269 C   0  0  0  0  0  0  0  0  0  0  0  0
    8.3799  -13.2981   27.8838 C   0  0  0  0  0  0  0  0  0  0  0  0
    9.8730  -13.2269   27.8590 C   0  0  0  0  0  0  0  0  0  0  0  0
   10.2846  -14.5878   27.3166 C   0  0  1  0  0  0  0  0  0  0  0  0
   10.3626  -15.5687   28.4336 C   0  0  0  0  0  0  0  0  0  0  0  0
   11.2857  -15.4471   29.2689 O   0  0  0  0  0  0  0  0  0  0  0  0
    9.4226  -16.5960   28.5375 O   0  0  0  0  0  0  0  0  0  0  0  0
  2  1  1  6
  2  3  1  0
  3  4  1  0
  5  4  1  0
  5  6  2  0
  7  2  1  0
  7  8  2  0
  9  5  1  0
 10  7  1  0
 11 10  1  0
 12 13  1  0
 11 12  1  6
 13 17  1  0
 14 13  2  0
 15 11  1  0
 16 15  2  0
 18 15  1  0
 18 22  1  0
 19 20  1  0
 19 18  1  0
 20 21  1  0
 22 21  1  0
 22 23  1  1
 24 23  2  0
 25 23  1  0
M  END
$$$$
