EDP.pdb
     RDKit          3D

 25 25  0  0  1  0  0  0  0  0999 V2000
    9.8836  -14.0739   19.6248 N   0  0  0  0  0  0  0  0  0  0  0  0
    8.7100  -13.2637   19.8188 C   0  0  1  0  0  0  0  0  0  0  0  0
    7.8350  -13.3509   18.6179 C   0  0  0  0  0  0  0  0  0  0  0  0
    7.5105  -14.7477   18.2191 C   0  0  0  0  0  0  0  0  0  0  0  0
    8.3940  -15.3387   17.1954 C   0  0  0  0  0  0  0  0  0  0  0  0
    9.3948  -16.0218   17.5249 O   0  0  0  0  0  0  0  0  0  0  0  0
    7.9341  -13.7584   21.0082 C   0  0  0  0  0  0  0  0  0  0  0  0
    6.8062  -13.2645   21.3016 O   0  0  0  0  0  0  0  0  0  0  0  0
    8.1545  -15.1633   15.8406 O   0  0  0  0  0  0  0  0  0  0  0  0
    8.4242  -14.7893   21.8468 N   0  0  0  0  0  0  0  0  0  0  0  0
    7.6966  -15.1534   23.0871 C   0  0  1  0  0  0  0  0  0  0  0  0
    7.5658  -16.6583   23.0067 C   0  0  0  0  0  0  0  0  0  0  0  0
    6.9265  -17.2790   24.1685 C   0  0  0  0  0  0  0  0  0  0  0  0
    6.3012  -16.4816   24.9477 O   0  0  0  0  0  0  0  0  0  0  0  0
    8.4229  -14.6701   24.2622 C   0  0  0  0  0  0  0  0  0  0  0  0
    9.7084  -14.7515   24.2453 O   0  0  0  0  0  0  0  0  0  0  0  0
    6.9192  -18.6025   24.5178 O   0  0  0  0  0  0  0  0  0  0  0  0
    7.8477  -14.1155   25.4240 N   0  0  0  0  0  0  0  0  0  0  0  0
    6.3946  -14.0573   25.6764 C   0  0  0  0  0  0  0  0  0  0  0  0
    6.1537  -12.8039   26.4560 C   0  0  0  0  0  0  0  0  0  0  0  0
    7.4955  -12.3263   26.9104 C   0  0  0  0  0  0  0  0  0  0  0  0
    8.4153  -13.4963   26.5931 C   0  0  1  0  0  0  0  0  0  0  0  0
    8.3941  -14.4690   27.7198 C   0  0  0  0  0  0  0  0  0  0  0  0
    7.6879  -15.4952   27.6066 O   0  0  0  0  0  0  0  0  0  0  0  0
    9.1482  -14.2323   28.8709 O   0  0  0  0  0  0  0  0  0  0  0  0
  2  1  1  6
  2  3  1  0
  3  4  1  0
  5  4  1  0
  5  6  2  0
  7  2  1  0
  7  8  2  0
  9  5  1  0
 10  7  1  0
 11 10  1  0
 12 13  1  0
 11 12  1  1
 13 17  1  0
 14 13  2  0
 15 11  1  0
 16 15  2  0
 18 15  1  0
 18 22  1  0
 19 20  1  0
 19 18  1  0
 20 21  1  0
 22 21  1  0
 22 23  1  1
 24 23  2  0
 25 23  1  0
M  END
$$$$
