EDP.pdb
     RDKit          3D

 25 25  0  0  1  0  0  0  0  0999 V2000
    9.7245  -14.5009   19.6339 N   0  0  0  0  0  0  0  0  0  0  0  0
    8.9299  -13.3719   20.0405 C   0  0  1  0  0  0  0  0  0  0  0  0
    7.9727  -13.0151   18.9579 C   0  0  0  0  0  0  0  0  0  0  0  0
    7.4317  -14.1953   18.2301 C   0  0  0  0  0  0  0  0  0  0  0  0
    8.3388  -14.8001   17.2354 C   0  0  0  0  0  0  0  0  0  0  0  0
    9.4288  -15.3149   17.5868 O   0  0  0  0  0  0  0  0  0  0  0  0
    8.1433  -13.7144   21.2756 C   0  0  0  0  0  0  0  0  0  0  0  0
    7.2933  -12.9063   21.7515 O   0  0  0  0  0  0  0  0  0  0  0  0
    8.0242  -14.8227   15.8849 O   0  0  0  0  0  0  0  0  0  0  0  0
    8.3152  -14.9443   21.9567 N   0  0  0  0  0  0  0  0  0  0  0  0
    7.6119  -15.1937   23.2386 C   0  0  1  0  0  0  0  0  0  0  0  0
    7.3401  -16.6817   23.2239 C   0  0  0  0  0  0  0  0  0  0  0  0
    6.8412  -17.2243   24.4890 C   0  0  0  0  0  0  0  0  0  0  0  0
    5.5760  -17.3934   24.5579 O   0  0  0  0  0  0  0  0  0  0  0  0
    8.4298  -14.7381   24.3635 C   0  0  0  0  0  0  0  0  0  0  0  0
    9.7049  -14.8999   24.2792 O   0  0  0  0  0  0  0  0  0  0  0  0
    7.5632  -17.5691   25.5996 O   0  0  0  0  0  0  0  0  0  0  0  0
    7.9542  -14.1302   25.5435 N   0  0  0  0  0  0  0  0  0  0  0  0
    6.5236  -13.9880   25.8780 C   0  0  0  0  0  0  0  0  0  0  0  0
    6.3961  -12.7082   26.6414 C   0  0  0  0  0  0  0  0  0  0  0  0
    7.7859  -12.2955   27.0065 C   0  0  0  0  0  0  0  0  0  0  0  0
    8.6218  -13.5198   26.6635 C   0  0  1  0  0  0  0  0  0  0  0  0
    8.6152  -14.4676   27.8115 C   0  0  0  0  0  0  0  0  0  0  0  0
    9.3136  -14.1942   28.8126 O   0  0  0  0  0  0  0  0  0  0  0  0
    7.8444  -15.6308   27.7619 O   0  0  0  0  0  0  0  0  0  0  0  0
  2  1  1  6
  2  3  1  0
  3  4  1  0
  5  4  1  0
  5  6  2  0
  7  2  1  0
  7  8  2  0
  9  5  1  0
 10  7  1  0
 11 10  1  0
 12 13  1  0
 11 12  1  1
 13 17  1  0
 14 13  2  0
 15 11  1  0
 16 15  2  0
 18 15  1  0
 18 22  1  0
 19 20  1  0
 19 18  1  0
 20 21  1  0
 22 21  1  0
 22 23  1  1
 24 23  2  0
 25 23  1  0
M  END
$$$$
