EDP.pdb
     RDKit          3D

 25 25  0  0  1  0  0  0  0  0999 V2000
    7.6895  -13.2056   19.5454 N   0  0  0  0  0  0  0  0  0  0  0  0
    7.9752  -14.5251   20.0436 C   0  0  1  0  0  0  0  0  0  0  0  0
    9.4082  -14.8519   19.8082 C   0  0  0  0  0  0  0  0  0  0  0  0
   10.3081  -13.6689   19.8862 C   0  0  0  0  0  0  0  0  0  0  0  0
   11.7466  -13.9515   19.7169 C   0  0  0  0  0  0  0  0  0  0  0  0
   12.1558  -15.1251   19.5383 O   0  0  0  0  0  0  0  0  0  0  0  0
    7.7118  -14.5848   21.5230 C   0  0  0  0  0  0  0  0  0  0  0  0
    7.6055  -13.5265   22.2091 O   0  0  0  0  0  0  0  0  0  0  0  0
   12.6942  -12.9393   19.7487 O   0  0  0  0  0  0  0  0  0  0  0  0
    7.5720  -15.8153   22.2104 N   0  0  0  0  0  0  0  0  0  0  0  0
    7.1283  -15.8349   23.6256 C   0  0  1  0  0  0  0  0  0  0  0  0
    6.8214  -17.2919   23.8932 C   0  0  0  0  0  0  0  0  0  0  0  0
    6.4979  -17.6022   25.2870 C   0  0  0  0  0  0  0  0  0  0  0  0
    6.7625  -18.7946   25.6641 O   0  0  0  0  0  0  0  0  0  0  0  0
    8.1625  -15.2649   24.4900 C   0  0  0  0  0  0  0  0  0  0  0  0
    9.3884  -15.3822   24.1122 O   0  0  0  0  0  0  0  0  0  0  0  0
    5.9488  -16.7734   26.2280 O   0  0  0  0  0  0  0  0  0  0  0  0
    7.9468  -14.5897   25.7089 N   0  0  0  0  0  0  0  0  0  0  0  0
    6.6290  -14.4718   26.3633 C   0  0  0  0  0  0  0  0  0  0  0  0
    6.6203  -13.1452   27.0539 C   0  0  0  0  0  0  0  0  0  0  0  0
    8.0347  -12.6608   27.0530 C   0  0  0  0  0  0  0  0  0  0  0  0
    8.8269  -13.8779   26.5986 C   0  0  1  0  0  0  0  0  0  0  0  0
    9.1363  -14.7400   27.7722 C   0  0  0  0  0  0  0  0  0  0  0  0
    9.9115  -14.2967   28.6480 O   0  0  0  0  0  0  0  0  0  0  0  0
    8.5693  -16.0112   27.8831 O   0  0  0  0  0  0  0  0  0  0  0  0
  2  1  1  1
  2  3  1  0
  3  4  1  0
  5  4  1  0
  5  6  2  0
  7  2  1  0
  7  8  2  0
  9  5  1  0
 10  7  1  0
 11 10  1  0
 12 13  1  0
 11 12  1  1
 13 17  1  0
 14 13  2  0
 15 11  1  0
 16 15  2  0
 18 15  1  0
 18 22  1  0
 19 20  1  0
 19 18  1  0
 20 21  1  0
 22 21  1  0
 22 23  1  1
 24 23  2  0
 25 23  1  0
M  END
$$$$
