EDP.pdb
     RDKit          3D

 25 25  0  0  1  0  0  0  0  0999 V2000
    8.3784  -15.4645   19.0180 N   0  0  0  0  0  0  0  0  0  0  0  0
    8.9272  -16.2576   20.0862 C   0  0  1  0  0  0  0  0  0  0  0  0
   10.4006  -16.0581   20.1546 C   0  0  0  0  0  0  0  0  0  0  0  0
   10.8180  -14.6419   19.9659 C   0  0  0  0  0  0  0  0  0  0  0  0
   12.2743  -14.4028   19.9626 C   0  0  0  0  0  0  0  0  0  0  0  0
   12.7370  -13.2476   19.7944 O   0  0  0  0  0  0  0  0  0  0  0  0
    8.3298  -15.8352   21.4001 C   0  0  0  0  0  0  0  0  0  0  0  0
    7.6601  -14.7655   21.4974 O   0  0  0  0  0  0  0  0  0  0  0  0
   13.1803  -15.4370   20.1437 O   0  0  0  0  0  0  0  0  0  0  0  0
    8.4870  -16.6066   22.5775 N   0  0  0  0  0  0  0  0  0  0  0  0
    7.6965  -16.2876   23.7914 C   0  0  1  0  0  0  0  0  0  0  0  0
    7.3076  -17.6420   24.3417 C   0  0  0  0  0  0  0  0  0  0  0  0
    6.6368  -17.6034   25.6425 C   0  0  0  0  0  0  0  0  0  0  0  0
    6.4788  -18.7342   26.2174 O   0  0  0  0  0  0  0  0  0  0  0  0
    8.4852  -15.4644   24.7091 C   0  0  0  0  0  0  0  0  0  0  0  0
    9.7683  -15.5254   24.6139 O   0  0  0  0  0  0  0  0  0  0  0  0
    6.1612  -16.5082   26.3118 O   0  0  0  0  0  0  0  0  0  0  0  0
    7.9729  -14.5990   25.6974 N   0  0  0  0  0  0  0  0  0  0  0  0
    6.5374  -14.4706   26.0162 C   0  0  0  0  0  0  0  0  0  0  0  0
    6.3220  -13.0459   26.4169 C   0  0  0  0  0  0  0  0  0  0  0  0
    7.6803  -12.4577   26.6270 C   0  0  0  0  0  0  0  0  0  0  0  0
    8.6003  -13.6695   26.6002 C   0  0  1  0  0  0  0  0  0  0  0  0
    8.6672  -14.2769   27.9576 C   0  0  0  0  0  0  0  0  0  0  0  0
    9.2341  -13.6349   28.8693 O   0  0  0  0  0  0  0  0  0  0  0  0
    8.1074  -15.5334   28.1969 O   0  0  0  0  0  0  0  0  0  0  0  0
  2  1  1  6
  2  3  1  0
  3  4  1  0
  5  4  1  0
  5  6  2  0
  7  2  1  0
  7  8  2  0
  9  5  1  0
 10  7  1  0
 11 10  1  0
 12 13  1  0
 11 12  1  1
 13 17  1  0
 14 13  2  0
 15 11  1  0
 16 15  2  0
 18 15  1  0
 18 22  1  0
 19 20  1  0
 19 18  1  0
 20 21  1  0
 22 21  1  0
 22 23  1  1
 24 23  2  0
 25 23  1  0
M  END
$$$$
