EDP.pdb
     RDKit          3D

 25 25  0  0  1  0  0  0  0  0999 V2000
    8.6421  -15.3200   19.8116 N   0  0  0  0  0  0  0  0  0  0  0  0
    8.4867  -13.9667   20.2757 C   0  0  1  0  0  0  0  0  0  0  0  0
    7.5803  -13.2220   19.3596 C   0  0  0  0  0  0  0  0  0  0  0  0
    8.2012  -12.8922   18.0477 C   0  0  0  0  0  0  0  0  0  0  0  0
    8.4550  -14.0412   17.1571 C   0  0  0  0  0  0  0  0  0  0  0  0
    9.5382  -14.6737   17.2145 O   0  0  0  0  0  0  0  0  0  0  0  0
    7.8798  -13.9611   21.6517 C   0  0  0  0  0  0  0  0  0  0  0  0
    7.5635  -12.8751   22.2198 O   0  0  0  0  0  0  0  0  0  0  0  0
    7.5139  -14.4629   16.2298 O   0  0  0  0  0  0  0  0  0  0  0  0
    7.6366  -15.1582   22.3684 N   0  0  0  0  0  0  0  0  0  0  0  0
    7.0011  -15.1117   23.7079 C   0  0  1  0  0  0  0  0  0  0  0  0
    6.4815  -16.5171   23.9160 C   0  0  0  0  0  0  0  0  0  0  0  0
    7.5093  -17.5057   24.2475 C   0  0  0  0  0  0  0  0  0  0  0  0
    7.2274  -18.2942   25.2133 O   0  0  0  0  0  0  0  0  0  0  0  0
    7.9676  -14.6679   24.7132 C   0  0  0  0  0  0  0  0  0  0  0  0
    9.2113  -14.9294   24.5028 O   0  0  0  0  0  0  0  0  0  0  0  0
    8.7283  -17.6846   23.6511 O   0  0  0  0  0  0  0  0  0  0  0  0
    7.6685  -13.9719   25.9025 N   0  0  0  0  0  0  0  0  0  0  0  0
    6.2973  -13.7243   26.3894 C   0  0  0  0  0  0  0  0  0  0  0  0
    6.3317  -12.4016   27.0866 C   0  0  0  0  0  0  0  0  0  0  0  0
    7.7755  -12.0576   27.2659 C   0  0  0  0  0  0  0  0  0  0  0  0
    8.4960  -13.3474   26.9015 C   0  0  1  0  0  0  0  0  0  0  0  0
    8.5716  -14.2328   28.0959 C   0  0  0  0  0  0  0  0  0  0  0  0
    9.4024  -13.9568   28.9893 O   0  0  0  0  0  0  0  0  0  0  0  0
    7.7307  -15.3420   28.2065 O   0  0  0  0  0  0  0  0  0  0  0  0
  2  1  1  6
  2  3  1  0
  3  4  1  0
  5  4  1  0
  5  6  2  0
  7  2  1  0
  7  8  2  0
  9  5  1  0
 10  7  1  0
 11 10  1  0
 12 13  1  0
 11 12  1  1
 13 17  1  0
 14 13  2  0
 15 11  1  0
 16 15  2  0
 18 15  1  0
 18 22  1  0
 19 20  1  0
 19 18  1  0
 20 21  1  0
 22 21  1  0
 22 23  1  1
 24 23  2  0
 25 23  1  0
M  END
$$$$
