EDP.pdb
     RDKit          3D

 25 25  0  0  1  0  0  0  0  0999 V2000
    9.9838  -15.6870   20.2856 N   0  0  0  0  0  0  0  0  0  0  0  0
    8.6385  -15.2096   20.1025 C   0  0  1  0  0  0  0  0  0  0  0  0
    7.9224  -16.0840   19.1339 C   0  0  0  0  0  0  0  0  0  0  0  0
    7.9265  -17.5225   19.5162 C   0  0  0  0  0  0  0  0  0  0  0  0
    7.2460  -18.4329   18.5749 C   0  0  0  0  0  0  0  0  0  0  0  0
    7.1492  -19.6602   18.8220 O   0  0  0  0  0  0  0  0  0  0  0  0
    7.8976  -15.2444   21.4107 C   0  0  0  0  0  0  0  0  0  0  0  0
    6.7363  -14.7519   21.5151 O   0  0  0  0  0  0  0  0  0  0  0  0
    6.6918  -17.9711   17.3904 O   0  0  0  0  0  0  0  0  0  0  0  0
    8.4591  -15.8236   22.5749 N   0  0  0  0  0  0  0  0  0  0  0  0
    7.7427  -15.7412   23.8711 C   0  0  1  0  0  0  0  0  0  0  0  0
    7.6766  -17.1762   24.3451 C   0  0  0  0  0  0  0  0  0  0  0  0
    6.5969  -17.9668   23.7511 C   0  0  0  0  0  0  0  0  0  0  0  0
    6.9577  -19.0445   23.1659 O   0  0  0  0  0  0  0  0  0  0  0  0
    8.4429  -14.8340   24.7814 C   0  0  0  0  0  0  0  0  0  0  0  0
    9.7114  -14.6832   24.6160 O   0  0  0  0  0  0  0  0  0  0  0  0
    5.2561  -17.6911   23.7470 O   0  0  0  0  0  0  0  0  0  0  0  0
    7.8585  -14.0981   25.8326 N   0  0  0  0  0  0  0  0  0  0  0  0
    6.4093  -14.0684   26.1111 C   0  0  0  0  0  0  0  0  0  0  0  0
    6.1122  -12.7032   26.6450 C   0  0  0  0  0  0  0  0  0  0  0  0
    7.4329  -12.0783   26.9615 C   0  0  0  0  0  0  0  0  0  0  0  0
    8.4114  -13.2379   26.8460 C   0  0  1  0  0  0  0  0  0  0  0  0
    8.4659  -13.9768   28.1371 C   0  0  0  0  0  0  0  0  0  0  0  0
    7.8214  -15.0440   28.2395 O   0  0  0  0  0  0  0  0  0  0  0  0
    9.2215  -13.4822   29.2021 O   0  0  0  0  0  0  0  0  0  0  0  0
  2  1  1  1
  2  3  1  0
  3  4  1  0
  5  4  1  0
  5  6  2  0
  7  2  1  0
  7  8  2  0
  9  5  1  0
 10  7  1  0
 11 10  1  0
 12 13  1  0
 11 12  1  1
 13 17  1  0
 14 13  2  0
 15 11  1  0
 16 15  2  0
 18 15  1  0
 18 22  1  0
 19 20  1  0
 19 18  1  0
 20 21  1  0
 22 21  1  0
 22 23  1  1
 24 23  2  0
 25 23  1  0
M  END
$$$$
