ETR.pdb
     RDKit          3D

 28 27  0  0  1  0  0  0  0  0999 V2000
    9.9738  -13.2457   18.2699 N   0  0  0  0  0  0  0  0  0  0  0  0
    8.5648  -13.3586   18.6861 C   0  0  1  0  0  0  0  0  0  0  0  0
    7.6885  -13.4693   17.4445 C   0  0  0  0  0  0  0  0  0  0  0  0
    8.2839  -14.5155   16.5127 C   0  0  0  0  0  0  0  0  0  0  0  0
    7.4226  -14.5769   15.3157 C   0  0  0  0  0  0  0  0  0  0  0  0
    7.7304  -15.2681   14.3102 O   0  0  0  0  0  0  0  0  0  0  0  0
    8.4400  -14.6352   19.4262 C   0  0  0  0  0  0  0  0  0  0  0  0
    7.3210  -15.0093   19.9131 O   0  0  0  0  0  0  0  0  0  0  0  0
    6.2380  -13.8654   15.2686 O   0  0  0  0  0  0  0  0  0  0  0  0
    9.4694  -18.0535   18.2578 C   0  0  0  0  0  0  0  0  0  0  0  0
   10.2949  -17.7883   19.5048 C   0  0  1  0  0  0  0  0  0  0  0  0
   11.5231  -17.2266   19.2018 O   0  0  0  0  0  0  0  0  0  0  0  0
    9.5063  -16.7171   20.2760 C   0  0  2  0  0  0  0  0  0  0  0  0
    9.5990  -15.4448   19.5867 N   0  0  0  0  0  0  0  0  0  0  0  0
   10.1833  -16.5920   21.5916 C   0  0  0  0  0  0  0  0  0  0  0  0
   11.1384  -15.7531   21.7557 O   0  0  0  0  0  0  0  0  0  0  0  0
    8.9617  -13.3174   29.0806 N   0  0  0  0  0  0  0  0  0  0  0  0
    9.8544  -14.3753   29.4283 C   0  0  0  0  0  0  0  0  0  0  0  0
   10.2051  -14.5117   30.6603 N   0  0  0  0  0  0  0  0  0  0  0  0
   10.3526  -15.2613   28.4503 N   0  0  0  0  0  0  0  0  0  0  0  0
    9.5592  -15.5524   27.2582 C   0  0  0  0  0  0  0  0  0  0  0  0
   10.3398  -16.4723   26.3729 C   0  0  0  0  0  0  0  0  0  0  0  0
    9.7340  -16.5608   25.0172 C   0  0  0  0  0  0  0  0  0  0  0  0
   10.6055  -17.1854   23.9652 C   0  0  2  0  0  0  0  0  0  0  0  0
    9.8388  -17.3593   22.7221 N   0  0  0  0  0  0  0  0  0  0  0  0
   11.1084  -18.5206   24.3361 C   0  0  0  0  0  0  0  0  0  0  0  0
   12.1902  -18.7275   25.1785 O   0  0  0  0  0  0  0  0  0  0  0  0
   10.5535  -19.5440   23.8844 O   0  0  0  0  0  0  0  0  0  0  0  0
  2  1  1  6
  3  2  1  0
  4  3  1  0
  5  4  1  0
  5  6  2  0
  7  8  2  0
  7  2  1  0
  9  5  1  0
 11 10  1  6
 12 11  1  0
 13 11  1  0
 13 14  1  6
 14  7  1  0
 15 13  1  0
 16 15  2  0
 18 17  1  0
 18 19  2  0
 20 18  1  0
 21 20  1  0
 21 22  1  0
 24 23  1  1
 23 22  1  0
 24 25  1  0
 25 15  1  0
 26 27  1  0
 26 24  1  0
 28 26  2  0
M  END
$$$$
