ETR.pdb
     RDKit          3D

 28 27  0  0  1  0  0  0  0  0999 V2000
    9.6937  -14.8146   14.1127 N   0  0  0  0  0  0  0  0  0  0  0  0
    9.3671  -15.7398   15.2120 C   0  0  1  0  0  0  0  0  0  0  0  0
   10.3949  -16.8645   15.2353 C   0  0  0  0  0  0  0  0  0  0  0  0
   10.8388  -17.1559   13.8087 C   0  0  0  0  0  0  0  0  0  0  0  0
   12.0171  -18.0414   13.8889 C   0  0  0  0  0  0  0  0  0  0  0  0
   11.9372  -19.2762   13.6599 O   0  0  0  0  0  0  0  0  0  0  0  0
    9.5229  -14.9771   16.4718 C   0  0  0  0  0  0  0  0  0  0  0  0
   10.4933  -14.1644   16.6357 O   0  0  0  0  0  0  0  0  0  0  0  0
   13.2567  -17.5283   14.2231 O   0  0  0  0  0  0  0  0  0  0  0  0
    7.7245  -12.7327   20.1933 C   0  0  0  0  0  0  0  0  0  0  0  0
    7.4412  -13.5252   18.9290 C   0  0  1  0  0  0  0  0  0  0  0  0
    7.3812  -12.7110   17.8113 O   0  0  0  0  0  0  0  0  0  0  0  0
    8.6752  -14.4238   18.7453 C   0  0  2  0  0  0  0  0  0  0  0  0
    8.5637  -15.1673   17.5053 N   0  0  0  0  0  0  0  0  0  0  0  0
    8.6420  -15.3847   19.8768 C   0  0  0  0  0  0  0  0  0  0  0  0
    8.4816  -16.6382   19.6627 O   0  0  0  0  0  0  0  0  0  0  0  0
   15.1714  -14.0596   21.1654 N   0  0  0  0  0  0  0  0  0  0  0  0
   14.9186  -15.0608   20.1802 C   0  0  0  0  0  0  0  0  0  0  0  0
   15.8040  -15.2723   19.2688 N   0  0  0  0  0  0  0  0  0  0  0  0
   13.7242  -15.8113   20.1916 N   0  0  0  0  0  0  0  0  0  0  0  0
   13.2837  -16.4620   21.4236 C   0  0  0  0  0  0  0  0  0  0  0  0
   12.4126  -15.5127   22.1849 C   0  0  0  0  0  0  0  0  0  0  0  0
   11.2023  -15.1440   21.4026 C   0  0  0  0  0  0  0  0  0  0  0  0
    9.8937  -15.5562   22.0142 C   0  0  2  0  0  0  0  0  0  0  0  0
    8.7804  -15.0051   21.2267 N   0  0  0  0  0  0  0  0  0  0  0  0
    9.7109  -15.0694   23.3935 C   0  0  0  0  0  0  0  0  0  0  0  0
    8.8838  -14.0089   23.7309 O   0  0  0  0  0  0  0  0  0  0  0  0
   10.3199  -15.6190   24.3350 O   0  0  0  0  0  0  0  0  0  0  0  0
  2  1  1  6
  3  2  1  0
  4  3  1  0
  5  4  1  0
  5  6  2  0
  7  8  2  0
  7  2  1  0
  9  5  1  0
 11 10  1  1
 12 11  1  0
 13 11  1  0
 13 14  1  6
 14  7  1  0
 15 13  1  0
 16 15  2  0
 18 17  1  0
 18 19  2  0
 20 18  1  0
 21 20  1  0
 21 22  1  0
 24 23  1  6
 23 22  1  0
 24 25  1  0
 25 15  1  0
 26 27  1  0
 26 24  1  0
 28 26  2  0
M  END
$$$$
