ETR.pdb
     RDKit          3D

 28 27  0  0  1  0  0  0  0  0999 V2000
134860.8594192564.3438-89121.7656 N   0  0  0  0  0  0  0  0  0  0  0  0
134861.0781192563.8125-89120.3984 C   0  0  1  0  0  0  0  0  0  0  0  0
134861.3125192565.0156-89119.4531 C   0  0  0  0  0  0  0  0  0  0  0  0
134859.9531192565.6406-89119.1172 C   0  0  0  0  0  0  0  0  0  0  0  0
134859.7812192566.7656-89120.1016 C   0  0  0  0  0  0  0  0  0  0  0  0
134858.6250192567.3125-89120.2656 O   0  0  0  0  0  0  0  0  0  0  0  0
134859.7812192563.2031-89119.9766 C   0  0  0  0  0  0  0  0  0  0  0  0
134858.7031192563.6875-89120.3359 O   0  0  0  0  0  0  0  0  0  0  0  0
134860.8750192567.2812-89120.7812 O   0  0  0  0  0  0  0  0  0  0  0  0
134860.7500192562.0938-89121.5078 C   0  0  0  0  0  0  0  0  0  0  0  0
134860.8125192560.6719-89120.9531 C   0  0  1  0  0  0  0  0  0  0  0  0
134862.1094192560.3906-89120.4609 O   0  0  0  0  0  0  0  0  0  0  0  0
134859.8594192560.7188-89119.7500 C   0  0  2  0  0  0  0  0  0  0  0  0
134859.8438192562.0469-89119.1562 N   0  0  0  0  0  0  0  0  0  0  0  0
134860.4219192559.7656-89118.7422 C   0  0  0  0  0  0  0  0  0  0  0  0
134861.4062192559.0469-89119.0391 O   0  0  0  0  0  0  0  0  0  0  0  0
134859.4688192560.7656-89110.0703 N   0  0  0  0  0  0  0  0  0  0  0  0
134859.8906192560.4688-89111.4219 C   0  0  0  0  0  0  0  0  0  0  0  0
134859.7188192559.2812-89111.8984 N   0  0  0  0  0  0  0  0  0  0  0  0
134860.5938192561.4219-89112.1953 N   0  0  0  0  0  0  0  0  0  0  0  0
134861.0781192561.0469-89113.5547 C   0  0  0  0  0  0  0  0  0  0  0  0
134860.1094192561.6250-89114.5156 C   0  0  0  0  0  0  0  0  0  0  0  0
134859.3594192560.6094-89115.2812 C   0  0  0  0  0  0  0  0  0  0  0  0
134859.2969192560.7656-89116.7734 C   0  0  2  0  0  0  0  0  0  0  0  0
134859.8750192559.5938-89117.4609 N   0  0  0  0  0  0  0  0  0  0  0  0
134860.0625192561.9375-89117.2266 C   0  0  0  0  0  0  0  0  0  0  0  0
134860.6562192562.8281-89116.3438 O   0  0  0  0  0  0  0  0  0  0  0  0
134860.2031192562.2188-89118.4219 O   0  0  0  0  0  0  0  0  0  0  0  0
  2  1  1  6
  3  2  1  0
  4  3  1  0
  5  4  1  0
  5  6  2  0
  7  8  2  0
  7  2  1  0
  9  5  1  0
 11 10  1  1
 12 11  1  0
 13 11  1  0
 13 14  1  1
 14  7  1  0
 15 13  1  0
 16 15  2  0
 18 17  1  0
 18 19  2  0
 20 18  1  0
 21 20  1  0
 21 22  1  0
 24 23  1  1
 23 22  1  0
 24 25  1  0
 25 15  1  0
 26 27  1  0
 26 24  1  0
 28 26  2  0
M  END
$$$$
