ETR.pdb
     RDKit          3D

 28 27  0  0  1  0  0  0  0  0999 V2000
    8.6479  -18.1301   17.2631 N   0  0  0  0  0  0  0  0  0  0  0  0
   10.0197  -17.6401   17.4851 C   0  0  1  0  0  0  0  0  0  0  0  0
   10.5928  -17.1531   16.1599 C   0  0  0  0  0  0  0  0  0  0  0  0
    9.5476  -17.3465   15.0703 C   0  0  0  0  0  0  0  0  0  0  0  0
   10.1841  -16.9957   13.7856 C   0  0  0  0  0  0  0  0  0  0  0  0
   11.0064  -17.7623   13.2201 O   0  0  0  0  0  0  0  0  0  0  0  0
    9.9127  -16.4620   18.3760 C   0  0  0  0  0  0  0  0  0  0  0  0
   10.9481  -15.8027   18.7258 O   0  0  0  0  0  0  0  0  0  0  0  0
    9.8883  -15.7976   13.1621 O   0  0  0  0  0  0  0  0  0  0  0  0
    7.4329  -12.9054   20.3881 C   0  0  0  0  0  0  0  0  0  0  0  0
    7.4133  -14.0104   19.3462 C   0  0  1  0  0  0  0  0  0  0  0  0
    7.8091  -13.5537   18.1010 O   0  0  0  0  0  0  0  0  0  0  0  0
    8.4933  -15.0029   19.8077 C   0  0  2  0  0  0  0  0  0  0  0  0
    8.6245  -16.0742   18.8394 N   0  0  0  0  0  0  0  0  0  0  0  0
    7.9908  -15.5765   21.0817 C   0  0  0  0  0  0  0  0  0  0  0  0
    7.2232  -16.6030   21.0761 O   0  0  0  0  0  0  0  0  0  0  0  0
   15.0636  -17.5203   21.4537 N   0  0  0  0  0  0  0  0  0  0  0  0
   14.8171  -16.6068   22.5222 C   0  0  0  0  0  0  0  0  0  0  0  0
   15.8049  -15.9364   23.0060 N   0  0  0  0  0  0  0  0  0  0  0  0
   13.5204  -16.4328   23.0495 N   0  0  0  0  0  0  0  0  0  0  0  0
   12.5205  -17.4862   22.8886 C   0  0  0  0  0  0  0  0  0  0  0  0
   11.2682  -17.0738   23.5964 C   0  0  0  0  0  0  0  0  0  0  0  0
   10.3701  -16.2991   22.6986 C   0  0  0  0  0  0  0  0  0  0  0  0
    9.0560  -15.8924   23.3021 C   0  0  2  0  0  0  0  0  0  0  0  0
    8.3093  -15.0547   22.3512 N   0  0  0  0  0  0  0  0  0  0  0  0
    9.1971  -15.0989   24.5364 C   0  0  0  0  0  0  0  0  0  0  0  0
    9.6987  -13.8066   24.5661 O   0  0  0  0  0  0  0  0  0  0  0  0
    8.8562  -15.5868   25.6342 O   0  0  0  0  0  0  0  0  0  0  0  0
  2  1  1  6
  3  2  1  0
  4  3  1  0
  5  4  1  0
  5  6  2  0
  7  8  2  0
  7  2  1  0
  9  5  1  0
 11 10  1  1
 12 11  1  0
 13 11  1  0
 13 14  1  6
 14  7  1  0
 15 13  1  0
 16 15  2  0
 18 17  1  0
 18 19  2  0
 20 18  1  0
 21 20  1  0
 21 22  1  0
 24 23  1  6
 23 22  1  0
 24 25  1  0
 25 15  1  0
 26 27  1  0
 26 24  1  0
 28 26  2  0
M  END
$$$$
