VPW.pdb
     RDKit          3D

 29 31  0  0  1  0  0  0  0  0999 V2000
    7.4929  -13.1858   21.7130 C   0  0  0  0  0  0  0  0  0  0  0  0
    8.4791  -13.4765   20.5890 C   0  0  2  0  0  0  0  0  0  0  0  0
    8.1678  -12.4969   19.4855 C   0  0  0  0  0  0  0  0  0  0  0  0
    8.2038  -14.9183   20.1328 C   0  0  2  0  0  0  0  0  0  0  0  0
    6.8530  -14.9419   19.6891 N   0  0  0  0  0  0  0  0  0  0  0  0
    8.5479  -15.7785   21.2593 C   0  0  0  0  0  0  0  0  0  0  0  0
    7.5761  -16.0268   22.0640 O   0  0  0  0  0  0  0  0  0  0  0  0
    9.7872  -16.3618   21.5731 N   0  0  0  0  0  0  0  0  0  0  0  0
   11.0651  -16.2350   20.9215 C   0  0  0  0  0  0  0  0  0  0  0  0
   11.5037  -17.7087   20.8780 C   0  0  0  0  0  0  0  0  0  0  0  0
   11.2873  -18.0427   22.3615 C   0  0  0  0  0  0  0  0  0  0  0  0
   10.0314  -17.2578   22.6957 C   0  0  1  0  0  0  0  0  0  0  0  0
   10.2422  -16.4982   23.9420 C   0  0  0  0  0  0  0  0  0  0  0  0
   10.7429  -15.3524   23.9975 O   0  0  0  0  0  0  0  0  0  0  0  0
    9.8505  -17.1043   25.1908 N   0  0  0  0  0  0  0  0  0  0  0  0
   10.1747  -16.5107   26.4426 C   0  0  1  0  0  0  0  0  0  0  0  0
    9.0785  -16.0911   27.3246 C   0  0  0  0  0  0  0  0  0  0  0  0
    7.8520  -15.5647   26.7178 C   0  0  0  0  0  0  0  0  0  0  0  0
    6.7670  -16.1930   26.1816 C   0  0  0  0  0  0  0  0  0  0  0  0
    5.9007  -15.2616   25.7671 N   0  0  0  0  0  0  0  0  0  0  0  0
    6.4034  -14.0444   26.0243 C   0  0  0  0  0  0  0  0  0  0  0  0
    5.9351  -12.7539   25.8094 C   0  0  0  0  0  0  0  0  0  0  0  0
    6.6694  -11.6307   26.1802 C   0  0  0  0  0  0  0  0  0  0  0  0
    7.8958  -11.7958   26.7778 C   0  0  0  0  0  0  0  0  0  0  0  0
    8.3593  -13.0763   26.9905 C   0  0  0  0  0  0  0  0  0  0  0  0
    7.6136  -14.1915   26.6142 C   0  0  0  0  0  0  0  0  0  0  0  0
   11.0708  -17.4768   27.1767 C   0  0  0  0  0  0  0  0  0  0  0  0
   11.6387  -17.1944   28.2533 O   0  0  0  0  0  0  0  0  0  0  0  0
   11.2980  -18.7486   26.6613 O   0  0  0  0  0  0  0  0  0  0  0  0
  2  1  1  1
  2  3  1  0
  4  2  1  0
  4  5  1  1
  6  4  1  0
  6  7  2  0
  8  6  1  0
  9  8  1  0
 10  9  1  0
 11 10  1  0
 11 12  1  0
 12  8  1  0
 12 13  1  1
 13 14  2  0
 15 13  1  0
 16 15  1  0
 16 17  1  1
 17 18  1  0
 18 26  1  0
 18 19  2  0
 19 20  1  0
 21 22  2  0
 21 20  1  0
 23 22  1  0
 24 23  2  0
 25 24  1  0
 25 26  2  0
 26 21  1  0
 27 16  1  0
 28 27  2  0
 29 27  1  0
M  END
$$$$
