VPW.pdb
     RDKit          3D

 29 31  0  0  1  0  0  0  0  0999 V2000
    6.6716  -12.9782   19.4975 C   0  0  0  0  0  0  0  0  0  0  0  0
    7.1820  -13.7897   20.6814 C   0  0  2  0  0  0  0  0  0  0  0  0
    8.4097  -13.0761   21.1892 C   0  0  0  0  0  0  0  0  0  0  0  0
    7.5461  -15.1779   20.1308 C   0  0  2  0  0  0  0  0  0  0  0  0
    6.3610  -15.6910   19.5357 N   0  0  0  0  0  0  0  0  0  0  0  0
    8.1070  -15.9288   21.2483 C   0  0  0  0  0  0  0  0  0  0  0  0
    7.2534  -16.2802   22.1437 O   0  0  0  0  0  0  0  0  0  0  0  0
    9.4410  -16.3117   21.4685 N   0  0  0  0  0  0  0  0  0  0  0  0
   10.6421  -15.9392   20.7670 C   0  0  0  0  0  0  0  0  0  0  0  0
   11.3142  -17.3144   20.6146 C   0  0  0  0  0  0  0  0  0  0  0  0
   11.2390  -17.7560   22.0838 C   0  0  0  0  0  0  0  0  0  0  0  0
    9.8917  -17.2108   22.5226 C   0  0  1  0  0  0  0  0  0  0  0  0
   10.0438  -16.4920   23.8011 C   0  0  0  0  0  0  0  0  0  0  0  0
   10.4779  -15.3230   23.9096 O   0  0  0  0  0  0  0  0  0  0  0  0
    9.6721  -17.1695   25.0190 N   0  0  0  0  0  0  0  0  0  0  0  0
    9.9391  -16.6061   26.2979 C   0  0  1  0  0  0  0  0  0  0  0  0
    8.8039  -16.2186   27.1444 C   0  0  0  0  0  0  0  0  0  0  0  0
    7.6784  -15.5099   26.5274 C   0  0  0  0  0  0  0  0  0  0  0  0
    6.5564  -15.9667   25.9014 C   0  0  0  0  0  0  0  0  0  0  0  0
    5.8254  -14.9128   25.5210 N   0  0  0  0  0  0  0  0  0  0  0  0
    6.4517  -13.7844   25.8883 C   0  0  0  0  0  0  0  0  0  0  0  0
    6.1469  -12.4358   25.7500 C   0  0  0  0  0  0  0  0  0  0  0  0
    6.9865  -11.4357   26.2332 C   0  0  0  0  0  0  0  0  0  0  0  0
    8.1540  -11.7859   26.8677 C   0  0  0  0  0  0  0  0  0  0  0  0
    8.4553  -13.1239   27.0044 C   0  0  0  0  0  0  0  0  0  0  0  0
    7.6056  -14.1143   26.5158 C   0  0  0  0  0  0  0  0  0  0  0  0
   10.8133  -17.5837   27.0433 C   0  0  0  0  0  0  0  0  0  0  0  0
   11.0547  -18.7362   26.6254 O   0  0  0  0  0  0  0  0  0  0  0  0
   11.3936  -17.2199   28.2539 O   0  0  0  0  0  0  0  0  0  0  0  0
  2  1  1  6
  2  3  1  0
  4  2  1  0
  4  5  1  1
  6  4  1  0
  6  7  2  0
  8  6  1  0
  9  8  1  0
 10  9  1  0
 11 10  1  0
 11 12  1  0
 12  8  1  0
 12 13  1  1
 13 14  2  0
 15 13  1  0
 16 15  1  0
 16 17  1  1
 17 18  1  0
 18 26  1  0
 18 19  2  0
 19 20  1  0
 21 22  2  0
 21 20  1  0
 23 22  1  0
 24 23  2  0
 25 24  1  0
 25 26  2  0
 26 21  1  0
 27 16  1  0
 28 27  2  0
 29 27  1  0
M  END
$$$$
