VPW.pdb
     RDKit          3D

 29 31  0  0  1  0  0  0  0  0999 V2000
    7.0462  -13.3437   21.7398 C   0  0  0  0  0  0  0  0  0  0  0  0
    7.9793  -13.4122   20.5376 C   0  0  2  0  0  0  0  0  0  0  0  0
    7.5345  -12.3258   19.5909 C   0  0  0  0  0  0  0  0  0  0  0  0
    7.7760  -14.8004   19.9096 C   0  0  2  0  0  0  0  0  0  0  0  0
    6.4460  -14.8164   19.4067 N   0  0  0  0  0  0  0  0  0  0  0  0
    8.1061  -15.7723   20.9458 C   0  0  0  0  0  0  0  0  0  0  0  0
    7.1548  -16.0198   21.7749 O   0  0  0  0  0  0  0  0  0  0  0  0
    9.3127  -16.4626   21.1510 N   0  0  0  0  0  0  0  0  0  0  0  0
   10.5178  -16.4812   20.3628 C   0  0  0  0  0  0  0  0  0  0  0  0
   10.8102  -17.9912   20.3357 C   0  0  0  0  0  0  0  0  0  0  0  0
   10.7275  -18.2548   21.8466 C   0  0  0  0  0  0  0  0  0  0  0  0
    9.5941  -17.3415   22.2784 C   0  0  1  0  0  0  0  0  0  0  0  0
   10.0098  -16.5663   23.4619 C   0  0  0  0  0  0  0  0  0  0  0  0
   10.6064  -15.4669   23.4153 O   0  0  0  0  0  0  0  0  0  0  0  0
    9.7167  -17.0988   24.7699 N   0  0  0  0  0  0  0  0  0  0  0  0
   10.2449  -16.5084   25.9518 C   0  0  1  0  0  0  0  0  0  0  0  0
    9.7052  -15.2158   26.3915 C   0  0  0  0  0  0  0  0  0  0  0  0
    8.2916  -14.9221   26.1358 C   0  0  0  0  0  0  0  0  0  0  0  0
    7.2381  -15.7364   25.8414 C   0  0  0  0  0  0  0  0  0  0  0  0
    6.1426  -14.9800   25.7097 N   0  0  0  0  0  0  0  0  0  0  0  0
    6.4663  -13.6937   25.9128 C   0  0  0  0  0  0  0  0  0  0  0  0
    5.7348  -12.5124   25.8999 C   0  0  0  0  0  0  0  0  0  0  0  0
    6.3241  -11.2762   26.1508 C   0  0  0  0  0  0  0  0  0  0  0  0
    7.6702  -11.2150   26.4203 C   0  0  0  0  0  0  0  0  0  0  0  0
    8.3949  -12.3874   26.4328 C   0  0  0  0  0  0  0  0  0  0  0  0
    7.7917  -13.6178   26.1800 C   0  0  0  0  0  0  0  0  0  0  0  0
   10.0976  -17.5198   27.0610 C   0  0  0  0  0  0  0  0  0  0  0  0
    9.3881  -18.5433   26.9588 O   0  0  0  0  0  0  0  0  0  0  0  0
   10.7674  -17.3375   28.2664 O   0  0  0  0  0  0  0  0  0  0  0  0
  2  1  1  1
  2  3  1  0
  4  2  1  0
  4  5  1  1
  6  4  1  0
  6  7  2  0
  8  6  1  0
  9  8  1  0
 10  9  1  0
 11 10  1  0
 11 12  1  0
 12  8  1  0
 12 13  1  1
 13 14  2  0
 15 13  1  0
 16 15  1  0
 16 17  1  1
 17 18  1  0
 18 26  1  0
 18 19  2  0
 19 20  1  0
 21 22  2  0
 21 20  1  0
 23 22  1  0
 24 23  2  0
 25 24  1  0
 25 26  2  0
 26 21  1  0
 27 16  1  0
 28 27  2  0
 29 27  1  0
M  END
$$$$
