VPW.pdb
     RDKit          3D

 29 31  0  0  1  0  0  0  0  0999 V2000
    7.2895  -12.5766   19.4455 C   0  0  0  0  0  0  0  0  0  0  0  0
    7.6794  -13.5395   20.5597 C   0  0  2  0  0  0  0  0  0  0  0  0
    9.0733  -13.1539   20.9872 C   0  0  0  0  0  0  0  0  0  0  0  0
    7.6680  -14.9464   19.9406 C   0  0  2  0  0  0  0  0  0  0  0  0
    6.3637  -15.1328   19.4056 N   0  0  0  0  0  0  0  0  0  0  0  0
    8.0907  -15.8622   20.9942 C   0  0  0  0  0  0  0  0  0  0  0  0
    7.2198  -16.0569   21.9202 O   0  0  0  0  0  0  0  0  0  0  0  0
    9.3098  -16.5487   21.1250 N   0  0  0  0  0  0  0  0  0  0  0  0
   10.4598  -16.5727   20.2587 C   0  0  0  0  0  0  0  0  0  0  0  0
   10.7531  -18.0824   20.2260 C   0  0  0  0  0  0  0  0  0  0  0  0
   10.7716  -18.3321   21.7414 C   0  0  0  0  0  0  0  0  0  0  0  0
    9.6675  -17.4166   22.2392 C   0  0  1  0  0  0  0  0  0  0  0  0
   10.1592  -16.6297   23.3854 C   0  0  0  0  0  0  0  0  0  0  0  0
   10.9881  -15.6957   23.3003 O   0  0  0  0  0  0  0  0  0  0  0  0
    9.6608  -16.9470   24.7012 N   0  0  0  0  0  0  0  0  0  0  0  0
   10.2199  -16.3628   25.8719 C   0  0  1  0  0  0  0  0  0  0  0  0
    9.6332  -15.1179   26.3833 C   0  0  0  0  0  0  0  0  0  0  0  0
    8.1906  -14.9067   26.2281 C   0  0  0  0  0  0  0  0  0  0  0  0
    7.1637  -15.7838   26.0394 C   0  0  0  0  0  0  0  0  0  0  0  0
    6.0220  -15.0900   25.9697 N   0  0  0  0  0  0  0  0  0  0  0  0
    6.2898  -13.7826   26.1096 C   0  0  0  0  0  0  0  0  0  0  0  0
    5.4964  -12.6418   26.1181 C   0  0  0  0  0  0  0  0  0  0  0  0
    6.0350  -11.3691   26.2866 C   0  0  0  0  0  0  0  0  0  0  0  0
    7.3922  -11.2293   26.4503 C   0  0  0  0  0  0  0  0  0  0  0  0
    8.1783  -12.3614   26.4417 C   0  0  0  0  0  0  0  0  0  0  0  0
    7.6255  -13.6292   26.2721 C   0  0  0  0  0  0  0  0  0  0  0  0
   10.1923  -17.4144   26.9530 C   0  0  0  0  0  0  0  0  0  0  0  0
    9.5248  -18.4668   26.8616 O   0  0  0  0  0  0  0  0  0  0  0  0
   10.9314  -17.2383   28.1181 O   0  0  0  0  0  0  0  0  0  0  0  0
  2  1  1  6
  2  3  1  0
  4  2  1  0
  4  5  1  1
  6  4  1  0
  6  7  2  0
  8  6  1  0
  9  8  1  0
 10  9  1  0
 11 10  1  0
 11 12  1  0
 12  8  1  0
 12 13  1  1
 13 14  2  0
 15 13  1  0
 16 15  1  0
 16 17  1  1
 17 18  1  0
 18 26  1  0
 18 19  2  0
 19 20  1  0
 21 22  2  0
 21 20  1  0
 23 22  1  0
 24 23  2  0
 25 24  1  0
 25 26  2  0
 26 21  1  0
 27 16  1  0
 28 27  2  0
 29 27  1  0
M  END
$$$$
