VPW.pdb
     RDKit          3D

 29 31  0  0  1  0  0  0  0  0999 V2000
    7.5277  -13.3823   21.6083 C   0  0  0  0  0  0  0  0  0  0  0  0
    8.4245  -13.5320   20.3861 C   0  0  2  0  0  0  0  0  0  0  0  0
    8.0415  -12.4230   19.4385 C   0  0  0  0  0  0  0  0  0  0  0  0
    8.1018  -14.9060   19.7772 C   0  0  2  0  0  0  0  0  0  0  0  0
    6.7706  -14.8180   19.2851 N   0  0  0  0  0  0  0  0  0  0  0  0
    8.3596  -15.8895   20.8230 C   0  0  0  0  0  0  0  0  0  0  0  0
    7.3740  -16.0965   21.6226 O   0  0  0  0  0  0  0  0  0  0  0  0
    9.5300  -16.6287   21.0649 N   0  0  0  0  0  0  0  0  0  0  0  0
   10.7365  -16.7389   20.2867 C   0  0  0  0  0  0  0  0  0  0  0  0
   10.9547  -18.2611   20.3240 C   0  0  0  0  0  0  0  0  0  0  0  0
   10.8517  -18.4572   21.8439 C   0  0  0  0  0  0  0  0  0  0  0  0
    9.7624  -17.4725   22.2296 C   0  0  1  0  0  0  0  0  0  0  0  0
   10.2097  -16.6699   23.3830 C   0  0  0  0  0  0  0  0  0  0  0  0
   10.7776  -15.5580   23.2950 O   0  0  0  0  0  0  0  0  0  0  0  0
    9.9853  -17.1889   24.7099 N   0  0  0  0  0  0  0  0  0  0  0  0
   10.3441  -16.4493   25.8712 C   0  0  1  0  0  0  0  0  0  0  0  0
    9.7921  -15.0996   26.0415 C   0  0  0  0  0  0  0  0  0  0  0  0
    8.3360  -14.9403   26.1073 C   0  0  0  0  0  0  0  0  0  0  0  0
    7.3235  -15.8521   26.0522 C   0  0  0  0  0  0  0  0  0  0  0  0
    6.1609  -15.2009   26.1695 N   0  0  0  0  0  0  0  0  0  0  0  0
    6.4010  -13.8871   26.2993 C   0  0  0  0  0  0  0  0  0  0  0  0
    5.5786  -12.7776   26.4529 C   0  0  0  0  0  0  0  0  0  0  0  0
    6.0918  -11.4887   26.5700 C   0  0  0  0  0  0  0  0  0  0  0  0
    7.4526  -11.3006   26.5336 C   0  0  0  0  0  0  0  0  0  0  0  0
    8.2674  -12.4018   26.3813 C   0  0  0  0  0  0  0  0  0  0  0  0
    7.7398  -13.6862   26.2653 C   0  0  0  0  0  0  0  0  0  0  0  0
    9.9864  -17.2950   27.0679 C   0  0  0  0  0  0  0  0  0  0  0  0
    9.2580  -18.3074   26.9923 O   0  0  0  0  0  0  0  0  0  0  0  0
   10.4715  -16.9627   28.3285 O   0  0  0  0  0  0  0  0  0  0  0  0
  2  1  1  1
  2  3  1  0
  4  2  1  0
  4  5  1  1
  6  4  1  0
  6  7  2  0
  8  6  1  0
  9  8  1  0
 10  9  1  0
 11 10  1  0
 11 12  1  0
 12  8  1  0
 12 13  1  1
 13 14  2  0
 15 13  1  0
 16 15  1  0
 16 17  1  1
 17 18  1  0
 18 26  1  0
 18 19  2  0
 19 20  1  0
 21 22  2  0
 21 20  1  0
 23 22  1  0
 24 23  2  0
 25 24  1  0
 25 26  2  0
 26 21  1  0
 27 16  1  0
 28 27  2  0
 29 27  1  0
M  END
$$$$
