VPW.pdb
     RDKit          3D

 29 31  0  0  1  0  0  0  0  0999 V2000
    6.8022  -12.8248   19.2754 C   0  0  0  0  0  0  0  0  0  0  0  0
    7.2888  -13.6164   20.4825 C   0  0  2  0  0  0  0  0  0  0  0  0
    8.6151  -13.0173   20.8780 C   0  0  0  0  0  0  0  0  0  0  0  0
    7.4654  -15.0674   20.0069 C   0  0  2  0  0  0  0  0  0  0  0  0
    6.2073  -15.4663   19.4776 N   0  0  0  0  0  0  0  0  0  0  0  0
    7.9719  -15.8161   21.1516 C   0  0  0  0  0  0  0  0  0  0  0  0
    7.1103  -16.0234   22.0835 O   0  0  0  0  0  0  0  0  0  0  0  0
    9.2616  -16.3321   21.3632 N   0  0  0  0  0  0  0  0  0  0  0  0
   10.4803  -16.1177   20.6266 C   0  0  0  0  0  0  0  0  0  0  0  0
   10.9978  -17.5621   20.5168 C   0  0  0  0  0  0  0  0  0  0  0  0
   10.9076  -17.9378   22.0033 C   0  0  0  0  0  0  0  0  0  0  0  0
    9.6363  -17.2346   22.4439 C   0  0  1  0  0  0  0  0  0  0  0  0
    9.8922  -16.4891   23.6902 C   0  0  0  0  0  0  0  0  0  0  0  0
   10.3597  -15.3290   23.7388 O   0  0  0  0  0  0  0  0  0  0  0  0
    9.5891  -17.1276   24.9475 N   0  0  0  0  0  0  0  0  0  0  0  0
    9.9168  -16.5197   26.1915 C   0  0  1  0  0  0  0  0  0  0  0  0
    8.8297  -16.2080   27.1277 C   0  0  0  0  0  0  0  0  0  0  0  0
    7.6366  -15.5268   26.6156 C   0  0  0  0  0  0  0  0  0  0  0  0
    6.5105  -16.0058   26.0138 C   0  0  0  0  0  0  0  0  0  0  0  0
    5.7040  -14.9736   25.7426 N   0  0  0  0  0  0  0  0  0  0  0  0
    6.2854  -13.8373   26.1567 C   0  0  0  0  0  0  0  0  0  0  0  0
    5.9001  -12.5026   26.1267 C   0  0  0  0  0  0  0  0  0  0  0  0
    6.7071  -11.4895   26.6373 C   0  0  0  0  0  0  0  0  0  0  0  0
    7.9234  -11.8122   27.1896 C   0  0  0  0  0  0  0  0  0  0  0  0
    8.3046  -13.1365   27.2189 C   0  0  0  0  0  0  0  0  0  0  0  0
    7.4865  -14.1402   26.7040 C   0  0  0  0  0  0  0  0  0  0  0  0
   10.9278  -17.4092   26.8711 C   0  0  0  0  0  0  0  0  0  0  0  0
   11.5373  -17.0766   27.9100 O   0  0  0  0  0  0  0  0  0  0  0  0
   11.2201  -18.6635   26.3455 O   0  0  0  0  0  0  0  0  0  0  0  0
  2  1  1  6
  2  3  1  0
  4  2  1  0
  4  5  1  1
  6  4  1  0
  6  7  2  0
  8  6  1  0
  9  8  1  0
 10  9  1  0
 11 10  1  0
 11 12  1  0
 12  8  1  0
 12 13  1  1
 13 14  2  0
 15 13  1  0
 16 15  1  0
 16 17  1  1
 17 18  1  0
 18 26  1  0
 18 19  2  0
 19 20  1  0
 21 22  2  0
 21 20  1  0
 23 22  1  0
 24 23  2  0
 25 24  1  0
 25 26  2  0
 26 21  1  0
 27 16  1  0
 28 27  2  0
 29 27  1  0
M  END
$$$$
