VPW.pdb
     RDKit          3D

 29 31  0  0  1  0  0  0  0  0999 V2000
    7.4581  -13.2296   21.5618 C   0  0  0  0  0  0  0  0  0  0  0  0
    8.2871  -13.4757   20.3077 C   0  0  2  0  0  0  0  0  0  0  0  0
    7.9123  -12.3905   19.3298 C   0  0  0  0  0  0  0  0  0  0  0  0
    7.8706  -14.8567   19.7766 C   0  0  2  0  0  0  0  0  0  0  0  0
    6.5100  -14.7348   19.3815 N   0  0  0  0  0  0  0  0  0  0  0  0
    8.1712  -15.8122   20.8368 C   0  0  0  0  0  0  0  0  0  0  0  0
    7.2312  -15.9730   21.6995 O   0  0  0  0  0  0  0  0  0  0  0  0
    9.3393  -16.5683   21.0332 N   0  0  0  0  0  0  0  0  0  0  0  0
   10.5279  -16.6678   20.2263 C   0  0  0  0  0  0  0  0  0  0  0  0
   10.7322  -18.1924   20.2173 C   0  0  0  0  0  0  0  0  0  0  0  0
   10.6598  -18.4293   21.7332 C   0  0  0  0  0  0  0  0  0  0  0  0
    9.5884  -17.4459   22.1691 C   0  0  1  0  0  0  0  0  0  0  0  0
   10.0678  -16.6794   23.3340 C   0  0  0  0  0  0  0  0  0  0  0  0
   10.7890  -15.6588   23.2628 O   0  0  0  0  0  0  0  0  0  0  0  0
    9.6890  -17.1244   24.6527 N   0  0  0  0  0  0  0  0  0  0  0  0
   10.2603  -16.5557   25.8252 C   0  0  1  0  0  0  0  0  0  0  0  0
    9.7462  -15.2654   26.3009 C   0  0  0  0  0  0  0  0  0  0  0  0
    8.3105  -14.9942   26.1789 C   0  0  0  0  0  0  0  0  0  0  0  0
    7.2436  -15.8280   26.0168 C   0  0  0  0  0  0  0  0  0  0  0  0
    6.1306  -15.0870   25.9720 N   0  0  0  0  0  0  0  0  0  0  0  0
    6.4561  -13.7918   26.1018 C   0  0  0  0  0  0  0  0  0  0  0  0
    5.7115  -12.6188   26.1257 C   0  0  0  0  0  0  0  0  0  0  0  0
    6.3067  -11.3694   26.2780 C   0  0  0  0  0  0  0  0  0  0  0  0
    7.6720  -11.2862   26.4094 C   0  0  0  0  0  0  0  0  0  0  0  0
    8.4096  -12.4503   26.3856 C   0  0  0  0  0  0  0  0  0  0  0  0
    7.8005  -13.6941   26.2326 C   0  0  0  0  0  0  0  0  0  0  0  0
   10.1404  -17.5822   26.9238 C   0  0  0  0  0  0  0  0  0  0  0  0
    9.4432  -18.6137   26.8181 O   0  0  0  0  0  0  0  0  0  0  0  0
   10.8231  -17.4054   28.1228 O   0  0  0  0  0  0  0  0  0  0  0  0
  2  1  1  1
  2  3  1  0
  4  2  1  0
  4  5  1  1
  6  4  1  0
  6  7  2  0
  8  6  1  0
  9  8  1  0
 10  9  1  0
 11 10  1  0
 11 12  1  0
 12  8  1  0
 12 13  1  1
 13 14  2  0
 15 13  1  0
 16 15  1  0
 16 17  1  1
 17 18  1  0
 18 26  1  0
 18 19  2  0
 19 20  1  0
 21 22  2  0
 21 20  1  0
 23 22  1  0
 24 23  2  0
 25 24  1  0
 25 26  2  0
 26 21  1  0
 27 16  1  0
 28 27  2  0
 29 27  1  0
M  END
$$$$
