VPW.pdb
     RDKit          3D

 29 31  0  0  1  0  0  0  0  0999 V2000
    6.7568  -19.0681   22.3052 C   0  0  0  0  0  0  0  0  0  0  0  0
    5.8118  -17.9358   21.9237 C   0  0  2  0  0  0  0  0  0  0  0  0
    4.4143  -18.4914   22.0367 C   0  0  0  0  0  0  0  0  0  0  0  0
    6.1380  -17.5712   20.4666 C   0  0  2  0  0  0  0  0  0  0  0  0
    6.0582  -18.7835   19.7277 N   0  0  0  0  0  0  0  0  0  0  0  0
    7.4290  -16.8927   20.4920 C   0  0  0  0  0  0  0  0  0  0  0  0
    8.4364  -17.6410   20.2111 O   0  0  0  0  0  0  0  0  0  0  0  0
    7.7085  -15.5461   20.7802 N   0  0  0  0  0  0  0  0  0  0  0  0
    6.8384  -14.4944   21.2391 C   0  0  0  0  0  0  0  0  0  0  0  0
    7.2652  -13.3508   20.3030 C   0  0  0  0  0  0  0  0  0  0  0  0
    8.7799  -13.4261   20.5461 C   0  0  0  0  0  0  0  0  0  0  0  0
    9.0195  -14.9202   20.6697 C   0  0  1  0  0  0  0  0  0  0  0  0
    9.8369  -15.1907   21.8669 C   0  0  0  0  0  0  0  0  0  0  0  0
   11.0357  -14.8549   21.9972 O   0  0  0  0  0  0  0  0  0  0  0  0
    9.2276  -15.8901   22.9715 N   0  0  0  0  0  0  0  0  0  0  0  0
    9.8409  -15.9375   24.2545 C   0  0  1  0  0  0  0  0  0  0  0  0
    9.3944  -14.9873   25.2807 C   0  0  0  0  0  0  0  0  0  0  0  0
    7.9549  -14.8228   25.5058 C   0  0  0  0  0  0  0  0  0  0  0  0
    6.9091  -15.6807   25.3330 C   0  0  0  0  0  0  0  0  0  0  0  0
    5.7837  -15.0540   25.6942 N   0  0  0  0  0  0  0  0  0  0  0  0
    6.0805  -13.8089   26.0969 C   0  0  0  0  0  0  0  0  0  0  0  0
    5.3135  -12.7502   26.5677 C   0  0  0  0  0  0  0  0  0  0  0  0
    5.8806  -11.5310   26.9291 C   0  0  0  0  0  0  0  0  0  0  0  0
    7.2399  -11.3625   26.8194 C   0  0  0  0  0  0  0  0  0  0  0  0
    7.9998  -12.4133   26.3523 C   0  0  0  0  0  0  0  0  0  0  0  0
    7.4187  -13.6282   25.9943 C   0  0  0  0  0  0  0  0  0  0  0  0
    9.6879  -17.3464   24.7711 C   0  0  0  0  0  0  0  0  0  0  0  0
    8.8044  -18.1292   24.3614 O   0  0  0  0  0  0  0  0  0  0  0  0
   10.5519  -17.8300   25.7481 O   0  0  0  0  0  0  0  0  0  0  0  0
  2  1  1  6
  2  3  1  0
  4  2  1  0
  4  5  1  6
  6  4  1  0
  6  7  2  0
  8  6  1  0
  9  8  1  0
 10  9  1  0
 11 10  1  0
 11 12  1  0
 12  8  1  0
 12 13  1  1
 13 14  2  0
 15 13  1  0
 16 15  1  0
 16 17  1  1
 17 18  1  0
 18 26  1  0
 18 19  2  0
 19 20  1  0
 21 22  2  0
 21 20  1  0
 23 22  1  0
 24 23  2  0
 25 24  1  0
 25 26  2  0
 26 21  1  0
 27 16  1  0
 28 27  2  0
 29 27  1  0
M  END
$$$$
