GDH.pdb
     RDKit          3D

 23 23  0  0  1  0  0  0  0  0999 V2000
   16.8675  -11.8722  -15.0049 N   0  0  0  0  0  0  0  0  0  0  0  0
   15.7897  -11.1211  -14.4005 C   0  0  0  0  0  0  0  0  0  0  0  0
   16.2715   -9.7554  -13.9384 C   0  0  0  0  0  0  0  0  0  0  0  0
   15.9876   -8.7411  -14.6000 O   0  0  0  0  0  0  0  0  0  0  0  0
   17.0286   -9.7431  -12.7568 N   0  0  0  0  0  0  0  0  0  0  0  0
   17.5901   -8.5865  -12.1457 C   0  0  1  0  0  0  0  0  0  0  0  0
   17.7353   -8.6239  -10.6400 C   0  0  0  0  0  0  0  0  0  0  0  0
   16.4185   -8.8915  -10.0258 C   0  0  0  0  0  0  0  0  0  0  0  0
   15.3788   -8.1875  -10.2520 O   0  0  0  0  0  0  0  0  0  0  0  0
   18.6860   -7.9526  -12.8672 C   0  0  0  0  0  0  0  0  0  0  0  0
   19.7492   -8.6242  -13.1256 O   0  0  0  0  0  0  0  0  0  0  0  0
   16.2245   -9.9525   -9.1417 O   0  0  0  0  0  0  0  0  0  0  0  0
   18.6990   -6.6141  -13.3340 N   0  0  0  0  0  0  0  0  0  0  0  0
   19.8124   -6.0336  -14.0791 C   0  0  1  0  0  0  0  0  0  0  0  0
   19.4479   -4.7265  -14.6921 C   0  0  0  0  0  0  0  0  0  0  0  0
   20.5738   -4.2291  -15.5119 C   0  0  0  0  0  0  0  0  0  0  0  0
   20.9717   -4.8075  -16.6986 C   0  0  0  0  0  0  0  0  0  0  0  0
   22.0142   -4.1016  -17.1607 N   0  0  0  0  0  0  0  0  0  0  0  0
   22.2837   -3.1077  -16.3123 C   0  0  0  0  0  0  0  0  0  0  0  0
   21.4053   -3.1904  -15.3127 N   0  0  0  0  0  0  0  0  0  0  0  0
   21.0344   -5.9711  -13.2870 C   0  0  0  0  0  0  0  0  0  0  0  0
   22.3332   -6.0098  -13.7495 O   0  0  0  0  0  0  0  0  0  0  0  0
   20.9111   -5.8702  -12.0164 O   0  0  0  0  0  0  0  0  0  0  0  0
  2  1  1  0
  3  2  1  0
  4  3  2  0
  5  3  1  0
  6 10  1  0
  6  5  1  0
  7  8  1  0
  6  7  1  1
  8  9  2  0
  8 12  1  0
 10 13  1  0
 11 10  2  0
 13 14  1  0
 14 15  1  1
 15 16  1  0
 16 17  2  0
 18 17  1  0
 19 18  1  0
 20 19  2  0
 20 16  1  0
 21 14  1  0
 21 22  1  0
 23 21  2  0
M  END
$$$$
