GDH.pdb
     RDKit          3D

 23 23  0  0  1  0  0  0  0  0999 V2000
   17.1818  -11.7552  -18.6870 N   0  0  0  0  0  0  0  0  0  0  0  0
   18.5513  -11.3366  -18.8874 C   0  0  0  0  0  0  0  0  0  0  0  0
   19.0340  -10.4829  -17.7259 C   0  0  0  0  0  0  0  0  0  0  0  0
   19.2595  -11.0086  -16.6215 O   0  0  0  0  0  0  0  0  0  0  0  0
   19.1938   -9.1156  -17.9988 N   0  0  0  0  0  0  0  0  0  0  0  0
   19.5089   -8.1115  -17.0400 C   0  0  1  0  0  0  0  0  0  0  0  0
   20.1879   -6.8664  -17.5674 C   0  0  0  0  0  0  0  0  0  0  0  0
   21.4815   -7.2337  -18.1792 C   0  0  0  0  0  0  0  0  0  0  0  0
   22.4270   -7.8044  -17.5402 O   0  0  0  0  0  0  0  0  0  0  0  0
   18.5154   -7.8918  -15.9969 C   0  0  0  0  0  0  0  0  0  0  0  0
   17.2690   -7.8612  -16.3030 O   0  0  0  0  0  0  0  0  0  0  0  0
   21.7570   -6.9747  -19.5216 O   0  0  0  0  0  0  0  0  0  0  0  0
   18.7955   -7.7013  -14.6204 N   0  0  0  0  0  0  0  0  0  0  0  0
   17.7596   -7.5299  -13.6058 C   0  0  1  0  0  0  0  0  0  0  0  0
   18.1220   -8.1971  -12.3249 C   0  0  0  0  0  0  0  0  0  0  0  0
   17.0186   -8.0424  -11.3526 C   0  0  0  0  0  0  0  0  0  0  0  0
   15.7236   -8.4505  -11.5919 C   0  0  0  0  0  0  0  0  0  0  0  0
   15.0000   -8.1532  -10.5025 N   0  0  0  0  0  0  0  0  0  0  0  0
   15.7889   -7.5766   -9.5939 C   0  0  0  0  0  0  0  0  0  0  0  0
   17.0139   -7.5120  -10.1162 N   0  0  0  0  0  0  0  0  0  0  0  0
   17.3803   -6.1331  -13.4339 C   0  0  0  0  0  0  0  0  0  0  0  0
   16.1279   -5.6373  -13.1377 O   0  0  0  0  0  0  0  0  0  0  0  0
   18.2977   -5.2500  -13.5704 O   0  0  0  0  0  0  0  0  0  0  0  0
  2  1  1  0
  3  2  1  0
  4  3  2  0
  5  3  1  0
  6 10  1  0
  6  5  1  0
  7  8  1  0
  6  7  1  6
  8  9  2  0
  8 12  1  0
 10 13  1  0
 11 10  2  0
 13 14  1  0
 14 15  1  1
 15 16  1  0
 16 17  2  0
 18 17  1  0
 19 18  1  0
 20 19  2  0
 20 16  1  0
 21 14  1  0
 21 22  1  0
 23 21  2  0
M  END
$$$$
