GDH.pdb
     RDKit          3D

 23 23  0  0  1  0  0  0  0  0999 V2000
   19.5957   -2.2109  -18.1936 N   0  0  0  0  0  0  0  0  0  0  0  0
   19.2686   -2.7165  -16.8790 C   0  0  0  0  0  0  0  0  0  0  0  0
   19.6506   -4.1822  -16.7499 C   0  0  0  0  0  0  0  0  0  0  0  0
   19.5988   -4.9266  -17.7450 O   0  0  0  0  0  0  0  0  0  0  0  0
   20.0468   -4.5990  -15.4697 N   0  0  0  0  0  0  0  0  0  0  0  0
   20.3496   -5.9377  -15.0920 C   0  0  1  0  0  0  0  0  0  0  0  0
   21.1842   -6.1122  -13.8419 C   0  0  0  0  0  0  0  0  0  0  0  0
   22.3941   -5.2697  -13.9372 C   0  0  0  0  0  0  0  0  0  0  0  0
   22.6964   -4.3709  -13.0836 O   0  0  0  0  0  0  0  0  0  0  0  0
   19.2787   -6.9092  -15.2734 C   0  0  0  0  0  0  0  0  0  0  0  0
   18.1022   -6.6478  -14.8310 O   0  0  0  0  0  0  0  0  0  0  0  0
   23.3010   -5.4061  -14.9878 O   0  0  0  0  0  0  0  0  0  0  0  0
   19.4076   -8.1660  -15.9164 N   0  0  0  0  0  0  0  0  0  0  0  0
   18.2884   -9.0800  -16.1258 C   0  0  1  0  0  0  0  0  0  0  0  0
   18.6603  -10.2185  -17.0105 C   0  0  0  0  0  0  0  0  0  0  0  0
   17.4654  -11.0438  -17.2897 C   0  0  0  0  0  0  0  0  0  0  0  0
   16.8972  -11.9039  -16.3741 C   0  0  0  0  0  0  0  0  0  0  0  0
   15.8419  -12.4823  -16.9661 N   0  0  0  0  0  0  0  0  0  0  0  0
   15.7280  -12.0196  -18.2125 C   0  0  0  0  0  0  0  0  0  0  0  0
   16.7171  -11.1462  -18.4031 N   0  0  0  0  0  0  0  0  0  0  0  0
   17.6817   -9.5072  -14.8712 C   0  0  0  0  0  0  0  0  0  0  0  0
   16.3443   -9.7366  -14.6250 O   0  0  0  0  0  0  0  0  0  0  0  0
   18.4600   -9.6952  -13.8717 O   0  0  0  0  0  0  0  0  0  0  0  0
  2  1  1  0
  3  2  1  0
  4  3  2  0
  5  3  1  0
  6 10  1  0
  6  5  1  0
  7  8  1  0
  6  7  1  1
  8  9  2  0
  8 12  1  0
 10 13  1  0
 11 10  2  0
 13 14  1  0
 14 15  1  1
 15 16  1  0
 16 17  2  0
 18 17  1  0
 19 18  1  0
 20 19  2  0
 20 16  1  0
 21 14  1  0
 21 22  1  0
 23 21  2  0
M  END
$$$$
