GDH.pdb
     RDKit          3D

 23 23  0  0  1  0  0  0  0  0999 V2000
   16.4248  -12.3995  -15.0230 N   0  0  0  0  0  0  0  0  0  0  0  0
   15.6847  -11.7665  -13.9541 C   0  0  0  0  0  0  0  0  0  0  0  0
   16.4915  -10.6413  -13.3265 C   0  0  0  0  0  0  0  0  0  0  0  0
   16.6575  -10.6097  -12.0943 O   0  0  0  0  0  0  0  0  0  0  0  0
   17.0060   -9.6882  -14.2189 N   0  0  0  0  0  0  0  0  0  0  0  0
   17.7557   -8.5339  -13.8555 C   0  0  1  0  0  0  0  0  0  0  0  0
   18.8238   -8.0901  -14.8311 C   0  0  0  0  0  0  0  0  0  0  0  0
   19.7252   -9.2239  -15.1222 C   0  0  0  0  0  0  0  0  0  0  0  0
   20.6262   -9.6331  -14.3169 O   0  0  0  0  0  0  0  0  0  0  0  0
   17.0051   -7.4618  -13.2148 C   0  0  0  0  0  0  0  0  0  0  0  0
   15.9208   -7.0353  -13.7538 O   0  0  0  0  0  0  0  0  0  0  0  0
   19.6469   -9.9333  -16.3203 O   0  0  0  0  0  0  0  0  0  0  0  0
   17.3635   -6.8148  -12.0055 N   0  0  0  0  0  0  0  0  0  0  0  0
   16.6103   -5.7010  -11.4361 C   0  0  1  0  0  0  0  0  0  0  0  0
   16.7317   -5.6502   -9.9529 C   0  0  0  0  0  0  0  0  0  0  0  0
   15.8470   -6.6675   -9.3452 C   0  0  0  0  0  0  0  0  0  0  0  0
   15.0092   -7.4868  -10.0717 C   0  0  0  0  0  0  0  0  0  0  0  0
   14.3617   -8.2745   -9.2006 N   0  0  0  0  0  0  0  0  0  0  0  0
   14.7598   -7.9810   -7.9614 C   0  0  0  0  0  0  0  0  0  0  0  0
   15.6621   -7.0039   -8.0558 N   0  0  0  0  0  0  0  0  0  0  0  0
   16.9299   -4.4322  -12.0783 C   0  0  0  0  0  0  0  0  0  0  0  0
   16.0968   -3.3455  -12.2430 O   0  0  0  0  0  0  0  0  0  0  0  0
   18.1114   -4.2897  -12.5513 O   0  0  0  0  0  0  0  0  0  0  0  0
  2  1  1  0
  3  2  1  0
  4  3  2  0
  5  3  1  0
  6 10  1  0
  6  5  1  0
  7  8  1  0
  6  7  1  6
  8  9  2  0
  8 12  1  0
 10 13  1  0
 11 10  2  0
 13 14  1  0
 14 15  1  1
 15 16  1  0
 16 17  2  0
 18 17  1  0
 19 18  1  0
 20 19  2  0
 20 16  1  0
 21 14  1  0
 21 22  1  0
 23 21  2  0
M  END
$$$$
