GDH.pdb
     RDKit          3D

 23 23  0  0  1  0  0  0  0  0999 V2000
   33.6112  -35.2299   -4.7808 N   0  0  0  0  0  0  0  0  0  0  0  0
   32.2983  -35.6402   -5.2271 C   0  0  0  0  0  0  0  0  0  0  0  0
   31.2112  -34.9966   -4.3818 C   0  0  0  0  0  0  0  0  0  0  0  0
   31.5196  -34.3257   -3.3808 O   0  0  0  0  0  0  0  0  0  0  0  0
   29.8935  -35.2174   -4.8110 N   0  0  0  0  0  0  0  0  0  0  0  0
   28.7231  -34.6901   -4.1956 C   0  0  1  0  0  0  0  0  0  0  0  0
   27.6382  -34.1940   -5.1263 C   0  0  0  0  0  0  0  0  0  0  0  0
   26.7042  -33.3296   -4.3758 C   0  0  0  0  0  0  0  0  0  0  0  0
   26.8361  -33.0583   -3.1361 O   0  0  0  0  0  0  0  0  0  0  0  0
   28.2583  -35.3901   -3.0051 C   0  0  0  0  0  0  0  0  0  0  0  0
   27.6235  -36.4993   -3.1275 O   0  0  0  0  0  0  0  0  0  0  0  0
   25.5964  -32.7434   -4.9873 O   0  0  0  0  0  0  0  0  0  0  0  0
   28.4438  -34.9546   -1.6689 N   0  0  0  0  0  0  0  0  0  0  0  0
   28.0197  -35.7279   -0.5053 C   0  0  1  0  0  0  0  0  0  0  0  0
   28.6701  -35.2493    0.7457 C   0  0  0  0  0  0  0  0  0  0  0  0
   28.4942  -36.2553    1.8153 C   0  0  0  0  0  0  0  0  0  0  0  0
   28.0238  -37.5326    1.5961 C   0  0  0  0  0  0  0  0  0  0  0  0
   27.9927  -38.1592    2.7815 N   0  0  0  0  0  0  0  0  0  0  0  0
   28.4236  -37.3266    3.7309 C   0  0  0  0  0  0  0  0  0  0  0  0
   28.7268  -36.1716    3.1378 N   0  0  0  0  0  0  0  0  0  0  0  0
   26.5686  -35.8127   -0.3973 C   0  0  0  0  0  0  0  0  0  0  0  0
   25.6337  -35.2844   -1.2626 O   0  0  0  0  0  0  0  0  0  0  0  0
   26.0862  -36.4431    0.6077 O   0  0  0  0  0  0  0  0  0  0  0  0
  2  1  1  0
  3  2  1  0
  4  3  2  0
  5  3  1  0
  6 10  1  0
  6  5  1  0
  7  8  1  0
  6  7  1  6
  8  9  2  0
  8 12  1  0
 10 13  1  0
 11 10  2  0
 13 14  1  0
 14 15  1  1
 15 16  1  0
 16 17  2  0
 18 17  1  0
 19 18  1  0
 20 19  2  0
 20 16  1  0
 21 14  1  0
 21 22  1  0
 23 21  2  0
M  END
$$$$
