GDH.pdb
     RDKit          3D

 23 23  0  0  1  0  0  0  0  0999 V2000
   20.0489   -0.6709  -17.9415 N   0  0  0  0  0  0  0  0  0  0  0  0
   19.3148   -1.5550  -17.0637 C   0  0  0  0  0  0  0  0  0  0  0  0
   19.9250   -2.9473  -17.0606 C   0  0  0  0  0  0  0  0  0  0  0  0
   19.9481   -3.6167  -18.1086 O   0  0  0  0  0  0  0  0  0  0  0  0
   20.4342   -3.3876  -15.8292 N   0  0  0  0  0  0  0  0  0  0  0  0
   21.0323   -4.6565  -15.5869 C   0  0  1  0  0  0  0  0  0  0  0  0
   22.2920   -4.6580  -14.7486 C   0  0  0  0  0  0  0  0  0  0  0  0
   22.9365   -5.9848  -14.8325 C   0  0  0  0  0  0  0  0  0  0  0  0
   23.6818   -6.3466  -15.8028 O   0  0  0  0  0  0  0  0  0  0  0  0
   20.1116   -5.7586  -15.3398 C   0  0  0  0  0  0  0  0  0  0  0  0
   19.3596   -5.7372  -14.2994 O   0  0  0  0  0  0  0  0  0  0  0  0
   22.7677   -6.9457  -13.8360 O   0  0  0  0  0  0  0  0  0  0  0  0
   19.9531   -6.8998  -16.1657 N   0  0  0  0  0  0  0  0  0  0  0  0
   19.2665   -8.1143  -15.7352 C   0  0  1  0  0  0  0  0  0  0  0  0
   20.0362   -9.3401  -16.0847 C   0  0  0  0  0  0  0  0  0  0  0  0
   19.1823  -10.5337  -15.9031 C   0  0  0  0  0  0  0  0  0  0  0  0
   17.8803  -10.4830  -15.4522 C   0  0  0  0  0  0  0  0  0  0  0  0
   17.4200  -11.7419  -15.4087 N   0  0  0  0  0  0  0  0  0  0  0  0
   18.3800  -12.5759  -15.8131 C   0  0  0  0  0  0  0  0  0  0  0  0
   19.4480  -11.8359  -16.1120 N   0  0  0  0  0  0  0  0  0  0  0  0
   18.8823   -8.0633  -14.3301 C   0  0  0  0  0  0  0  0  0  0  0  0
   19.7020   -8.2262  -13.2330 O   0  0  0  0  0  0  0  0  0  0  0  0
   17.6493   -7.8454  -14.0616 O   0  0  0  0  0  0  0  0  0  0  0  0
  2  1  1  0
  3  2  1  0
  4  3  2  0
  5  3  1  0
  6 10  1  0
  6  5  1  0
  7  8  1  0
  6  7  1  1
  8  9  2  0
  8 12  1  0
 10 13  1  0
 11 10  2  0
 13 14  1  0
 14 15  1  1
 15 16  1  0
 16 17  2  0
 18 17  1  0
 19 18  1  0
 20 19  2  0
 20 16  1  0
 21 14  1  0
 21 22  1  0
 23 21  2  0
M  END
$$$$
