GDH.pdb
     RDKit          3D

 23 23  0  0  1  0  0  0  0  0999 V2000
   24.6216  -10.1773  -20.3633 N   0  0  0  0  0  0  0  0  0  0  0  0
   23.7600   -9.0199  -20.2689 C   0  0  0  0  0  0  0  0  0  0  0  0
   23.1528   -8.9062  -18.8800 C   0  0  0  0  0  0  0  0  0  0  0  0
   23.2205   -9.8670  -18.0930 O   0  0  0  0  0  0  0  0  0  0  0  0
   22.5387   -7.6802  -18.5809 N   0  0  0  0  0  0  0  0  0  0  0  0
   21.8008   -7.3908  -17.3984 C   0  0  1  0  0  0  0  0  0  0  0  0
   21.6473   -5.9284  -17.0416 C   0  0  0  0  0  0  0  0  0  0  0  0
   20.9359   -5.8092  -15.7522 C   0  0  0  0  0  0  0  0  0  0  0  0
   21.3680   -6.3071  -14.6598 O   0  0  0  0  0  0  0  0  0  0  0  0
   20.6286   -8.2226  -17.1588 C   0  0  0  0  0  0  0  0  0  0  0  0
   19.6865   -8.2590  -18.0302 O   0  0  0  0  0  0  0  0  0  0  0  0
   19.7221   -5.1309  -15.6451 O   0  0  0  0  0  0  0  0  0  0  0  0
   20.4128   -9.0309  -16.0144 N   0  0  0  0  0  0  0  0  0  0  0  0
   19.2218   -9.8540  -15.8249 C   0  0  1  0  0  0  0  0  0  0  0  0
   19.5640  -11.2926  -15.6502 C   0  0  0  0  0  0  0  0  0  0  0  0
   18.3235  -12.0917  -15.5522 C   0  0  0  0  0  0  0  0  0  0  0  0
   17.2796  -11.9991  -16.4481 C   0  0  0  0  0  0  0  0  0  0  0  0
   16.3304  -12.8591  -16.0506 N   0  0  0  0  0  0  0  0  0  0  0  0
   16.7380  -13.4841  -14.9444 C   0  0  0  0  0  0  0  0  0  0  0  0
   17.9494  -13.0136  -14.6466 N   0  0  0  0  0  0  0  0  0  0  0  0
   18.3578   -9.3409  -14.7691 C   0  0  0  0  0  0  0  0  0  0  0  0
   17.0034   -9.5536  -14.6201 O   0  0  0  0  0  0  0  0  0  0  0  0
   18.8965   -8.6065  -13.8688 O   0  0  0  0  0  0  0  0  0  0  0  0
  2  1  1  0
  3  2  1  0
  4  3  2  0
  5  3  1  0
  6 10  1  0
  6  5  1  0
  7  8  1  0
  6  7  1  6
  8  9  2  0
  8 12  1  0
 10 13  1  0
 11 10  2  0
 13 14  1  0
 14 15  1  1
 15 16  1  0
 16 17  2  0
 18 17  1  0
 19 18  1  0
 20 19  2  0
 20 16  1  0
 21 14  1  0
 21 22  1  0
 23 21  2  0
M  END
$$$$
