HST.pdb
     RDKit          3D

 24 24  0  0  1  0  0  0  0  0999 V2000
   24.3722  -17.5896  -17.6296 N   0  0  0  0  0  0  0  0  0  0  0  0
   22.9935  -17.6904  -17.2679 C   0  0  1  0  0  0  0  0  0  0  0  0
   22.1277  -17.8029  -18.5043 C   0  0  0  0  0  0  0  0  0  0  0  0
   22.1790  -16.5895  -19.3423 C   0  0  0  0  0  0  0  0  0  0  0  0
   22.9480  -16.3978  -20.4514 C   0  0  0  0  0  0  0  0  0  0  0  0
   22.6943  -15.1472  -20.9215 N   0  0  0  0  0  0  0  0  0  0  0  0
   21.7745  -14.5807  -20.1012 C   0  0  0  0  0  0  0  0  0  0  0  0
   21.4655  -15.4750  -19.1356 N   0  0  0  0  0  0  0  0  0  0  0  0
   22.6896  -18.8389  -16.4041 C   0  0  0  0  0  0  0  0  0  0  0  0
   23.4298  -19.8727  -16.5002 O   0  0  0  0  0  0  0  0  0  0  0  0
   20.1749  -18.3991  -13.4155 O   0  0  0  0  0  0  0  0  0  0  0  0
   20.9416  -19.5587  -13.2021 C   0  0  0  0  0  0  0  0  0  0  0  0
   21.4723  -20.0238  -14.5433 C   0  0  2  0  0  0  0  0  0  0  0  0
   21.6423  -18.9159  -15.4612 N   0  0  0  0  0  0  0  0  0  0  0  0
   20.5861  -21.0740  -15.1063 C   0  0  0  0  0  0  0  0  0  0  0  0
   19.4806  -20.7804  -15.6395 O   0  0  0  0  0  0  0  0  0  0  0  0
   22.0509  -24.2487  -17.1140 C   0  0  0  0  0  0  0  0  0  0  0  0
   21.0898  -24.6752  -16.0290 C   0  0  1  0  0  0  0  0  0  0  0  0
   21.8701  -25.0739  -14.9369 O   0  0  0  0  0  0  0  0  0  0  0  0
   20.2193  -23.5217  -15.5731 C   0  0  2  0  0  0  0  0  0  0  0  0
   20.9915  -22.4327  -15.0431 N   0  0  0  0  0  0  0  0  0  0  0  0
   19.3154  -24.0233  -14.5163 C   0  0  0  0  0  0  0  0  0  0  0  0
   18.3309  -24.9790  -14.7257 O   0  0  0  0  0  0  0  0  0  0  0  0
   19.4357  -23.5654  -13.3569 O   0  0  0  0  0  0  0  0  0  0  0  0
  2  1  1  6
  3  2  1  0
  4  5  2  0
  4  3  1  0
  6  5  1  0
  7  8  2  0
  7  6  1  0
  8  4  1  0
  9  2  1  0
 10  9  2  0
 11 12  1  0
 13 12  1  1
 13 15  1  0
 13 14  1  0
 14  9  1  0
 15 21  1  0
 16 15  2  0
 18 19  1  0
 18 17  1  6
 20 18  1  0
 20 22  1  0
 20 21  1  1
 22 24  2  0
 22 23  1  0
M  END
$$$$
