HST.pdb
     RDKit          3D

 24 24  0  0  1  0  0  0  0  0999 V2000
   23.8088  -13.0706  -18.2964 N   0  0  0  0  0  0  0  0  0  0  0  0
   23.9438  -12.3408  -17.0752 C   0  0  1  0  0  0  0  0  0  0  0  0
   25.4033  -12.2024  -16.6986 C   0  0  0  0  0  0  0  0  0  0  0  0
   26.0546  -13.5071  -16.4726 C   0  0  0  0  0  0  0  0  0  0  0  0
   25.9015  -14.3162  -15.3862 C   0  0  0  0  0  0  0  0  0  0  0  0
   26.6757  -15.4178  -15.5766 N   0  0  0  0  0  0  0  0  0  0  0  0
   27.2972  -15.2789  -16.7742 C   0  0  0  0  0  0  0  0  0  0  0  0
   26.9085  -14.1026  -17.3152 N   0  0  0  0  0  0  0  0  0  0  0  0
   23.3655  -10.9915  -17.1238 C   0  0  0  0  0  0  0  0  0  0  0  0
   23.7071  -10.2280  -18.0862 O   0  0  0  0  0  0  0  0  0  0  0  0
   20.0784   -9.9584  -14.9311 O   0  0  0  0  0  0  0  0  0  0  0  0
   20.2723   -9.3258  -16.1722 C   0  0  0  0  0  0  0  0  0  0  0  0
   21.7640   -9.1861  -16.3996 C   0  0  2  0  0  0  0  0  0  0  0  0
   22.4532  -10.4441  -16.1964 N   0  0  0  0  0  0  0  0  0  0  0  0
   22.3137   -8.1114  -15.5347 C   0  0  0  0  0  0  0  0  0  0  0  0
   22.8201   -8.3727  -14.4086 O   0  0  0  0  0  0  0  0  0  0  0  0
   24.7919   -5.2515  -16.6558 C   0  0  0  0  0  0  0  0  0  0  0  0
   23.5176   -4.6599  -16.1002 C   0  0  1  0  0  0  0  0  0  0  0  0
   22.6997   -4.3672  -17.1984 O   0  0  0  0  0  0  0  0  0  0  0  0
   22.7767   -5.6545  -15.2296 C   0  0  2  0  0  0  0  0  0  0  0  0
   22.2681   -6.7659  -15.9840 N   0  0  0  0  0  0  0  0  0  0  0  0
   21.6420   -4.9492  -14.5968 C   0  0  0  0  0  0  0  0  0  0  0  0
   21.7827   -3.9531  -13.6405 O   0  0  0  0  0  0  0  0  0  0  0  0
   20.4775   -5.2608  -14.9362 O   0  0  0  0  0  0  0  0  0  0  0  0
  2  1  1  6
  3  2  1  0
  4  5  2  0
  4  3  1  0
  6  5  1  0
  7  8  2  0
  7  6  1  0
  8  4  1  0
  9  2  1  0
 10  9  2  0
 11 12  1  0
 13 12  1  1
 13 15  1  0
 13 14  1  0
 14  9  1  0
 15 21  1  0
 16 15  2  0
 18 19  1  0
 18 17  1  6
 20 18  1  0
 20 22  1  0
 20 21  1  6
 22 24  2  0
 22 23  1  0
M  END
$$$$
