HST.pdb
     RDKit          3D

 24 24  0  0  1  0  0  0  0  0999 V2000
   28.7263  -31.7358  -15.6604 N   0  0  0  0  0  0  0  0  0  0  0  0
   27.6912  -32.7204  -15.6961 C   0  0  1  0  0  0  0  0  0  0  0  0
   28.0279  -33.8080  -16.6935 C   0  0  0  0  0  0  0  0  0  0  0  0
   28.0021  -33.3240  -18.0872 C   0  0  0  0  0  0  0  0  0  0  0  0
   29.0794  -32.9951  -18.8550 C   0  0  0  0  0  0  0  0  0  0  0  0
   28.6170  -32.5981  -20.0707 N   0  0  0  0  0  0  0  0  0  0  0  0
   27.2637  -32.6853  -20.0421 C   0  0  0  0  0  0  0  0  0  0  0  0
   26.8975  -33.1319  -18.8198 N   0  0  0  0  0  0  0  0  0  0  0  0
   27.4412  -33.3650  -14.4001 C   0  0  0  0  0  0  0  0  0  0  0  0
   28.4402  -33.5875  -13.6395 O   0  0  0  0  0  0  0  0  0  0  0  0
   24.7235  -34.1427  -10.5818 O   0  0  0  0  0  0  0  0  0  0  0  0
   24.7087  -33.7984  -11.9453 C   0  0  0  0  0  0  0  0  0  0  0  0
   25.9881  -34.3136  -12.5733 C   0  0  2  0  0  0  0  0  0  0  0  0
   26.1845  -33.7707  -13.9020 N   0  0  0  0  0  0  0  0  0  0  0  0
   25.9916  -35.7986  -12.5795 C   0  0  0  0  0  0  0  0  0  0  0  0
   25.3338  -36.4508  -13.4367 O   0  0  0  0  0  0  0  0  0  0  0  0
   29.2866  -37.9698  -12.1269 C   0  0  0  0  0  0  0  0  0  0  0  0
   28.2353  -38.3864  -11.1249 C   0  0  1  0  0  0  0  0  0  0  0  0
   28.5485  -37.7392   -9.9234 O   0  0  0  0  0  0  0  0  0  0  0  0
   26.8539  -37.9273  -11.5458 C   0  0  2  0  0  0  0  0  0  0  0  0
   26.7492  -36.4960  -11.6028 N   0  0  0  0  0  0  0  0  0  0  0  0
   25.8830  -38.4368  -10.5542 C   0  0  0  0  0  0  0  0  0  0  0  0
   25.6138  -39.7833  -10.3518 O   0  0  0  0  0  0  0  0  0  0  0  0
   25.2589  -37.6126   -9.8474 O   0  0  0  0  0  0  0  0  0  0  0  0
  2  1  1  1
  3  2  1  0
  4  5  2  0
  4  3  1  0
  6  5  1  0
  7  8  2  0
  7  6  1  0
  8  4  1  0
  9  2  1  0
 10  9  2  0
 11 12  1  0
 13 12  1  6
 13 15  1  0
 13 14  1  0
 14  9  1  0
 15 21  1  0
 16 15  2  0
 18 19  1  0
 18 17  1  6
 20 18  1  0
 20 22  1  0
 20 21  1  1
 22 24  2  0
 22 23  1  0
M  END
$$$$
