PNW.pdb
     RDKit          3D

 30 32  0  0  1  0  0  0  0  0999 V2000
    9.0933  -14.2748   18.2451 N   0  0  0  0  0  0  0  0  0  0  0  0
    7.7744  -14.1938   17.6943 C   0  0  0  0  0  0  0  0  0  0  0  0
    7.0054  -13.1780   18.4692 C   0  0  0  0  0  0  0  0  0  0  0  0
    7.9100  -12.8401   19.6105 C   0  0  0  0  0  0  0  0  0  0  0  0
    9.0399  -13.8294   19.6195 C   0  0  1  0  0  0  0  0  0  0  0  0
    8.8292  -14.9485   20.5539 C   0  0  0  0  0  0  0  0  0  0  0  0
    7.9560  -14.8579   21.4345 O   0  0  0  0  0  0  0  0  0  0  0  0
    9.8885  -19.6569   22.9567 N   0  0  0  0  0  0  0  0  0  0  0  0
   10.6308  -19.4095   21.7833 C   0  0  0  0  0  0  0  0  0  0  0  0
   11.3745  -20.3759   21.3948 O   0  0  0  0  0  0  0  0  0  0  0  0
   10.6419  -18.1914   20.9785 C   0  0  0  0  0  0  0  0  0  0  0  0
    9.8025  -17.0681   21.5456 C   0  0  2  0  0  0  0  0  0  0  0  0
    9.5881  -16.1286   20.4862 N   0  0  0  0  0  0  0  0  0  0  0  0
   10.2476  -16.5260   22.8038 C   0  0  0  0  0  0  0  0  0  0  0  0
   11.0677  -15.5885   22.8513 O   0  0  0  0  0  0  0  0  0  0  0  0
    9.7700  -17.0380   24.0297 N   0  0  0  0  0  0  0  0  0  0  0  0
   10.1626  -16.4503   25.3217 C   0  0  1  0  0  0  0  0  0  0  0  0
    9.8717  -14.9892   25.2028 C   0  0  0  0  0  0  0  0  0  0  0  0
    8.4705  -14.6514   25.5219 C   0  0  0  0  0  0  0  0  0  0  0  0
    7.3984  -15.5388   25.4197 C   0  0  0  0  0  0  0  0  0  0  0  0
    6.2844  -14.9207   25.8284 N   0  0  0  0  0  0  0  0  0  0  0  0
    6.5625  -13.6622   26.1979 C   0  0  0  0  0  0  0  0  0  0  0  0
    5.8191  -12.6024   26.6761 C   0  0  0  0  0  0  0  0  0  0  0  0
    6.4333  -11.4030   26.9524 C   0  0  0  0  0  0  0  0  0  0  0  0
    7.7911  -11.2218   26.7636 C   0  0  0  0  0  0  0  0  0  0  0  0
    8.5308  -12.2911   26.2836 C   0  0  0  0  0  0  0  0  0  0  0  0
    7.9248  -13.4938   26.0063 C   0  0  0  0  0  0  0  0  0  0  0  0
    9.5482  -17.1800   26.4047 C   0  0  0  0  0  0  0  0  0  0  0  0
    8.6691  -18.0813   26.1438 O   0  0  0  0  0  0  0  0  0  0  0  0
    9.8025  -17.0252   27.7521 O   0  0  0  0  0  0  0  0  0  0  0  0
  1  5  1  0
  2  1  1  0
  2  3  1  0
  3  4  1  0
  5  4  1  0
  5  6  1  1
  6  7  2  0
  8  9  1  0
  9 10  2  0
  9 11  1  0
 12 11  1  6
 12 14  1  0
 12 13  1  0
 13  6  1  0
 14 16  1  0
 15 14  2  0
 16 17  1  0
 17 28  1  0
 18 19  1  0
 17 18  1  6
 19 27  1  0
 20 21  1  0
 20 19  2  0
 21 22  1  0
 22 27  2  0
 22 23  1  0
 23 24  2  0
 24 25  1  0
 26 25  2  0
 27 26  1  0
 28 29  2  0
 28 30  1  0
M  END
$$$$
