PNW.pdb
     RDKit          3D

 30 32  0  0  1  0  0  0  0  0999 V2000
    9.1413  -14.3335   18.5239 N   0  0  0  0  0  0  0  0  0  0  0  0
    7.8216  -14.4273   17.9772 C   0  0  0  0  0  0  0  0  0  0  0  0
    6.9358  -13.4934   18.7302 C   0  0  0  0  0  0  0  0  0  0  0  0
    7.7943  -13.0194   19.8586 C   0  0  0  0  0  0  0  0  0  0  0  0
    9.0362  -13.8634   19.8870 C   0  0  1  0  0  0  0  0  0  0  0  0
    8.9646  -14.9760   20.8499 C   0  0  0  0  0  0  0  0  0  0  0  0
    8.0746  -14.9811   21.7182 O   0  0  0  0  0  0  0  0  0  0  0  0
    9.0212  -18.8911   19.7003 N   0  0  0  0  0  0  0  0  0  0  0  0
   10.3774  -18.6757   20.0219 C   0  0  0  0  0  0  0  0  0  0  0  0
   11.2131  -19.0079   19.1112 O   0  0  0  0  0  0  0  0  0  0  0  0
   10.9209  -18.1243   21.2597 C   0  0  0  0  0  0  0  0  0  0  0  0
   10.0897  -17.0110   21.8580 C   0  0  2  0  0  0  0  0  0  0  0  0
    9.8763  -16.0443   20.8231 N   0  0  0  0  0  0  0  0  0  0  0  0
   10.5424  -16.5030   23.1275 C   0  0  0  0  0  0  0  0  0  0  0  0
   11.6646  -15.9744   23.2506 O   0  0  0  0  0  0  0  0  0  0  0  0
    9.7301  -16.5856   24.2791 N   0  0  0  0  0  0  0  0  0  0  0  0
   10.2705  -16.3489   25.6285 C   0  0  1  0  0  0  0  0  0  0  0  0
    9.9396  -14.9274   25.9496 C   0  0  0  0  0  0  0  0  0  0  0  0
    8.4887  -14.6550   25.9371 C   0  0  0  0  0  0  0  0  0  0  0  0
    7.5025  -15.6224   25.7395 C   0  0  0  0  0  0  0  0  0  0  0  0
    6.3011  -15.0414   25.8349 N   0  0  0  0  0  0  0  0  0  0  0  0
    6.4390  -13.7316   26.0861 C   0  0  0  0  0  0  0  0  0  0  0  0
    5.5652  -12.6787   26.2654 C   0  0  0  0  0  0  0  0  0  0  0  0
    6.0536  -11.4144   26.5006 C   0  0  0  0  0  0  0  0  0  0  0  0
    7.4115  -11.1604   26.5638 C   0  0  0  0  0  0  0  0  0  0  0  0
    8.2824  -12.2233   26.3832 C   0  0  0  0  0  0  0  0  0  0  0  0
    7.8024  -13.4904   26.1491 C   0  0  0  0  0  0  0  0  0  0  0  0
    9.8106  -17.3751   26.5331 C   0  0  0  0  0  0  0  0  0  0  0  0
    9.0745  -18.3303   26.0871 O   0  0  0  0  0  0  0  0  0  0  0  0
   10.0793  -17.4647   27.8836 O   0  0  0  0  0  0  0  0  0  0  0  0
  1  5  1  0
  2  1  1  0
  2  3  1  0
  3  4  1  0
  5  4  1  0
  5  6  1  1
  6  7  2  0
  8  9  1  0
  9 10  2  0
  9 11  1  0
 12 11  1  6
 12 14  1  0
 12 13  1  0
 13  6  1  0
 14 16  1  0
 15 14  2  0
 16 17  1  0
 17 28  1  0
 18 19  1  0
 17 18  1  1
 19 27  1  0
 20 21  1  0
 20 19  2  0
 21 22  1  0
 22 27  2  0
 22 23  1  0
 23 24  2  0
 24 25  1  0
 26 25  2  0
 27 26  1  0
 28 29  2  0
 28 30  1  0
M  END
$$$$
