PNW.pdb
     RDKit          3D

 30 32  0  0  1  0  0  0  0  0999 V2000
    9.3011  -14.2656   17.8400 N   0  0  0  0  0  0  0  0  0  0  0  0
    7.9902  -14.4848   17.3084 C   0  0  0  0  0  0  0  0  0  0  0  0
    7.0126  -13.7381   18.1513 C   0  0  0  0  0  0  0  0  0  0  0  0
    7.8332  -13.2503   19.3018 C   0  0  0  0  0  0  0  0  0  0  0  0
    9.1731  -13.9257   19.2393 C   0  0  1  0  0  0  0  0  0  0  0  0
    9.2700  -15.1128   20.1061 C   0  0  0  0  0  0  0  0  0  0  0  0
    8.2687  -15.4983   20.7345 O   0  0  0  0  0  0  0  0  0  0  0  0
   12.3652  -17.7407   18.0481 N   0  0  0  0  0  0  0  0  0  0  0  0
   11.5770  -18.1103   19.1577 C   0  0  0  0  0  0  0  0  0  0  0  0
   10.5538  -18.8290   18.8843 O   0  0  0  0  0  0  0  0  0  0  0  0
   11.7986  -17.7675   20.5594 C   0  0  0  0  0  0  0  0  0  0  0  0
   10.7107  -16.9088   21.1654 C   0  0  2  0  0  0  0  0  0  0  0  0
   10.4667  -15.8339   20.2511 N   0  0  0  0  0  0  0  0  0  0  0  0
   10.8942  -16.5467   22.5474 C   0  0  0  0  0  0  0  0  0  0  0  0
   11.3541  -17.3585   23.3741 O   0  0  0  0  0  0  0  0  0  0  0  0
   10.5592  -15.2577   23.0156 N   0  0  0  0  0  0  0  0  0  0  0  0
    9.7163  -15.0595   24.2068 C   0  0  1  0  0  0  0  0  0  0  0  0
    8.4166  -14.5282   23.6948 C   0  0  0  0  0  0  0  0  0  0  0  0
    7.4244  -14.3003   24.7639 C   0  0  0  0  0  0  0  0  0  0  0  0
    6.5667  -15.2776   25.2705 C   0  0  0  0  0  0  0  0  0  0  0  0
    5.8360  -14.7436   26.2559 N   0  0  0  0  0  0  0  0  0  0  0  0
    6.1653  -13.4556   26.4304 C   0  0  0  0  0  0  0  0  0  0  0  0
    5.7389  -12.4485   27.2720 C   0  0  0  0  0  0  0  0  0  0  0  0
    6.2947  -11.1938   27.1768 C   0  0  0  0  0  0  0  0  0  0  0  0
    7.2809  -10.9045   26.2517 C   0  0  0  0  0  0  0  0  0  0  0  0
    7.7041  -11.9215   25.4105 C   0  0  0  0  0  0  0  0  0  0  0  0
    7.1547  -13.1788   25.5001 C   0  0  0  0  0  0  0  0  0  0  0  0
    9.6926  -16.2634   25.0024 C   0  0  0  0  0  0  0  0  0  0  0  0
    9.4166  -17.3878   24.4432 O   0  0  0  0  0  0  0  0  0  0  0  0
    9.9456  -16.3627   26.3553 O   0  0  0  0  0  0  0  0  0  0  0  0
  1  5  1  0
  2  1  1  0
  2  3  1  0
  3  4  1  0
  5  4  1  0
  5  6  1  1
  6  7  2  0
  8  9  1  0
  9 10  2  0
  9 11  1  0
 12 11  1  6
 12 14  1  0
 12 13  1  0
 13  6  1  0
 14 16  1  0
 15 14  2  0
 16 17  1  0
 17 28  1  0
 18 19  1  0
 17 18  1  6
 19 27  1  0
 20 21  1  0
 20 19  2  0
 21 22  1  0
 22 27  2  0
 22 23  1  0
 23 24  2  0
 24 25  1  0
 26 25  2  0
 27 26  1  0
 28 29  2  0
 28 30  1  0
M  END
$$$$
