PNW.pdb
     RDKit          3D

 30 32  0  0  1  0  0  0  0  0999 V2000
    8.7947  -14.4184   18.3900 N   0  0  0  0  0  0  0  0  0  0  0  0
    7.4266  -14.0846   18.1332 C   0  0  0  0  0  0  0  0  0  0  0  0
    7.0569  -12.9276   18.9982 C   0  0  0  0  0  0  0  0  0  0  0  0
    8.2401  -12.7618   19.8969 C   0  0  0  0  0  0  0  0  0  0  0  0
    9.1342  -13.9548   19.7167 C   0  0  1  0  0  0  0  0  0  0  0  0
    8.9277  -14.9989   20.7352 C   0  0  0  0  0  0  0  0  0  0  0  0
    8.0355  -14.8562   21.5895 O   0  0  0  0  0  0  0  0  0  0  0  0
    8.6976  -19.2614   19.4741 N   0  0  0  0  0  0  0  0  0  0  0  0
    9.9065  -18.6706   19.8968 C   0  0  0  0  0  0  0  0  0  0  0  0
   10.7114  -18.3438   18.9568 O   0  0  0  0  0  0  0  0  0  0  0  0
   10.3310  -18.3966   21.2665 C   0  0  0  0  0  0  0  0  0  0  0  0
    9.7668  -17.1176   21.8445 C   0  0  2  0  0  0  0  0  0  0  0  0
    9.7115  -16.1638   20.7776 N   0  0  0  0  0  0  0  0  0  0  0  0
   10.3638  -16.6689   23.0761 C   0  0  0  0  0  0  0  0  0  0  0  0
   11.5072  -16.1730   23.0986 O   0  0  0  0  0  0  0  0  0  0  0  0
    9.6743  -16.7750   24.3034 N   0  0  0  0  0  0  0  0  0  0  0  0
   10.3073  -16.4133   25.5830 C   0  0  1  0  0  0  0  0  0  0  0  0
    9.9978  -14.9658   25.7888 C   0  0  0  0  0  0  0  0  0  0  0  0
    8.5513  -14.6958   25.9088 C   0  0  0  0  0  0  0  0  0  0  0  0
    7.5540  -15.6684   25.8250 C   0  0  0  0  0  0  0  0  0  0  0  0
    6.3652  -15.0873   26.0225 N   0  0  0  0  0  0  0  0  0  0  0  0
    6.5221  -13.7726   26.2335 C   0  0  0  0  0  0  0  0  0  0  0  0
    5.6657  -12.7175   26.4742 C   0  0  0  0  0  0  0  0  0  0  0  0
    6.1700  -11.4481   26.6369 C   0  0  0  0  0  0  0  0  0  0  0  0
    7.5269  -11.1909   26.5657 C   0  0  0  0  0  0  0  0  0  0  0  0
    8.3804  -12.2560   26.3243 C   0  0  0  0  0  0  0  0  0  0  0  0
    7.8845  -13.5281   26.1620 C   0  0  0  0  0  0  0  0  0  0  0  0
    9.9131  -17.3459   26.6115 C   0  0  0  0  0  0  0  0  0  0  0  0
    9.0923  -18.2939   26.3272 O   0  0  0  0  0  0  0  0  0  0  0  0
   10.3315  -17.3486   27.9264 O   0  0  0  0  0  0  0  0  0  0  0  0
  1  5  1  0
  2  1  1  0
  2  3  1  0
  3  4  1  0
  5  4  1  0
  5  6  1  1
  6  7  2  0
  8  9  1  0
  9 10  2  0
  9 11  1  0
 12 11  1  6
 12 14  1  0
 12 13  1  0
 13  6  1  0
 14 16  1  0
 15 14  2  0
 16 17  1  0
 17 28  1  0
 18 19  1  0
 17 18  1  1
 19 27  1  0
 20 21  1  0
 20 19  2  0
 21 22  1  0
 22 27  2  0
 22 23  1  0
 23 24  2  0
 24 25  1  0
 26 25  2  0
 27 26  1  0
 28 29  2  0
 28 30  1  0
M  END
$$$$
