PNW.pdb
     RDKit          3D

 30 32  0  0  1  0  0  0  0  0999 V2000
    8.9725  -13.0418   19.6517 N   0  0  0  0  0  0  0  0  0  0  0  0
    8.7309  -13.4394   18.2979 C   0  0  0  0  0  0  0  0  0  0  0  0
    7.3669  -14.0372   18.2221 C   0  0  0  0  0  0  0  0  0  0  0  0
    6.9387  -14.1310   19.6514 C   0  0  0  0  0  0  0  0  0  0  0  0
    8.1311  -13.8385   20.5163 C   0  0  1  0  0  0  0  0  0  0  0  0
    8.8198  -15.0509   20.9913 C   0  0  0  0  0  0  0  0  0  0  0  0
    8.1535  -16.0023   21.4350 O   0  0  0  0  0  0  0  0  0  0  0  0
   13.0444  -13.9056   20.0013 N   0  0  0  0  0  0  0  0  0  0  0  0
   13.0731  -15.0705   20.7958 C   0  0  0  0  0  0  0  0  0  0  0  0
   13.8936  -15.0407   21.7776 O   0  0  0  0  0  0  0  0  0  0  0  0
   12.2818  -16.2851   20.6218 C   0  0  0  0  0  0  0  0  0  0  0  0
   10.9876  -16.2972   21.4046 C   0  0  2  0  0  0  0  0  0  0  0  0
   10.2189  -15.1730   20.9617 N   0  0  0  0  0  0  0  0  0  0  0  0
   11.1179  -16.4645   22.8294 C   0  0  0  0  0  0  0  0  0  0  0  0
   11.9683  -17.2351   23.3160 O   0  0  0  0  0  0  0  0  0  0  0  0
   10.2858  -15.7605   23.7267 N   0  0  0  0  0  0  0  0  0  0  0  0
   10.3533  -15.9789   25.1815 C   0  0  1  0  0  0  0  0  0  0  0  0
    9.9703  -14.6741   25.8014 C   0  0  0  0  0  0  0  0  0  0  0  0
    8.5176  -14.4159   25.7528 C   0  0  0  0  0  0  0  0  0  0  0  0
    7.5653  -15.3286   25.2973 C   0  0  0  0  0  0  0  0  0  0  0  0
    6.3486  -14.7889   25.4337 N   0  0  0  0  0  0  0  0  0  0  0  0
    6.4442  -13.5587   25.9580 C   0  0  0  0  0  0  0  0  0  0  0  0
    5.5397  -12.5722   26.2945 C   0  0  0  0  0  0  0  0  0  0  0  0
    5.9869  -11.3805   26.8162 C   0  0  0  0  0  0  0  0  0  0  0  0
    7.3329  -11.1351   27.0169 C   0  0  0  0  0  0  0  0  0  0  0  0
    8.2348  -12.1310   26.6769 C   0  0  0  0  0  0  0  0  0  0  0  0
    7.7960  -13.3256   26.1563 C   0  0  0  0  0  0  0  0  0  0  0  0
    9.5936  -17.1519   25.5419 C   0  0  0  0  0  0  0  0  0  0  0  0
    8.7848  -17.6708   24.6876 O   0  0  0  0  0  0  0  0  0  0  0  0
    9.6324  -17.8210   26.7481 O   0  0  0  0  0  0  0  0  0  0  0  0
  1  5  1  0
  2  1  1  0
  2  3  1  0
  3  4  1  0
  5  4  1  0
  5  6  1  6
  6  7  2  0
  8  9  1  0
  9 10  2  0
  9 11  1  0
 12 11  1  6
 12 14  1  0
 12 13  1  0
 13  6  1  0
 14 16  1  0
 15 14  2  0
 16 17  1  0
 17 28  1  0
 18 19  1  0
 17 18  1  1
 19 27  1  0
 20 21  1  0
 20 19  2  0
 21 22  1  0
 22 27  2  0
 22 23  1  0
 23 24  2  0
 24 25  1  0
 26 25  2  0
 27 26  1  0
 28 29  2  0
 28 30  1  0
M  END
$$$$
