PNW.pdb
     RDKit          3D

 30 32  0  0  1  0  0  0  0  0999 V2000
    9.2712  -14.2251   18.3331 N   0  0  0  0  0  0  0  0  0  0  0  0
    8.1130  -14.5959   17.5778 C   0  0  0  0  0  0  0  0  0  0  0  0
    6.9513  -13.8125   18.0879 C   0  0  0  0  0  0  0  0  0  0  0  0
    7.4886  -13.1286   19.3039 C   0  0  0  0  0  0  0  0  0  0  0  0
    8.8347  -13.7175   19.6145 C   0  0  1  0  0  0  0  0  0  0  0  0
    8.7875  -14.7747   20.6393 C   0  0  0  0  0  0  0  0  0  0  0  0
    8.0482  -14.6382   21.6296 O   0  0  0  0  0  0  0  0  0  0  0  0
    9.1110  -19.7003   22.3436 N   0  0  0  0  0  0  0  0  0  0  0  0
   10.0701  -19.3949   21.3557 C   0  0  0  0  0  0  0  0  0  0  0  0
   10.5946  -20.4070   20.7739 O   0  0  0  0  0  0  0  0  0  0  0  0
   10.5209  -18.0722   20.9329 C   0  0  0  0  0  0  0  0  0  0  0  0
    9.7554  -16.9283   21.5604 C   0  0  2  0  0  0  0  0  0  0  0  0
    9.5569  -15.9456   20.5378 N   0  0  0  0  0  0  0  0  0  0  0  0
   10.2636  -16.4499   22.8204 C   0  0  0  0  0  0  0  0  0  0  0  0
   11.1604  -15.5856   22.8709 O   0  0  0  0  0  0  0  0  0  0  0  0
    9.7633  -16.9435   24.0448 N   0  0  0  0  0  0  0  0  0  0  0  0
   10.2193  -16.4118   25.3402 C   0  0  1  0  0  0  0  0  0  0  0  0
    9.8870  -14.9550   25.3153 C   0  0  0  0  0  0  0  0  0  0  0  0
    8.4555  -14.6849   25.5547 C   0  0  0  0  0  0  0  0  0  0  0  0
    7.4399  -15.6351   25.4404 C   0  0  0  0  0  0  0  0  0  0  0  0
    6.2752  -15.0655   25.7707 N   0  0  0  0  0  0  0  0  0  0  0  0
    6.4656  -13.7797   26.0994 C   0  0  0  0  0  0  0  0  0  0  0  0
    5.6428  -12.7458   26.4976 C   0  0  0  0  0  0  0  0  0  0  0  0
    6.1761  -11.5035   26.7513 C   0  0  0  0  0  0  0  0  0  0  0  0
    7.5296  -11.2531   26.6181 C   0  0  0  0  0  0  0  0  0  0  0  0
    8.3492  -12.2968   26.2183 C   0  0  0  0  0  0  0  0  0  0  0  0
    7.8243  -13.5419   25.9642 C   0  0  0  0  0  0  0  0  0  0  0  0
    9.6892  -17.2118   26.4180 C   0  0  0  0  0  0  0  0  0  0  0  0
   10.0362  -16.9544   27.6290 O   0  0  0  0  0  0  0  0  0  0  0  0
    8.8095  -18.2689   26.3048 O   0  0  0  0  0  0  0  0  0  0  0  0
  1  5  1  0
  2  1  1  0
  2  3  1  0
  3  4  1  0
  5  4  1  0
  5  6  1  1
  6  7  2  0
  8  9  1  0
  9 10  2  0
  9 11  1  0
 12 11  1  6
 12 14  1  0
 12 13  1  0
 13  6  1  0
 14 16  1  0
 15 14  2  0
 16 17  1  0
 17 28  1  0
 18 19  1  0
 17 18  1  1
 19 27  1  0
 20 21  1  0
 20 19  2  0
 21 22  1  0
 22 27  2  0
 22 23  1  0
 23 24  2  0
 24 25  1  0
 26 25  2  0
 27 26  1  0
 28 29  2  0
 28 30  1  0
M  END
$$$$
