PNW.pdb
     RDKit          3D

 30 32  0  0  1  0  0  0  0  0999 V2000
    9.2714  -14.4323   18.5745 N   0  0  0  0  0  0  0  0  0  0  0  0
    8.0973  -14.5713   17.7673 C   0  0  0  0  0  0  0  0  0  0  0  0
    7.0847  -13.5842   18.2404 C   0  0  0  0  0  0  0  0  0  0  0  0
    7.6896  -13.0223   19.4868 C   0  0  0  0  0  0  0  0  0  0  0  0
    8.8847  -13.8586   19.8440 C   0  0  1  0  0  0  0  0  0  0  0  0
    8.5938  -14.8936   20.8510 C   0  0  0  0  0  0  0  0  0  0  0  0
    7.8983  -14.6089   21.8416 O   0  0  0  0  0  0  0  0  0  0  0  0
    9.5939  -18.8693   18.6379 N   0  0  0  0  0  0  0  0  0  0  0  0
    9.0826  -18.8493   19.9522 C   0  0  0  0  0  0  0  0  0  0  0  0
    7.8730  -19.2499   20.0727 O   0  0  0  0  0  0  0  0  0  0  0  0
    9.7723  -18.4284   21.1682 C   0  0  0  0  0  0  0  0  0  0  0  0
    9.2180  -17.1645   21.7874 C   0  0  2  0  0  0  0  0  0  0  0  0
    9.0795  -16.2062   20.7321 N   0  0  0  0  0  0  0  0  0  0  0  0
    9.8786  -16.7103   22.9841 C   0  0  0  0  0  0  0  0  0  0  0  0
   10.8762  -15.9649   22.9301 O   0  0  0  0  0  0  0  0  0  0  0  0
    9.4190  -17.0939   24.2626 N   0  0  0  0  0  0  0  0  0  0  0  0
   10.0482  -16.5922   25.4961 C   0  0  1  0  0  0  0  0  0  0  0  0
    9.8312  -15.1136   25.4845 C   0  0  0  0  0  0  0  0  0  0  0  0
    8.4479  -14.7300   25.8292 C   0  0  0  0  0  0  0  0  0  0  0  0
    7.3579  -15.6014   25.8185 C   0  0  0  0  0  0  0  0  0  0  0  0
    6.2696  -14.9381   26.2255 N   0  0  0  0  0  0  0  0  0  0  0  0
    6.5818  -13.6649   26.5066 C   0  0  0  0  0  0  0  0  0  0  0  0
    5.8736  -12.5637   26.9430 C   0  0  0  0  0  0  0  0  0  0  0  0
    6.5174  -11.3616   27.1234 C   0  0  0  0  0  0  0  0  0  0  0  0
    7.8708  -11.2183   26.8779 C   0  0  0  0  0  0  0  0  0  0  0  0
    8.5749  -12.3290   26.4405 C   0  0  0  0  0  0  0  0  0  0  0  0
    7.9393  -13.5347   26.2590 C   0  0  0  0  0  0  0  0  0  0  0  0
    9.5718  -17.3404   26.6345 C   0  0  0  0  0  0  0  0  0  0  0  0
   10.0777  -17.1191   27.7957 O   0  0  0  0  0  0  0  0  0  0  0  0
    8.5892  -18.3093   26.6319 O   0  0  0  0  0  0  0  0  0  0  0  0
  1  5  1  0
  2  1  1  0
  2  3  1  0
  3  4  1  0
  5  4  1  0
  5  6  1  1
  6  7  2  0
  8  9  1  0
  9 10  2  0
  9 11  1  0
 12 11  1  6
 12 14  1  0
 12 13  1  0
 13  6  1  0
 14 16  1  0
 15 14  2  0
 16 17  1  0
 17 28  1  0
 18 19  1  0
 17 18  1  1
 19 27  1  0
 20 21  1  0
 20 19  2  0
 21 22  1  0
 22 27  2  0
 22 23  1  0
 23 24  2  0
 24 25  1  0
 26 25  2  0
 27 26  1  0
 28 29  2  0
 28 30  1  0
M  END
$$$$
