PNW.pdb
     RDKit          3D

 30 32  0  0  1  0  0  0  0  0999 V2000
    9.4223  -14.3765   18.1566 N   0  0  0  0  0  0  0  0  0  0  0  0
    8.2101  -14.6484   17.4453 C   0  0  0  0  0  0  0  0  0  0  0  0
    7.1803  -13.6621   17.8815 C   0  0  0  0  0  0  0  0  0  0  0  0
    7.8305  -12.9489   19.0233 C   0  0  0  0  0  0  0  0  0  0  0  0
    9.0848  -13.6917   19.3844 C   0  0  1  0  0  0  0  0  0  0  0  0
    8.9063  -14.6286   20.5070 C   0  0  0  0  0  0  0  0  0  0  0  0
    8.3746  -14.2330   21.5591 O   0  0  0  0  0  0  0  0  0  0  0  0
    8.6821  -20.3722   21.9795 N   0  0  0  0  0  0  0  0  0  0  0  0
    9.6687  -19.3746   21.8366 C   0  0  0  0  0  0  0  0  0  0  0  0
   10.6608  -19.4701   22.6395 O   0  0  0  0  0  0  0  0  0  0  0  0
    9.6799  -18.2646   20.8884 C   0  0  0  0  0  0  0  0  0  0  0  0
    9.2862  -16.9336   21.4898 C   0  0  2  0  0  0  0  0  0  0  0  0
    9.3203  -15.9688   20.4320 N   0  0  0  0  0  0  0  0  0  0  0  0
    9.9613  -16.5725   22.7099 C   0  0  0  0  0  0  0  0  0  0  0  0
   11.1122  -16.0939   22.6961 O   0  0  0  0  0  0  0  0  0  0  0  0
    9.3425  -16.7479   23.9667 N   0  0  0  0  0  0  0  0  0  0  0  0
   10.0567  -16.4827   25.2270 C   0  0  1  0  0  0  0  0  0  0  0  0
    9.7846  -15.0487   25.5484 C   0  0  0  0  0  0  0  0  0  0  0  0
    8.3520  -14.7679   25.7683 C   0  0  0  0  0  0  0  0  0  0  0  0
    7.3306  -15.7096   25.6370 C   0  0  0  0  0  0  0  0  0  0  0  0
    6.1659  -15.1316   25.9525 N   0  0  0  0  0  0  0  0  0  0  0  0
    6.3619  -13.8482   26.2875 C   0  0  0  0  0  0  0  0  0  0  0  0
    5.5419  -12.8089   26.6770 C   0  0  0  0  0  0  0  0  0  0  0  0
    6.0815  -11.5716   26.9417 C   0  0  0  0  0  0  0  0  0  0  0  0
    7.4386  -11.3317   26.8282 C   0  0  0  0  0  0  0  0  0  0  0  0
    8.2555  -12.3808   26.4371 C   0  0  0  0  0  0  0  0  0  0  0  0
    7.7243  -13.6210   26.1721 C   0  0  0  0  0  0  0  0  0  0  0  0
    9.7086  -17.4781   26.2122 C   0  0  0  0  0  0  0  0  0  0  0  0
    8.7585  -18.3088   25.9663 O   0  0  0  0  0  0  0  0  0  0  0  0
   10.3009  -17.6604   27.4452 O   0  0  0  0  0  0  0  0  0  0  0  0
  1  5  1  0
  2  1  1  0
  2  3  1  0
  3  4  1  0
  5  4  1  0
  5  6  1  1
  6  7  2  0
  8  9  1  0
  9 10  2  0
  9 11  1  0
 12 11  1  6
 12 14  1  0
 12 13  1  0
 13  6  1  0
 14 16  1  0
 15 14  2  0
 16 17  1  0
 17 28  1  0
 18 19  1  0
 17 18  1  1
 19 27  1  0
 20 21  1  0
 20 19  2  0
 21 22  1  0
 22 27  2  0
 22 23  1  0
 23 24  2  0
 24 25  1  0
 26 25  2  0
 27 26  1  0
 28 29  2  0
 28 30  1  0
M  END
$$$$
