SCE.pdb
     RDKit          3D

 22 21  0  0  1  0  0  0  0  0999 V2000
   21.7037   -7.1847  -12.5429 O   0  0  0  0  0  0  0  0  0  0  0  0
   20.4105   -6.8005  -12.2888 C   0  0  0  0  0  0  0  0  0  0  0  0
   19.4856   -8.0176  -12.1561 C   0  0  2  0  0  0  0  0  0  0  0  0
   19.4021   -8.6250  -13.4499 N   0  0  0  0  0  0  0  0  0  0  0  0
   18.1579   -7.5226  -11.6681 C   0  0  0  0  0  0  0  0  0  0  0  0
   17.4006   -6.9909  -12.5176 O   0  0  0  0  0  0  0  0  0  0  0  0
   17.7444   -7.6293  -10.3366 N   0  0  0  0  0  0  0  0  0  0  0  0
   16.4436   -7.2270   -9.8550 C   0  0  1  0  0  0  0  0  0  0  0  0
   15.7903   -8.3023   -8.9928 C   0  0  0  0  0  0  0  0  0  0  0  0
   14.1843   -7.7651   -8.4006 S   0  0  0  0  0  0  0  0  0  0  0  0
   16.4938   -5.9970   -9.0564 C   0  0  0  0  0  0  0  0  0  0  0  0
   17.1985   -5.9776   -7.9911 O   0  0  0  0  0  0  0  0  0  0  0  0
   15.8162   -4.7900   -9.3594 N   0  0  0  0  0  0  0  0  0  0  0  0
   15.9368   -3.5834   -8.5130 C   0  0  1  0  0  0  0  0  0  0  0  0
   17.1101   -2.7942   -8.9266 C   0  0  0  0  0  0  0  0  0  0  0  0
   17.2765   -1.4990   -8.2245 C   0  0  0  0  0  0  0  0  0  0  0  0
   18.3934   -0.6525   -8.6590 C   0  0  0  0  0  0  0  0  0  0  0  0
   18.2437    0.3103   -9.4900 O   0  0  0  0  0  0  0  0  0  0  0  0
   14.6698   -2.9100   -8.4891 C   0  0  0  0  0  0  0  0  0  0  0  0
   13.8006   -3.1287   -9.3701 O   0  0  0  0  0  0  0  0  0  0  0  0
   19.6908   -0.8362   -8.2001 O   0  0  0  0  0  0  0  0  0  0  0  0
   14.3543   -1.9999   -7.4821 O   0  0  0  0  0  0  0  0  0  0  0  0
  2  1  1  0
  3  2  1  0
  3  5  1  0
  3  4  1  6
  5  7  1  0
  5  6  2  0
  7  8  1  0
  8  9  1  1
 10  9  1  0
 11 12  2  0
 11  8  1  0
 13 11  1  0
 14 13  1  0
 14 15  1  6
 15 16  1  0
 17 21  1  0
 17 16  1  0
 18 17  2  0
 19 14  1  0
 20 19  2  0
 22 19  1  0
M  END
$$$$
