SCE.pdb
     RDKit          3D

 22 21  0  0  1  0  0  0  0  0999 V2000
   22.6121  -12.3054  -21.2092 O   0  0  0  0  0  0  0  0  0  0  0  0
   22.6061  -11.6840  -19.9852 C   0  0  0  0  0  0  0  0  0  0  0  0
   23.8876  -11.9923  -19.1996 C   0  0  2  0  0  0  0  0  0  0  0  0
   23.8582  -13.3872  -18.8783 N   0  0  0  0  0  0  0  0  0  0  0  0
   23.8875  -11.1224  -17.9793 C   0  0  0  0  0  0  0  0  0  0  0  0
   22.8789  -11.1871  -17.2334 O   0  0  0  0  0  0  0  0  0  0  0  0
   24.9423  -10.2651  -17.6514 N   0  0  0  0  0  0  0  0  0  0  0  0
   24.9880   -9.4523  -16.4583 C   0  0  1  0  0  0  0  0  0  0  0  0
   26.4163   -9.1023  -16.0537 C   0  0  0  0  0  0  0  0  0  0  0  0
   27.3239  -10.5695  -15.5613 S   0  0  0  0  0  0  0  0  0  0  0  0
   24.2541   -8.1904  -16.6074 C   0  0  0  0  0  0  0  0  0  0  0  0
   24.3764   -7.5263  -17.6918 O   0  0  0  0  0  0  0  0  0  0  0  0
   23.3958   -7.6171  -15.6366 N   0  0  0  0  0  0  0  0  0  0  0  0
   22.5999   -6.4005  -15.9070 C   0  0  1  0  0  0  0  0  0  0  0  0
   21.2030   -6.7676  -16.1978 C   0  0  0  0  0  0  0  0  0  0  0  0
   20.2881   -5.6250  -16.4332 C   0  0  0  0  0  0  0  0  0  0  0  0
   18.8994   -5.9523  -16.7753 C   0  0  0  0  0  0  0  0  0  0  0  0
   17.9018   -5.4852  -16.1219 O   0  0  0  0  0  0  0  0  0  0  0  0
   22.8228   -5.4601  -14.8463 C   0  0  0  0  0  0  0  0  0  0  0  0
   23.2987   -5.8261  -13.7422 O   0  0  0  0  0  0  0  0  0  0  0  0
   18.5693   -6.7915  -17.8309 O   0  0  0  0  0  0  0  0  0  0  0  0
   22.5310   -4.1069  -15.0073 O   0  0  0  0  0  0  0  0  0  0  0  0
  2  1  1  0
  3  2  1  0
  3  5  1  0
  3  4  1  1
  5  7  1  0
  5  6  2  0
  7  8  1  0
  8  9  1  6
 10  9  1  0
 11 12  2  0
 11  8  1  0
 13 11  1  0
 14 13  1  0
 14 15  1  1
 15 16  1  0
 17 21  1  0
 17 16  1  0
 18 17  2  0
 19 14  1  0
 20 19  2  0
 22 19  1  0
M  END
$$$$
