SCE.pdb
     RDKit          3D

 22 21  0  0  1  0  0  0  0  0999 V2000
   21.0063  -11.7512  -20.5574 O   0  0  0  0  0  0  0  0  0  0  0  0
   21.0435  -11.3311  -19.2510 C   0  0  0  0  0  0  0  0  0  0  0  0
   22.3557  -11.7449  -18.5718 C   0  0  2  0  0  0  0  0  0  0  0  0
   22.3204  -13.1683  -18.4215 N   0  0  0  0  0  0  0  0  0  0  0  0
   22.4260  -11.0307  -17.2562 C   0  0  0  0  0  0  0  0  0  0  0  0
   21.6328  -11.4098  -16.3589 O   0  0  0  0  0  0  0  0  0  0  0  0
   23.3194   -9.9860  -17.0000 N   0  0  0  0  0  0  0  0  0  0  0  0
   23.3607   -9.2362  -15.7663 C   0  0  1  0  0  0  0  0  0  0  0  0
   24.7795   -9.0959  -15.2243 C   0  0  0  0  0  0  0  0  0  0  0  0
   25.8821   -8.4276  -16.4718 S   0  0  0  0  0  0  0  0  0  0  0  0
   22.8119   -7.8829  -15.9104 C   0  0  0  0  0  0  0  0  0  0  0  0
   23.0387   -7.2332  -16.9866 O   0  0  0  0  0  0  0  0  0  0  0  0
   22.0303   -7.2037  -14.9432 N   0  0  0  0  0  0  0  0  0  0  0  0
   21.5221   -5.8322  -15.1609 C   0  0  1  0  0  0  0  0  0  0  0  0
   20.0733   -5.7849  -14.8973 C   0  0  0  0  0  0  0  0  0  0  0  0
   19.2190   -6.3336  -15.9775 C   0  0  0  0  0  0  0  0  0  0  0  0
   17.7890   -6.4732  -15.6801 C   0  0  0  0  0  0  0  0  0  0  0  0
   16.8873   -6.3942  -16.5862 O   0  0  0  0  0  0  0  0  0  0  0  0
   22.3506   -4.9139  -14.4333 C   0  0  0  0  0  0  0  0  0  0  0  0
   23.2153   -5.3237  -13.6186 O   0  0  0  0  0  0  0  0  0  0  0  0
   17.3130   -6.7001  -14.3958 O   0  0  0  0  0  0  0  0  0  0  0  0
   22.2340   -3.5370  -14.6135 O   0  0  0  0  0  0  0  0  0  0  0  0
  2  1  1  0
  3  2  1  0
  3  5  1  0
  3  4  1  1
  5  7  1  0
  5  6  2  0
  7  8  1  0
  8  9  1  6
 10  9  1  0
 11 12  2  0
 11  8  1  0
 13 11  1  0
 14 13  1  0
 14 15  1  1
 15 16  1  0
 17 21  1  0
 17 16  1  0
 18 17  2  0
 19 14  1  0
 20 19  2  0
 22 19  1  0
M  END
$$$$
