SCE.pdb
     RDKit          3D

 22 21  0  0  1  0  0  0  0  0999 V2000
   14.9376  -10.7242  -16.9424 O   0  0  0  0  0  0  0  0  0  0  0  0
   15.7798  -10.1419  -16.0281 C   0  0  0  0  0  0  0  0  0  0  0  0
   17.1043  -10.9099  -15.9254 C   0  0  2  0  0  0  0  0  0  0  0  0
   16.8432  -12.0990  -15.1719 N   0  0  0  0  0  0  0  0  0  0  0  0
   18.0951  -10.0098  -15.2516 C   0  0  0  0  0  0  0  0  0  0  0  0
   17.7339   -9.4670  -14.1779 O   0  0  0  0  0  0  0  0  0  0  0  0
   19.3725   -9.7603  -15.7626 N   0  0  0  0  0  0  0  0  0  0  0  0
   20.3297   -8.8647  -15.1563 C   0  0  1  0  0  0  0  0  0  0  0  0
   21.7170   -9.4895  -15.0503 C   0  0  0  0  0  0  0  0  0  0  0  0
   22.7952   -8.4925  -14.0197 S   0  0  0  0  0  0  0  0  0  0  0  0
   20.4724   -7.6063  -15.8975 C   0  0  0  0  0  0  0  0  0  0  0  0
   20.4225   -7.6293  -17.1737 O   0  0  0  0  0  0  0  0  0  0  0  0
   20.6664   -6.3272  -15.3194 N   0  0  0  0  0  0  0  0  0  0  0  0
   20.7154   -5.0930  -16.1324 C   0  0  1  0  0  0  0  0  0  0  0  0
   19.4007   -4.8445  -16.7492 C   0  0  0  0  0  0  0  0  0  0  0  0
   18.3385   -4.4074  -15.8119 C   0  0  0  0  0  0  0  0  0  0  0  0
   16.9526   -4.6589  -16.2229 C   0  0  0  0  0  0  0  0  0  0  0  0
   16.1233   -5.3014  -15.4883 O   0  0  0  0  0  0  0  0  0  0  0  0
   21.2745   -4.0391  -15.3349 C   0  0  0  0  0  0  0  0  0  0  0  0
   21.5863   -4.2291  -14.1325 O   0  0  0  0  0  0  0  0  0  0  0  0
   16.4431   -4.2183  -17.4370 O   0  0  0  0  0  0  0  0  0  0  0  0
   21.5024   -2.7723  -15.8690 O   0  0  0  0  0  0  0  0  0  0  0  0
  2  1  1  0
  3  2  1  0
  3  5  1  0
  3  4  1  1
  5  7  1  0
  5  6  2  0
  7  8  1  0
  8  9  1  6
 10  9  1  0
 11 12  2  0
 11  8  1  0
 13 11  1  0
 14 13  1  0
 14 15  1  1
 15 16  1  0
 17 21  1  0
 17 16  1  0
 18 17  2  0
 19 14  1  0
 20 19  2  0
 22 19  1  0
M  END
$$$$
