SCE.pdb
     RDKit          3D

 22 21  0  0  1  0  0  0  0  0999 V2000
   22.7889  -15.3838  -14.3225 O   0  0  0  0  0  0  0  0  0  0  0  0
   22.3848  -14.2273  -14.9418 C   0  0  0  0  0  0  0  0  0  0  0  0
   21.4289  -14.5249  -16.1047 C   0  0  2  0  0  0  0  0  0  0  0  0
   22.1994  -15.1629  -17.1292 N   0  0  0  0  0  0  0  0  0  0  0  0
   20.8468  -13.2192  -16.5540 C   0  0  0  0  0  0  0  0  0  0  0  0
   21.4738  -12.5915  -17.4433 O   0  0  0  0  0  0  0  0  0  0  0  0
   19.6624  -12.6901  -16.0321 N   0  0  0  0  0  0  0  0  0  0  0  0
   19.0929  -11.4241  -16.4307 C   0  0  1  0  0  0  0  0  0  0  0  0
   17.5875  -11.5153  -16.6582 C   0  0  0  0  0  0  0  0  0  0  0  0
   16.9009   -9.9111  -17.0752 S   0  0  0  0  0  0  0  0  0  0  0  0
   19.3221  -10.3660  -15.4402 C   0  0  0  0  0  0  0  0  0  0  0  0
   19.0921  -10.6101  -14.2076 O   0  0  0  0  0  0  0  0  0  0  0  0
   19.7882   -9.0584  -15.7245 N   0  0  0  0  0  0  0  0  0  0  0  0
   19.9979   -8.0478  -14.6656 C   0  0  1  0  0  0  0  0  0  0  0  0
   20.9914   -7.0541  -15.1084 C   0  0  0  0  0  0  0  0  0  0  0  0
   21.3042   -5.9938  -14.1205 C   0  0  0  0  0  0  0  0  0  0  0  0
   22.2372   -4.9464  -14.5511 C   0  0  0  0  0  0  0  0  0  0  0  0
   23.0623   -4.3874  -13.7468 O   0  0  0  0  0  0  0  0  0  0  0  0
   18.7191   -7.5521  -14.2434 C   0  0  0  0  0  0  0  0  0  0  0  0
   18.4315   -7.4506  -13.0242 O   0  0  0  0  0  0  0  0  0  0  0  0
   22.2907   -4.4876  -15.8604 O   0  0  0  0  0  0  0  0  0  0  0  0
   17.7566   -7.1547  -15.1695 O   0  0  0  0  0  0  0  0  0  0  0  0
  2  1  1  0
  3  2  1  0
  3  5  1  0
  3  4  1  6
  5  7  1  0
  5  6  2  0
  7  8  1  0
  8  9  1  1
 10  9  1  0
 11 12  2  0
 11  8  1  0
 13 11  1  0
 14 13  1  0
 14 15  1  6
 15 16  1  0
 17 21  1  0
 17 16  1  0
 18 17  2  0
 19 14  1  0
 20 19  2  0
 22 19  1  0
M  END
$$$$
