SCE.pdb
     RDKit          3D

 22 21  0  0  1  0  0  0  0  0999 V2000
   27.6829  -10.5636  -15.2357 O   0  0  0  0  0  0  0  0  0  0  0  0
   26.4571  -10.0155  -15.5209 C   0  0  0  0  0  0  0  0  0  0  0  0
   25.6248  -10.9489  -16.4101 C   0  0  2  0  0  0  0  0  0  0  0  0
   26.2862  -11.0217  -17.6778 N   0  0  0  0  0  0  0  0  0  0  0  0
   24.2493  -10.3632  -16.5135 C   0  0  0  0  0  0  0  0  0  0  0  0
   23.8840   -9.9632  -17.6469 O   0  0  0  0  0  0  0  0  0  0  0  0
   23.3823  -10.2500  -15.4223 N   0  0  0  0  0  0  0  0  0  0  0  0
   22.0301   -9.7497  -15.5072 C   0  0  1  0  0  0  0  0  0  0  0  0
   21.1386  -10.3078  -14.4027 C   0  0  0  0  0  0  0  0  0  0  0  0
   20.9248  -12.0801  -14.5816 S   0  0  0  0  0  0  0  0  0  0  0  0
   21.9644   -8.2861  -15.4245 C   0  0  0  0  0  0  0  0  0  0  0  0
   22.6073   -7.6880  -14.4967 O   0  0  0  0  0  0  0  0  0  0  0  0
   21.2351   -7.4435  -16.2998 N   0  0  0  0  0  0  0  0  0  0  0  0
   21.2650   -5.9697  -16.1834 C   0  0  1  0  0  0  0  0  0  0  0  0
   21.5092   -5.3656  -17.5048 C   0  0  0  0  0  0  0  0  0  0  0  0
   21.5893   -3.8853  -17.5148 C   0  0  0  0  0  0  0  0  0  0  0  0
   21.8657   -3.2489  -18.8077 C   0  0  0  0  0  0  0  0  0  0  0  0
   22.0923   -3.9242  -19.8720 O   0  0  0  0  0  0  0  0  0  0  0  0
   20.0940   -5.5407  -15.4735 C   0  0  0  0  0  0  0  0  0  0  0  0
   19.0283   -6.2055  -15.5155 O   0  0  0  0  0  0  0  0  0  0  0  0
   21.9013   -1.8703  -18.9678 O   0  0  0  0  0  0  0  0  0  0  0  0
   20.1011   -4.3793  -14.7032 O   0  0  0  0  0  0  0  0  0  0  0  0
  2  1  1  0
  3  2  1  0
  3  5  1  0
  3  4  1  6
  5  7  1  0
  5  6  2  0
  7  8  1  0
  8  9  1  1
 10  9  1  0
 11 12  2  0
 11  8  1  0
 13 11  1  0
 14 13  1  0
 14 15  1  6
 15 16  1  0
 17 21  1  0
 17 16  1  0
 18 17  2  0
 19 14  1  0
 20 19  2  0
 22 19  1  0
M  END
$$$$
