SCE.pdb
     RDKit          3D

 22 21  0  0  1  0  0  0  0  0999 V2000
   17.4694  -11.5707  -19.9229 O   0  0  0  0  0  0  0  0  0  0  0  0
   17.7982  -11.2657  -18.6255 C   0  0  0  0  0  0  0  0  0  0  0  0
   18.8410  -12.2458  -18.0718 C   0  0  2  0  0  0  0  0  0  0  0  0
   18.1395  -13.4339  -17.6893 N   0  0  0  0  0  0  0  0  0  0  0  0
   19.5142  -11.5783  -16.9112 C   0  0  0  0  0  0  0  0  0  0  0  0
   18.9078  -11.5998  -15.8113 O   0  0  0  0  0  0  0  0  0  0  0  0
   20.7595  -10.9498  -17.0076 N   0  0  0  0  0  0  0  0  0  0  0  0
   21.4179  -10.2783  -15.9114 C   0  0  1  0  0  0  0  0  0  0  0  0
   22.8839  -10.6802  -15.7864 C   0  0  0  0  0  0  0  0  0  0  0  0
   23.6856   -9.7848  -14.4543 S   0  0  0  0  0  0  0  0  0  0  0  0
   21.3744   -8.8170  -16.0377 C   0  0  0  0  0  0  0  0  0  0  0  0
   21.7558   -8.2775  -17.1309 O   0  0  0  0  0  0  0  0  0  0  0  0
   20.9372   -7.9163  -15.0350 N   0  0  0  0  0  0  0  0  0  0  0  0
   20.9342   -6.4514  -15.2371 C   0  0  1  0  0  0  0  0  0  0  0  0
   19.5492   -5.9623  -15.3517 C   0  0  0  0  0  0  0  0  0  0  0  0
   19.4101   -4.4923  -15.4849 C   0  0  0  0  0  0  0  0  0  0  0  0
   18.0442   -3.9661  -15.5867 C   0  0  0  0  0  0  0  0  0  0  0  0
   17.0140   -4.7267  -15.6069 O   0  0  0  0  0  0  0  0  0  0  0  0
   21.7614   -5.8470  -14.2323 C   0  0  0  0  0  0  0  0  0  0  0  0
   22.0630   -6.4650  -13.1804 O   0  0  0  0  0  0  0  0  0  0  0  0
   17.7728   -2.6070  -15.6688 O   0  0  0  0  0  0  0  0  0  0  0  0
   22.2688   -4.5591  -14.3930 O   0  0  0  0  0  0  0  0  0  0  0  0
  2  1  1  0
  3  2  1  0
  3  5  1  0
  3  4  1  1
  5  7  1  0
  5  6  2  0
  7  8  1  0
  8  9  1  6
 10  9  1  0
 11 12  2  0
 11  8  1  0
 13 11  1  0
 14 13  1  0
 14 15  1  1
 15 16  1  0
 17 21  1  0
 17 16  1  0
 18 17  2  0
 19 14  1  0
 20 19  2  0
 22 19  1  0
M  END
$$$$
