MEG.pdb
     RDKit          3D

 22 21  0  0  1  0  0  0  0  0999 V2000
    8.4636  -11.9707   26.7785 C   0  0  0  0  0  0  0  0  0  0  0  0
    6.7098  -12.3859   27.0586 S   0  0  0  0  0  0  0  0  0  0  0  0
    6.2391  -13.7255   25.9307 C   0  0  0  0  0  0  0  0  0  0  0  0
    7.3796  -14.7050   25.7577 C   0  0  0  0  0  0  0  0  0  0  0  0
    7.0721  -15.7563   24.7276 C   0  0  2  0  0  0  0  0  0  0  0  0
    5.8821  -16.4661   25.0866 N   0  0  0  0  0  0  0  0  0  0  0  0
    8.2024  -16.6892   24.5006 C   0  0  0  0  0  0  0  0  0  0  0  0
    8.2582  -17.8404   24.9862 O   0  0  0  0  0  0  0  0  0  0  0  0
    9.2733  -16.2585   23.6947 N   0  0  0  0  0  0  0  0  0  0  0  0
   10.4754  -17.0727   23.4275 C   0  0  1  0  0  0  0  0  0  0  0  0
   11.0665  -16.6701   22.1172 C   0  0  0  0  0  0  0  0  0  0  0  0
   10.4856  -17.4246   20.9649 C   0  0  0  0  0  0  0  0  0  0  0  0
   10.9162  -16.7968   19.6525 C   0  0  0  0  0  0  0  0  0  0  0  0
   12.1365  -16.8246   19.3684 O   0  0  0  0  0  0  0  0  0  0  0  0
   11.3524  -16.9943   24.5937 C   0  0  0  0  0  0  0  0  0  0  0  0
   12.5562  -16.6404   24.4367 O   0  0  0  0  0  0  0  0  0  0  0  0
   10.0081  -16.2162   18.7997 O   0  0  0  0  0  0  0  0  0  0  0  0
   10.9367  -17.2873   25.9042 N   0  0  0  0  0  0  0  0  0  0  0  0
   11.8767  -17.2570   27.0422 C   0  0  0  0  0  0  0  0  0  0  0  0
   11.1989  -17.5757   28.2987 C   0  0  0  0  0  0  0  0  0  0  0  0
    9.9789  -17.8710   28.2845 O   0  0  0  0  0  0  0  0  0  0  0  0
   11.8499  -17.5668   29.5215 O   0  0  0  0  0  0  0  0  0  0  0  0
  2  1  1  0
  3  2  1  0
  4  3  1  0
  4  5  1  0
  5  6  1  1
  7  5  1  0
  8  7  2  0
  9  7  1  0
 10  9  1  0
 10 11  1  6
 11 12  1  0
 12 13  1  0
 13 17  1  0
 14 13  2  0
 15 10  1  0
 16 15  2  0
 18 15  1  0
 19 18  1  0
 20 22  1  0
 20 19  1  0
 21 20  2  0
M  END
$$$$
