MEG.pdb
     RDKit          3D

 22 21  0  0  1  0  0  0  0  0999 V2000
    5.4156  -10.8594   26.7593 C   0  0  0  0  0  0  0  0  0  0  0  0
    6.7600  -12.0904   26.8211 S   0  0  0  0  0  0  0  0  0  0  0  0
    6.3267  -13.4835   25.7442 C   0  0  0  0  0  0  0  0  0  0  0  0
    7.4050  -14.5446   25.7817 C   0  0  0  0  0  0  0  0  0  0  0  0
    7.0783  -15.7158   24.8972 C   0  0  2  0  0  0  0  0  0  0  0  0
    5.8545  -16.3269   25.3190 N   0  0  0  0  0  0  0  0  0  0  0  0
    8.1760  -16.7106   24.8286 C   0  0  0  0  0  0  0  0  0  0  0  0
    8.2642  -17.6980   25.5911 O   0  0  0  0  0  0  0  0  0  0  0  0
    9.1757  -16.5369   23.8527 N   0  0  0  0  0  0  0  0  0  0  0  0
   10.3450  -17.4269   23.7117 C   0  0  1  0  0  0  0  0  0  0  0  0
   11.0481  -17.1235   22.4303 C   0  0  0  0  0  0  0  0  0  0  0  0
   12.2416  -17.9950   22.2056 C   0  0  0  0  0  0  0  0  0  0  0  0
   12.8815  -17.6782   20.8668 C   0  0  0  0  0  0  0  0  0  0  0  0
   13.9124  -18.3168   20.5504 O   0  0  0  0  0  0  0  0  0  0  0  0
   11.1415  -17.3368   24.9335 C   0  0  0  0  0  0  0  0  0  0  0  0
   11.4803  -16.1977   25.3655 O   0  0  0  0  0  0  0  0  0  0  0  0
   12.3567  -16.7270   20.0249 O   0  0  0  0  0  0  0  0  0  0  0  0
   11.5598  -18.4543   25.6769 N   0  0  0  0  0  0  0  0  0  0  0  0
   12.2898  -18.3097   26.9520 C   0  0  0  0  0  0  0  0  0  0  0  0
   12.5407  -19.6115   27.5700 C   0  0  0  0  0  0  0  0  0  0  0  0
   12.1428  -20.6546   26.9959 O   0  0  0  0  0  0  0  0  0  0  0  0
   13.2066  -19.7493   28.7770 O   0  0  0  0  0  0  0  0  0  0  0  0
  2  1  1  0
  3  2  1  0
  4  3  1  0
  4  5  1  0
  5  6  1  1
  7  5  1  0
  8  7  2  0
  9  7  1  0
 10  9  1  0
 10 11  1  6
 11 12  1  0
 12 13  1  0
 13 17  1  0
 14 13  2  0
 15 10  1  0
 16 15  2  0
 18 15  1  0
 19 18  1  0
 20 22  1  0
 20 19  1  0
 21 20  2  0
M  END
$$$$
