MEG.pdb
     RDKit          3D

 22 21  0  0  1  0  0  0  0  0999 V2000
    8.7576  -13.2581   18.7432 C   0  0  0  0  0  0  0  0  0  0  0  0
    7.6632  -12.7408   20.1075 S   0  0  0  0  0  0  0  0  0  0  0  0
    7.9463  -13.8306   21.5289 C   0  0  0  0  0  0  0  0  0  0  0  0
    8.3587  -15.2125   21.0701 C   0  0  0  0  0  0  0  0  0  0  0  0
    8.5951  -16.1458   22.2250 C   0  0  2  0  0  0  0  0  0  0  0  0
    9.3645  -15.4914   23.2392 N   0  0  0  0  0  0  0  0  0  0  0  0
    9.2287  -17.4223   21.8145 C   0  0  0  0  0  0  0  0  0  0  0  0
    8.6503  -18.2929   21.1278 O   0  0  0  0  0  0  0  0  0  0  0  0
   10.5542  -17.6711   22.2183 N   0  0  0  0  0  0  0  0  0  0  0  0
   11.2965  -18.9007   21.8771 C   0  0  1  0  0  0  0  0  0  0  0  0
   12.4142  -18.5638   20.9468 C   0  0  0  0  0  0  0  0  0  0  0  0
   11.9349  -18.0016   19.6473 C   0  0  0  0  0  0  0  0  0  0  0  0
   13.0998  -17.8090   18.6943 C   0  0  0  0  0  0  0  0  0  0  0  0
   13.1941  -18.5986   17.7257 O   0  0  0  0  0  0  0  0  0  0  0  0
   11.6599  -19.5782   23.1198 C   0  0  0  0  0  0  0  0  0  0  0  0
   12.3020  -20.6661   23.0635 O   0  0  0  0  0  0  0  0  0  0  0  0
   14.0231  -16.8078   18.8786 O   0  0  0  0  0  0  0  0  0  0  0  0
   11.3409  -19.0882   24.3983 N   0  0  0  0  0  0  0  0  0  0  0  0
   11.7730  -19.7839   25.6267 C   0  0  0  0  0  0  0  0  0  0  0  0
   10.6616  -20.5053   26.2464 C   0  0  0  0  0  0  0  0  0  0  0  0
    9.5623  -20.5805   25.6450 O   0  0  0  0  0  0  0  0  0  0  0  0
   10.7670  -21.1184   27.4843 O   0  0  0  0  0  0  0  0  0  0  0  0
  2  1  1  0
  3  2  1  0
  4  3  1  0
  4  5  1  0
  5  6  1  1
  7  5  1  0
  8  7  2  0
  9  7  1  0
 10  9  1  0
 10 11  1  1
 11 12  1  0
 12 13  1  0
 13 17  1  0
 14 13  2  0
 15 10  1  0
 16 15  2  0
 18 15  1  0
 19 18  1  0
 20 22  1  0
 20 19  1  0
 21 20  2  0
M  END
$$$$
