MEG.pdb
     RDKit          3D

 22 21  0  0  1  0  0  0  0  0999 V2000
    8.2414  -11.6149   19.8162 C   0  0  0  0  0  0  0  0  0  0  0  0
    7.4818  -13.1654   19.2281 S   0  0  0  0  0  0  0  0  0  0  0  0
    7.1607  -14.2367   20.6554 C   0  0  0  0  0  0  0  0  0  0  0  0
    8.3427  -14.2381   21.6004 C   0  0  0  0  0  0  0  0  0  0  0  0
    8.1169  -15.1311   22.7888 C   0  0  2  0  0  0  0  0  0  0  0  0
    6.9952  -14.6684   23.5481 N   0  0  0  0  0  0  0  0  0  0  0  0
    9.3207  -15.2681   23.6442 C   0  0  0  0  0  0  0  0  0  0  0  0
    9.9019  -14.3000   24.1817 O   0  0  0  0  0  0  0  0  0  0  0  0
    9.8405  -16.5576   23.8652 N   0  0  0  0  0  0  0  0  0  0  0  0
   11.1295  -16.8162   24.5368 C   0  0  1  0  0  0  0  0  0  0  0  0
   11.0944  -18.1647   25.1761 C   0  0  0  0  0  0  0  0  0  0  0  0
   12.3387  -18.4721   25.9454 C   0  0  0  0  0  0  0  0  0  0  0  0
   11.9909  -18.9345   27.3480 C   0  0  0  0  0  0  0  0  0  0  0  0
   11.4638  -20.0647   27.4727 O   0  0  0  0  0  0  0  0  0  0  0  0
   12.2047  -16.5737   23.5774 C   0  0  0  0  0  0  0  0  0  0  0  0
   12.1072  -17.0487   22.4096 O   0  0  0  0  0  0  0  0  0  0  0  0
   12.2411  -18.1493   28.4480 O   0  0  0  0  0  0  0  0  0  0  0  0
   13.3600  -15.8288   23.8715 N   0  0  0  0  0  0  0  0  0  0  0  0
   14.4415  -15.6500   22.8825 C   0  0  0  0  0  0  0  0  0  0  0  0
   15.7460  -15.9755   23.4584 C   0  0  0  0  0  0  0  0  0  0  0  0
   15.8470  -16.9438   24.2509 O   0  0  0  0  0  0  0  0  0  0  0  0
   16.8924  -15.2545   23.1660 O   0  0  0  0  0  0  0  0  0  0  0  0
  2  1  1  0
  3  2  1  0
  4  3  1  0
  4  5  1  0
  5  6  1  1
  7  5  1  0
  8  7  2  0
  9  7  1  0
 10  9  1  0
 10 11  1  6
 11 12  1  0
 12 13  1  0
 13 17  1  0
 14 13  2  0
 15 10  1  0
 16 15  2  0
 18 15  1  0
 19 18  1  0
 20 22  1  0
 20 19  1  0
 21 20  2  0
M  END
$$$$
