MEG.pdb
     RDKit          3D

 22 21  0  0  1  0  0  0  0  0999 V2000
    5.8249  -11.1337   26.7823 C   0  0  0  0  0  0  0  0  0  0  0  0
    7.1106  -12.0826   25.9030 S   0  0  0  0  0  0  0  0  0  0  0  0
    6.3541  -12.9099   24.4777 C   0  0  0  0  0  0  0  0  0  0  0  0
    7.3841  -13.7193   23.7199 C   0  0  0  0  0  0  0  0  0  0  0  0
    7.8094  -14.9466   24.4775 C   0  0  2  0  0  0  0  0  0  0  0  0
    8.2484  -14.5880   25.7919 N   0  0  0  0  0  0  0  0  0  0  0  0
    8.8445  -15.7341   23.7651 C   0  0  0  0  0  0  0  0  0  0  0  0
    8.6862  -16.2094   22.6192 O   0  0  0  0  0  0  0  0  0  0  0  0
   10.0744  -15.9613   24.4115 N   0  0  0  0  0  0  0  0  0  0  0  0
   11.1166  -16.8684   23.8917 C   0  0  1  0  0  0  0  0  0  0  0  0
   12.3963  -16.1160   23.7348 C   0  0  0  0  0  0  0  0  0  0  0  0
   13.5023  -16.9634   23.1933 C   0  0  0  0  0  0  0  0  0  0  0  0
   14.6913  -16.1002   22.8149 C   0  0  0  0  0  0  0  0  0  0  0  0
   15.3106  -15.5267   23.7412 O   0  0  0  0  0  0  0  0  0  0  0  0
   11.1556  -18.0579   24.7397 C   0  0  0  0  0  0  0  0  0  0  0  0
   11.7223  -19.1032   24.3092 O   0  0  0  0  0  0  0  0  0  0  0  0
   15.0823  -15.9467   21.5062 O   0  0  0  0  0  0  0  0  0  0  0  0
   10.5982  -18.1161   26.0289 N   0  0  0  0  0  0  0  0  0  0  0  0
   10.6984  -19.3294   26.8642 C   0  0  0  0  0  0  0  0  0  0  0  0
   11.7442  -19.1907   27.8775 C   0  0  0  0  0  0  0  0  0  0  0  0
   12.6074  -18.2876   27.7545 O   0  0  0  0  0  0  0  0  0  0  0  0
   11.8280  -20.0217   28.9828 O   0  0  0  0  0  0  0  0  0  0  0  0
  2  1  1  0
  3  2  1  0
  4  3  1  0
  4  5  1  0
  5  6  1  1
  7  5  1  0
  8  7  2  0
  9  7  1  0
 10  9  1  0
 10 11  1  1
 11 12  1  0
 12 13  1  0
 13 17  1  0
 14 13  2  0
 15 10  1  0
 16 15  2  0
 18 15  1  0
 19 18  1  0
 20 22  1  0
 20 19  1  0
 21 20  2  0
M  END
$$$$
