MEG.pdb
     RDKit          3D

 22 21  0  0  1  0  0  0  0  0999 V2000
    7.2286  -11.3283   27.2515 C   0  0  0  0  0  0  0  0  0  0  0  0
    5.6776  -11.9723   26.5399 S   0  0  0  0  0  0  0  0  0  0  0  0
    6.0670  -13.3858   25.4729 C   0  0  0  0  0  0  0  0  0  0  0  0
    7.5592  -13.4873   25.2423 C   0  0  0  0  0  0  0  0  0  0  0  0
    7.9121  -14.6047   24.3000 C   0  0  2  0  0  0  0  0  0  0  0  0
    6.9256  -15.6395   24.3697 N   0  0  0  0  0  0  0  0  0  0  0  0
    9.2725  -15.1472   24.5328 C   0  0  0  0  0  0  0  0  0  0  0  0
   10.3078  -14.4456   24.5288 O   0  0  0  0  0  0  0  0  0  0  0  0
    9.4098  -16.5278   24.7717 N   0  0  0  0  0  0  0  0  0  0  0  0
   10.7124  -17.2133   24.8833 C   0  0  1  0  0  0  0  0  0  0  0  0
   10.6295  -18.2687   25.9358 C   0  0  0  0  0  0  0  0  0  0  0  0
   11.2601  -17.8501   27.2248 C   0  0  0  0  0  0  0  0  0  0  0  0
   11.1788  -18.9738   28.2411 C   0  0  0  0  0  0  0  0  0  0  0  0
   11.7007  -18.7801   29.3639 O   0  0  0  0  0  0  0  0  0  0  0  0
   11.1185  -17.6492   23.5490 C   0  0  0  0  0  0  0  0  0  0  0  0
   10.4235  -18.5166   22.9460 O   0  0  0  0  0  0  0  0  0  0  0  0
   10.5575  -20.1647   27.9499 O   0  0  0  0  0  0  0  0  0  0  0  0
   12.2499  -17.1547   22.8768 N   0  0  0  0  0  0  0  0  0  0  0  0
   12.1440  -16.0962   21.8531 C   0  0  0  0  0  0  0  0  0  0  0  0
   12.6620  -16.5521   20.5633 C   0  0  0  0  0  0  0  0  0  0  0  0
   11.8736  -17.0481   19.7217 O   0  0  0  0  0  0  0  0  0  0  0  0
   14.0016  -16.4609   20.2222 O   0  0  0  0  0  0  0  0  0  0  0  0
  2  1  1  0
  3  2  1  0
  4  3  1  0
  4  5  1  0
  5  6  1  1
  7  5  1  0
  8  7  2  0
  9  7  1  0
 10  9  1  0
 10 11  1  1
 11 12  1  0
 12 13  1  0
 13 17  1  0
 14 13  2  0
 15 10  1  0
 16 15  2  0
 18 15  1  0
 19 18  1  0
 20 22  1  0
 20 19  1  0
 21 20  2  0
M  END
$$$$
