MEG.pdb
     RDKit          3D

 22 21  0  0  1  0  0  0  0  0999 V2000
   11.2249   -6.1751   46.1008 C   0  0  0  0  0  0  0  0  0  0  0  0
    9.8718   -6.7205   47.1955 S   0  0  0  0  0  0  0  0  0  0  0  0
    8.3053   -6.6072   46.2892 C   0  0  0  0  0  0  0  0  0  0  0  0
    7.9245   -7.9518   45.7085 C   0  0  0  0  0  0  0  0  0  0  0  0
    8.2066   -8.0324   44.2338 C   0  0  2  0  0  0  0  0  0  0  0  0
    7.4672   -7.0263   43.5339 N   0  0  0  0  0  0  0  0  0  0  0  0
    7.9437   -9.3782   43.6691 C   0  0  0  0  0  0  0  0  0  0  0  0
    6.8969   -9.6786   43.0541 O   0  0  0  0  0  0  0  0  0  0  0  0
    8.9242  -10.3751   43.8324 N   0  0  0  0  0  0  0  0  0  0  0  0
    8.8053  -11.7384   43.2787 C   0  0  1  0  0  0  0  0  0  0  0  0
   10.0689  -12.0983   42.5701 C   0  0  0  0  0  0  0  0  0  0  0  0
   10.1789  -11.4580   41.2238 C   0  0  0  0  0  0  0  0  0  0  0  0
   11.4566  -11.8978   40.5335 C   0  0  0  0  0  0  0  0  0  0  0  0
   12.2409  -12.6332   41.1774 O   0  0  0  0  0  0  0  0  0  0  0  0
    8.3773  -12.6344   44.3508 C   0  0  0  0  0  0  0  0  0  0  0  0
    8.6997  -12.3661   45.5437 O   0  0  0  0  0  0  0  0  0  0  0  0
   11.7517  -11.5085   39.2488 O   0  0  0  0  0  0  0  0  0  0  0  0
    7.6119  -13.7945   44.1396 N   0  0  0  0  0  0  0  0  0  0  0  0
    7.2314  -14.6871   45.2524 C   0  0  0  0  0  0  0  0  0  0  0  0
    8.3362  -15.5702   45.6253 C   0  0  0  0  0  0  0  0  0  0  0  0
    9.4486  -15.4410   45.0581 O   0  0  0  0  0  0  0  0  0  0  0  0
    8.2106  -16.5572   46.5894 O   0  0  0  0  0  0  0  0  0  0  0  0
  2  1  1  0
  3  2  1  0
  4  3  1  0
  4  5  1  0
  5  6  1  6
  7  5  1  0
  8  7  2  0
  9  7  1  0
 10  9  1  0
 10 11  1  1
 11 12  1  0
 12 13  1  0
 13 17  1  0
 14 13  2  0
 15 10  1  0
 16 15  2  0
 18 15  1  0
 19 18  1  0
 20 22  1  0
 20 19  1  0
 21 20  2  0
M  END
$$$$
