MEG.pdb
     RDKit          3D

 22 21  0  0  1  0  0  0  0  0999 V2000
    7.1940  -11.8907   27.9842 C   0  0  0  0  0  0  0  0  0  0  0  0
    6.4008  -11.4228   26.4099 S   0  0  0  0  0  0  0  0  0  0  0  0
    5.9838  -12.9316   25.4946 C   0  0  0  0  0  0  0  0  0  0  0  0
    7.1131  -13.9357   25.5751 C   0  0  0  0  0  0  0  0  0  0  0  0
    6.7845  -15.2165   24.8590 C   0  0  2  0  0  0  0  0  0  0  0  0
    5.5784  -15.7805   25.3844 N   0  0  0  0  0  0  0  0  0  0  0  0
    7.8944  -16.1994   24.8969 C   0  0  0  0  0  0  0  0  0  0  0  0
    8.0149  -17.0737   25.7829 O   0  0  0  0  0  0  0  0  0  0  0  0
    8.8677  -16.1482   23.8811 N   0  0  0  0  0  0  0  0  0  0  0  0
   10.0277  -17.0586   23.8127 C   0  0  1  0  0  0  0  0  0  0  0  0
   10.7626  -16.8312   22.5334 C   0  0  0  0  0  0  0  0  0  0  0  0
   11.9105  -17.7712   22.3513 C   0  0  0  0  0  0  0  0  0  0  0  0
   12.6058  -17.5049   21.0293 C   0  0  0  0  0  0  0  0  0  0  0  0
   13.5009  -16.6279   21.0103 O   0  0  0  0  0  0  0  0  0  0  0  0
   10.7987  -16.9146   25.0457 C   0  0  0  0  0  0  0  0  0  0  0  0
   11.4154  -15.8325   25.2640 O   0  0  0  0  0  0  0  0  0  0  0  0
   12.2726  -18.1953   19.8885 O   0  0  0  0  0  0  0  0  0  0  0  0
   10.8977  -17.9172   26.0261 N   0  0  0  0  0  0  0  0  0  0  0  0
   11.7301  -17.7437   27.2330 C   0  0  0  0  0  0  0  0  0  0  0  0
   11.5245  -18.8386   28.1810 C   0  0  0  0  0  0  0  0  0  0  0  0
   12.0818  -18.7952   29.3050 O   0  0  0  0  0  0  0  0  0  0  0  0
   10.7319  -19.9375   27.8921 O   0  0  0  0  0  0  0  0  0  0  0  0
  2  1  1  0
  3  2  1  0
  4  3  1  0
  4  5  1  0
  5  6  1  1
  7  5  1  0
  8  7  2  0
  9  7  1  0
 10  9  1  0
 10 11  1  6
 11 12  1  0
 12 13  1  0
 13 17  1  0
 14 13  2  0
 15 10  1  0
 16 15  2  0
 18 15  1  0
 19 18  1  0
 20 22  1  0
 20 19  1  0
 21 20  2  0
M  END
$$$$
