NIQ.pdb
     RDKit          3D

 26 25  0  0  1  0  0  0  0  0999 V2000
   26.3771  -24.2412  -16.5593 N   0  0  0  0  0  0  0  0  0  0  0  0
   25.4647  -24.9293  -15.7371 C   0  0  0  0  0  0  0  0  0  0  0  0
   25.4918  -26.1724  -15.6895 O   0  0  0  0  0  0  0  0  0  0  0  0
   24.4845  -24.1829  -14.9385 C   0  0  0  0  0  0  0  0  0  0  0  0
   24.5856  -22.6976  -15.0980 C   0  0  2  0  0  0  0  0  0  0  0  0
   25.8758  -22.1666  -14.7941 N   0  0  0  0  0  0  0  0  0  0  0  0
   23.5266  -22.0966  -14.2069 C   0  0  0  0  0  0  0  0  0  0  0  0
   23.8416  -21.8415  -13.0219 O   0  0  0  0  0  0  0  0  0  0  0  0
   21.9021  -18.0443  -15.9992 C   0  0  0  0  0  0  0  0  0  0  0  0
   22.0714  -18.8759  -14.7781 C   0  0  0  0  0  0  0  0  0  0  0  0
   21.0011  -19.8198  -14.4297 C   0  0  2  0  0  0  0  0  0  0  0  0
   19.7773  -19.0733  -13.9154 C   0  0  0  0  0  0  0  0  0  0  0  0
   21.2929  -21.1011  -13.7621 C   0  0  2  0  0  0  0  0  0  0  0  0
   22.2398  -21.8229  -14.6503 N   0  0  0  0  0  0  0  0  0  0  0  0
   20.1987  -21.9857  -13.3867 C   0  0  0  0  0  0  0  0  0  0  0  0
   19.5548  -22.6713  -14.2677 O   0  0  0  0  0  0  0  0  0  0  0  0
   18.8816  -24.2914   -7.5622 N   0  0  0  0  0  0  0  0  0  0  0  0
   17.8352  -24.8018   -8.3781 C   0  0  0  0  0  0  0  0  0  0  0  0
   16.9879  -25.5721   -7.8050 O   0  0  0  0  0  0  0  0  0  0  0  0
   17.7120  -24.4662   -9.8121 C   0  0  0  0  0  0  0  0  0  0  0  0
   18.7549  -23.5610  -10.3589 C   0  0  0  0  0  0  0  0  0  0  0  0
   18.6225  -23.0790  -11.7625 C   0  0  2  0  0  0  0  0  0  0  0  0
   19.7601  -22.1770  -12.0577 N   0  0  0  0  0  0  0  0  0  0  0  0
   17.3578  -22.4518  -12.0618 C   0  0  0  0  0  0  0  0  0  0  0  0
   16.2025  -23.1189  -12.4981 O   0  0  0  0  0  0  0  0  0  0  0  0
   17.2157  -21.1860  -11.9400 O   0  0  0  0  0  0  0  0  0  0  0  0
  2  1  1  0
  2  3  2  0
  4  2  1  0
  5  7  1  0
  5  4  1  0
  5  6  1  1
  7  8  2  0
  9 10  1  0
 11 10  1  0
 11 12  1  1
 13 14  1  6
 13 11  1  0
 14  7  1  0
 15 13  1  0
 16 15  2  0
 18 20  1  0
 18 17  1  0
 19 18  2  0
 21 20  1  0
 22 23  1  0
 22 21  1  1
 23 15  1  0
 24 22  1  0
 25 24  1  0
 26 24  2  0
M  END
$$$$
