NIQ.pdb
     RDKit          3D

 26 25  0  0  1  0  0  0  0  0999 V2000
   16.3233  -12.5077  -17.9265 N   0  0  0  0  0  0  0  0  0  0  0  0
   16.0096  -11.6229  -16.8774 C   0  0  0  0  0  0  0  0  0  0  0  0
   14.8348  -11.2452  -16.7181 O   0  0  0  0  0  0  0  0  0  0  0  0
   17.0649  -11.1474  -15.9741 C   0  0  0  0  0  0  0  0  0  0  0  0
   18.4115  -11.7358  -16.2610 C   0  0  2  0  0  0  0  0  0  0  0  0
   18.5255  -13.1188  -15.9242 N   0  0  0  0  0  0  0  0  0  0  0  0
   19.4146  -10.9059  -15.4983 C   0  0  0  0  0  0  0  0  0  0  0  0
   19.1388  -10.6059  -14.3141 O   0  0  0  0  0  0  0  0  0  0  0  0
   25.4075  -10.4167  -15.1943 C   0  0  0  0  0  0  0  0  0  0  0  0
   24.1158   -9.7454  -14.8906 C   0  0  0  0  0  0  0  0  0  0  0  0
   22.8827  -10.3482  -15.4138 C   0  0  2  0  0  0  0  0  0  0  0  0
   23.1279  -10.9588  -16.7873 C   0  0  0  0  0  0  0  0  0  0  0  0
   21.5716   -9.7004  -15.2295 C   0  0  2  0  0  0  0  0  0  0  0  0
   20.6096  -10.4731  -16.0566 N   0  0  0  0  0  0  0  0  0  0  0  0
   21.4239   -8.2777  -15.5028 C   0  0  0  0  0  0  0  0  0  0  0  0
   21.1571   -7.8438  -16.6866 O   0  0  0  0  0  0  0  0  0  0  0  0
   18.7722   -4.5313  -17.2874 N   0  0  0  0  0  0  0  0  0  0  0  0
   19.0333   -3.5942  -16.2507 C   0  0  0  0  0  0  0  0  0  0  0  0
   18.6303   -2.3951  -16.4497 O   0  0  0  0  0  0  0  0  0  0  0  0
   19.7258   -3.9678  -14.9997 C   0  0  0  0  0  0  0  0  0  0  0  0
   20.0458   -5.4094  -14.8406 C   0  0  0  0  0  0  0  0  0  0  0  0
   21.4715   -5.8385  -14.8978 C   0  0  2  0  0  0  0  0  0  0  0  0
   21.5460   -7.2694  -14.5212 N   0  0  0  0  0  0  0  0  0  0  0  0
   22.3694   -5.0346  -14.1043 C   0  0  0  0  0  0  0  0  0  0  0  0
   23.0155   -3.8670  -14.5396 O   0  0  0  0  0  0  0  0  0  0  0  0
   22.6399   -5.3623  -12.8973 O   0  0  0  0  0  0  0  0  0  0  0  0
  2  1  1  0
  2  3  2  0
  4  2  1  0
  5  7  1  0
  5  4  1  0
  5  6  1  1
  7  8  2  0
  9 10  1  0
 11 10  1  0
 11 12  1  6
 13 14  1  6
 13 11  1  0
 14  7  1  0
 15 13  1  0
 16 15  2  0
 18 20  1  0
 18 17  1  0
 19 18  2  0
 21 20  1  0
 22 23  1  0
 22 21  1  1
 23 15  1  0
 24 22  1  0
 25 24  1  0
 26 24  2  0
M  END
$$$$
