NIQ.pdb
     RDKit          3D

 26 25  0  0  1  0  0  0  0  0999 V2000
   20.4249  -13.1614  -22.1053 N   0  0  0  0  0  0  0  0  0  0  0  0
   21.6397  -13.1957  -21.3947 C   0  0  0  0  0  0  0  0  0  0  0  0
   22.6132  -13.8122  -21.8643 O   0  0  0  0  0  0  0  0  0  0  0  0
   21.7579  -12.5063  -20.1037 C   0  0  0  0  0  0  0  0  0  0  0  0
   22.6833  -13.1855  -19.1424 C   0  0  2  0  0  0  0  0  0  0  0  0
   22.2556  -14.4889  -18.7459 N   0  0  0  0  0  0  0  0  0  0  0  0
   22.8128  -12.2696  -17.9504 C   0  0  0  0  0  0  0  0  0  0  0  0
   21.9384  -12.3519  -17.0576 O   0  0  0  0  0  0  0  0  0  0  0  0
   27.4561  -11.7205  -15.5513 C   0  0  0  0  0  0  0  0  0  0  0  0
   26.0184  -11.7783  -15.9268 C   0  0  0  0  0  0  0  0  0  0  0  0
   25.3122  -10.5114  -16.1586 C   0  0  2  0  0  0  0  0  0  0  0  0
   25.6754   -9.4934  -15.0856 C   0  0  0  0  0  0  0  0  0  0  0  0
   23.9106  -10.4843  -16.6141 C   0  0  2  0  0  0  0  0  0  0  0  0
   23.8500  -11.3568  -17.8148 N   0  0  0  0  0  0  0  0  0  0  0  0
   23.2683   -9.2089  -16.8996 C   0  0  0  0  0  0  0  0  0  0  0  0
   23.8021   -8.3502  -17.6987 O   0  0  0  0  0  0  0  0  0  0  0  0
   18.4578   -7.4993  -19.3951 N   0  0  0  0  0  0  0  0  0  0  0  0
   18.3891   -6.4424  -18.4468 C   0  0  0  0  0  0  0  0  0  0  0  0
   17.6093   -5.4678  -18.7331 O   0  0  0  0  0  0  0  0  0  0  0  0
   19.1641   -6.4540  -17.1885 C   0  0  0  0  0  0  0  0  0  0  0  0
   19.9972   -7.6603  -16.9504 C   0  0  0  0  0  0  0  0  0  0  0  0
   21.4518   -7.4856  -16.6791 C   0  0  2  0  0  0  0  0  0  0  0  0
   22.0298   -8.8095  -16.3503 N   0  0  0  0  0  0  0  0  0  0  0  0
   21.7565   -6.5075  -15.6629 C   0  0  0  0  0  0  0  0  0  0  0  0
   22.1108   -6.7969  -14.3359 O   0  0  0  0  0  0  0  0  0  0  0  0
   21.7162   -5.2572  -15.9320 O   0  0  0  0  0  0  0  0  0  0  0  0
  2  1  1  0
  2  3  2  0
  4  2  1  0
  5  7  1  0
  5  4  1  0
  5  6  1  1
  7  8  2  0
  9 10  1  0
 11 10  1  0
 11 12  1  1
 13 14  1  6
 13 11  1  0
 14  7  1  0
 15 13  1  0
 16 15  2  0
 18 20  1  0
 18 17  1  0
 19 18  2  0
 21 20  1  0
 22 23  1  0
 22 21  1  1
 23 15  1  0
 24 22  1  0
 25 24  1  0
 26 24  2  0
M  END
$$$$
