NIQ.pdb
     RDKit          3D

 26 25  0  0  1  0  0  0  0  0999 V2000
   28.9751  -17.7714  -16.7280 N   0  0  0  0  0  0  0  0  0  0  0  0
   27.5795  -17.5933  -16.6789 C   0  0  0  0  0  0  0  0  0  0  0  0
   27.0627  -16.6061  -17.2327 O   0  0  0  0  0  0  0  0  0  0  0  0
   26.7364  -18.5688  -15.9765 C   0  0  0  0  0  0  0  0  0  0  0  0
   27.5112  -19.6639  -15.3114 C   0  0  2  0  0  0  0  0  0  0  0  0
   28.2821  -20.4603  -16.2117 N   0  0  0  0  0  0  0  0  0  0  0  0
   26.5082  -20.5064  -14.5626 C   0  0  0  0  0  0  0  0  0  0  0  0
   26.0417  -21.5105  -15.1478 O   0  0  0  0  0  0  0  0  0  0  0  0
   25.4765  -20.0693   -8.8528 C   0  0  0  0  0  0  0  0  0  0  0  0
   25.1761  -19.9374  -10.3032 C   0  0  0  0  0  0  0  0  0  0  0  0
   25.4459  -21.0897  -11.1734 C   0  0  2  0  0  0  0  0  0  0  0  0
   26.7983  -21.7056  -10.8399 C   0  0  0  0  0  0  0  0  0  0  0  0
   25.0881  -21.0742  -12.6031 C   0  0  2  0  0  0  0  0  0  0  0  0
   26.0944  -20.2095  -13.2711 N   0  0  0  0  0  0  0  0  0  0  0  0
   23.7480  -20.6730  -13.0083 C   0  0  0  0  0  0  0  0  0  0  0  0
   23.4204  -19.4312  -13.1146 O   0  0  0  0  0  0  0  0  0  0  0  0
   21.1547  -19.1477  -17.0158 N   0  0  0  0  0  0  0  0  0  0  0  0
   19.9484  -19.8471  -16.7391 C   0  0  0  0  0  0  0  0  0  0  0  0
   18.8989  -19.4397  -17.3493 O   0  0  0  0  0  0  0  0  0  0  0  0
   19.8911  -20.9908  -15.8049 C   0  0  0  0  0  0  0  0  0  0  0  0
   21.1773  -21.3747  -15.1690 C   0  0  0  0  0  0  0  0  0  0  0  0
   21.3739  -21.0913  -13.7195 C   0  0  2  0  0  0  0  0  0  0  0  0
   22.7143  -21.5824  -13.3233 N   0  0  0  0  0  0  0  0  0  0  0  0
   20.3410  -21.6209  -12.8621 C   0  0  0  0  0  0  0  0  0  0  0  0
   19.1519  -20.9595  -12.5175 O   0  0  0  0  0  0  0  0  0  0  0  0
   20.4620  -22.7834  -12.3413 O   0  0  0  0  0  0  0  0  0  0  0  0
  2  1  1  0
  2  3  2  0
  4  2  1  0
  5  7  1  0
  5  4  1  0
  5  6  1  6
  7  8  2  0
  9 10  1  0
 11 10  1  0
 11 12  1  6
 13 14  1  6
 13 11  1  0
 14  7  1  0
 15 13  1  0
 16 15  2  0
 18 20  1  0
 18 17  1  0
 19 18  2  0
 21 20  1  0
 22 23  1  0
 22 21  1  6
 23 15  1  0
 24 22  1  0
 25 24  1  0
 26 24  2  0
M  END
$$$$
