NIQ.pdb
     RDKit          3D

 26 25  0  0  1  0  0  0  0  0999 V2000
   13.9381  -29.3021  -12.4297 N   0  0  0  0  0  0  0  0  0  0  0  0
   14.4302  -28.0362  -12.0593 C   0  0  0  0  0  0  0  0  0  0  0  0
   14.0868  -27.0275  -12.7019 O   0  0  0  0  0  0  0  0  0  0  0  0
   15.3453  -27.9063  -10.9185 C   0  0  0  0  0  0  0  0  0  0  0  0
   16.7041  -27.4008  -11.2928 C   0  0  2  0  0  0  0  0  0  0  0  0
   17.4937  -28.3410  -12.0219 N   0  0  0  0  0  0  0  0  0  0  0  0
   17.3838  -27.0019  -10.0062 C   0  0  0  0  0  0  0  0  0  0  0  0
   17.9658  -27.8992   -9.3548 O   0  0  0  0  0  0  0  0  0  0  0  0
   19.2529  -22.5003  -10.5121 C   0  0  0  0  0  0  0  0  0  0  0  0
   19.5464  -23.7396   -9.7444 C   0  0  0  0  0  0  0  0  0  0  0  0
   18.7374  -24.0226   -8.5514 C   0  0  2  0  0  0  0  0  0  0  0  0
   19.3277  -23.3312   -7.3295 C   0  0  0  0  0  0  0  0  0  0  0  0
   18.1617  -25.3581   -8.3117 C   0  0  2  0  0  0  0  0  0  0  0  0
   17.3842  -25.6974   -9.5311 N   0  0  0  0  0  0  0  0  0  0  0  0
   17.3467  -25.5916   -7.1276 C   0  0  0  0  0  0  0  0  0  0  0  0
   16.0695  -25.4202   -7.1449 O   0  0  0  0  0  0  0  0  0  0  0  0
   19.2275  -28.2457   -1.5610 N   0  0  0  0  0  0  0  0  0  0  0  0
   17.8719  -27.8811   -1.3366 C   0  0  0  0  0  0  0  0  0  0  0  0
   17.3947  -28.1418   -0.1772 O   0  0  0  0  0  0  0  0  0  0  0  0
   17.0441  -27.2285   -2.3724 C   0  0  0  0  0  0  0  0  0  0  0  0
   17.7440  -26.8710   -3.6326 C   0  0  0  0  0  0  0  0  0  0  0  0
   16.9700  -26.2097   -4.7206 C   0  0  2  0  0  0  0  0  0  0  0  0
   17.8645  -26.0254   -5.8871 N   0  0  0  0  0  0  0  0  0  0  0  0
   16.3389  -24.9702   -4.3360 C   0  0  0  0  0  0  0  0  0  0  0  0
   16.9308  -23.6996   -4.4086 O   0  0  0  0  0  0  0  0  0  0  0  0
   15.1423  -24.9641   -3.8827 O   0  0  0  0  0  0  0  0  0  0  0  0
  2  1  1  0
  2  3  2  0
  4  2  1  0
  5  7  1  0
  5  4  1  0
  5  6  1  1
  7  8  2  0
  9 10  1  0
 11 10  1  0
 11 12  1  1
 13 14  1  6
 13 11  1  0
 14  7  1  0
 15 13  1  0
 16 15  2  0
 18 20  1  0
 18 17  1  0
 19 18  2  0
 21 20  1  0
 22 23  1  0
 22 21  1  1
 23 15  1  0
 24 22  1  0
 25 24  1  0
 26 24  2  0
M  END
$$$$
