NIQ.pdb
     RDKit          3D

 26 25  0  0  1  0  0  0  0  0999 V2000
   22.8787  -10.8968  -22.3891 N   0  0  0  0  0  0  0  0  0  0  0  0
   22.1286   -9.7184  -22.2136 C   0  0  0  0  0  0  0  0  0  0  0  0
   22.0353   -8.9007  -23.1468 O   0  0  0  0  0  0  0  0  0  0  0  0
   21.4587   -9.4551  -20.9339 C   0  0  0  0  0  0  0  0  0  0  0  0
   21.7222  -10.4977  -19.8921 C   0  0  2  0  0  0  0  0  0  0  0  0
   21.1516  -11.7728  -20.1881 N   0  0  0  0  0  0  0  0  0  0  0  0
   21.1865   -9.9510  -18.5918 C   0  0  0  0  0  0  0  0  0  0  0  0
   19.9823  -10.1663  -18.3238 O   0  0  0  0  0  0  0  0  0  0  0  0
   23.8814  -11.0445  -14.3599 C   0  0  0  0  0  0  0  0  0  0  0  0
   22.8434  -10.6747  -15.3584 C   0  0  0  0  0  0  0  0  0  0  0  0
   22.3538   -9.2899  -15.3672 C   0  0  2  0  0  0  0  0  0  0  0  0
   22.0832   -8.8102  -13.9473 C   0  0  0  0  0  0  0  0  0  0  0  0
   21.4056   -8.8159  -16.3913 C   0  0  2  0  0  0  0  0  0  0  0  0
   21.9708   -9.2310  -17.7008 N   0  0  0  0  0  0  0  0  0  0  0  0
   21.0374   -7.4077  -16.4384 C   0  0  0  0  0  0  0  0  0  0  0  0
   21.9068   -6.4929  -16.6996 O   0  0  0  0  0  0  0  0  0  0  0  0
   15.1679   -5.0016  -17.2050 N   0  0  0  0  0  0  0  0  0  0  0  0
   15.9661   -3.8556  -16.9391 C   0  0  0  0  0  0  0  0  0  0  0  0
   15.3571   -2.7294  -16.9104 O   0  0  0  0  0  0  0  0  0  0  0  0
   17.4218   -3.9411  -16.6992 C   0  0  0  0  0  0  0  0  0  0  0  0
   17.9935   -5.3113  -16.6581 C   0  0  0  0  0  0  0  0  0  0  0  0
   19.4316   -5.4785  -16.3062 C   0  0  2  0  0  0  0  0  0  0  0  0
   19.7274   -6.9275  -16.2183 N   0  0  0  0  0  0  0  0  0  0  0  0
   19.8387   -4.7813  -15.1101 C   0  0  0  0  0  0  0  0  0  0  0  0
   20.3236   -3.4651  -15.0614 O   0  0  0  0  0  0  0  0  0  0  0  0
   19.7774   -5.3580  -13.9695 O   0  0  0  0  0  0  0  0  0  0  0  0
  2  1  1  0
  2  3  2  0
  4  2  1  0
  5  7  1  0
  5  4  1  0
  5  6  1  6
  7  8  2  0
  9 10  1  0
 11 10  1  0
 11 12  1  1
 13 14  1  6
 13 11  1  0
 14  7  1  0
 15 13  1  0
 16 15  2  0
 18 20  1  0
 18 17  1  0
 19 18  2  0
 21 20  1  0
 22 23  1  0
 22 21  1  1
 23 15  1  0
 24 22  1  0
 25 24  1  0
 26 24  2  0
M  END
$$$$
