NIQ.pdb
     RDKit          3D

 26 25  0  0  1  0  0  0  0  0999 V2000
   22.6457  -17.2665  -19.0882 N   0  0  0  0  0  0  0  0  0  0  0  0
   21.7898  -16.1599  -18.9308 C   0  0  0  0  0  0  0  0  0  0  0  0
   20.7474  -16.0841  -19.6060 O   0  0  0  0  0  0  0  0  0  0  0  0
   22.1257  -15.0988  -17.9732 C   0  0  0  0  0  0  0  0  0  0  0  0
   23.4171  -15.3281  -17.2510 C   0  0  2  0  0  0  0  0  0  0  0  0
   23.4280  -16.5017  -16.4376 N   0  0  0  0  0  0  0  0  0  0  0  0
   23.6730  -14.0917  -16.4250 C   0  0  0  0  0  0  0  0  0  0  0  0
   22.9589  -13.9125  -15.4118 O   0  0  0  0  0  0  0  0  0  0  0  0
   28.7146  -12.4606  -15.7249 C   0  0  0  0  0  0  0  0  0  0  0  0
   27.2691  -12.7529  -15.5336 C   0  0  0  0  0  0  0  0  0  0  0  0
   26.2996  -11.7038  -15.8758 C   0  0  2  0  0  0  0  0  0  0  0  0
   26.7202  -10.3705  -15.2717 C   0  0  0  0  0  0  0  0  0  0  0  0
   24.8500  -11.9698  -15.8856 C   0  0  2  0  0  0  0  0  0  0  0  0
   24.6554  -13.1649  -16.7462 N   0  0  0  0  0  0  0  0  0  0  0  0
   23.9252  -10.9187  -16.2867 C   0  0  0  0  0  0  0  0  0  0  0  0
   23.8588  -10.5103  -17.5072 O   0  0  0  0  0  0  0  0  0  0  0  0
   18.0509  -10.8020  -16.0291 N   0  0  0  0  0  0  0  0  0  0  0  0
   18.2855   -9.4392  -16.3586 C   0  0  0  0  0  0  0  0  0  0  0  0
   17.2605   -8.7470  -16.6903 O   0  0  0  0  0  0  0  0  0  0  0  0
   19.6334   -8.8343  -16.3193 C   0  0  0  0  0  0  0  0  0  0  0  0
   20.7437   -9.7469  -15.9446 C   0  0  0  0  0  0  0  0  0  0  0  0
   22.1304   -9.2047  -15.8890 C   0  0  2  0  0  0  0  0  0  0  0  0
   23.0328  -10.2739  -15.4020 N   0  0  0  0  0  0  0  0  0  0  0  0
   22.2691   -7.9985  -15.1090 C   0  0  0  0  0  0  0  0  0  0  0  0
   22.8590   -7.9153  -13.8381 O   0  0  0  0  0  0  0  0  0  0  0  0
   21.8370   -6.8811  -15.5586 O   0  0  0  0  0  0  0  0  0  0  0  0
  2  1  1  0
  2  3  2  0
  4  2  1  0
  5  7  1  0
  5  4  1  0
  5  6  1  1
  7  8  2  0
  9 10  1  0
 11 10  1  0
 11 12  1  1
 13 14  1  6
 13 11  1  0
 14  7  1  0
 15 13  1  0
 16 15  2  0
 18 20  1  0
 18 17  1  0
 19 18  2  0
 21 20  1  0
 22 23  1  0
 22 21  1  1
 23 15  1  0
 24 22  1  0
 25 24  1  0
 26 24  2  0
M  END
$$$$
