NIQ.pdb
     RDKit          3D

 26 25  0  0  1  0  0  0  0  0999 V2000
   12.0164   -7.9377   -8.1416 N   0  0  0  0  0  0  0  0  0  0  0  0
   12.4289   -7.1654   -9.2441 C   0  0  0  0  0  0  0  0  0  0  0  0
   11.6386   -6.3553   -9.7613 O   0  0  0  0  0  0  0  0  0  0  0  0
   13.7869   -7.3151   -9.7819 C   0  0  0  0  0  0  0  0  0  0  0  0
   14.6120   -8.3318   -9.0557 C   0  0  2  0  0  0  0  0  0  0  0  0
   15.0926   -7.8907   -7.7855 N   0  0  0  0  0  0  0  0  0  0  0  0
   15.7537   -8.6936   -9.9734 C   0  0  0  0  0  0  0  0  0  0  0  0
   16.8384   -8.0875   -9.8171 O   0  0  0  0  0  0  0  0  0  0  0  0
   16.1384  -13.4349  -10.5466 C   0  0  0  0  0  0  0  0  0  0  0  0
   17.0640  -12.2894  -10.7528 C   0  0  0  0  0  0  0  0  0  0  0  0
   16.8610  -11.4394  -11.9334 C   0  0  2  0  0  0  0  0  0  0  0  0
   17.6364  -11.9861  -13.1247 C   0  0  0  0  0  0  0  0  0  0  0  0
   16.8133   -9.9703  -11.8243 C   0  0  2  0  0  0  0  0  0  0  0  0
   15.6420   -9.6581  -10.9657 N   0  0  0  0  0  0  0  0  0  0  0  0
   16.7690   -9.1572  -13.0317 C   0  0  0  0  0  0  0  0  0  0  0  0
   15.7972   -9.2532  -13.8726 O   0  0  0  0  0  0  0  0  0  0  0  0
   16.9239   -3.2460  -13.7935 N   0  0  0  0  0  0  0  0  0  0  0  0
   17.1474   -3.6601  -15.1349 C   0  0  0  0  0  0  0  0  0  0  0  0
   17.1029   -2.7455  -16.0301 O   0  0  0  0  0  0  0  0  0  0  0  0
   17.4249   -5.0663  -15.4952 C   0  0  0  0  0  0  0  0  0  0  0  0
   17.3949   -6.0413  -14.3752 C   0  0  0  0  0  0  0  0  0  0  0  0
   17.6761   -7.4756  -14.6648 C   0  0  2  0  0  0  0  0  0  0  0  0
   17.7546   -8.2069  -13.3788 N   0  0  0  0  0  0  0  0  0  0  0  0
   18.8480   -7.7025  -15.4756 C   0  0  0  0  0  0  0  0  0  0  0  0
   18.9390   -7.4688  -16.8566 O   0  0  0  0  0  0  0  0  0  0  0  0
   19.9236   -8.1547  -14.9503 O   0  0  0  0  0  0  0  0  0  0  0  0
  2  1  1  0
  2  3  2  0
  4  2  1  0
  5  7  1  0
  5  4  1  0
  5  6  1  1
  7  8  2  0
  9 10  1  0
 11 10  1  0
 11 12  1  6
 13 14  1  1
 13 11  1  0
 14  7  1  0
 15 13  1  0
 16 15  2  0
 18 20  1  0
 18 17  1  0
 19 18  2  0
 21 20  1  0
 22 23  1  0
 22 21  1  1
 23 15  1  0
 24 22  1  0
 25 24  1  0
 26 24  2  0
M  END
$$$$
