NIQ.pdb
     RDKit          3D

 26 25  0  0  1  0  0  0  0  0999 V2000
   25.1700  -18.3856  -16.3845 N   0  0  0  0  0  0  0  0  0  0  0  0
   24.3034  -19.4947  -16.3529 C   0  0  0  0  0  0  0  0  0  0  0  0
   23.8432  -19.9497  -17.4156 O   0  0  0  0  0  0  0  0  0  0  0  0
   23.9438  -20.1125  -15.0704 C   0  0  0  0  0  0  0  0  0  0  0  0
   25.1218  -20.6125  -14.2931 C   0  0  2  0  0  0  0  0  0  0  0  0
   25.9470  -21.5289  -15.0130 N   0  0  0  0  0  0  0  0  0  0  0  0
   24.5717  -21.2458  -13.0389 C   0  0  0  0  0  0  0  0  0  0  0  0
   24.2842  -22.4639  -13.0819 O   0  0  0  0  0  0  0  0  0  0  0  0
   26.3855  -19.4505   -8.3203 C   0  0  0  0  0  0  0  0  0  0  0  0
   25.8762  -20.4200   -9.3263 C   0  0  0  0  0  0  0  0  0  0  0  0
   24.4223  -20.5405   -9.4972 C   0  0  2  0  0  0  0  0  0  0  0  0
   23.7495  -20.8261   -8.1610 C   0  0  0  0  0  0  0  0  0  0  0  0
   23.8393  -21.2275  -10.6637 C   0  0  2  0  0  0  0  0  0  0  0  0
   24.3781  -20.5349  -11.8623 N   0  0  0  0  0  0  0  0  0  0  0  0
   22.3932  -21.3561  -10.7781 C   0  0  0  0  0  0  0  0  0  0  0  0
   21.7237  -20.6784  -11.6461 O   0  0  0  0  0  0  0  0  0  0  0  0
   18.5017  -24.8559   -6.9980 N   0  0  0  0  0  0  0  0  0  0  0  0
   17.6257  -24.2377   -7.9317 C   0  0  0  0  0  0  0  0  0  0  0  0
   16.3733  -24.4461   -7.7646 O   0  0  0  0  0  0  0  0  0  0  0  0
   18.1163  -23.3905   -9.0388 C   0  0  0  0  0  0  0  0  0  0  0  0
   19.5833  -23.1618   -9.0802 C   0  0  0  0  0  0  0  0  0  0  0  0
   20.1386  -22.2523  -10.1216 C   0  0  2  0  0  0  0  0  0  0  0  0
   21.6126  -22.2190   -9.9774 N   0  0  0  0  0  0  0  0  0  0  0  0
   19.5757  -20.9235  -10.1157 C   0  0  0  0  0  0  0  0  0  0  0  0
   18.6002  -20.4497  -11.0067 O   0  0  0  0  0  0  0  0  0  0  0  0
   19.9581  -20.0601   -9.2523 O   0  0  0  0  0  0  0  0  0  0  0  0
  2  1  1  0
  2  3  2  0
  4  2  1  0
  5  7  1  0
  5  4  1  0
  5  6  1  6
  7  8  2  0
  9 10  1  0
 11 10  1  0
 11 12  1  1
 13 14  1  6
 13 11  1  0
 14  7  1  0
 15 13  1  0
 16 15  2  0
 18 20  1  0
 18 17  1  0
 19 18  2  0
 21 20  1  0
 22 23  1  0
 22 21  1  1
 23 15  1  0
 24 22  1  0
 25 24  1  0
 26 24  2  0
M  END
$$$$
