HDV.pdb
     RDKit          3D

 26 26  0  0  1  0  0  0  0  0999 V2000
    8.9909  -15.7742   19.8802 N   0  0  0  0  0  0  0  0  0  0  0  0
    8.0982  -14.7232   20.3943 C   0  0  1  0  0  0  0  0  0  0  0  0
    6.9393  -14.6534   19.4576 C   0  0  0  0  0  0  0  0  0  0  0  0
    7.4517  -14.3044   18.0994 C   0  0  0  0  0  0  0  0  0  0  0  0
    7.0084  -14.7115   16.8601 C   0  0  0  0  0  0  0  0  0  0  0  0
    7.7505  -14.1666   15.8808 N   0  0  0  0  0  0  0  0  0  0  0  0
    8.6725  -13.4078   16.4936 C   0  0  0  0  0  0  0  0  0  0  0  0
    8.5070  -13.4797   17.8256 N   0  0  0  0  0  0  0  0  0  0  0  0
    7.7001  -15.0422   21.7848 C   0  0  0  0  0  0  0  0  0  0  0  0
    6.8320  -14.3413   22.3536 O   0  0  0  0  0  0  0  0  0  0  0  0
    8.2703  -16.1220   22.5036 N   0  0  0  0  0  0  0  0  0  0  0  0
    7.9631  -16.3939   23.8935 C   0  0  1  0  0  0  0  0  0  0  0  0
    8.3138  -17.8017   24.2821 C   0  0  0  0  0  0  0  0  0  0  0  0
    7.6452  -18.7108   23.3153 C   0  0  0  0  0  0  0  0  0  0  0  0
    6.4117  -18.9043   23.4583 O   0  0  0  0  0  0  0  0  0  0  0  0
    8.5309  -15.3652   24.7600 C   0  0  0  0  0  0  0  0  0  0  0  0
    9.7419  -15.0516   24.6238 O   0  0  0  0  0  0  0  0  0  0  0  0
    8.2985  -19.3520   22.2737 O   0  0  0  0  0  0  0  0  0  0  0  0
    7.4271  -11.8105   25.4353 C   0  0  0  0  0  0  0  0  0  0  0  0
    7.5656  -12.5070   26.7614 C   0  0  1  0  0  0  0  0  0  0  0  0
    6.2361  -12.8228   27.3932 C   0  0  0  0  0  0  0  0  0  0  0  0
    8.4456  -13.7433   26.6532 C   0  0  2  0  0  0  0  0  0  0  0  0
    7.7949  -14.6787   25.7689 N   0  0  0  0  0  0  0  0  0  0  0  0
    8.7389  -14.3325   27.9783 C   0  0  0  0  0  0  0  0  0  0  0  0
    8.2075  -15.4267   28.3019 O   0  0  0  0  0  0  0  0  0  0  0  0
    9.5789  -13.7554   28.9194 O   0  0  0  0  0  0  0  0  0  0  0  0
  2  1  1  6
  2  3  1  0
  4  8  1  0
  4  3  1  0
  5  4  2  0
  6  5  1  0
  6  7  1  0
  7  8  2  0
  9  2  1  0
  9 11  1  0
 10  9  2  0
 12 11  1  0
 12 13  1  1
 14 13  1  0
 14 15  2  0
 16 12  1  0
 16 17  2  0
 18 14  1  0
 20 19  1  6
 20 21  1  0
 20 22  1  0
 22 23  1  6
 22 24  1  0
 23 16  1  0
 24 25  2  0
 24 26  1  0
M  END
$$$$
