HDV.pdb
     RDKit          3D

 26 26  0  0  1  0  0  0  0  0999 V2000
    7.9411  -16.8739   19.4741 N   0  0  0  0  0  0  0  0  0  0  0  0
    8.1610  -15.7682   20.4201 C   0  0  1  0  0  0  0  0  0  0  0  0
    7.1194  -14.7419   20.1248 C   0  0  0  0  0  0  0  0  0  0  0  0
    7.4721  -14.0687   18.8398 C   0  0  0  0  0  0  0  0  0  0  0  0
    8.2488  -12.9532   18.6148 C   0  0  0  0  0  0  0  0  0  0  0  0
    8.3158  -12.6703   17.3025 N   0  0  0  0  0  0  0  0  0  0  0  0
    7.5800  -13.6069   16.6838 C   0  0  0  0  0  0  0  0  0  0  0  0
    7.0666  -14.4540   17.5924 N   0  0  0  0  0  0  0  0  0  0  0  0
    8.0937  -16.2783   21.8089 C   0  0  0  0  0  0  0  0  0  0  0  0
    7.0021  -16.6941   22.2606 O   0  0  0  0  0  0  0  0  0  0  0  0
    9.2297  -16.3142   22.6550 N   0  0  0  0  0  0  0  0  0  0  0  0
    9.1715  -16.7512   24.0355 C   0  0  1  0  0  0  0  0  0  0  0  0
   10.0777  -17.9207   24.2940 C   0  0  0  0  0  0  0  0  0  0  0  0
   10.0103  -18.2243   25.7471 C   0  0  0  0  0  0  0  0  0  0  0  0
    8.8878  -18.1400   26.3061 O   0  0  0  0  0  0  0  0  0  0  0  0
    9.3604  -15.6240   24.9438 C   0  0  0  0  0  0  0  0  0  0  0  0
   10.4648  -15.0208   24.9477 O   0  0  0  0  0  0  0  0  0  0  0  0
   11.1050  -18.5919   26.5147 O   0  0  0  0  0  0  0  0  0  0  0  0
    7.6905  -11.9500   27.6687 C   0  0  0  0  0  0  0  0  0  0  0  0
    7.4990  -13.0806   26.6951 C   0  0  1  0  0  0  0  0  0  0  0  0
    7.2643  -12.6012   25.2873 C   0  0  0  0  0  0  0  0  0  0  0  0
    8.6451  -14.0786   26.7664 C   0  0  2  0  0  0  0  0  0  0  0  0
    8.3621  -15.1504   25.8437 N   0  0  0  0  0  0  0  0  0  0  0  0
    8.8692  -14.5674   28.1448 C   0  0  0  0  0  0  0  0  0  0  0  0
    8.4106  -15.6884   28.4877 O   0  0  0  0  0  0  0  0  0  0  0  0
    9.5664  -13.8654   29.1172 O   0  0  0  0  0  0  0  0  0  0  0  0
  2  1  1  6
  2  3  1  0
  4  8  1  0
  4  3  1  0
  5  4  2  0
  6  5  1  0
  6  7  1  0
  7  8  2  0
  9  2  1  0
  9 11  1  0
 10  9  2  0
 12 11  1  0
 12 13  1  6
 14 13  1  0
 14 15  2  0
 16 12  1  0
 16 17  2  0
 18 14  1  0
 20 19  1  1
 20 21  1  0
 20 22  1  0
 22 23  1  6
 22 24  1  0
 23 16  1  0
 24 25  2  0
 24 26  1  0
M  END
$$$$
