HDV.pdb
     RDKit          3D

 26 26  0  0  1  0  0  0  0  0999 V2000
   10.4936  -17.6091   13.5915 N   0  0  0  0  0  0  0  0  0  0  0  0
   11.1509  -16.9929   14.7551 C   0  0  1  0  0  0  0  0  0  0  0  0
   11.4759  -15.5898   14.3668 C   0  0  0  0  0  0  0  0  0  0  0  0
   12.6257  -15.6186   13.4149 C   0  0  0  0  0  0  0  0  0  0  0  0
   13.9708  -15.7822   13.6642 C   0  0  0  0  0  0  0  0  0  0  0  0
   14.6797  -15.7444   12.5229 N   0  0  0  0  0  0  0  0  0  0  0  0
   13.7869  -15.5560   11.5386 C   0  0  0  0  0  0  0  0  0  0  0  0
   12.5493  -15.4783   12.0573 N   0  0  0  0  0  0  0  0  0  0  0  0
   10.2586  -17.0753   15.9344 C   0  0  0  0  0  0  0  0  0  0  0  0
    9.0307  -16.8730   15.7936 O   0  0  0  0  0  0  0  0  0  0  0  0
   10.7467  -17.3776   17.2298 N   0  0  0  0  0  0  0  0  0  0  0  0
    9.8795  -17.5635   18.3759 C   0  0  1  0  0  0  0  0  0  0  0  0
   10.1361  -18.8708   19.0693 C   0  0  0  0  0  0  0  0  0  0  0  0
    9.2072  -18.9516   20.2263 C   0  0  0  0  0  0  0  0  0  0  0  0
    9.6691  -18.6745   21.3619 O   0  0  0  0  0  0  0  0  0  0  0  0
    9.9185  -16.3946   19.2496 C   0  0  0  0  0  0  0  0  0  0  0  0
   11.0329  -15.8943   19.5518 O   0  0  0  0  0  0  0  0  0  0  0  0
    7.8720  -19.3122   20.1259 O   0  0  0  0  0  0  0  0  0  0  0  0
    7.6072  -12.8238   21.7929 C   0  0  0  0  0  0  0  0  0  0  0  0
    7.6547  -13.8314   20.6770 C   0  0  1  0  0  0  0  0  0  0  0  0
    7.5512  -13.1961   19.3160 C   0  0  0  0  0  0  0  0  0  0  0  0
    8.8777  -14.7295   20.7878 C   0  0  2  0  0  0  0  0  0  0  0  0
    8.7600  -15.7688   19.7948 N   0  0  0  0  0  0  0  0  0  0  0  0
    9.0443  -15.2728   22.1539 C   0  0  0  0  0  0  0  0  0  0  0  0
    8.5435  -16.3911   22.4420 O   0  0  0  0  0  0  0  0  0  0  0  0
    9.7300  -14.6262   23.1718 O   0  0  0  0  0  0  0  0  0  0  0  0
  2  1  1  6
  2  3  1  0
  4  8  1  0
  4  3  1  0
  5  4  2  0
  6  5  1  0
  6  7  1  0
  7  8  2  0
  9  2  1  0
  9 11  1  0
 10  9  2  0
 12 11  1  0
 12 13  1  1
 14 13  1  0
 14 15  2  0
 16 12  1  0
 16 17  2  0
 18 14  1  0
 20 19  1  1
 20 21  1  0
 20 22  1  0
 22 23  1  6
 22 24  1  0
 23 16  1  0
 24 25  2  0
 24 26  1  0
M  END
$$$$
