HDV.pdb
     RDKit          3D

 26 26  0  0  1  0  0  0  0  0999 V2000
    8.8923  -16.3390   20.2498 N   0  0  0  0  0  0  0  0  0  0  0  0
    8.7997  -15.2364   21.2201 C   0  0  1  0  0  0  0  0  0  0  0  0
    7.5175  -14.5280   20.9384 C   0  0  0  0  0  0  0  0  0  0  0  0
    7.5124  -14.1157   19.5035 C   0  0  0  0  0  0  0  0  0  0  0  0
    7.9477  -12.9446   18.9227 C   0  0  0  0  0  0  0  0  0  0  0  0
    7.7625  -12.9699   17.5916 N   0  0  0  0  0  0  0  0  0  0  0  0
    7.2068  -14.1606   17.3177 C   0  0  0  0  0  0  0  0  0  0  0  0
    7.0500  -14.8604   18.4545 N   0  0  0  0  0  0  0  0  0  0  0  0
    8.8723  -15.7760   22.5976 C   0  0  0  0  0  0  0  0  0  0  0  0
    8.0886  -15.3408   23.4721 O   0  0  0  0  0  0  0  0  0  0  0  0
    9.8049  -16.7766   22.9674 N   0  0  0  0  0  0  0  0  0  0  0  0
    9.8470  -17.3650   24.2910 C   0  0  1  0  0  0  0  0  0  0  0  0
   10.5591  -18.6873   24.2964 C   0  0  0  0  0  0  0  0  0  0  0  0
   10.0209  -19.4881   23.1662 C   0  0  0  0  0  0  0  0  0  0  0  0
    8.8237  -19.8637   23.2393 O   0  0  0  0  0  0  0  0  0  0  0  0
   10.3451  -16.4029   25.2697 C   0  0  0  0  0  0  0  0  0  0  0  0
   11.4189  -15.7910   25.0332 O   0  0  0  0  0  0  0  0  0  0  0  0
   10.7572  -19.8416   22.0457 O   0  0  0  0  0  0  0  0  0  0  0  0
    9.6641  -13.0532   28.6713 C   0  0  0  0  0  0  0  0  0  0  0  0
    9.1660  -14.1047   27.7178 C   0  0  1  0  0  0  0  0  0  0  0  0
    8.5891  -13.5187   26.4566 C   0  0  0  0  0  0  0  0  0  0  0  0
   10.2399  -15.1398   27.4180 C   0  0  2  0  0  0  0  0  0  0  0  0
    9.6872  -16.1030   26.4977 N   0  0  0  0  0  0  0  0  0  0  0  0
   10.7589  -15.7727   28.6505 C   0  0  0  0  0  0  0  0  0  0  0  0
   10.2994  -16.8858   29.0171 O   0  0  0  0  0  0  0  0  0  0  0  0
   11.7419  -15.2182   29.4571 O   0  0  0  0  0  0  0  0  0  0  0  0
  2  1  1  6
  2  3  1  0
  4  8  1  0
  4  3  1  0
  5  4  2  0
  6  5  1  0
  6  7  1  0
  7  8  2  0
  9  2  1  0
  9 11  1  0
 10  9  2  0
 12 11  1  0
 12 13  1  6
 14 13  1  0
 14 15  2  0
 16 12  1  0
 16 17  2  0
 18 14  1  0
 20 19  1  1
 20 21  1  0
 20 22  1  0
 22 23  1  6
 22 24  1  0
 23 16  1  0
 24 25  2  0
 24 26  1  0
M  END
$$$$
