HDV.pdb
     RDKit          3D

 26 26  0  0  1  0  0  0  0  0999 V2000
    9.4719  -15.3095   19.7057 N   0  0  0  0  0  0  0  0  0  0  0  0
    8.3244  -14.6800   20.3787 C   0  0  1  0  0  0  0  0  0  0  0  0
    7.1514  -14.8562   19.4741 C   0  0  0  0  0  0  0  0  0  0  0  0
    7.5189  -14.3439   18.1208 C   0  0  0  0  0  0  0  0  0  0  0  0
    8.0931  -13.1446   17.7598 C   0  0  0  0  0  0  0  0  0  0  0  0
    8.2585  -13.0720   16.4278 N   0  0  0  0  0  0  0  0  0  0  0  0
    7.7890  -14.2280   15.9330 C   0  0  0  0  0  0  0  0  0  0  0  0
    7.3414  -15.0025   16.9362 N   0  0  0  0  0  0  0  0  0  0  0  0
    8.1262  -15.2973   21.7104 C   0  0  0  0  0  0  0  0  0  0  0  0
    7.0897  -15.0359   22.3629 O   0  0  0  0  0  0  0  0  0  0  0  0
    9.0750  -16.1821   22.2803 N   0  0  0  0  0  0  0  0  0  0  0  0
    8.9652  -16.6921   23.6322 C   0  0  1  0  0  0  0  0  0  0  0  0
    9.7776  -17.9397   23.8305 C   0  0  0  0  0  0  0  0  0  0  0  0
    9.6078  -18.3622   25.2450 C   0  0  0  0  0  0  0  0  0  0  0  0
   10.5852  -18.2044   26.0192 O   0  0  0  0  0  0  0  0  0  0  0  0
    9.2256  -15.6365   24.6065 C   0  0  0  0  0  0  0  0  0  0  0  0
   10.3324  -15.0386   24.5787 O   0  0  0  0  0  0  0  0  0  0  0  0
    8.4432  -18.9157   25.7551 O   0  0  0  0  0  0  0  0  0  0  0  0
    7.4861  -12.1809   27.6261 C   0  0  0  0  0  0  0  0  0  0  0  0
    7.2897  -13.3345   26.6808 C   0  0  1  0  0  0  0  0  0  0  0  0
    6.6734  -12.9151   25.3728 C   0  0  0  0  0  0  0  0  0  0  0  0
    8.5814  -14.1107   26.4716 C   0  0  2  0  0  0  0  0  0  0  0  0
    8.2956  -15.2285   25.6062 N   0  0  0  0  0  0  0  0  0  0  0  0
    9.1883  -14.5322   27.7534 C   0  0  0  0  0  0  0  0  0  0  0  0
    9.0365  -15.7166   28.1518 O   0  0  0  0  0  0  0  0  0  0  0  0
    9.9339  -13.6988   28.5743 O   0  0  0  0  0  0  0  0  0  0  0  0
  2  1  1  6
  2  3  1  0
  4  8  1  0
  4  3  1  0
  5  4  2  0
  6  5  1  0
  6  7  1  0
  7  8  2  0
  9  2  1  0
  9 11  1  0
 10  9  2  0
 12 11  1  0
 12 13  1  6
 14 13  1  0
 14 15  2  0
 16 12  1  0
 16 17  2  0
 18 14  1  0
 20 19  1  1
 20 21  1  0
 20 22  1  0
 22 23  1  6
 22 24  1  0
 23 16  1  0
 24 25  2  0
 24 26  1  0
M  END
$$$$
