HDV.pdb
     RDKit          3D

 26 26  0  0  1  0  0  0  0  0999 V2000
    8.0235  -17.1063   19.3630 N   0  0  0  0  0  0  0  0  0  0  0  0
    8.2648  -15.8844   20.1469 C   0  0  1  0  0  0  0  0  0  0  0  0
    7.2688  -14.8763   19.6811 C   0  0  0  0  0  0  0  0  0  0  0  0
    7.7578  -14.2883   18.3989 C   0  0  0  0  0  0  0  0  0  0  0  0
    8.9306  -14.5216   17.7145 C   0  0  0  0  0  0  0  0  0  0  0  0
    8.9886  -13.7821   16.5935 N   0  0  0  0  0  0  0  0  0  0  0  0
    7.8499  -13.0724   16.5588 C   0  0  0  0  0  0  0  0  0  0  0  0
    7.1001  -13.3647   17.6354 N   0  0  0  0  0  0  0  0  0  0  0  0
    8.1494  -16.1873   21.5921 C   0  0  0  0  0  0  0  0  0  0  0  0
    7.0161  -16.2359   22.1231 O   0  0  0  0  0  0  0  0  0  0  0  0
    9.2846  -16.4267   22.4055 N   0  0  0  0  0  0  0  0  0  0  0  0
    9.1916  -16.7358   23.8182 C   0  0  1  0  0  0  0  0  0  0  0  0
   10.1605  -17.8092   24.2242 C   0  0  0  0  0  0  0  0  0  0  0  0
    9.7752  -19.0522   23.5067 C   0  0  0  0  0  0  0  0  0  0  0  0
    8.5744  -19.4159   23.5797 O   0  0  0  0  0  0  0  0  0  0  0  0
    9.2629  -15.5181   24.6204 C   0  0  0  0  0  0  0  0  0  0  0  0
   10.2108  -14.7134   24.4269 O   0  0  0  0  0  0  0  0  0  0  0  0
   10.6566  -19.8268   22.7680 O   0  0  0  0  0  0  0  0  0  0  0  0
    7.2260  -12.1068   27.4818 C   0  0  0  0  0  0  0  0  0  0  0  0
    7.1485  -13.2973   26.5656 C   0  0  1  0  0  0  0  0  0  0  0  0
    6.5677  -12.9570   25.2190 C   0  0  0  0  0  0  0  0  0  0  0  0
    8.4959  -13.9923   26.4385 C   0  0  2  0  0  0  0  0  0  0  0  0
    8.3157  -15.1709   25.6269 N   0  0  0  0  0  0  0  0  0  0  0  0
    9.0856  -14.3035   27.7593 C   0  0  0  0  0  0  0  0  0  0  0  0
    8.9433  -15.4555   28.2463 O   0  0  0  0  0  0  0  0  0  0  0  0
    9.8047  -13.3974   28.5250 O   0  0  0  0  0  0  0  0  0  0  0  0
  2  1  1  6
  2  3  1  0
  4  8  1  0
  4  3  1  0
  5  4  2  0
  6  5  1  0
  6  7  1  0
  7  8  2  0
  9  2  1  0
  9 11  1  0
 10  9  2  0
 12 11  1  0
 12 13  1  1
 14 13  1  0
 14 15  2  0
 16 12  1  0
 16 17  2  0
 18 14  1  0
 20 19  1  1
 20 21  1  0
 20 22  1  0
 22 23  1  6
 22 24  1  0
 23 16  1  0
 24 25  2  0
 24 26  1  0
M  END
$$$$
