HDV.pdb
     RDKit          3D

 26 26  0  0  1  0  0  0  0  0999 V2000
    7.8456  -16.7006   19.3468 N   0  0  0  0  0  0  0  0  0  0  0  0
    8.1018  -15.5908   20.2788 C   0  0  1  0  0  0  0  0  0  0  0  0
    7.1131  -14.5230   19.9511 C   0  0  0  0  0  0  0  0  0  0  0  0
    7.4766  -13.9342   18.6282 C   0  0  0  0  0  0  0  0  0  0  0  0
    8.2574  -12.8368   18.3379 C   0  0  0  0  0  0  0  0  0  0  0  0
    8.3344  -12.6387   17.0106 N   0  0  0  0  0  0  0  0  0  0  0  0
    7.6009  -13.6117   16.4479 C   0  0  0  0  0  0  0  0  0  0  0  0
    7.0790  -14.3979   17.4052 N   0  0  0  0  0  0  0  0  0  0  0  0
    7.9902  -16.0746   21.6742 C   0  0  0  0  0  0  0  0  0  0  0  0
    6.8810  -16.4666   22.1038 O   0  0  0  0  0  0  0  0  0  0  0  0
    9.1026  -16.1112   22.5510 N   0  0  0  0  0  0  0  0  0  0  0  0
    9.0075  -16.5533   23.9278 C   0  0  1  0  0  0  0  0  0  0  0  0
    9.7847  -17.8158   24.1681 C   0  0  0  0  0  0  0  0  0  0  0  0
    9.6687  -18.1425   25.6132 C   0  0  0  0  0  0  0  0  0  0  0  0
   10.6181  -17.8022   26.3631 O   0  0  0  0  0  0  0  0  0  0  0  0
    9.3228  -15.4621   24.8449 C   0  0  0  0  0  0  0  0  0  0  0  0
   10.4398  -14.8899   24.7529 O   0  0  0  0  0  0  0  0  0  0  0  0
    8.5829  -18.7954   26.1765 O   0  0  0  0  0  0  0  0  0  0  0  0
    7.7467  -12.1369   25.4776 C   0  0  0  0  0  0  0  0  0  0  0  0
    7.7831  -12.8783   26.7860 C   0  0  1  0  0  0  0  0  0  0  0  0
    6.4360  -13.4201   27.1842 C   0  0  0  0  0  0  0  0  0  0  0  0
    8.8484  -13.9645   26.7824 C   0  0  2  0  0  0  0  0  0  0  0  0
    8.4366  -14.9909   25.8566 N   0  0  0  0  0  0  0  0  0  0  0  0
    9.0997  -14.4985   28.1392 C   0  0  0  0  0  0  0  0  0  0  0  0
    8.7077  -15.6583   28.4317 O   0  0  0  0  0  0  0  0  0  0  0  0
    9.7535  -13.7995   29.1433 O   0  0  0  0  0  0  0  0  0  0  0  0
  2  1  1  6
  2  3  1  0
  4  8  1  0
  4  3  1  0
  5  4  2  0
  6  5  1  0
  6  7  1  0
  7  8  2  0
  9  2  1  0
  9 11  1  0
 10  9  2  0
 12 11  1  0
 12 13  1  6
 14 13  1  0
 14 15  2  0
 16 12  1  0
 16 17  2  0
 18 14  1  0
 20 19  1  6
 20 21  1  0
 20 22  1  0
 22 23  1  6
 22 24  1  0
 23 16  1  0
 24 25  2  0
 24 26  1  0
M  END
$$$$
