HDV.pdb
     RDKit          3D

 26 26  0  0  1  0  0  0  0  0999 V2000
    8.8800  -16.3109   19.5686 N   0  0  0  0  0  0  0  0  0  0  0  0
    9.9250  -15.4605   20.1607 C   0  0  1  0  0  0  0  0  0  0  0  0
   10.1353  -14.3249   19.2165 C   0  0  0  0  0  0  0  0  0  0  0  0
    9.0482  -14.3552   18.1936 C   0  0  0  0  0  0  0  0  0  0  0  0
    8.0325  -15.2689   18.0155 C   0  0  0  0  0  0  0  0  0  0  0  0
    7.2598  -14.9314   16.9687 N   0  0  0  0  0  0  0  0  0  0  0  0
    7.7814  -13.7980   16.4737 C   0  0  0  0  0  0  0  0  0  0  0  0
    8.8555  -13.4388   17.1977 N   0  0  0  0  0  0  0  0  0  0  0  0
    9.5051  -15.0203   21.5111 C   0  0  0  0  0  0  0  0  0  0  0  0
   10.2379  -14.2392   22.1604 O   0  0  0  0  0  0  0  0  0  0  0  0
    8.2929  -15.4539   22.1027 N   0  0  0  0  0  0  0  0  0  0  0  0
    8.2473  -16.3225   23.2618 C   0  0  1  0  0  0  0  0  0  0  0  0
    8.9013  -17.6484   22.9972 C   0  0  0  0  0  0  0  0  0  0  0  0
    8.7257  -18.4829   24.2142 C   0  0  0  0  0  0  0  0  0  0  0  0
    9.7564  -18.7746   24.8716 O   0  0  0  0  0  0  0  0  0  0  0  0
    8.7392  -15.6286   24.4483 C   0  0  0  0  0  0  0  0  0  0  0  0
    9.9807  -15.5302   24.6280 O   0  0  0  0  0  0  0  0  0  0  0  0
    7.5008  -18.9540   24.6620 O   0  0  0  0  0  0  0  0  0  0  0  0
    7.7495  -12.0713   25.5293 C   0  0  0  0  0  0  0  0  0  0  0  0
    7.5862  -13.0196   26.6855 C   0  0  1  0  0  0  0  0  0  0  0  0
    6.1464  -13.3721   26.9487 C   0  0  0  0  0  0  0  0  0  0  0  0
    8.4479  -14.2618   26.5144 C   0  0  2  0  0  0  0  0  0  0  0  0
    7.8948  -15.0440   25.4363 N   0  0  0  0  0  0  0  0  0  0  0  0
    8.5604  -15.0353   27.7706 C   0  0  0  0  0  0  0  0  0  0  0  0
    7.9146  -16.1082   27.8984 O   0  0  0  0  0  0  0  0  0  0  0  0
    9.3460  -14.6589   28.8502 O   0  0  0  0  0  0  0  0  0  0  0  0
  2  1  1  6
  2  3  1  0
  4  8  1  0
  4  3  1  0
  5  4  2  0
  6  5  1  0
  6  7  1  0
  7  8  2  0
  9  2  1  0
  9 11  1  0
 10  9  2  0
 12 11  1  0
 12 13  1  6
 14 13  1  0
 14 15  2  0
 16 12  1  0
 16 17  2  0
 18 14  1  0
 20 19  1  6
 20 21  1  0
 20 22  1  0
 22 23  1  6
 22 24  1  0
 23 16  1  0
 24 25  2  0
 24 26  1  0
M  END
$$$$
