DIH.pdb
     RDKit          3D

 27 27  0  0  1  0  0  0  0  0999 V2000
    8.1692  -15.2548   20.5749 N   0  0  0  0  0  0  0  0  0  0  0  0
    7.1666  -15.7416   21.5708 C   0  0  1  0  0  0  0  0  0  0  0  0
    6.9726  -17.1844   21.3244 C   0  0  0  0  0  0  0  0  0  0  0  0
    6.3713  -17.5475   20.0371 C   0  0  0  0  0  0  0  0  0  0  0  0
    6.6122  -16.9745   18.9475 O   0  0  0  0  0  0  0  0  0  0  0  0
    7.7807  -15.3656   22.8629 C   0  0  0  0  0  0  0  0  0  0  0  0
    9.0668  -15.4326   22.9493 O   0  0  0  0  0  0  0  0  0  0  0  0
    5.4625  -18.6134   20.0330 O   0  0  0  0  0  0  0  0  0  0  0  0
    5.9563  -11.4480   25.9321 C   0  0  0  0  0  0  0  0  0  0  0  0
    6.8194  -12.4006   25.1330 C   0  0  0  0  0  0  0  0  0  0  0  0
    7.1611  -13.5843   25.9695 C   0  0  2  0  0  0  0  0  0  0  0  0
    7.7717  -13.1976   27.3029 C   0  0  0  0  0  0  0  0  0  0  0  0
    7.9149  -14.6813   25.2921 C   0  0  2  0  0  0  0  0  0  0  0  0
    7.1531  -14.9406   24.0366 N   0  0  0  0  0  0  0  0  0  0  0  0
    8.0704  -15.9310   26.0316 C   0  0  0  0  0  0  0  0  0  0  0  0
    7.0099  -16.5123   26.4676 O   0  0  0  0  0  0  0  0  0  0  0  0
    9.2651  -16.5989   26.3309 N   0  0  0  0  0  0  0  0  0  0  0  0
    9.2899  -17.7871   27.2253 C   0  0  1  0  0  0  0  0  0  0  0  0
    9.7677  -18.9714   26.4685 C   0  0  0  0  0  0  0  0  0  0  0  0
    8.8572  -19.4929   25.4373 C   0  0  0  0  0  0  0  0  0  0  0  0
    7.6280  -19.0896   24.9935 C   0  0  0  0  0  0  0  0  0  0  0  0
    7.1947  -19.8461   23.9630 N   0  0  0  0  0  0  0  0  0  0  0  0
    8.1650  -20.7343   23.7565 C   0  0  0  0  0  0  0  0  0  0  0  0
    9.1650  -20.5511   24.6147 N   0  0  0  0  0  0  0  0  0  0  0  0
   10.1928  -17.4367   28.3757 C   0  0  0  0  0  0  0  0  0  0  0  0
   10.8373  -16.3930   28.5117 O   0  0  0  0  0  0  0  0  0  0  0  0
   10.3575  -18.3600   29.4361 O   0  0  0  0  0  0  0  0  0  0  0  0
  2  1  1  6
  2  3  1  0
  3  4  1  0
  4  5  2  0
  4  8  1  0
  6  2  1  0
  6  7  2  0
  9 10  1  0
 11 13  1  0
 11 10  1  0
 11 12  1  1
 13 14  1  6
 14  6  1  0
 15 13  1  0
 16 15  2  0
 17 15  1  0
 18 25  1  0
 18 17  1  0
 19 20  1  0
 18 19  1  6
 20 21  2  0
 21 22  1  0
 23 22  1  0
 24 20  1  0
 24 23  2  0
 25 27  1  0
 26 25  2  0
M  END
$$$$
