DIH.pdb
     RDKit          3D

 27 27  0  0  1  0  0  0  0  0999 V2000
    9.6937  -17.8593   16.5386 N   0  0  0  0  0  0  0  0  0  0  0  0
    8.8452  -18.1840   17.7255 C   0  0  1  0  0  0  0  0  0  0  0  0
    9.0769  -19.6053   18.0513 C   0  0  0  0  0  0  0  0  0  0  0  0
    8.5574  -20.5840   17.0908 C   0  0  0  0  0  0  0  0  0  0  0  0
    9.2396  -21.4859   16.5478 O   0  0  0  0  0  0  0  0  0  0  0  0
    9.2922  -17.1918   18.7275 C   0  0  0  0  0  0  0  0  0  0  0  0
   10.5605  -16.9691   18.8158 O   0  0  0  0  0  0  0  0  0  0  0  0
    7.1987  -20.4983   16.7610 O   0  0  0  0  0  0  0  0  0  0  0  0
    6.7200  -12.6082   20.0705 C   0  0  0  0  0  0  0  0  0  0  0  0
    7.8115  -13.5863   19.6927 C   0  0  0  0  0  0  0  0  0  0  0  0
    8.1102  -14.4716   20.8523 C   0  0  2  0  0  0  0  0  0  0  0  0
    8.3496  -13.6935   22.1319 C   0  0  0  0  0  0  0  0  0  0  0  0
    9.1348  -15.5352   20.6296 C   0  0  2  0  0  0  0  0  0  0  0  0
    8.5197  -16.4434   19.6193 N   0  0  0  0  0  0  0  0  0  0  0  0
    9.5440  -16.3135   21.7957 C   0  0  0  0  0  0  0  0  0  0  0  0
    8.6594  -17.0429   22.3772 O   0  0  0  0  0  0  0  0  0  0  0  0
   10.8183  -16.3708   22.3752 N   0  0  0  0  0  0  0  0  0  0  0  0
   11.0723  -17.1399   23.6228 C   0  0  1  0  0  0  0  0  0  0  0  0
   12.3409  -17.8994   23.4913 C   0  0  0  0  0  0  0  0  0  0  0  0
   12.3293  -19.0219   22.5403 C   0  0  0  0  0  0  0  0  0  0  0  0
   11.3213  -19.6725   21.8835 C   0  0  0  0  0  0  0  0  0  0  0  0
   11.7980  -20.6149   21.0428 N   0  0  0  0  0  0  0  0  0  0  0  0
   13.1218  -20.5538   21.1727 C   0  0  0  0  0  0  0  0  0  0  0  0
   13.4685  -19.6189   22.0534 N   0  0  0  0  0  0  0  0  0  0  0  0
   11.1160  -16.1360   24.7417 C   0  0  0  0  0  0  0  0  0  0  0  0
   11.1097  -14.9072   24.6263 O   0  0  0  0  0  0  0  0  0  0  0  0
   11.1714  -16.5904   26.0813 O   0  0  0  0  0  0  0  0  0  0  0  0
  2  1  1  6
  2  3  1  0
  3  4  1  0
  4  5  2  0
  4  8  1  0
  6  2  1  0
  6  7  2  0
  9 10  1  0
 11 13  1  0
 11 10  1  0
 11 12  1  1
 13 14  1  6
 14  6  1  0
 15 13  1  0
 16 15  2  0
 17 15  1  0
 18 25  1  0
 18 17  1  0
 19 20  1  0
 18 19  1  6
 20 21  2  0
 21 22  1  0
 23 22  1  0
 24 20  1  0
 24 23  2  0
 25 27  1  0
 26 25  2  0
M  END
$$$$
