DIH.pdb
     RDKit          3D

 27 27  0  0  1  0  0  0  0  0999 V2000
    8.5969  -15.3287   20.8224 N   0  0  0  0  0  0  0  0  0  0  0  0
    7.7651  -15.8861   21.9320 C   0  0  1  0  0  0  0  0  0  0  0  0
    7.8223  -17.3574   21.8230 C   0  0  0  0  0  0  0  0  0  0  0  0
    7.1237  -17.9507   20.6782 C   0  0  0  0  0  0  0  0  0  0  0  0
    7.1116  -17.4701   19.5196 O   0  0  0  0  0  0  0  0  0  0  0  0
    8.3809  -15.2852   23.1353 C   0  0  0  0  0  0  0  0  0  0  0  0
    9.6643  -15.1478   23.1381 O   0  0  0  0  0  0  0  0  0  0  0  0
    6.4209  -19.1411   20.9040 O   0  0  0  0  0  0  0  0  0  0  0  0
    5.9294  -11.6369   26.1767 C   0  0  0  0  0  0  0  0  0  0  0  0
    6.9714  -12.3661   25.3563 C   0  0  0  0  0  0  0  0  0  0  0  0
    7.6106  -13.4229   26.1885 C   0  0  2  0  0  0  0  0  0  0  0  0
    8.2079  -12.8727   27.4694 C   0  0  0  0  0  0  0  0  0  0  0  0
    8.5367  -14.3566   25.4806 C   0  0  2  0  0  0  0  0  0  0  0  0
    7.7582  -14.8363   24.3027 N   0  0  0  0  0  0  0  0  0  0  0  0
    9.0250  -15.5049   26.2393 C   0  0  0  0  0  0  0  0  0  0  0  0
    8.1627  -16.3525   26.6764 O   0  0  0  0  0  0  0  0  0  0  0  0
   10.3548  -15.8112   26.5567 N   0  0  0  0  0  0  0  0  0  0  0  0
   10.7120  -17.0457   27.3056 C   0  0  1  0  0  0  0  0  0  0  0  0
   12.0030  -17.5786   26.8027 C   0  0  0  0  0  0  0  0  0  0  0  0
   12.1043  -17.7665   25.3470 C   0  0  0  0  0  0  0  0  0  0  0  0
   11.3339  -18.4433   24.4421 C   0  0  0  0  0  0  0  0  0  0  0  0
   11.7821  -18.2773   23.1797 N   0  0  0  0  0  0  0  0  0  0  0  0
   12.8462  -17.4852   23.2939 C   0  0  0  0  0  0  0  0  0  0  0  0
   13.0634  -17.1646   24.5667 N   0  0  0  0  0  0  0  0  0  0  0  0
   10.7750  -16.6607   28.7580 C   0  0  0  0  0  0  0  0  0  0  0  0
   10.9294  -17.4255   29.7143 O   0  0  0  0  0  0  0  0  0  0  0  0
   10.6495  -15.2985   29.1219 O   0  0  0  0  0  0  0  0  0  0  0  0
  2  1  1  6
  2  3  1  0
  3  4  1  0
  4  5  2  0
  4  8  1  0
  6  2  1  0
  6  7  2  0
  9 10  1  0
 11 13  1  0
 11 10  1  0
 11 12  1  1
 13 14  1  6
 14  6  1  0
 15 13  1  0
 16 15  2  0
 17 15  1  0
 18 25  1  0
 18 17  1  0
 19 20  1  0
 18 19  1  6
 20 21  2  0
 21 22  1  0
 23 22  1  0
 24 20  1  0
 24 23  2  0
 25 27  1  0
 26 25  2  0
M  END
$$$$
