DIH.pdb
     RDKit          3D

 27 27  0  0  1  0  0  0  0  0999 V2000
    9.4578  -17.0670   17.0392 N   0  0  0  0  0  0  0  0  0  0  0  0
   10.5566  -17.5896   17.9071 C   0  0  1  0  0  0  0  0  0  0  0  0
   11.8078  -17.4988   17.1284 C   0  0  0  0  0  0  0  0  0  0  0  0
   11.8620  -18.2880   15.8936 C   0  0  0  0  0  0  0  0  0  0  0  0
   11.0743  -19.2206   15.6049 O   0  0  0  0  0  0  0  0  0  0  0  0
   10.4591  -16.7327   19.1089 C   0  0  0  0  0  0  0  0  0  0  0  0
   11.5608  -16.4186   19.7035 O   0  0  0  0  0  0  0  0  0  0  0  0
   12.8704  -17.9706   14.9747 O   0  0  0  0  0  0  0  0  0  0  0  0
    7.1004  -12.5652   19.6177 C   0  0  0  0  0  0  0  0  0  0  0  0
    8.3621  -13.3991   19.6767 C   0  0  0  0  0  0  0  0  0  0  0  0
    8.2549  -14.3868   20.7860 C   0  0  2  0  0  0  0  0  0  0  0  0
    7.8664  -13.7427   22.1030 C   0  0  0  0  0  0  0  0  0  0  0  0
    9.3889  -15.3477   20.9320 C   0  0  2  0  0  0  0  0  0  0  0  0
    9.3158  -16.2027   19.7125 N   0  0  0  0  0  0  0  0  0  0  0  0
    9.3871  -16.1968   22.1202 C   0  0  0  0  0  0  0  0  0  0  0  0
    8.4454  -17.0632   22.2435 O   0  0  0  0  0  0  0  0  0  0  0  0
   10.3126  -16.1892   23.1721 N   0  0  0  0  0  0  0  0  0  0  0  0
   10.2366  -17.1754   24.2830 C   0  0  1  0  0  0  0  0  0  0  0  0
   11.5573  -17.2746   24.9534 C   0  0  0  0  0  0  0  0  0  0  0  0
   11.5963  -18.0602   26.1968 C   0  0  0  0  0  0  0  0  0  0  0  0
   10.6637  -18.8249   26.8419 C   0  0  0  0  0  0  0  0  0  0  0  0
   11.1784  -19.4249   27.9360 N   0  0  0  0  0  0  0  0  0  0  0  0
   12.4503  -19.0330   27.9770 C   0  0  0  0  0  0  0  0  0  0  0  0
   12.7292  -18.2230   26.9591 N   0  0  0  0  0  0  0  0  0  0  0  0
    9.1557  -16.6917   25.2100 C   0  0  0  0  0  0  0  0  0  0  0  0
    8.7396  -15.5342   25.3119 O   0  0  0  0  0  0  0  0  0  0  0  0
    8.5181  -17.6133   26.0750 O   0  0  0  0  0  0  0  0  0  0  0  0
  2  1  1  6
  2  3  1  0
  3  4  1  0
  4  5  2  0
  4  8  1  0
  6  2  1  0
  6  7  2  0
  9 10  1  0
 11 13  1  0
 11 10  1  0
 11 12  1  1
 13 14  1  6
 14  6  1  0
 15 13  1  0
 16 15  2  0
 17 15  1  0
 18 25  1  0
 18 17  1  0
 19 20  1  0
 18 19  1  1
 20 21  2  0
 21 22  1  0
 23 22  1  0
 24 20  1  0
 24 23  2  0
 25 27  1  0
 26 25  2  0
M  END
$$$$
