DIH.pdb
     RDKit          3D

 27 27  0  0  1  0  0  0  0  0999 V2000
    9.3323  -18.2986   18.2396 N   0  0  0  0  0  0  0  0  0  0  0  0
    8.1326  -18.2176   19.1273 C   0  0  1  0  0  0  0  0  0  0  0  0
    7.8677  -19.5811   19.6278 C   0  0  0  0  0  0  0  0  0  0  0  0
    7.3679  -20.5473   18.6444 C   0  0  0  0  0  0  0  0  0  0  0  0
    7.6195  -21.7762   18.6564 O   0  0  0  0  0  0  0  0  0  0  0  0
    8.5366  -17.2089   20.1310 C   0  0  0  0  0  0  0  0  0  0  0  0
    9.7744  -17.1999   20.4968 O   0  0  0  0  0  0  0  0  0  0  0  0
    6.5503  -20.0534   17.6199 O   0  0  0  0  0  0  0  0  0  0  0  0
    6.9910  -12.1372   20.1962 C   0  0  0  0  0  0  0  0  0  0  0  0
    7.9031  -13.3369   20.3367 C   0  0  0  0  0  0  0  0  0  0  0  0
    7.6038  -14.0434   21.6130 C   0  0  2  0  0  0  0  0  0  0  0  0
    7.7024  -13.1306   22.8202 C   0  0  0  0  0  0  0  0  0  0  0  0
    8.2939  -15.3505   21.8266 C   0  0  2  0  0  0  0  0  0  0  0  0
    7.7504  -16.2406   20.7606 N   0  0  0  0  0  0  0  0  0  0  0  0
    8.1147  -15.9878   23.1283 C   0  0  0  0  0  0  0  0  0  0  0  0
    6.9294  -16.3552   23.4643 O   0  0  0  0  0  0  0  0  0  0  0  0
    9.1019  -16.2618   24.0840 N   0  0  0  0  0  0  0  0  0  0  0  0
    8.8027  -17.0528   25.3077 C   0  0  1  0  0  0  0  0  0  0  0  0
    8.8135  -18.5007   24.9809 C   0  0  0  0  0  0  0  0  0  0  0  0
    7.5858  -19.0379   24.3735 C   0  0  0  0  0  0  0  0  0  0  0  0
    6.3192  -18.5387   24.2424 C   0  0  0  0  0  0  0  0  0  0  0  0
    5.5232  -19.3717   23.5392 N   0  0  0  0  0  0  0  0  0  0  0  0
    6.3005  -20.4057   23.2239 C   0  0  0  0  0  0  0  0  0  0  0  0
    7.5297  -20.2378   23.7042 N   0  0  0  0  0  0  0  0  0  0  0  0
    9.8505  -16.6838   26.3213 C   0  0  0  0  0  0  0  0  0  0  0  0
   10.8448  -15.9790   26.1262 O   0  0  0  0  0  0  0  0  0  0  0  0
    9.7353  -17.1662   27.6472 O   0  0  0  0  0  0  0  0  0  0  0  0
  2  1  1  6
  2  3  1  0
  3  4  1  0
  4  5  2  0
  4  8  1  0
  6  2  1  0
  6  7  2  0
  9 10  1  0
 11 13  1  0
 11 10  1  0
 11 12  1  1
 13 14  1  6
 14  6  1  0
 15 13  1  0
 16 15  2  0
 17 15  1  0
 18 25  1  0
 18 17  1  0
 19 20  1  0
 18 19  1  6
 20 21  2  0
 21 22  1  0
 23 22  1  0
 24 20  1  0
 24 23  2  0
 25 27  1  0
 26 25  2  0
M  END
$$$$
