DIH.pdb
     RDKit          3D

 27 27  0  0  1  0  0  0  0  0999 V2000
    9.2010  -17.6116   17.5943 N   0  0  0  0  0  0  0  0  0  0  0  0
   10.5802  -17.6691   18.1673 C   0  0  1  0  0  0  0  0  0  0  0  0
   11.5145  -17.2722   17.0953 C   0  0  0  0  0  0  0  0  0  0  0  0
   11.5794  -18.1599   15.9298 C   0  0  0  0  0  0  0  0  0  0  0  0
   11.1112  -17.8903   14.7977 O   0  0  0  0  0  0  0  0  0  0  0  0
   10.4867  -16.7653   19.3346 C   0  0  0  0  0  0  0  0  0  0  0  0
   11.5862  -16.4628   19.9392 O   0  0  0  0  0  0  0  0  0  0  0  0
   12.2122  -19.3976   16.1022 O   0  0  0  0  0  0  0  0  0  0  0  0
    6.8750  -12.7748   19.9058 C   0  0  0  0  0  0  0  0  0  0  0  0
    8.2163  -13.4745   19.9518 C   0  0  0  0  0  0  0  0  0  0  0  0
    8.2243  -14.4635   21.0651 C   0  0  2  0  0  0  0  0  0  0  0  0
    7.8816  -13.8365   22.4028 C   0  0  0  0  0  0  0  0  0  0  0  0
    9.4120  -15.3657   21.1439 C   0  0  2  0  0  0  0  0  0  0  0  0
    9.3493  -16.1788   19.8954 N   0  0  0  0  0  0  0  0  0  0  0  0
    9.4904  -16.2560   22.2988 C   0  0  0  0  0  0  0  0  0  0  0  0
    8.6117  -17.1883   22.4051 O   0  0  0  0  0  0  0  0  0  0  0  0
   10.4336  -16.2242   23.3344 N   0  0  0  0  0  0  0  0  0  0  0  0
   10.4037  -17.2129   24.4452 C   0  0  1  0  0  0  0  0  0  0  0  0
   11.6871  -17.9579   24.4848 C   0  0  0  0  0  0  0  0  0  0  0  0
   11.8992  -18.8229   25.6559 C   0  0  0  0  0  0  0  0  0  0  0  0
   11.0400  -19.4323   26.5283 C   0  0  0  0  0  0  0  0  0  0  0  0
   11.6966  -20.1994   27.4240 N   0  0  0  0  0  0  0  0  0  0  0  0
   12.9839  -20.0710   27.1087 C   0  0  0  0  0  0  0  0  0  0  0  0
   13.1370  -19.2612   26.0643 N   0  0  0  0  0  0  0  0  0  0  0  0
   10.1528  -16.4317   25.7055 C   0  0  0  0  0  0  0  0  0  0  0  0
   10.0272  -16.8938   26.8431 O   0  0  0  0  0  0  0  0  0  0  0  0
   10.0396  -15.0222   25.6385 O   0  0  0  0  0  0  0  0  0  0  0  0
  2  1  1  6
  2  3  1  0
  3  4  1  0
  4  5  2  0
  4  8  1  0
  6  2  1  0
  6  7  2  0
  9 10  1  0
 11 13  1  0
 11 10  1  0
 11 12  1  1
 13 14  1  6
 14  6  1  0
 15 13  1  0
 16 15  2  0
 17 15  1  0
 18 25  1  0
 18 17  1  0
 19 20  1  0
 18 19  1  1
 20 21  2  0
 21 22  1  0
 23 22  1  0
 24 20  1  0
 24 23  2  0
 25 27  1  0
 26 25  2  0
M  END
$$$$
