LTC.pdb
     RDKit          3D

 22 21  0  0  1  0  0  0  0  0999 V2000
   16.8714  -15.9248  -17.1099 C   0  0  0  0  0  0  0  0  0  0  0  0
   17.8763  -15.7292  -18.1859 C   0  0  2  0  0  0  0  0  0  0  0  0
   18.1316  -17.0376  -18.8983 C   0  0  0  0  0  0  0  0  0  0  0  0
   19.1506  -15.0847  -17.7559 C   0  0  0  0  0  0  0  0  0  0  0  0
   20.0907  -14.7323  -18.8481 C   0  0  2  0  0  0  0  0  0  0  0  0
   20.8967  -15.8380  -19.2738 N   0  0  0  0  0  0  0  0  0  0  0  0
   20.9219  -13.5808  -18.3797 C   0  0  0  0  0  0  0  0  0  0  0  0
   21.9901  -13.8312  -17.7651 O   0  0  0  0  0  0  0  0  0  0  0  0
   22.2281  -11.0198  -20.6670 C   0  0  0  0  0  0  0  0  0  0  0  0
   21.5106  -10.2660  -19.5720 C   0  0  1  0  0  0  0  0  0  0  0  0
   20.2226   -9.8989  -19.9508 O   0  0  0  0  0  0  0  0  0  0  0  0
   21.4325  -11.1061  -18.2915 C   0  0  2  0  0  0  0  0  0  0  0  0
   20.5822  -12.2328  -18.5846 N   0  0  0  0  0  0  0  0  0  0  0  0
   20.9038  -10.2640  -17.1946 C   0  0  0  0  0  0  0  0  0  0  0  0
   19.6577  -10.1763  -17.0771 O   0  0  0  0  0  0  0  0  0  0  0  0
   21.7007   -9.5478  -16.2650 N   0  0  0  0  0  0  0  0  0  0  0  0
   21.1230   -8.7671  -15.1705 C   0  0  1  0  0  0  0  0  0  0  0  0
   22.1868   -8.5941  -14.0866 C   0  0  0  0  0  0  0  0  0  0  0  0
   21.4094   -7.8057  -12.6502 S   0  0  0  0  0  0  0  0  0  0  0  0
   20.7831   -7.4244  -15.7117 C   0  0  0  0  0  0  0  0  0  0  0  0
   21.4584   -6.8538  -16.7884 O   0  0  0  0  0  0  0  0  0  0  0  0
   19.8534   -6.7313  -15.2119 O   0  0  0  0  0  0  0  0  0  0  0  0
  2  1  1  1
  2  3  1  0
  4  2  1  0
  5  4  1  0
  5  7  1  0
  5  6  1  1
  7 13  1  0
  7  8  2  0
 10  9  1  6
 10 12  1  0
 11 10  1  0
 12 14  1  0
 12 13  1  6
 14 16  1  0
 14 15  2  0
 16 17  1  0
 17 20  1  0
 17 18  1  1
 19 18  1  0
 20 21  1  0
 22 20  2  0
M  END
$$$$
