LTC.pdb
     RDKit          3D

 22 21  0  0  1  0  0  0  0  0999 V2000
   25.7759  -14.5740  -15.2967 C   0  0  0  0  0  0  0  0  0  0  0  0
   25.0275  -14.4586  -16.5744 C   0  0  2  0  0  0  0  0  0  0  0  0
   25.8835  -14.9474  -17.7203 C   0  0  0  0  0  0  0  0  0  0  0  0
   24.4563  -13.1103  -16.8569 C   0  0  0  0  0  0  0  0  0  0  0  0
   23.6219  -12.5288  -15.7769 C   0  0  2  0  0  0  0  0  0  0  0  0
   22.5480  -13.3874  -15.3730 N   0  0  0  0  0  0  0  0  0  0  0  0
   23.1281  -11.1986  -16.2489 C   0  0  0  0  0  0  0  0  0  0  0  0
   23.9467  -10.4272  -16.8114 O   0  0  0  0  0  0  0  0  0  0  0  0
   19.0223  -10.3870  -16.0115 C   0  0  0  0  0  0  0  0  0  0  0  0
   19.8770   -9.7192  -17.0629 C   0  0  1  0  0  0  0  0  0  0  0  0
   19.3370   -8.5058  -17.4789 O   0  0  0  0  0  0  0  0  0  0  0  0
   21.2981   -9.4783  -16.5392 C   0  0  2  0  0  0  0  0  0  0  0  0
   21.8024  -10.7561  -16.1023 N   0  0  0  0  0  0  0  0  0  0  0  0
   21.2456   -8.4826  -15.4448 C   0  0  0  0  0  0  0  0  0  0  0  0
   21.0706   -8.9091  -14.2778 O   0  0  0  0  0  0  0  0  0  0  0  0
   21.3783   -7.0807  -15.6160 N   0  0  0  0  0  0  0  0  0  0  0  0
   21.3620   -6.1455  -14.4907 C   0  0  1  0  0  0  0  0  0  0  0  0
   22.6704   -5.3553  -14.5003 C   0  0  0  0  0  0  0  0  0  0  0  0
   22.6224   -4.1629  -13.1346 S   0  0  0  0  0  0  0  0  0  0  0  0
   20.2399   -5.1961  -14.7164 C   0  0  0  0  0  0  0  0  0  0  0  0
   19.5424   -4.5934  -13.6719 O   0  0  0  0  0  0  0  0  0  0  0  0
   19.8638   -4.8895  -15.8822 O   0  0  0  0  0  0  0  0  0  0  0  0
  2  1  1  1
  2  3  1  0
  4  2  1  0
  5  4  1  0
  5  7  1  0
  5  6  1  6
  7 13  1  0
  7  8  2  0
 10  9  1  1
 10 12  1  0
 11 10  1  0
 12 14  1  0
 12 13  1  1
 14 16  1  0
 14 15  2  0
 16 17  1  0
 17 20  1  0
 17 18  1  6
 19 18  1  0
 20 21  1  0
 22 20  2  0
M  END
$$$$
