LTC.pdb
     RDKit          3D

 22 21  0  0  1  0  0  0  0  0999 V2000
   28.2658  -21.0771   -6.9376 C   0  0  0  0  0  0  0  0  0  0  0  0
   27.9383  -19.7332   -7.4785 C   0  0  2  0  0  0  0  0  0  0  0  0
   28.3479  -18.6650   -6.4907 C   0  0  0  0  0  0  0  0  0  0  0  0
   26.5257  -19.5534   -7.9216 C   0  0  0  0  0  0  0  0  0  0  0  0
   26.0394  -20.5320   -8.9250 C   0  0  2  0  0  0  0  0  0  0  0  0
   26.7613  -20.4741  -10.1615 N   0  0  0  0  0  0  0  0  0  0  0  0
   24.5757  -20.2958   -9.1194 C   0  0  0  0  0  0  0  0  0  0  0  0
   24.1602  -19.1089   -9.1140 O   0  0  0  0  0  0  0  0  0  0  0  0
   22.6837  -20.1016  -11.7583 C   0  0  0  0  0  0  0  0  0  0  0  0
   21.9797  -21.2215  -11.0288 C   0  0  1  0  0  0  0  0  0  0  0  0
   22.3941  -22.4736  -11.4733 O   0  0  0  0  0  0  0  0  0  0  0  0
   22.2205  -21.1250   -9.5174 C   0  0  2  0  0  0  0  0  0  0  0  0
   23.6333  -21.3210   -9.3082 N   0  0  0  0  0  0  0  0  0  0  0  0
   21.3965  -22.1464   -8.8323 C   0  0  0  0  0  0  0  0  0  0  0  0
   21.9375  -22.8125   -7.9169 O   0  0  0  0  0  0  0  0  0  0  0  0
   20.0394  -22.4294   -9.1330 N   0  0  0  0  0  0  0  0  0  0  0  0
   19.2847  -23.4807   -8.4499 C   0  0  1  0  0  0  0  0  0  0  0  0
   19.1828  -23.1175   -6.9687 C   0  0  0  0  0  0  0  0  0  0  0  0
   18.0599  -24.2978   -6.1717 S   0  0  0  0  0  0  0  0  0  0  0  0
   17.9135  -23.4907   -9.0252 C   0  0  0  0  0  0  0  0  0  0  0  0
   17.0942  -24.6171   -8.9983 O   0  0  0  0  0  0  0  0  0  0  0  0
   17.4235  -22.4633   -9.5718 O   0  0  0  0  0  0  0  0  0  0  0  0
  2  1  1  1
  2  3  1  0
  4  2  1  0
  5  4  1  0
  5  7  1  0
  5  6  1  6
  7 13  1  0
  7  8  2  0
 10  9  1  6
 10 12  1  0
 11 10  1  0
 12 14  1  0
 12 13  1  6
 14 16  1  0
 14 15  2  0
 16 17  1  0
 17 20  1  0
 17 18  1  1
 19 18  1  0
 20 21  1  0
 22 20  2  0
M  END
$$$$
