LTC.pdb
     RDKit          3D

 22 21  0  0  1  0  0  0  0  0999 V2000
   26.7756  -13.7584  -18.2627 C   0  0  0  0  0  0  0  0  0  0  0  0
   25.3858  -14.1827  -17.9558 C   0  0  2  0  0  0  0  0  0  0  0  0
   24.9380  -15.2372  -18.9419 C   0  0  0  0  0  0  0  0  0  0  0  0
   24.3917  -13.0759  -17.8521 C   0  0  0  0  0  0  0  0  0  0  0  0
   24.7416  -11.9866  -16.9078 C   0  0  2  0  0  0  0  0  0  0  0  0
   24.8271  -12.4288  -15.5473 N   0  0  0  0  0  0  0  0  0  0  0  0
   23.7351  -10.8941  -17.0793 C   0  0  0  0  0  0  0  0  0  0  0  0
   23.6482  -10.3385  -18.2041 O   0  0  0  0  0  0  0  0  0  0  0  0
   20.0316  -10.9903  -16.6729 C   0  0  0  0  0  0  0  0  0  0  0  0
   20.5667   -9.9648  -15.7013 C   0  0  1  0  0  0  0  0  0  0  0  0
   20.7414  -10.4966  -14.4270 O   0  0  0  0  0  0  0  0  0  0  0  0
   21.9037   -9.3947  -16.1903 C   0  0  2  0  0  0  0  0  0  0  0  0
   22.8782  -10.4488  -16.0585 N   0  0  0  0  0  0  0  0  0  0  0  0
   22.2428   -8.2015  -15.3822 C   0  0  0  0  0  0  0  0  0  0  0  0
   23.0691   -8.3461  -14.4492 O   0  0  0  0  0  0  0  0  0  0  0  0
   21.7033   -6.9051  -15.5833 N   0  0  0  0  0  0  0  0  0  0  0  0
   22.0430   -5.7695  -14.7251 C   0  0  1  0  0  0  0  0  0  0  0  0
   23.0376   -4.8807  -15.4714 C   0  0  0  0  0  0  0  0  0  0  0  0
   23.3588   -3.4128  -14.4556 S   0  0  0  0  0  0  0  0  0  0  0  0
   20.7958   -4.9913  -14.5011 C   0  0  0  0  0  0  0  0  0  0  0  0
   20.5558   -4.2745  -13.3309 O   0  0  0  0  0  0  0  0  0  0  0  0
   19.8851   -4.9449  -15.3747 O   0  0  0  0  0  0  0  0  0  0  0  0
  2  1  1  6
  2  3  1  0
  4  2  1  0
  5  4  1  0
  5  7  1  0
  5  6  1  1
  7 13  1  0
  7  8  2  0
 10  9  1  6
 10 12  1  0
 11 10  1  0
 12 14  1  0
 12 13  1  1
 14 16  1  0
 14 15  2  0
 16 17  1  0
 17 20  1  0
 17 18  1  6
 19 18  1  0
 20 21  1  0
 22 20  2  0
M  END
$$$$
