LTC.pdb
     RDKit          3D

 22 21  0  0  1  0  0  0  0  0999 V2000
   23.0526  -14.5267  -14.5570 C   0  0  0  0  0  0  0  0  0  0  0  0
   23.6092  -14.0393  -15.8448 C   0  0  2  0  0  0  0  0  0  0  0  0
   25.1185  -14.1173  -15.8176 C   0  0  0  0  0  0  0  0  0  0  0  0
   23.1405  -12.6887  -16.2692 C   0  0  0  0  0  0  0  0  0  0  0  0
   21.6689  -12.5084  -16.3221 C   0  0  2  0  0  0  0  0  0  0  0  0
   21.0397  -13.3179  -17.3232 N   0  0  0  0  0  0  0  0  0  0  0  0
   21.3954  -11.0525  -16.5257 C   0  0  0  0  0  0  0  0  0  0  0  0
   21.8169  -10.5112  -17.5797 O   0  0  0  0  0  0  0  0  0  0  0  0
   18.0213   -9.5089  -16.6539 C   0  0  0  0  0  0  0  0  0  0  0  0
   18.7957   -8.8014  -15.5668 C   0  0  1  0  0  0  0  0  0  0  0  0
   18.5297   -9.3328  -14.3083 O   0  0  0  0  0  0  0  0  0  0  0  0
   20.3042   -8.8799  -15.8316 C   0  0  2  0  0  0  0  0  0  0  0  0
   20.6945  -10.2497  -15.6097 N   0  0  0  0  0  0  0  0  0  0  0  0
   21.0013   -7.9359  -14.9290 C   0  0  0  0  0  0  0  0  0  0  0  0
   21.4418   -8.3860  -13.8438 O   0  0  0  0  0  0  0  0  0  0  0  0
   21.2090   -6.5588  -15.1987 N   0  0  0  0  0  0  0  0  0  0  0  0
   21.8802   -5.6646  -14.2546 C   0  0  1  0  0  0  0  0  0  0  0  0
   23.2756   -5.3517  -14.7944 C   0  0  0  0  0  0  0  0  0  0  0  0
   23.1003   -4.7154  -16.4837 S   0  0  0  0  0  0  0  0  0  0  0  0
   21.1011   -4.3988  -14.2086 C   0  0  0  0  0  0  0  0  0  0  0  0
   21.4074   -3.3578  -13.3350 O   0  0  0  0  0  0  0  0  0  0  0  0
   20.1125   -4.2085  -14.9708 O   0  0  0  0  0  0  0  0  0  0  0  0
  2  1  1  1
  2  3  1  0
  4  2  1  0
  5  4  1  0
  5  7  1  0
  5  6  1  6
  7 13  1  0
  7  8  2  0
 10  9  1  6
 10 12  1  0
 11 10  1  0
 12 14  1  0
 12 13  1  1
 14 16  1  0
 14 15  2  0
 16 17  1  0
 17 20  1  0
 17 18  1  6
 19 18  1  0
 20 21  1  0
 22 20  2  0
M  END
$$$$
