CGH.pdb
     RDKit          3D

 21 21  0  0  1  0  0  0  0  0999 V2000
    9.6273  -14.5724   18.3685 N   0  0  0  0  0  0  0  0  0  0  0  0
    8.5836  -13.9920   19.1585 C   0  0  1  0  0  0  0  0  0  0  0  0
    7.3680  -13.7571   18.2759 C   0  0  0  0  0  0  0  0  0  0  0  0
    7.7902  -12.8445   16.7773 S   0  0  0  0  0  0  0  0  0  0  0  0
    8.2372  -14.8509   20.3175 C   0  0  0  0  0  0  0  0  0  0  0  0
    7.3568  -14.4620   21.1115 O   0  0  0  0  0  0  0  0  0  0  0  0
    8.9065  -16.0906   20.5038 N   0  0  0  0  0  0  0  0  0  0  0  0
    8.6347  -16.9171   21.6553 C   0  0  0  0  0  0  0  0  0  0  0  0
    9.2132  -16.3335   22.8973 C   0  0  0  0  0  0  0  0  0  0  0  0
   10.2527  -15.6345   22.8627 O   0  0  0  0  0  0  0  0  0  0  0  0
    8.6049  -16.5506   24.1622 N   0  0  0  0  0  0  0  0  0  0  0  0
    9.1142  -16.1069   25.4266 C   0  0  1  0  0  0  0  0  0  0  0  0
    8.0079  -15.5956   26.2990 C   0  0  0  0  0  0  0  0  0  0  0  0
    7.4075  -14.3292   25.8779 C   0  0  0  0  0  0  0  0  0  0  0  0
    7.8012  -13.4312   24.9337 C   0  0  0  0  0  0  0  0  0  0  0  0
    6.9278  -12.3787   24.9069 N   0  0  0  0  0  0  0  0  0  0  0  0
    6.0082  -12.6482   25.8394 C   0  0  0  0  0  0  0  0  0  0  0  0
    6.2742  -13.8158   26.4379 N   0  0  0  0  0  0  0  0  0  0  0  0
    9.7713  -17.2539   26.1585 C   0  0  0  0  0  0  0  0  0  0  0  0
   10.4101  -17.0240   27.3358 O   0  0  0  0  0  0  0  0  0  0  0  0
    9.7045  -18.3829   25.6531 O   0  0  0  0  0  0  0  0  0  0  0  0
  2  1  1  6
  3  2  1  0
  4  3  1  0
  5  2  1  0
  6  5  2  0
  7  5  1  0
  8  7  1  0
  9  8  1  0
  9 11  1  0
 10  9  2  0
 12 11  1  0
 13 14  1  0
 12 13  1  1
 14 18  1  0
 15 14  2  0
 15 16  1  0
 16 17  1  0
 18 17  2  0
 19 12  1  0
 20 19  1  0
 21 19  2  0
M  END
$$$$
