CGH.pdb
     RDKit          3D

 21 21  0  0  1  0  0  0  0  0999 V2000
    8.0430  -14.4849   27.0295 N   0  0  0  0  0  0  0  0  0  0  0  0
    6.7542  -14.0732   26.5605 C   0  0  1  0  0  0  0  0  0  0  0  0
    6.7792  -12.5759   26.2971 C   0  0  0  0  0  0  0  0  0  0  0  0
    7.6774  -11.6812   27.5815 S   0  0  0  0  0  0  0  0  0  0  0  0
    6.3560  -14.8179   25.3407 C   0  0  0  0  0  0  0  0  0  0  0  0
    5.6000  -14.2626   24.5179 O   0  0  0  0  0  0  0  0  0  0  0  0
    6.8366  -16.1386   25.1302 N   0  0  0  0  0  0  0  0  0  0  0  0
    6.5059  -16.8680   23.9296 C   0  0  0  0  0  0  0  0  0  0  0  0
    7.6075  -16.8050   22.9295 C   0  0  0  0  0  0  0  0  0  0  0  0
    7.5092  -17.3770   21.8188 O   0  0  0  0  0  0  0  0  0  0  0  0
    8.8064  -16.0940   23.2025 N   0  0  0  0  0  0  0  0  0  0  0  0
    9.9285  -15.9686   22.3194 C   0  0  1  0  0  0  0  0  0  0  0  0
   10.0342  -14.5727   21.7839 C   0  0  0  0  0  0  0  0  0  0  0  0
    8.9710  -14.1690   20.8628 C   0  0  0  0  0  0  0  0  0  0  0  0
    7.8845  -13.3722   21.0566 C   0  0  0  0  0  0  0  0  0  0  0  0
    7.1564  -13.2976   19.9008 N   0  0  0  0  0  0  0  0  0  0  0  0
    7.8102  -14.0533   19.0123 C   0  0  0  0  0  0  0  0  0  0  0  0
    8.9051  -14.5886   19.5663 N   0  0  0  0  0  0  0  0  0  0  0  0
   11.2126  -16.2659   23.0582 C   0  0  0  0  0  0  0  0  0  0  0  0
   11.1715  -16.5876   24.3779 O   0  0  0  0  0  0  0  0  0  0  0  0
   12.2763  -16.2053   22.4263 O   0  0  0  0  0  0  0  0  0  0  0  0
  2  1  1  6
  3  2  1  0
  4  3  1  0
  5  2  1  0
  6  5  2  0
  7  5  1  0
  8  7  1  0
  9  8  1  0
  9 11  1  0
 10  9  2  0
 12 11  1  0
 13 14  1  0
 12 13  1  1
 14 18  1  0
 15 14  2  0
 15 16  1  0
 16 17  1  0
 18 17  2  0
 19 12  1  0
 20 19  1  0
 21 19  2  0
M  END
$$$$
