CGH.pdb
     RDKit          3D

 21 21  0  0  1  0  0  0  0  0999 V2000
    4.8881  -18.0942   19.4873 N   0  0  0  0  0  0  0  0  0  0  0  0
    6.0069  -17.7310   20.3038 C   0  0  1  0  0  0  0  0  0  0  0  0
    6.4070  -16.2991   19.9854 C   0  0  0  0  0  0  0  0  0  0  0  0
    7.9219  -15.8175   20.8400 S   0  0  0  0  0  0  0  0  0  0  0  0
    5.6998  -17.8855   21.7470 C   0  0  0  0  0  0  0  0  0  0  0  0
    4.8012  -17.1804   22.2489 O   0  0  0  0  0  0  0  0  0  0  0  0
    6.4265  -18.8246   22.5277 N   0  0  0  0  0  0  0  0  0  0  0  0
    6.4292  -18.7500   23.9690 C   0  0  0  0  0  0  0  0  0  0  0  0
    7.7404  -18.2738   24.4904 C   0  0  0  0  0  0  0  0  0  0  0  0
    8.8004  -18.4601   23.8484 O   0  0  0  0  0  0  0  0  0  0  0  0
    7.8319  -17.5923   25.7332 N   0  0  0  0  0  0  0  0  0  0  0  0
    9.0126  -16.9850   26.2734 C   0  0  1  0  0  0  0  0  0  0  0  0
    8.7092  -15.6258   26.8274 C   0  0  0  0  0  0  0  0  0  0  0  0
    8.1642  -14.6624   25.8701 C   0  0  0  0  0  0  0  0  0  0  0  0
    8.7144  -14.1145   24.7520 C   0  0  0  0  0  0  0  0  0  0  0  0
    7.8275  -13.2422   24.1827 N   0  0  0  0  0  0  0  0  0  0  0  0
    6.7427  -13.2684   24.9639 C   0  0  0  0  0  0  0  0  0  0  0  0
    6.9200  -14.1149   25.9858 N   0  0  0  0  0  0  0  0  0  0  0  0
    9.5604  -17.8211   27.4065 C   0  0  0  0  0  0  0  0  0  0  0  0
    8.8584  -18.8967   27.8505 O   0  0  0  0  0  0  0  0  0  0  0  0
   10.6479  -17.4929   27.9005 O   0  0  0  0  0  0  0  0  0  0  0  0
  2  1  1  6
  3  2  1  0
  4  3  1  0
  5  2  1  0
  6  5  2  0
  7  5  1  0
  8  7  1  0
  9  8  1  0
  9 11  1  0
 10  9  2  0
 12 11  1  0
 13 14  1  0
 12 13  1  1
 14 18  1  0
 15 14  2  0
 15 16  1  0
 16 17  1  0
 18 17  2  0
 19 12  1  0
 20 19  1  0
 21 19  2  0
M  END
$$$$
