CGH.pdb
     RDKit          3D

 21 21  0  0  1  0  0  0  0  0999 V2000
    6.0996  -15.8501   24.5951 N   0  0  0  0  0  0  0  0  0  0  0  0
    6.6856  -14.6885   23.9972 C   0  0  1  0  0  0  0  0  0  0  0  0
    6.3655  -13.4755   24.8564 C   0  0  0  0  0  0  0  0  0  0  0  0
    5.5950  -13.9425   26.4202 S   0  0  0  0  0  0  0  0  0  0  0  0
    8.1513  -14.8444   23.8282 C   0  0  0  0  0  0  0  0  0  0  0  0
    8.8292  -13.8457   23.5126 O   0  0  0  0  0  0  0  0  0  0  0  0
    8.7544  -16.1159   24.0261 N   0  0  0  0  0  0  0  0  0  0  0  0
   10.1507  -16.3309   23.7312 C   0  0  0  0  0  0  0  0  0  0  0  0
   10.9548  -16.4912   24.9744 C   0  0  0  0  0  0  0  0  0  0  0  0
   12.2059  -16.4256   24.9510 O   0  0  0  0  0  0  0  0  0  0  0  0
   10.3288  -16.7239   26.2279 N   0  0  0  0  0  0  0  0  0  0  0  0
   10.9999  -17.0113   27.4615 C   0  0  1  0  0  0  0  0  0  0  0  0
   10.3080  -16.3479   28.6138 C   0  0  0  0  0  0  0  0  0  0  0  0
   10.1192  -14.9022   28.4878 C   0  0  0  0  0  0  0  0  0  0  0  0
   10.9325  -13.8676   28.8358 C   0  0  0  0  0  0  0  0  0  0  0  0
   10.3190  -12.6808   28.5418 N   0  0  0  0  0  0  0  0  0  0  0  0
    9.1337  -13.0071   28.0161 C   0  0  0  0  0  0  0  0  0  0  0  0
    8.9892  -14.3374   27.9727 N   0  0  0  0  0  0  0  0  0  0  0  0
   10.9927  -18.4986   27.7278 C   0  0  0  0  0  0  0  0  0  0  0  0
   10.2399  -19.3189   26.9485 O   0  0  0  0  0  0  0  0  0  0  0  0
   11.6839  -18.9271   28.6623 O   0  0  0  0  0  0  0  0  0  0  0  0
  2  1  1  1
  3  2  1  0
  4  3  1  0
  5  2  1  0
  6  5  2  0
  7  5  1  0
  8  7  1  0
  9  8  1  0
  9 11  1  0
 10  9  2  0
 12 11  1  0
 13 14  1  0
 12 13  1  1
 14 18  1  0
 15 14  2  0
 15 16  1  0
 16 17  1  0
 18 17  2  0
 19 12  1  0
 20 19  1  0
 21 19  2  0
M  END
$$$$
