CGH.pdb
     RDKit          3D

 21 21  0  0  1  0  0  0  0  0999 V2000
    8.3185  -12.5133   19.0785 N   0  0  0  0  0  0  0  0  0  0  0  0
    8.2050  -13.7314   19.8225 C   0  0  1  0  0  0  0  0  0  0  0  0
    7.6072  -14.8042   18.9262 C   0  0  0  0  0  0  0  0  0  0  0  0
    5.9547  -14.3590   18.3532 S   0  0  0  0  0  0  0  0  0  0  0  0
    9.5178  -14.1640   20.3613 C   0  0  0  0  0  0  0  0  0  0  0  0
   10.5247  -13.4672   20.1216 O   0  0  0  0  0  0  0  0  0  0  0  0
    9.6076  -15.3531   21.1343 N   0  0  0  0  0  0  0  0  0  0  0  0
   10.8714  -15.7979   21.6709 C   0  0  0  0  0  0  0  0  0  0  0  0
   10.8235  -15.9220   23.1541 C   0  0  0  0  0  0  0  0  0  0  0  0
   11.8713  -16.0545   23.8285 O   0  0  0  0  0  0  0  0  0  0  0  0
    9.5873  -15.8941   23.8530 N   0  0  0  0  0  0  0  0  0  0  0  0
    9.4218  -16.0086   25.2722 C   0  0  1  0  0  0  0  0  0  0  0  0
    7.9926  -15.7834   25.6638 C   0  0  0  0  0  0  0  0  0  0  0  0
    7.5183  -14.4035   25.5509 C   0  0  0  0  0  0  0  0  0  0  0  0
    8.1930  -13.2528   25.2795 C   0  0  0  0  0  0  0  0  0  0  0  0
    7.3251  -12.1955   25.2962 N   0  0  0  0  0  0  0  0  0  0  0  0
    6.1265  -12.7161   25.5793 C   0  0  0  0  0  0  0  0  0  0  0  0
    6.2159  -14.0426   25.7371 N   0  0  0  0  0  0  0  0  0  0  0  0
    9.8017  -17.3963   25.7338 C   0  0  0  0  0  0  0  0  0  0  0  0
   10.1009  -17.6128   27.0417 O   0  0  0  0  0  0  0  0  0  0  0  0
    9.8282  -18.3042   24.8915 O   0  0  0  0  0  0  0  0  0  0  0  0
  2  1  1  6
  3  2  1  0
  4  3  1  0
  5  2  1  0
  6  5  2  0
  7  5  1  0
  8  7  1  0
  9  8  1  0
  9 11  1  0
 10  9  2  0
 12 11  1  0
 13 14  1  0
 12 13  1  6
 14 18  1  0
 15 14  2  0
 15 16  1  0
 16 17  1  0
 18 17  2  0
 19 12  1  0
 20 19  1  0
 21 19  2  0
M  END
$$$$
