CGH.pdb
     RDKit          3D

 21 21  0  0  1  0  0  0  0  0999 V2000
    2.7272  -20.6368   19.7601 N   0  0  0  0  0  0  0  0  0  0  0  0
    3.5988  -19.6556   20.3328 C   0  0  1  0  0  0  0  0  0  0  0  0
    2.7986  -18.7768   21.2810 C   0  0  0  0  0  0  0  0  0  0  0  0
    1.0692  -19.2849   21.3720 S   0  0  0  0  0  0  0  0  0  0  0  0
    4.7420  -20.2878   21.0360 C   0  0  0  0  0  0  0  0  0  0  0  0
    5.0806  -21.4444   20.7131 O   0  0  0  0  0  0  0  0  0  0  0  0
    5.4267  -19.5738   22.0562 N   0  0  0  0  0  0  0  0  0  0  0  0
    6.8520  -19.7147   22.2344 C   0  0  0  0  0  0  0  0  0  0  0  0
    7.3414  -18.9127   23.3898 C   0  0  0  0  0  0  0  0  0  0  0  0
    8.5414  -18.9564   23.7482 O   0  0  0  0  0  0  0  0  0  0  0  0
    6.4632  -18.0715   24.1234 N   0  0  0  0  0  0  0  0  0  0  0  0
    6.7184  -17.5180   25.4208 C   0  0  1  0  0  0  0  0  0  0  0  0
    7.9228  -18.1543   26.0462 C   0  0  0  0  0  0  0  0  0  0  0  0
    7.7054  -19.4807   26.6252 C   0  0  0  0  0  0  0  0  0  0  0  0
    6.7817  -20.4365   26.3316 C   0  0  0  0  0  0  0  0  0  0  0  0
    6.9563  -21.5140   27.1562 N   0  0  0  0  0  0  0  0  0  0  0  0
    7.9885  -21.2011   27.9464 C   0  0  0  0  0  0  0  0  0  0  0  0
    8.4569  -19.9831   27.6471 N   0  0  0  0  0  0  0  0  0  0  0  0
    6.9967  -16.0367   25.3131 C   0  0  0  0  0  0  0  0  0  0  0  0
    7.0503  -15.2778   26.4392 O   0  0  0  0  0  0  0  0  0  0  0  0
    7.1695  -15.5564   24.1845 O   0  0  0  0  0  0  0  0  0  0  0  0
  2  1  1  1
  3  2  1  0
  4  3  1  0
  5  2  1  0
  6  5  2  0
  7  5  1  0
  8  7  1  0
  9  8  1  0
  9 11  1  0
 10  9  2  0
 12 11  1  0
 13 14  1  0
 12 13  1  6
 14 18  1  0
 15 14  2  0
 15 16  1  0
 16 17  1  0
 18 17  2  0
 19 12  1  0
 20 19  1  0
 21 19  2  0
M  END
$$$$
