CGH.pdb
     RDKit          3D

 21 21  0  0  1  0  0  0  0  0999 V2000
    7.0424  -19.4339   16.5595 N   0  0  0  0  0  0  0  0  0  0  0  0
    8.3665  -19.3511   17.0982 C   0  0  1  0  0  0  0  0  0  0  0  0
    9.1645  -18.3366   16.2944 C   0  0  0  0  0  0  0  0  0  0  0  0
    9.9905  -19.0969   14.8813 S   0  0  0  0  0  0  0  0  0  0  0  0
    8.3468  -18.9881   18.5365 C   0  0  0  0  0  0  0  0  0  0  0  0
    7.5118  -18.1502   18.9333 O   0  0  0  0  0  0  0  0  0  0  0  0
    9.2699  -19.5940   19.4312 N   0  0  0  0  0  0  0  0  0  0  0  0
    9.1867  -19.3649   20.8537 C   0  0  0  0  0  0  0  0  0  0  0  0
    9.8947  -18.1160   21.2497 C   0  0  0  0  0  0  0  0  0  0  0  0
   10.9614  -17.7697   20.6907 O   0  0  0  0  0  0  0  0  0  0  0  0
    9.3831  -17.2763   22.2746 N   0  0  0  0  0  0  0  0  0  0  0  0
    9.9839  -16.0626   22.7443 C   0  0  1  0  0  0  0  0  0  0  0  0
    8.9722  -14.9593   22.8196 C   0  0  0  0  0  0  0  0  0  0  0  0
    8.5523  -14.4006   21.5338 C   0  0  0  0  0  0  0  0  0  0  0  0
    8.9775  -14.6685   20.2687 C   0  0  0  0  0  0  0  0  0  0  0  0
    8.3016  -13.8790   19.3792 N   0  0  0  0  0  0  0  0  0  0  0  0
    7.4691  -13.1357   20.1154 C   0  0  0  0  0  0  0  0  0  0  0  0
    7.6006  -13.4303   21.4147 N   0  0  0  0  0  0  0  0  0  0  0  0
   10.5414  -16.2579   24.1351 C   0  0  0  0  0  0  0  0  0  0  0  0
   11.4713  -15.3913   24.6159 O   0  0  0  0  0  0  0  0  0  0  0  0
   10.1256  -17.2163   24.8007 O   0  0  0  0  0  0  0  0  0  0  0  0
  2  1  1  6
  3  2  1  0
  4  3  1  0
  5  2  1  0
  6  5  2  0
  7  5  1  0
  8  7  1  0
  9  8  1  0
  9 11  1  0
 10  9  2  0
 12 11  1  0
 13 14  1  0
 12 13  1  1
 14 18  1  0
 15 14  2  0
 15 16  1  0
 16 17  1  0
 18 17  2  0
 19 12  1  0
 20 19  1  0
 21 19  2  0
M  END
$$$$
