LYA.pdb
     RDKit          3D

 26 26  0  0  1  0  0  0  0  0999 V2000
    7.0334  -12.3666   18.5170 C   0  0  0  0  0  0  0  0  0  0  0  0
    7.6276  -13.6490   19.0422 C   0  0  1  0  0  0  0  0  0  0  0  0
    8.4289  -14.2915   17.9569 C   0  0  0  0  0  0  0  0  0  0  0  0
    8.4238  -13.4291   20.3167 C   0  0  0  0  0  0  0  0  0  0  0  0
    8.8831  -14.7865   20.7964 C   0  0  2  0  0  0  0  0  0  0  0  0
    7.7565  -15.6724   20.7678 N   0  0  0  0  0  0  0  0  0  0  0  0
    9.5382  -14.7229   22.1160 C   0  0  0  0  0  0  0  0  0  0  0  0
   10.6335  -14.1238   22.2198 O   0  0  0  0  0  0  0  0  0  0  0  0
   10.9497  -14.9616   30.8002 O   0  0  0  0  0  0  0  0  0  0  0  0
   10.3879  -15.0295   29.5165 C   0  0  0  0  0  0  0  0  0  0  0  0
   10.0259  -16.2518   28.9891 C   0  0  0  0  0  0  0  0  0  0  0  0
    9.4728  -16.2510   27.7081 C   0  0  0  0  0  0  0  0  0  0  0  0
    9.2901  -15.0890   26.9898 C   0  0  0  0  0  0  0  0  0  0  0  0
    8.7003  -15.1204   25.6267 C   0  0  0  0  0  0  0  0  0  0  0  0
    9.6962  -15.2712   24.5288 C   0  0  2  0  0  0  0  0  0  0  0  0
    8.9793  -15.3121   23.2726 N   0  0  0  0  0  0  0  0  0  0  0  0
   10.5467  -16.4713   24.6099 C   0  0  0  0  0  0  0  0  0  0  0  0
   11.2227  -16.6099   25.6659 O   0  0  0  0  0  0  0  0  0  0  0  0
    9.6765  -13.8986   27.5822 C   0  0  0  0  0  0  0  0  0  0  0  0
   10.2268  -13.8361   28.8405 C   0  0  0  0  0  0  0  0  0  0  0  0
   11.1408  -19.7641   22.9726 C   0  0  0  0  0  0  0  0  0  0  0  0
   11.5383  -18.5842   23.8427 C   0  0  2  0  0  0  0  0  0  0  0  0
   10.6609  -17.4538   23.6219 N   0  0  0  0  0  0  0  0  0  0  0  0
   12.9632  -18.2238   23.5999 C   0  0  0  0  0  0  0  0  0  0  0  0
   13.9829  -19.0688   24.0034 O   0  0  0  0  0  0  0  0  0  0  0  0
   13.2922  -17.1525   23.0268 O   0  0  0  0  0  0  0  0  0  0  0  0
  2  1  1  6
  2  3  1  0
  4  2  1  0
  4  5  1  0
  5  6  1  1
  7  5  1  0
  7  8  2  0
  9 10  1  0
 10 11  2  0
 11 12  1  0
 13 12  2  0
 13 14  1  0
 15 14  1  1
 15 16  1  0
 16  7  1  0
 17 15  1  0
 18 17  2  0
 19 13  1  0
 20 10  1  0
 20 19  2  0
 22 21  1  6
 22 23  1  0
 23 17  1  0
 24 22  1  0
 25 24  1  0
 26 24  2  0
M  END
$$$$
