LYA.pdb
     RDKit          3D

 26 26  0  0  1  0  0  0  0  0999 V2000
    7.2617  -12.1984   19.4050 C   0  0  0  0  0  0  0  0  0  0  0  0
    7.6998  -13.5774   19.8291 C   0  0  1  0  0  0  0  0  0  0  0  0
    8.4576  -14.2108   18.7079 C   0  0  0  0  0  0  0  0  0  0  0  0
    8.4788  -13.5531   21.1326 C   0  0  0  0  0  0  0  0  0  0  0  0
    8.7545  -14.9888   21.5151 C   0  0  2  0  0  0  0  0  0  0  0  0
    7.5595  -15.7469   21.2868 N   0  0  0  0  0  0  0  0  0  0  0  0
    9.2671  -15.1139   22.8920 C   0  0  0  0  0  0  0  0  0  0  0  0
   10.3102  -14.4962   23.2081 O   0  0  0  0  0  0  0  0  0  0  0  0
    5.8729  -10.6745   26.6564 O   0  0  0  0  0  0  0  0  0  0  0  0
    6.3852  -11.9737   26.5231 C   0  0  0  0  0  0  0  0  0  0  0  0
    5.6279  -12.9513   25.9117 C   0  0  0  0  0  0  0  0  0  0  0  0
    6.1947  -14.2222   25.8106 C   0  0  0  0  0  0  0  0  0  0  0  0
    7.4540  -14.5033   26.2956 C   0  0  0  0  0  0  0  0  0  0  0  0
    8.0299  -15.8673   26.1751 C   0  0  0  0  0  0  0  0  0  0  0  0
    9.1647  -15.9734   25.2154 C   0  0  2  0  0  0  0  0  0  0  0  0
    8.6280  -15.9047   23.8735 N   0  0  0  0  0  0  0  0  0  0  0  0
    9.9693  -17.2025   25.3244 C   0  0  0  0  0  0  0  0  0  0  0  0
   10.1183  -17.6750   26.4846 O   0  0  0  0  0  0  0  0  0  0  0  0
    8.1567  -13.4732   26.8973 C   0  0  0  0  0  0  0  0  0  0  0  0
    7.6512  -12.2012   27.0259 C   0  0  0  0  0  0  0  0  0  0  0  0
   11.1943  -20.0246   23.2651 C   0  0  0  0  0  0  0  0  0  0  0  0
   11.2347  -19.1402   24.4994 C   0  0  2  0  0  0  0  0  0  0  0  0
   10.5717  -17.8760   24.2575 N   0  0  0  0  0  0  0  0  0  0  0  0
   12.6428  -18.9412   24.9429 C   0  0  0  0  0  0  0  0  0  0  0  0
   13.2420  -17.6966   24.8501 O   0  0  0  0  0  0  0  0  0  0  0  0
   13.3339  -19.8825   25.4128 O   0  0  0  0  0  0  0  0  0  0  0  0
  2  1  1  6
  2  3  1  0
  4  2  1  0
  4  5  1  0
  5  6  1  1
  7  5  1  0
  7  8  2  0
  9 10  1  0
 10 11  2  0
 11 12  1  0
 13 12  2  0
 13 14  1  0
 15 14  1  1
 15 16  1  0
 16  7  1  0
 17 15  1  0
 18 17  2  0
 19 13  1  0
 20 10  1  0
 20 19  2  0
 22 21  1  6
 22 23  1  0
 23 17  1  0
 24 22  1  0
 25 24  1  0
 26 24  2  0
M  END
$$$$
