LYA.pdb
     RDKit          3D

 26 26  0  0  1  0  0  0  0  0999 V2000
    7.6878  -12.1748   18.8635 C   0  0  0  0  0  0  0  0  0  0  0  0
    8.0570  -13.5982   19.1967 C   0  0  1  0  0  0  0  0  0  0  0  0
    9.4791  -13.6352   19.6538 C   0  0  0  0  0  0  0  0  0  0  0  0
    7.0962  -14.2181   20.1963 C   0  0  0  0  0  0  0  0  0  0  0  0
    7.6468  -15.5771   20.5617 C   0  0  2  0  0  0  0  0  0  0  0  0
    7.1020  -16.5377   19.6477 N   0  0  0  0  0  0  0  0  0  0  0  0
    7.4047  -15.9187   21.9756 C   0  0  0  0  0  0  0  0  0  0  0  0
    6.2366  -16.1829   22.3430 O   0  0  0  0  0  0  0  0  0  0  0  0
    8.5892  -18.4753   30.3033 O   0  0  0  0  0  0  0  0  0  0  0  0
    8.7488  -18.1531   28.9472 C   0  0  0  0  0  0  0  0  0  0  0  0
    9.8596  -17.4462   28.5354 C   0  0  0  0  0  0  0  0  0  0  0  0
    9.9588  -17.1577   27.1739 C   0  0  0  0  0  0  0  0  0  0  0  0
    8.9978  -17.5546   26.2690 C   0  0  0  0  0  0  0  0  0  0  0  0
    9.1303  -17.2305   24.8254 C   0  0  0  0  0  0  0  0  0  0  0  0
    8.1349  -16.2423   24.3228 C   0  0  2  0  0  0  0  0  0  0  0  0
    8.4399  -15.9605   22.9367 N   0  0  0  0  0  0  0  0  0  0  0  0
    8.0936  -14.9629   25.0518 C   0  0  0  0  0  0  0  0  0  0  0  0
    9.1226  -14.2376   24.9715 O   0  0  0  0  0  0  0  0  0  0  0  0
    7.9099  -18.2607   26.7537 C   0  0  0  0  0  0  0  0  0  0  0  0
    7.7571  -18.5746   28.0834 C   0  0  0  0  0  0  0  0  0  0  0  0
    5.7677  -12.7138   26.9299 C   0  0  0  0  0  0  0  0  0  0  0  0
    7.1311  -13.2264   26.4991 C   0  0  2  0  0  0  0  0  0  0  0  0
    7.0184  -14.4973   25.8145 N   0  0  0  0  0  0  0  0  0  0  0  0
    8.0401  -13.3197   27.6755 C   0  0  0  0  0  0  0  0  0  0  0  0
    8.4947  -12.1751   28.3078 O   0  0  0  0  0  0  0  0  0  0  0  0
    8.4256  -14.4264   28.1349 O   0  0  0  0  0  0  0  0  0  0  0  0
  2  1  1  1
  2  3  1  0
  4  2  1  0
  4  5  1  0
  5  6  1  6
  7  5  1  0
  7  8  2  0
  9 10  1  0
 10 11  2  0
 11 12  1  0
 13 12  2  0
 13 14  1  0
 15 14  1  1
 15 16  1  0
 16  7  1  0
 17 15  1  0
 18 17  2  0
 19 13  1  0
 20 10  1  0
 20 19  2  0
 22 21  1  1
 22 23  1  0
 23 17  1  0
 24 22  1  0
 25 24  1  0
 26 24  2  0
M  END
$$$$
