LYA.pdb
     RDKit          3D

 26 26  0  0  1  0  0  0  0  0999 V2000
    7.5408  -13.8484   16.0995 C   0  0  0  0  0  0  0  0  0  0  0  0
    8.1935  -14.6980   17.1604 C   0  0  1  0  0  0  0  0  0  0  0  0
    9.4647  -15.2625   16.6143 C   0  0  0  0  0  0  0  0  0  0  0  0
    8.3923  -13.9364   18.4592 C   0  0  0  0  0  0  0  0  0  0  0  0
    8.8509  -14.9348   19.4968 C   0  0  2  0  0  0  0  0  0  0  0  0
    8.0590  -16.1209   19.3528 N   0  0  0  0  0  0  0  0  0  0  0  0
    8.8204  -14.3787   20.8622 C   0  0  0  0  0  0  0  0  0  0  0  0
    8.5645  -13.1619   21.0147 O   0  0  0  0  0  0  0  0  0  0  0  0
    6.1501  -11.9251   28.4614 O   0  0  0  0  0  0  0  0  0  0  0  0
    6.4697  -12.5448   27.2441 C   0  0  0  0  0  0  0  0  0  0  0  0
    6.5562  -11.7913   26.0917 C   0  0  0  0  0  0  0  0  0  0  0  0
    6.8776  -12.4676   24.9144 C   0  0  0  0  0  0  0  0  0  0  0  0
    7.1014  -13.8274   24.8884 C   0  0  0  0  0  0  0  0  0  0  0  0
    7.4400  -14.5198   23.6186 C   0  0  0  0  0  0  0  0  0  0  0  0
    8.8998  -14.5979   23.3306 C   0  0  2  0  0  0  0  0  0  0  0  0
    9.0690  -15.1647   22.0101 N   0  0  0  0  0  0  0  0  0  0  0  0
    9.6870  -15.4042   24.2793 C   0  0  0  0  0  0  0  0  0  0  0  0
   10.5713  -14.7915   24.9381 O   0  0  0  0  0  0  0  0  0  0  0  0
    6.9975  -14.5197   26.0830 C   0  0  0  0  0  0  0  0  0  0  0  0
    6.6841  -13.9088   27.2741 C   0  0  0  0  0  0  0  0  0  0  0  0
    9.8087  -18.7788   25.8813 C   0  0  0  0  0  0  0  0  0  0  0  0
   10.3906  -17.4402   25.4610 C   0  0  2  0  0  0  0  0  0  0  0  0
    9.5322  -16.7756   24.5029 N   0  0  0  0  0  0  0  0  0  0  0  0
   11.7674  -17.6247   24.9231 C   0  0  0  0  0  0  0  0  0  0  0  0
   12.7689  -18.1577   25.7166 O   0  0  0  0  0  0  0  0  0  0  0  0
   12.0710  -17.3081   23.7432 O   0  0  0  0  0  0  0  0  0  0  0  0
  2  1  1  6
  2  3  1  0
  4  2  1  0
  4  5  1  0
  5  6  1  1
  7  5  1  0
  7  8  2  0
  9 10  1  0
 10 11  2  0
 11 12  1  0
 13 12  2  0
 13 14  1  0
 15 14  1  1
 15 16  1  0
 16  7  1  0
 17 15  1  0
 18 17  2  0
 19 13  1  0
 20 10  1  0
 20 19  2  0
 22 21  1  6
 22 23  1  0
 23 17  1  0
 24 22  1  0
 25 24  1  0
 26 24  2  0
M  END
$$$$
