LYA.pdb
     RDKit          3D

 26 26  0  0  1  0  0  0  0  0999 V2000
    7.6442  -12.2022   19.0293 C   0  0  0  0  0  0  0  0  0  0  0  0
    7.7969  -13.6642   19.3647 C   0  0  1  0  0  0  0  0  0  0  0  0
    9.2482  -13.9704   19.5459 C   0  0  0  0  0  0  0  0  0  0  0  0
    6.9518  -14.0668   20.5606 C   0  0  0  0  0  0  0  0  0  0  0  0
    7.2629  -15.5149   20.8604 C   0  0  2  0  0  0  0  0  0  0  0  0
    6.4411  -16.3302   20.0150 N   0  0  0  0  0  0  0  0  0  0  0  0
    7.1192  -15.8345   22.2927 C   0  0  0  0  0  0  0  0  0  0  0  0
    5.9724  -15.8539   22.7965 O   0  0  0  0  0  0  0  0  0  0  0  0
    8.3814  -19.8402   29.9603 O   0  0  0  0  0  0  0  0  0  0  0  0
    8.4584  -19.3565   28.6457 C   0  0  0  0  0  0  0  0  0  0  0  0
    9.6879  -19.0647   28.0923 C   0  0  0  0  0  0  0  0  0  0  0  0
    9.6961  -18.5874   26.7812 C   0  0  0  0  0  0  0  0  0  0  0  0
    8.5356  -18.4101   26.0589 C   0  0  0  0  0  0  0  0  0  0  0  0
    8.5763  -17.8980   24.6651 C   0  0  0  0  0  0  0  0  0  0  0  0
    8.0189  -16.5264   24.4971 C   0  0  2  0  0  0  0  0  0  0  0  0
    8.2259  -16.1210   23.1236 N   0  0  0  0  0  0  0  0  0  0  0  0
    8.6052  -15.4964   25.3719 C   0  0  0  0  0  0  0  0  0  0  0  0
    9.7858  -15.1400   25.1063 O   0  0  0  0  0  0  0  0  0  0  0  0
    7.3377  -18.7236   26.6785 C   0  0  0  0  0  0  0  0  0  0  0  0
    7.2662  -19.1975   27.9670 C   0  0  0  0  0  0  0  0  0  0  0  0
    7.6602  -12.9546   27.9212 C   0  0  0  0  0  0  0  0  0  0  0  0
    8.6485  -13.8530   27.1977 C   0  0  2  0  0  0  0  0  0  0  0  0
    7.9641  -14.8923   26.4576 N   0  0  0  0  0  0  0  0  0  0  0  0
    9.6254  -14.4261   28.1653 C   0  0  0  0  0  0  0  0  0  0  0  0
   10.5929  -13.6256   28.7482 O   0  0  0  0  0  0  0  0  0  0  0  0
    9.6106  -15.6430   28.4869 O   0  0  0  0  0  0  0  0  0  0  0  0
  2  1  1  1
  2  3  1  0
  4  2  1  0
  4  5  1  0
  5  6  1  6
  7  5  1  0
  7  8  2  0
  9 10  1  0
 10 11  2  0
 11 12  1  0
 13 12  2  0
 13 14  1  0
 15 14  1  6
 15 16  1  0
 16  7  1  0
 17 15  1  0
 18 17  2  0
 19 13  1  0
 20 10  1  0
 20 19  2  0
 22 21  1  1
 22 23  1  0
 23 17  1  0
 24 22  1  0
 25 24  1  0
 26 24  2  0
M  END
$$$$
