LYA.pdb
     RDKit          3D

 26 26  0  0  1  0  0  0  0  0999 V2000
    7.8429  -12.6658   17.8056 C   0  0  0  0  0  0  0  0  0  0  0  0
    8.1248  -14.1134   18.1191 C   0  0  1  0  0  0  0  0  0  0  0  0
    7.8964  -14.9287   16.8879 C   0  0  0  0  0  0  0  0  0  0  0  0
    9.5089  -14.3099   18.7124 C   0  0  0  0  0  0  0  0  0  0  0  0
    9.4342  -15.5046   19.6348 C   0  0  2  0  0  0  0  0  0  0  0  0
    8.2717  -16.2658   19.2826 N   0  0  0  0  0  0  0  0  0  0  0  0
    9.4657  -15.1177   21.0573 C   0  0  0  0  0  0  0  0  0  0  0  0
   10.5050  -14.5919   21.5188 O   0  0  0  0  0  0  0  0  0  0  0  0
    6.9204  -12.5446   29.0611 O   0  0  0  0  0  0  0  0  0  0  0  0
    6.9843  -12.9732   27.7268 C   0  0  0  0  0  0  0  0  0  0  0  0
    7.4378  -12.1114   26.7497 C   0  0  0  0  0  0  0  0  0  0  0  0
    7.4771  -12.5985   25.4428 C   0  0  0  0  0  0  0  0  0  0  0  0
    7.0836  -13.8812   25.1270 C   0  0  0  0  0  0  0  0  0  0  0  0
    7.1349  -14.3708   23.7255 C   0  0  0  0  0  0  0  0  0  0  0  0
    8.4571  -14.9204   23.3137 C   0  0  2  0  0  0  0  0  0  0  0  0
    8.3679  -15.3163   21.9248 N   0  0  0  0  0  0  0  0  0  0  0  0
    8.9273  -16.0800   24.0911 C   0  0  0  0  0  0  0  0  0  0  0  0
    8.3073  -17.1641   23.9127 O   0  0  0  0  0  0  0  0  0  0  0  0
    6.6396  -14.6907   26.1589 C   0  0  0  0  0  0  0  0  0  0  0  0
    6.5784  -14.2671   27.4654 C   0  0  0  0  0  0  0  0  0  0  0  0
   11.8471  -17.6287   25.3485 C   0  0  0  0  0  0  0  0  0  0  0  0
   10.3901  -17.3095   25.6354 C   0  0  2  0  0  0  0  0  0  0  0  0
    9.9915  -16.0722   24.9977 N   0  0  0  0  0  0  0  0  0  0  0  0
   10.1536  -17.2658   27.1055 C   0  0  0  0  0  0  0  0  0  0  0  0
   10.3522  -18.3922   27.8854 O   0  0  0  0  0  0  0  0  0  0  0  0
    9.7694  -16.2186   27.6887 O   0  0  0  0  0  0  0  0  0  0  0  0
  2  1  1  6
  2  3  1  0
  4  2  1  0
  4  5  1  0
  5  6  1  1
  7  5  1  0
  7  8  2  0
  9 10  1  0
 10 11  2  0
 11 12  1  0
 13 12  2  0
 13 14  1  0
 15 14  1  1
 15 16  1  0
 16  7  1  0
 17 15  1  0
 18 17  2  0
 19 13  1  0
 20 10  1  0
 20 19  2  0
 22 21  1  1
 22 23  1  0
 23 17  1  0
 24 22  1  0
 25 24  1  0
 26 24  2  0
M  END
$$$$
