LYA.pdb
     RDKit          3D

 26 26  0  0  1  0  0  0  0  0999 V2000
    7.6056  -12.7125   21.3346 C   0  0  0  0  0  0  0  0  0  0  0  0
    7.4466  -13.5080   20.0637 C   0  0  1  0  0  0  0  0  0  0  0  0
    7.1286  -12.5720   18.9432 C   0  0  0  0  0  0  0  0  0  0  0  0
    8.6567  -14.3814   19.7819 C   0  0  0  0  0  0  0  0  0  0  0  0
    8.5499  -15.5949   20.6761 C   0  0  2  0  0  0  0  0  0  0  0  0
    7.1595  -15.8968   20.8512 N   0  0  0  0  0  0  0  0  0  0  0  0
    9.2705  -15.4178   21.9503 C   0  0  0  0  0  0  0  0  0  0  0  0
   10.4950  -15.1549   21.9218 O   0  0  0  0  0  0  0  0  0  0  0  0
   10.9880  -14.9579   30.6080 O   0  0  0  0  0  0  0  0  0  0  0  0
   10.3745  -14.9879   29.3467 C   0  0  0  0  0  0  0  0  0  0  0  0
    9.7479  -16.1386   28.9151 C   0  0  0  0  0  0  0  0  0  0  0  0
    9.1572  -16.1033   27.6515 C   0  0  0  0  0  0  0  0  0  0  0  0
    9.1903  -14.9763   26.8587 C   0  0  0  0  0  0  0  0  0  0  0  0
    8.5539  -14.9699   25.5164 C   0  0  0  0  0  0  0  0  0  0  0  0
    9.4165  -15.5014   24.4240 C   0  0  2  0  0  0  0  0  0  0  0  0
    8.6344  -15.5330   23.2070 N   0  0  0  0  0  0  0  0  0  0  0  0
    9.9628  -16.8503   24.6523 C   0  0  0  0  0  0  0  0  0  0  0  0
    9.1299  -17.7975   24.6716 O   0  0  0  0  0  0  0  0  0  0  0  0
    9.8368  -13.8577   27.3567 C   0  0  0  0  0  0  0  0  0  0  0  0
   10.4369  -13.8321   28.5933 C   0  0  0  0  0  0  0  0  0  0  0  0
   12.6752  -19.0215   24.0348 C   0  0  0  0  0  0  0  0  0  0  0  0
   11.7005  -18.5308   25.0914 C   0  0  2  0  0  0  0  0  0  0  0  0
   11.3129  -17.1575   24.8463 N   0  0  0  0  0  0  0  0  0  0  0  0
   12.2889  -18.6969   26.4498 C   0  0  0  0  0  0  0  0  0  0  0  0
   12.4488  -17.6061   27.2871 O   0  0  0  0  0  0  0  0  0  0  0  0
   12.6587  -19.8190   26.8842 O   0  0  0  0  0  0  0  0  0  0  0  0
  2  1  1  1
  2  3  1  0
  4  2  1  0
  4  5  1  0
  5  6  1  1
  7  5  1  0
  7  8  2  0
  9 10  1  0
 10 11  2  0
 11 12  1  0
 13 12  2  0
 13 14  1  0
 15 14  1  1
 15 16  1  0
 16  7  1  0
 17 15  1  0
 18 17  2  0
 19 13  1  0
 20 10  1  0
 20 19  2  0
 22 21  1  6
 22 23  1  0
 23 17  1  0
 24 22  1  0
 25 24  1  0
 26 24  2  0
M  END
$$$$
