LYA.pdb
     RDKit          3D

 26 26  0  0  1  0  0  0  0  0999 V2000
    4.0560  -22.9902   22.3731 C   0  0  0  0  0  0  0  0  0  0  0  0
    4.9130  -22.0813   23.2174 C   0  0  1  0  0  0  0  0  0  0  0  0
    5.6207  -22.9015   24.2466 C   0  0  0  0  0  0  0  0  0  0  0  0
    5.8581  -21.2427   22.3747 C   0  0  0  0  0  0  0  0  0  0  0  0
    6.5840  -20.3077   23.3140 C   0  0  2  0  0  0  0  0  0  0  0  0
    5.6558  -19.8779   24.3183 N   0  0  0  0  0  0  0  0  0  0  0  0
    7.2297  -19.1886   22.6033 C   0  0  0  0  0  0  0  0  0  0  0  0
    8.0533  -19.4434   21.6943 O   0  0  0  0  0  0  0  0  0  0  0  0
    8.4277  -11.8132   18.2192 O   0  0  0  0  0  0  0  0  0  0  0  0
    7.9767  -12.7671   19.1437 C   0  0  0  0  0  0  0  0  0  0  0  0
    7.7796  -12.4073   20.4608 C   0  0  0  0  0  0  0  0  0  0  0  0
    7.3302  -13.4023   21.3296 C   0  0  0  0  0  0  0  0  0  0  0  0
    7.0899  -14.6915   20.9053 C   0  0  0  0  0  0  0  0  0  0  0  0
    6.6137  -15.7300   21.8548 C   0  0  0  0  0  0  0  0  0  0  0  0
    7.6227  -16.7780   22.1770 C   0  0  2  0  0  0  0  0  0  0  0  0
    6.9568  -17.8355   22.9063 N   0  0  0  0  0  0  0  0  0  0  0  0
    8.7711  -16.3216   22.9788 C   0  0  0  0  0  0  0  0  0  0  0  0
    9.6798  -15.7050   22.3578 O   0  0  0  0  0  0  0  0  0  0  0  0
    7.3094  -14.9808   19.5691 C   0  0  0  0  0  0  0  0  0  0  0  0
    7.7514  -14.0432   18.6660 C   0  0  0  0  0  0  0  0  0  0  0  0
    9.7374  -15.1739   26.2345 C   0  0  0  0  0  0  0  0  0  0  0  0
   10.1097  -15.9969   25.0133 C   0  0  2  0  0  0  0  0  0  0  0  0
    8.9297  -16.5160   24.3542 N   0  0  0  0  0  0  0  0  0  0  0  0
   11.0455  -17.0907   25.3968 C   0  0  0  0  0  0  0  0  0  0  0  0
   12.2640  -16.8016   25.9868 O   0  0  0  0  0  0  0  0  0  0  0  0
   10.7698  -18.3034   25.2026 O   0  0  0  0  0  0  0  0  0  0  0  0
  2  1  1  6
  2  3  1  0
  4  2  1  0
  4  5  1  0
  5  6  1  1
  7  5  1  0
  7  8  2  0
  9 10  1  0
 10 11  2  0
 11 12  1  0
 13 12  2  0
 13 14  1  0
 15 14  1  1
 15 16  1  0
 16  7  1  0
 17 15  1  0
 18 17  2  0
 19 13  1  0
 20 10  1  0
 20 19  2  0
 22 21  1  1
 22 23  1  0
 23 17  1  0
 24 22  1  0
 25 24  1  0
 26 24  2  0
M  END
$$$$
