NEM.pdb
     RDKit          3D

 26 25  0  0  1  0  0  0  0  0999 V2000
   17.9317  -14.7995  -15.4198 N   0  0  0  0  0  0  0  0  0  0  0  0
   17.2872  -13.5289  -15.4352 C   0  0  0  0  0  0  0  0  0  0  0  0
   16.0511  -13.4810  -15.2801 O   0  0  0  0  0  0  0  0  0  0  0  0
   18.1084  -12.3158  -15.6321 C   0  0  0  0  0  0  0  0  0  0  0  0
   17.5137  -11.4058  -16.6750 C   0  0  2  0  0  0  0  0  0  0  0  0
   17.4460  -11.9660  -17.9945 N   0  0  0  0  0  0  0  0  0  0  0  0
   18.1339  -10.0726  -16.7245 C   0  0  0  0  0  0  0  0  0  0  0  0
   19.2234   -9.9397  -17.3409 O   0  0  0  0  0  0  0  0  0  0  0  0
   17.5567   -8.9306  -16.1098 N   0  0  0  0  0  0  0  0  0  0  0  0
   18.2245   -7.5990  -16.1207 C   0  0  1  0  0  0  0  0  0  0  0  0
   17.2061   -6.5714  -15.7134 C   0  0  0  0  0  0  0  0  0  0  0  0
   17.6755   -5.1861  -15.5180 C   0  0  0  0  0  0  0  0  0  0  0  0
   16.6293   -4.2267  -15.0807 C   0  0  0  0  0  0  0  0  0  0  0  0
   15.4498   -4.5528  -14.8336 O   0  0  0  0  0  0  0  0  0  0  0  0
   19.3774   -7.7349  -15.2258 C   0  0  0  0  0  0  0  0  0  0  0  0
   19.2994   -8.5644  -14.2523 O   0  0  0  0  0  0  0  0  0  0  0  0
   16.9465   -2.8764  -14.9249 O   0  0  0  0  0  0  0  0  0  0  0  0
   26.5757  -10.0919  -14.7483 C   0  0  0  0  0  0  0  0  0  0  0  0
   25.0122   -9.6696  -15.4717 S   0  0  0  0  0  0  0  0  0  0  0  0
   24.0175   -8.4704  -14.6099 C   0  0  0  0  0  0  0  0  0  0  0  0
   22.6623   -8.2756  -15.2004 C   0  0  0  0  0  0  0  0  0  0  0  0
   21.7616   -7.3083  -14.5314 C   0  0  2  0  0  0  0  0  0  0  0  0
   20.5683   -7.0319  -15.3429 N   0  0  0  0  0  0  0  0  0  0  0  0
   22.4483   -5.9756  -14.4416 C   0  0  0  0  0  0  0  0  0  0  0  0
   23.2842   -5.6211  -13.4102 O   0  0  0  0  0  0  0  0  0  0  0  0
   22.2478   -5.1454  -15.3557 O   0  0  0  0  0  0  0  0  0  0  0  0
  2  1  1  0
  3  2  2  0
  4  2  1  0
  4  5  1  0
  5  7  1  0
  5  6  1  6
  7  8  2  0
  9  7  1  0
  9 10  1  0
 10 11  1  1
 11 12  1  0
 13 17  1  0
 13 12  1  0
 14 13  2  0
 15 10  1  0
 15 16  2  0
 18 19  1  0
 19 20  1  0
 20 21  1  0
 22 21  1  6
 22 23  1  0
 22 24  1  0
 23 15  1  0
 24 25  1  0
 26 24  2  0
M  END
$$$$
