NEM.pdb
     RDKit          3D

 26 25  0  0  1  0  0  0  0  0999 V2000
   27.6250  -15.4706  -17.6212 N   0  0  0  0  0  0  0  0  0  0  0  0
   28.1356  -16.5325  -16.8201 C   0  0  0  0  0  0  0  0  0  0  0  0
   28.9355  -17.3398  -17.3326 O   0  0  0  0  0  0  0  0  0  0  0  0
   27.6996  -16.6355  -15.4115 C   0  0  0  0  0  0  0  0  0  0  0  0
   27.5165  -18.0703  -14.9903 C   0  0  2  0  0  0  0  0  0  0  0  0
   27.1163  -18.9601  -16.0428 N   0  0  0  0  0  0  0  0  0  0  0  0
   26.6355  -18.2401  -13.8243 C   0  0  0  0  0  0  0  0  0  0  0  0
   26.6146  -17.3341  -12.9506 O   0  0  0  0  0  0  0  0  0  0  0  0
   25.8078  -19.3790  -13.6430 N   0  0  0  0  0  0  0  0  0  0  0  0
   24.8668  -19.5031  -12.4947 C   0  0  1  0  0  0  0  0  0  0  0  0
   23.6694  -20.2808  -12.9645 C   0  0  0  0  0  0  0  0  0  0  0  0
   22.6495  -20.6360  -11.9589 C   0  0  0  0  0  0  0  0  0  0  0  0
   21.4577  -21.3397  -12.4980 C   0  0  0  0  0  0  0  0  0  0  0  0
   20.4872  -21.6953  -11.7977 O   0  0  0  0  0  0  0  0  0  0  0  0
   25.6443  -20.1281  -11.4208 C   0  0  0  0  0  0  0  0  0  0  0  0
   26.4386  -21.0875  -11.7217 O   0  0  0  0  0  0  0  0  0  0  0  0
   21.3828  -21.6355  -13.8600 O   0  0  0  0  0  0  0  0  0  0  0  0
   28.9284  -19.5363   -4.1980 C   0  0  0  0  0  0  0  0  0  0  0  0
   28.1762  -18.9274   -5.6845 S   0  0  0  0  0  0  0  0  0  0  0  0
   27.4565  -20.1316   -6.7811 C   0  0  0  0  0  0  0  0  0  0  0  0
   26.9236  -19.5511   -8.0468 C   0  0  0  0  0  0  0  0  0  0  0  0
   26.3040  -20.4853   -9.0154 C   0  0  2  0  0  0  0  0  0  0  0  0
   25.5954  -19.7650  -10.0822 N   0  0  0  0  0  0  0  0  0  0  0  0
   25.2181  -21.2613   -8.3268 C   0  0  0  0  0  0  0  0  0  0  0  0
   25.4588  -22.2104   -7.3626 O   0  0  0  0  0  0  0  0  0  0  0  0
   24.0318  -21.0297   -8.6491 O   0  0  0  0  0  0  0  0  0  0  0  0
  2  1  1  0
  3  2  2  0
  4  2  1  0
  4  5  1  0
  5  7  1  0
  5  6  1  6
  7  8  2  0
  9  7  1  0
  9 10  1  0
 10 11  1  6
 11 12  1  0
 13 17  1  0
 13 12  1  0
 14 13  2  0
 15 10  1  0
 15 16  2  0
 18 19  1  0
 19 20  1  0
 20 21  1  0
 22 21  1  1
 22 23  1  0
 22 24  1  0
 23 15  1  0
 24 25  1  0
 26 24  2  0
M  END
$$$$
