NEM.pdb
     RDKit          3D

 26 25  0  0  1  0  0  0  0  0999 V2000
   11.5302  -10.8848   -9.1757 N   0  0  0  0  0  0  0  0  0  0  0  0
   12.3102  -10.6066  -10.3351 C   0  0  0  0  0  0  0  0  0  0  0  0
   11.9176  -11.0325  -11.4391 O   0  0  0  0  0  0  0  0  0  0  0  0
   13.5538   -9.8217  -10.1857 C   0  0  0  0  0  0  0  0  0  0  0  0
   14.5953  -10.2344  -11.1930 C   0  0  2  0  0  0  0  0  0  0  0  0
   15.1005  -11.5671  -11.0247 N   0  0  0  0  0  0  0  0  0  0  0  0
   15.7115   -9.2841  -11.3177 C   0  0  0  0  0  0  0  0  0  0  0  0
   16.6062   -9.2891  -10.4322 O   0  0  0  0  0  0  0  0  0  0  0  0
   15.8242   -8.3642  -12.3930 N   0  0  0  0  0  0  0  0  0  0  0  0
   17.0233   -7.4996  -12.5773 C   0  0  1  0  0  0  0  0  0  0  0  0
   17.6860   -7.9022  -13.8648 C   0  0  0  0  0  0  0  0  0  0  0  0
   18.8030   -7.0672  -14.3472 C   0  0  0  0  0  0  0  0  0  0  0  0
   19.3887   -7.4937  -15.6438 C   0  0  0  0  0  0  0  0  0  0  0  0
   19.7745   -6.6980  -16.5251 O   0  0  0  0  0  0  0  0  0  0  0  0
   16.5214   -6.1233  -12.5286 C   0  0  0  0  0  0  0  0  0  0  0  0
   15.3771   -5.8727  -13.0477 O   0  0  0  0  0  0  0  0  0  0  0  0
   19.5327   -8.8528  -15.9273 O   0  0  0  0  0  0  0  0  0  0  0  0
   14.8671    0.2298   -8.4364 C   0  0  0  0  0  0  0  0  0  0  0  0
   15.1325   -1.4775   -8.8373 S   0  0  0  0  0  0  0  0  0  0  0  0
   15.8267   -1.8362  -10.4373 C   0  0  0  0  0  0  0  0  0  0  0  0
   16.1309   -3.2799  -10.6520 C   0  0  0  0  0  0  0  0  0  0  0  0
   16.6773   -3.6708  -11.9724 C   0  0  2  0  0  0  0  0  0  0  0  0
   17.1887   -5.0481  -11.9585 N   0  0  0  0  0  0  0  0  0  0  0  0
   17.8941   -2.8415  -12.2677 C   0  0  0  0  0  0  0  0  0  0  0  0
   17.8473   -1.4946  -12.5359 O   0  0  0  0  0  0  0  0  0  0  0  0
   19.0091   -3.4088  -12.2687 O   0  0  0  0  0  0  0  0  0  0  0  0
  2  1  1  0
  3  2  2  0
  4  2  1  0
  4  5  1  0
  5  7  1  0
  5  6  1  1
  7  8  2  0
  9  7  1  0
  9 10  1  0
 10 11  1  6
 11 12  1  0
 13 17  1  0
 13 12  1  0
 14 13  2  0
 15 10  1  0
 15 16  2  0
 18 19  1  0
 19 20  1  0
 20 21  1  0
 22 21  1  1
 22 23  1  0
 22 24  1  0
 23 15  1  0
 24 25  1  0
 26 24  2  0
M  END
$$$$
