NEM.pdb
     RDKit          3D

 26 25  0  0  1  0  0  0  0  0999 V2000
   28.7051  -23.1871  -17.7857 N   0  0  0  0  0  0  0  0  0  0  0  0
   29.3398  -21.9488  -17.4791 C   0  0  0  0  0  0  0  0  0  0  0  0
   30.4781  -21.7281  -17.9371 O   0  0  0  0  0  0  0  0  0  0  0  0
   28.6240  -20.9720  -16.6315 C   0  0  0  0  0  0  0  0  0  0  0  0
   27.2594  -21.4738  -16.2371 C   0  0  2  0  0  0  0  0  0  0  0  0
   26.2993  -21.5076  -17.3032 N   0  0  0  0  0  0  0  0  0  0  0  0
   26.6892  -20.7886  -15.0666 C   0  0  0  0  0  0  0  0  0  0  0  0
   26.9389  -19.5652  -14.9064 O   0  0  0  0  0  0  0  0  0  0  0  0
   25.8691  -21.4460  -14.1124 N   0  0  0  0  0  0  0  0  0  0  0  0
   25.0728  -20.6985  -13.0992 C   0  0  1  0  0  0  0  0  0  0  0  0
   23.6187  -20.9639  -13.3713 C   0  0  0  0  0  0  0  0  0  0  0  0
   22.9273  -20.0675  -14.3180 C   0  0  0  0  0  0  0  0  0  0  0  0
   21.4831  -20.3554  -14.5113 C   0  0  0  0  0  0  0  0  0  0  0  0
   20.6771  -20.5182  -13.5718 O   0  0  0  0  0  0  0  0  0  0  0  0
   25.5667  -21.1606  -11.7987 C   0  0  0  0  0  0  0  0  0  0  0  0
   25.7821  -22.4134  -11.6382 O   0  0  0  0  0  0  0  0  0  0  0  0
   20.9614  -20.4554  -15.8020 O   0  0  0  0  0  0  0  0  0  0  0  0
   29.9348  -19.2589   -6.6849 C   0  0  0  0  0  0  0  0  0  0  0  0
   28.2130  -19.1257   -6.2800 S   0  0  0  0  0  0  0  0  0  0  0  0
   27.0962  -20.2351   -7.1122 C   0  0  0  0  0  0  0  0  0  0  0  0
   26.8985  -19.9197   -8.5560 C   0  0  0  0  0  0  0  0  0  0  0  0
   26.0638  -20.8530   -9.3478 C   0  0  2  0  0  0  0  0  0  0  0  0
   25.8268  -20.3453  -10.7061 N   0  0  0  0  0  0  0  0  0  0  0  0
   24.6892  -20.9171   -8.7462 C   0  0  0  0  0  0  0  0  0  0  0  0
   23.5800  -20.3504   -9.3267 O   0  0  0  0  0  0  0  0  0  0  0  0
   24.5483  -21.5191   -7.6587 O   0  0  0  0  0  0  0  0  0  0  0  0
  2  1  1  0
  3  2  2  0
  4  2  1  0
  4  5  1  0
  5  7  1  0
  5  6  1  6
  7  8  2  0
  9  7  1  0
  9 10  1  0
 10 11  1  1
 11 12  1  0
 13 17  1  0
 13 12  1  0
 14 13  2  0
 15 10  1  0
 15 16  2  0
 18 19  1  0
 19 20  1  0
 20 21  1  0
 22 21  1  1
 22 23  1  0
 22 24  1  0
 23 15  1  0
 24 25  1  0
 26 24  2  0
M  END
$$$$
