NEM.pdb
     RDKit          3D

 26 25  0  0  1  0  0  0  0  0999 V2000
   29.1559  -18.6077  -17.4679 N   0  0  0  0  0  0  0  0  0  0  0  0
   29.2474  -17.5143  -16.5590 C   0  0  0  0  0  0  0  0  0  0  0  0
   30.2669  -16.7972  -16.5834 O   0  0  0  0  0  0  0  0  0  0  0  0
   28.1295  -17.2702  -15.6233 C   0  0  0  0  0  0  0  0  0  0  0  0
   27.0929  -18.3607  -15.6999 C   0  0  2  0  0  0  0  0  0  0  0  0
   26.1768  -18.2439  -16.7985 N   0  0  0  0  0  0  0  0  0  0  0  0
   26.3522  -18.5665  -14.4455 C   0  0  0  0  0  0  0  0  0  0  0  0
   25.8135  -17.5702  -13.8959 O   0  0  0  0  0  0  0  0  0  0  0  0
   26.2174  -19.8384  -13.8298 N   0  0  0  0  0  0  0  0  0  0  0  0
   25.2848  -20.0762  -12.6926 C   0  0  1  0  0  0  0  0  0  0  0  0
   24.3660  -21.2008  -13.0799 C   0  0  0  0  0  0  0  0  0  0  0  0
   24.9299  -22.5643  -13.1054 C   0  0  0  0  0  0  0  0  0  0  0  0
   23.9451  -23.6439  -13.3714 C   0  0  0  0  0  0  0  0  0  0  0  0
   22.7397  -23.4361  -13.6215 O   0  0  0  0  0  0  0  0  0  0  0  0
   26.1436  -20.3332  -11.5328 C   0  0  0  0  0  0  0  0  0  0  0  0
   27.1774  -21.0733  -11.6915 O   0  0  0  0  0  0  0  0  0  0  0  0
   24.3545  -24.9781  -13.3505 O   0  0  0  0  0  0  0  0  0  0  0  0
   29.6498  -19.4159   -5.0747 C   0  0  0  0  0  0  0  0  0  0  0  0
   27.9954  -19.0235   -5.5800 S   0  0  0  0  0  0  0  0  0  0  0  0
   27.1861  -20.1749   -6.6708 C   0  0  0  0  0  0  0  0  0  0  0  0
   26.9038  -19.6232   -8.0269 C   0  0  0  0  0  0  0  0  0  0  0  0
   26.3201  -20.5457   -9.0284 C   0  0  2  0  0  0  0  0  0  0  0  0
   25.9319  -19.8355  -10.2547 N   0  0  0  0  0  0  0  0  0  0  0  0
   25.0211  -21.0862   -8.5030 C   0  0  0  0  0  0  0  0  0  0  0  0
   24.9401  -22.0658   -7.5426 O   0  0  0  0  0  0  0  0  0  0  0  0
   23.9569  -20.6182   -8.9651 O   0  0  0  0  0  0  0  0  0  0  0  0
  2  1  1  0
  3  2  2  0
  4  2  1  0
  4  5  1  0
  5  7  1  0
  5  6  1  6
  7  8  2  0
  9  7  1  0
  9 10  1  0
 10 11  1  6
 11 12  1  0
 13 17  1  0
 13 12  1  0
 14 13  2  0
 15 10  1  0
 15 16  2  0
 18 19  1  0
 19 20  1  0
 20 21  1  0
 22 21  1  1
 22 23  1  0
 22 24  1  0
 23 15  1  0
 24 25  1  0
 26 24  2  0
M  END
$$$$
