NEM.pdb
     RDKit          3D

 26 25  0  0  1  0  0  0  0  0999 V2000
   15.0493   -9.4552  -15.8659 N   0  0  0  0  0  0  0  0  0  0  0  0
   16.2312   -9.0612  -16.5572 C   0  0  0  0  0  0  0  0  0  0  0  0
   16.6223   -7.8819  -16.4537 O   0  0  0  0  0  0  0  0  0  0  0  0
   16.9502  -10.0657  -17.3690 C   0  0  0  0  0  0  0  0  0  0  0  0
   17.8459  -10.9288  -16.5190 C   0  0  2  0  0  0  0  0  0  0  0  0
   17.1599  -11.7453  -15.5587 N   0  0  0  0  0  0  0  0  0  0  0  0
   18.9373  -10.1902  -15.8649 C   0  0  0  0  0  0  0  0  0  0  0  0
   18.8790  -10.0103  -14.6203 O   0  0  0  0  0  0  0  0  0  0  0  0
   20.0527   -9.6740  -16.5752 N   0  0  0  0  0  0  0  0  0  0  0  0
   21.1862   -8.9931  -15.8890 C   0  0  1  0  0  0  0  0  0  0  0  0
   22.4491   -9.7199  -16.2575 C   0  0  0  0  0  0  0  0  0  0  0  0
   23.7228   -9.1751  -15.7488 C   0  0  0  0  0  0  0  0  0  0  0  0
   24.9168  -10.0144  -16.0243 C   0  0  0  0  0  0  0  0  0  0  0  0
   24.8655  -11.1314  -16.5796 O   0  0  0  0  0  0  0  0  0  0  0  0
   21.1153   -7.5930  -16.3171 C   0  0  0  0  0  0  0  0  0  0  0  0
   20.8971   -7.3440  -17.5549 O   0  0  0  0  0  0  0  0  0  0  0  0
   26.1846   -9.5605  -15.6570 O   0  0  0  0  0  0  0  0  0  0  0  0
   18.1481   -0.4929  -15.7829 C   0  0  0  0  0  0  0  0  0  0  0  0
   18.3277   -2.2383  -15.5234 S   0  0  0  0  0  0  0  0  0  0  0  0
   19.9194   -2.9517  -15.8815 C   0  0  0  0  0  0  0  0  0  0  0  0
   19.9845   -4.4239  -15.6548 C   0  0  0  0  0  0  0  0  0  0  0  0
   21.2649   -5.1032  -15.9607 C   0  0  2  0  0  0  0  0  0  0  0  0
   21.2658   -6.4931  -15.4842 N   0  0  0  0  0  0  0  0  0  0  0  0
   22.3674   -4.4555  -15.1728 C   0  0  0  0  0  0  0  0  0  0  0  0
   23.0673   -3.3566  -15.6098 O   0  0  0  0  0  0  0  0  0  0  0  0
   22.6626   -4.9434  -14.0594 O   0  0  0  0  0  0  0  0  0  0  0  0
  2  1  1  0
  3  2  2  0
  4  2  1  0
  4  5  1  0
  5  7  1  0
  5  6  1  1
  7  8  2  0
  9  7  1  0
  9 10  1  0
 10 11  1  6
 11 12  1  0
 13 17  1  0
 13 12  1  0
 14 13  2  0
 15 10  1  0
 15 16  2  0
 18 19  1  0
 19 20  1  0
 20 21  1  0
 22 21  1  1
 22 23  1  0
 22 24  1  0
 23 15  1  0
 24 25  1  0
 26 24  2  0
M  END
$$$$
