NEM.pdb
     RDKit          3D

 26 25  0  0  1  0  0  0  0  0999 V2000
   16.9588  -14.1711  -16.6796 N   0  0  0  0  0  0  0  0  0  0  0  0
   17.5891  -13.6955  -15.4936 C   0  0  0  0  0  0  0  0  0  0  0  0
   17.4947  -14.3724  -14.4509 O   0  0  0  0  0  0  0  0  0  0  0  0
   18.3328  -12.4191  -15.5447 C   0  0  0  0  0  0  0  0  0  0  0  0
   18.1590  -11.7278  -16.8719 C   0  0  2  0  0  0  0  0  0  0  0  0
   18.6386  -12.4686  -18.0036 N   0  0  0  0  0  0  0  0  0  0  0  0
   18.6933  -10.3574  -16.9031 C   0  0  0  0  0  0  0  0  0  0  0  0
   19.8094  -10.1605  -17.4512 O   0  0  0  0  0  0  0  0  0  0  0  0
   18.0049   -9.2488  -16.3446 N   0  0  0  0  0  0  0  0  0  0  0  0
   18.5670   -7.8693  -16.3696 C   0  0  1  0  0  0  0  0  0  0  0  0
   17.4521   -6.9136  -16.0490 C   0  0  0  0  0  0  0  0  0  0  0  0
   17.7998   -5.4879  -15.8927 C   0  0  0  0  0  0  0  0  0  0  0  0
   16.6439   -4.5833  -15.6653 C   0  0  0  0  0  0  0  0  0  0  0  0
   16.4694   -3.5130  -16.2839 O   0  0  0  0  0  0  0  0  0  0  0  0
   19.6792   -7.8854  -15.4150 C   0  0  0  0  0  0  0  0  0  0  0  0
   19.7083   -8.8095  -14.5279 O   0  0  0  0  0  0  0  0  0  0  0  0
   15.6774   -4.9167  -14.7151 O   0  0  0  0  0  0  0  0  0  0  0  0
   26.6504  -10.1296  -14.5190 C   0  0  0  0  0  0  0  0  0  0  0  0
   25.0278   -9.8346  -15.1719 S   0  0  0  0  0  0  0  0  0  0  0  0
   24.1513   -8.4131  -14.5540 C   0  0  0  0  0  0  0  0  0  0  0  0
   22.7927   -8.2401  -15.1433 C   0  0  0  0  0  0  0  0  0  0  0  0
   21.9468   -7.1545  -14.5950 C   0  0  2  0  0  0  0  0  0  0  0  0
   20.7232   -6.9713  -15.3875 N   0  0  0  0  0  0  0  0  0  0  0  0
   22.6672   -5.8451  -14.7435 C   0  0  0  0  0  0  0  0  0  0  0  0
   23.5075   -5.3289  -13.7865 O   0  0  0  0  0  0  0  0  0  0  0  0
   22.4921   -5.1909  -15.7953 O   0  0  0  0  0  0  0  0  0  0  0  0
  2  1  1  0
  3  2  2  0
  4  2  1  0
  4  5  1  0
  5  7  1  0
  5  6  1  6
  7  8  2  0
  9  7  1  0
  9 10  1  0
 10 11  1  1
 11 12  1  0
 13 17  1  0
 13 12  1  0
 14 13  2  0
 15 10  1  0
 15 16  2  0
 18 19  1  0
 19 20  1  0
 20 21  1  0
 22 21  1  6
 22 23  1  0
 22 24  1  0
 23 15  1  0
 24 25  1  0
 26 24  2  0
M  END
$$$$
