NEM.pdb
     RDKit          3D

 26 25  0  0  1  0  0  0  0  0999 V2000
   15.5123  -10.2906  -17.6025 N   0  0  0  0  0  0  0  0  0  0  0  0
   15.3494   -8.9617  -17.1151 C   0  0  0  0  0  0  0  0  0  0  0  0
   14.4261   -8.2623  -17.5763 O   0  0  0  0  0  0  0  0  0  0  0  0
   16.2795   -8.4633  -16.0800 C   0  0  0  0  0  0  0  0  0  0  0  0
   17.2595   -9.5260  -15.6559 C   0  0  2  0  0  0  0  0  0  0  0  0
   16.6914  -10.5961  -14.8868 N   0  0  0  0  0  0  0  0  0  0  0  0
   18.4540   -8.9974  -14.9789 C   0  0  0  0  0  0  0  0  0  0  0  0
   18.3893   -8.7616  -13.7441 O   0  0  0  0  0  0  0  0  0  0  0  0
   19.6752   -8.7438  -15.6566 N   0  0  0  0  0  0  0  0  0  0  0  0
   20.8882   -8.2455  -14.9495 C   0  0  1  0  0  0  0  0  0  0  0  0
   22.0763   -8.9825  -15.5010 C   0  0  0  0  0  0  0  0  0  0  0  0
   23.4041   -8.6413  -14.9551 C   0  0  0  0  0  0  0  0  0  0  0  0
   24.5390   -9.3857  -15.5586 C   0  0  0  0  0  0  0  0  0  0  0  0
   25.2223   -8.9549  -16.5105 O   0  0  0  0  0  0  0  0  0  0  0  0
   20.8917   -6.7947  -15.1590 C   0  0  0  0  0  0  0  0  0  0  0  0
   21.7906   -6.0959  -14.5713 O   0  0  0  0  0  0  0  0  0  0  0  0
   24.8912  -10.6402  -15.0583 O   0  0  0  0  0  0  0  0  0  0  0  0
   22.7199   -3.9630  -21.0272 C   0  0  0  0  0  0  0  0  0  0  0  0
   21.2131   -3.9972  -20.0920 S   0  0  0  0  0  0  0  0  0  0  0  0
   21.3464   -4.3530  -18.3524 C   0  0  0  0  0  0  0  0  0  0  0  0
   20.0419   -4.3282  -17.6308 C   0  0  0  0  0  0  0  0  0  0  0  0
   20.0584   -4.6496  -16.1847 C   0  0  2  0  0  0  0  0  0  0  0  0
   19.9911   -6.0990  -15.9532 N   0  0  0  0  0  0  0  0  0  0  0  0
   18.8015   -4.1281  -15.5493 C   0  0  0  0  0  0  0  0  0  0  0  0
   18.7364   -2.9419  -14.8587 O   0  0  0  0  0  0  0  0  0  0  0  0
   17.7589   -4.8113  -15.6557 O   0  0  0  0  0  0  0  0  0  0  0  0
  2  1  1  0
  3  2  2  0
  4  2  1  0
  4  5  1  0
  5  7  1  0
  5  6  1  1
  7  8  2  0
  9  7  1  0
  9 10  1  0
 10 11  1  6
 11 12  1  0
 13 17  1  0
 13 12  1  0
 14 13  2  0
 15 10  1  0
 15 16  2  0
 18 19  1  0
 19 20  1  0
 20 21  1  0
 22 21  1  6
 22 23  1  0
 22 24  1  0
 23 15  1  0
 24 25  1  0
 26 24  2  0
M  END
$$$$
