QHG.pdb
     RDKit          3D

 24 24  0  0  1  0  0  0  0  0999 V2000
   16.4188  -12.0742  -14.8549 N   0  0  0  0  0  0  0  0  0  0  0  0
   16.2841  -12.2418  -16.2488 C   0  0  0  0  0  0  0  0  0  0  0  0
   15.2759  -12.8758  -16.6516 O   0  0  0  0  0  0  0  0  0  0  0  0
   17.2650  -11.7098  -17.2283 C   0  0  0  0  0  0  0  0  0  0  0  0
   18.3374  -10.9611  -16.5122 C   0  0  0  0  0  0  0  0  0  0  0  0
   19.6805  -11.6354  -16.5944 C   0  0  2  0  0  0  0  0  0  0  0  0
   19.7054  -12.9365  -16.0148 N   0  0  0  0  0  0  0  0  0  0  0  0
   20.6686  -10.7834  -15.8909 C   0  0  0  0  0  0  0  0  0  0  0  0
   20.7263  -10.7839  -14.6361 O   0  0  0  0  0  0  0  0  0  0  0  0
   21.5848   -9.9383  -16.5700 N   0  0  0  0  0  0  0  0  0  0  0  0
   22.6346   -9.1892  -15.9229 C   0  0  1  0  0  0  0  0  0  0  0  0
   23.9403   -9.5978  -16.5694 C   0  0  0  0  0  0  0  0  0  0  0  0
   24.3313  -10.9778  -16.1832 C   0  0  0  0  0  0  0  0  0  0  0  0
   23.7125  -11.7756  -15.2229 C   0  0  0  0  0  0  0  0  0  0  0  0
   24.3523  -12.9631  -15.1553 N   0  0  0  0  0  0  0  0  0  0  0  0
   25.3441  -12.9066  -16.0500 C   0  0  0  0  0  0  0  0  0  0  0  0
   25.3443  -11.7169  -16.6772 N   0  0  0  0  0  0  0  0  0  0  0  0
   22.3946   -7.7476  -15.9819 C   0  0  0  0  0  0  0  0  0  0  0  0
   22.1664   -7.2279  -17.1267 O   0  0  0  0  0  0  0  0  0  0  0  0
   22.4064   -6.9222  -14.8341 N   0  0  0  0  0  0  0  0  0  0  0  0
   22.0682   -5.5347  -14.9661 C   0  0  0  0  0  0  0  0  0  0  0  0
   22.2046   -4.8534  -13.6395 C   0  0  0  0  0  0  0  0  0  0  0  0
   22.0366   -3.4967  -13.5382 O   0  0  0  0  0  0  0  0  0  0  0  0
   22.4733   -5.4919  -12.5916 O   0  0  0  0  0  0  0  0  0  0  0  0
  2  4  1  0
  2  1  1  0
  3  2  2  0
  5  6  1  0
  5  4  1  0
  6  7  1  1
  6  8  1  0
  8  9  2  0
 10  8  1  0
 10 11  1  0
 11 18  1  0
 12 13  1  0
 11 12  1  6
 13 17  1  0
 13 14  2  0
 14 15  1  0
 16 15  1  0
 17 16  2  0
 18 19  2  0
 20 18  1  0
 20 21  1  0
 22 23  1  0
 22 21  1  0
 24 22  2  0
M  END
$$$$
