QHG.pdb
     RDKit          3D

 24 24  0  0  1  0  0  0  0  0999 V2000
   19.3430  -14.2911  -14.4621 N   0  0  0  0  0  0  0  0  0  0  0  0
   19.1449  -14.5091  -15.8414 C   0  0  0  0  0  0  0  0  0  0  0  0
   18.3438  -15.4227  -16.1645 O   0  0  0  0  0  0  0  0  0  0  0  0
   19.8311  -13.7186  -16.8944 C   0  0  0  0  0  0  0  0  0  0  0  0
   20.6624  -12.6533  -16.2640 C   0  0  0  0  0  0  0  0  0  0  0  0
   20.5183  -11.3171  -16.9415 C   0  0  2  0  0  0  0  0  0  0  0  0
   20.7737  -11.3539  -18.3425 N   0  0  0  0  0  0  0  0  0  0  0  0
   21.4718  -10.3740  -16.3099 C   0  0  0  0  0  0  0  0  0  0  0  0
   21.4776  -10.2188  -15.0634 O   0  0  0  0  0  0  0  0  0  0  0  0
   22.4104   -9.6096  -17.0511 N   0  0  0  0  0  0  0  0  0  0  0  0
   23.2964   -8.6274  -16.4749 C   0  0  1  0  0  0  0  0  0  0  0  0
   24.6446   -8.7948  -17.1411 C   0  0  0  0  0  0  0  0  0  0  0  0
   25.3785   -9.9672  -16.5994 C   0  0  0  0  0  0  0  0  0  0  0  0
   25.0038  -10.7457  -15.5063 C   0  0  0  0  0  0  0  0  0  0  0  0
   25.9222  -11.7183  -15.3202 N   0  0  0  0  0  0  0  0  0  0  0  0
   26.8452  -11.5502  -16.2727 C   0  0  0  0  0  0  0  0  0  0  0  0
   26.5316  -10.4993  -17.0512 N   0  0  0  0  0  0  0  0  0  0  0  0
   22.7634   -7.2708  -16.5971 C   0  0  0  0  0  0  0  0  0  0  0  0
   22.5943   -6.8008  -17.7732 O   0  0  0  0  0  0  0  0  0  0  0  0
   22.4342   -6.4741  -15.4765 N   0  0  0  0  0  0  0  0  0  0  0  0
   21.9403   -5.1436  -15.6843 C   0  0  0  0  0  0  0  0  0  0  0  0
   21.6046   -4.5181  -14.3657 C   0  0  0  0  0  0  0  0  0  0  0  0
   21.1844   -3.2147  -14.3056 O   0  0  0  0  0  0  0  0  0  0  0  0
   21.6954   -5.1564  -13.2876 O   0  0  0  0  0  0  0  0  0  0  0  0
  2  4  1  0
  2  1  1  0
  3  2  2  0
  5  6  1  0
  5  4  1  0
  6  7  1  6
  6  8  1  0
  8  9  2  0
 10  8  1  0
 10 11  1  0
 11 18  1  0
 12 13  1  0
 11 12  1  6
 13 17  1  0
 13 14  2  0
 14 15  1  0
 16 15  1  0
 17 16  2  0
 18 19  2  0
 20 18  1  0
 20 21  1  0
 22 23  1  0
 22 21  1  0
 24 22  2  0
M  END
$$$$
