QHG.pdb
     RDKit          3D

 24 24  0  0  1  0  0  0  0  0999 V2000
   19.9680  -13.3213  -16.0187 N   0  0  0  0  0  0  0  0  0  0  0  0
   18.6172  -12.9175  -15.9788 C   0  0  0  0  0  0  0  0  0  0  0  0
   17.7729  -13.7855  -15.6406 O   0  0  0  0  0  0  0  0  0  0  0  0
   18.1718  -11.5411  -16.3132 C   0  0  0  0  0  0  0  0  0  0  0  0
   19.3280  -10.7451  -16.8161 C   0  0  0  0  0  0  0  0  0  0  0  0
   18.9551   -9.3338  -17.1825 C   0  0  2  0  0  0  0  0  0  0  0  0
   19.1838   -9.0175  -18.5526 N   0  0  0  0  0  0  0  0  0  0  0  0
   19.7561   -8.4117  -16.3425 C   0  0  0  0  0  0  0  0  0  0  0  0
   19.6411   -8.4326  -15.0918 O   0  0  0  0  0  0  0  0  0  0  0  0
   20.6761   -7.4749  -16.8817 N   0  0  0  0  0  0  0  0  0  0  0  0
   21.4754   -6.5711  -16.0905 C   0  0  1  0  0  0  0  0  0  0  0  0
   22.9259   -6.9278  -16.3316 C   0  0  0  0  0  0  0  0  0  0  0  0
   23.2713   -8.2417  -15.7308 C   0  0  0  0  0  0  0  0  0  0  0  0
   22.4194   -9.0676  -15.0002 C   0  0  0  0  0  0  0  0  0  0  0  0
   23.0942  -10.1743  -14.6208 N   0  0  0  0  0  0  0  0  0  0  0  0
   24.3342  -10.0414  -15.1024 C   0  0  0  0  0  0  0  0  0  0  0  0
   24.4564   -8.8823  -15.7734 N   0  0  0  0  0  0  0  0  0  0  0  0
   21.1745   -5.1709  -16.3878 C   0  0  0  0  0  0  0  0  0  0  0  0
   21.7731   -4.2743  -15.7020 O   0  0  0  0  0  0  0  0  0  0  0  0
   20.2587   -4.7816  -17.3921 N   0  0  0  0  0  0  0  0  0  0  0  0
   18.9609   -4.3056  -17.0095 C   0  0  0  0  0  0  0  0  0  0  0  0
   19.0570   -2.8782  -16.5670 C   0  0  0  0  0  0  0  0  0  0  0  0
   18.1772   -2.3805  -15.6410 O   0  0  0  0  0  0  0  0  0  0  0  0
   19.9328   -2.1012  -17.0222 O   0  0  0  0  0  0  0  0  0  0  0  0
  2  4  1  0
  2  1  1  0
  3  2  2  0
  5  6  1  0
  5  4  1  0
  6  7  1  6
  6  8  1  0
  8  9  2  0
 10  8  1  0
 10 11  1  0
 11 18  1  0
 12 13  1  0
 11 12  1  6
 13 17  1  0
 13 14  2  0
 14 15  1  0
 16 15  1  0
 17 16  2  0
 18 19  2  0
 20 18  1  0
 20 21  1  0
 22 23  1  0
 22 21  1  0
 24 22  2  0
M  END
$$$$
