QHG.pdb
     RDKit          3D

 24 24  0  0  1  0  0  0  0  0999 V2000
   19.5433  -38.3984  -12.1677 N   0  0  0  0  0  0  0  0  0  0  0  0
   19.1237  -37.0913  -11.8440 C   0  0  0  0  0  0  0  0  0  0  0  0
   18.7218  -36.8966  -10.6687 O   0  0  0  0  0  0  0  0  0  0  0  0
   19.1403  -35.9698  -12.8168 C   0  0  0  0  0  0  0  0  0  0  0  0
   20.4858  -35.3271  -12.8226 C   0  0  0  0  0  0  0  0  0  0  0  0
   20.4365  -33.8631  -13.1684 C   0  0  2  0  0  0  0  0  0  0  0  0
   20.2493  -33.6079  -14.5575 N   0  0  0  0  0  0  0  0  0  0  0  0
   21.7135  -33.2443  -12.7400 C   0  0  0  0  0  0  0  0  0  0  0  0
   22.5875  -32.9417  -13.5900 O   0  0  0  0  0  0  0  0  0  0  0  0
   22.0207  -32.9629  -11.3831 N   0  0  0  0  0  0  0  0  0  0  0  0
   23.2467  -32.3470  -10.9369 C   0  0  1  0  0  0  0  0  0  0  0  0
   23.3157  -30.9752  -11.5717 C   0  0  0  0  0  0  0  0  0  0  0  0
   23.7892  -31.0485  -12.9778 C   0  0  0  0  0  0  0  0  0  0  0  0
   23.9476  -32.2048  -13.7388 C   0  0  0  0  0  0  0  0  0  0  0  0
   24.3965  -31.8678  -14.9673 N   0  0  0  0  0  0  0  0  0  0  0  0
   24.5146  -30.5361  -14.9715 C   0  0  0  0  0  0  0  0  0  0  0  0
   24.1524  -30.0281  -13.7801 N   0  0  0  0  0  0  0  0  0  0  0  0
   23.3394  -32.3063   -9.4777 C   0  0  0  0  0  0  0  0  0  0  0  0
   22.3277  -31.8736   -8.8282 O   0  0  0  0  0  0  0  0  0  0  0  0
   24.4918  -32.7226   -8.7722 N   0  0  0  0  0  0  0  0  0  0  0  0
   24.5256  -32.5873   -7.3447 C   0  0  0  0  0  0  0  0  0  0  0  0
   25.8744  -32.9874   -6.8315 C   0  0  0  0  0  0  0  0  0  0  0  0
   26.1757  -32.8535   -5.5010 O   0  0  0  0  0  0  0  0  0  0  0  0
   26.7609  -33.4516   -7.5908 O   0  0  0  0  0  0  0  0  0  0  0  0
  2  4  1  0
  2  1  1  0
  3  2  2  0
  5  6  1  0
  5  4  1  0
  6  7  1  6
  6  8  1  0
  8  9  2  0
 10  8  1  0
 10 11  1  0
 11 18  1  0
 12 13  1  0
 11 12  1  1
 13 17  1  0
 13 14  2  0
 14 15  1  0
 16 15  1  0
 17 16  2  0
 18 19  2  0
 20 18  1  0
 20 21  1  0
 22 23  1  0
 22 21  1  0
 24 22  2  0
M  END
$$$$
