QHG.pdb
     RDKit          3D

 24 24  0  0  1  0  0  0  0  0999 V2000
   29.8805  -36.6891   -9.1881 N   0  0  0  0  0  0  0  0  0  0  0  0
   28.7020  -36.8558   -8.4313 C   0  0  0  0  0  0  0  0  0  0  0  0
   27.6120  -36.8053   -9.0558 O   0  0  0  0  0  0  0  0  0  0  0  0
   28.7057  -37.0824   -6.9639 C   0  0  0  0  0  0  0  0  0  0  0  0
   30.0993  -36.9871   -6.4424 C   0  0  0  0  0  0  0  0  0  0  0  0
   30.1885  -37.2177   -4.9578 C   0  0  2  0  0  0  0  0  0  0  0  0
   29.1425  -36.5958   -4.2170 N   0  0  0  0  0  0  0  0  0  0  0  0
   31.4877  -36.6833   -4.4848 C   0  0  0  0  0  0  0  0  0  0  0  0
   32.5649  -37.1948   -4.8798 O   0  0  0  0  0  0  0  0  0  0  0  0
   31.5940  -35.5926   -3.5827 N   0  0  0  0  0  0  0  0  0  0  0  0
   32.8400  -35.0889   -3.0576 C   0  0  1  0  0  0  0  0  0  0  0  0
   32.9222  -33.6239   -3.4272 C   0  0  0  0  0  0  0  0  0  0  0  0
   32.9978  -33.4364   -4.8988 C   0  0  0  0  0  0  0  0  0  0  0  0
   34.1257  -33.6089   -5.6985 C   0  0  0  0  0  0  0  0  0  0  0  0
   33.8015  -33.3467   -6.9832 N   0  0  0  0  0  0  0  0  0  0  0  0
   32.5053  -33.0193   -6.9838 C   0  0  0  0  0  0  0  0  0  0  0  0
   32.0071  -33.0688   -5.7355 N   0  0  0  0  0  0  0  0  0  0  0  0
   32.9621  -35.3228   -1.6190 C   0  0  0  0  0  0  0  0  0  0  0  0
   33.9481  -34.7850   -1.0096 O   0  0  0  0  0  0  0  0  0  0  0  0
   32.0414  -36.1109   -0.8908 N   0  0  0  0  0  0  0  0  0  0  0  0
   32.2351  -36.2904    0.5189 C   0  0  0  0  0  0  0  0  0  0  0  0
   32.8340  -37.6382    0.7786 C   0  0  0  0  0  0  0  0  0  0  0  0
   32.9848  -38.0922    2.0632 O   0  0  0  0  0  0  0  0  0  0  0  0
   33.2124  -38.3862   -0.1570 O   0  0  0  0  0  0  0  0  0  0  0  0
  2  4  1  0
  2  1  1  0
  3  2  2  0
  5  6  1  0
  5  4  1  0
  6  7  1  1
  6  8  1  0
  8  9  2  0
 10  8  1  0
 10 11  1  0
 11 18  1  0
 12 13  1  0
 11 12  1  1
 13 17  1  0
 13 14  2  0
 14 15  1  0
 16 15  1  0
 17 16  2  0
 18 19  2  0
 20 18  1  0
 20 21  1  0
 22 23  1  0
 22 21  1  0
 24 22  2  0
M  END
$$$$
