QHG.pdb
     RDKit          3D

 24 24  0  0  1  0  0  0  0  0999 V2000
   19.1228  -22.9577  -13.8439 N   0  0  0  0  0  0  0  0  0  0  0  0
   19.2814  -21.6520  -13.3346 C   0  0  0  0  0  0  0  0  0  0  0  0
   19.0381  -21.4837  -12.1127 O   0  0  0  0  0  0  0  0  0  0  0  0
   19.7137  -20.5027  -14.1693 C   0  0  0  0  0  0  0  0  0  0  0  0
   21.0985  -20.0983  -13.7924 C   0  0  0  0  0  0  0  0  0  0  0  0
   22.1461  -20.6539  -14.7192 C   0  0  2  0  0  0  0  0  0  0  0  0
   22.1620  -22.0772  -14.7793 N   0  0  0  0  0  0  0  0  0  0  0  0
   23.4720  -20.1837  -14.2521 C   0  0  0  0  0  0  0  0  0  0  0  0
   23.6910  -18.9564  -14.0982 O   0  0  0  0  0  0  0  0  0  0  0  0
   24.5461  -21.0639  -13.9578 N   0  0  0  0  0  0  0  0  0  0  0  0
   25.8514  -20.6362  -13.5163 C   0  0  1  0  0  0  0  0  0  0  0  0
   26.1936  -21.4429  -12.2827 C   0  0  0  0  0  0  0  0  0  0  0  0
   25.2647  -21.1460  -11.1622 C   0  0  0  0  0  0  0  0  0  0  0  0
   24.2277  -20.2153  -11.1709 C   0  0  0  0  0  0  0  0  0  0  0  0
   23.6080  -20.2324   -9.9710 N   0  0  0  0  0  0  0  0  0  0  0  0
   24.2424  -21.1498   -9.2339 C   0  0  0  0  0  0  0  0  0  0  0  0
   25.2428  -21.7088   -9.9377 N   0  0  0  0  0  0  0  0  0  0  0  0
   26.8540  -20.7574  -14.5743 C   0  0  0  0  0  0  0  0  0  0  0  0
   27.1138  -21.9272  -15.0178 O   0  0  0  0  0  0  0  0  0  0  0  0
   27.5350  -19.6423  -15.1146 N   0  0  0  0  0  0  0  0  0  0  0  0
   28.6081  -19.8591  -16.0412 C   0  0  0  0  0  0  0  0  0  0  0  0
   28.0733  -19.8675  -17.4400 C   0  0  0  0  0  0  0  0  0  0  0  0
   28.9304  -19.9343  -18.5077 O   0  0  0  0  0  0  0  0  0  0  0  0
   26.8411  -19.8143  -17.6783 O   0  0  0  0  0  0  0  0  0  0  0  0
  2  4  1  0
  2  1  1  0
  3  2  2  0
  5  6  1  0
  5  4  1  0
  6  7  1  1
  6  8  1  0
  8  9  2  0
 10  8  1  0
 10 11  1  0
 11 18  1  0
 12 13  1  0
 11 12  1  1
 13 17  1  0
 13 14  2  0
 14 15  1  0
 16 15  1  0
 17 16  2  0
 18 19  2  0
 20 18  1  0
 20 21  1  0
 22 23  1  0
 22 21  1  0
 24 22  2  0
M  END
$$$$
