EDL.pdb
     RDKit          3D

 26 25  0  0  1  0  0  0  0  0999 V2000
   10.2434  -14.1063   18.8620 N   0  0  0  0  0  0  0  0  0  0  0  0
    8.8864  -13.7057   19.2124 C   0  0  1  0  0  0  0  0  0  0  0  0
    8.0357  -13.9365   17.9865 C   0  0  0  0  0  0  0  0  0  0  0  0
    8.8338  -14.2722   16.7581 C   0  0  0  0  0  0  0  0  0  0  0  0
    7.8670  -14.5156   15.6391 C   0  0  0  0  0  0  0  0  0  0  0  0
    7.8256  -13.7719   14.6283 O   0  0  0  0  0  0  0  0  0  0  0  0
    8.4307  -14.4327   20.4045 C   0  0  0  0  0  0  0  0  0  0  0  0
    7.3108  -14.2683   20.9434 O   0  0  0  0  0  0  0  0  0  0  0  0
    7.0013  -15.5790   15.7161 O   0  0  0  0  0  0  0  0  0  0  0  0
    9.2960  -15.3903   21.0056 N   0  0  0  0  0  0  0  0  0  0  0  0
    8.9637  -16.1458   22.1681 C   0  0  1  0  0  0  0  0  0  0  0  0
    9.6546  -17.4822   22.1006 C   0  0  0  0  0  0  0  0  0  0  0  0
   11.1180  -17.3250   22.1373 C   0  0  0  0  0  0  0  0  0  0  0  0
   11.5696  -16.1513   22.3126 O   0  0  0  0  0  0  0  0  0  0  0  0
    9.4406  -15.4835   23.4296 C   0  0  0  0  0  0  0  0  0  0  0  0
   10.1066  -14.4194   23.3434 O   0  0  0  0  0  0  0  0  0  0  0  0
   12.0540  -18.3202   21.9995 O   0  0  0  0  0  0  0  0  0  0  0  0
    5.7929  -12.9062   26.2099 C   0  0  0  0  0  0  0  0  0  0  0  0
    7.1254  -13.4903   26.5671 C   0  0  2  0  0  0  0  0  0  0  0  0
    8.0802  -12.2789   26.7214 C   0  0  0  0  0  0  0  0  0  0  0  0
    7.7624  -14.3808   25.5962 C   0  0  0  0  0  0  0  0  0  0  0  0
    8.9854  -15.1583   25.9057 C   0  0  2  0  0  0  0  0  0  0  0  0
    9.1713  -16.0059   24.6990 N   0  0  0  0  0  0  0  0  0  0  0  0
    8.8858  -15.9860   27.0928 C   0  0  0  0  0  0  0  0  0  0  0  0
    9.4916  -15.8187   28.3150 O   0  0  0  0  0  0  0  0  0  0  0  0
    8.1399  -17.0309   27.0156 O   0  0  0  0  0  0  0  0  0  0  0  0
  2  1  1  6
  2  7  1  0
  3  2  1  0
  3  4  1  0
  4  5  1  0
  5  6  2  0
  7  8  2  0
  9  5  1  0
 10 11  1  0
 10  7  1  0
 12 13  1  0
 11 12  1  6
 13 17  1  0
 14 13  2  0
 15 11  1  0
 15 16  2  0
 19 18  1  6
 19 21  1  0
 19 20  1  0
 22 21  1  6
 22 23  1  0
 22 24  1  0
 23 15  1  0
 24 26  2  0
 24 25  1  0
M  END
$$$$
