EDL.pdb
     RDKit          3D

 26 25  0  0  1  0  0  0  0  0999 V2000
   10.0450  -16.6405   19.6381 N   0  0  0  0  0  0  0  0  0  0  0  0
    8.9078  -15.7461   19.8165 C   0  0  1  0  0  0  0  0  0  0  0  0
    8.0019  -15.9537   18.6265 C   0  0  0  0  0  0  0  0  0  0  0  0
    8.6670  -16.6701   17.4850 C   0  0  0  0  0  0  0  0  0  0  0  0
    7.6601  -16.8050   16.3832 C   0  0  0  0  0  0  0  0  0  0  0  0
    7.2372  -17.9262   16.0083 O   0  0  0  0  0  0  0  0  0  0  0  0
    8.2621  -15.9927   21.1124 C   0  0  0  0  0  0  0  0  0  0  0  0
    7.1820  -15.4671   21.4714 O   0  0  0  0  0  0  0  0  0  0  0  0
    7.1839  -15.6754   15.7637 O   0  0  0  0  0  0  0  0  0  0  0  0
    8.8809  -16.8803   22.0377 N   0  0  0  0  0  0  0  0  0  0  0  0
    8.3896  -17.1305   23.3524 C   0  0  1  0  0  0  0  0  0  0  0  0
    8.7509  -18.5364   23.7536 C   0  0  0  0  0  0  0  0  0  0  0  0
    8.1649  -18.8826   25.0591 C   0  0  0  0  0  0  0  0  0  0  0  0
    7.0907  -18.2899   25.3865 O   0  0  0  0  0  0  0  0  0  0  0  0
    9.0152  -16.2228   24.3733 C   0  0  0  0  0  0  0  0  0  0  0  0
   10.2677  -16.1053   24.3961 O   0  0  0  0  0  0  0  0  0  0  0  0
    8.6609  -19.7843   25.9682 O   0  0  0  0  0  0  0  0  0  0  0  0
    8.0597  -11.7706   25.0297 C   0  0  0  0  0  0  0  0  0  0  0  0
    7.1999  -12.8273   25.6530 C   0  0  2  0  0  0  0  0  0  0  0  0
    6.0496  -12.0628   26.3567 C   0  0  0  0  0  0  0  0  0  0  0  0
    7.8018  -13.6785   26.6799 C   0  0  0  0  0  0  0  0  0  0  0  0
    8.8590  -14.6718   26.3769 C   0  0  2  0  0  0  0  0  0  0  0  0
    8.2562  -15.5015   25.3010 N   0  0  0  0  0  0  0  0  0  0  0  0
    9.2402  -15.5045   27.5019 C   0  0  0  0  0  0  0  0  0  0  0  0
   10.0681  -15.2039   28.5568 O   0  0  0  0  0  0  0  0  0  0  0  0
    8.7564  -16.6957   27.5375 O   0  0  0  0  0  0  0  0  0  0  0  0
  2  1  1  6
  2  7  1  0
  3  2  1  0
  3  4  1  0
  4  5  1  0
  5  6  2  0
  7  8  2  0
  9  5  1  0
 10 11  1  0
 10  7  1  0
 12 13  1  0
 11 12  1  1
 13 17  1  0
 14 13  2  0
 15 11  1  0
 15 16  2  0
 19 18  1  1
 19 21  1  0
 19 20  1  0
 22 21  1  1
 22 23  1  0
 22 24  1  0
 23 15  1  0
 24 26  2  0
 24 25  1  0
M  END
$$$$
