EDL.pdb
     RDKit          3D

 26 25  0  0  1  0  0  0  0  0999 V2000
   10.0554  -13.6753   19.4006 N   0  0  0  0  0  0  0  0  0  0  0  0
    8.6689  -13.7789   19.8384 C   0  0  1  0  0  0  0  0  0  0  0  0
    7.8650  -14.2092   18.6350 C   0  0  0  0  0  0  0  0  0  0  0  0
    8.5352  -13.9011   17.3255 C   0  0  0  0  0  0  0  0  0  0  0  0
    7.6135  -14.3389   16.2279 C   0  0  0  0  0  0  0  0  0  0  0  0
    6.7407  -15.2227   16.4112 O   0  0  0  0  0  0  0  0  0  0  0  0
    8.5623  -14.6878   20.9873 C   0  0  0  0  0  0  0  0  0  0  0  0
    7.4932  -14.9309   21.5950 O   0  0  0  0  0  0  0  0  0  0  0  0
    7.7220  -13.7613   14.9866 O   0  0  0  0  0  0  0  0  0  0  0  0
    9.7321  -15.3470   21.4607 N   0  0  0  0  0  0  0  0  0  0  0  0
    9.7352  -16.3031   22.5182 C   0  0  1  0  0  0  0  0  0  0  0  0
   10.9230  -17.2143   22.3544 C   0  0  0  0  0  0  0  0  0  0  0  0
   10.7037  -18.1809   21.2658 C   0  0  0  0  0  0  0  0  0  0  0  0
   11.6302  -18.3047   20.4065 O   0  0  0  0  0  0  0  0  0  0  0  0
    9.8783  -15.6559   23.8667 C   0  0  0  0  0  0  0  0  0  0  0  0
   10.9615  -15.0843   24.1548 O   0  0  0  0  0  0  0  0  0  0  0  0
    9.5943  -18.9682   21.0785 O   0  0  0  0  0  0  0  0  0  0  0  0
    8.4240  -11.9503   26.1761 C   0  0  0  0  0  0  0  0  0  0  0  0
    7.5484  -13.1091   25.8089 C   0  0  2  0  0  0  0  0  0  0  0  0
    6.1157  -12.6954   26.2316 C   0  0  0  0  0  0  0  0  0  0  0  0
    7.8044  -14.3923   26.4642 C   0  0  0  0  0  0  0  0  0  0  0  0
    9.0282  -15.1891   26.2126 C   0  0  2  0  0  0  0  0  0  0  0  0
    8.8505  -15.6644   24.8156 N   0  0  0  0  0  0  0  0  0  0  0  0
    9.2060  -16.3152   27.1095 C   0  0  0  0  0  0  0  0  0  0  0  0
    9.0482  -17.6561   26.8531 O   0  0  0  0  0  0  0  0  0  0  0  0
    9.5519  -16.0495   28.3195 O   0  0  0  0  0  0  0  0  0  0  0  0
  2  1  1  6
  2  7  1  0
  3  2  1  0
  3  4  1  0
  4  5  1  0
  5  6  2  0
  7  8  2  0
  9  5  1  0
 10 11  1  0
 10  7  1  0
 12 13  1  0
 11 12  1  6
 13 17  1  0
 14 13  2  0
 15 11  1  0
 15 16  2  0
 19 18  1  1
 19 21  1  0
 19 20  1  0
 22 21  1  1
 22 23  1  0
 22 24  1  0
 23 15  1  0
 24 26  2  0
 24 25  1  0
M  END
$$$$
