EDL.pdb
     RDKit          3D

 26 25  0  0  1  0  0  0  0  0999 V2000
    8.5605  -13.0062   19.7194 N   0  0  0  0  0  0  0  0  0  0  0  0
    7.6709  -14.1609   19.7346 C   0  0  1  0  0  0  0  0  0  0  0  0
    7.4679  -14.5710   18.2957 C   0  0  0  0  0  0  0  0  0  0  0  0
    8.4338  -13.9209   17.3454 C   0  0  0  0  0  0  0  0  0  0  0  0
    8.1793  -14.4848   15.9804 C   0  0  0  0  0  0  0  0  0  0  0  0
    8.7544  -14.0314   14.9605 O   0  0  0  0  0  0  0  0  0  0  0  0
    8.2236  -15.2206   20.5883 C   0  0  0  0  0  0  0  0  0  0  0  0
    7.6096  -16.2703   20.8929 O   0  0  0  0  0  0  0  0  0  0  0  0
    7.2947  -15.5253   15.8355 O   0  0  0  0  0  0  0  0  0  0  0  0
    9.5373  -15.0712   21.1161 N   0  0  0  0  0  0  0  0  0  0  0  0
   10.1289  -15.9730   22.0486 C   0  0  1  0  0  0  0  0  0  0  0  0
   11.6276  -15.9010   21.9198 C   0  0  0  0  0  0  0  0  0  0  0  0
   12.2843  -16.8563   22.8275 C   0  0  0  0  0  0  0  0  0  0  0  0
   13.1429  -16.3884   23.6373 O   0  0  0  0  0  0  0  0  0  0  0  0
    9.8061  -15.6101   23.4705 C   0  0  0  0  0  0  0  0  0  0  0  0
   10.3772  -16.2342   24.4019 O   0  0  0  0  0  0  0  0  0  0  0  0
   12.0663  -18.2106   22.8910 O   0  0  0  0  0  0  0  0  0  0  0  0
    5.2704  -12.2492   25.9420 C   0  0  0  0  0  0  0  0  0  0  0  0
    6.5955  -12.8959   26.2071 C   0  0  2  0  0  0  0  0  0  0  0  0
    7.4662  -11.7985   26.8707 C   0  0  0  0  0  0  0  0  0  0  0  0
    7.3632  -13.3749   25.0570 C   0  0  0  0  0  0  0  0  0  0  0  0
    8.5752  -14.2158   25.1982 C   0  0  2  0  0  0  0  0  0  0  0  0
    8.8933  -14.6022   23.7986 N   0  0  0  0  0  0  0  0  0  0  0  0
    8.3930  -15.3982   26.0186 C   0  0  0  0  0  0  0  0  0  0  0  0
    7.5298  -16.4517   25.8347 O   0  0  0  0  0  0  0  0  0  0  0  0
    9.1223  -15.4954   27.0735 O   0  0  0  0  0  0  0  0  0  0  0  0
  2  1  1  6
  2  7  1  0
  3  2  1  0
  3  4  1  0
  4  5  1  0
  5  6  2  0
  7  8  2  0
  9  5  1  0
 10 11  1  0
 10  7  1  0
 12 13  1  0
 11 12  1  1
 13 17  1  0
 14 13  2  0
 15 11  1  0
 15 16  2  0
 19 18  1  6
 19 21  1  0
 19 20  1  0
 22 21  1  6
 22 23  1  0
 22 24  1  0
 23 15  1  0
 24 26  2  0
 24 25  1  0
M  END
$$$$
