EDL.pdb
     RDKit          3D

 26 25  0  0  1  0  0  0  0  0999 V2000
    9.9474  -12.5683   19.9518 N   0  0  0  0  0  0  0  0  0  0  0  0
    8.6981  -13.2651   19.6712 C   0  0  1  0  0  0  0  0  0  0  0  0
    8.7322  -13.6456   18.2105 C   0  0  0  0  0  0  0  0  0  0  0  0
    7.5797  -14.5140   17.7905 C   0  0  0  0  0  0  0  0  0  0  0  0
    8.0799  -15.4580   16.7395 C   0  0  0  0  0  0  0  0  0  0  0  0
    7.7399  -16.6665   16.7211 O   0  0  0  0  0  0  0  0  0  0  0  0
    8.5319  -14.4037   20.5841 C   0  0  0  0  0  0  0  0  0  0  0  0
    7.5265  -15.1524   20.5990 O   0  0  0  0  0  0  0  0  0  0  0  0
    8.9328  -14.9942   15.7681 O   0  0  0  0  0  0  0  0  0  0  0  0
    9.5628  -14.6975   21.5210 N   0  0  0  0  0  0  0  0  0  0  0  0
    9.5114  -15.7778   22.4499 C   0  0  1  0  0  0  0  0  0  0  0  0
   10.6682  -16.7062   22.1894 C   0  0  0  0  0  0  0  0  0  0  0  0
   10.5951  -17.8988   23.0497 C   0  0  0  0  0  0  0  0  0  0  0  0
   11.5793  -18.1163   23.8219 O   0  0  0  0  0  0  0  0  0  0  0  0
    9.6526  -15.3104   23.8709 C   0  0  0  0  0  0  0  0  0  0  0  0
   10.7689  -14.8807   24.2614 O   0  0  0  0  0  0  0  0  0  0  0  0
    9.5685  -18.8089   23.1053 O   0  0  0  0  0  0  0  0  0  0  0  0
    7.7074  -11.7884   25.9070 C   0  0  0  0  0  0  0  0  0  0  0  0
    6.9636  -13.0762   25.7264 C   0  0  2  0  0  0  0  0  0  0  0  0
    5.5230  -12.7953   26.2249 C   0  0  0  0  0  0  0  0  0  0  0  0
    7.4270  -14.2430   26.4783 C   0  0  0  0  0  0  0  0  0  0  0  0
    8.7178  -14.9146   26.1976 C   0  0  2  0  0  0  0  0  0  0  0  0
    8.5878  -15.3346   24.7777 N   0  0  0  0  0  0  0  0  0  0  0  0
    8.9923  -16.0632   27.0399 C   0  0  0  0  0  0  0  0  0  0  0  0
    8.9956  -17.3966   26.7070 O   0  0  0  0  0  0  0  0  0  0  0  0
    9.2660  -15.8300   28.2748 O   0  0  0  0  0  0  0  0  0  0  0  0
  2  1  1  1
  2  7  1  0
  3  2  1  0
  3  4  1  0
  4  5  1  0
  5  6  2  0
  7  8  2  0
  9  5  1  0
 10 11  1  0
 10  7  1  0
 12 13  1  0
 11 12  1  6
 13 17  1  0
 14 13  2  0
 15 11  1  0
 15 16  2  0
 19 18  1  1
 19 21  1  0
 19 20  1  0
 22 21  1  1
 22 23  1  0
 22 24  1  0
 23 15  1  0
 24 26  2  0
 24 25  1  0
M  END
$$$$
