EDL.pdb
     RDKit          3D

 26 25  0  0  1  0  0  0  0  0999 V2000
    9.7193  -13.3652   19.4850 N   0  0  0  0  0  0  0  0  0  0  0  0
    8.3464  -13.7627   19.7715 C   0  0  1  0  0  0  0  0  0  0  0  0
    7.7635  -14.2738   18.4758 C   0  0  0  0  0  0  0  0  0  0  0  0
    8.2710  -13.5465   17.2624 C   0  0  0  0  0  0  0  0  0  0  0  0
    7.5757  -14.1184   16.0644 C   0  0  0  0  0  0  0  0  0  0  0  0
    7.7719  -13.6679   14.9090 O   0  0  0  0  0  0  0  0  0  0  0  0
    8.3152  -14.7379   20.8693 C   0  0  0  0  0  0  0  0  0  0  0  0
    7.2629  -15.1793   21.3884 O   0  0  0  0  0  0  0  0  0  0  0  0
    6.6997  -15.1634   16.2289 O   0  0  0  0  0  0  0  0  0  0  0  0
    9.5435  -15.2290   21.3957 N   0  0  0  0  0  0  0  0  0  0  0  0
    9.6337  -16.2273   22.4095 C   0  0  1  0  0  0  0  0  0  0  0  0
   10.8753  -17.0487   22.1822 C   0  0  0  0  0  0  0  0  0  0  0  0
   10.6847  -18.4353   22.6389 C   0  0  0  0  0  0  0  0  0  0  0  0
    9.8910  -18.6198   23.6127 O   0  0  0  0  0  0  0  0  0  0  0  0
    9.7638  -15.6305   23.7822 C   0  0  0  0  0  0  0  0  0  0  0  0
   10.8097  -14.9936   24.0717 O   0  0  0  0  0  0  0  0  0  0  0  0
   11.2795  -19.5592   22.1206 O   0  0  0  0  0  0  0  0  0  0  0  0
    8.1263  -12.0581   26.1751 C   0  0  0  0  0  0  0  0  0  0  0  0
    7.3112  -13.2465   25.7660 C   0  0  2  0  0  0  0  0  0  0  0  0
    5.8579  -12.9186   26.1938 C   0  0  0  0  0  0  0  0  0  0  0  0
    7.6282  -14.5359   26.3812 C   0  0  0  0  0  0  0  0  0  0  0  0
    8.9075  -15.2442   26.1406 C   0  0  2  0  0  0  0  0  0  0  0  0
    8.7639  -15.7559   24.7525 N   0  0  0  0  0  0  0  0  0  0  0  0
    9.1694  -16.3380   27.0566 C   0  0  0  0  0  0  0  0  0  0  0  0
    9.7745  -16.3048   28.2901 O   0  0  0  0  0  0  0  0  0  0  0  0
    8.8010  -17.5127   26.6843 O   0  0  0  0  0  0  0  0  0  0  0  0
  2  1  1  6
  2  7  1  0
  3  2  1  0
  3  4  1  0
  4  5  1  0
  5  6  2  0
  7  8  2  0
  9  5  1  0
 10 11  1  0
 10  7  1  0
 12 13  1  0
 11 12  1  6
 13 17  1  0
 14 13  2  0
 15 11  1  0
 15 16  2  0
 19 18  1  1
 19 21  1  0
 19 20  1  0
 22 21  1  1
 22 23  1  0
 22 24  1  0
 23 15  1  0
 24 26  2  0
 24 25  1  0
M  END
$$$$
