EDL.pdb
     RDKit          3D

 26 25  0  0  1  0  0  0  0  0999 V2000
   10.1502  -14.2733   19.6236 N   0  0  0  0  0  0  0  0  0  0  0  0
    8.8092  -14.0653   20.1559 C   0  0  1  0  0  0  0  0  0  0  0  0
    7.8436  -14.4357   19.0558 C   0  0  0  0  0  0  0  0  0  0  0  0
    7.6859  -13.3661   18.0118 C   0  0  0  0  0  0  0  0  0  0  0  0
    8.1262  -13.9415   16.6999 C   0  0  0  0  0  0  0  0  0  0  0  0
    9.2994  -13.7983   16.2761 O   0  0  0  0  0  0  0  0  0  0  0  0
    8.6274  -14.8303   21.3965 C   0  0  0  0  0  0  0  0  0  0  0  0
    7.5734  -14.8296   22.0752 O   0  0  0  0  0  0  0  0  0  0  0  0
    7.2267  -14.6452   15.9370 O   0  0  0  0  0  0  0  0  0  0  0  0
    9.7002  -15.6312   21.8806 N   0  0  0  0  0  0  0  0  0  0  0  0
    9.6479  -16.3882   23.0876 C   0  0  1  0  0  0  0  0  0  0  0  0
   10.7442  -17.4206   23.0690 C   0  0  0  0  0  0  0  0  0  0  0  0
   10.2583  -18.7003   22.5269 C   0  0  0  0  0  0  0  0  0  0  0  0
    9.1235  -19.1048   22.9278 O   0  0  0  0  0  0  0  0  0  0  0  0
    9.8869  -15.5358   24.3017 C   0  0  0  0  0  0  0  0  0  0  0  0
   10.9640  -14.8915   24.3897 O   0  0  0  0  0  0  0  0  0  0  0  0
   10.9074  -19.5101   21.6278 O   0  0  0  0  0  0  0  0  0  0  0  0
    7.9698  -12.0282   25.0624 C   0  0  0  0  0  0  0  0  0  0  0  0
    7.4632  -13.2658   25.7377 C   0  0  2  0  0  0  0  0  0  0  0  0
    6.0871  -12.8770   26.3360 C   0  0  0  0  0  0  0  0  0  0  0  0
    8.2457  -13.8047   26.8507 C   0  0  0  0  0  0  0  0  0  0  0  0
    9.2791  -14.8512   26.6694 C   0  0  2  0  0  0  0  0  0  0  0  0
    8.9550  -15.4309   25.3397 N   0  0  0  0  0  0  0  0  0  0  0  0
    9.2703  -15.8859   27.6862 C   0  0  0  0  0  0  0  0  0  0  0  0
    8.9264  -17.2110   27.5661 O   0  0  0  0  0  0  0  0  0  0  0  0
    9.6214  -15.5404   28.8742 O   0  0  0  0  0  0  0  0  0  0  0  0
  2  1  1  6
  2  7  1  0
  3  2  1  0
  3  4  1  0
  4  5  1  0
  5  6  2  0
  7  8  2  0
  9  5  1  0
 10 11  1  0
 10  7  1  0
 12 13  1  0
 11 12  1  6
 13 17  1  0
 14 13  2  0
 15 11  1  0
 15 16  2  0
 19 18  1  1
 19 21  1  0
 19 20  1  0
 22 21  1  1
 22 23  1  0
 22 24  1  0
 23 15  1  0
 24 26  2  0
 24 25  1  0
M  END
$$$$
