KVD.pdb
     RDKit          3D

 25 24  0  0  1  0  0  0  0  0999 V2000
   27.2856  -19.9566  -15.8700 N   0  0  0  0  0  0  0  0  0  0  0  0
   26.9183  -21.3497  -15.9362 C   0  0  1  0  0  0  0  0  0  0  0  0
   28.1565  -22.2293  -16.1091 C   0  0  0  0  0  0  0  0  0  0  0  0
   29.0209  -21.6821  -17.2239 C   0  0  0  0  0  0  0  0  0  0  0  0
   28.2740  -21.8623  -18.5203 C   0  0  0  0  0  0  0  0  0  0  0  0
   29.1131  -21.3743  -19.7013 C   0  0  0  0  0  0  0  0  0  0  0  0
   28.3233  -21.5212  -20.9075 N   0  0  0  0  0  0  0  0  0  0  0  0
   26.1852  -21.7352  -14.7026 C   0  0  0  0  0  0  0  0  0  0  0  0
   25.8015  -22.9358  -14.6011 O   0  0  0  0  0  0  0  0  0  0  0  0
   27.1600  -21.0812  -11.1417 C   0  0  0  0  0  0  0  0  0  0  0  0
   25.7822  -20.5233  -11.2828 C   0  0  2  0  0  0  0  0  0  0  0  0
   24.8751  -20.8950  -10.1321 C   0  0  0  0  0  0  0  0  0  0  0  0
   25.1513  -21.0743  -12.5454 C   0  0  2  0  0  0  0  0  0  0  0  0
   25.9398  -20.7727  -13.6950 N   0  0  0  0  0  0  0  0  0  0  0  0
   23.7842  -20.5068  -12.7550 C   0  0  0  0  0  0  0  0  0  0  0  0
   23.5731  -19.2833  -12.9449 O   0  0  0  0  0  0  0  0  0  0  0  0
   22.6146  -21.3599  -12.7486 N   0  0  0  0  0  0  0  0  0  0  0  0
   21.3116  -20.7947  -13.0245 C   0  0  1  0  0  0  0  0  0  0  0  0
   21.3327  -20.1935  -14.4057 C   0  0  0  0  0  0  0  0  0  0  0  0
   20.0059  -19.6308  -14.7103 C   0  0  0  0  0  0  0  0  0  0  0  0
   19.4503  -18.7267  -14.0437 O   0  0  0  0  0  0  0  0  0  0  0  0
   20.2393  -21.8085  -12.9477 C   0  0  0  0  0  0  0  0  0  0  0  0
   20.4927  -22.9978  -13.2414 O   0  0  0  0  0  0  0  0  0  0  0  0
   19.2476  -20.0863  -15.8076 O   0  0  0  0  0  0  0  0  0  0  0  0
   18.9539  -21.4849  -12.5588 O   0  0  0  0  0  0  0  0  0  0  0  0
  2  1  1  1
  3  4  1  0
  3  2  1  0
  5  6  1  0
  5  4  1  0
  6  7  1  0
  8  9  2  0
  8  2  1  0
 11 10  1  1
 11 13  1  0
 11 12  1  0
 13 14  1  6
 14  8  1  0
 15 13  1  0
 16 15  2  0
 17 15  1  0
 18 22  1  0
 18 17  1  0
 18 19  1  6
 20 21  2  0
 20 19  1  0
 22 25  1  0
 23 22  2  0
 24 20  1  0
M  END
$$$$
