KVD.pdb
     RDKit          3D

 25 24  0  0  1  0  0  0  0  0999 V2000
   24.8949  -13.4475  -16.7057 N   0  0  0  0  0  0  0  0  0  0  0  0
   24.9224  -12.0872  -16.2273 C   0  0  1  0  0  0  0  0  0  0  0  0
   26.1112  -11.3288  -16.8173 C   0  0  0  0  0  0  0  0  0  0  0  0
   27.3895  -12.0922  -16.5477 C   0  0  0  0  0  0  0  0  0  0  0  0
   28.5188  -11.3581  -17.2237 C   0  0  0  0  0  0  0  0  0  0  0  0
   29.8527  -12.0581  -16.9632 C   0  0  0  0  0  0  0  0  0  0  0  0
   30.9131  -11.2141  -17.4764 N   0  0  0  0  0  0  0  0  0  0  0  0
   23.6521  -11.4037  -16.5831 C   0  0  0  0  0  0  0  0  0  0  0  0
   22.9688  -11.8933  -17.5279 O   0  0  0  0  0  0  0  0  0  0  0  0
   20.8785  -11.6762  -16.9284 C   0  0  0  0  0  0  0  0  0  0  0  0
   20.8495  -10.6473  -15.8468 C   0  0  2  0  0  0  0  0  0  0  0  0
   19.5563   -9.8654  -15.8117 C   0  0  0  0  0  0  0  0  0  0  0  0
   21.9678   -9.6518  -16.0796 C   0  0  2  0  0  0  0  0  0  0  0  0
   23.2466  -10.2487  -15.8733 N   0  0  0  0  0  0  0  0  0  0  0  0
   21.8452   -8.4807  -15.1584 C   0  0  0  0  0  0  0  0  0  0  0  0
   21.9286   -8.5813  -13.9092 O   0  0  0  0  0  0  0  0  0  0  0  0
   21.6200   -7.1472  -15.6749 N   0  0  0  0  0  0  0  0  0  0  0  0
   21.5641   -6.0241  -14.7645 C   0  0  1  0  0  0  0  0  0  0  0  0
   22.2371   -4.8446  -15.4169 C   0  0  0  0  0  0  0  0  0  0  0  0
   22.1242   -3.6716  -14.5330 C   0  0  0  0  0  0  0  0  0  0  0  0
   21.4314   -2.6584  -14.7860 O   0  0  0  0  0  0  0  0  0  0  0  0
   20.1750   -5.6630  -14.4131 C   0  0  0  0  0  0  0  0  0  0  0  0
   19.9453   -5.0723  -13.3346 O   0  0  0  0  0  0  0  0  0  0  0  0
   22.8102   -3.6080  -13.3033 O   0  0  0  0  0  0  0  0  0  0  0  0
   19.1108   -5.9584  -15.2427 O   0  0  0  0  0  0  0  0  0  0  0  0
  2  1  1  6
  3  4  1  0
  3  2  1  0
  5  6  1  0
  5  4  1  0
  6  7  1  0
  8  9  2  0
  8  2  1  0
 11 10  1  6
 11 13  1  0
 11 12  1  0
 13 14  1  1
 14  8  1  0
 15 13  1  0
 16 15  2  0
 17 15  1  0
 18 22  1  0
 18 17  1  0
 18 19  1  6
 20 21  2  0
 20 19  1  0
 22 25  1  0
 23 22  2  0
 24 20  1  0
M  END
$$$$
