KVD.pdb
     RDKit          3D

 25 24  0  0  1  0  0  0  0  0999 V2000
   28.0041  -22.1210  -15.6774 N   0  0  0  0  0  0  0  0  0  0  0  0
   27.2893  -20.9464  -15.2422 C   0  0  1  0  0  0  0  0  0  0  0  0
   26.6698  -20.2161  -16.4335 C   0  0  0  0  0  0  0  0  0  0  0  0
   27.7358  -19.4239  -17.1585 C   0  0  0  0  0  0  0  0  0  0  0  0
   28.1834  -20.2314  -18.3496 C   0  0  0  0  0  0  0  0  0  0  0  0
   29.2186  -19.4602  -19.1687 C   0  0  0  0  0  0  0  0  0  0  0  0
   28.6209  -18.2083  -19.5879 N   0  0  0  0  0  0  0  0  0  0  0  0
   26.2318  -21.3323  -14.2724 C   0  0  0  0  0  0  0  0  0  0  0  0
   25.6118  -22.4142  -14.4826 O   0  0  0  0  0  0  0  0  0  0  0  0
   26.7425  -21.0857  -10.4491 C   0  0  0  0  0  0  0  0  0  0  0  0
   25.4471  -20.4244  -10.7871 C   0  0  2  0  0  0  0  0  0  0  0  0
   24.3367  -20.7767   -9.8239 C   0  0  0  0  0  0  0  0  0  0  0  0
   25.0046  -20.8760  -12.1640 C   0  0  2  0  0  0  0  0  0  0  0  0
   25.9502  -20.4999  -13.1634 N   0  0  0  0  0  0  0  0  0  0  0  0
   23.6818  -20.2807  -12.5255 C   0  0  0  0  0  0  0  0  0  0  0  0
   23.5470  -19.0893  -12.8996 O   0  0  0  0  0  0  0  0  0  0  0  0
   22.4681  -21.0672  -12.4599 N   0  0  0  0  0  0  0  0  0  0  0  0
   21.2050  -20.4723  -12.8391 C   0  0  1  0  0  0  0  0  0  0  0  0
   20.9994  -20.6852  -14.3163 C   0  0  0  0  0  0  0  0  0  0  0  0
   19.7329  -20.0541  -14.7258 C   0  0  0  0  0  0  0  0  0  0  0  0
   18.6382  -20.6573  -14.8165 O   0  0  0  0  0  0  0  0  0  0  0  0
   20.0700  -21.0590  -12.0968 C   0  0  0  0  0  0  0  0  0  0  0  0
   20.0910  -22.2731  -11.7966 O   0  0  0  0  0  0  0  0  0  0  0  0
   19.6652  -18.6850  -15.0538 O   0  0  0  0  0  0  0  0  0  0  0  0
   18.9758  -20.3052  -11.7192 O   0  0  0  0  0  0  0  0  0  0  0  0
  2  1  1  6
  3  4  1  0
  3  2  1  0
  5  6  1  0
  5  4  1  0
  6  7  1  0
  8  9  2  0
  8  2  1  0
 11 10  1  1
 11 13  1  0
 11 12  1  0
 13 14  1  6
 14  8  1  0
 15 13  1  0
 16 15  2  0
 17 15  1  0
 18 22  1  0
 18 17  1  0
 18 19  1  6
 20 21  2  0
 20 19  1  0
 22 25  1  0
 23 22  2  0
 24 20  1  0
M  END
$$$$
