KVD.pdb
     RDKit          3D

 25 24  0  0  1  0  0  0  0  0999 V2000
   26.1822  -21.7702  -16.5324 N   0  0  0  0  0  0  0  0  0  0  0  0
   25.4147  -20.7411  -15.8751 C   0  0  1  0  0  0  0  0  0  0  0  0
   24.3201  -20.2074  -16.7989 C   0  0  0  0  0  0  0  0  0  0  0  0
   24.8904  -19.1348  -17.7011 C   0  0  0  0  0  0  0  0  0  0  0  0
   26.0584  -19.7286  -18.4456 C   0  0  0  0  0  0  0  0  0  0  0  0
   26.6596  -18.7084  -19.4126 C   0  0  0  0  0  0  0  0  0  0  0  0
   27.8293  -19.3037  -20.0270 N   0  0  0  0  0  0  0  0  0  0  0  0
   24.8134  -21.2816  -14.6285 C   0  0  0  0  0  0  0  0  0  0  0  0
   24.2465  -22.4102  -14.6939 O   0  0  0  0  0  0  0  0  0  0  0  0
   26.3343  -20.9856  -10.9496 C   0  0  0  0  0  0  0  0  0  0  0  0
   24.9445  -20.4419  -10.9991 C   0  0  2  0  0  0  0  0  0  0  0  0
   24.1116  -20.8434   -9.8033 C   0  0  0  0  0  0  0  0  0  0  0  0
   24.2457  -20.9791  -12.2315 C   0  0  2  0  0  0  0  0  0  0  0  0
   24.8875  -20.5386  -13.4267 N   0  0  0  0  0  0  0  0  0  0  0  0
   22.8190  -20.5351  -12.2768 C   0  0  0  0  0  0  0  0  0  0  0  0
   22.4783  -19.3262  -12.2741 O   0  0  0  0  0  0  0  0  0  0  0  0
   21.7401  -21.4991  -12.3273 N   0  0  0  0  0  0  0  0  0  0  0  0
   20.3673  -21.0434  -12.2944 C   0  0  1  0  0  0  0  0  0  0  0  0
   19.8139  -21.0884  -13.6949 C   0  0  0  0  0  0  0  0  0  0  0  0
   18.4299  -20.5840  -13.6862 C   0  0  0  0  0  0  0  0  0  0  0  0
   17.9263  -19.9143  -12.7543 O   0  0  0  0  0  0  0  0  0  0  0  0
   19.5272  -21.8759  -11.4086 C   0  0  0  0  0  0  0  0  0  0  0  0
   18.3590  -21.5133  -11.1469 O   0  0  0  0  0  0  0  0  0  0  0  0
   17.5506  -20.8288  -14.7602 O   0  0  0  0  0  0  0  0  0  0  0  0
   19.9922  -23.0525  -10.8540 O   0  0  0  0  0  0  0  0  0  0  0  0
  2  1  1  6
  3  4  1  0
  3  2  1  0
  5  6  1  0
  5  4  1  0
  6  7  1  0
  8  9  2  0
  8  2  1  0
 11 10  1  1
 11 13  1  0
 11 12  1  0
 13 14  1  6
 14  8  1  0
 15 13  1  0
 16 15  2  0
 17 15  1  0
 18 22  1  0
 18 17  1  0
 18 19  1  6
 20 21  2  0
 20 19  1  0
 22 25  1  0
 23 22  2  0
 24 20  1  0
M  END
$$$$
