KVD.pdb
     RDKit          3D

 25 24  0  0  1  0  0  0  0  0999 V2000
   28.2021  -21.4419  -15.7020 N   0  0  0  0  0  0  0  0  0  0  0  0
   27.6901  -20.3737  -14.8793 C   0  0  1  0  0  0  0  0  0  0  0  0
   27.2495  -19.1898  -15.7400 C   0  0  0  0  0  0  0  0  0  0  0  0
   28.4428  -18.6200  -16.4753 C   0  0  0  0  0  0  0  0  0  0  0  0
   28.1834  -18.7541  -17.9537 C   0  0  0  0  0  0  0  0  0  0  0  0
   28.1979  -17.3844  -18.6327 C   0  0  0  0  0  0  0  0  0  0  0  0
   29.5768  -16.9555  -18.7540 N   0  0  0  0  0  0  0  0  0  0  0  0
   26.5486  -20.8683  -14.0668 C   0  0  0  0  0  0  0  0  0  0  0  0
   25.8626  -21.8197  -14.5397 O   0  0  0  0  0  0  0  0  0  0  0  0
   26.7274  -21.2057  -10.0949 C   0  0  0  0  0  0  0  0  0  0  0  0
   25.4978  -20.4700  -10.5150 C   0  0  2  0  0  0  0  0  0  0  0  0
   24.2703  -20.8793   -9.7336 C   0  0  0  0  0  0  0  0  0  0  0  0
   25.2179  -20.7653  -11.9744 C   0  0  2  0  0  0  0  0  0  0  0  0
   26.2630  -20.2772  -12.8134 N   0  0  0  0  0  0  0  0  0  0  0  0
   23.9347  -20.1363  -12.4135 C   0  0  0  0  0  0  0  0  0  0  0  0
   23.7759  -18.8933  -12.4982 O   0  0  0  0  0  0  0  0  0  0  0  0
   22.7905  -20.9488  -12.7693 N   0  0  0  0  0  0  0  0  0  0  0  0
   21.5557  -20.3127  -13.1741 C   0  0  1  0  0  0  0  0  0  0  0  0
   21.2196  -20.7643  -14.5715 C   0  0  0  0  0  0  0  0  0  0  0  0
   21.2265  -22.2365  -14.6204 C   0  0  0  0  0  0  0  0  0  0  0  0
   21.4371  -22.9769  -13.6315 O   0  0  0  0  0  0  0  0  0  0  0  0
   20.4366  -20.6467  -12.2687 C   0  0  0  0  0  0  0  0  0  0  0  0
   20.5578  -21.5950  -11.4620 O   0  0  0  0  0  0  0  0  0  0  0  0
   20.9890  -22.9341  -15.8220 O   0  0  0  0  0  0  0  0  0  0  0  0
   19.2494  -19.9406  -12.2827 O   0  0  0  0  0  0  0  0  0  0  0  0
  2  1  1  6
  3  4  1  0
  3  2  1  0
  5  6  1  0
  5  4  1  0
  6  7  1  0
  8  9  2  0
  8  2  1  0
 11 10  1  1
 11 13  1  0
 11 12  1  0
 13 14  1  6
 14  8  1  0
 15 13  1  0
 16 15  2  0
 17 15  1  0
 18 22  1  0
 18 17  1  0
 18 19  1  6
 20 21  2  0
 20 19  1  0
 22 25  1  0
 23 22  2  0
 24 20  1  0
M  END
$$$$
