KVD.pdb
     RDKit          3D

 25 24  0  0  1  0  0  0  0  0999 V2000
   15.0816  -11.7840  -13.0889 N   0  0  0  0  0  0  0  0  0  0  0  0
   16.0139  -10.7663  -12.6702 C   0  0  1  0  0  0  0  0  0  0  0  0
   16.7785  -10.2051  -13.8689 C   0  0  0  0  0  0  0  0  0  0  0  0
   17.4335  -11.3353  -14.6324 C   0  0  0  0  0  0  0  0  0  0  0  0
   18.1602  -10.7388  -15.8101 C   0  0  0  0  0  0  0  0  0  0  0  0
   18.9204  -11.8182  -16.5810 C   0  0  0  0  0  0  0  0  0  0  0  0
   19.9674  -12.3336  -15.7217 N   0  0  0  0  0  0  0  0  0  0  0  0
   15.2864   -9.6755  -11.9711 C   0  0  0  0  0  0  0  0  0  0  0  0
   14.0880   -9.4592  -12.3121 O   0  0  0  0  0  0  0  0  0  0  0  0
   14.1363   -9.0866   -8.5697 C   0  0  0  0  0  0  0  0  0  0  0  0
   15.1805   -8.0505   -8.8261 C   0  0  2  0  0  0  0  0  0  0  0  0
   14.8538   -6.7159   -8.1957 C   0  0  0  0  0  0  0  0  0  0  0  0
   15.2968   -7.8230  -10.3196 C   0  0  2  0  0  0  0  0  0  0  0  0
   15.9363   -8.9227  -10.9647 N   0  0  0  0  0  0  0  0  0  0  0  0
   16.0833   -6.5866  -10.6153 C   0  0  0  0  0  0  0  0  0  0  0  0
   17.2922   -6.4534  -10.3016 O   0  0  0  0  0  0  0  0  0  0  0  0
   15.4747   -5.4607  -11.2920 N   0  0  0  0  0  0  0  0  0  0  0  0
   16.2412   -4.2529  -11.5087 C   0  0  1  0  0  0  0  0  0  0  0  0
   16.1828   -3.9047  -12.9733 C   0  0  0  0  0  0  0  0  0  0  0  0
   16.9427   -2.6648  -13.2079 C   0  0  0  0  0  0  0  0  0  0  0  0
   16.6397   -1.7995  -14.0623 O   0  0  0  0  0  0  0  0  0  0  0  0
   15.7257   -3.1185  -10.7144 C   0  0  0  0  0  0  0  0  0  0  0  0
   14.5299   -3.1155  -10.3473 O   0  0  0  0  0  0  0  0  0  0  0  0
   18.0994   -2.3584  -12.4629 O   0  0  0  0  0  0  0  0  0  0  0  0
   16.5270   -2.0506  -10.3597 O   0  0  0  0  0  0  0  0  0  0  0  0
  2  1  1  6
  3  4  1  0
  3  2  1  0
  5  6  1  0
  5  4  1  0
  6  7  1  0
  8  9  2  0
  8  2  1  0
 11 10  1  6
 11 13  1  0
 11 12  1  0
 13 14  1  6
 14  8  1  0
 15 13  1  0
 16 15  2  0
 17 15  1  0
 18 22  1  0
 18 17  1  0
 18 19  1  6
 20 21  2  0
 20 19  1  0
 22 25  1  0
 23 22  2  0
 24 20  1  0
M  END
$$$$
