KVD.pdb
     RDKit          3D

 25 24  0  0  1  0  0  0  0  0999 V2000
   26.9711  -21.1008  -16.5168 N   0  0  0  0  0  0  0  0  0  0  0  0
   26.1456  -20.2045  -15.7452 C   0  0  1  0  0  0  0  0  0  0  0  0
   25.2086  -19.4110  -16.6557 C   0  0  0  0  0  0  0  0  0  0  0  0
   26.0167  -18.6583  -17.6899 C   0  0  0  0  0  0  0  0  0  0  0  0
   26.4680  -17.3607  -17.0707 C   0  0  0  0  0  0  0  0  0  0  0  0
   25.4986  -16.2299  -17.4154 C   0  0  0  0  0  0  0  0  0  0  0  0
   25.6869  -15.8834  -18.8099 N   0  0  0  0  0  0  0  0  0  0  0  0
   25.3584  -20.9777  -14.7501 C   0  0  0  0  0  0  0  0  0  0  0  0
   24.6642  -21.9447  -15.1769 O   0  0  0  0  0  0  0  0  0  0  0  0
   24.1055  -21.0597  -10.0190 C   0  0  0  0  0  0  0  0  0  0  0  0
   25.2102  -21.1576  -11.0187 C   0  0  2  0  0  0  0  0  0  0  0  0
   26.0985  -19.9346  -11.0372 C   0  0  0  0  0  0  0  0  0  0  0  0
   24.6137  -21.2980  -12.4044 C   0  0  2  0  0  0  0  0  0  0  0  0
   25.4032  -20.6222  -13.3813 N   0  0  0  0  0  0  0  0  0  0  0  0
   23.2293  -20.7360  -12.4530 C   0  0  0  0  0  0  0  0  0  0  0  0
   22.9822  -19.5126  -12.3119 O   0  0  0  0  0  0  0  0  0  0  0  0
   22.0840  -21.5946  -12.6698 N   0  0  0  0  0  0  0  0  0  0  0  0
   20.7556  -21.0231  -12.7135 C   0  0  1  0  0  0  0  0  0  0  0  0
   20.0680  -21.5039  -13.9648 C   0  0  0  0  0  0  0  0  0  0  0  0
   18.7275  -20.8985  -14.0450 C   0  0  0  0  0  0  0  0  0  0  0  0
   18.3093  -20.0002  -13.2778 O   0  0  0  0  0  0  0  0  0  0  0  0
   19.9492  -21.4022  -11.5347 C   0  0  0  0  0  0  0  0  0  0  0  0
   20.1981  -22.4715  -10.9352 O   0  0  0  0  0  0  0  0  0  0  0  0
   17.7950  -21.3021  -15.0218 O   0  0  0  0  0  0  0  0  0  0  0  0
   18.9199  -20.6084  -11.0673 O   0  0  0  0  0  0  0  0  0  0  0  0
  2  1  1  6
  3  4  1  0
  3  2  1  0
  5  6  1  0
  5  4  1  0
  6  7  1  0
  8  9  2  0
  8  2  1  0
 11 10  1  1
 11 13  1  0
 11 12  1  0
 13 14  1  6
 14  8  1  0
 15 13  1  0
 16 15  2  0
 17 15  1  0
 18 22  1  0
 18 17  1  0
 18 19  1  6
 20 21  2  0
 20 19  1  0
 22 25  1  0
 23 22  2  0
 24 20  1  0
M  END
$$$$
