AKV.pdb
     RDKit          3D

 22 21  0  0  1  0  0  0  0  0999 V2000
    8.3402  -12.3788   19.5498 C   0  0  0  0  0  0  0  0  0  0  0  0
    8.2916  -13.8954   19.5017 C   0  0  2  0  0  0  0  0  0  0  0  0
    7.5092  -14.3621   18.3899 N   0  0  0  0  0  0  0  0  0  0  0  0
    7.7572  -14.4612   20.7547 C   0  0  0  0  0  0  0  0  0  0  0  0
    6.5121  -14.4667   20.9968 O   0  0  0  0  0  0  0  0  0  0  0  0
    8.6343  -15.0074   21.7058 N   0  0  0  0  0  0  0  0  0  0  0  0
    8.1545  -15.5906   22.9534 C   0  0  1  0  0  0  0  0  0  0  0  0
    8.6816  -16.9896   23.0163 C   0  0  0  0  0  0  0  0  0  0  0  0
    8.1642  -17.9241   21.9792 C   0  0  0  0  0  0  0  0  0  0  0  0
    8.8961  -19.2513   22.0268 C   0  0  0  0  0  0  0  0  0  0  0  0
    8.3824  -20.2325   21.0079 C   0  0  0  0  0  0  0  0  0  0  0  0
    9.2140  -21.4281   20.9665 N   0  0  0  0  0  0  0  0  0  0  0  0
    8.6436  -14.7842   24.1167 C   0  0  0  0  0  0  0  0  0  0  0  0
    9.8551  -14.4840   24.2456 O   0  0  0  0  0  0  0  0  0  0  0  0
    5.9067  -12.8825   26.8081 C   0  0  0  0  0  0  0  0  0  0  0  0
    7.3158  -12.3903   26.5478 C   0  0  2  0  0  0  0  0  0  0  0  0
    7.2686  -11.4496   25.3651 C   0  0  0  0  0  0  0  0  0  0  0  0
    8.2461  -13.5255   26.1930 C   0  0  2  0  0  0  0  0  0  0  0  0
    7.7232  -14.3353   25.1166 N   0  0  0  0  0  0  0  0  0  0  0  0
    8.4178  -14.3582   27.4085 C   0  0  0  0  0  0  0  0  0  0  0  0
    9.1215  -13.9796   28.5243 O   0  0  0  0  0  0  0  0  0  0  0  0
    7.8844  -15.4944   27.4281 O   0  0  0  0  0  0  0  0  0  0  0  0
  2  1  1  1
  2  4  1  0
  3  2  1  0
  4  6  1  0
  4  5  2  0
  6  7  1  0
  7 13  1  0
  7  8  1  1
  8  9  1  0
  9 10  1  0
 10 11  1  0
 11 12  1  0
 13 14  2  0
 16 15  1  6
 16 18  1  0
 16 17  1  0
 19 13  1  0
 18 19  1  6
 20 18  1  0
 20 21  1  0
 22 20  2  0
M  END
$$$$
