AKV.pdb
     RDKit          3D

 22 21  0  0  1  0  0  0  0  0999 V2000
    7.3895  -12.9255   18.8931 C   0  0  0  0  0  0  0  0  0  0  0  0
    8.4099  -13.6421   19.7591 C   0  0  2  0  0  0  0  0  0  0  0  0
    8.9835  -14.7683   19.0745 N   0  0  0  0  0  0  0  0  0  0  0  0
    7.8209  -14.0872   21.0361 C   0  0  0  0  0  0  0  0  0  0  0  0
    7.1240  -13.3030   21.7490 O   0  0  0  0  0  0  0  0  0  0  0  0
    8.0288  -15.4027   21.4818 N   0  0  0  0  0  0  0  0  0  0  0  0
    7.3957  -15.9175   22.6904 C   0  0  1  0  0  0  0  0  0  0  0  0
    7.6017  -17.3996   22.6978 C   0  0  0  0  0  0  0  0  0  0  0  0
    7.1588  -18.1090   23.9296 C   0  0  0  0  0  0  0  0  0  0  0  0
    7.3864  -19.6035   23.8101 C   0  0  0  0  0  0  0  0  0  0  0  0
    6.8908  -20.3623   25.0114 C   0  0  0  0  0  0  0  0  0  0  0  0
    5.9129  -21.3715   24.6266 N   0  0  0  0  0  0  0  0  0  0  0  0
    8.0143  -15.2877   23.9001 C   0  0  0  0  0  0  0  0  0  0  0  0
    9.2576  -15.1588   24.0112 O   0  0  0  0  0  0  0  0  0  0  0  0
    6.0966  -12.1148   25.4856 C   0  0  0  0  0  0  0  0  0  0  0  0
    6.7566  -12.9844   26.5362 C   0  0  2  0  0  0  0  0  0  0  0  0
    7.4812  -12.0759   27.5034 C   0  0  0  0  0  0  0  0  0  0  0  0
    7.7791  -13.9142   25.9279 C   0  0  2  0  0  0  0  0  0  0  0  0
    7.1852  -14.8147   24.9666 N   0  0  0  0  0  0  0  0  0  0  0  0
    8.3881  -14.6927   27.0339 C   0  0  0  0  0  0  0  0  0  0  0  0
    9.4169  -14.2520   27.8282 O   0  0  0  0  0  0  0  0  0  0  0  0
    7.9367  -15.8404   27.2688 O   0  0  0  0  0  0  0  0  0  0  0  0
  2  1  1  6
  2  4  1  0
  3  2  1  0
  4  6  1  0
  4  5  2  0
  6  7  1  0
  7 13  1  0
  7  8  1  1
  8  9  1  0
  9 10  1  0
 10 11  1  0
 11 12  1  0
 13 14  2  0
 16 15  1  6
 16 18  1  0
 16 17  1  0
 19 13  1  0
 18 19  1  6
 20 18  1  0
 20 21  1  0
 22 20  2  0
M  END
$$$$
