AKV.pdb
     RDKit          3D

 22 21  0  0  1  0  0  0  0  0999 V2000
    5.7720  -19.8771   24.2167 C   0  0  0  0  0  0  0  0  0  0  0  0
    5.3639  -19.3251   22.8627 C   0  0  2  0  0  0  0  0  0  0  0  0
    5.0237  -20.3781   21.9455 N   0  0  0  0  0  0  0  0  0  0  0  0
    6.4246  -18.4832   22.2778 C   0  0  0  0  0  0  0  0  0  0  0  0
    7.4073  -18.9956   21.6609 O   0  0  0  0  0  0  0  0  0  0  0  0
    6.3559  -17.0858   22.3999 N   0  0  0  0  0  0  0  0  0  0  0  0
    7.3894  -16.2117   21.8572 C   0  0  1  0  0  0  0  0  0  0  0  0
    6.8312  -14.8234   21.8482 C   0  0  0  0  0  0  0  0  0  0  0  0
    7.7189  -13.7720   21.2797 C   0  0  0  0  0  0  0  0  0  0  0  0
    7.8876  -13.9508   19.7834 C   0  0  0  0  0  0  0  0  0  0  0  0
    8.8213  -12.9362   19.1808 C   0  0  0  0  0  0  0  0  0  0  0  0
    8.9785  -13.1544   17.7488 N   0  0  0  0  0  0  0  0  0  0  0  0
    8.6202  -16.2855   22.7072 C   0  0  0  0  0  0  0  0  0  0  0  0
    8.5841  -16.0465   23.9385 O   0  0  0  0  0  0  0  0  0  0  0  0
   10.5340  -19.2144   23.5592 C   0  0  0  0  0  0  0  0  0  0  0  0
   11.5272  -18.2340   22.9692 C   0  0  2  0  0  0  0  0  0  0  0  0
   12.7828  -18.2814   23.8102 C   0  0  0  0  0  0  0  0  0  0  0  0
   11.0033  -16.8184   23.0080 C   0  0  2  0  0  0  0  0  0  0  0  0
    9.8780  -16.6351   22.1204 N   0  0  0  0  0  0  0  0  0  0  0  0
   12.1124  -15.9208   22.6027 C   0  0  0  0  0  0  0  0  0  0  0  0
   12.9581  -15.2787   23.4723 O   0  0  0  0  0  0  0  0  0  0  0  0
   12.2998  -15.7273   21.3766 O   0  0  0  0  0  0  0  0  0  0  0  0
  2  1  1  1
  2  4  1  0
  3  2  1  0
  4  6  1  0
  4  5  2  0
  6  7  1  0
  7 13  1  0
  7  8  1  1
  8  9  1  0
  9 10  1  0
 10 11  1  0
 11 12  1  0
 13 14  2  0
 16 15  1  1
 16 18  1  0
 16 17  1  0
 19 13  1  0
 18 19  1  6
 20 18  1  0
 20 21  1  0
 22 20  2  0
M  END
$$$$
