AKV.pdb
     RDKit          3D

 22 21  0  0  1  0  0  0  0  0999 V2000
    8.7787  -12.6269   19.4924 C   0  0  0  0  0  0  0  0  0  0  0  0
    8.3699  -14.0825   19.3549 C   0  0  2  0  0  0  0  0  0  0  0  0
    7.5805  -14.2985   18.1733 N   0  0  0  0  0  0  0  0  0  0  0  0
    7.6260  -14.5514   20.5392 C   0  0  0  0  0  0  0  0  0  0  0  0
    6.3820  -14.3369   20.6634 O   0  0  0  0  0  0  0  0  0  0  0  0
    8.2974  -15.2502   21.5557 N   0  0  0  0  0  0  0  0  0  0  0  0
    7.6084  -15.7280   22.7489 C   0  0  1  0  0  0  0  0  0  0  0  0
    7.8973  -17.1914   22.8674 C   0  0  0  0  0  0  0  0  0  0  0  0
    7.3949  -17.8529   24.1029 C   0  0  0  0  0  0  0  0  0  0  0  0
    7.7552  -19.3258   24.1183 C   0  0  0  0  0  0  0  0  0  0  0  0
    7.0992  -20.0704   25.2496 C   0  0  0  0  0  0  0  0  0  0  0  0
    7.4258  -21.4896   25.2016 N   0  0  0  0  0  0  0  0  0  0  0  0
    8.1007  -14.9885   23.9546 C   0  0  0  0  0  0  0  0  0  0  0  0
    9.3251  -14.8899   24.2108 O   0  0  0  0  0  0  0  0  0  0  0  0
    6.1232  -11.7071   25.4288 C   0  0  0  0  0  0  0  0  0  0  0  0
    6.6761  -12.6288   26.4967 C   0  0  2  0  0  0  0  0  0  0  0  0
    7.3648  -11.7746   27.5369 C   0  0  0  0  0  0  0  0  0  0  0  0
    7.7034  -13.5814   25.9334 C   0  0  2  0  0  0  0  0  0  0  0  0
    7.1685  -14.3723   24.8490 N   0  0  0  0  0  0  0  0  0  0  0  0
    8.1377  -14.4728   27.0367 C   0  0  0  0  0  0  0  0  0  0  0  0
    9.2307  -14.2530   27.8371 O   0  0  0  0  0  0  0  0  0  0  0  0
    7.4630  -15.5069   27.2630 O   0  0  0  0  0  0  0  0  0  0  0  0
  2  1  1  1
  2  4  1  0
  3  2  1  0
  4  6  1  0
  4  5  2  0
  6  7  1  0
  7 13  1  0
  7  8  1  1
  8  9  1  0
  9 10  1  0
 10 11  1  0
 11 12  1  0
 13 14  2  0
 16 15  1  6
 16 18  1  0
 16 17  1  0
 19 13  1  0
 18 19  1  6
 20 18  1  0
 20 21  1  0
 22 20  2  0
M  END
$$$$
