AKV.pdb
     RDKit          3D

 22 21  0  0  1  0  0  0  0  0999 V2000
    8.1569  -12.4610   19.5842 C   0  0  0  0  0  0  0  0  0  0  0  0
    8.2595  -13.9716   19.4737 C   0  0  2  0  0  0  0  0  0  0  0  0
    7.4721  -14.4744   18.3814 N   0  0  0  0  0  0  0  0  0  0  0  0
    7.8504  -14.6363   20.7254 C   0  0  0  0  0  0  0  0  0  0  0  0
    6.6375  -14.6535   21.0963 O   0  0  0  0  0  0  0  0  0  0  0  0
    8.8136  -15.2659   21.5305 N   0  0  0  0  0  0  0  0  0  0  0  0
    8.4665  -15.8983   22.7979 C   0  0  1  0  0  0  0  0  0  0  0  0
    9.3263  -17.1156   22.9320 C   0  0  0  0  0  0  0  0  0  0  0  0
    9.1774  -17.8771   24.2027 C   0  0  0  0  0  0  0  0  0  0  0  0
   10.1006  -19.0798   24.2295 C   0  0  0  0  0  0  0  0  0  0  0  0
    9.8698  -19.9600   25.4280 C   0  0  0  0  0  0  0  0  0  0  0  0
   10.6484  -21.1879   25.3337 N   0  0  0  0  0  0  0  0  0  0  0  0
    8.7104  -14.9468   23.9283 C   0  0  0  0  0  0  0  0  0  0  0  0
    9.8107  -14.3598   24.0678 O   0  0  0  0  0  0  0  0  0  0  0  0
    6.1413  -12.1904   24.9633 C   0  0  0  0  0  0  0  0  0  0  0  0
    6.6927  -12.8709   26.1996 C   0  0  2  0  0  0  0  0  0  0  0  0
    7.0849  -11.7950   27.1867 C   0  0  0  0  0  0  0  0  0  0  0  0
    7.9299  -13.6780   25.8865 C   0  0  2  0  0  0  0  0  0  0  0  0
    7.6767  -14.6867   24.8834 N   0  0  0  0  0  0  0  0  0  0  0  0
    8.3717  -14.3244   27.1464 C   0  0  0  0  0  0  0  0  0  0  0  0
    8.3364  -15.6750   27.3881 O   0  0  0  0  0  0  0  0  0  0  0  0
    8.8117  -13.5912   28.0656 O   0  0  0  0  0  0  0  0  0  0  0  0
  2  1  1  1
  2  4  1  0
  3  2  1  0
  4  6  1  0
  4  5  2  0
  6  7  1  0
  7 13  1  0
  7  8  1  1
  8  9  1  0
  9 10  1  0
 10 11  1  0
 11 12  1  0
 13 14  2  0
 16 15  1  6
 16 18  1  0
 16 17  1  0
 19 13  1  0
 18 19  1  6
 20 18  1  0
 20 21  1  0
 22 20  2  0
M  END
$$$$
