AKV.pdb
     RDKit          3D

 22 21  0  0  1  0  0  0  0  0999 V2000
    7.0561  -20.2958   25.7260 C   0  0  0  0  0  0  0  0  0  0  0  0
    7.6389  -19.9875   24.3585 C   0  0  2  0  0  0  0  0  0  0  0  0
    8.7321  -20.8653   24.0419 N   0  0  0  0  0  0  0  0  0  0  0  0
    8.0868  -18.5853   24.2631 C   0  0  0  0  0  0  0  0  0  0  0  0
    9.1201  -18.1805   24.8771 O   0  0  0  0  0  0  0  0  0  0  0  0
    7.3629  -17.6714   23.4800 N   0  0  0  0  0  0  0  0  0  0  0  0
    7.7052  -16.2546   23.4328 C   0  0  1  0  0  0  0  0  0  0  0  0
    7.2178  -15.7279   22.1197 C   0  0  0  0  0  0  0  0  0  0  0  0
    7.5393  -14.3026   21.8339 C   0  0  0  0  0  0  0  0  0  0  0  0
    7.7906  -14.0861   20.3542 C   0  0  0  0  0  0  0  0  0  0  0  0
    8.1634  -12.6641   20.0324 C   0  0  0  0  0  0  0  0  0  0  0  0
    8.3110  -12.4737   18.5954 N   0  0  0  0  0  0  0  0  0  0  0  0
    7.0533  -15.5324   24.5713 C   0  0  0  0  0  0  0  0  0  0  0  0
    5.8723  -15.7789   24.9163 O   0  0  0  0  0  0  0  0  0  0  0  0
    8.7233  -11.9912   26.4413 C   0  0  0  0  0  0  0  0  0  0  0  0
    8.0728  -13.0919   27.2542 C   0  0  2  0  0  0  0  0  0  0  0  0
    9.1645  -14.0181   27.7403 C   0  0  0  0  0  0  0  0  0  0  0  0
    7.1163  -13.9100   26.4199 C   0  0  2  0  0  0  0  0  0  0  0  0
    7.7776  -14.5334   25.2966 N   0  0  0  0  0  0  0  0  0  0  0  0
    6.0553  -12.9954   25.9320 C   0  0  0  0  0  0  0  0  0  0  0  0
    5.0901  -12.4232   26.7223 O   0  0  0  0  0  0  0  0  0  0  0  0
    6.0292  -12.7181   24.7079 O   0  0  0  0  0  0  0  0  0  0  0  0
  2  1  1  1
  2  4  1  0
  3  2  1  0
  4  6  1  0
  4  5  2  0
  6  7  1  0
  7 13  1  0
  7  8  1  6
  8  9  1  0
  9 10  1  0
 10 11  1  0
 11 12  1  0
 13 14  2  0
 16 15  1  6
 16 18  1  0
 16 17  1  0
 19 13  1  0
 18 19  1  6
 20 18  1  0
 20 21  1  0
 22 20  2  0
M  END
$$$$
