AKV.pdb
     RDKit          3D

 22 21  0  0  1  0  0  0  0  0999 V2000
    8.1458  -12.0477   19.6865 C   0  0  0  0  0  0  0  0  0  0  0  0
    8.3656  -13.5231   19.4041 C   0  0  2  0  0  0  0  0  0  0  0  0
    7.6954  -13.9345   18.2010 N   0  0  0  0  0  0  0  0  0  0  0  0
    7.9193  -14.3637   20.5311 C   0  0  0  0  0  0  0  0  0  0  0  0
    6.7175  -14.7587   20.6229 O   0  0  0  0  0  0  0  0  0  0  0  0
    8.8339  -14.7404   21.5281 N   0  0  0  0  0  0  0  0  0  0  0  0
    8.4199  -15.4757   22.7175 C   0  0  1  0  0  0  0  0  0  0  0  0
    9.1068  -16.8043   22.6745 C   0  0  0  0  0  0  0  0  0  0  0  0
    8.6570  -17.7317   21.6002 C   0  0  0  0  0  0  0  0  0  0  0  0
    9.3866  -19.0584   21.6837 C   0  0  0  0  0  0  0  0  0  0  0  0
    8.8774  -20.0630   20.6857 C   0  0  0  0  0  0  0  0  0  0  0  0
    9.6552  -21.2939   20.7380 N   0  0  0  0  0  0  0  0  0  0  0  0
    8.8060  -14.7160   23.9489 C   0  0  0  0  0  0  0  0  0  0  0  0
    9.9878  -14.3443   24.1486 O   0  0  0  0  0  0  0  0  0  0  0  0
    5.8598  -13.2389   26.7065 C   0  0  0  0  0  0  0  0  0  0  0  0
    7.2370  -12.6323   26.5306 C   0  0  2  0  0  0  0  0  0  0  0  0
    7.1514  -11.5946   25.4343 C   0  0  0  0  0  0  0  0  0  0  0  0
    8.2512  -13.6664   26.1040 C   0  0  2  0  0  0  0  0  0  0  0  0
    7.8185  -14.3960   24.9343 N   0  0  0  0  0  0  0  0  0  0  0  0
    8.4372  -14.6037   27.2385 C   0  0  0  0  0  0  0  0  0  0  0  0
    9.1089  -14.3066   28.3979 O   0  0  0  0  0  0  0  0  0  0  0  0
    7.9483  -15.7559   27.1411 O   0  0  0  0  0  0  0  0  0  0  0  0
  2  1  1  1
  2  4  1  0
  3  2  1  0
  4  6  1  0
  4  5  2  0
  6  7  1  0
  7 13  1  0
  7  8  1  1
  8  9  1  0
  9 10  1  0
 10 11  1  0
 11 12  1  0
 13 14  2  0
 16 15  1  6
 16 18  1  0
 16 17  1  0
 19 13  1  0
 18 19  1  6
 20 18  1  0
 20 21  1  0
 22 20  2  0
M  END
$$$$
