AKV.pdb
     RDKit          3D

 22 21  0  0  1  0  0  0  0  0999 V2000
    8.5185  -12.0215   19.6818 C   0  0  0  0  0  0  0  0  0  0  0  0
    8.3246  -13.4920   19.3582 C   0  0  2  0  0  0  0  0  0  0  0  0
    7.4882  -13.6711   18.2031 N   0  0  0  0  0  0  0  0  0  0  0  0
    7.7533  -14.2285   20.5015 C   0  0  0  0  0  0  0  0  0  0  0  0
    6.4992  -14.3512   20.6458 O   0  0  0  0  0  0  0  0  0  0  0  0
    8.6047  -14.8096   21.4553 N   0  0  0  0  0  0  0  0  0  0  0  0
    8.0896  -15.4768   22.6453 C   0  0  1  0  0  0  0  0  0  0  0  0
    8.5524  -16.8986   22.5876 C   0  0  0  0  0  0  0  0  0  0  0  0
    7.9188  -17.7441   21.5387 C   0  0  0  0  0  0  0  0  0  0  0  0
    8.4665  -19.1577   21.5728 C   0  0  0  0  0  0  0  0  0  0  0  0
    7.9209  -20.0167   20.4642 C   0  0  0  0  0  0  0  0  0  0  0  0
    8.7150  -19.8732   19.2511 N   0  0  0  0  0  0  0  0  0  0  0  0
    8.6059  -14.7981   23.8764 C   0  0  0  0  0  0  0  0  0  0  0  0
    9.8332  -14.6106   24.0581 O   0  0  0  0  0  0  0  0  0  0  0  0
    5.9228  -13.1428   26.8073 C   0  0  0  0  0  0  0  0  0  0  0  0
    7.3034  -12.5810   26.5355 C   0  0  2  0  0  0  0  0  0  0  0  0
    7.1720  -11.5227   25.4638 C   0  0  0  0  0  0  0  0  0  0  0  0
    8.2450  -13.6420   26.0181 C   0  0  2  0  0  0  0  0  0  0  0  0
    7.6940  -14.3450   24.8823 N   0  0  0  0  0  0  0  0  0  0  0  0
    8.4933  -14.5969   27.1258 C   0  0  0  0  0  0  0  0  0  0  0  0
    9.2613  -14.3311   28.2317 O   0  0  0  0  0  0  0  0  0  0  0  0
    7.9670  -15.7345   27.0561 O   0  0  0  0  0  0  0  0  0  0  0  0
  2  1  1  1
  2  4  1  0
  3  2  1  0
  4  6  1  0
  4  5  2  0
  6  7  1  0
  7 13  1  0
  7  8  1  1
  8  9  1  0
  9 10  1  0
 10 11  1  0
 11 12  1  0
 13 14  2  0
 16 15  1  6
 16 18  1  0
 16 17  1  0
 19 13  1  0
 18 19  1  6
 20 18  1  0
 20 21  1  0
 22 20  2  0
M  END
$$$$
