AKV.pdb
     RDKit          3D

 22 21  0  0  1  0  0  0  0  0999 V2000
    8.8933  -12.1690   19.5746 C   0  0  0  0  0  0  0  0  0  0  0  0
    8.6197  -13.6417   19.3278 C   0  0  2  0  0  0  0  0  0  0  0  0
    7.9085  -13.8459   18.0955 N   0  0  0  0  0  0  0  0  0  0  0  0
    7.8647  -14.2474   20.4408 C   0  0  0  0  0  0  0  0  0  0  0  0
    6.5965  -14.2396   20.4579 O   0  0  0  0  0  0  0  0  0  0  0  0
    8.5526  -14.8473   21.5082 N   0  0  0  0  0  0  0  0  0  0  0  0
    7.8554  -15.3881   22.6693 C   0  0  1  0  0  0  0  0  0  0  0  0
    8.1083  -16.8628   22.6867 C   0  0  0  0  0  0  0  0  0  0  0  0
    7.5542  -17.6014   23.8547 C   0  0  0  0  0  0  0  0  0  0  0  0
    7.7636  -19.0957   23.7047 C   0  0  0  0  0  0  0  0  0  0  0  0
    7.1554  -19.8818   24.8345 C   0  0  0  0  0  0  0  0  0  0  0  0
    7.2286  -21.3137   24.5754 N   0  0  0  0  0  0  0  0  0  0  0  0
    8.3692  -14.7447   23.9202 C   0  0  0  0  0  0  0  0  0  0  0  0
    9.5987  -14.6341   24.1454 O   0  0  0  0  0  0  0  0  0  0  0  0
    5.6867  -13.1514   26.8896 C   0  0  0  0  0  0  0  0  0  0  0  0
    7.0930  -12.6205   26.6992 C   0  0  2  0  0  0  0  0  0  0  0  0
    7.0250  -11.4607   25.7317 C   0  0  0  0  0  0  0  0  0  0  0  0
    8.0061  -13.6634   26.1002 C   0  0  2  0  0  0  0  0  0  0  0  0
    7.4525  -14.2373   24.8952 N   0  0  0  0  0  0  0  0  0  0  0  0
    8.1988  -14.7252   27.1179 C   0  0  0  0  0  0  0  0  0  0  0  0
    9.0174  -14.6199   28.2145 O   0  0  0  0  0  0  0  0  0  0  0  0
    7.5719  -15.8035   26.9749 O   0  0  0  0  0  0  0  0  0  0  0  0
  2  1  1  1
  2  4  1  0
  3  2  1  0
  4  6  1  0
  4  5  2  0
  6  7  1  0
  7 13  1  0
  7  8  1  1
  8  9  1  0
  9 10  1  0
 10 11  1  0
 11 12  1  0
 13 14  2  0
 16 15  1  6
 16 18  1  0
 16 17  1  0
 19 13  1  0
 18 19  1  6
 20 18  1  0
 20 21  1  0
 22 20  2  0
M  END
$$$$
