AKV.pdb
     RDKit          3D

 22 21  0  0  1  0  0  0  0  0999 V2000
    6.0642  -18.7659   25.6020 C   0  0  0  0  0  0  0  0  0  0  0  0
    6.1941  -18.8702   24.0930 C   0  0  2  0  0  0  0  0  0  0  0  0
    6.4970  -20.2138   23.6821 N   0  0  0  0  0  0  0  0  0  0  0  0
    7.2224  -17.9499   23.5720 C   0  0  0  0  0  0  0  0  0  0  0  0
    8.4344  -18.3084   23.4657 O   0  0  0  0  0  0  0  0  0  0  0  0
    6.8646  -16.6488   23.1828 N   0  0  0  0  0  0  0  0  0  0  0  0
    7.8514  -15.6867   22.7062 C   0  0  1  0  0  0  0  0  0  0  0  0
    7.2091  -14.9086   21.6012 C   0  0  0  0  0  0  0  0  0  0  0  0
    8.1172  -14.0279   20.8162 C   0  0  0  0  0  0  0  0  0  0  0  0
    7.4264  -13.5009   19.5734 C   0  0  0  0  0  0  0  0  0  0  0  0
    8.3988  -13.0163   18.5321 C   0  0  0  0  0  0  0  0  0  0  0  0
    7.7026  -12.5740   17.3310 N   0  0  0  0  0  0  0  0  0  0  0  0
    8.2649  -14.7810   23.8249 C   0  0  0  0  0  0  0  0  0  0  0  0
    8.3691  -13.5411   23.6626 O   0  0  0  0  0  0  0  0  0  0  0  0
    7.0517  -12.7587   25.3138 C   0  0  0  0  0  0  0  0  0  0  0  0
    7.4563  -13.6188   26.4937 C   0  0  2  0  0  0  0  0  0  0  0  0
    7.7312  -12.7025   27.6644 C   0  0  0  0  0  0  0  0  0  0  0  0
    8.7216  -14.3930   26.2112 C   0  0  2  0  0  0  0  0  0  0  0  0
    8.5526  -15.3227   25.1181 N   0  0  0  0  0  0  0  0  0  0  0  0
    9.0778  -15.1321   27.4469 C   0  0  0  0  0  0  0  0  0  0  0  0
    9.1048  -16.4995   27.5614 O   0  0  0  0  0  0  0  0  0  0  0  0
    9.3780  -14.4676   28.4688 O   0  0  0  0  0  0  0  0  0  0  0  0
  2  1  1  1
  2  4  1  0
  3  2  1  0
  4  6  1  0
  4  5  2  0
  6  7  1  0
  7 13  1  0
  7  8  1  6
  8  9  1  0
  9 10  1  0
 10 11  1  0
 11 12  1  0
 13 14  2  0
 16 15  1  6
 16 18  1  0
 16 17  1  0
 19 13  1  0
 18 19  1  6
 20 18  1  0
 20 21  1  0
 22 20  2  0
M  END
$$$$
