LMM.pdb
     RDKit          3D

 25 24  0  0  1  0  0  0  0  0999 V2000
   26.3901  -24.1764  -17.8905 C   0  0  0  0  0  0  0  0  0  0  0  0
   26.6710  -24.5424  -16.4716 C   0  0  2  0  0  0  0  0  0  0  0  0
   26.7037  -26.0251  -16.3151 C   0  0  0  0  0  0  0  0  0  0  0  0
   25.7665  -23.8606  -15.4764 C   0  0  0  0  0  0  0  0  0  0  0  0
   25.7273  -22.3614  -15.6538 C   0  0  2  0  0  0  0  0  0  0  0  0
   26.9698  -21.7399  -15.2919 N   0  0  0  0  0  0  0  0  0  0  0  0
   24.5835  -21.8631  -14.8449 C   0  0  0  0  0  0  0  0  0  0  0  0
   24.7199  -21.8445  -13.5925 O   0  0  0  0  0  0  0  0  0  0  0  0
   23.5190  -15.7382  -15.7998 C   0  0  0  0  0  0  0  0  0  0  0  0
   22.2495  -17.0474  -15.7976 S   0  0  0  0  0  0  0  0  0  0  0  0
   22.9037  -18.5762  -15.0688 C   0  0  0  0  0  0  0  0  0  0  0  0
   21.8086  -19.6121  -15.1474 C   0  0  0  0  0  0  0  0  0  0  0  0
   22.2576  -20.9444  -14.5497 C   0  0  2  0  0  0  0  0  0  0  0  0
   23.3592  -21.4101  -15.3701 N   0  0  0  0  0  0  0  0  0  0  0  0
   21.1296  -21.9169  -14.5462 C   0  0  0  0  0  0  0  0  0  0  0  0
   21.1799  -22.9606  -15.2573 O   0  0  0  0  0  0  0  0  0  0  0  0
   18.6180  -27.8200  -11.1046 C   0  0  0  0  0  0  0  0  0  0  0  0
   19.7292  -26.4723  -11.5758 S   0  0  0  0  0  0  0  0  0  0  0  0
   18.8864  -25.0663  -12.2840 C   0  0  0  0  0  0  0  0  0  0  0  0
   19.7486  -23.9350  -12.7162 C   0  0  0  0  0  0  0  0  0  0  0  0
   19.0417  -22.8162  -13.4186 C   0  0  2  0  0  0  0  0  0  0  0  0
   19.9638  -21.7345  -13.7656 N   0  0  0  0  0  0  0  0  0  0  0  0
   17.9687  -22.2245  -12.5926 C   0  0  0  0  0  0  0  0  0  0  0  0
   16.6881  -22.7643  -12.5410 O   0  0  0  0  0  0  0  0  0  0  0  0
   18.1577  -21.1973  -11.8898 O   0  0  0  0  0  0  0  0  0  0  0  0
  2  1  1  6
  3  2  1  0
  4  2  1  0
  4  5  1  0
  5  6  1  1
  7  5  1  0
  7  8  2  0
  9 10  1  0
 11 10  1  0
 11 12  1  0
 13 12  1  6
 13 14  1  0
 14  7  1  0
 15 13  1  0
 16 15  2  0
 18 17  1  0
 19 18  1  0
 20 19  1  0
 21 20  1  1
 21 22  1  0
 22 15  1  0
 23 21  1  0
 24 23  1  0
 25 23  2  0
M  END
$$$$
