LMM.pdb
     RDKit          3D

 25 24  0  0  1  0  0  0  0  0999 V2000
   24.7422  -17.6090  -16.2268 C   0  0  0  0  0  0  0  0  0  0  0  0
   23.7138  -18.4984  -15.6125 C   0  0  2  0  0  0  0  0  0  0  0  0
   22.5643  -17.6924  -15.1098 C   0  0  0  0  0  0  0  0  0  0  0  0
   24.2681  -19.4487  -14.5814 C   0  0  0  0  0  0  0  0  0  0  0  0
   25.4290  -20.2627  -15.1011 C   0  0  2  0  0  0  0  0  0  0  0  0
   25.0379  -21.1507  -16.1593 N   0  0  0  0  0  0  0  0  0  0  0  0
   26.0040  -20.9838  -13.9348 C   0  0  0  0  0  0  0  0  0  0  0  0
   25.4681  -22.0745  -13.6021 O   0  0  0  0  0  0  0  0  0  0  0  0
   32.4227  -21.9600   -9.4454 C   0  0  0  0  0  0  0  0  0  0  0  0
   31.5603  -21.3269  -10.9224 S   0  0  0  0  0  0  0  0  0  0  0  0
   29.7897  -21.7221  -10.8519 C   0  0  0  0  0  0  0  0  0  0  0  0
   29.1211  -20.9775  -11.9818 C   0  0  0  0  0  0  0  0  0  0  0  0
   27.6200  -21.2581  -12.0232 C   0  0  2  0  0  0  0  0  0  0  0  0
   27.1016  -20.5423  -13.1731 N   0  0  0  0  0  0  0  0  0  0  0  0
   26.9732  -20.8051  -10.7603 C   0  0  0  0  0  0  0  0  0  0  0  0
   26.6519  -19.5929  -10.6030 O   0  0  0  0  0  0  0  0  0  0  0  0
   29.2131  -20.0413   -4.8597 C   0  0  0  0  0  0  0  0  0  0  0  0
   27.8815  -18.9480   -5.4113 S   0  0  0  0  0  0  0  0  0  0  0  0
   26.6451  -19.7718   -6.4020 C   0  0  0  0  0  0  0  0  0  0  0  0
   27.0996  -20.2906   -7.7189 C   0  0  0  0  0  0  0  0  0  0  0  0
   26.1618  -21.2428   -8.3961 C   0  0  2  0  0  0  0  0  0  0  0  0
   26.6873  -21.6833   -9.6887 N   0  0  0  0  0  0  0  0  0  0  0  0
   24.8362  -20.6405   -8.6483 C   0  0  0  0  0  0  0  0  0  0  0  0
   23.7780  -20.7741   -7.7559 O   0  0  0  0  0  0  0  0  0  0  0  0
   24.5940  -19.9725   -9.6876 O   0  0  0  0  0  0  0  0  0  0  0  0
  2  1  1  1
  3  2  1  0
  4  2  1  0
  4  5  1  0
  5  6  1  6
  7  5  1  0
  7  8  2  0
  9 10  1  0
 11 10  1  0
 11 12  1  0
 13 12  1  1
 13 14  1  0
 14  7  1  0
 15 13  1  0
 16 15  2  0
 18 17  1  0
 19 18  1  0
 20 19  1  0
 21 20  1  6
 21 22  1  0
 22 15  1  0
 23 21  1  0
 24 23  1  0
 25 23  2  0
M  END
$$$$
