LMM.pdb
     RDKit          3D

 25 24  0  0  1  0  0  0  0  0999 V2000
   23.4426  -13.2197  -14.5449 C   0  0  0  0  0  0  0  0  0  0  0  0
   24.1755  -12.3163  -15.4791 C   0  0  2  0  0  0  0  0  0  0  0  0
   25.4100  -11.7892  -14.8294 C   0  0  0  0  0  0  0  0  0  0  0  0
   23.3143  -11.2352  -16.0817 C   0  0  0  0  0  0  0  0  0  0  0  0
   22.0776  -11.7806  -16.7551 C   0  0  2  0  0  0  0  0  0  0  0  0
   22.3922  -12.5504  -17.9253 N   0  0  0  0  0  0  0  0  0  0  0  0
   21.2038  -10.6159  -17.0565 C   0  0  0  0  0  0  0  0  0  0  0  0
   21.4793   -9.9293  -18.0763 O   0  0  0  0  0  0  0  0  0  0  0  0
   15.0306  -10.9403  -16.3739 C   0  0  0  0  0  0  0  0  0  0  0  0
   15.1556   -9.1370  -16.1320 S   0  0  0  0  0  0  0  0  0  0  0  0
   16.7774   -8.5265  -16.6735 C   0  0  0  0  0  0  0  0  0  0  0  0
   17.8019   -9.5552  -16.2607 C   0  0  0  0  0  0  0  0  0  0  0  0
   19.2136   -9.1259  -16.6564 C   0  0  2  0  0  0  0  0  0  0  0  0
   20.0917  -10.2206  -16.2904 N   0  0  0  0  0  0  0  0  0  0  0  0
   19.5881   -7.8669  -15.9543 C   0  0  0  0  0  0  0  0  0  0  0  0
   19.8816   -7.8805  -14.7251 O   0  0  0  0  0  0  0  0  0  0  0  0
   21.4013   -0.0724  -16.7466 C   0  0  0  0  0  0  0  0  0  0  0  0
   21.0187   -1.6592  -17.5265 S   0  0  0  0  0  0  0  0  0  0  0  0
   20.7196   -2.9758  -16.3578 C   0  0  0  0  0  0  0  0  0  0  0  0
   20.3472   -4.2935  -16.9365 C   0  0  0  0  0  0  0  0  0  0  0  0
   20.0238   -5.3669  -15.9424 C   0  0  2  0  0  0  0  0  0  0  0  0
   19.6364   -6.6121  -16.6061 N   0  0  0  0  0  0  0  0  0  0  0  0
   18.9106   -4.9864  -15.0482 C   0  0  0  0  0  0  0  0  0  0  0  0
   19.1226   -4.3715  -13.8189 O   0  0  0  0  0  0  0  0  0  0  0  0
   17.7078   -5.1994  -15.3528 O   0  0  0  0  0  0  0  0  0  0  0  0
  2  1  1  1
  3  2  1  0
  4  2  1  0
  4  5  1  0
  5  6  1  6
  7  5  1  0
  7  8  2  0
  9 10  1  0
 11 10  1  0
 11 12  1  0
 13 12  1  1
 13 14  1  0
 14  7  1  0
 15 13  1  0
 16 15  2  0
 18 17  1  0
 19 18  1  0
 20 19  1  0
 21 20  1  6
 21 22  1  0
 22 15  1  0
 23 21  1  0
 24 23  1  0
 25 23  2  0
M  END
$$$$
