LMM.pdb
     RDKit          3D

 25 24  0  0  1  0  0  0  0  0999 V2000
   16.8456  -15.6522  -14.6421 C   0  0  0  0  0  0  0  0  0  0  0  0
   17.3532  -15.5197  -16.0388 C   0  0  2  0  0  0  0  0  0  0  0  0
   17.9271  -16.8139  -16.5072 C   0  0  0  0  0  0  0  0  0  0  0  0
   18.2837  -14.3505  -16.2401 C   0  0  0  0  0  0  0  0  0  0  0  0
   17.7031  -13.0488  -15.7411 C   0  0  2  0  0  0  0  0  0  0  0  0
   16.4440  -12.7442  -16.3599 N   0  0  0  0  0  0  0  0  0  0  0  0
   18.7278  -11.9996  -15.9865 C   0  0  0  0  0  0  0  0  0  0  0  0
   19.8894  -12.2048  -15.5436 O   0  0  0  0  0  0  0  0  0  0  0  0
   18.6381   -8.8525  -21.2172 C   0  0  0  0  0  0  0  0  0  0  0  0
   19.7684   -7.6563  -20.4315 S   0  0  0  0  0  0  0  0  0  0  0  0
   20.2131   -8.1965  -18.7562 C   0  0  0  0  0  0  0  0  0  0  0  0
   19.2000   -9.2346  -18.3386 C   0  0  0  0  0  0  0  0  0  0  0  0
   19.5442   -9.8326  -16.9756 C   0  0  2  0  0  0  0  0  0  0  0  0
   18.5006  -10.7941  -16.6756 N   0  0  0  0  0  0  0  0  0  0  0  0
   19.6140   -8.7618  -15.9427 C   0  0  0  0  0  0  0  0  0  0  0  0
   18.6118   -8.0277  -15.7107 O   0  0  0  0  0  0  0  0  0  0  0  0
   25.0123   -5.4747  -16.5312 C   0  0  0  0  0  0  0  0  0  0  0  0
   23.8622   -4.3282  -15.7339 S   0  0  0  0  0  0  0  0  0  0  0  0
   22.5138   -5.1402  -14.8907 C   0  0  0  0  0  0  0  0  0  0  0  0
   22.1848   -6.5143  -15.3526 C   0  0  0  0  0  0  0  0  0  0  0  0
   21.0968   -7.2081  -14.5910 C   0  0  2  0  0  0  0  0  0  0  0  0
   20.7779   -8.5095  -15.1790 N   0  0  0  0  0  0  0  0  0  0  0  0
   19.8440   -6.4249  -14.5636 C   0  0  0  0  0  0  0  0  0  0  0  0
   19.3160   -5.9098  -13.3846 O   0  0  0  0  0  0  0  0  0  0  0  0
   19.1865   -6.1818  -15.6092 O   0  0  0  0  0  0  0  0  0  0  0  0
  2  1  1  1
  3  2  1  0
  4  2  1  0
  4  5  1  0
  5  6  1  6
  7  5  1  0
  7  8  2  0
  9 10  1  0
 11 10  1  0
 11 12  1  0
 13 12  1  6
 13 14  1  0
 14  7  1  0
 15 13  1  0
 16 15  2  0
 18 17  1  0
 19 18  1  0
 20 19  1  0
 21 20  1  6
 21 22  1  0
 22 15  1  0
 23 21  1  0
 24 23  1  0
 25 23  2  0
M  END
$$$$
