LMM.pdb
     RDKit          3D

 25 24  0  0  1  0  0  0  0  0999 V2000
   22.2060  -28.7948  -10.3334 C   0  0  0  0  0  0  0  0  0  0  0  0
   21.0715  -29.7469  -10.1527 C   0  0  2  0  0  0  0  0  0  0  0  0
   19.9427  -29.0800   -9.4423 C   0  0  0  0  0  0  0  0  0  0  0  0
   21.4721  -31.0599   -9.5291 C   0  0  0  0  0  0  0  0  0  0  0  0
   22.6026  -31.7366  -10.2669 C   0  0  2  0  0  0  0  0  0  0  0  0
   22.1665  -32.3330  -11.4979 N   0  0  0  0  0  0  0  0  0  0  0  0
   23.1935  -32.7290   -9.3304 C   0  0  0  0  0  0  0  0  0  0  0  0
   22.5001  -33.7397   -9.0388 O   0  0  0  0  0  0  0  0  0  0  0  0
   26.4347  -33.7947  -12.1223 C   0  0  0  0  0  0  0  0  0  0  0  0
   27.5532  -34.1056  -10.7158 S   0  0  0  0  0  0  0  0  0  0  0  0
   26.6519  -34.8596   -9.3318 C   0  0  0  0  0  0  0  0  0  0  0  0
   26.4920  -33.7969   -8.2719 C   0  0  0  0  0  0  0  0  0  0  0  0
   25.0292  -33.6331   -7.8629 C   0  0  2  0  0  0  0  0  0  0  0  0
   24.4685  -32.6268   -8.7439 N   0  0  0  0  0  0  0  0  0  0  0  0
   24.9335  -33.2232   -6.4342 C   0  0  0  0  0  0  0  0  0  0  0  0
   24.5409  -32.0625   -6.1246 O   0  0  0  0  0  0  0  0  0  0  0  0
   21.0281  -32.8660   -0.2236 C   0  0  0  0  0  0  0  0  0  0  0  0
   21.4188  -33.1001   -1.9744 S   0  0  0  0  0  0  0  0  0  0  0  0
   23.1553  -33.3734   -2.2884 C   0  0  0  0  0  0  0  0  0  0  0  0
   23.5410  -33.5700   -3.7106 C   0  0  0  0  0  0  0  0  0  0  0  0
   25.0033  -33.7810   -3.9596 C   0  0  2  0  0  0  0  0  0  0  0  0
   25.2680  -34.0879   -5.3656 N   0  0  0  0  0  0  0  0  0  0  0  0
   25.5533  -34.8957   -3.1604 C   0  0  0  0  0  0  0  0  0  0  0  0
   25.9579  -34.7335   -1.8398 O   0  0  0  0  0  0  0  0  0  0  0  0
   25.6851  -36.0545   -3.6342 O   0  0  0  0  0  0  0  0  0  0  0  0
  2  1  1  1
  3  2  1  0
  4  2  1  0
  4  5  1  0
  5  6  1  6
  7  5  1  0
  7  8  2  0
  9 10  1  0
 11 10  1  0
 11 12  1  0
 13 12  1  6
 13 14  1  0
 14  7  1  0
 15 13  1  0
 16 15  2  0
 18 17  1  0
 19 18  1  0
 20 19  1  0
 21 20  1  6
 21 22  1  0
 22 15  1  0
 23 21  1  0
 24 23  1  0
 25 23  2  0
M  END
$$$$
