LMM.pdb
     RDKit          3D

 25 24  0  0  1  0  0  0  0  0999 V2000
   26.0304  -15.5346  -14.9117 C   0  0  0  0  0  0  0  0  0  0  0  0
   26.5207  -15.5936  -16.3196 C   0  0  2  0  0  0  0  0  0  0  0  0
   27.8442  -14.9165  -16.4369 C   0  0  0  0  0  0  0  0  0  0  0  0
   25.5157  -15.1117  -17.3350 C   0  0  0  0  0  0  0  0  0  0  0  0
   24.1861  -15.8188  -17.2224 C   0  0  2  0  0  0  0  0  0  0  0  0
   24.2874  -17.2167  -17.5333 N   0  0  0  0  0  0  0  0  0  0  0  0
   23.2413  -15.1020  -18.1195 C   0  0  0  0  0  0  0  0  0  0  0  0
   23.4538  -15.1655  -19.3597 O   0  0  0  0  0  0  0  0  0  0  0  0
   16.7674  -14.7859  -18.1106 C   0  0  0  0  0  0  0  0  0  0  0  0
   17.8263  -14.8935  -16.6297 S   0  0  0  0  0  0  0  0  0  0  0  0
   19.3909  -14.0107  -16.8924 C   0  0  0  0  0  0  0  0  0  0  0  0
   19.8258  -14.2862  -18.3113 C   0  0  0  0  0  0  0  0  0  0  0  0
   21.2064  -13.6972  -18.5955 C   0  0  2  0  0  0  0  0  0  0  0  0
   22.1270  -14.3577  -17.6902 N   0  0  0  0  0  0  0  0  0  0  0  0
   21.1945  -12.2231  -18.3833 C   0  0  0  0  0  0  0  0  0  0  0  0
   21.5435  -11.7318  -17.2724 O   0  0  0  0  0  0  0  0  0  0  0  0
   16.9118   -9.6085  -16.2094 C   0  0  0  0  0  0  0  0  0  0  0  0
   17.5757   -8.1189  -16.9924 S   0  0  0  0  0  0  0  0  0  0  0  0
   18.7482   -8.4590  -18.2956 C   0  0  0  0  0  0  0  0  0  0  0  0
   19.6884   -9.5847  -18.0536 C   0  0  0  0  0  0  0  0  0  0  0  0
   20.6535   -9.8698  -19.1637 C   0  0  2  0  0  0  0  0  0  0  0  0
   20.8015  -11.3080  -19.3883 N   0  0  0  0  0  0  0  0  0  0  0  0
   22.0018   -9.3321  -18.8867 C   0  0  0  0  0  0  0  0  0  0  0  0
   23.1245  -10.1489  -18.8051 O   0  0  0  0  0  0  0  0  0  0  0  0
   22.2060   -8.1027  -18.7093 O   0  0  0  0  0  0  0  0  0  0  0  0
  2  1  1  1
  3  2  1  0
  4  2  1  0
  4  5  1  0
  5  6  1  6
  7  5  1  0
  7  8  2  0
  9 10  1  0
 11 10  1  0
 11 12  1  0
 13 12  1  1
 13 14  1  0
 14  7  1  0
 15 13  1  0
 16 15  2  0
 18 17  1  0
 19 18  1  0
 20 19  1  0
 21 20  1  1
 21 22  1  0
 22 15  1  0
 23 21  1  0
 24 23  1  0
 25 23  2  0
M  END
$$$$
