LMM.pdb
     RDKit          3D

 25 24  0  0  1  0  0  0  0  0999 V2000
   32.8842   -2.4639  -15.7677 C   0  0  0  0  0  0  0  0  0  0  0  0
   34.3540   -2.7093  -15.6951 C   0  0  2  0  0  0  0  0  0  0  0  0
   35.0982   -1.6043  -16.3653 C   0  0  0  0  0  0  0  0  0  0  0  0
   34.7671   -4.0782  -16.1734 C   0  0  0  0  0  0  0  0  0  0  0  0
   34.0393   -5.1914  -15.4581 C   0  0  2  0  0  0  0  0  0  0  0  0
   34.1612   -5.0898  -14.0313 N   0  0  0  0  0  0  0  0  0  0  0  0
   34.5836   -6.4699  -15.9875 C   0  0  0  0  0  0  0  0  0  0  0  0
   34.6572   -6.5981  -17.2387 O   0  0  0  0  0  0  0  0  0  0  0  0
   37.6904  -10.4850  -12.3003 C   0  0  0  0  0  0  0  0  0  0  0  0
   37.7845  -11.5404  -13.7846 S   0  0  0  0  0  0  0  0  0  0  0  0
   36.7551  -10.8660  -15.1195 C   0  0  0  0  0  0  0  0  0  0  0  0
   36.2494   -9.5212  -14.6568 C   0  0  0  0  0  0  0  0  0  0  0  0
   35.4316   -8.8285  -15.7455 C   0  0  2  0  0  0  0  0  0  0  0  0
   35.0234   -7.5488  -15.1986 N   0  0  0  0  0  0  0  0  0  0  0  0
   34.2559   -9.6627  -16.1201 C   0  0  0  0  0  0  0  0  0  0  0  0
   33.1941   -9.6191  -15.4361 O   0  0  0  0  0  0  0  0  0  0  0  0
   28.0975  -10.0945  -20.0177 C   0  0  0  0  0  0  0  0  0  0  0  0
   29.5637   -9.3984  -19.2186 S   0  0  0  0  0  0  0  0  0  0  0  0
   30.7925  -10.6213  -18.7909 C   0  0  0  0  0  0  0  0  0  0  0  0
   32.0013  -10.1174  -18.0875 C   0  0  0  0  0  0  0  0  0  0  0  0
   33.0508  -11.1447  -17.7907 C   0  0  2  0  0  0  0  0  0  0  0  0
   34.2583  -10.5318  -17.2365 N   0  0  0  0  0  0  0  0  0  0  0  0
   33.4585  -11.8947  -18.9969 C   0  0  0  0  0  0  0  0  0  0  0  0
   32.9785  -13.1698  -19.2759 O   0  0  0  0  0  0  0  0  0  0  0  0
   34.2644  -11.4177  -19.8382 O   0  0  0  0  0  0  0  0  0  0  0  0
  2  1  1  6
  3  2  1  0
  4  2  1  0
  4  5  1  0
  5  6  1  1
  7  5  1  0
  7  8  2  0
  9 10  1  0
 11 10  1  0
 11 12  1  0
 13 12  1  1
 13 14  1  0
 14  7  1  0
 15 13  1  0
 16 15  2  0
 18 17  1  0
 19 18  1  0
 20 19  1  0
 21 20  1  6
 21 22  1  0
 22 15  1  0
 23 21  1  0
 24 23  1  0
 25 23  2  0
M  END
$$$$
