LMM.pdb
     RDKit          3D

 25 24  0  0  1  0  0  0  0  0999 V2000
   28.6299  -21.1584  -17.5246 C   0  0  0  0  0  0  0  0  0  0  0  0
   29.0559  -21.9454  -16.3308 C   0  0  2  0  0  0  0  0  0  0  0  0
   29.7378  -23.2021  -16.7543 C   0  0  0  0  0  0  0  0  0  0  0  0
   27.9530  -22.1773  -15.3292 C   0  0  0  0  0  0  0  0  0  0  0  0
   27.3166  -20.8933  -14.8529 C   0  0  2  0  0  0  0  0  0  0  0  0
   28.2798  -19.9830  -14.3008 N   0  0  0  0  0  0  0  0  0  0  0  0
   26.2642  -21.2733  -13.8735 C   0  0  0  0  0  0  0  0  0  0  0  0
   25.3929  -22.1031  -14.2472 O   0  0  0  0  0  0  0  0  0  0  0  0
   27.2281  -19.0291   -8.0758 C   0  0  0  0  0  0  0  0  0  0  0  0
   27.0221  -20.8402   -8.1320 S   0  0  0  0  0  0  0  0  0  0  0  0
   26.6420  -21.3922   -9.8194 C   0  0  0  0  0  0  0  0  0  0  0  0
   25.4519  -20.5934  -10.2925 C   0  0  0  0  0  0  0  0  0  0  0  0
   25.0234  -21.0111  -11.6981 C   0  0  2  0  0  0  0  0  0  0  0  0
   26.1659  -20.7775  -12.5603 N   0  0  0  0  0  0  0  0  0  0  0  0
   23.8387  -20.2211  -12.1348 C   0  0  0  0  0  0  0  0  0  0  0  0
   23.9854  -19.1732  -12.8259 O   0  0  0  0  0  0  0  0  0  0  0  0
   19.5202  -22.2168  -17.6681 C   0  0  0  0  0  0  0  0  0  0  0  0
   20.8661  -22.3036  -16.4625 S   0  0  0  0  0  0  0  0  0  0  0  0
   20.5585  -21.3580  -14.9793 C   0  0  0  0  0  0  0  0  0  0  0  0
   21.6668  -21.3123  -13.9897 C   0  0  0  0  0  0  0  0  0  0  0  0
   21.3946  -20.5131  -12.7519 C   0  0  2  0  0  0  0  0  0  0  0  0
   22.5116  -20.5882  -11.8098 N   0  0  0  0  0  0  0  0  0  0  0  0
   20.1897  -20.9811  -12.0358 C   0  0  0  0  0  0  0  0  0  0  0  0
   18.9538  -20.3590  -12.1764 O   0  0  0  0  0  0  0  0  0  0  0  0
   20.2184  -21.9706  -11.2581 O   0  0  0  0  0  0  0  0  0  0  0  0
  2  1  1  6
  3  2  1  0
  4  2  1  0
  4  5  1  0
  5  6  1  1
  7  5  1  0
  7  8  2  0
  9 10  1  0
 11 10  1  0
 11 12  1  0
 13 12  1  1
 13 14  1  0
 14  7  1  0
 15 13  1  0
 16 15  2  0
 18 17  1  0
 19 18  1  0
 20 19  1  0
 21 20  1  6
 21 22  1  0
 22 15  1  0
 23 21  1  0
 24 23  1  0
 25 23  2  0
M  END
$$$$
