TDT.pdb
     RDKit          3D

 23 22  0  0  1  0  0  0  0  0999 V2000
   17.0651   -7.2592  -16.7727 C   0  0  0  0  0  0  0  0  0  0  0  0
   16.7446   -8.7098  -16.6106 C   0  0  1  0  0  0  0  0  0  0  0  0
   15.6797   -8.9724  -17.5187 O   0  0  0  0  0  0  0  0  0  0  0  0
   17.8633   -9.6271  -17.0864 C   0  0  2  0  0  0  0  0  0  0  0  0
   17.4530  -11.0166  -16.7922 N   0  0  0  0  0  0  0  0  0  0  0  0
   19.0552   -9.3821  -16.2573 C   0  0  0  0  0  0  0  0  0  0  0  0
   19.0683   -9.7543  -15.0524 O   0  0  0  0  0  0  0  0  0  0  0  0
   20.2014   -8.7461  -16.7472 N   0  0  0  0  0  0  0  0  0  0  0  0
   21.3516   -8.4311  -15.8858 C   0  0  1  0  0  0  0  0  0  0  0  0
   22.5808   -9.0778  -16.4669 C   0  0  0  0  0  0  0  0  0  0  0  0
   22.6625  -10.5033  -16.0940 C   0  0  0  0  0  0  0  0  0  0  0  0
   22.1044  -10.9115  -15.0577 O   0  0  0  0  0  0  0  0  0  0  0  0
   21.4704   -6.9636  -15.8153 C   0  0  0  0  0  0  0  0  0  0  0  0
   21.7566   -6.3224  -16.8445 O   0  0  0  0  0  0  0  0  0  0  0  0
   23.3579  -11.3976  -16.8898 O   0  0  0  0  0  0  0  0  0  0  0  0
   18.9841   -4.5182  -15.3679 C   0  0  0  0  0  0  0  0  0  0  0  0
   19.9430   -4.2218  -14.2689 C   0  0  1  0  0  0  0  0  0  0  0  0
   19.4319   -4.6984  -13.0763 O   0  0  0  0  0  0  0  0  0  0  0  0
   21.3092   -4.8315  -14.4706 C   0  0  2  0  0  0  0  0  0  0  0  0
   21.2629   -6.2637  -14.5859 N   0  0  0  0  0  0  0  0  0  0  0  0
   22.2961   -4.3638  -13.4866 C   0  0  0  0  0  0  0  0  0  0  0  0
   22.7193   -3.0554  -13.4488 O   0  0  0  0  0  0  0  0  0  0  0  0
   22.7677   -5.1693  -12.6597 O   0  0  0  0  0  0  0  0  0  0  0  0
  2  1  1  6
  2  4  1  0
  3  2  1  0
  4  6  1  0
  4  5  1  1
  6  8  1  0
  6  7  2  0
  8  9  1  0
  9 13  1  0
  9 10  1  6
 10 11  1  0
 11 15  1  0
 12 11  2  0
 13 14  2  0
 17 16  1  6
 17 19  1  0
 17 18  1  0
 19 21  1  0
 20 13  1  0
 19 20  1  1
 21 22  1  0
 23 21  2  0
M  END
$$$$
