TDT.pdb
     RDKit          3D

 23 22  0  0  1  0  0  0  0  0999 V2000
   19.5726  -10.8154  -14.8446 C   0  0  0  0  0  0  0  0  0  0  0  0
   18.5757  -11.1991  -15.8897 C   0  0  1  0  0  0  0  0  0  0  0  0
   18.2602  -12.5646  -15.6376 O   0  0  0  0  0  0  0  0  0  0  0  0
   17.2407  -10.4825  -15.7357 C   0  0  2  0  0  0  0  0  0  0  0  0
   16.4201  -10.8141  -16.9198 N   0  0  0  0  0  0  0  0  0  0  0  0
   17.4761   -9.0310  -15.8108 C   0  0  0  0  0  0  0  0  0  0  0  0
   17.8136   -8.5064  -16.9069 O   0  0  0  0  0  0  0  0  0  0  0  0
   17.3395   -8.1829  -14.7061 N   0  0  0  0  0  0  0  0  0  0  0  0
   17.7225   -6.7634  -14.7557 C   0  0  1  0  0  0  0  0  0  0  0  0
   16.5870   -5.9382  -14.2113 C   0  0  0  0  0  0  0  0  0  0  0  0
   15.4833   -5.8377  -15.1857 C   0  0  0  0  0  0  0  0  0  0  0  0
   15.7301   -5.6604  -16.3938 O   0  0  0  0  0  0  0  0  0  0  0  0
   18.9586   -6.6047  -13.9685 C   0  0  0  0  0  0  0  0  0  0  0  0
   18.9429   -6.8527  -12.7476 O   0  0  0  0  0  0  0  0  0  0  0  0
   14.1674   -5.9392  -14.7677 O   0  0  0  0  0  0  0  0  0  0  0  0
   22.2965   -8.3242  -14.5612 C   0  0  0  0  0  0  0  0  0  0  0  0
   22.5294   -6.8543  -14.5457 C   0  0  1  0  0  0  0  0  0  0  0  0
   22.6580   -6.3989  -15.8445 O   0  0  0  0  0  0  0  0  0  0  0  0
   21.4253   -6.0688  -13.8804 C   0  0  2  0  0  0  0  0  0  0  0  0
   20.1749   -6.1712  -14.5823 N   0  0  0  0  0  0  0  0  0  0  0  0
   21.8082   -4.6808  -13.5841 C   0  0  0  0  0  0  0  0  0  0  0  0
   22.8078   -4.3792  -12.6883 O   0  0  0  0  0  0  0  0  0  0  0  0
   21.2154   -3.7448  -14.1565 O   0  0  0  0  0  0  0  0  0  0  0  0
  2  1  1  1
  2  4  1  0
  3  2  1  0
  4  6  1  0
  4  5  1  6
  6  8  1  0
  6  7  2  0
  8  9  1  0
  9 13  1  0
  9 10  1  1
 10 11  1  0
 11 15  1  0
 12 11  2  0
 13 14  2  0
 17 16  1  6
 17 19  1  0
 17 18  1  0
 19 21  1  0
 20 13  1  0
 19 20  1  6
 21 22  1  0
 23 21  2  0
M  END
$$$$
