TDT.pdb
     RDKit          3D

 23 22  0  0  1  0  0  0  0  0999 V2000
   24.3274  -13.0584  -14.5617 C   0  0  0  0  0  0  0  0  0  0  0  0
   23.6841  -11.8451  -15.1512 C   0  0  1  0  0  0  0  0  0  0  0  0
   24.2651  -11.6903  -16.4420 O   0  0  0  0  0  0  0  0  0  0  0  0
   22.2008  -12.0343  -15.4400 C   0  0  2  0  0  0  0  0  0  0  0  0
   22.0878  -12.9117  -16.6245 N   0  0  0  0  0  0  0  0  0  0  0  0
   21.6341  -10.7390  -15.8511 C   0  0  0  0  0  0  0  0  0  0  0  0
   21.5556  -10.4493  -17.0760 O   0  0  0  0  0  0  0  0  0  0  0  0
   21.1648   -9.7919  -14.9341 N   0  0  0  0  0  0  0  0  0  0  0  0
   20.5250   -8.5378  -15.3608 C   0  0  1  0  0  0  0  0  0  0  0  0
   19.1194   -8.5058  -14.8224 C   0  0  0  0  0  0  0  0  0  0  0  0
   18.4199   -7.2705  -15.2255 C   0  0  0  0  0  0  0  0  0  0  0  0
   17.8168   -6.5878  -14.3757 O   0  0  0  0  0  0  0  0  0  0  0  0
   21.3445   -7.4217  -14.8552 C   0  0  0  0  0  0  0  0  0  0  0  0
   21.8739   -7.5112  -13.7310 O   0  0  0  0  0  0  0  0  0  0  0  0
   18.4273   -6.8600  -16.5477 O   0  0  0  0  0  0  0  0  0  0  0  0
   24.4128   -5.9565  -16.6219 C   0  0  0  0  0  0  0  0  0  0  0  0
   23.4405   -4.8628  -16.3507 C   0  0  1  0  0  0  0  0  0  0  0  0
   22.7345   -4.5829  -17.5057 O   0  0  0  0  0  0  0  0  0  0  0  0
   22.4474   -5.1859  -15.2607 C   0  0  2  0  0  0  0  0  0  0  0  0
   21.5419   -6.2384  -15.6331 N   0  0  0  0  0  0  0  0  0  0  0  0
   21.7630   -3.9946  -14.7379 C   0  0  0  0  0  0  0  0  0  0  0  0
   20.3994   -3.8402  -14.8340 O   0  0  0  0  0  0  0  0  0  0  0  0
   22.4299   -3.0941  -14.1905 O   0  0  0  0  0  0  0  0  0  0  0  0
  2  1  1  6
  2  4  1  0
  3  2  1  0
  4  6  1  0
  4  5  1  6
  6  8  1  0
  6  7  2  0
  8  9  1  0
  9 13  1  0
  9 10  1  1
 10 11  1  0
 11 15  1  0
 12 11  2  0
 13 14  2  0
 17 16  1  6
 17 19  1  0
 17 18  1  0
 19 21  1  0
 20 13  1  0
 19 20  1  6
 21 22  1  0
 23 21  2  0
M  END
$$$$
