TDT.pdb
     RDKit          3D

 23 22  0  0  1  0  0  0  0  0999 V2000
   22.9363  -23.5086  -14.1214 C   0  0  0  0  0  0  0  0  0  0  0  0
   23.7424  -22.8956  -13.0225 C   0  0  1  0  0  0  0  0  0  0  0  0
   24.0688  -23.9658  -12.1417 O   0  0  0  0  0  0  0  0  0  0  0  0
   25.0979  -22.3817  -13.4891 C   0  0  2  0  0  0  0  0  0  0  0  0
   25.7671  -21.7712  -12.3207 N   0  0  0  0  0  0  0  0  0  0  0  0
   24.8794  -21.2798  -14.4409 C   0  0  0  0  0  0  0  0  0  0  0  0
   24.6906  -20.1089  -14.0120 O   0  0  0  0  0  0  0  0  0  0  0  0
   24.8728  -21.4663  -15.8278 N   0  0  0  0  0  0  0  0  0  0  0  0
   24.5404  -20.3806  -16.7631 C   0  0  1  0  0  0  0  0  0  0  0  0
   25.3267  -20.5790  -18.0315 C   0  0  0  0  0  0  0  0  0  0  0  0
   25.8264  -19.2941  -18.5579 C   0  0  0  0  0  0  0  0  0  0  0  0
   25.2522  -18.2299  -18.2581 O   0  0  0  0  0  0  0  0  0  0  0  0
   23.0850  -20.4176  -16.9941 C   0  0  0  0  0  0  0  0  0  0  0  0
   22.5738  -21.4259  -17.5178 O   0  0  0  0  0  0  0  0  0  0  0  0
   26.9344  -19.2593  -19.3872 O   0  0  0  0  0  0  0  0  0  0  0  0
   20.4304  -20.1539  -14.3723 C   0  0  0  0  0  0  0  0  0  0  0  0
   20.1464  -19.1025  -15.3867 C   0  0  1  0  0  0  0  0  0  0  0  0
   20.5721  -17.8782  -14.9067 O   0  0  0  0  0  0  0  0  0  0  0  0
   20.8160  -19.3429  -16.7181 C   0  0  2  0  0  0  0  0  0  0  0  0
   22.2504  -19.3162  -16.6274 N   0  0  0  0  0  0  0  0  0  0  0  0
   20.2898  -18.4824  -17.7876 C   0  0  0  0  0  0  0  0  0  0  0  0
   18.9815  -18.5619  -18.2054 O   0  0  0  0  0  0  0  0  0  0  0  0
   21.0439  -17.6546  -18.3364 O   0  0  0  0  0  0  0  0  0  0  0  0
  2  1  1  6
  2  4  1  0
  3  2  1  0
  4  6  1  0
  4  5  1  1
  6  8  1  0
  6  7  2  0
  8  9  1  0
  9 13  1  0
  9 10  1  6
 10 11  1  0
 11 15  1  0
 12 11  2  0
 13 14  2  0
 17 16  1  1
 17 19  1  0
 17 18  1  0
 19 21  1  0
 20 13  1  0
 19 20  1  1
 21 22  1  0
 23 21  2  0
M  END
$$$$
