TDT.pdb
     RDKit          3D

 23 22  0  0  1  0  0  0  0  0999 V2000
   19.3945  -11.8496  -18.5443 C   0  0  0  0  0  0  0  0  0  0  0  0
   19.3526  -10.6434  -17.6629 C   0  0  1  0  0  0  0  0  0  0  0  0
   17.9865  -10.4835  -17.2944 O   0  0  0  0  0  0  0  0  0  0  0  0
   20.0668  -10.8481  -16.3336 C   0  0  2  0  0  0  0  0  0  0  0  0
   19.3009  -11.8551  -15.5689 N   0  0  0  0  0  0  0  0  0  0  0  0
   19.9723   -9.6027  -15.5538 C   0  0  0  0  0  0  0  0  0  0  0  0
   19.1292   -9.5096  -14.6206 O   0  0  0  0  0  0  0  0  0  0  0  0
   20.7889   -8.4925  -15.7970 N   0  0  0  0  0  0  0  0  0  0  0  0
   20.6541   -7.2393  -15.0384 C   0  0  1  0  0  0  0  0  0  0  0  0
   21.9335   -6.9918  -14.2845 C   0  0  0  0  0  0  0  0  0  0  0  0
   21.8988   -5.6939  -13.5830 C   0  0  0  0  0  0  0  0  0  0  0  0
   21.0126   -5.4631  -12.7385 O   0  0  0  0  0  0  0  0  0  0  0  0
   20.3527   -6.1634  -15.9998 C   0  0  0  0  0  0  0  0  0  0  0  0
   21.1408   -5.9437  -16.9395 O   0  0  0  0  0  0  0  0  0  0  0  0
   22.8479   -4.7236  -13.8560 O   0  0  0  0  0  0  0  0  0  0  0  0
   17.1255   -5.4012  -18.0891 C   0  0  0  0  0  0  0  0  0  0  0  0
   17.4540   -4.2437  -17.2131 C   0  0  1  0  0  0  0  0  0  0  0  0
   16.6153   -4.2503  -16.1143 O   0  0  0  0  0  0  0  0  0  0  0  0
   18.8791   -4.2408  -16.7152 C   0  0  2  0  0  0  0  0  0  0  0  0
   19.1716   -5.3678  -15.8721 N   0  0  0  0  0  0  0  0  0  0  0  0
   19.2749   -2.9567  -16.1190 C   0  0  0  0  0  0  0  0  0  0  0  0
   19.2464   -1.7836  -16.8372 O   0  0  0  0  0  0  0  0  0  0  0  0
   19.6481   -2.9211  -14.9296 O   0  0  0  0  0  0  0  0  0  0  0  0
  2  1  1  6
  2  4  1  0
  3  2  1  0
  4  6  1  0
  4  5  1  1
  6  8  1  0
  6  7  2  0
  8  9  1  0
  9 13  1  0
  9 10  1  6
 10 11  1  0
 11 15  1  0
 12 11  2  0
 13 14  2  0
 17 16  1  6
 17 19  1  0
 17 18  1  0
 19 21  1  0
 20 13  1  0
 19 20  1  1
 21 22  1  0
 23 21  2  0
M  END
$$$$
