SNG.pdb
     RDKit          3D

 19 18  0  0  1  0  0  0  0  0999 V2000
   12.2646  -12.5896  -10.0227 O   0  0  0  0  0  0  0  0  0  0  0  0
   12.7611  -11.3444  -10.3812 C   0  0  0  0  0  0  0  0  0  0  0  0
   12.4811  -10.2913   -9.3201 C   0  0  2  0  0  0  0  0  0  0  0  0
   11.0637  -10.0265   -9.1799 N   0  0  0  0  0  0  0  0  0  0  0  0
   13.2504   -9.0555   -9.5722 C   0  0  0  0  0  0  0  0  0  0  0  0
   12.8286   -8.1856  -10.3679 O   0  0  0  0  0  0  0  0  0  0  0  0
   16.2624   -5.1509   -9.7572 N   0  0  0  0  0  0  0  0  0  0  0  0
   15.9138   -5.4028   -8.4156 C   0  0  0  0  0  0  0  0  0  0  0  0
   16.1069   -4.4927   -7.5785 O   0  0  0  0  0  0  0  0  0  0  0  0
   15.3400   -6.7054   -8.0276 C   0  0  0  0  0  0  0  0  0  0  0  0
   15.2678   -7.5910   -9.2471 C   0  0  2  0  0  0  0  0  0  0  0  0
   14.5096   -8.7842   -8.9278 N   0  0  0  0  0  0  0  0  0  0  0  0
   16.6493   -7.9138   -9.6864 C   0  0  0  0  0  0  0  0  0  0  0  0
   17.5044   -8.4628   -8.9458 O   0  0  0  0  0  0  0  0  0  0  0  0
   16.9956   -7.5690  -11.0308 N   0  0  0  0  0  0  0  0  0  0  0  0
   18.2784   -7.8837  -11.5984 C   0  0  0  0  0  0  0  0  0  0  0  0
   18.3577   -7.4234  -13.0071 C   0  0  0  0  0  0  0  0  0  0  0  0
   17.3428   -6.9929  -13.6208 O   0  0  0  0  0  0  0  0  0  0  0  0
   19.5498   -7.4419  -13.7232 O   0  0  0  0  0  0  0  0  0  0  0  0
  2  1  1  0
  3  2  1  0
  3  4  1  6
  5  6  2  0
  5  3  1  0
  7  8  1  0
  8  9  2  0
 10  8  1  0
 11 10  1  1
 11 13  1  0
 11 12  1  0
 12  5  1  0
 13 15  1  0
 14 13  2  0
 16 15  1  0
 16 17  1  0
 17 18  2  0
 17 19  1  0
M  END
$$$$
