SNG.pdb
     RDKit          3D

 19 18  0  0  1  0  0  0  0  0999 V2000
   17.9029  -13.9080  -16.6806 O   0  0  0  0  0  0  0  0  0  0  0  0
   18.7068  -12.9839  -16.0285 C   0  0  0  0  0  0  0  0  0  0  0  0
   18.1615  -11.5689  -16.1471 C   0  0  2  0  0  0  0  0  0  0  0  0
   17.8746  -11.2120  -17.5216 N   0  0  0  0  0  0  0  0  0  0  0  0
   19.0587  -10.5903  -15.4991 C   0  0  0  0  0  0  0  0  0  0  0  0
   19.3507  -10.6897  -14.2856 O   0  0  0  0  0  0  0  0  0  0  0  0
   22.2625   -7.2128  -14.0030 N   0  0  0  0  0  0  0  0  0  0  0  0
   22.8049   -8.0238  -15.0194 C   0  0  0  0  0  0  0  0  0  0  0  0
   24.0506   -8.1252  -15.0868 O   0  0  0  0  0  0  0  0  0  0  0  0
   21.9167   -8.7242  -15.9664 C   0  0  0  0  0  0  0  0  0  0  0  0
   20.4848   -8.5203  -15.5365 C   0  0  2  0  0  0  0  0  0  0  0  0
   19.6399   -9.4833  -16.2141 N   0  0  0  0  0  0  0  0  0  0  0  0
   20.0876   -7.1225  -15.8434 C   0  0  0  0  0  0  0  0  0  0  0  0
   19.8344   -6.7102  -17.0040 O   0  0  0  0  0  0  0  0  0  0  0  0
   19.9970   -6.2202  -14.7372 N   0  0  0  0  0  0  0  0  0  0  0  0
   19.5556   -4.8604  -14.8891 C   0  0  0  0  0  0  0  0  0  0  0  0
   20.5963   -4.0411  -15.5584 C   0  0  0  0  0  0  0  0  0  0  0  0
   21.7051   -4.5337  -15.9050 O   0  0  0  0  0  0  0  0  0  0  0  0
   20.4061   -2.6921  -15.8385 O   0  0  0  0  0  0  0  0  0  0  0  0
  2  1  1  0
  3  2  1  0
  3  4  1  6
  5  6  2  0
  5  3  1  0
  7  8  1  0
  8  9  2  0
 10  8  1  0
 11 10  1  6
 11 13  1  0
 11 12  1  0
 12  5  1  0
 13 15  1  0
 14 13  2  0
 16 15  1  0
 16 17  1  0
 17 18  2  0
 17 19  1  0
M  END
$$$$
