SNG.pdb
     RDKit          3D

 19 18  0  0  1  0  0  0  0  0999 V2000
   20.5290  -12.6558  -19.0650 O   0  0  0  0  0  0  0  0  0  0  0  0
   21.0350  -11.7615  -18.1324 C   0  0  0  0  0  0  0  0  0  0  0  0
   22.4290  -12.1518  -17.6654 C   0  0  2  0  0  0  0  0  0  0  0  0
   22.4498  -13.4692  -17.0630 N   0  0  0  0  0  0  0  0  0  0  0  0
   23.0031  -11.1268  -16.7697 C   0  0  0  0  0  0  0  0  0  0  0  0
   22.5713  -10.9758  -15.6041 O   0  0  0  0  0  0  0  0  0  0  0  0
   27.1601  -10.7186  -14.8021 N   0  0  0  0  0  0  0  0  0  0  0  0
   26.7041  -10.4695  -16.1117 C   0  0  0  0  0  0  0  0  0  0  0  0
   26.8272  -11.3822  -16.9592 O   0  0  0  0  0  0  0  0  0  0  0  0
   26.1029   -9.1669  -16.4555 C   0  0  0  0  0  0  0  0  0  0  0  0
   24.6074   -9.2555  -16.2754 C   0  0  2  0  0  0  0  0  0  0  0  0
   24.0751  -10.2562  -17.1785 N   0  0  0  0  0  0  0  0  0  0  0  0
   24.0156   -7.9158  -16.5223 C   0  0  0  0  0  0  0  0  0  0  0  0
   24.1149   -7.3022  -17.6154 O   0  0  0  0  0  0  0  0  0  0  0  0
   23.2999   -7.3173  -15.4381 N   0  0  0  0  0  0  0  0  0  0  0  0
   22.7010   -6.0142  -15.5393 C   0  0  0  0  0  0  0  0  0  0  0  0
   21.8782   -5.7187  -14.3401 C   0  0  0  0  0  0  0  0  0  0  0  0
   21.6938   -6.5789  -13.4356 O   0  0  0  0  0  0  0  0  0  0  0  0
   21.2690   -4.4830  -14.1498 O   0  0  0  0  0  0  0  0  0  0  0  0
  2  1  1  0
  3  2  1  0
  3  4  1  1
  5  6  2  0
  5  3  1  0
  7  8  1  0
  8  9  2  0
 10  8  1  0
 11 10  1  6
 11 13  1  0
 11 12  1  0
 12  5  1  0
 13 15  1  0
 14 13  2  0
 16 15  1  0
 16 17  1  0
 17 18  2  0
 17 19  1  0
M  END
$$$$
