SNG.pdb
     RDKit          3D

 19 18  0  0  1  0  0  0  0  0999 V2000
   20.9280  -13.4435  -18.3527 O   0  0  0  0  0  0  0  0  0  0  0  0
   20.5161  -12.1396  -18.1163 C   0  0  0  0  0  0  0  0  0  0  0  0
   19.3935  -12.0726  -17.0922 C   0  0  2  0  0  0  0  0  0  0  0  0
   18.1348  -12.5401  -17.6363 N   0  0  0  0  0  0  0  0  0  0  0  0
   19.2745  -10.7192  -16.5119 C   0  0  0  0  0  0  0  0  0  0  0  0
   18.8167   -9.7680  -17.1854 O   0  0  0  0  0  0  0  0  0  0  0  0
   16.9377   -9.0518  -14.1186 N   0  0  0  0  0  0  0  0  0  0  0  0
   17.7829   -9.1697  -12.9975 C   0  0  0  0  0  0  0  0  0  0  0  0
   17.2504   -9.3037  -11.8729 O   0  0  0  0  0  0  0  0  0  0  0  0
   19.2484   -9.1340  -13.1632 C   0  0  0  0  0  0  0  0  0  0  0  0
   19.5731   -9.0730  -14.6355 C   0  0  2  0  0  0  0  0  0  0  0  0
   19.6716  -10.4204  -15.1601 N   0  0  0  0  0  0  0  0  0  0  0  0
   20.8374   -8.3148  -14.8156 C   0  0  0  0  0  0  0  0  0  0  0  0
   21.9790   -8.8201  -14.6649 O   0  0  0  0  0  0  0  0  0  0  0  0
   20.7167   -6.9369  -15.1802 N   0  0  0  0  0  0  0  0  0  0  0  0
   21.8609   -6.1151  -15.4670 C   0  0  0  0  0  0  0  0  0  0  0  0
   22.1912   -5.2498  -14.3074 C   0  0  0  0  0  0  0  0  0  0  0  0
   21.4842   -5.2454  -13.2623 O   0  0  0  0  0  0  0  0  0  0  0  0
   23.2930   -4.4011  -14.3105 O   0  0  0  0  0  0  0  0  0  0  0  0
  2  1  1  0
  3  2  1  0
  3  4  1  6
  5  6  2  0
  5  3  1  0
  7  8  1  0
  8  9  2  0
 10  8  1  0
 11 10  1  1
 11 13  1  0
 11 12  1  0
 12  5  1  0
 13 15  1  0
 14 13  2  0
 16 15  1  0
 16 17  1  0
 17 18  2  0
 17 19  1  0
M  END
$$$$
