SNG.pdb
     RDKit          3D

 19 18  0  0  1  0  0  0  0  0999 V2000
   14.6572  -13.0041  -10.3090 O   0  0  0  0  0  0  0  0  0  0  0  0
   15.3718  -11.8659  -10.6547 C   0  0  0  0  0  0  0  0  0  0  0  0
   14.4748  -10.6433  -10.7739 C   0  0  2  0  0  0  0  0  0  0  0  0
   13.4140  -10.8415  -11.7406 N   0  0  0  0  0  0  0  0  0  0  0  0
   15.2604   -9.4253  -11.0597 C   0  0  0  0  0  0  0  0  0  0  0  0
   15.2175   -8.8811  -12.1866 O   0  0  0  0  0  0  0  0  0  0  0  0
   15.0113   -6.3549   -7.7037 N   0  0  0  0  0  0  0  0  0  0  0  0
   15.6329   -6.1681   -8.9543 C   0  0  0  0  0  0  0  0  0  0  0  0
   15.0116   -5.5214   -9.8273 O   0  0  0  0  0  0  0  0  0  0  0  0
   16.9750   -6.7251   -9.2090 C   0  0  0  0  0  0  0  0  0  0  0  0
   16.9058   -7.6402  -10.4066 C   0  0  2  0  0  0  0  0  0  0  0  0
   16.1074   -8.8034  -10.0747 N   0  0  0  0  0  0  0  0  0  0  0  0
   18.2874   -8.0122  -10.8050 C   0  0  0  0  0  0  0  0  0  0  0  0
   19.0315   -8.7593  -10.1201 O   0  0  0  0  0  0  0  0  0  0  0  0
   18.7690   -7.4752  -12.0402 N   0  0  0  0  0  0  0  0  0  0  0  0
   20.1048   -7.7164  -12.5138 C   0  0  0  0  0  0  0  0  0  0  0  0
   20.3242   -7.0600  -13.8266 C   0  0  0  0  0  0  0  0  0  0  0  0
   19.3874   -6.4797  -14.4412 O   0  0  0  0  0  0  0  0  0  0  0  0
   21.5688   -7.0492  -14.4472 O   0  0  0  0  0  0  0  0  0  0  0  0
  2  1  1  0
  3  2  1  0
  3  4  1  6
  5  6  2  0
  5  3  1  0
  7  8  1  0
  8  9  2  0
 10  8  1  0
 11 10  1  1
 11 13  1  0
 11 12  1  0
 12  5  1  0
 13 15  1  0
 14 13  2  0
 16 15  1  0
 16 17  1  0
 17 18  2  0
 17 19  1  0
M  END
$$$$
