SNG.pdb
     RDKit          3D

 19 18  0  0  1  0  0  0  0  0999 V2000
   20.0044  -13.6666  -17.2352 O   0  0  0  0  0  0  0  0  0  0  0  0
   20.9877  -12.8898  -16.6392 C   0  0  0  0  0  0  0  0  0  0  0  0
   20.7066  -11.4021  -16.7858 C   0  0  2  0  0  0  0  0  0  0  0  0
   20.7812  -10.9699  -18.1666 N   0  0  0  0  0  0  0  0  0  0  0  0
   21.5838  -10.5997  -15.9088 C   0  0  0  0  0  0  0  0  0  0  0  0
   21.6857  -10.8599  -14.6883 O   0  0  0  0  0  0  0  0  0  0  0  0
   26.0702  -10.0682  -14.9861 N   0  0  0  0  0  0  0  0  0  0  0  0
   25.2120   -9.7220  -16.0485 C   0  0  0  0  0  0  0  0  0  0  0  0
   25.0813  -10.5395  -16.9872 O   0  0  0  0  0  0  0  0  0  0  0  0
   24.4977   -8.4313  -16.0381 C   0  0  0  0  0  0  0  0  0  0  0  0
   23.1084   -8.6452  -15.4897 C   0  0  2  0  0  0  0  0  0  0  0  0
   22.3598   -9.4898  -16.3989 N   0  0  0  0  0  0  0  0  0  0  0  0
   22.4595   -7.3226  -15.3012 C   0  0  0  0  0  0  0  0  0  0  0  0
   21.6654   -6.8127  -16.1322 O   0  0  0  0  0  0  0  0  0  0  0  0
   22.7753   -6.6149  -14.0990 N   0  0  0  0  0  0  0  0  0  0  0  0
   22.1230   -5.3859  -13.7371 C   0  0  0  0  0  0  0  0  0  0  0  0
   22.4889   -4.2989  -14.6789 C   0  0  0  0  0  0  0  0  0  0  0  0
   23.2916   -4.4921  -15.6331 O   0  0  0  0  0  0  0  0  0  0  0  0
   21.9687   -3.0144  -14.5609 O   0  0  0  0  0  0  0  0  0  0  0  0
  2  1  1  0
  3  2  1  0
  3  4  1  6
  5  6  2  0
  5  3  1  0
  7  8  1  0
  8  9  2  0
 10  8  1  0
 11 10  1  6
 11 13  1  0
 11 12  1  0
 12  5  1  0
 13 15  1  0
 14 13  2  0
 16 15  1  0
 16 17  1  0
 17 18  2  0
 17 19  1  0
M  END
$$$$
