SNG.pdb
     RDKit          3D

 19 18  0  0  1  0  0  0  0  0999 V2000
   18.7789  -10.8142  -20.9158 O   0  0  0  0  0  0  0  0  0  0  0  0
   19.6199  -11.3418  -19.9463 C   0  0  0  0  0  0  0  0  0  0  0  0
   18.9092  -12.3591  -19.0667 C   0  0  2  0  0  0  0  0  0  0  0  0
   18.2944  -13.4141  -19.8464 N   0  0  0  0  0  0  0  0  0  0  0  0
   17.9405  -11.7056  -18.1628 C   0  0  0  0  0  0  0  0  0  0  0  0
   16.8187  -11.3371  -18.5794 O   0  0  0  0  0  0  0  0  0  0  0  0
   15.2650  -12.6692  -15.9661 N   0  0  0  0  0  0  0  0  0  0  0  0
   16.0362  -12.6381  -14.7874 C   0  0  0  0  0  0  0  0  0  0  0  0
   15.7665  -13.4657  -13.8881 O   0  0  0  0  0  0  0  0  0  0  0  0
   17.1239  -11.6532  -14.6353 C   0  0  0  0  0  0  0  0  0  0  0  0
   17.2368  -10.8485  -15.9066 C   0  0  2  0  0  0  0  0  0  0  0  0
   18.2258  -11.4584  -16.7729 N   0  0  0  0  0  0  0  0  0  0  0  0
   17.5938   -9.4498  -15.5574 C   0  0  0  0  0  0  0  0  0  0  0  0
   16.9212   -8.7359  -14.7706 O   0  0  0  0  0  0  0  0  0  0  0  0
   18.7725   -8.9141  -16.1656 N   0  0  0  0  0  0  0  0  0  0  0  0
   19.1938   -7.5552  -15.9589 C   0  0  0  0  0  0  0  0  0  0  0  0
   18.3734   -6.6210  -16.7693 C   0  0  0  0  0  0  0  0  0  0  0  0
   17.4206   -7.0300  -17.4883 O   0  0  0  0  0  0  0  0  0  0  0  0
   18.6096   -5.2504  -16.7795 O   0  0  0  0  0  0  0  0  0  0  0  0
  2  1  1  0
  3  2  1  0
  3  4  1  6
  5  6  2  0
  5  3  1  0
  7  8  1  0
  8  9  2  0
 10  8  1  0
 11 10  1  1
 11 13  1  0
 11 12  1  0
 12  5  1  0
 13 15  1  0
 14 13  2  0
 16 15  1  0
 16 17  1  0
 17 18  2  0
 17 19  1  0
M  END
$$$$
