SNG.pdb
     RDKit          3D

 19 18  0  0  1  0  0  0  0  0999 V2000
   17.7946  -13.6728  -17.1047 O   0  0  0  0  0  0  0  0  0  0  0  0
   18.6382  -12.7057  -17.6325 C   0  0  0  0  0  0  0  0  0  0  0  0
   19.5176  -12.0718  -16.5655 C   0  0  2  0  0  0  0  0  0  0  0  0
   19.0040  -12.3049  -15.2310 N   0  0  0  0  0  0  0  0  0  0  0  0
   19.7331  -10.6344  -16.8299 C   0  0  0  0  0  0  0  0  0  0  0  0
   20.2379  -10.2468  -17.9083 O   0  0  0  0  0  0  0  0  0  0  0  0
   17.5029   -7.0827  -18.4335 N   0  0  0  0  0  0  0  0  0  0  0  0
   17.5230   -7.8490  -17.2514 C   0  0  0  0  0  0  0  0  0  0  0  0
   16.8107   -8.8770  -17.2066 O   0  0  0  0  0  0  0  0  0  0  0  0
   18.3638   -7.4368  -16.1114 C   0  0  0  0  0  0  0  0  0  0  0  0
   19.6557   -8.2154  -16.1495 C   0  0  2  0  0  0  0  0  0  0  0  0
   19.3809   -9.6123  -15.8782 N   0  0  0  0  0  0  0  0  0  0  0  0
   20.5948   -7.6330  -15.1572 C   0  0  0  0  0  0  0  0  0  0  0  0
   20.6503   -7.9970  -13.9549 O   0  0  0  0  0  0  0  0  0  0  0  0
   21.4709   -6.6037  -15.6254 N   0  0  0  0  0  0  0  0  0  0  0  0
   22.5248   -6.0626  -14.8107 C   0  0  0  0  0  0  0  0  0  0  0  0
   21.9688   -5.2221  -13.7213 C   0  0  0  0  0  0  0  0  0  0  0  0
   22.7130   -4.5275  -12.9757 O   0  0  0  0  0  0  0  0  0  0  0  0
   20.6034   -5.1552  -13.4648 O   0  0  0  0  0  0  0  0  0  0  0  0
  2  1  1  0
  3  2  1  0
  3  4  1  1
  5  6  2  0
  5  3  1  0
  7  8  1  0
  8  9  2  0
 10  8  1  0
 11 10  1  1
 11 13  1  0
 11 12  1  0
 12  5  1  0
 13 15  1  0
 14 13  2  0
 16 15  1  0
 16 17  1  0
 17 18  2  0
 17 19  1  0
M  END
$$$$
