SNG.pdb
     RDKit          3D

 19 18  0  0  1  0  0  0  0  0999 V2000
   34.7695   -8.1736  -15.2526 O   0  0  0  0  0  0  0  0  0  0  0  0
   33.6310   -7.3827  -15.1906 C   0  0  0  0  0  0  0  0  0  0  0  0
   33.5431   -6.4163  -16.3619 C   0  0  2  0  0  0  0  0  0  0  0  0
   34.8037   -5.7457  -16.6072 N   0  0  0  0  0  0  0  0  0  0  0  0
   32.4335   -5.4569  -16.1859 C   0  0  0  0  0  0  0  0  0  0  0  0
   31.2781   -5.8526  -15.9093 O   0  0  0  0  0  0  0  0  0  0  0  0
   31.2098   -1.2785  -13.2422 N   0  0  0  0  0  0  0  0  0  0  0  0
   32.0676   -2.0032  -14.0931 C   0  0  0  0  0  0  0  0  0  0  0  0
   32.8931   -2.7835  -13.5676 O   0  0  0  0  0  0  0  0  0  0  0  0
   31.9814   -1.8346  -15.5562 C   0  0  0  0  0  0  0  0  0  0  0  0
   31.4953   -3.1246  -16.1696 C   0  0  2  0  0  0  0  0  0  0  0  0
   32.6135   -4.0343  -16.3200 N   0  0  0  0  0  0  0  0  0  0  0  0
   30.8491   -2.8214  -17.4720 C   0  0  0  0  0  0  0  0  0  0  0  0
   31.4698   -2.3707  -18.4684 O   0  0  0  0  0  0  0  0  0  0  0  0
   29.4429   -3.0659  -17.5666 N   0  0  0  0  0  0  0  0  0  0  0  0
   28.7249   -2.9511  -18.8068 C   0  0  0  0  0  0  0  0  0  0  0  0
   28.1793   -1.5811  -18.9741 C   0  0  0  0  0  0  0  0  0  0  0  0
   28.3778   -0.6800  -18.1134 O   0  0  0  0  0  0  0  0  0  0  0  0
   27.4233   -1.2185  -20.0837 O   0  0  0  0  0  0  0  0  0  0  0  0
  2  1  1  0
  3  2  1  0
  3  4  1  1
  5  6  2  0
  5  3  1  0
  7  8  1  0
  8  9  2  0
 10  8  1  0
 11 10  1  6
 11 13  1  0
 11 12  1  0
 12  5  1  0
 13 15  1  0
 14 13  2  0
 16 15  1  0
 16 17  1  0
 17 18  2  0
 17 19  1  0
M  END
$$$$
