SNG.pdb
     RDKit          3D

 19 18  0  0  1  0  0  0  0  0999 V2000
   14.8956   -9.1383  -10.6506 O   0  0  0  0  0  0  0  0  0  0  0  0
   15.6531   -8.1194  -11.2108 C   0  0  0  0  0  0  0  0  0  0  0  0
   16.8418   -7.7463  -10.3382 C   0  0  2  0  0  0  0  0  0  0  0  0
   16.4276   -7.1566   -9.0813 N   0  0  0  0  0  0  0  0  0  0  0  0
   17.7931   -6.8814  -11.0659 C   0  0  0  0  0  0  0  0  0  0  0  0
   17.7343   -5.6345  -10.9677 O   0  0  0  0  0  0  0  0  0  0  0  0
   22.2054   -4.6649  -12.6647 N   0  0  0  0  0  0  0  0  0  0  0  0
   22.0248   -5.9861  -13.1195 C   0  0  0  0  0  0  0  0  0  0  0  0
   22.6361   -6.3394  -14.1529 O   0  0  0  0  0  0  0  0  0  0  0  0
   21.1385   -6.9107  -12.3875 C   0  0  0  0  0  0  0  0  0  0  0  0
   19.7036   -6.5338  -12.6625 C   0  0  2  0  0  0  0  0  0  0  0  0
   18.8262   -7.4137  -11.9166 N   0  0  0  0  0  0  0  0  0  0  0  0
   19.4588   -6.6175  -14.1250 C   0  0  0  0  0  0  0  0  0  0  0  0
   19.3818   -7.7021  -14.7565 O   0  0  0  0  0  0  0  0  0  0  0  0
   19.3067   -5.3795  -14.8252 N   0  0  0  0  0  0  0  0  0  0  0  0
   19.1556   -5.3184  -16.2536 C   0  0  0  0  0  0  0  0  0  0  0  0
   17.7242   -5.1975  -16.6266 C   0  0  0  0  0  0  0  0  0  0  0  0
   17.0198   -6.2118  -16.8856 O   0  0  0  0  0  0  0  0  0  0  0  0
   17.0852   -3.9650  -16.7101 O   0  0  0  0  0  0  0  0  0  0  0  0
  2  1  1  0
  3  2  1  0
  3  4  1  1
  5  6  2  0
  5  3  1  0
  7  8  1  0
  8  9  2  0
 10  8  1  0
 11 10  1  6
 11 13  1  0
 11 12  1  0
 12  5  1  0
 13 15  1  0
 14 13  2  0
 16 15  1  0
 16 17  1  0
 17 18  2  0
 17 19  1  0
M  END
$$$$
