WKY.pdb
     RDKit          3D

 36 38  0  0  1  0  0  0  0  0999 V2000
    6.4309  -17.8036   24.7153 N   0  0  0  0  0  0  0  0  0  0  0  0
    7.2180  -16.5805   24.4131 C   0  0  1  0  0  0  0  0  0  0  0  0
    7.6684  -16.0124   25.7064 C   0  0  0  0  0  0  0  0  0  0  0  0
    6.8527  -14.9129   26.2425 C   0  0  0  0  0  0  0  0  0  0  0  0
    5.6026  -14.9105   26.8335 C   0  0  0  0  0  0  0  0  0  0  0  0
    5.2571  -13.6479   27.1375 N   0  0  0  0  0  0  0  0  0  0  0  0
    6.2519  -12.7957   26.7629 C   0  0  0  0  0  0  0  0  0  0  0  0
    6.3764  -11.4328   26.8520 C   0  0  0  0  0  0  0  0  0  0  0  0
    7.5324  -10.8171   26.3690 C   0  0  0  0  0  0  0  0  0  0  0  0
    8.5270  -11.5733   25.8156 C   0  0  0  0  0  0  0  0  0  0  0  0
    8.3882  -12.9321   25.7347 C   0  0  0  0  0  0  0  0  0  0  0  0
    7.2400  -13.5842   26.2088 C   0  0  0  0  0  0  0  0  0  0  0  0
    8.3839  -17.0088   23.5470 C   0  0  0  0  0  0  0  0  0  0  0  0
    8.8370  -18.1690   23.6823 O   0  0  0  0  0  0  0  0  0  0  0  0
    8.9439  -16.1397   22.6170 N   0  0  0  0  0  0  0  0  0  0  0  0
   10.1329  -16.4585   21.7624 C   0  0  1  0  0  0  0  0  0  0  0  0
   10.1090  -15.5072   20.6185 C   0  0  0  0  0  0  0  0  0  0  0  0
    9.0774  -15.6550   19.5595 C   0  0  0  0  0  0  0  0  0  0  0  0
    9.2364  -17.0077   18.8405 C   0  0  0  0  0  0  0  0  0  0  0  0
    8.1402  -17.1503   17.8223 C   0  0  0  0  0  0  0  0  0  0  0  0
    8.6857  -17.5494   16.5221 N   0  0  0  0  0  0  0  0  0  0  0  0
   11.2525  -16.3837   22.7033 C   0  0  0  0  0  0  0  0  0  0  0  0
   11.7270  -15.1832   22.9629 O   0  0  0  0  0  0  0  0  0  0  0  0
    9.1747  -14.2895   28.3551 O   0  0  0  0  0  0  0  0  0  0  0  0
   10.0577  -15.1623   27.7056 C   0  0  0  0  0  0  0  0  0  0  0  0
   11.1700  -14.6112   27.0814 C   0  0  0  0  0  0  0  0  0  0  0  0
   12.0887  -15.3810   26.4222 C   0  0  0  0  0  0  0  0  0  0  0  0
   11.9259  -16.7532   26.3610 C   0  0  0  0  0  0  0  0  0  0  0  0
   12.9327  -17.5558   25.6320 C   0  0  0  0  0  0  0  0  0  0  0  0
   13.1002  -17.0395   24.2405 C   0  0  2  0  0  0  0  0  0  0  0  0
   11.9346  -17.3906   23.3984 N   0  0  0  0  0  0  0  0  0  0  0  0
   14.2969  -17.5479   23.5435 C   0  0  0  0  0  0  0  0  0  0  0  0
   14.1304  -18.3270   22.3797 O   0  0  0  0  0  0  0  0  0  0  0  0
   10.8016  -17.2984   26.9918 C   0  0  0  0  0  0  0  0  0  0  0  0
    9.8744  -16.5257   27.6575 C   0  0  0  0  0  0  0  0  0  0  0  0
   15.4632  -17.3092   23.9505 O   0  0  0  0  0  0  0  0  0  0  0  0
  2  1  1  1
  3  2  1  0
  4  5  2  0
  4  3  1  0
  6  5  1  0
  7 12  2  0
  7  6  1  0
  8  7  1  0
  9 10  1  0
  9  8  2  0
 10 11  2  0
 11 12  1  0
 12  4  1  0
 13  2  1  0
 14 13  2  0
 15 13  1  0
 16 22  1  0
 16 15  1  0
 16 17  1  6
 18 17  1  0
 19 18  1  0
 20 19  1  0
 21 20  1  0
 22 23  2  0
 24 25  1  0
 25 35  2  0
 26 25  1  0
 26 27  2  0
 27 28  1  0
 28 34  2  0
 28 29  1  0
 30 32  1  0
 30 29  1  1
 31 30  1  0
 31 22  1  0
 32 33  1  0
 35 34  1  0
 36 32  2  0
M  END
$$$$
