WKY.pdb
     RDKit          3D

 36 38  0  0  1  0  0  0  0  0999 V2000
    6.1584  -17.7163   24.7945 N   0  0  0  0  0  0  0  0  0  0  0  0
    6.5883  -16.3298   24.4788 C   0  0  1  0  0  0  0  0  0  0  0  0
    7.2399  -15.7805   25.6921 C   0  0  0  0  0  0  0  0  0  0  0  0
    6.5350  -14.6721   26.3523 C   0  0  0  0  0  0  0  0  0  0  0  0
    5.3503  -14.6418   27.0650 C   0  0  0  0  0  0  0  0  0  0  0  0
    5.0981  -13.3807   27.4544 N   0  0  0  0  0  0  0  0  0  0  0  0
    6.0915  -12.5567   27.0181 C   0  0  0  0  0  0  0  0  0  0  0  0
    6.2903  -11.2063   27.1511 C   0  0  0  0  0  0  0  0  0  0  0  0
    7.4219  -10.6206   26.5809 C   0  0  0  0  0  0  0  0  0  0  0  0
    8.3196  -11.3936   25.8998 C   0  0  0  0  0  0  0  0  0  0  0  0
    8.1077  -12.7397   25.7767 C   0  0  0  0  0  0  0  0  0  0  0  0
    6.9812  -13.3617   26.3356 C   0  0  0  0  0  0  0  0  0  0  0  0
    7.5498  -16.4206   23.3125 C   0  0  0  0  0  0  0  0  0  0  0  0
    8.3251  -17.4026   23.2496 O   0  0  0  0  0  0  0  0  0  0  0  0
    7.5760  -15.4402   22.3266 N   0  0  0  0  0  0  0  0  0  0  0  0
    8.5270  -15.4232   21.1685 C   0  0  1  0  0  0  0  0  0  0  0  0
    8.0488  -14.3690   20.2336 C   0  0  0  0  0  0  0  0  0  0  0  0
    8.8250  -14.0695   19.0026 C   0  0  0  0  0  0  0  0  0  0  0  0
    8.1316  -14.6786   17.7696 C   0  0  0  0  0  0  0  0  0  0  0  0
    8.9888  -14.4364   16.5590 C   0  0  0  0  0  0  0  0  0  0  0  0
    8.3276  -14.9258   15.3463 N   0  0  0  0  0  0  0  0  0  0  0  0
    9.8319  -15.2427   21.8082 C   0  0  0  0  0  0  0  0  0  0  0  0
    9.8470  -14.5715   22.9410 O   0  0  0  0  0  0  0  0  0  0  0  0
   10.2309  -14.8577   28.3481 O   0  0  0  0  0  0  0  0  0  0  0  0
   10.5448  -15.4992   27.1426 C   0  0  0  0  0  0  0  0  0  0  0  0
   10.8525  -14.7024   26.0467 C   0  0  0  0  0  0  0  0  0  0  0  0
   11.1720  -15.2354   24.8281 C   0  0  0  0  0  0  0  0  0  0  0  0
   11.1949  -16.6078   24.6572 C   0  0  0  0  0  0  0  0  0  0  0  0
   11.5351  -17.1516   23.3238 C   0  0  0  0  0  0  0  0  0  0  0  0
   12.0907  -16.0752   22.4501 C   0  0  2  0  0  0  0  0  0  0  0  0
   11.1095  -15.6661   21.4200 N   0  0  0  0  0  0  0  0  0  0  0  0
   13.3261  -16.4493   21.7357 C   0  0  0  0  0  0  0  0  0  0  0  0
   14.5695  -16.2514   22.3712 O   0  0  0  0  0  0  0  0  0  0  0  0
   10.8823  -17.4017   25.7668 C   0  0  0  0  0  0  0  0  0  0  0  0
   10.5608  -16.8679   26.9963 C   0  0  0  0  0  0  0  0  0  0  0  0
   13.3094  -16.9414   20.5779 O   0  0  0  0  0  0  0  0  0  0  0  0
  2  1  1  1
  3  2  1  0
  4  5  2  0
  4  3  1  0
  6  5  1  0
  7 12  2  0
  7  6  1  0
  8  7  1  0
  9 10  1  0
  9  8  2  0
 10 11  2  0
 11 12  1  0
 12  4  1  0
 13  2  1  0
 14 13  2  0
 15 13  1  0
 16 22  1  0
 16 15  1  0
 16 17  1  6
 18 17  1  0
 19 18  1  0
 20 19  1  0
 21 20  1  0
 22 23  2  0
 24 25  1  0
 25 35  2  0
 26 25  1  0
 26 27  2  0
 27 28  1  0
 28 34  2  0
 28 29  1  0
 30 32  1  0
 30 29  1  6
 31 30  1  0
 31 22  1  0
 32 33  1  0
 35 34  1  0
 36 32  2  0
M  END
$$$$
