WKY.pdb
     RDKit          3D

 36 38  0  0  1  0  0  0  0  0999 V2000
    6.6411  -18.0268   24.0992 N   0  0  0  0  0  0  0  0  0  0  0  0
    6.8873  -16.5799   23.8697 C   0  0  1  0  0  0  0  0  0  0  0  0
    7.4332  -16.0180   25.1284 C   0  0  0  0  0  0  0  0  0  0  0  0
    6.5833  -15.0325   25.8123 C   0  0  0  0  0  0  0  0  0  0  0  0
    5.4663  -15.1918   26.6117 C   0  0  0  0  0  0  0  0  0  0  0  0
    5.0127  -13.9840   26.9875 N   0  0  0  0  0  0  0  0  0  0  0  0
    5.8034  -13.0098   26.4567 C   0  0  0  0  0  0  0  0  0  0  0  0
    5.7575  -11.6416   26.5404 C   0  0  0  0  0  0  0  0  0  0  0  0
    6.7184  -10.8813   25.8716 C   0  0  0  0  0  0  0  0  0  0  0  0
    7.6938  -11.5028   25.1439 C   0  0  0  0  0  0  0  0  0  0  0  0
    7.7268  -12.8688   25.0709 C   0  0  0  0  0  0  0  0  0  0  0  0
    6.7768  -13.6642   25.7290 C   0  0  0  0  0  0  0  0  0  0  0  0
    7.8769  -16.4763   22.7281 C   0  0  0  0  0  0  0  0  0  0  0  0
    8.6858  -17.4159   22.5487 O   0  0  0  0  0  0  0  0  0  0  0  0
    7.8921  -15.3662   21.8907 N   0  0  0  0  0  0  0  0  0  0  0  0
    8.8677  -15.1571   20.7725 C   0  0  1  0  0  0  0  0  0  0  0  0
    8.3156  -14.0729   19.9159 C   0  0  0  0  0  0  0  0  0  0  0  0
    8.9519  -13.7723   18.6074 C   0  0  0  0  0  0  0  0  0  0  0  0
    8.0957  -14.3281   17.4540 C   0  0  0  0  0  0  0  0  0  0  0  0
    8.8525  -14.1701   16.1652 C   0  0  0  0  0  0  0  0  0  0  0  0
    8.1142  -14.7702   15.0508 N   0  0  0  0  0  0  0  0  0  0  0  0
   10.1317  -14.9135   21.4707 C   0  0  0  0  0  0  0  0  0  0  0  0
   10.4590  -13.6552   21.6786 O   0  0  0  0  0  0  0  0  0  0  0  0
   11.3250  -16.1114   29.7737 O   0  0  0  0  0  0  0  0  0  0  0  0
   11.0465  -16.1622   28.4015 C   0  0  0  0  0  0  0  0  0  0  0  0
   10.7327  -14.9702   27.7603 C   0  0  0  0  0  0  0  0  0  0  0  0
   10.4464  -14.9179   26.4238 C   0  0  0  0  0  0  0  0  0  0  0  0
   10.4625  -16.0753   25.6664 C   0  0  0  0  0  0  0  0  0  0  0  0
   10.1388  -15.9854   24.2255 C   0  0  0  0  0  0  0  0  0  0  0  0
   11.3870  -15.8214   23.4219 C   0  0  2  0  0  0  0  0  0  0  0  0
   11.0886  -15.8052   21.9721 N   0  0  0  0  0  0  0  0  0  0  0  0
   12.3920  -16.8797   23.6372 C   0  0  0  0  0  0  0  0  0  0  0  0
   13.3936  -16.6830   24.6106 O   0  0  0  0  0  0  0  0  0  0  0  0
   10.7786  -17.2710   26.3218 C   0  0  0  0  0  0  0  0  0  0  0  0
   11.0684  -17.3270   27.6682 C   0  0  0  0  0  0  0  0  0  0  0  0
   12.3861  -17.9544   22.9831 O   0  0  0  0  0  0  0  0  0  0  0  0
  2  1  1  1
  3  2  1  0
  4  5  2  0
  4  3  1  0
  6  5  1  0
  7 12  2  0
  7  6  1  0
  8  7  1  0
  9 10  1  0
  9  8  2  0
 10 11  2  0
 11 12  1  0
 12  4  1  0
 13  2  1  0
 14 13  2  0
 15 13  1  0
 16 22  1  0
 16 15  1  0
 16 17  1  1
 18 17  1  0
 19 18  1  0
 20 19  1  0
 21 20  1  0
 22 23  2  0
 24 25  1  0
 25 35  2  0
 26 25  1  0
 26 27  2  0
 27 28  1  0
 28 34  2  0
 28 29  1  0
 30 32  1  0
 30 29  1  1
 31 30  1  0
 31 22  1  0
 32 33  1  0
 35 34  1  0
 36 32  2  0
M  END
$$$$
