YSS.pdb
     RDKit          3D

 25 25  0  0  1  0  0  0  0  0999 V2000
    7.6211  -13.1017   16.2575 O   0  0  0  0  0  0  0  0  0  0  0  0
    7.8908  -13.4008   17.5770 C   0  0  0  0  0  0  0  0  0  0  0  0
    9.0254  -14.0661   17.9877 C   0  0  0  0  0  0  0  0  0  0  0  0
    9.2727  -14.3534   19.3109 C   0  0  0  0  0  0  0  0  0  0  0  0
    8.3650  -13.9709   20.2815 C   0  0  0  0  0  0  0  0  0  0  0  0
    8.5667  -14.2446   21.7044 C   0  0  0  0  0  0  0  0  0  0  0  0
    8.9382  -15.6532   22.0257 C   0  0  2  0  0  0  0  0  0  0  0  0
    7.9895  -16.5938   21.4688 N   0  0  0  0  0  0  0  0  0  0  0  0
    8.9694  -15.7653   23.5281 C   0  0  0  0  0  0  0  0  0  0  0  0
    9.7252  -15.0326   24.2138 O   0  0  0  0  0  0  0  0  0  0  0  0
    7.2154  -13.3005   19.8966 C   0  0  0  0  0  0  0  0  0  0  0  0
    6.9964  -13.0260   18.5505 C   0  0  0  0  0  0  0  0  0  0  0  0
    6.4653  -18.5427   25.6353 O   0  0  0  0  0  0  0  0  0  0  0  0
    6.8145  -17.3065   26.1123 C   0  0  0  0  0  0  0  0  0  0  0  0
    8.2187  -16.8938   25.6536 C   0  0  2  0  0  0  0  0  0  0  0  0
    8.1541  -16.6948   24.2291 N   0  0  0  0  0  0  0  0  0  0  0  0
    9.2224  -17.9104   26.0440 C   0  0  0  0  0  0  0  0  0  0  0  0
    9.4473  -18.9120   25.3164 O   0  0  0  0  0  0  0  0  0  0  0  0
   11.3579  -17.6321   29.7027 O   0  0  0  0  0  0  0  0  0  0  0  0
   11.9267  -18.2888   28.6133 C   0  0  0  0  0  0  0  0  0  0  0  0
   10.8646  -18.8688   27.7029 C   0  0  2  0  0  0  0  0  0  0  0  0
    9.9853  -17.8216   27.2482 N   0  0  0  0  0  0  0  0  0  0  0  0
   10.1601  -20.0006   28.3028 C   0  0  0  0  0  0  0  0  0  0  0  0
   10.7808  -21.1694   28.6847 O   0  0  0  0  0  0  0  0  0  0  0  0
    8.8992  -19.9397   28.4995 O   0  0  0  0  0  0  0  0  0  0  0  0
  1  2  1  0
  2 12  2  0
  3  4  2  0
  3  2  1  0
  4  5  1  0
  5 11  2  0
  6  5  1  0
  7  8  1  1
  7  9  1  0
  7  6  1  0
  9 10  2  0
 12 11  1  0
 13 14  1  0
 15 14  1  6
 15 17  1  0
 16  9  1  0
 16 15  1  0
 17 18  2  0
 17 22  1  0
 19 20  1  0
 21 20  1  1
 22 21  1  0
 23 21  1  0
 23 24  1  0
 25 23  2  0
M  END
$$$$
