YSS.pdb
     RDKit          3D

 25 25  0  0  1  0  0  0  0  0999 V2000
    5.4249  -10.4302   27.1856 O   0  0  0  0  0  0  0  0  0  0  0  0
    6.0302  -11.5876   26.7413 C   0  0  0  0  0  0  0  0  0  0  0  0
    5.5873  -12.8502   27.0705 C   0  0  0  0  0  0  0  0  0  0  0  0
    6.2082  -13.9909   26.6147 C   0  0  0  0  0  0  0  0  0  0  0  0
    7.3181  -13.8922   25.7958 C   0  0  0  0  0  0  0  0  0  0  0  0
    8.0244  -15.0636   25.2769 C   0  0  0  0  0  0  0  0  0  0  0  0
    7.1470  -16.1093   24.6751 C   0  0  2  0  0  0  0  0  0  0  0  0
    6.6377  -17.0188   25.6792 N   0  0  0  0  0  0  0  0  0  0  0  0
    7.9832  -16.8541   23.6667 C   0  0  0  0  0  0  0  0  0  0  0  0
    8.5182  -17.9528   23.9582 O   0  0  0  0  0  0  0  0  0  0  0  0
    7.7851  -12.6349   25.4490 C   0  0  0  0  0  0  0  0  0  0  0  0
    7.1338  -11.5024   25.9272 C   0  0  0  0  0  0  0  0  0  0  0  0
    9.4821  -14.9882   20.1754 O   0  0  0  0  0  0  0  0  0  0  0  0
    8.8918  -16.2202   20.0698 C   0  0  0  0  0  0  0  0  0  0  0  0
    9.0112  -17.0234   21.3711 C   0  0  2  0  0  0  0  0  0  0  0  0
    8.2018  -16.3525   22.3549 N   0  0  0  0  0  0  0  0  0  0  0  0
   10.4272  -17.1505   21.7858 C   0  0  0  0  0  0  0  0  0  0  0  0
   10.9940  -16.2403   22.4440 O   0  0  0  0  0  0  0  0  0  0  0  0
   12.5440  -20.7335   21.2013 O   0  0  0  0  0  0  0  0  0  0  0  0
   12.8852  -19.8738   22.2435 C   0  0  0  0  0  0  0  0  0  0  0  0
   12.5995  -18.4307   21.8840 C   0  0  2  0  0  0  0  0  0  0  0  0
   11.2256  -18.2923   21.4716 N   0  0  0  0  0  0  0  0  0  0  0  0
   13.5541  -17.8870   20.9195 C   0  0  0  0  0  0  0  0  0  0  0  0
   14.9157  -17.8611   21.1261 O   0  0  0  0  0  0  0  0  0  0  0  0
   13.1407  -17.4002   19.8130 O   0  0  0  0  0  0  0  0  0  0  0  0
  1  2  1  0
  2 12  2  0
  3  4  2  0
  3  2  1  0
  4  5  1  0
  5 11  2  0
  6  5  1  0
  7  8  1  1
  7  9  1  0
  7  6  1  0
  9 10  2  0
 12 11  1  0
 13 14  1  0
 15 14  1  6
 15 17  1  0
 16  9  1  0
 16 15  1  0
 17 18  2  0
 17 22  1  0
 19 20  1  0
 21 20  1  6
 22 21  1  0
 23 21  1  0
 23 24  1  0
 25 23  2  0
M  END
$$$$
