YSS.pdb
     RDKit          3D

 25 25  0  0  1  0  0  0  0  0999 V2000
   10.0692  -13.9862   30.3090 O   0  0  0  0  0  0  0  0  0  0  0  0
    9.8328  -14.3791   29.0078 C   0  0  0  0  0  0  0  0  0  0  0  0
   10.2632  -15.5803   28.4876 C   0  0  0  0  0  0  0  0  0  0  0  0
   10.0150  -15.9505   27.1854 C   0  0  0  0  0  0  0  0  0  0  0  0
    9.3105  -15.1037   26.3495 C   0  0  0  0  0  0  0  0  0  0  0  0
    9.0126  -15.4358   24.9562 C   0  0  0  0  0  0  0  0  0  0  0  0
    7.5659  -15.6403   24.6557 C   0  0  2  0  0  0  0  0  0  0  0  0
    6.9941  -16.6848   25.4785 N   0  0  0  0  0  0  0  0  0  0  0  0
    7.4700  -16.0080   23.1975 C   0  0  0  0  0  0  0  0  0  0  0  0
    7.5211  -17.2085   22.8305 O   0  0  0  0  0  0  0  0  0  0  0  0
    8.8658  -13.8894   26.8463 C   0  0  0  0  0  0  0  0  0  0  0  0
    9.1339  -13.5462   28.1676 C   0  0  0  0  0  0  0  0  0  0  0  0
    8.3809  -13.2155   20.1189 O   0  0  0  0  0  0  0  0  0  0  0  0
    7.2468  -13.9798   20.0337 C   0  0  0  0  0  0  0  0  0  0  0  0
    7.4009  -15.3138   20.7750 C   0  0  2  0  0  0  0  0  0  0  0  0
    7.3190  -15.0241   22.1830 N   0  0  0  0  0  0  0  0  0  0  0  0
    8.6682  -15.9828   20.4016 C   0  0  0  0  0  0  0  0  0  0  0  0
    9.7498  -15.6875   20.9727 O   0  0  0  0  0  0  0  0  0  0  0  0
    8.7613  -19.6511   18.5580 O   0  0  0  0  0  0  0  0  0  0  0  0
    9.8680  -19.1218   19.2190 C   0  0  0  0  0  0  0  0  0  0  0  0
    9.9760  -17.6268   19.0036 C   0  0  2  0  0  0  0  0  0  0  0  0
    8.7435  -16.9870   19.3888 N   0  0  0  0  0  0  0  0  0  0  0  0
   10.4150  -17.2787   17.6533 C   0  0  0  0  0  0  0  0  0  0  0  0
    9.6865  -16.4842   16.7957 O   0  0  0  0  0  0  0  0  0  0  0  0
   11.5299  -17.7163   17.2088 O   0  0  0  0  0  0  0  0  0  0  0  0
  1  2  1  0
  2 12  2  0
  3  4  2  0
  3  2  1  0
  4  5  1  0
  5 11  2  0
  6  5  1  0
  7  8  1  1
  7  9  1  0
  7  6  1  0
  9 10  2  0
 12 11  1  0
 13 14  1  0
 15 14  1  6
 15 17  1  0
 16  9  1  0
 16 15  1  0
 17 18  2  0
 17 22  1  0
 19 20  1  0
 21 20  1  6
 22 21  1  0
 23 21  1  0
 23 24  1  0
 25 23  2  0
M  END
$$$$
