YSS.pdb
     RDKit          3D

 25 25  0  0  1  0  0  0  0  0999 V2000
   10.3644  -14.2823   30.7086 O   0  0  0  0  0  0  0  0  0  0  0  0
   10.0866  -14.5957   29.3941 C   0  0  0  0  0  0  0  0  0  0  0  0
   10.3370  -15.8320   28.8395 C   0  0  0  0  0  0  0  0  0  0  0  0
   10.0511  -16.1212   27.5245 C   0  0  0  0  0  0  0  0  0  0  0  0
    9.4922  -15.1529   26.7107 C   0  0  0  0  0  0  0  0  0  0  0  0
    9.1639  -15.3942   25.3056 C   0  0  0  0  0  0  0  0  0  0  0  0
    7.7366  -15.7417   25.0458 C   0  0  2  0  0  0  0  0  0  0  0  0
    7.3268  -16.9068   25.8005 N   0  0  0  0  0  0  0  0  0  0  0  0
    7.6126  -16.0030   23.5669 C   0  0  0  0  0  0  0  0  0  0  0  0
    7.6626  -17.1732   23.1124 O   0  0  0  0  0  0  0  0  0  0  0  0
    9.2299  -13.9008   27.2424 C   0  0  0  0  0  0  0  0  0  0  0  0
    9.5312  -13.6419   28.5757 C   0  0  0  0  0  0  0  0  0  0  0  0
    7.6286  -13.7514   19.2238 O   0  0  0  0  0  0  0  0  0  0  0  0
    7.3895  -13.7320   20.5729 C   0  0  0  0  0  0  0  0  0  0  0  0
    7.5931  -15.1130   21.2083 C   0  0  2  0  0  0  0  0  0  0  0  0
    7.4355  -14.9489   22.6301 N   0  0  0  0  0  0  0  0  0  0  0  0
    8.9130  -15.6749   20.8404 C   0  0  0  0  0  0  0  0  0  0  0  0
    9.9736  -15.2194   21.3409 O   0  0  0  0  0  0  0  0  0  0  0  0
    9.2902  -19.3834   19.0420 O   0  0  0  0  0  0  0  0  0  0  0  0
   10.3577  -18.7831   19.7066 C   0  0  0  0  0  0  0  0  0  0  0  0
   10.3467  -17.2800   19.5229 C   0  0  2  0  0  0  0  0  0  0  0  0
    9.0644  -16.7493   19.9116 N   0  0  0  0  0  0  0  0  0  0  0  0
   10.7646  -16.8693   18.1836 C   0  0  0  0  0  0  0  0  0  0  0  0
   10.0023  -16.0730   17.3577 O   0  0  0  0  0  0  0  0  0  0  0  0
   11.8922  -17.2499   17.7190 O   0  0  0  0  0  0  0  0  0  0  0  0
  1  2  1  0
  2 12  2  0
  3  4  2  0
  3  2  1  0
  4  5  1  0
  5 11  2  0
  6  5  1  0
  7  8  1  1
  7  9  1  0
  7  6  1  0
  9 10  2  0
 12 11  1  0
 13 14  1  0
 15 14  1  6
 15 17  1  0
 16  9  1  0
 16 15  1  0
 17 18  2  0
 17 22  1  0
 19 20  1  0
 21 20  1  6
 22 21  1  0
 23 21  1  0
 23 24  1  0
 25 23  2  0
M  END
$$$$
