YSS.pdb
     RDKit          3D

 25 25  0  0  1  0  0  0  0  0999 V2000
    5.7174  -10.8194   28.4129 O   0  0  0  0  0  0  0  0  0  0  0  0
    6.1899  -11.7870   27.5505 C   0  0  0  0  0  0  0  0  0  0  0  0
    5.5078  -12.2009   26.4270 C   0  0  0  0  0  0  0  0  0  0  0  0
    5.9999  -13.1687   25.5810 C   0  0  0  0  0  0  0  0  0  0  0  0
    7.2205  -13.7618   25.8468 C   0  0  0  0  0  0  0  0  0  0  0  0
    7.8006  -14.7955   24.9893 C   0  0  0  0  0  0  0  0  0  0  0  0
    6.8223  -15.7830   24.4478 C   0  0  2  0  0  0  0  0  0  0  0  0
    6.4456  -16.7609   25.4462 N   0  0  0  0  0  0  0  0  0  0  0  0
    7.4859  -16.4577   23.2752 C   0  0  0  0  0  0  0  0  0  0  0  0
    7.9416  -17.6241   23.3755 O   0  0  0  0  0  0  0  0  0  0  0  0
    7.9278  -13.3648   26.9698 C   0  0  0  0  0  0  0  0  0  0  0  0
    7.4015  -12.3837   27.8040 C   0  0  0  0  0  0  0  0  0  0  0  0
    8.7983  -14.2628   19.9314 O   0  0  0  0  0  0  0  0  0  0  0  0
    8.1238  -15.4347   19.7094 C   0  0  0  0  0  0  0  0  0  0  0  0
    8.2764  -16.4118   20.8818 C   0  0  2  0  0  0  0  0  0  0  0  0
    7.6246  -15.8117   22.0167 N   0  0  0  0  0  0  0  0  0  0  0  0
    9.7038  -16.7138   21.1359 C   0  0  0  0  0  0  0  0  0  0  0  0
   10.3677  -16.0498   21.9734 O   0  0  0  0  0  0  0  0  0  0  0  0
   11.2024  -20.1281   21.7002 O   0  0  0  0  0  0  0  0  0  0  0  0
   12.0221  -19.5353   20.7419 C   0  0  0  0  0  0  0  0  0  0  0  0
   11.8023  -18.0383   20.6781 C   0  0  2  0  0  0  0  0  0  0  0  0
   10.4057  -17.7580   20.4599 N   0  0  0  0  0  0  0  0  0  0  0  0
   12.6854  -17.3758   19.7199 C   0  0  0  0  0  0  0  0  0  0  0  0
   14.0591  -17.3776   19.8215 O   0  0  0  0  0  0  0  0  0  0  0  0
   12.1932  -16.7507   18.7203 O   0  0  0  0  0  0  0  0  0  0  0  0
  1  2  1  0
  2 12  2  0
  3  4  2  0
  3  2  1  0
  4  5  1  0
  5 11  2  0
  6  5  1  0
  7  8  1  1
  7  9  1  0
  7  6  1  0
  9 10  2  0
 12 11  1  0
 13 14  1  0
 15 14  1  6
 15 17  1  0
 16  9  1  0
 16 15  1  0
 17 18  2  0
 17 22  1  0
 19 20  1  0
 21 20  1  6
 22 21  1  0
 23 21  1  0
 23 24  1  0
 25 23  2  0
M  END
$$$$
