YSS.pdb
     RDKit          3D

 25 25  0  0  1  0  0  0  0  0999 V2000
    9.8127  -13.8888   30.5828 O   0  0  0  0  0  0  0  0  0  0  0  0
   10.1743  -14.5250   29.4133 C   0  0  0  0  0  0  0  0  0  0  0  0
   10.9154  -15.6862   29.3788 C   0  0  0  0  0  0  0  0  0  0  0  0
   11.2642  -16.3029   28.1988 C   0  0  0  0  0  0  0  0  0  0  0  0
   10.8684  -15.7569   26.9915 C   0  0  0  0  0  0  0  0  0  0  0  0
   11.2048  -16.3612   25.7024 C   0  0  0  0  0  0  0  0  0  0  0  0
   10.2552  -17.4128   25.2358 C   0  0  2  0  0  0  0  0  0  0  0  0
   10.0579  -18.4353   26.2410 N   0  0  0  0  0  0  0  0  0  0  0  0
   10.8461  -18.0117   23.9856 C   0  0  0  0  0  0  0  0  0  0  0  0
   11.5897  -19.0226   24.0441 O   0  0  0  0  0  0  0  0  0  0  0  0
   10.1223  -14.5897   26.9967 C   0  0  0  0  0  0  0  0  0  0  0  0
    9.7870  -13.9921   28.2074 C   0  0  0  0  0  0  0  0  0  0  0  0
   10.6413  -16.0060   20.2481 O   0  0  0  0  0  0  0  0  0  0  0  0
   10.3785  -17.3488   20.3200 C   0  0  0  0  0  0  0  0  0  0  0  0
   11.1278  -18.0155   21.4804 C   0  0  2  0  0  0  0  0  0  0  0  0
   10.5914  -17.4658   22.6982 N   0  0  0  0  0  0  0  0  0  0  0  0
   12.5888  -17.8087   21.3546 C   0  0  0  0  0  0  0  0  0  0  0  0
   13.1382  -16.7719   21.8088 O   0  0  0  0  0  0  0  0  0  0  0  0
   15.1163  -20.9154   20.1732 O   0  0  0  0  0  0  0  0  0  0  0  0
   15.5972  -19.8519   20.9345 C   0  0  0  0  0  0  0  0  0  0  0  0
   14.8754  -18.5634   20.5998 C   0  0  2  0  0  0  0  0  0  0  0  0
   13.4522  -18.7543   20.7219 N   0  0  0  0  0  0  0  0  0  0  0  0
   15.2792  -18.0057   19.3103 C   0  0  0  0  0  0  0  0  0  0  0  0
   16.5814  -17.6916   18.9895 O   0  0  0  0  0  0  0  0  0  0  0  0
   14.4048  -17.7834   18.4057 O   0  0  0  0  0  0  0  0  0  0  0  0
  1  2  1  0
  2 12  2  0
  3  4  2  0
  3  2  1  0
  4  5  1  0
  5 11  2  0
  6  5  1  0
  7  8  1  1
  7  9  1  0
  7  6  1  0
  9 10  2  0
 12 11  1  0
 13 14  1  0
 15 14  1  6
 15 17  1  0
 16  9  1  0
 16 15  1  0
 17 18  2  0
 17 22  1  0
 19 20  1  0
 21 20  1  6
 22 21  1  0
 23 21  1  0
 23 24  1  0
 25 23  2  0
M  END
$$$$
