YSS.pdb
     RDKit          3D

 25 25  0  0  1  0  0  0  0  0999 V2000
    5.9902  -10.7803   28.4047 O   0  0  0  0  0  0  0  0  0  0  0  0
    6.4394  -11.7138   27.4935 C   0  0  0  0  0  0  0  0  0  0  0  0
    5.7080  -12.1179   26.3979 C   0  0  0  0  0  0  0  0  0  0  0  0
    6.1776  -13.0515   25.5021 C   0  0  0  0  0  0  0  0  0  0  0  0
    7.4252  -13.6185   25.6868 C   0  0  0  0  0  0  0  0  0  0  0  0
    7.9837  -14.6154   24.7732 C   0  0  0  0  0  0  0  0  0  0  0  0
    7.0593  -15.7323   24.4224 C   0  0  2  0  0  0  0  0  0  0  0  0
    6.7933  -16.5812   25.5641 N   0  0  0  0  0  0  0  0  0  0  0  0
    7.7240  -16.5214   23.3241 C   0  0  0  0  0  0  0  0  0  0  0  0
    8.4183  -17.5347   23.5876 O   0  0  0  0  0  0  0  0  0  0  0  0
    8.1822  -13.2305   26.7802 C   0  0  0  0  0  0  0  0  0  0  0  0
    7.6774  -12.2842   27.6664 C   0  0  0  0  0  0  0  0  0  0  0  0
    8.0964  -14.9682   19.3367 O   0  0  0  0  0  0  0  0  0  0  0  0
    7.7510  -16.2730   19.5729 C   0  0  0  0  0  0  0  0  0  0  0  0
    8.3369  -16.7883   20.8934 C   0  0  2  0  0  0  0  0  0  0  0  0
    7.5967  -16.1585   21.9557 N   0  0  0  0  0  0  0  0  0  0  0  0
    9.7904  -16.5150   20.9692 C   0  0  0  0  0  0  0  0  0  0  0  0
   10.2230  -15.4375   21.4538 O   0  0  0  0  0  0  0  0  0  0  0  0
   12.6006  -18.6219   23.4411 O   0  0  0  0  0  0  0  0  0  0  0  0
   11.5021  -18.2884   22.6513 C   0  0  0  0  0  0  0  0  0  0  0  0
   11.9333  -17.8107   21.2805 C   0  0  2  0  0  0  0  0  0  0  0  0
   10.7763  -17.4388   20.5059 N   0  0  0  0  0  0  0  0  0  0  0  0
   12.8092  -18.7616   20.5981 C   0  0  0  0  0  0  0  0  0  0  0  0
   14.0895  -18.4608   20.1888 O   0  0  0  0  0  0  0  0  0  0  0  0
   12.4000  -19.9463   20.3503 O   0  0  0  0  0  0  0  0  0  0  0  0
  1  2  1  0
  2 12  2  0
  3  4  2  0
  3  2  1  0
  4  5  1  0
  5 11  2  0
  6  5  1  0
  7  8  1  1
  7  9  1  0
  7  6  1  0
  9 10  2  0
 12 11  1  0
 13 14  1  0
 15 14  1  6
 15 17  1  0
 16  9  1  0
 16 15  1  0
 17 18  2  0
 17 22  1  0
 19 20  1  0
 21 20  1  1
 22 21  1  0
 23 21  1  0
 23 24  1  0
 25 23  2  0
M  END
$$$$
