NIW.pdb
     RDKit          3D

 31 32  0  0  1  0  0  0  0  0999 V2000
   16.5914   -2.1858  -16.6006 N   0  0  0  0  0  0  0  0  0  0  0  0
   15.6037   -3.1087  -16.1905 C   0  0  0  0  0  0  0  0  0  0  0  0
   14.4172   -2.6740  -16.0654 O   0  0  0  0  0  0  0  0  0  0  0  0
   15.9378   -4.5095  -15.9213 C   0  0  0  0  0  0  0  0  0  0  0  0
   17.4107   -4.7450  -16.1963 C   0  0  2  0  0  0  0  0  0  0  0  0
   17.6980   -4.7300  -17.5957 N   0  0  0  0  0  0  0  0  0  0  0  0
   17.8846   -5.9980  -15.5329 C   0  0  0  0  0  0  0  0  0  0  0  0
   17.7919   -7.1134  -16.1185 O   0  0  0  0  0  0  0  0  0  0  0  0
   22.3034   -5.8293  -12.7745 C   0  0  0  0  0  0  0  0  0  0  0  0
   21.0820   -6.2011  -13.6062 C   0  0  0  0  0  0  0  0  0  0  0  0
   20.1295   -7.0467  -12.8353 C   0  0  2  0  0  0  0  0  0  0  0  0
   20.7693   -8.2815  -12.2603 C   0  0  0  0  0  0  0  0  0  0  0  0
   18.8702   -7.2771  -13.5897 C   0  0  2  0  0  0  0  0  0  0  0  0
   18.4564   -6.0157  -14.2320 N   0  0  0  0  0  0  0  0  0  0  0  0
   17.7530   -7.8474  -12.8052 C   0  0  0  0  0  0  0  0  0  0  0  0
   17.2058   -8.9135  -13.1845 O   0  0  0  0  0  0  0  0  0  0  0  0
   17.2642   -7.2438  -11.6340 N   0  0  0  0  0  0  0  0  0  0  0  0
   16.0199   -7.6964  -10.9872 C   0  0  1  0  0  0  0  0  0  0  0  0
   16.1308   -7.5661   -9.5177 C   0  0  0  0  0  0  0  0  0  0  0  0
   14.9518   -7.7768   -8.6981 C   0  0  0  0  0  0  0  0  0  0  0  0
   14.2567   -8.9707   -8.5244 C   0  0  0  0  0  0  0  0  0  0  0  0
   13.2285   -8.7021   -7.7171 N   0  0  0  0  0  0  0  0  0  0  0  0
   13.2305   -7.3990   -7.3651 C   0  0  0  0  0  0  0  0  0  0  0  0
   12.3716   -6.6835   -6.5412 C   0  0  0  0  0  0  0  0  0  0  0  0
   12.6425   -5.3476   -6.3548 C   0  0  0  0  0  0  0  0  0  0  0  0
   13.7087   -4.7226   -6.9452 C   0  0  0  0  0  0  0  0  0  0  0  0
   14.5519   -5.4361   -7.7581 C   0  0  0  0  0  0  0  0  0  0  0  0
   14.3044   -6.7887   -7.9668 C   0  0  0  0  0  0  0  0  0  0  0  0
   14.8586   -7.1346  -11.6510 C   0  0  0  0  0  0  0  0  0  0  0  0
   14.7488   -5.8192  -12.0769 O   0  0  0  0  0  0  0  0  0  0  0  0
   13.8157   -7.8421  -11.8934 O   0  0  0  0  0  0  0  0  0  0  0  0
  2  3  2  0
  2  1  1  0
  4  2  1  0
  5  6  1  6
  5  4  1  0
  7  8  2  0
  7  5  1  0
  9 10  1  0
 10 11  1  0
 11 12  1  6
 13 11  1  0
 13 14  1  1
 14  7  1  0
 15 13  1  0
 16 15  2  0
 17 15  1  0
 18 29  1  0
 18 17  1  0
 18 19  1  1
 20 19  1  0
 21 20  2  0
 22 21  1  0
 23 22  1  0
 23 28  2  0
 24 23  1  0
 25 24  2  0
 25 26  1  0
 26 27  2  0
 27 28  1  0
 28 20  1  0
 29 30  1  0
 31 29  2  0
M  END
$$$$
