NIW.pdb
     RDKit          3D

 31 32  0  0  1  0  0  0  0  0999 V2000
   28.4855  -19.2628  -18.2377 N   0  0  0  0  0  0  0  0  0  0  0  0
   27.8266  -20.4614  -18.5908 C   0  0  0  0  0  0  0  0  0  0  0  0
   28.0859  -20.9535  -19.7323 O   0  0  0  0  0  0  0  0  0  0  0  0
   26.8833  -21.1079  -17.6752 C   0  0  0  0  0  0  0  0  0  0  0  0
   27.5527  -21.3431  -16.3347 C   0  0  2  0  0  0  0  0  0  0  0  0
   28.5835  -22.3286  -16.4222 N   0  0  0  0  0  0  0  0  0  0  0  0
   26.5423  -21.6706  -15.2827 C   0  0  0  0  0  0  0  0  0  0  0  0
   25.8419  -22.7187  -15.3641 O   0  0  0  0  0  0  0  0  0  0  0  0
   25.6227  -20.9244   -9.2969 C   0  0  0  0  0  0  0  0  0  0  0  0
   25.0417  -21.3024  -10.6538 C   0  0  0  0  0  0  0  0  0  0  0  0
   25.9580  -20.9298  -11.7665 C   0  0  2  0  0  0  0  0  0  0  0  0
   26.5256  -19.5434  -11.6239 C   0  0  0  0  0  0  0  0  0  0  0  0
   25.3607  -21.2378  -13.0918 C   0  0  2  0  0  0  0  0  0  0  0  0
   26.3093  -20.8443  -14.1502 N   0  0  0  0  0  0  0  0  0  0  0  0
   24.0299  -20.6429  -13.3445 C   0  0  0  0  0  0  0  0  0  0  0  0
   23.9340  -19.4155  -13.5976 O   0  0  0  0  0  0  0  0  0  0  0  0
   22.8448  -21.3977  -13.3146 N   0  0  0  0  0  0  0  0  0  0  0  0
   21.5351  -20.8015  -13.6322 C   0  0  1  0  0  0  0  0  0  0  0  0
   21.4790  -20.4216  -15.0609 C   0  0  0  0  0  0  0  0  0  0  0  0
   20.2453  -19.8811  -15.6010 C   0  0  0  0  0  0  0  0  0  0  0  0
   19.7198  -18.6114  -15.3764 C   0  0  0  0  0  0  0  0  0  0  0  0
   18.5637  -18.5517  -16.0403 N   0  0  0  0  0  0  0  0  0  0  0  0
   18.3231  -19.7166  -16.6783 C   0  0  0  0  0  0  0  0  0  0  0  0
   17.2637  -20.1015  -17.4894 C   0  0  0  0  0  0  0  0  0  0  0  0
   17.3038  -21.3698  -18.0211 C   0  0  0  0  0  0  0  0  0  0  0  0
   18.3342  -22.2386  -17.7773 C   0  0  0  0  0  0  0  0  0  0  0  0
   19.3765  -21.8512  -16.9745 C   0  0  0  0  0  0  0  0  0  0  0  0
   19.3647  -20.5751  -16.4215 C   0  0  0  0  0  0  0  0  0  0  0  0
   20.4566  -21.5999  -13.0805 C   0  0  0  0  0  0  0  0  0  0  0  0
   19.2142  -21.1059  -12.7114 O   0  0  0  0  0  0  0  0  0  0  0  0
   20.5865  -22.8617  -12.8860 O   0  0  0  0  0  0  0  0  0  0  0  0
  2  3  2  0
  2  1  1  0
  4  2  1  0
  5  6  1  6
  5  4  1  0
  7  8  2  0
  7  5  1  0
  9 10  1  0
 10 11  1  0
 11 12  1  6
 13 11  1  0
 13 14  1  6
 14  7  1  0
 15 13  1  0
 16 15  2  0
 17 15  1  0
 18 29  1  0
 18 17  1  0
 18 19  1  6
 20 19  1  0
 21 20  2  0
 22 21  1  0
 23 22  1  0
 23 28  2  0
 24 23  1  0
 25 24  2  0
 25 26  1  0
 26 27  2  0
 27 28  1  0
 28 20  1  0
 29 30  1  0
 31 29  2  0
M  END
$$$$
