NIW.pdb
     RDKit          3D

 31 32  0  0  1  0  0  0  0  0999 V2000
   28.6876  -17.0643  -17.0010 N   0  0  0  0  0  0  0  0  0  0  0  0
   27.6353  -17.9881  -17.1872 C   0  0  0  0  0  0  0  0  0  0  0  0
   27.0667  -18.0014  -18.3225 O   0  0  0  0  0  0  0  0  0  0  0  0
   27.2193  -18.8926  -16.1125 C   0  0  0  0  0  0  0  0  0  0  0  0
   28.3278  -19.8870  -15.8243 C   0  0  2  0  0  0  0  0  0  0  0  0
   28.5354  -20.7817  -16.9187 N   0  0  0  0  0  0  0  0  0  0  0  0
   28.0770  -20.6098  -14.5401 C   0  0  0  0  0  0  0  0  0  0  0  0
   27.2453  -21.5590  -14.4851 O   0  0  0  0  0  0  0  0  0  0  0  0
   31.9021  -21.7300  -10.9866 C   0  0  0  0  0  0  0  0  0  0  0  0
   30.5891  -21.8441  -11.7513 C   0  0  0  0  0  0  0  0  0  0  0  0
   29.5313  -20.9808  -11.1580 C   0  0  2  0  0  0  0  0  0  0  0  0
   29.2386  -21.3114   -9.7193 C   0  0  0  0  0  0  0  0  0  0  0  0
   28.3412  -20.8894  -12.0429 C   0  0  2  0  0  0  0  0  0  0  0  0
   28.7415  -20.2841  -13.3268 N   0  0  0  0  0  0  0  0  0  0  0  0
   27.1785  -20.1723  -11.4747 C   0  0  0  0  0  0  0  0  0  0  0  0
   26.9768  -18.9704  -11.7821 O   0  0  0  0  0  0  0  0  0  0  0  0
   26.2711  -20.7811  -10.5910 N   0  0  0  0  0  0  0  0  0  0  0  0
   25.0872  -20.0683  -10.0791 C   0  0  1  0  0  0  0  0  0  0  0  0
   24.2911  -19.5267  -11.2022 C   0  0  0  0  0  0  0  0  0  0  0  0
   23.0539  -20.1872  -11.5754 C   0  0  0  0  0  0  0  0  0  0  0  0
   21.9769  -20.4776  -10.7421 C   0  0  0  0  0  0  0  0  0  0  0  0
   21.0723  -21.1113  -11.4910 N   0  0  0  0  0  0  0  0  0  0  0  0
   21.5145  -21.2406  -12.7598 C   0  0  0  0  0  0  0  0  0  0  0  0
   20.9132  -21.8125  -13.8733 C   0  0  0  0  0  0  0  0  0  0  0  0
   21.6143  -21.7791  -15.0565 C   0  0  0  0  0  0  0  0  0  0  0  0
   22.8565  -21.2116  -15.1612 C   0  0  0  0  0  0  0  0  0  0  0  0
   23.4439  -20.6495  -14.0567 C   0  0  0  0  0  0  0  0  0  0  0  0
   22.7605  -20.6679  -12.8454 C   0  0  0  0  0  0  0  0  0  0  0  0
   24.4129  -20.8515   -9.0608 C   0  0  0  0  0  0  0  0  0  0  0  0
   23.4787  -20.3511   -8.1661 O   0  0  0  0  0  0  0  0  0  0  0  0
   24.6478  -22.1043   -8.9117 O   0  0  0  0  0  0  0  0  0  0  0  0
  2  3  2  0
  2  1  1  0
  4  2  1  0
  5  6  1  6
  5  4  1  0
  7  8  2  0
  7  5  1  0
  9 10  1  0
 10 11  1  0
 11 12  1  1
 13 11  1  0
 13 14  1  6
 14  7  1  0
 15 13  1  0
 16 15  2  0
 17 15  1  0
 18 29  1  0
 18 17  1  0
 18 19  1  6
 20 19  1  0
 21 20  2  0
 22 21  1  0
 23 22  1  0
 23 28  2  0
 24 23  1  0
 25 24  2  0
 25 26  1  0
 26 27  2  0
 27 28  1  0
 28 20  1  0
 29 30  1  0
 31 29  2  0
M  END
$$$$
