NIW.pdb
     RDKit          3D

 31 32  0  0  1  0  0  0  0  0999 V2000
   25.3641  -24.9888  -18.1481 N   0  0  0  0  0  0  0  0  0  0  0  0
   25.4180  -25.3311  -16.7787 C   0  0  0  0  0  0  0  0  0  0  0  0
   24.6952  -26.3009  -16.3923 O   0  0  0  0  0  0  0  0  0  0  0  0
   26.2740  -24.5952  -15.8448 C   0  0  0  0  0  0  0  0  0  0  0  0
   26.8797  -23.3941  -16.5455 C   0  0  2  0  0  0  0  0  0  0  0  0
   27.8849  -23.7793  -17.4849 N   0  0  0  0  0  0  0  0  0  0  0  0
   27.3824  -22.3944  -15.5543 C   0  0  0  0  0  0  0  0  0  0  0  0
   28.5247  -22.5226  -15.0305 O   0  0  0  0  0  0  0  0  0  0  0  0
   27.7476  -17.3177  -16.2778 C   0  0  0  0  0  0  0  0  0  0  0  0
   27.8897  -18.7355  -15.7379 C   0  0  0  0  0  0  0  0  0  0  0  0
   27.0218  -18.9599  -14.5493 C   0  0  2  0  0  0  0  0  0  0  0  0
   27.1980  -17.9116  -13.4841 C   0  0  0  0  0  0  0  0  0  0  0  0
   27.0989  -20.3660  -14.0749 C   0  0  2  0  0  0  0  0  0  0  0  0
   26.6265  -21.2621  -15.1466 N   0  0  0  0  0  0  0  0  0  0  0  0
   26.3847  -20.6518  -12.8111 C   0  0  0  0  0  0  0  0  0  0  0  0
   25.1307  -20.7362  -12.8095 O   0  0  0  0  0  0  0  0  0  0  0  0
   27.0529  -20.8370  -11.5887 N   0  0  0  0  0  0  0  0  0  0  0  0
   26.3217  -20.9876  -10.3181 C   0  0  1  0  0  0  0  0  0  0  0  0
   27.2718  -21.1899   -9.2022 C   0  0  0  0  0  0  0  0  0  0  0  0
   26.8208  -20.9692   -7.8406 C   0  0  0  0  0  0  0  0  0  0  0  0
   25.5467  -21.2086   -7.3327 C   0  0  0  0  0  0  0  0  0  0  0  0
   25.5690  -20.8386   -6.0507 N   0  0  0  0  0  0  0  0  0  0  0  0
   26.7910  -20.3758   -5.7124 C   0  0  0  0  0  0  0  0  0  0  0  0
   27.2746  -19.9011   -4.5003 C   0  0  0  0  0  0  0  0  0  0  0  0
   28.5923  -19.5081   -4.4566 C   0  0  0  0  0  0  0  0  0  0  0  0
   29.4168  -19.5715   -5.5485 C   0  0  0  0  0  0  0  0  0  0  0  0
   28.9314  -20.0409   -6.7422 C   0  0  0  0  0  0  0  0  0  0  0  0
   27.6029  -20.4454   -6.8187 C   0  0  0  0  0  0  0  0  0  0  0  0
   25.2991  -19.9670  -10.1863 C   0  0  0  0  0  0  0  0  0  0  0  0
   23.9931  -20.2017   -9.7826 O   0  0  0  0  0  0  0  0  0  0  0  0
   25.5425  -18.7345  -10.4483 O   0  0  0  0  0  0  0  0  0  0  0  0
  2  3  2  0
  2  1  1  0
  4  2  1  0
  5  6  1  1
  5  4  1  0
  7  8  2  0
  7  5  1  0
  9 10  1  0
 10 11  1  0
 11 12  1  1
 13 11  1  0
 13 14  1  6
 14  7  1  0
 15 13  1  0
 16 15  2  0
 17 15  1  0
 18 29  1  0
 18 17  1  0
 18 19  1  1
 20 19  1  0
 21 20  2  0
 22 21  1  0
 23 22  1  0
 23 28  2  0
 24 23  1  0
 25 24  2  0
 25 26  1  0
 26 27  2  0
 27 28  1  0
 28 20  1  0
 29 30  1  0
 31 29  2  0
M  END
$$$$
