NIW.pdb
     RDKit          3D

 31 32  0  0  1  0  0  0  0  0999 V2000
   26.0755  -24.4180  -15.9647 N   0  0  0  0  0  0  0  0  0  0  0  0
   26.3269  -23.0789  -16.3375 C   0  0  0  0  0  0  0  0  0  0  0  0
   26.7871  -22.8760  -17.5034 O   0  0  0  0  0  0  0  0  0  0  0  0
   26.0663  -21.9716  -15.4144 C   0  0  0  0  0  0  0  0  0  0  0  0
   24.5702  -21.7944  -15.2391 C   0  0  2  0  0  0  0  0  0  0  0  0
   23.9667  -21.2071  -16.3933 N   0  0  0  0  0  0  0  0  0  0  0  0
   24.2649  -21.0329  -13.9894 C   0  0  0  0  0  0  0  0  0  0  0  0
   24.5554  -19.8073  -13.8928 O   0  0  0  0  0  0  0  0  0  0  0  0
   19.5501  -20.9393  -12.0001 C   0  0  0  0  0  0  0  0  0  0  0  0
   21.0058  -20.6880  -12.3740 C   0  0  0  0  0  0  0  0  0  0  0  0
   21.9281  -21.0481  -11.2623 C   0  0  2  0  0  0  0  0  0  0  0  0
   21.5216  -20.4512   -9.9420 C   0  0  0  0  0  0  0  0  0  0  0  0
   23.3493  -20.8389  -11.6426 C   0  0  2  0  0  0  0  0  0  0  0  0
   23.6431  -21.6235  -12.8562 N   0  0  0  0  0  0  0  0  0  0  0  0
   24.3415  -21.1329  -10.5852 C   0  0  0  0  0  0  0  0  0  0  0  0
   24.7613  -22.3079  -10.4341 O   0  0  0  0  0  0  0  0  0  0  0  0
   24.8473  -20.1434   -9.7250 N   0  0  0  0  0  0  0  0  0  0  0  0
   25.8191  -20.4591   -8.6631 C   0  0  1  0  0  0  0  0  0  0  0  0
   27.1278  -20.8119   -9.2559 C   0  0  0  0  0  0  0  0  0  0  0  0
   28.3145  -20.7776   -8.4213 C   0  0  0  0  0  0  0  0  0  0  0  0
   29.6318  -20.9617   -8.8330 C   0  0  0  0  0  0  0  0  0  0  0  0
   30.3911  -20.8772   -7.7389 N   0  0  0  0  0  0  0  0  0  0  0  0
   29.6281  -20.6481   -6.6493 C   0  0  0  0  0  0  0  0  0  0  0  0
   29.9815  -20.4776   -5.3172 C   0  0  0  0  0  0  0  0  0  0  0  0
   28.9663  -20.2379   -4.4202 C   0  0  0  0  0  0  0  0  0  0  0  0
   27.6516  -20.1651   -4.7975 C   0  0  0  0  0  0  0  0  0  0  0  0
   27.3106  -20.3353   -6.1150 C   0  0  0  0  0  0  0  0  0  0  0  0
   28.3144  -20.5797   -7.0462 C   0  0  0  0  0  0  0  0  0  0  0  0
   25.7769  -19.4612   -7.6108 C   0  0  0  0  0  0  0  0  0  0  0  0
   26.5613  -18.3179   -7.5715 O   0  0  0  0  0  0  0  0  0  0  0  0
   24.9852  -19.5761   -6.6074 O   0  0  0  0  0  0  0  0  0  0  0  0
  2  3  2  0
  2  1  1  0
  4  2  1  0
  5  6  1  6
  5  4  1  0
  7  8  2  0
  7  5  1  0
  9 10  1  0
 10 11  1  0
 11 12  1  1
 13 11  1  0
 13 14  1  6
 14  7  1  0
 15 13  1  0
 16 15  2  0
 17 15  1  0
 18 29  1  0
 18 17  1  0
 18 19  1  6
 20 19  1  0
 21 20  2  0
 22 21  1  0
 23 22  1  0
 23 28  2  0
 24 23  1  0
 25 24  2  0
 25 26  1  0
 26 27  2  0
 27 28  1  0
 28 20  1  0
 29 30  1  0
 31 29  2  0
M  END
$$$$
