NIW.pdb
     RDKit          3D

 31 32  0  0  1  0  0  0  0  0999 V2000
   25.7376  -26.1572  -15.9525 N   0  0  0  0  0  0  0  0  0  0  0  0
   26.7364  -25.5784  -16.7667 C   0  0  0  0  0  0  0  0  0  0  0  0
   26.8096  -25.9771  -17.9700 O   0  0  0  0  0  0  0  0  0  0  0  0
   27.6489  -24.5599  -16.2412 C   0  0  0  0  0  0  0  0  0  0  0  0
   27.1018  -23.1784  -16.5453 C   0  0  2  0  0  0  0  0  0  0  0  0
   27.4827  -22.7319  -17.8479 N   0  0  0  0  0  0  0  0  0  0  0  0
   27.4844  -22.2050  -15.4772 C   0  0  0  0  0  0  0  0  0  0  0  0
   28.6984  -22.0040  -15.1915 O   0  0  0  0  0  0  0  0  0  0  0  0
   24.6526  -17.6051  -14.6355 C   0  0  0  0  0  0  0  0  0  0  0  0
   25.0693  -19.0214  -14.2586 C   0  0  0  0  0  0  0  0  0  0  0  0
   26.5448  -19.1347  -14.0960 C   0  0  2  0  0  0  0  0  0  0  0  0
   27.3118  -18.5607  -15.2566 C   0  0  0  0  0  0  0  0  0  0  0  0
   26.9452  -20.5059  -13.6867 C   0  0  2  0  0  0  0  0  0  0  0  0
   26.5308  -21.4603  -14.7318 N   0  0  0  0  0  0  0  0  0  0  0  0
   26.4526  -20.9447  -12.3624 C   0  0  0  0  0  0  0  0  0  0  0  0
   25.5017  -21.7635  -12.2915 O   0  0  0  0  0  0  0  0  0  0  0  0
   27.0067  -20.4818  -11.1567 N   0  0  0  0  0  0  0  0  0  0  0  0
   26.4242  -20.8309   -9.8489 C   0  0  1  0  0  0  0  0  0  0  0  0
   27.3708  -20.4974   -8.7620 C   0  0  0  0  0  0  0  0  0  0  0  0
   26.9258  -20.5890   -7.3837 C   0  0  0  0  0  0  0  0  0  0  0  0
   25.7346  -21.1450   -6.9249 C   0  0  0  0  0  0  0  0  0  0  0  0
   25.7239  -20.9893   -5.5996 N   0  0  0  0  0  0  0  0  0  0  0  0
   26.8464  -20.3635   -5.1871 C   0  0  0  0  0  0  0  0  0  0  0  0
   27.2670  -20.0074   -3.9124 C   0  0  0  0  0  0  0  0  0  0  0  0
   28.4881  -19.3834   -3.8017 C   0  0  0  0  0  0  0  0  0  0  0  0
   29.2779  -19.1119   -4.8873 C   0  0  0  0  0  0  0  0  0  0  0  0
   28.8552  -19.4661   -6.1430 C   0  0  0  0  0  0  0  0  0  0  0  0
   27.6247  -20.0981   -6.2879 C   0  0  0  0  0  0  0  0  0  0  0  0
   25.0557  -20.3591   -9.7503 C   0  0  0  0  0  0  0  0  0  0  0  0
   23.9942  -21.1048   -9.2594 O   0  0  0  0  0  0  0  0  0  0  0  0
   24.7232  -19.1788  -10.1287 O   0  0  0  0  0  0  0  0  0  0  0  0
  2  3  2  0
  2  1  1  0
  4  2  1  0
  5  6  1  6
  5  4  1  0
  7  8  2  0
  7  5  1  0
  9 10  1  0
 10 11  1  0
 11 12  1  6
 13 11  1  0
 13 14  1  6
 14  7  1  0
 15 13  1  0
 16 15  2  0
 17 15  1  0
 18 29  1  0
 18 17  1  0
 18 19  1  1
 20 19  1  0
 21 20  2  0
 22 21  1  0
 23 22  1  0
 23 28  2  0
 24 23  1  0
 25 24  2  0
 25 26  1  0
 26 27  2  0
 27 28  1  0
 28 20  1  0
 29 30  1  0
 31 29  2  0
M  END
$$$$
