NIW.pdb
     RDKit          3D

 31 32  0  0  1  0  0  0  0  0999 V2000
   27.5794  -14.1179  -15.4403 N   0  0  0  0  0  0  0  0  0  0  0  0
   27.6274  -15.5286  -15.4950 C   0  0  0  0  0  0  0  0  0  0  0  0
   28.3300  -16.0517  -16.4143 O   0  0  0  0  0  0  0  0  0  0  0  0
   26.8954  -16.3517  -14.5291 C   0  0  0  0  0  0  0  0  0  0  0  0
   26.3475  -17.5852  -15.2211 C   0  0  2  0  0  0  0  0  0  0  0  0
   25.3678  -17.2500  -16.2055 N   0  0  0  0  0  0  0  0  0  0  0  0
   25.8351  -18.5741  -14.2240 C   0  0  0  0  0  0  0  0  0  0  0  0
   24.8575  -18.2897  -13.4762 O   0  0  0  0  0  0  0  0  0  0  0  0
   23.3820  -22.0748  -14.7510 C   0  0  0  0  0  0  0  0  0  0  0  0
   24.8788  -22.0272  -15.0321 C   0  0  0  0  0  0  0  0  0  0  0  0
   25.6765  -22.1504  -13.7812 C   0  0  2  0  0  0  0  0  0  0  0  0
   25.2186  -23.2800  -12.8986 C   0  0  0  0  0  0  0  0  0  0  0  0
   25.8332  -20.8380  -13.1022 C   0  0  2  0  0  0  0  0  0  0  0  0
   26.4004  -19.8671  -14.0564 N   0  0  0  0  0  0  0  0  0  0  0  0
   26.6261  -20.8576  -11.8533 C   0  0  0  0  0  0  0  0  0  0  0  0
   27.8086  -21.2832  -11.8727 O   0  0  0  0  0  0  0  0  0  0  0  0
   26.1119  -20.4152  -10.6225 N   0  0  0  0  0  0  0  0  0  0  0  0
   26.4210  -21.1050   -9.3576 C   0  0  1  0  0  0  0  0  0  0  0  0
   27.7456  -20.6803   -8.8538 C   0  0  0  0  0  0  0  0  0  0  0  0
   27.8200  -19.8912   -7.6381 C   0  0  0  0  0  0  0  0  0  0  0  0
   27.0887  -18.7446   -7.3395 C   0  0  0  0  0  0  0  0  0  0  0  0
   27.4946  -18.3331   -6.1366 N   0  0  0  0  0  0  0  0  0  0  0  0
   28.4466  -19.1572   -5.6504 C   0  0  0  0  0  0  0  0  0  0  0  0
   29.1391  -19.1286   -4.4470 C   0  0  0  0  0  0  0  0  0  0  0  0
   30.0543  -20.1306   -4.2212 C   0  0  0  0  0  0  0  0  0  0  0  0
   30.2932  -21.1285   -5.1284 C   0  0  0  0  0  0  0  0  0  0  0  0
   29.6057  -21.1494   -6.3149 C   0  0  0  0  0  0  0  0  0  0  0  0
   28.6739  -20.1496   -6.5731 C   0  0  0  0  0  0  0  0  0  0  0  0
   25.2858  -21.0626   -8.4551 C   0  0  0  0  0  0  0  0  0  0  0  0
   24.0798  -20.4342   -8.7282 O   0  0  0  0  0  0  0  0  0  0  0  0
   25.3247  -21.6203   -7.3000 O   0  0  0  0  0  0  0  0  0  0  0  0
  2  3  2  0
  2  1  1  0
  4  2  1  0
  5  6  1  6
  5  4  1  0
  7  8  2  0
  7  5  1  0
  9 10  1  0
 10 11  1  0
 11 12  1  1
 13 11  1  0
 13 14  1  6
 14  7  1  0
 15 13  1  0
 16 15  2  0
 17 15  1  0
 18 29  1  0
 18 17  1  0
 18 19  1  1
 20 19  1  0
 21 20  2  0
 22 21  1  0
 23 22  1  0
 23 28  2  0
 24 23  1  0
 25 24  2  0
 25 26  1  0
 26 27  2  0
 27 28  1  0
 28 20  1  0
 29 30  1  0
 31 29  2  0
M  END
$$$$
