NIW.pdb
     RDKit          3D

 31 32  0  0  1  0  0  0  0  0999 V2000
   29.2793  -18.6955  -16.6038 N   0  0  0  0  0  0  0  0  0  0  0  0
   27.9232  -18.3041  -16.6619 C   0  0  0  0  0  0  0  0  0  0  0  0
   27.6533  -17.2319  -17.2862 O   0  0  0  0  0  0  0  0  0  0  0  0
   26.8736  -19.1048  -16.0268 C   0  0  0  0  0  0  0  0  0  0  0  0
   27.5012  -20.2509  -15.2567 C   0  0  2  0  0  0  0  0  0  0  0  0
   28.1989  -21.1507  -16.1199 N   0  0  0  0  0  0  0  0  0  0  0  0
   26.4835  -20.9485  -14.4127 C   0  0  0  0  0  0  0  0  0  0  0  0
   25.7943  -21.8966  -14.8837 O   0  0  0  0  0  0  0  0  0  0  0  0
   25.5937  -19.9186   -8.7409 C   0  0  0  0  0  0  0  0  0  0  0  0
   25.2648  -19.8845  -10.2283 C   0  0  0  0  0  0  0  0  0  0  0  0
   25.4516  -21.2184  -10.8626 C   0  0  2  0  0  0  0  0  0  0  0  0
   26.7773  -21.8486  -10.5310 C   0  0  0  0  0  0  0  0  0  0  0  0
   25.1069  -21.1887  -12.3077 C   0  0  2  0  0  0  0  0  0  0  0  0
   26.2310  -20.5991  -13.0585 N   0  0  0  0  0  0  0  0  0  0  0  0
   23.8422  -20.4999  -12.6469 C   0  0  0  0  0  0  0  0  0  0  0  0
   23.8577  -19.2780  -12.9408 O   0  0  0  0  0  0  0  0  0  0  0  0
   22.6004  -21.1578  -12.6566 N   0  0  0  0  0  0  0  0  0  0  0  0
   21.4315  -20.6020  -13.3611 C   0  0  1  0  0  0  0  0  0  0  0  0
   21.7985  -20.2280  -14.7446 C   0  0  0  0  0  0  0  0  0  0  0  0
   20.7869  -19.6578  -15.6150 C   0  0  0  0  0  0  0  0  0  0  0  0
   19.8679  -18.6636  -15.2897 C   0  0  0  0  0  0  0  0  0  0  0  0
   19.1147  -18.4678  -16.3737 N   0  0  0  0  0  0  0  0  0  0  0  0
   19.5046  -19.2844  -17.3753 C   0  0  0  0  0  0  0  0  0  0  0  0
   19.0248  -19.4186  -18.6716 C   0  0  0  0  0  0  0  0  0  0  0  0
   19.6458  -20.3403  -19.4824 C   0  0  0  0  0  0  0  0  0  0  0  0
   20.6966  -21.1080  -19.0552 C   0  0  0  0  0  0  0  0  0  0  0  0
   21.1641  -20.9701  -17.7733 C   0  0  0  0  0  0  0  0  0  0  0  0
   20.5568  -20.0469  -16.9287 C   0  0  0  0  0  0  0  0  0  0  0  0
   20.2594  -21.4307  -13.1508 C   0  0  0  0  0  0  0  0  0  0  0  0
   18.9652  -20.9517  -13.0118 O   0  0  0  0  0  0  0  0  0  0  0  0
   20.3456  -22.7087  -13.0721 O   0  0  0  0  0  0  0  0  0  0  0  0
  2  3  2  0
  2  1  1  0
  4  2  1  0
  5  6  1  6
  5  4  1  0
  7  8  2  0
  7  5  1  0
  9 10  1  0
 10 11  1  0
 11 12  1  6
 13 11  1  0
 13 14  1  6
 14  7  1  0
 15 13  1  0
 16 15  2  0
 17 15  1  0
 18 29  1  0
 18 17  1  0
 18 19  1  6
 20 19  1  0
 21 20  2  0
 22 21  1  0
 23 22  1  0
 23 28  2  0
 24 23  1  0
 25 24  2  0
 25 26  1  0
 26 27  2  0
 27 28  1  0
 28 20  1  0
 29 30  1  0
 31 29  2  0
M  END
$$$$
