NIW.pdb
     RDKit          3D

 31 32  0  0  1  0  0  0  0  0999 V2000
  -18.3397   -6.2189  -65.5711 N   0  0  0  0  0  0  0  0  0  0  0  0
  -18.1511   -7.0356  -64.4340 C   0  0  0  0  0  0  0  0  0  0  0  0
  -18.5971   -8.2231  -64.4901 O   0  0  0  0  0  0  0  0  0  0  0  0
  -17.4682   -6.5302  -63.2405 C   0  0  0  0  0  0  0  0  0  0  0  0
  -18.4896   -6.2037  -62.1677 C   0  0  2  0  0  0  0  0  0  0  0  0
  -19.5473   -5.3871  -62.6733 N   0  0  0  0  0  0  0  0  0  0  0  0
  -17.8312   -5.6014  -60.9684 C   0  0  0  0  0  0  0  0  0  0  0  0
  -17.7014   -6.2651  -59.9014 O   0  0  0  0  0  0  0  0  0  0  0  0
  -19.8321   -1.5637  -59.3222 C   0  0  0  0  0  0  0  0  0  0  0  0
  -18.5477   -2.0690  -59.9678 C   0  0  0  0  0  0  0  0  0  0  0  0
  -17.7447   -2.8919  -59.0220 C   0  0  2  0  0  0  0  0  0  0  0  0
  -17.2397   -2.1083  -57.8406 C   0  0  0  0  0  0  0  0  0  0  0  0
  -16.7193   -3.6976  -59.7344 C   0  0  2  0  0  0  0  0  0  0  0  0
  -17.3208   -4.2752  -60.9507 N   0  0  0  0  0  0  0  0  0  0  0  0
  -16.0672   -4.7539  -58.9295 C   0  0  0  0  0  0  0  0  0  0  0  0
  -16.3759   -5.9582  -59.1148 O   0  0  0  0  0  0  0  0  0  0  0  0
  -15.1009   -4.4713  -57.9491 N   0  0  0  0  0  0  0  0  0  0  0  0
  -14.2320   -5.5212  -57.3883 C   0  0  1  0  0  0  0  0  0  0  0  0
  -15.0472   -6.5462  -56.7003 C   0  0  0  0  0  0  0  0  0  0  0  0
  -14.9075   -7.9378  -57.0875 C   0  0  0  0  0  0  0  0  0  0  0  0
  -15.1392   -8.4823  -58.3480 C   0  0  0  0  0  0  0  0  0  0  0  0
  -14.9181   -9.7943  -58.2457 N   0  0  0  0  0  0  0  0  0  0  0  0
  -14.5565  -10.1170  -56.9859 C   0  0  0  0  0  0  0  0  0  0  0  0
  -14.2211  -11.3433  -56.4272 C   0  0  0  0  0  0  0  0  0  0  0  0
  -13.8734  -11.3568  -55.0962 C   0  0  0  0  0  0  0  0  0  0  0  0
  -13.8501  -10.2224  -54.3291 C   0  0  0  0  0  0  0  0  0  0  0  0
  -14.1834   -9.0151  -54.8881 C   0  0  0  0  0  0  0  0  0  0  0  0
  -14.5401   -8.9686  -56.2316 C   0  0  0  0  0  0  0  0  0  0  0  0
  -13.2477   -5.9523  -58.3631 C   0  0  0  0  0  0  0  0  0  0  0  0
  -13.1898   -5.5136  -59.6776 O   0  0  0  0  0  0  0  0  0  0  0  0
  -12.3343   -6.8029  -58.0644 O   0  0  0  0  0  0  0  0  0  0  0  0
  2  3  2  0
  2  1  1  0
  4  2  1  0
  5  6  1  6
  5  4  1  0
  7  8  2  0
  7  5  1  0
  9 10  1  0
 10 11  1  0
 11 12  1  1
 13 11  1  0
 13 14  1  6
 14  7  1  0
 15 13  1  0
 16 15  2  0
 17 15  1  0
 18 29  1  0
 18 17  1  0
 18 19  1  6
 20 19  1  0
 21 20  2  0
 22 21  1  0
 23 22  1  0
 23 28  2  0
 24 23  1  0
 25 24  2  0
 25 26  1  0
 26 27  2  0
 27 28  1  0
 28 20  1  0
 29 30  1  0
 31 29  2  0
M  END
$$$$
