FPD.pdb
     RDKit          3D

 27 28  0  0  1  0  0  0  0  0999 V2000
    7.1682  -16.6828   26.1803 N   0  0  0  0  0  0  0  0  0  0  0  0
    7.5895  -15.6066   25.3521 C   0  0  1  0  0  0  0  0  0  0  0  0
    8.3996  -14.6276   26.1700 C   0  0  0  0  0  0  0  0  0  0  0  0
    7.6152  -13.4439   26.5290 C   0  0  0  0  0  0  0  0  0  0  0  0
    8.0564  -12.5237   27.4566 C   0  0  0  0  0  0  0  0  0  0  0  0
    7.2759  -11.4059   27.7815 C   0  0  0  0  0  0  0  0  0  0  0  0
    6.0572  -11.1953   27.1894 C   0  0  0  0  0  0  0  0  0  0  0  0
    5.5976  -12.0947   26.2650 C   0  0  0  0  0  0  0  0  0  0  0  0
    6.3757  -13.1797   25.9624 C   0  0  0  0  0  0  0  0  0  0  0  0
    8.3052  -15.9818   24.1257 C   0  0  0  0  0  0  0  0  0  0  0  0
    9.3083  -16.7329   24.2337 O   0  0  0  0  0  0  0  0  0  0  0  0
    7.9086  -15.5305   22.8419 N   0  0  0  0  0  0  0  0  0  0  0  0
    7.7675  -14.1642   22.4437 C   0  0  0  0  0  0  0  0  0  0  0  0
    7.3871  -14.1488   20.9729 C   0  0  0  0  0  0  0  0  0  0  0  0
    6.8371  -15.5377   20.7023 C   0  0  0  0  0  0  0  0  0  0  0  0
    7.5791  -16.3774   21.7035 C   0  0  1  0  0  0  0  0  0  0  0  0
    8.7848  -17.0243   21.1376 C   0  0  0  0  0  0  0  0  0  0  0  0
    9.3912  -16.4035   20.2271 O   0  0  0  0  0  0  0  0  0  0  0  0
    9.2973  -18.2691   21.5387 N   0  0  0  0  0  0  0  0  0  0  0  0
   10.6518  -18.7214   21.3978 C   0  0  1  0  0  0  0  0  0  0  0  0
   11.5977  -17.6363   21.8133 C   0  0  0  0  0  0  0  0  0  0  0  0
   13.0214  -18.0142   21.7129 C   0  0  0  0  0  0  0  0  0  0  0  0
   13.3624  -19.1784   21.3339 O   0  0  0  0  0  0  0  0  0  0  0  0
   10.9014  -19.9869   22.1423 C   0  0  0  0  0  0  0  0  0  0  0  0
   11.9997  -20.5525   22.0014 O   0  0  0  0  0  0  0  0  0  0  0  0
   14.0681  -17.1568   22.0143 O   0  0  0  0  0  0  0  0  0  0  0  0
    9.8997  -20.4851   22.9632 O   0  0  0  0  0  0  0  0  0  0  0  0
  2  1  1  1
  3  2  1  0
  4  9  1  0
  4  3  1  0
  5  4  2  0
  6  7  2  0
  6  5  1  0
  7  8  1  0
  8  9  2  0
 10  2  1  0
 11 10  2  0
 12 13  1  0
 12 10  1  0
 14 13  1  0
 15 16  1  0
 15 14  1  0
 16 12  1  0
 17 18  2  0
 16 17  1  6
 19 17  1  0
 20 21  1  1
 20 19  1  0
 22 26  1  0
 22 21  1  0
 23 22  2  0
 24 20  1  0
 25 24  2  0
 27 24  1  0
M  END
$$$$
