FPD.pdb
     RDKit          3D

 27 28  0  0  1  0  0  0  0  0999 V2000
    6.1957  -17.3795   25.8418 N   0  0  0  0  0  0  0  0  0  0  0  0
    6.8125  -16.2899   25.1680 C   0  0  1  0  0  0  0  0  0  0  0  0
    7.6706  -15.5152   26.1413 C   0  0  0  0  0  0  0  0  0  0  0  0
    7.1852  -14.1446   26.3176 C   0  0  0  0  0  0  0  0  0  0  0  0
    5.8430  -13.8497   26.4335 C   0  0  0  0  0  0  0  0  0  0  0  0
    5.4135  -12.5253   26.5938 C   0  0  0  0  0  0  0  0  0  0  0  0
    6.3105  -11.4893   26.6401 C   0  0  0  0  0  0  0  0  0  0  0  0
    7.6486  -11.7567   26.5276 C   0  0  0  0  0  0  0  0  0  0  0  0
    8.0466  -13.0573   26.3716 C   0  0  0  0  0  0  0  0  0  0  0  0
    7.5713  -16.6296   23.9573 C   0  0  0  0  0  0  0  0  0  0  0  0
    8.1680  -17.7365   23.9255 O   0  0  0  0  0  0  0  0  0  0  0  0
    7.6531  -15.7626   22.8390 N   0  0  0  0  0  0  0  0  0  0  0  0
    7.0610  -14.4643   22.7438 C   0  0  0  0  0  0  0  0  0  0  0  0
    7.4562  -13.8739   21.4009 C   0  0  0  0  0  0  0  0  0  0  0  0
    7.8612  -15.0699   20.5579 C   0  0  0  0  0  0  0  0  0  0  0  0
    8.3562  -16.0396   21.5937 C   0  0  1  0  0  0  0  0  0  0  0  0
    9.8250  -15.9947   21.7748 C   0  0  0  0  0  0  0  0  0  0  0  0
   10.2559  -15.4045   22.7986 O   0  0  0  0  0  0  0  0  0  0  0  0
   10.7651  -16.5576   20.8958 N   0  0  0  0  0  0  0  0  0  0  0  0
   12.0739  -17.0371   21.2365 C   0  0  1  0  0  0  0  0  0  0  0  0
   11.9838  -17.9916   22.3878 C   0  0  0  0  0  0  0  0  0  0  0  0
   12.8080  -17.6051   23.5501 C   0  0  0  0  0  0  0  0  0  0  0  0
   13.5511  -16.5748   23.5095 O   0  0  0  0  0  0  0  0  0  0  0  0
   12.7710  -17.6440   20.0688 C   0  0  0  0  0  0  0  0  0  0  0  0
   13.8427  -17.1407   19.6890 O   0  0  0  0  0  0  0  0  0  0  0  0
   12.8371  -18.3123   24.7420 O   0  0  0  0  0  0  0  0  0  0  0  0
   12.1981  -18.7463   19.4507 O   0  0  0  0  0  0  0  0  0  0  0  0
  2  1  1  1
  3  2  1  0
  4  9  1  0
  4  3  1  0
  5  4  2  0
  6  7  2  0
  6  5  1  0
  7  8  1  0
  8  9  2  0
 10  2  1  0
 11 10  2  0
 12 13  1  0
 12 10  1  0
 14 13  1  0
 15 16  1  0
 15 14  1  0
 16 12  1  0
 17 18  2  0
 16 17  1  1
 19 17  1  0
 20 21  1  1
 20 19  1  0
 22 26  1  0
 22 21  1  0
 23 22  2  0
 24 20  1  0
 25 24  2  0
 27 24  1  0
M  END
$$$$
