FPD.pdb
     RDKit          3D

 27 28  0  0  1  0  0  0  0  0999 V2000
    5.8087  -17.3055   25.5890 N   0  0  0  0  0  0  0  0  0  0  0  0
    6.6169  -16.2294   25.1304 C   0  0  1  0  0  0  0  0  0  0  0  0
    7.4389  -15.6906   26.2784 C   0  0  0  0  0  0  0  0  0  0  0  0
    7.1651  -14.2723   26.5203 C   0  0  0  0  0  0  0  0  0  0  0  0
    8.1717  -13.3330   26.6004 C   0  0  0  0  0  0  0  0  0  0  0  0
    7.8736  -11.9848   26.8406 C   0  0  0  0  0  0  0  0  0  0  0  0
    6.5792  -11.5622   27.0020 C   0  0  0  0  0  0  0  0  0  0  0  0
    5.5623  -12.4760   26.9265 C   0  0  0  0  0  0  0  0  0  0  0  0
    5.8754  -13.7878   26.6913 C   0  0  0  0  0  0  0  0  0  0  0  0
    7.4669  -16.5147   23.9670 C   0  0  0  0  0  0  0  0  0  0  0  0
    7.7686  -17.7137   23.7360 O   0  0  0  0  0  0  0  0  0  0  0  0
    7.9527  -15.4970   23.1084 N   0  0  0  0  0  0  0  0  0  0  0  0
    7.7054  -14.0956   23.2509 C   0  0  0  0  0  0  0  0  0  0  0  0
    8.4679  -13.3779   22.1502 C   0  0  0  0  0  0  0  0  0  0  0  0
    8.7337  -14.4466   21.1051 C   0  0  0  0  0  0  0  0  0  0  0  0
    8.7904  -15.6988   21.9340 C   0  0  1  0  0  0  0  0  0  0  0  0
   10.1701  -16.0847   22.3078 C   0  0  0  0  0  0  0  0  0  0  0  0
   10.6183  -15.6242   23.3891 O   0  0  0  0  0  0  0  0  0  0  0  0
   11.0086  -16.9198   21.5510 N   0  0  0  0  0  0  0  0  0  0  0  0
   12.3174  -17.3779   21.9201 C   0  0  1  0  0  0  0  0  0  0  0  0
   13.1523  -17.5798   20.6926 C   0  0  0  0  0  0  0  0  0  0  0  0
   12.5100  -18.4238   19.6656 C   0  0  0  0  0  0  0  0  0  0  0  0
   11.6637  -19.3151   19.9892 O   0  0  0  0  0  0  0  0  0  0  0  0
   12.9780  -16.4647   22.8936 C   0  0  0  0  0  0  0  0  0  0  0  0
   13.1864  -16.8768   24.0480 O   0  0  0  0  0  0  0  0  0  0  0  0
   12.7700  -18.3159   18.3081 O   0  0  0  0  0  0  0  0  0  0  0  0
   13.3348  -15.1908   22.4749 O   0  0  0  0  0  0  0  0  0  0  0  0
  2  1  1  1
  3  2  1  0
  4  9  1  0
  4  3  1  0
  5  4  2  0
  6  7  2  0
  6  5  1  0
  7  8  1  0
  8  9  2  0
 10  2  1  0
 11 10  2  0
 12 13  1  0
 12 10  1  0
 14 13  1  0
 15 16  1  0
 15 14  1  0
 16 12  1  0
 17 18  2  0
 16 17  1  1
 19 17  1  0
 20 21  1  6
 20 19  1  0
 22 26  1  0
 22 21  1  0
 23 22  2  0
 24 20  1  0
 25 24  2  0
 27 24  1  0
M  END
$$$$
