FPD.pdb
     RDKit          3D

 27 28  0  0  1  0  0  0  0  0999 V2000
    7.2743  -18.0268   20.9644 N   0  0  0  0  0  0  0  0  0  0  0  0
    7.8925  -16.7617   20.7669 C   0  0  1  0  0  0  0  0  0  0  0  0
    6.8326  -15.7183   20.4992 C   0  0  0  0  0  0  0  0  0  0  0  0
    7.4237  -14.4211   20.1632 C   0  0  0  0  0  0  0  0  0  0  0  0
    7.3083  -13.3245   20.9915 C   0  0  0  0  0  0  0  0  0  0  0  0
    7.8806  -12.0959   20.6346 C   0  0  0  0  0  0  0  0  0  0  0  0
    8.5687  -11.9490   19.4577 C   0  0  0  0  0  0  0  0  0  0  0  0
    8.6971  -13.0234   18.6187 C   0  0  0  0  0  0  0  0  0  0  0  0
    8.1304  -14.2141   18.9864 C   0  0  0  0  0  0  0  0  0  0  0  0
    8.8052  -16.3197   21.8294 C   0  0  0  0  0  0  0  0  0  0  0  0
   10.0407  -16.3465   21.5955 O   0  0  0  0  0  0  0  0  0  0  0  0
    8.3456  -15.8708   23.0929 N   0  0  0  0  0  0  0  0  0  0  0  0
    7.0286  -15.3935   23.3812 C   0  0  0  0  0  0  0  0  0  0  0  0
    6.9655  -15.0817   24.8667 C   0  0  0  0  0  0  0  0  0  0  0  0
    8.4151  -14.9252   25.2900 C   0  0  0  0  0  0  0  0  0  0  0  0
    9.1314  -15.8201   24.3183 C   0  0  1  0  0  0  0  0  0  0  0  0
    9.3879  -17.1747   24.8584 C   0  0  0  0  0  0  0  0  0  0  0  0
    8.7298  -18.1226   24.3578 O   0  0  0  0  0  0  0  0  0  0  0  0
   10.3038  -17.4773   25.8796 N   0  0  0  0  0  0  0  0  0  0  0  0
   11.3272  -18.4823   25.8397 C   0  0  1  0  0  0  0  0  0  0  0  0
   12.2101  -18.2645   24.6490 C   0  0  0  0  0  0  0  0  0  0  0  0
   13.3209  -19.2313   24.5442 C   0  0  0  0  0  0  0  0  0  0  0  0
   13.1030  -20.4827   24.5861 O   0  0  0  0  0  0  0  0  0  0  0  0
   12.1100  -18.5369   27.1055 C   0  0  0  0  0  0  0  0  0  0  0  0
   12.4302  -17.4674   27.6528 O   0  0  0  0  0  0  0  0  0  0  0  0
   14.6494  -18.8638   24.3963 O   0  0  0  0  0  0  0  0  0  0  0  0
   12.4512  -19.7778   27.6242 O   0  0  0  0  0  0  0  0  0  0  0  0
  2  1  1  1
  3  2  1  0
  4  9  1  0
  4  3  1  0
  5  4  2  0
  6  7  2  0
  6  5  1  0
  7  8  1  0
  8  9  2  0
 10  2  1  0
 11 10  2  0
 12 13  1  0
 12 10  1  0
 14 13  1  0
 15 16  1  0
 15 14  1  0
 16 12  1  0
 17 18  2  0
 16 17  1  1
 19 17  1  0
 20 21  1  6
 20 19  1  0
 22 26  1  0
 22 21  1  0
 23 22  2  0
 24 20  1  0
 25 24  2  0
 27 24  1  0
M  END
$$$$
