FPD.pdb
     RDKit          3D

 27 28  0  0  1  0  0  0  0  0999 V2000
    6.0618  -17.2282   25.7961 N   0  0  0  0  0  0  0  0  0  0  0  0
    6.7540  -16.1710   25.1442 C   0  0  1  0  0  0  0  0  0  0  0  0
    7.6644  -15.4792   26.1323 C   0  0  0  0  0  0  0  0  0  0  0  0
    7.2654  -14.0872   26.3522 C   0  0  0  0  0  0  0  0  0  0  0  0
    5.9718  -13.7363   26.6767 C   0  0  0  0  0  0  0  0  0  0  0  0
    5.6235  -12.3930   26.8728 C   0  0  0  0  0  0  0  0  0  0  0  0
    6.5538  -11.3934   26.7487 C   0  0  0  0  0  0  0  0  0  0  0  0
    7.8450  -11.7167   26.4275 C   0  0  0  0  0  0  0  0  0  0  0  0
    8.1638  -13.0349   26.2401 C   0  0  0  0  0  0  0  0  0  0  0  0
    7.4871  -16.5382   23.9257 C   0  0  0  0  0  0  0  0  0  0  0  0
    7.9861  -17.6910   23.8615 O   0  0  0  0  0  0  0  0  0  0  0  0
    7.6494  -15.6478   22.8348 N   0  0  0  0  0  0  0  0  0  0  0  0
    7.1483  -14.3101   22.7669 C   0  0  0  0  0  0  0  0  0  0  0  0
    7.6091  -13.7108   21.4491 C   0  0  0  0  0  0  0  0  0  0  0  0
    7.9490  -14.9076   20.5790 C   0  0  0  0  0  0  0  0  0  0  0  0
    8.3567  -15.9372   21.5948 C   0  0  1  0  0  0  0  0  0  0  0  0
    9.8214  -15.9975   21.8034 C   0  0  0  0  0  0  0  0  0  0  0  0
   10.3050  -15.2343   22.6785 O   0  0  0  0  0  0  0  0  0  0  0  0
   10.7035  -16.8367   21.1027 N   0  0  0  0  0  0  0  0  0  0  0  0
   12.0467  -17.1711   21.4806 C   0  0  1  0  0  0  0  0  0  0  0  0
   12.0293  -18.1144   22.6445 C   0  0  0  0  0  0  0  0  0  0  0  0
   13.0715  -17.8380   23.6530 C   0  0  0  0  0  0  0  0  0  0  0  0
   13.9329  -16.9222   23.4671 O   0  0  0  0  0  0  0  0  0  0  0  0
   12.8318  -17.7168   20.3387 C   0  0  0  0  0  0  0  0  0  0  0  0
   14.0371  -17.9678   20.5123 O   0  0  0  0  0  0  0  0  0  0  0  0
   13.1909  -18.5330   24.8465 O   0  0  0  0  0  0  0  0  0  0  0  0
   12.1883  -17.9237   19.1269 O   0  0  0  0  0  0  0  0  0  0  0  0
  2  1  1  1
  3  2  1  0
  4  9  1  0
  4  3  1  0
  5  4  2  0
  6  7  2  0
  6  5  1  0
  7  8  1  0
  8  9  2  0
 10  2  1  0
 11 10  2  0
 12 13  1  0
 12 10  1  0
 14 13  1  0
 15 16  1  0
 15 14  1  0
 16 12  1  0
 17 18  2  0
 16 17  1  1
 19 17  1  0
 20 21  1  1
 20 19  1  0
 22 26  1  0
 22 21  1  0
 23 22  2  0
 24 20  1  0
 25 24  2  0
 27 24  1  0
M  END
$$$$
