MEY.pdb
     RDKit          3D

 30 30  0  0  1  0  0  0  0  0999 V2000
   23.3338  -12.3894  -21.4566 C   0  0  0  0  0  0  0  0  0  0  0  0
   24.8806  -13.1393  -20.9024 S   0  0  0  0  0  0  0  0  0  0  0  0
   25.6290  -12.1186  -19.5831 C   0  0  0  0  0  0  0  0  0  0  0  0
   24.5472  -11.7458  -18.6264 C   0  0  0  0  0  0  0  0  0  0  0  0
   25.0555  -10.8115  -17.5557 C   0  0  2  0  0  0  0  0  0  0  0  0
   25.9115  -11.6704  -16.6964 N   0  0  0  0  0  0  0  0  0  0  0  0
   23.9340  -10.3671  -16.6950 C   0  0  0  0  0  0  0  0  0  0  0  0
   23.3584  -11.2032  -15.9686 O   0  0  0  0  0  0  0  0  0  0  0  0
   23.4772   -9.0212  -16.6558 N   0  0  0  0  0  0  0  0  0  0  0  0
   22.3576   -8.5603  -15.8369 C   0  0  1  0  0  0  0  0  0  0  0  0
   22.6168   -7.2270  -15.2394 C   0  0  0  0  0  0  0  0  0  0  0  0
   21.5750   -6.6246  -14.3866 C   0  0  0  0  0  0  0  0  0  0  0  0
   21.7854   -5.3015  -13.8125 C   0  0  0  0  0  0  0  0  0  0  0  0
   22.5746   -5.0170  -12.8991 O   0  0  0  0  0  0  0  0  0  0  0  0
   21.0437   -8.7712  -16.3994 C   0  0  0  0  0  0  0  0  0  0  0  0
   20.6757   -8.4347  -17.5568 O   0  0  0  0  0  0  0  0  0  0  0  0
   20.9907   -4.2645  -14.3814 O   0  0  0  0  0  0  0  0  0  0  0  0
   12.7868  -11.9904  -16.9947 O   0  0  0  0  0  0  0  0  0  0  0  0
   14.1172  -11.7424  -16.6463 C   0  0  0  0  0  0  0  0  0  0  0  0
   14.6280  -12.1300  -15.4267 C   0  0  0  0  0  0  0  0  0  0  0  0
   15.9354  -11.8845  -15.0884 C   0  0  0  0  0  0  0  0  0  0  0  0
   16.8064  -11.2295  -15.9673 C   0  0  0  0  0  0  0  0  0  0  0  0
   18.2201  -10.9772  -15.5804 C   0  0  0  0  0  0  0  0  0  0  0  0
   18.6906   -9.5897  -16.0442 C   0  0  2  0  0  0  0  0  0  0  0  0
   20.0521   -9.4281  -15.5836 N   0  0  0  0  0  0  0  0  0  0  0  0
   17.8392   -8.5852  -15.3648 C   0  0  0  0  0  0  0  0  0  0  0  0
   18.0834   -8.1505  -14.2085 O   0  0  0  0  0  0  0  0  0  0  0  0
   16.3075  -10.8379  -17.1884 C   0  0  0  0  0  0  0  0  0  0  0  0
   14.9768  -11.1029  -17.4990 C   0  0  0  0  0  0  0  0  0  0  0  0
   16.7113   -8.0673  -15.9857 O   0  0  0  0  0  0  0  0  0  0  0  0
  2  1  1  0
  2  3  1  0
  4  3  1  0
  5  4  1  0
  5  6  1  1
  7  8  2  0
  7  5  1  0
  9  7  1  0
 10  9  1  0
 10 11  1  6
 11 12  1  0
 13 17  1  0
 13 12  1  0
 14 13  2  0
 15 16  2  0
 15 10  1  0
 18 19  1  0
 19 20  2  0
 20 21  1  0
 22 23  1  0
 22 21  2  0
 24 23  1  1
 24 25  1  0
 25 15  1  0
 26 24  1  0
 27 26  2  0
 28 22  1  0
 29 28  2  0
 29 19  1  0
 30 26  1  0
M  END
$$$$
