MEY.pdb
     RDKit          3D

 30 30  0  0  1  0  0  0  0  0999 V2000
   27.3338  -33.1041  -12.0789 C   0  0  0  0  0  0  0  0  0  0  0  0
   27.8447  -32.9460  -10.3538 S   0  0  0  0  0  0  0  0  0  0  0  0
   26.4693  -33.4303   -9.2509 C   0  0  0  0  0  0  0  0  0  0  0  0
   26.9944  -33.4635   -7.8553 C   0  0  0  0  0  0  0  0  0  0  0  0
   25.9169  -33.8444   -6.8696 C   0  0  2  0  0  0  0  0  0  0  0  0
   25.1500  -32.5885   -6.6618 N   0  0  0  0  0  0  0  0  0  0  0  0
   26.5219  -34.1714   -5.5569 C   0  0  0  0  0  0  0  0  0  0  0  0
   26.6489  -33.2678   -4.7053 O   0  0  0  0  0  0  0  0  0  0  0  0
   26.9692  -35.4775   -5.2167 N   0  0  0  0  0  0  0  0  0  0  0  0
   27.4954  -35.8466   -3.9040 C   0  0  1  0  0  0  0  0  0  0  0  0
   26.9651  -37.1519   -3.4386 C   0  0  0  0  0  0  0  0  0  0  0  0
   27.3490  -37.6283   -2.0965 C   0  0  0  0  0  0  0  0  0  0  0  0
   27.5391  -39.0541   -1.8616 C   0  0  0  0  0  0  0  0  0  0  0  0
   27.3679  -39.9616   -2.6894 O   0  0  0  0  0  0  0  0  0  0  0  0
   28.9088  -35.6182   -3.7106 C   0  0  0  0  0  0  0  0  0  0  0  0
   29.7575  -35.4392   -4.6250 O   0  0  0  0  0  0  0  0  0  0  0  0
   27.9617  -39.3967   -0.5445 O   0  0  0  0  0  0  0  0  0  0  0  0
   36.4955  -32.3884   -1.4668 O   0  0  0  0  0  0  0  0  0  0  0  0
   35.1784  -32.7613   -1.7485 C   0  0  0  0  0  0  0  0  0  0  0  0
   34.8161  -33.2525   -2.9837 C   0  0  0  0  0  0  0  0  0  0  0  0
   33.5212  -33.6177   -3.2562 C   0  0  0  0  0  0  0  0  0  0  0  0
   32.5127  -33.5065   -2.2914 C   0  0  0  0  0  0  0  0  0  0  0  0
   31.1173  -33.9114   -2.6084 C   0  0  0  0  0  0  0  0  0  0  0  0
   30.8107  -35.3249   -2.0889 C   0  0  2  0  0  0  0  0  0  0  0  0
   29.4134  -35.5820   -2.3600 N   0  0  0  0  0  0  0  0  0  0  0  0
   31.0125  -35.3089   -0.6211 C   0  0  0  0  0  0  0  0  0  0  0  0
   32.1475  -35.1978   -0.0873 O   0  0  0  0  0  0  0  0  0  0  0  0
   32.8630  -33.0173   -1.0539 C   0  0  0  0  0  0  0  0  0  0  0  0
   34.1853  -32.6566   -0.8115 C   0  0  0  0  0  0  0  0  0  0  0  0
   29.9370  -35.4172    0.2492 O   0  0  0  0  0  0  0  0  0  0  0  0
  2  1  1  0
  2  3  1  0
  4  3  1  0
  5  4  1  0
  5  6  1  1
  7  8  2  0
  7  5  1  0
  9  7  1  0
 10  9  1  0
 10 11  1  6
 11 12  1  0
 13 17  1  0
 13 12  1  0
 14 13  2  0
 15 16  2  0
 15 10  1  0
 18 19  1  0
 19 20  2  0
 20 21  1  0
 22 23  1  0
 22 21  2  0
 24 23  1  1
 24 25  1  0
 25 15  1  0
 26 24  1  0
 27 26  2  0
 28 22  1  0
 29 28  2  0
 29 19  1  0
 30 26  1  0
M  END
$$$$
