MEY.pdb
     RDKit          3D

 30 30  0  0  1  0  0  0  0  0999 V2000
   26.8998  -14.6531  -14.6315 C   0  0  0  0  0  0  0  0  0  0  0  0
   27.1119  -15.5606  -16.1786 S   0  0  0  0  0  0  0  0  0  0  0  0
   25.4834  -15.8526  -16.9567 C   0  0  0  0  0  0  0  0  0  0  0  0
   24.7954  -14.5352  -17.0815 C   0  0  0  0  0  0  0  0  0  0  0  0
   23.4225  -14.6856  -17.6901 C   0  0  2  0  0  0  0  0  0  0  0  0
   23.6875  -15.0642  -19.1026 N   0  0  0  0  0  0  0  0  0  0  0  0
   22.7438  -13.3692  -17.7442 C   0  0  0  0  0  0  0  0  0  0  0  0
   23.0680  -12.5556  -18.6334 O   0  0  0  0  0  0  0  0  0  0  0  0
   21.7312  -12.9843  -16.8233 N   0  0  0  0  0  0  0  0  0  0  0  0
   21.1131  -11.6601  -16.7927 C   0  0  1  0  0  0  0  0  0  0  0  0
   19.6356  -11.7328  -16.9090 C   0  0  0  0  0  0  0  0  0  0  0  0
   18.8747  -10.4722  -16.9950 C   0  0  0  0  0  0  0  0  0  0  0  0
   17.4248  -10.5104  -17.1395 C   0  0  0  0  0  0  0  0  0  0  0  0
   16.5973  -10.5265  -16.2159 O   0  0  0  0  0  0  0  0  0  0  0  0
   21.6385  -10.7480  -15.8033 C   0  0  0  0  0  0  0  0  0  0  0  0
   21.8004  -11.0026  -14.5796 O   0  0  0  0  0  0  0  0  0  0  0  0
   16.9536  -10.5300  -18.4843 O   0  0  0  0  0  0  0  0  0  0  0  0
   28.0115  -11.6845  -16.3845 O   0  0  0  0  0  0  0  0  0  0  0  0
   26.9829  -10.7447  -16.2753 C   0  0  0  0  0  0  0  0  0  0  0  0
   26.6412   -9.9235  -17.3274 C   0  0  0  0  0  0  0  0  0  0  0  0
   25.6302   -9.0017  -17.2159 C   0  0  0  0  0  0  0  0  0  0  0  0
   24.9028   -8.8558  -16.0285 C   0  0  0  0  0  0  0  0  0  0  0  0
   23.8093   -7.8525  -15.9319 C   0  0  0  0  0  0  0  0  0  0  0  0
   22.5472   -8.4565  -15.2964 C   0  0  2  0  0  0  0  0  0  0  0  0
   22.0236   -9.4262  -16.2333 N   0  0  0  0  0  0  0  0  0  0  0  0
   21.5603   -7.3612  -15.1486 C   0  0  0  0  0  0  0  0  0  0  0  0
   21.6986   -6.4221  -14.3212 O   0  0  0  0  0  0  0  0  0  0  0  0
   25.2351   -9.6710  -14.9709 C   0  0  0  0  0  0  0  0  0  0  0  0
   26.2657  -10.5948  -15.1185 C   0  0  0  0  0  0  0  0  0  0  0  0
   20.4158   -7.3201  -15.9323 O   0  0  0  0  0  0  0  0  0  0  0  0
  2  1  1  0
  2  3  1  0
  4  3  1  0
  5  4  1  0
  5  6  1  6
  7  8  2  0
  7  5  1  0
  9  7  1  0
 10  9  1  0
 10 11  1  1
 11 12  1  0
 13 17  1  0
 13 12  1  0
 14 13  2  0
 15 16  2  0
 15 10  1  0
 18 19  1  0
 19 20  2  0
 20 21  1  0
 22 23  1  0
 22 21  2  0
 24 23  1  6
 24 25  1  0
 25 15  1  0
 26 24  1  0
 27 26  2  0
 28 22  1  0
 29 28  2  0
 29 19  1  0
 30 26  1  0
M  END
$$$$
