MEY.pdb
     RDKit          3D

 30 30  0  0  1  0  0  0  0  0999 V2000
   29.4624  -22.0048   -5.0917 C   0  0  0  0  0  0  0  0  0  0  0  0
   28.8596  -20.4605   -4.3748 S   0  0  0  0  0  0  0  0  0  0  0  0
   28.6629  -19.2014   -5.6857 C   0  0  0  0  0  0  0  0  0  0  0  0
   27.8813  -19.8181   -6.7963 C   0  0  0  0  0  0  0  0  0  0  0  0
   27.6799  -18.8475   -7.9342 C   0  0  2  0  0  0  0  0  0  0  0  0
   26.8298  -17.7750   -7.3547 N   0  0  0  0  0  0  0  0  0  0  0  0
   26.8665  -19.4771   -9.0011 C   0  0  0  0  0  0  0  0  0  0  0  0
   25.6706  -19.1434   -9.1290 O   0  0  0  0  0  0  0  0  0  0  0  0
   27.3872  -20.4525   -9.8949 N   0  0  0  0  0  0  0  0  0  0  0  0
   26.7572  -20.8218  -11.1611 C   0  0  1  0  0  0  0  0  0  0  0  0
   27.7330  -21.3908  -12.1233 C   0  0  0  0  0  0  0  0  0  0  0  0
   28.2336  -20.5278  -13.2096 C   0  0  0  0  0  0  0  0  0  0  0  0
   28.3496  -21.0600  -14.5615 C   0  0  0  0  0  0  0  0  0  0  0  0
   28.0684  -22.2133  -14.9208 O   0  0  0  0  0  0  0  0  0  0  0  0
   25.4869  -21.5012  -11.0522 C   0  0  0  0  0  0  0  0  0  0  0  0
   25.2050  -22.4064  -10.2219 O   0  0  0  0  0  0  0  0  0  0  0  0
   28.8354  -20.1373  -15.5328 O   0  0  0  0  0  0  0  0  0  0  0  0
   17.1677  -22.4733   -9.3990 O   0  0  0  0  0  0  0  0  0  0  0  0
   18.4934  -22.1116   -9.6534 C   0  0  0  0  0  0  0  0  0  0  0  0
   19.5489  -22.8020   -9.0986 C   0  0  0  0  0  0  0  0  0  0  0  0
   20.8496  -22.4434   -9.3510 C   0  0  0  0  0  0  0  0  0  0  0  0
   21.1603  -21.3607  -10.1826 C   0  0  0  0  0  0  0  0  0  0  0  0
   22.5771  -20.9926  -10.4444 C   0  0  0  0  0  0  0  0  0  0  0  0
   23.0765  -21.5877  -11.7704 C   0  0  2  0  0  0  0  0  0  0  0  0
   24.4325  -21.1215  -11.9601 N   0  0  0  0  0  0  0  0  0  0  0  0
   22.2294  -21.0305  -12.8508 C   0  0  0  0  0  0  0  0  0  0  0  0
   22.4358  -19.9018  -13.3695 O   0  0  0  0  0  0  0  0  0  0  0  0
   20.1142  -20.6638  -10.7426 C   0  0  0  0  0  0  0  0  0  0  0  0
   18.8073  -21.0547  -10.4655 C   0  0  0  0  0  0  0  0  0  0  0  0
   21.1483  -21.7430  -13.3505 O   0  0  0  0  0  0  0  0  0  0  0  0
  2  1  1  0
  2  3  1  0
  4  3  1  0
  5  4  1  0
  5  6  1  1
  7  8  2  0
  7  5  1  0
  9  7  1  0
 10  9  1  0
 10 11  1  1
 11 12  1  0
 13 17  1  0
 13 12  1  0
 14 13  2  0
 15 16  2  0
 15 10  1  0
 18 19  1  0
 19 20  2  0
 20 21  1  0
 22 23  1  0
 22 21  2  0
 24 23  1  1
 24 25  1  0
 25 15  1  0
 26 24  1  0
 27 26  2  0
 28 22  1  0
 29 28  2  0
 29 19  1  0
 30 26  1  0
M  END
$$$$
