MEY.pdb
     RDKit          3D

 30 30  0  0  1  0  0  0  0  0999 V2000
   21.7746  -19.1627  -14.3954 C   0  0  0  0  0  0  0  0  0  0  0  0
   21.4976  -17.4376  -14.8533 S   0  0  0  0  0  0  0  0  0  0  0  0
   21.8091  -17.2109  -16.6405 C   0  0  0  0  0  0  0  0  0  0  0  0
   21.4984  -15.7923  -16.9807 C   0  0  0  0  0  0  0  0  0  0  0  0
   20.2255  -15.3313  -16.3138 C   0  0  2  0  0  0  0  0  0  0  0  0
   19.1519  -16.0835  -17.0141 N   0  0  0  0  0  0  0  0  0  0  0  0
   19.9821  -13.9013  -16.6172 C   0  0  0  0  0  0  0  0  0  0  0  0
   20.8253  -13.0532  -16.2600 O   0  0  0  0  0  0  0  0  0  0  0  0
   18.8233  -13.4438  -17.3023 N   0  0  0  0  0  0  0  0  0  0  0  0
   18.5279  -12.0359  -17.5613 C   0  0  1  0  0  0  0  0  0  0  0  0
   17.2013  -11.8540  -18.2008 C   0  0  0  0  0  0  0  0  0  0  0  0
   16.8164  -10.5024  -18.6485 C   0  0  0  0  0  0  0  0  0  0  0  0
   15.4903  -10.2760  -19.2093 C   0  0  0  0  0  0  0  0  0  0  0  0
   15.2303  -10.0261  -20.3960 O   0  0  0  0  0  0  0  0  0  0  0  0
   18.8608  -11.1210  -16.4940 C   0  0  0  0  0  0  0  0  0  0  0  0
   18.5460  -11.2585  -15.2815 O   0  0  0  0  0  0  0  0  0  0  0  0
   14.4183  -10.3582  -18.2740 O   0  0  0  0  0  0  0  0  0  0  0  0
   22.6218   -3.8413  -12.9837 O   0  0  0  0  0  0  0  0  0  0  0  0
   22.3151   -4.9866  -13.7236 C   0  0  0  0  0  0  0  0  0  0  0  0
   21.9687   -4.9140  -15.0551 C   0  0  0  0  0  0  0  0  0  0  0  0
   21.6682   -6.0414  -15.7783 C   0  0  0  0  0  0  0  0  0  0  0  0
   21.7002   -7.3135  -15.1944 C   0  0  0  0  0  0  0  0  0  0  0  0
   21.3739   -8.5213  -15.9984 C   0  0  0  0  0  0  0  0  0  0  0  0
   19.9018   -8.9286  -15.8285 C   0  0  2  0  0  0  0  0  0  0  0  0
   19.6255   -9.9429  -16.8220 N   0  0  0  0  0  0  0  0  0  0  0  0
   19.0765   -7.7352  -16.1288 C   0  0  0  0  0  0  0  0  0  0  0  0
   18.5650   -7.0135  -15.2326 O   0  0  0  0  0  0  0  0  0  0  0  0
   22.0451   -7.3983  -13.8650 C   0  0  0  0  0  0  0  0  0  0  0  0
   22.3440   -6.2349  -13.1616 C   0  0  0  0  0  0  0  0  0  0  0  0
   18.8255   -7.3513  -17.4385 O   0  0  0  0  0  0  0  0  0  0  0  0
  2  1  1  0
  2  3  1  0
  4  3  1  0
  5  4  1  0
  5  6  1  6
  7  8  2  0
  7  5  1  0
  9  7  1  0
 10  9  1  0
 10 11  1  1
 11 12  1  0
 13 17  1  0
 13 12  1  0
 14 13  2  0
 15 16  2  0
 15 10  1  0
 18 19  1  0
 19 20  2  0
 20 21  1  0
 22 23  1  0
 22 21  2  0
 24 23  1  6
 24 25  1  0
 25 15  1  0
 26 24  1  0
 27 26  2  0
 28 22  1  0
 29 28  2  0
 29 19  1  0
 30 26  1  0
M  END
$$$$
