MEY.pdb
     RDKit          3D

 30 30  0  0  1  0  0  0  0  0999 V2000
   21.5731  -39.6358  -10.7069 C   0  0  0  0  0  0  0  0  0  0  0  0
   22.3008  -38.1419  -11.4147 S   0  0  0  0  0  0  0  0  0  0  0  0
   24.1242  -38.2317  -11.3165 C   0  0  0  0  0  0  0  0  0  0  0  0
   24.4919  -38.4871   -9.8938 C   0  0  0  0  0  0  0  0  0  0  0  0
   24.8047  -37.2025   -9.1659 C   0  0  2  0  0  0  0  0  0  0  0  0
   26.1447  -36.8101   -9.6749 N   0  0  0  0  0  0  0  0  0  0  0  0
   24.9831  -37.4690   -7.7190 C   0  0  0  0  0  0  0  0  0  0  0  0
   24.0940  -38.0912   -7.1025 O   0  0  0  0  0  0  0  0  0  0  0  0
   26.1294  -37.0462   -6.9918 N   0  0  0  0  0  0  0  0  0  0  0  0
   26.4485  -37.4902   -5.6362 C   0  0  1  0  0  0  0  0  0  0  0  0
   26.9863  -38.8730   -5.6155 C   0  0  0  0  0  0  0  0  0  0  0  0
   27.3438  -39.4685   -4.3143 C   0  0  0  0  0  0  0  0  0  0  0  0
   27.9289  -40.8025   -4.2652 C   0  0  0  0  0  0  0  0  0  0  0  0
   28.1908  -41.5232   -5.2399 O   0  0  0  0  0  0  0  0  0  0  0  0
   27.1252  -36.5219   -4.8046 C   0  0  0  0  0  0  0  0  0  0  0  0
   28.3559  -36.5168   -4.5331 O   0  0  0  0  0  0  0  0  0  0  0  0
   28.2123  -41.2884   -2.9559 O   0  0  0  0  0  0  0  0  0  0  0  0
   26.2947  -32.4108   -9.8744 O   0  0  0  0  0  0  0  0  0  0  0  0
   26.2437  -32.5731   -8.4872 C   0  0  0  0  0  0  0  0  0  0  0  0
   27.3879  -32.5860   -7.7197 C   0  0  0  0  0  0  0  0  0  0  0  0
   27.3333  -32.7457   -6.3574 C   0  0  0  0  0  0  0  0  0  0  0  0
   26.1132  -32.9026   -5.6889 C   0  0  0  0  0  0  0  0  0  0  0  0
   26.0783  -33.0707   -4.2117 C   0  0  0  0  0  0  0  0  0  0  0  0
   26.9682  -34.2386   -3.7580 C   0  0  2  0  0  0  0  0  0  0  0  0
   26.3435  -35.4551   -4.2290 N   0  0  0  0  0  0  0  0  0  0  0  0
   26.9630  -34.2475   -2.2763 C   0  0  0  0  0  0  0  0  0  0  0  0
   27.3862  -33.2842   -1.5844 O   0  0  0  0  0  0  0  0  0  0  0  0
   24.9637  -32.8910   -6.4452 C   0  0  0  0  0  0  0  0  0  0  0  0
   25.0554  -32.7269   -7.8244 C   0  0  0  0  0  0  0  0  0  0  0  0
   26.4807  -35.3404   -1.5701 O   0  0  0  0  0  0  0  0  0  0  0  0
  2  1  1  0
  2  3  1  0
  4  3  1  0
  5  4  1  0
  5  6  1  6
  7  8  2  0
  7  5  1  0
  9  7  1  0
 10  9  1  0
 10 11  1  6
 11 12  1  0
 13 17  1  0
 13 12  1  0
 14 13  2  0
 15 16  2  0
 15 10  1  0
 18 19  1  0
 19 20  2  0
 20 21  1  0
 22 23  1  0
 22 21  2  0
 24 23  1  6
 24 25  1  0
 25 15  1  0
 26 24  1  0
 27 26  2  0
 28 22  1  0
 29 28  2  0
 29 19  1  0
 30 26  1  0
M  END
$$$$
