MEY.pdb
     RDKit          3D

 30 30  0  0  1  0  0  0  0  0999 V2000
   19.1684  -10.6206  -25.4057 C   0  0  0  0  0  0  0  0  0  0  0  0
   19.5487   -9.8799  -23.8029 S   0  0  0  0  0  0  0  0  0  0  0  0
   21.1216   -8.9533  -23.9034 C   0  0  0  0  0  0  0  0  0  0  0  0
   21.4939   -8.5363  -22.5207 C   0  0  0  0  0  0  0  0  0  0  0  0
   22.7797   -7.7463  -22.5103 C   0  0  2  0  0  0  0  0  0  0  0  0
   23.8410   -8.7758  -22.3600 N   0  0  0  0  0  0  0  0  0  0  0  0
   22.8518   -6.9092  -21.2895 C   0  0  0  0  0  0  0  0  0  0  0  0
   23.2058   -7.4341  -20.2139 O   0  0  0  0  0  0  0  0  0  0  0  0
   22.5343   -5.5233  -21.2838 N   0  0  0  0  0  0  0  0  0  0  0  0
   22.5463   -4.6856  -20.0861 C   0  0  1  0  0  0  0  0  0  0  0  0
   22.4765   -3.2407  -20.4166 C   0  0  0  0  0  0  0  0  0  0  0  0
   22.5511   -2.2633  -19.3146 C   0  0  0  0  0  0  0  0  0  0  0  0
   22.4163   -0.8402  -19.5990 C   0  0  0  0  0  0  0  0  0  0  0  0
   22.2510   -0.3296  -20.7171 O   0  0  0  0  0  0  0  0  0  0  0  0
   21.7121   -5.1397  -18.9975 C   0  0  0  0  0  0  0  0  0  0  0  0
   20.5230   -5.5444  -19.1007 O   0  0  0  0  0  0  0  0  0  0  0  0
   22.4866    0.0116  -18.4587 O   0  0  0  0  0  0  0  0  0  0  0  0
   19.3838   -8.5438  -11.2463 O   0  0  0  0  0  0  0  0  0  0  0  0
   20.0807   -8.0891  -12.3692 C   0  0  0  0  0  0  0  0  0  0  0  0
   19.8413   -8.6043  -13.6244 C   0  0  0  0  0  0  0  0  0  0  0  0
   20.5281   -8.1549  -14.7247 C   0  0  0  0  0  0  0  0  0  0  0  0
   21.5015   -7.1541  -14.6193 C   0  0  0  0  0  0  0  0  0  0  0  0
   22.2306   -6.6805  -15.8258 C   0  0  0  0  0  0  0  0  0  0  0  0
   21.4789   -5.5358  -16.5233 C   0  0  2  0  0  0  0  0  0  0  0  0
   22.2714   -5.1441  -17.6681 N   0  0  0  0  0  0  0  0  0  0  0  0
   21.4261   -4.3996  -15.5737 C   0  0  0  0  0  0  0  0  0  0  0  0
   20.6216   -4.3529  -14.6061 O   0  0  0  0  0  0  0  0  0  0  0  0
   21.7489   -6.6318  -13.3705 C   0  0  0  0  0  0  0  0  0  0  0  0
   21.0341   -7.1106  -12.2763 C   0  0  0  0  0  0  0  0  0  0  0  0
   22.2793   -3.3138  -15.7107 O   0  0  0  0  0  0  0  0  0  0  0  0
  2  1  1  0
  2  3  1  0
  4  3  1  0
  5  4  1  0
  5  6  1  1
  7  8  2  0
  7  5  1  0
  9  7  1  0
 10  9  1  0
 10 11  1  6
 11 12  1  0
 13 17  1  0
 13 12  1  0
 14 13  2  0
 15 16  2  0
 15 10  1  0
 18 19  1  0
 19 20  2  0
 20 21  1  0
 22 23  1  0
 22 21  2  0
 24 23  1  1
 24 25  1  0
 25 15  1  0
 26 24  1  0
 27 26  2  0
 28 22  1  0
 29 28  2  0
 29 19  1  0
 30 26  1  0
M  END
$$$$
