MEY.pdb
     RDKit          3D

 30 30  0  0  1  0  0  0  0  0999 V2000
   27.7774  -18.9614   -6.6105 C   0  0  0  0  0  0  0  0  0  0  0  0
   28.7714  -20.4423   -6.8953 S   0  0  0  0  0  0  0  0  0  0  0  0
   28.7690  -20.8602   -8.6751 C   0  0  0  0  0  0  0  0  0  0  0  0
   27.5225  -20.3002   -9.2728 C   0  0  0  0  0  0  0  0  0  0  0  0
   26.7547  -21.3531  -10.0342 C   0  0  2  0  0  0  0  0  0  0  0  0
   27.7737  -21.9875  -10.9105 N   0  0  0  0  0  0  0  0  0  0  0  0
   25.7796  -20.7104  -10.9466 C   0  0  0  0  0  0  0  0  0  0  0  0
   24.8558  -20.0252  -10.4621 O   0  0  0  0  0  0  0  0  0  0  0  0
   25.8460  -20.8376  -12.3612 N   0  0  0  0  0  0  0  0  0  0  0  0
   24.8596  -20.2740  -13.2809 C   0  0  1  0  0  0  0  0  0  0  0  0
   25.4346  -20.0169  -14.6245 C   0  0  0  0  0  0  0  0  0  0  0  0
   24.5785  -19.3851  -15.6460 C   0  0  0  0  0  0  0  0  0  0  0  0
   24.4331  -20.0091  -16.9551 C   0  0  0  0  0  0  0  0  0  0  0  0
   23.5047  -19.8223  -17.7560 O   0  0  0  0  0  0  0  0  0  0  0  0
   23.5510  -20.8850  -13.2450 C   0  0  0  0  0  0  0  0  0  0  0  0
   23.3108  -22.1176  -13.3524 O   0  0  0  0  0  0  0  0  0  0  0  0
   25.4762  -20.9123  -17.3113 O   0  0  0  0  0  0  0  0  0  0  0  0
   14.7529  -21.1652  -11.9160 O   0  0  0  0  0  0  0  0  0  0  0  0
   16.0836  -20.7514  -12.0221 C   0  0  0  0  0  0  0  0  0  0  0  0
   16.5740  -20.1888  -13.1802 C   0  0  0  0  0  0  0  0  0  0  0  0
   17.8817  -19.7837  -13.2803 C   0  0  0  0  0  0  0  0  0  0  0  0
   18.7738  -19.9249  -12.2105 C   0  0  0  0  0  0  0  0  0  0  0  0
   20.1855  -19.4757  -12.3408 C   0  0  0  0  0  0  0  0  0  0  0  0
   21.0714  -20.5754  -12.9470 C   0  0  2  0  0  0  0  0  0  0  0  0
   22.4050  -20.0280  -13.0653 N   0  0  0  0  0  0  0  0  0  0  0  0
   20.5543  -20.8590  -14.3063 C   0  0  0  0  0  0  0  0  0  0  0  0
   20.8202  -20.1383  -15.3041 O   0  0  0  0  0  0  0  0  0  0  0  0
   18.2950  -20.4853  -11.0485 C   0  0  0  0  0  0  0  0  0  0  0  0
   16.9634  -20.8850  -10.9814 C   0  0  0  0  0  0  0  0  0  0  0  0
   19.7374  -21.9550  -14.5458 O   0  0  0  0  0  0  0  0  0  0  0  0
  2  1  1  0
  2  3  1  0
  4  3  1  0
  5  4  1  0
  5  6  1  6
  7  8  2  0
  7  5  1  0
  9  7  1  0
 10  9  1  0
 10 11  1  6
 11 12  1  0
 13 17  1  0
 13 12  1  0
 14 13  2  0
 15 16  2  0
 15 10  1  0
 18 19  1  0
 19 20  2  0
 20 21  1  0
 22 23  1  0
 22 21  2  0
 24 23  1  6
 24 25  1  0
 25 15  1  0
 26 24  1  0
 27 26  2  0
 28 22  1  0
 29 28  2  0
 29 19  1  0
 30 26  1  0
M  END
$$$$
