MEY.pdb
     RDKit          3D

 30 30  0  0  1  0  0  0  0  0999 V2000
   28.9626  -14.7207  -15.9515 C   0  0  0  0  0  0  0  0  0  0  0  0
   27.8285  -13.3284  -16.1451 S   0  0  0  0  0  0  0  0  0  0  0  0
   26.3225  -13.8711  -17.0283 C   0  0  0  0  0  0  0  0  0  0  0  0
   25.4483  -12.6772  -17.2143 C   0  0  0  0  0  0  0  0  0  0  0  0
   25.2798  -11.9107  -15.9252 C   0  0  2  0  0  0  0  0  0  0  0  0
   24.5377  -12.8443  -15.0384 N   0  0  0  0  0  0  0  0  0  0  0  0
   24.3804  -10.7521  -16.1369 C   0  0  0  0  0  0  0  0  0  0  0  0
   24.6906   -9.8900  -16.9845 O   0  0  0  0  0  0  0  0  0  0  0  0
   23.1690  -10.5729  -15.4143 N   0  0  0  0  0  0  0  0  0  0  0  0
   22.2612   -9.4434  -15.6055 C   0  0  1  0  0  0  0  0  0  0  0  0
   20.9017   -9.7273  -15.0829 C   0  0  0  0  0  0  0  0  0  0  0  0
   20.1417  -10.8456  -15.6722 C   0  0  0  0  0  0  0  0  0  0  0  0
   18.7841  -11.1174  -15.2168 C   0  0  0  0  0  0  0  0  0  0  0  0
   17.8896  -11.6730  -15.8722 O   0  0  0  0  0  0  0  0  0  0  0  0
   22.8104   -8.1421  -15.3024 C   0  0  0  0  0  0  0  0  0  0  0  0
   23.4757   -7.8451  -14.2741 O   0  0  0  0  0  0  0  0  0  0  0  0
   18.4970  -10.6894  -13.8883 O   0  0  0  0  0  0  0  0  0  0  0  0
   24.7292    0.4006  -16.9765 O   0  0  0  0  0  0  0  0  0  0  0  0
   24.4075   -0.9556  -17.0782 C   0  0  0  0  0  0  0  0  0  0  0  0
   23.0992   -1.3860  -17.1151 C   0  0  0  0  0  0  0  0  0  0  0  0
   22.7876   -2.7191  -17.2151 C   0  0  0  0  0  0  0  0  0  0  0  0
   23.7852   -3.6990  -17.2836 C   0  0  0  0  0  0  0  0  0  0  0  0
   23.4238   -5.1373  -17.3950 C   0  0  0  0  0  0  0  0  0  0  0  0
   23.1245   -5.7497  -16.0176 C   0  0  2  0  0  0  0  0  0  0  0  0
   22.5952   -7.0757  -16.2494 N   0  0  0  0  0  0  0  0  0  0  0  0
   22.0690   -4.9229  -15.3871 C   0  0  0  0  0  0  0  0  0  0  0  0
   20.8450   -5.0579  -15.6502 O   0  0  0  0  0  0  0  0  0  0  0  0
   25.0957   -3.2809  -17.2479 C   0  0  0  0  0  0  0  0  0  0  0  0
   25.3759   -1.9213  -17.1462 C   0  0  0  0  0  0  0  0  0  0  0  0
   22.3888   -3.9426  -14.4583 O   0  0  0  0  0  0  0  0  0  0  0  0
  2  1  1  0
  2  3  1  0
  4  3  1  0
  5  4  1  0
  5  6  1  1
  7  8  2  0
  7  5  1  0
  9  7  1  0
 10  9  1  0
 10 11  1  1
 11 12  1  0
 13 17  1  0
 13 12  1  0
 14 13  2  0
 15 16  2  0
 15 10  1  0
 18 19  1  0
 19 20  2  0
 20 21  1  0
 22 23  1  0
 22 21  2  0
 24 23  1  6
 24 25  1  0
 25 15  1  0
 26 24  1  0
 27 26  2  0
 28 22  1  0
 29 28  2  0
 29 19  1  0
 30 26  1  0
M  END
$$$$
