MEY.pdb
     RDKit          3D

 30 30  0  0  1  0  0  0  0  0999 V2000
   28.2682  -11.4753  -15.2446 C   0  0  0  0  0  0  0  0  0  0  0  0
   27.1575  -12.8199  -15.7145 S   0  0  0  0  0  0  0  0  0  0  0  0
   26.6085  -12.5974  -17.4441 C   0  0  0  0  0  0  0  0  0  0  0  0
   25.8496  -11.3157  -17.5200 C   0  0  0  0  0  0  0  0  0  0  0  0
   24.5037  -11.4311  -16.8469 C   0  0  2  0  0  0  0  0  0  0  0  0
   23.7610  -12.4132  -17.6792 N   0  0  0  0  0  0  0  0  0  0  0  0
   23.7628  -10.1535  -16.9702 C   0  0  0  0  0  0  0  0  0  0  0  0
   24.2023   -9.1390  -16.3910 O   0  0  0  0  0  0  0  0  0  0  0  0
   22.5639  -10.0259  -17.7237 N   0  0  0  0  0  0  0  0  0  0  0  0
   21.7484   -8.8136  -17.7655 C   0  0  1  0  0  0  0  0  0  0  0  0
   20.9563   -8.7184  -19.0166 C   0  0  0  0  0  0  0  0  0  0  0  0
   21.2441   -9.6717  -20.1047 C   0  0  0  0  0  0  0  0  0  0  0  0
   20.4947  -10.9188  -20.1915 C   0  0  0  0  0  0  0  0  0  0  0  0
   20.9759  -12.0542  -20.3231 O   0  0  0  0  0  0  0  0  0  0  0  0
   21.0609   -8.4804  -16.5394 C   0  0  0  0  0  0  0  0  0  0  0  0
   20.2545   -9.2262  -15.9215 O   0  0  0  0  0  0  0  0  0  0  0  0
   19.0788  -10.7777  -20.1137 O   0  0  0  0  0  0  0  0  0  0  0  0
   19.1124   -4.1939   -9.0707 O   0  0  0  0  0  0  0  0  0  0  0  0
   19.7234   -4.7387  -10.2035 C   0  0  0  0  0  0  0  0  0  0  0  0
   19.9906   -6.0868  -10.3011 C   0  0  0  0  0  0  0  0  0  0  0  0
   20.5909   -6.6179  -11.4155 C   0  0  0  0  0  0  0  0  0  0  0  0
   20.9579   -5.8131  -12.5007 C   0  0  0  0  0  0  0  0  0  0  0  0
   21.6041   -6.4112  -13.6992 C   0  0  0  0  0  0  0  0  0  0  0  0
   20.5718   -6.7392  -14.7894 C   0  0  2  0  0  0  0  0  0  0  0  0
   21.3093   -7.1876  -15.9501 N   0  0  0  0  0  0  0  0  0  0  0  0
   19.8745   -5.4771  -15.1307 C   0  0  0  0  0  0  0  0  0  0  0  0
   18.8281   -5.0931  -14.5450 O   0  0  0  0  0  0  0  0  0  0  0  0
   20.6956   -4.4650  -12.4146 C   0  0  0  0  0  0  0  0  0  0  0  0
   20.0855   -3.9600  -11.2700 C   0  0  0  0  0  0  0  0  0  0  0  0
   20.3541   -4.6441  -16.1317 O   0  0  0  0  0  0  0  0  0  0  0  0
  2  1  1  0
  2  3  1  0
  4  3  1  0
  5  4  1  0
  5  6  1  6
  7  8  2  0
  7  5  1  0
  9  7  1  0
 10  9  1  0
 10 11  1  6
 11 12  1  0
 13 17  1  0
 13 12  1  0
 14 13  2  0
 15 16  2  0
 15 10  1  0
 18 19  1  0
 19 20  2  0
 20 21  1  0
 22 23  1  0
 22 21  2  0
 24 23  1  1
 24 25  1  0
 25 15  1  0
 26 24  1  0
 27 26  2  0
 28 22  1  0
 29 28  2  0
 29 19  1  0
 30 26  1  0
M  END
$$$$
