MEY.pdb
     RDKit          3D

 30 30  0  0  1  0  0  0  0  0999 V2000
   28.0923  -14.3989  -15.3731 C   0  0  0  0  0  0  0  0  0  0  0  0
   26.7207  -13.2239  -15.3776 S   0  0  0  0  0  0  0  0  0  0  0  0
   25.6216  -13.5564  -16.8003 C   0  0  0  0  0  0  0  0  0  0  0  0
   24.5894  -12.4806  -16.8398 C   0  0  0  0  0  0  0  0  0  0  0  0
   25.0553  -11.2987  -17.6544 C   0  0  2  0  0  0  0  0  0  0  0  0
   26.1096  -10.6694  -16.8170 N   0  0  0  0  0  0  0  0  0  0  0  0
   23.9699  -10.2953  -17.7607 C   0  0  0  0  0  0  0  0  0  0  0  0
   23.0729  -10.4597  -18.6129 O   0  0  0  0  0  0  0  0  0  0  0  0
   23.8998   -9.1429  -16.9308 N   0  0  0  0  0  0  0  0  0  0  0  0
   22.8113   -8.1684  -16.9734 C   0  0  1  0  0  0  0  0  0  0  0  0
   21.8335   -8.3778  -15.8772 C   0  0  0  0  0  0  0  0  0  0  0  0
   22.3065   -8.9891  -14.6210 C   0  0  0  0  0  0  0  0  0  0  0  0
   21.3653   -9.2315  -13.5348 C   0  0  0  0  0  0  0  0  0  0  0  0
   21.1396   -8.4740  -12.5791 O   0  0  0  0  0  0  0  0  0  0  0  0
   23.2047   -6.8032  -17.2354 C   0  0  0  0  0  0  0  0  0  0  0  0
   24.2400   -6.2374  -16.7923 O   0  0  0  0  0  0  0  0  0  0  0  0
   20.6576  -10.4658  -13.6148 O   0  0  0  0  0  0  0  0  0  0  0  0
   23.3074    1.1034  -21.2132 O   0  0  0  0  0  0  0  0  0  0  0  0
   23.0945   -0.2356  -20.8743 C   0  0  0  0  0  0  0  0  0  0  0  0
   21.8451   -0.7027  -20.5292 C   0  0  0  0  0  0  0  0  0  0  0  0
   21.6404   -2.0188  -20.1969 C   0  0  0  0  0  0  0  0  0  0  0  0
   22.6919   -2.9432  -20.1938 C   0  0  0  0  0  0  0  0  0  0  0  0
   22.4457   -4.3648  -19.8335 C   0  0  0  0  0  0  0  0  0  0  0  0
   22.6474   -4.6063  -18.3292 C   0  0  2  0  0  0  0  0  0  0  0  0
   22.3552   -6.0010  -18.0810 N   0  0  0  0  0  0  0  0  0  0  0  0
   21.6490   -3.7791  -17.6119 C   0  0  0  0  0  0  0  0  0  0  0  0
   20.4820   -4.1795  -17.3602 O   0  0  0  0  0  0  0  0  0  0  0  0
   23.9443   -2.4880  -20.5370 C   0  0  0  0  0  0  0  0  0  0  0  0
   24.1163   -1.1472  -20.8686 C   0  0  0  0  0  0  0  0  0  0  0  0
   21.9623   -2.4995  -17.1757 O   0  0  0  0  0  0  0  0  0  0  0  0
  2  1  1  0
  2  3  1  0
  4  3  1  0
  5  4  1  0
  5  6  1  1
  7  8  2  0
  7  5  1  0
  9  7  1  0
 10  9  1  0
 10 11  1  1
 11 12  1  0
 13 17  1  0
 13 12  1  0
 14 13  2  0
 15 16  2  0
 15 10  1  0
 18 19  1  0
 19 20  2  0
 20 21  1  0
 22 23  1  0
 22 21  2  0
 24 23  1  6
 24 25  1  0
 25 15  1  0
 26 24  1  0
 27 26  2  0
 28 22  1  0
 29 28  2  0
 29 19  1  0
 30 26  1  0
M  END
$$$$
