MEY.pdb
     RDKit          3D

 30 30  0  0  1  0  0  0  0  0999 V2000
   15.8614  -26.0590    0.2310 C   0  0  0  0  0  0  0  0  0  0  0  0
   16.3664  -24.6751    1.2761 S   0  0  0  0  0  0  0  0  0  0  0  0
   14.9101  -23.6574    1.7071 C   0  0  0  0  0  0  0  0  0  0  0  0
   15.3642  -22.5826    2.6361 C   0  0  0  0  0  0  0  0  0  0  0  0
   14.2124  -21.7139    3.0795 C   0  0  2  0  0  0  0  0  0  0  0  0
   13.8220  -20.9695    1.8539 N   0  0  0  0  0  0  0  0  0  0  0  0
   14.6882  -20.6910    4.0405 C   0  0  0  0  0  0  0  0  0  0  0  0
   14.3936  -19.4936    3.8474 O   0  0  0  0  0  0  0  0  0  0  0  0
   15.4716  -21.0104    5.1832 N   0  0  0  0  0  0  0  0  0  0  0  0
   15.8309  -20.0491    6.2241 C   0  0  1  0  0  0  0  0  0  0  0  0
   16.1199  -20.7131    7.5192 C   0  0  0  0  0  0  0  0  0  0  0  0
   15.0492  -21.4995    8.1600 C   0  0  0  0  0  0  0  0  0  0  0  0
   15.3673  -22.7716    8.7963 C   0  0  0  0  0  0  0  0  0  0  0  0
   14.6351  -23.7716    8.8398 O   0  0  0  0  0  0  0  0  0  0  0  0
   16.7385  -19.0004    5.8197 C   0  0  0  0  0  0  0  0  0  0  0  0
   17.7581  -19.1485    5.0940 O   0  0  0  0  0  0  0  0  0  0  0  0
   16.6494  -22.8317    9.4155 O   0  0  0  0  0  0  0  0  0  0  0  0
   19.8284  -10.9077    4.2058 O   0  0  0  0  0  0  0  0  0  0  0  0
   19.0221  -12.0027    4.5283 C   0  0  0  0  0  0  0  0  0  0  0  0
   18.8665  -13.0638    3.6633 C   0  0  0  0  0  0  0  0  0  0  0  0
   18.0735  -14.1374    3.9840 C   0  0  0  0  0  0  0  0  0  0  0  0
   17.3883  -14.2007    5.2033 C   0  0  0  0  0  0  0  0  0  0  0  0
   16.5374  -15.3756    5.5306 C   0  0  0  0  0  0  0  0  0  0  0  0
   17.3851  -16.5739    5.9859 C   0  0  2  0  0  0  0  0  0  0  0  0
   16.4694  -17.6569    6.2703 N   0  0  0  0  0  0  0  0  0  0  0  0
   18.0609  -16.1831    7.2453 C   0  0  0  0  0  0  0  0  0  0  0  0
   17.5068  -16.2640    8.3731 O   0  0  0  0  0  0  0  0  0  0  0  0
   17.5364  -13.1467    6.0754 C   0  0  0  0  0  0  0  0  0  0  0  0
   18.3484  -12.0740    5.7183 C   0  0  0  0  0  0  0  0  0  0  0  0
   19.3621  -15.7009    7.2379 O   0  0  0  0  0  0  0  0  0  0  0  0
  2  1  1  0
  2  3  1  0
  4  3  1  0
  5  4  1  0
  5  6  1  6
  7  8  2  0
  7  5  1  0
  9  7  1  0
 10  9  1  0
 10 11  1  1
 11 12  1  0
 13 17  1  0
 13 12  1  0
 14 13  2  0
 15 16  2  0
 15 10  1  0
 18 19  1  0
 19 20  2  0
 20 21  1  0
 22 23  1  0
 22 21  2  0
 24 23  1  1
 24 25  1  0
 25 15  1  0
 26 24  1  0
 27 26  2  0
 28 22  1  0
 29 28  2  0
 29 19  1  0
 30 26  1  0
M  END
$$$$
