KSK.pdb
     RDKit          3D

 25 24  0  0  1  0  0  0  0  0999 V2000
   11.6215  -19.1657   18.3000 N   0  0  0  0  0  0  0  0  0  0  0  0
   10.7598  -19.9105   19.1975 C   0  0  1  0  0  0  0  0  0  0  0  0
   10.7005  -21.3729   18.8355 C   0  0  0  0  0  0  0  0  0  0  0  0
   11.3027  -21.6772   17.4948 C   0  0  0  0  0  0  0  0  0  0  0  0
   11.2104  -23.1406   17.1886 C   0  0  0  0  0  0  0  0  0  0  0  0
   11.7593  -23.3568   15.7899 C   0  0  0  0  0  0  0  0  0  0  0  0
   11.7120  -24.7710   15.4533 N   0  0  0  0  0  0  0  0  0  0  0  0
   11.3597  -19.8256   20.5589 C   0  0  0  0  0  0  0  0  0  0  0  0
   12.6201  -19.9311   20.7474 O   0  0  0  0  0  0  0  0  0  0  0  0
    9.0027  -19.1549   23.9007 O   0  0  0  0  0  0  0  0  0  0  0  0
   10.2535  -18.5952   23.9209 C   0  0  0  0  0  0  0  0  0  0  0  0
   11.1955  -19.4088   23.0535 C   0  0  2  0  0  0  0  0  0  0  0  0
   10.5817  -19.6231   21.7354 N   0  0  0  0  0  0  0  0  0  0  0  0
   11.5322  -20.7220   23.6483 C   0  0  0  0  0  0  0  0  0  0  0  0
   10.7322  -21.7051   23.4741 O   0  0  0  0  0  0  0  0  0  0  0  0
   12.6919  -20.9655   24.4044 N   0  0  0  0  0  0  0  0  0  0  0  0
   12.9316  -22.3251   25.0534 C   0  0  1  0  0  0  0  0  0  0  0  0
   14.1781  -22.8378   24.4662 C   0  0  0  0  0  0  0  0  0  0  0  0
   14.6461  -24.1949   24.6827 C   0  0  0  0  0  0  0  0  0  0  0  0
   15.8389  -24.7670   24.0560 C   0  0  0  0  0  0  0  0  0  0  0  0
   15.9089  -26.2496   24.5599 C   0  0  0  0  0  0  0  0  0  0  0  0
   17.0723  -26.8816   23.9988 N   0  0  0  0  0  0  0  0  0  0  0  0
   12.9150  -22.0393   26.4767 C   0  0  0  0  0  0  0  0  0  0  0  0
   12.9882  -20.8025   26.8613 O   0  0  0  0  0  0  0  0  0  0  0  0
   12.8162  -23.0008   27.4526 O   0  0  0  0  0  0  0  0  0  0  0  0
  2  1  1  6
  3  2  1  0
  4  3  1  0
  5  6  1  0
  5  4  1  0
  7  6  1  0
  8  2  1  0
  8  9  2  0
 12 11  1  1
 11 10  1  0
 12 13  1  0
 13  8  1  0
 14 12  1  0
 15 14  2  0
 16 14  1  0
 17 23  1  0
 17 16  1  0
 17 18  1  6
 19 20  1  0
 19 18  1  0
 21 20  1  0
 21 22  1  0
 23 25  1  0
 24 23  2  0
M  END
$$$$
