KSK.pdb
     RDKit          3D

 25 24  0  0  1  0  0  0  0  0999 V2000
    7.1090  -20.6586   18.7625 N   0  0  0  0  0  0  0  0  0  0  0  0
    7.8959  -19.5513   19.2698 C   0  0  1  0  0  0  0  0  0  0  0  0
    7.9543  -18.4074   18.2894 C   0  0  0  0  0  0  0  0  0  0  0  0
    7.7954  -18.8412   16.8613 C   0  0  0  0  0  0  0  0  0  0  0  0
    8.0115  -17.6902   15.9272 C   0  0  0  0  0  0  0  0  0  0  0  0
    7.8183  -18.2005   14.5107 C   0  0  0  0  0  0  0  0  0  0  0  0
    7.9010  -17.0937   13.5708 N   0  0  0  0  0  0  0  0  0  0  0  0
    7.2076  -19.0414   20.4891 C   0  0  0  0  0  0  0  0  0  0  0  0
    5.9855  -18.6657   20.4655 O   0  0  0  0  0  0  0  0  0  0  0  0
    8.5275  -19.8970   24.3431 O   0  0  0  0  0  0  0  0  0  0  0  0
    7.2202  -19.7047   23.9796 C   0  0  0  0  0  0  0  0  0  0  0  0
    7.1262  -18.5692   22.9779 C   0  0  2  0  0  0  0  0  0  0  0  0
    7.8537  -18.9367   21.7549 N   0  0  0  0  0  0  0  0  0  0  0  0
    7.6732  -17.2968   23.5009 C   0  0  0  0  0  0  0  0  0  0  0  0
    8.8871  -16.9893   23.2385 O   0  0  0  0  0  0  0  0  0  0  0  0
    6.9356  -16.3879   24.2793 N   0  0  0  0  0  0  0  0  0  0  0  0
    7.5872  -15.1261   24.8363 C   0  0  1  0  0  0  0  0  0  0  0  0
    6.4881  -14.3043   25.3637 C   0  0  0  0  0  0  0  0  0  0  0  0
    6.7106  -13.0392   26.0402 C   0  0  0  0  0  0  0  0  0  0  0  0
    5.6471  -12.2055   26.6030 C   0  0  0  0  0  0  0  0  0  0  0  0
    6.3743  -10.9803   27.2566 C   0  0  0  0  0  0  0  0  0  0  0  0
    5.3946  -10.1280   27.8746 N   0  0  0  0  0  0  0  0  0  0  0  0
    8.5740  -15.6290   25.7748 C   0  0  0  0  0  0  0  0  0  0  0  0
    8.2970  -16.7015   26.4500 O   0  0  0  0  0  0  0  0  0  0  0  0
    9.7979  -15.0439   25.9904 O   0  0  0  0  0  0  0  0  0  0  0  0
  2  1  1  6
  3  2  1  0
  4  3  1  0
  5  6  1  0
  5  4  1  0
  7  6  1  0
  8  2  1  0
  8  9  2  0
 12 11  1  1
 11 10  1  0
 12 13  1  0
 13  8  1  0
 14 12  1  0
 15 14  2  0
 16 14  1  0
 17 23  1  0
 17 16  1  0
 17 18  1  1
 19 20  1  0
 19 18  1  0
 21 20  1  0
 21 22  1  0
 23 25  1  0
 24 23  2  0
M  END
$$$$
