KSK.pdb
     RDKit          3D

 25 24  0  0  1  0  0  0  0  0999 V2000
    9.0538  -17.0450   15.6507 N   0  0  0  0  0  0  0  0  0  0  0  0
    8.1989  -17.3674   16.7768 C   0  0  1  0  0  0  0  0  0  0  0  0
    8.2521  -18.8342   17.1213 C   0  0  0  0  0  0  0  0  0  0  0  0
    7.5948  -19.7092   16.0941 C   0  0  0  0  0  0  0  0  0  0  0  0
    6.1170  -19.7866   16.3267 C   0  0  0  0  0  0  0  0  0  0  0  0
    5.5207  -20.6545   15.2332 C   0  0  0  0  0  0  0  0  0  0  0  0
    4.0755  -20.7163   15.3839 N   0  0  0  0  0  0  0  0  0  0  0  0
    8.7245  -16.6262   17.9579 C   0  0  0  0  0  0  0  0  0  0  0  0
    9.9742  -16.4031   18.1116 O   0  0  0  0  0  0  0  0  0  0  0  0
    6.3552  -15.7303   21.2789 O   0  0  0  0  0  0  0  0  0  0  0  0
    7.2798  -14.7792   20.9345 C   0  0  0  0  0  0  0  0  0  0  0  0
    8.4195  -15.4231   20.1677 C   0  0  2  0  0  0  0  0  0  0  0  0
    7.8827  -16.1182   18.9892 N   0  0  0  0  0  0  0  0  0  0  0  0
    9.1895  -16.3862   20.9869 C   0  0  0  0  0  0  0  0  0  0  0  0
    8.9217  -17.6337   20.8925 O   0  0  0  0  0  0  0  0  0  0  0  0
   10.2129  -16.0157   21.8765 N   0  0  0  0  0  0  0  0  0  0  0  0
   10.9477  -17.0652   22.7045 C   0  0  1  0  0  0  0  0  0  0  0  0
   12.3769  -16.7390   22.5920 C   0  0  0  0  0  0  0  0  0  0  0  0
   13.4119  -17.5149   23.2510 C   0  0  0  0  0  0  0  0  0  0  0  0
   14.8336  -17.1661   23.2478 C   0  0  0  0  0  0  0  0  0  0  0  0
   15.5476  -18.3034   24.0565 C   0  0  0  0  0  0  0  0  0  0  0  0
   16.9644  -18.0573   24.0615 N   0  0  0  0  0  0  0  0  0  0  0  0
   10.3278  -16.9724   24.0139 C   0  0  0  0  0  0  0  0  0  0  0  0
   10.5026  -17.9464   24.8527 O   0  0  0  0  0  0  0  0  0  0  0  0
    9.5688  -15.9063   24.4311 O   0  0  0  0  0  0  0  0  0  0  0  0
  2  1  1  6
  3  2  1  0
  4  3  1  0
  5  6  1  0
  5  4  1  0
  7  6  1  0
  8  2  1  0
  8  9  2  0
 12 11  1  1
 11 10  1  0
 12 13  1  0
 13  8  1  0
 14 12  1  0
 15 14  2  0
 16 14  1  0
 17 23  1  0
 17 16  1  0
 17 18  1  1
 19 20  1  0
 19 18  1  0
 21 20  1  0
 21 22  1  0
 23 25  1  0
 24 23  2  0
M  END
$$$$
