KSK.pdb
     RDKit          3D

 25 24  0  0  1  0  0  0  0  0999 V2000
    9.3214  -18.3163   18.2691 N   0  0  0  0  0  0  0  0  0  0  0  0
    8.9863  -19.1430   19.4125 C   0  0  1  0  0  0  0  0  0  0  0  0
   10.2151  -19.7209   20.0677 C   0  0  0  0  0  0  0  0  0  0  0  0
   11.0320  -20.5779   19.1452 C   0  0  0  0  0  0  0  0  0  0  0  0
   12.2840  -21.0461   19.8214 C   0  0  0  0  0  0  0  0  0  0  0  0
   13.0819  -21.8521   18.8124 C   0  0  0  0  0  0  0  0  0  0  0  0
   14.3585  -22.2423   19.3897 N   0  0  0  0  0  0  0  0  0  0  0  0
    8.3330  -18.2607   20.4201 C   0  0  0  0  0  0  0  0  0  0  0  0
    8.4803  -16.9906   20.3998 O   0  0  0  0  0  0  0  0  0  0  0  0
    5.4763  -19.7444   23.0226 O   0  0  0  0  0  0  0  0  0  0  0  0
    5.3847  -18.4373   22.6212 C   0  0  0  0  0  0  0  0  0  0  0  0
    6.7726  -17.8745   22.3796 C   0  0  2  0  0  0  0  0  0  0  0  0
    7.5065  -18.7624   21.4668 N   0  0  0  0  0  0  0  0  0  0  0  0
    7.5519  -17.7152   23.6283 C   0  0  0  0  0  0  0  0  0  0  0  0
    8.3933  -18.6222   23.9541 O   0  0  0  0  0  0  0  0  0  0  0  0
    7.4275  -16.6152   24.4945 N   0  0  0  0  0  0  0  0  0  0  0  0
    8.1796  -16.5751   25.8211 C   0  0  1  0  0  0  0  0  0  0  0  0
    7.9586  -15.2288   26.3690 C   0  0  0  0  0  0  0  0  0  0  0  0
    8.4939  -14.8069   27.6508 C   0  0  0  0  0  0  0  0  0  0  0  0
    9.8802  -14.3913   27.8704 C   0  0  0  0  0  0  0  0  0  0  0  0
    9.9856  -14.0698   29.4010 C   0  0  0  0  0  0  0  0  0  0  0  0
   11.3344  -13.6748   29.7058 N   0  0  0  0  0  0  0  0  0  0  0  0
    7.6472  -17.7072   26.5576 C   0  0  0  0  0  0  0  0  0  0  0  0
    6.3897  -17.9969   26.4248 O   0  0  0  0  0  0  0  0  0  0  0  0
    8.3965  -18.5058   27.3867 O   0  0  0  0  0  0  0  0  0  0  0  0
  2  1  1  6
  3  2  1  0
  4  3  1  0
  5  6  1  0
  5  4  1  0
  7  6  1  0
  8  2  1  0
  8  9  2  0
 12 11  1  1
 11 10  1  0
 12 13  1  0
 13  8  1  0
 14 12  1  0
 15 14  2  0
 16 14  1  0
 17 23  1  0
 17 16  1  0
 17 18  1  1
 19 20  1  0
 19 18  1  0
 21 20  1  0
 21 22  1  0
 23 25  1  0
 24 23  2  0
M  END
$$$$
