KSK.pdb
     RDKit          3D

 25 24  0  0  1  0  0  0  0  0999 V2000
    7.5285  -16.3632   18.4400 N   0  0  0  0  0  0  0  0  0  0  0  0
    8.5445  -15.5422   19.0696 C   0  0  1  0  0  0  0  0  0  0  0  0
    8.2036  -14.0751   19.0017 C   0  0  0  0  0  0  0  0  0  0  0  0
    7.7105  -13.6424   17.6517 C   0  0  0  0  0  0  0  0  0  0  0  0
    8.7240  -13.9460   16.5913 C   0  0  0  0  0  0  0  0  0  0  0  0
    8.1012  -13.6156   15.2470 C   0  0  0  0  0  0  0  0  0  0  0  0
    8.9514  -14.1068   14.1740 N   0  0  0  0  0  0  0  0  0  0  0  0
    8.5803  -15.9117   20.5128 C   0  0  0  0  0  0  0  0  0  0  0  0
    7.6265  -15.6098   21.3093 O   0  0  0  0  0  0  0  0  0  0  0  0
   11.9391  -17.4940   22.4893 O   0  0  0  0  0  0  0  0  0  0  0  0
   10.7443  -18.1390   22.6751 C   0  0  0  0  0  0  0  0  0  0  0  0
    9.5973  -17.1687   22.4645 C   0  0  2  0  0  0  0  0  0  0  0  0
    9.6668  -16.6200   21.1028 N   0  0  0  0  0  0  0  0  0  0  0  0
    9.6059  -16.0516   23.4360 C   0  0  0  0  0  0  0  0  0  0  0  0
   10.2983  -15.0080   23.1748 O   0  0  0  0  0  0  0  0  0  0  0  0
    8.8917  -16.0606   24.6468 N   0  0  0  0  0  0  0  0  0  0  0  0
    8.9615  -14.8758   25.6050 C   0  0  1  0  0  0  0  0  0  0  0  0
    7.6587  -14.2014   25.5074 C   0  0  0  0  0  0  0  0  0  0  0  0
    7.2863  -13.0888   26.3625 C   0  0  0  0  0  0  0  0  0  0  0  0
    5.9845  -12.4203   26.3277 C   0  0  0  0  0  0  0  0  0  0  0  0
    6.0719  -11.2734   27.3926 C   0  0  0  0  0  0  0  0  0  0  0  0
    4.8293  -10.5497   27.4061 N   0  0  0  0  0  0  0  0  0  0  0  0
    9.3252  -15.4765   26.8756 C   0  0  0  0  0  0  0  0  0  0  0  0
    9.5869  -14.6956   27.8779 O   0  0  0  0  0  0  0  0  0  0  0  0
    9.4018  -16.8308   27.0916 O   0  0  0  0  0  0  0  0  0  0  0  0
  2  1  1  6
  3  2  1  0
  4  3  1  0
  5  6  1  0
  5  4  1  0
  7  6  1  0
  8  2  1  0
  8  9  2  0
 12 11  1  1
 11 10  1  0
 12 13  1  0
 13  8  1  0
 14 12  1  0
 15 14  2  0
 16 14  1  0
 17 23  1  0
 17 16  1  0
 17 18  1  1
 19 20  1  0
 19 18  1  0
 21 20  1  0
 21 22  1  0
 23 25  1  0
 24 23  2  0
M  END
$$$$
