KSK.pdb
     RDKit          3D

 25 24  0  0  1  0  0  0  0  0999 V2000
    9.3461  -17.3649   16.4246 N   0  0  0  0  0  0  0  0  0  0  0  0
    8.2929  -17.2622   17.4161 C   0  0  1  0  0  0  0  0  0  0  0  0
    7.7760  -18.6167   17.8296 C   0  0  0  0  0  0  0  0  0  0  0  0
    7.7246  -19.6027   16.6991 C   0  0  0  0  0  0  0  0  0  0  0  0
    7.0425  -20.8667   17.1246 C   0  0  0  0  0  0  0  0  0  0  0  0
    7.0974  -21.8377   15.9590 C   0  0  0  0  0  0  0  0  0  0  0  0
    6.4193  -23.0745   16.3135 N   0  0  0  0  0  0  0  0  0  0  0  0
    8.8882  -16.6370   18.6308 C   0  0  0  0  0  0  0  0  0  0  0  0
   10.1430  -16.6922   18.8707 O   0  0  0  0  0  0  0  0  0  0  0  0
    6.6359  -15.0917   21.8239 O   0  0  0  0  0  0  0  0  0  0  0  0
    7.6849  -14.3296   21.3801 C   0  0  0  0  0  0  0  0  0  0  0  0
    8.7254  -15.2180   20.7245 C   0  0  2  0  0  0  0  0  0  0  0  0
    8.1115  -15.9404   19.6013 N   0  0  0  0  0  0  0  0  0  0  0  0
    9.3161  -16.1981   21.6637 C   0  0  0  0  0  0  0  0  0  0  0  0
    8.8270  -17.3792   21.7161 O   0  0  0  0  0  0  0  0  0  0  0  0
   10.3970  -15.9135   22.5161 N   0  0  0  0  0  0  0  0  0  0  0  0
   10.9644  -16.9831   23.4439 C   0  0  1  0  0  0  0  0  0  0  0  0
   12.4228  -16.9413   23.2625 C   0  0  0  0  0  0  0  0  0  0  0  0
   13.2313  -18.1405   23.1361 C   0  0  0  0  0  0  0  0  0  0  0  0
   14.6718  -18.1415   22.8754 C   0  0  0  0  0  0  0  0  0  0  0  0
   15.0986  -19.6498   22.8772 C   0  0  0  0  0  0  0  0  0  0  0  0
   16.5033  -19.7405   22.5828 N   0  0  0  0  0  0  0  0  0  0  0  0
   10.4288  -16.6335   24.7471 C   0  0  0  0  0  0  0  0  0  0  0  0
    9.8092  -15.5015   24.8791 O   0  0  0  0  0  0  0  0  0  0  0  0
   10.5273  -17.4345   25.8586 O   0  0  0  0  0  0  0  0  0  0  0  0
  2  1  1  6
  3  2  1  0
  4  3  1  0
  5  6  1  0
  5  4  1  0
  7  6  1  0
  8  2  1  0
  8  9  2  0
 12 11  1  1
 11 10  1  0
 12 13  1  0
 13  8  1  0
 14 12  1  0
 15 14  2  0
 16 14  1  0
 17 23  1  0
 17 16  1  0
 17 18  1  1
 19 20  1  0
 19 18  1  0
 21 20  1  0
 21 22  1  0
 23 25  1  0
 24 23  2  0
M  END
$$$$
