QLF.pdb
     RDKit          3D

 29 29  0  0  1  0  0  0  0  0999 V2000
   10.5343  -17.9007   15.8586 N   0  0  0  0  0  0  0  0  0  0  0  0
   10.9072  -19.1279   16.4557 C   0  0  0  0  0  0  0  0  0  0  0  0
   11.5506  -19.9796   15.8082 O   0  0  0  0  0  0  0  0  0  0  0  0
   10.5276  -19.3963   17.8595 C   0  0  0  0  0  0  0  0  0  0  0  0
    9.5930  -18.3282   18.3980 C   0  0  0  0  0  0  0  0  0  0  0  0
    9.4375  -18.5836   19.8869 C   0  0  2  0  0  0  0  0  0  0  0  0
    8.0546  -18.8562   20.1500 N   0  0  0  0  0  0  0  0  0  0  0  0
    9.8206  -17.3301   20.5777 C   0  0  0  0  0  0  0  0  0  0  0  0
   11.0216  -17.0084   20.6537 O   0  0  0  0  0  0  0  0  0  0  0  0
    6.6082  -12.8928   20.1931 C   0  0  0  0  0  0  0  0  0  0  0  0
    7.7495  -13.8663   20.2605 C   0  0  1  0  0  0  0  0  0  0  0  0
    8.9506  -13.2657   19.5054 C   0  0  0  0  0  0  0  0  0  0  0  0
    8.1984  -14.1912   21.6288 C   0  0  0  0  0  0  0  0  0  0  0  0
    9.1985  -15.2638   21.8193 C   0  0  2  0  0  0  0  0  0  0  0  0
    8.8244  -16.5014   21.1494 N   0  0  0  0  0  0  0  0  0  0  0  0
    9.5269  -15.5716   23.2116 C   0  0  0  0  0  0  0  0  0  0  0  0
   10.6782  -15.3182   23.6485 O   0  0  0  0  0  0  0  0  0  0  0  0
    8.6132  -16.1500   24.1408 N   0  0  0  0  0  0  0  0  0  0  0  0
    9.0487  -16.4588   25.4889 C   0  0  1  0  0  0  0  0  0  0  0  0
    9.4768  -15.1141   26.0769 C   0  0  0  0  0  0  0  0  0  0  0  0
    8.4060  -14.1218   26.1080 C   0  0  0  0  0  0  0  0  0  0  0  0
    7.1171  -14.5010   25.7337 C   0  0  0  0  0  0  0  0  0  0  0  0
    6.0717  -13.6009   25.7476 C   0  0  0  0  0  0  0  0  0  0  0  0
    6.2635  -12.2886   26.1334 C   0  0  0  0  0  0  0  0  0  0  0  0
    7.5171  -11.8968   26.5035 C   0  0  0  0  0  0  0  0  0  0  0  0
    8.5557  -12.8046   26.4862 C   0  0  0  0  0  0  0  0  0  0  0  0
    8.0390  -17.1167   26.3186 C   0  0  0  0  0  0  0  0  0  0  0  0
    6.8636  -17.3787   25.8850 O   0  0  0  0  0  0  0  0  0  0  0  0
    8.2621  -17.5104   27.6293 O   0  0  0  0  0  0  0  0  0  0  0  0
  2  3  2  0
  2  1  1  0
  4  2  1  0
  5  4  1  0
  6  5  1  0
  6  7  1  6
  8  6  1  0
  9  8  2  0
 11 10  1  1
 11 13  1  0
 11 12  1  0
 14 13  1  1
 14 16  1  0
 14 15  1  0
 15  8  1  0
 16 18  1  0
 17 16  2  0
 18 19  1  0
 19 20  1  1
 19 27  1  0
 21 20  1  0
 22 21  2  0
 23 22  1  0
 24 25  1  0
 24 23  2  0
 25 26  2  0
 26 21  1  0
 27 28  2  0
 27 29  1  0
M  END
$$$$
