QLF.pdb
     RDKit          3D

 29 29  0  0  1  0  0  0  0  0999 V2000
   13.2200  -15.5453   16.4576 N   0  0  0  0  0  0  0  0  0  0  0  0
   12.9633  -16.9353   16.3971 C   0  0  0  0  0  0  0  0  0  0  0  0
   13.2891  -17.5980   15.3905 O   0  0  0  0  0  0  0  0  0  0  0  0
   12.3030  -17.6014   17.5404 C   0  0  0  0  0  0  0  0  0  0  0  0
   12.0180  -16.6236   18.6660 C   0  0  0  0  0  0  0  0  0  0  0  0
   11.5270  -17.4393   19.8492 C   0  0  2  0  0  0  0  0  0  0  0  0
   10.4709  -18.2949   19.3927 N   0  0  0  0  0  0  0  0  0  0  0  0
   10.9759  -16.4773   20.8321 C   0  0  0  0  0  0  0  0  0  0  0  0
   11.7412  -15.6959   21.4282 O   0  0  0  0  0  0  0  0  0  0  0  0
    6.1040  -14.0097   19.9046 C   0  0  0  0  0  0  0  0  0  0  0  0
    7.5273  -14.2593   20.3126 C   0  0  1  0  0  0  0  0  0  0  0  0
    8.2354  -12.9006   20.4751 C   0  0  0  0  0  0  0  0  0  0  0  0
    7.6810  -14.9984   21.5812 C   0  0  0  0  0  0  0  0  0  0  0  0
    9.0298  -15.4448   21.9917 C   0  0  2  0  0  0  0  0  0  0  0  0
    9.5840  -16.4471   21.0924 N   0  0  0  0  0  0  0  0  0  0  0  0
    9.1316  -15.9457   23.3628 C   0  0  0  0  0  0  0  0  0  0  0  0
   10.0633  -16.7322   23.6689 O   0  0  0  0  0  0  0  0  0  0  0  0
    8.2311  -15.5966   24.4118 N   0  0  0  0  0  0  0  0  0  0  0  0
    8.3742  -16.2024   25.7214 C   0  0  1  0  0  0  0  0  0  0  0  0
    7.2558  -15.5838   26.5603 C   0  0  0  0  0  0  0  0  0  0  0  0
    7.2239  -14.1249   26.5079 C   0  0  0  0  0  0  0  0  0  0  0  0
    8.2468  -13.4003   27.1195 C   0  0  0  0  0  0  0  0  0  0  0  0
    8.2622  -12.0211   27.0963 C   0  0  0  0  0  0  0  0  0  0  0  0
    7.2634  -11.3055   26.4654 C   0  0  0  0  0  0  0  0  0  0  0  0
    6.2530  -11.9951   25.8607 C   0  0  0  0  0  0  0  0  0  0  0  0
    6.2468  -13.3743   25.8895 C   0  0  0  0  0  0  0  0  0  0  0  0
    8.3103  -17.6641   25.7257 C   0  0  0  0  0  0  0  0  0  0  0  0
    7.8601  -18.3311   24.7303 O   0  0  0  0  0  0  0  0  0  0  0  0
    8.7266  -18.4462   26.7923 O   0  0  0  0  0  0  0  0  0  0  0  0
  2  3  2  0
  2  1  1  0
  4  2  1  0
  5  4  1  0
  6  5  1  0
  6  7  1  6
  8  6  1  0
  9  8  2  0
 11 10  1  1
 11 13  1  0
 11 12  1  0
 14 13  1  6
 14 16  1  0
 14 15  1  0
 15  8  1  0
 16 18  1  0
 17 16  2  0
 18 19  1  0
 19 20  1  1
 19 27  1  0
 21 20  1  0
 22 21  2  0
 23 22  1  0
 24 25  1  0
 24 23  2  0
 25 26  2  0
 26 21  1  0
 27 28  2  0
 27 29  1  0
M  END
$$$$
