QLF.pdb
     RDKit          3D

 29 29  0  0  1  0  0  0  0  0999 V2000
   13.6684  -17.6353   15.0667 N   0  0  0  0  0  0  0  0  0  0  0  0
   12.4239  -17.0487   15.3962 C   0  0  0  0  0  0  0  0  0  0  0  0
   12.0299  -16.0214   14.8062 O   0  0  0  0  0  0  0  0  0  0  0  0
   11.5882  -17.6640   16.4497 C   0  0  0  0  0  0  0  0  0  0  0  0
   11.8342  -17.0207   17.8025 C   0  0  0  0  0  0  0  0  0  0  0  0
   10.9916  -17.7777   18.8141 C   0  0  2  0  0  0  0  0  0  0  0  0
    9.7114  -18.0369   18.2225 N   0  0  0  0  0  0  0  0  0  0  0  0
   10.8107  -16.8786   19.9778 C   0  0  0  0  0  0  0  0  0  0  0  0
   11.8087  -16.4293   20.5727 O   0  0  0  0  0  0  0  0  0  0  0  0
    6.3186  -13.4165   20.3944 C   0  0  0  0  0  0  0  0  0  0  0  0
    7.7057  -13.9907   20.3644 C   0  0  1  0  0  0  0  0  0  0  0  0
    8.7173  -12.8313   20.4421 C   0  0  0  0  0  0  0  0  0  0  0  0
    8.0077  -14.9225   21.4689 C   0  0  0  0  0  0  0  0  0  0  0  0
    9.3282  -15.5873   21.5050 C   0  0  2  0  0  0  0  0  0  0  0  0
    9.5078  -16.5319   20.4114 N   0  0  0  0  0  0  0  0  0  0  0  0
    9.6520  -16.2652   22.7606 C   0  0  0  0  0  0  0  0  0  0  0  0
    9.3237  -17.4684   22.9192 O   0  0  0  0  0  0  0  0  0  0  0  0
   10.3362  -15.6497   23.8497 N   0  0  0  0  0  0  0  0  0  0  0  0
   10.5358  -16.3803   25.0861 C   0  0  1  0  0  0  0  0  0  0  0  0
   11.3200  -15.4215   25.9821 C   0  0  0  0  0  0  0  0  0  0  0  0
   10.4765  -14.4702   26.7003 C   0  0  0  0  0  0  0  0  0  0  0  0
   10.4672  -14.4883   28.0950 C   0  0  0  0  0  0  0  0  0  0  0  0
    9.6885  -13.6092   28.8188 C   0  0  0  0  0  0  0  0  0  0  0  0
    8.8880  -12.6771   28.1880 C   0  0  0  0  0  0  0  0  0  0  0  0
    8.8824  -12.6425   26.8239 C   0  0  0  0  0  0  0  0  0  0  0  0
    9.6647  -13.5258   26.1092 C   0  0  0  0  0  0  0  0  0  0  0  0
    9.3032  -16.8372   25.7284 C   0  0  0  0  0  0  0  0  0  0  0  0
    8.1480  -16.4293   25.3577 O   0  0  0  0  0  0  0  0  0  0  0  0
    9.2764  -17.7403   26.7803 O   0  0  0  0  0  0  0  0  0  0  0  0
  2  3  2  0
  2  1  1  0
  4  2  1  0
  5  4  1  0
  6  5  1  0
  6  7  1  6
  8  6  1  0
  9  8  2  0
 11 10  1  1
 11 13  1  0
 11 12  1  0
 14 13  1  1
 14 16  1  0
 14 15  1  0
 15  8  1  0
 16 18  1  0
 17 16  2  0
 18 19  1  0
 19 20  1  1
 19 27  1  0
 21 20  1  0
 22 21  2  0
 23 22  1  0
 24 25  1  0
 24 23  2  0
 25 26  2  0
 26 21  1  0
 27 28  2  0
 27 29  1  0
M  END
$$$$
