QLF.pdb
     RDKit          3D

 29 29  0  0  1  0  0  0  0  0999 V2000
   13.1761  -20.5526   20.9334 N   0  0  0  0  0  0  0  0  0  0  0  0
   12.4937  -20.2918   19.7218 C   0  0  0  0  0  0  0  0  0  0  0  0
   13.1275  -20.0064   18.6847 O   0  0  0  0  0  0  0  0  0  0  0  0
   11.0168  -20.3601   19.6921 C   0  0  0  0  0  0  0  0  0  0  0  0
   10.4018  -19.6404   20.8787 C   0  0  0  0  0  0  0  0  0  0  0  0
    9.3481  -18.6956   20.3278 C   0  0  2  0  0  0  0  0  0  0  0  0
    9.4409  -18.7105   18.8970 N   0  0  0  0  0  0  0  0  0  0  0  0
    9.6912  -17.3402   20.8181 C   0  0  0  0  0  0  0  0  0  0  0  0
   10.8300  -16.8788   20.6135 O   0  0  0  0  0  0  0  0  0  0  0  0
    6.2288  -13.1451   20.2512 C   0  0  0  0  0  0  0  0  0  0  0  0
    7.4707  -13.9839   20.3452 C   0  0  1  0  0  0  0  0  0  0  0  0
    8.6212  -13.2353   19.6455 C   0  0  0  0  0  0  0  0  0  0  0  0
    7.9052  -14.2838   21.7238 C   0  0  0  0  0  0  0  0  0  0  0  0
    9.0373  -15.2122   21.9324 C   0  0  2  0  0  0  0  0  0  0  0  0
    8.7273  -16.5730   21.5169 N   0  0  0  0  0  0  0  0  0  0  0  0
    9.5680  -15.2536   23.2954 C   0  0  0  0  0  0  0  0  0  0  0  0
   10.1018  -14.2262   23.7852 O   0  0  0  0  0  0  0  0  0  0  0  0
    9.5212  -16.4025   24.1385 N   0  0  0  0  0  0  0  0  0  0  0  0
    9.1414  -16.2647   25.5310 C   0  0  1  0  0  0  0  0  0  0  0  0
    7.7856  -15.5592   25.4964 C   0  0  0  0  0  0  0  0  0  0  0  0
    7.8156  -14.2069   26.0466 C   0  0  0  0  0  0  0  0  0  0  0  0
    6.6224  -13.4940   26.1628 C   0  0  0  0  0  0  0  0  0  0  0  0
    6.5983  -12.2143   26.6775 C   0  0  0  0  0  0  0  0  0  0  0  0
    7.7571  -11.5908   27.0974 C   0  0  0  0  0  0  0  0  0  0  0  0
    8.9355  -12.2708   26.9923 C   0  0  0  0  0  0  0  0  0  0  0  0
    8.9488  -13.5501   26.4763 C   0  0  0  0  0  0  0  0  0  0  0  0
    9.0784  -17.5247   26.2719 C   0  0  0  0  0  0  0  0  0  0  0  0
    9.1686  -17.5722   27.5477 O   0  0  0  0  0  0  0  0  0  0  0  0
    8.9167  -18.7621   25.6672 O   0  0  0  0  0  0  0  0  0  0  0  0
  2  3  2  0
  2  1  1  0
  4  2  1  0
  5  4  1  0
  6  5  1  0
  6  7  1  6
  8  6  1  0
  9  8  2  0
 11 10  1  1
 11 13  1  0
 11 12  1  0
 14 13  1  1
 14 16  1  0
 14 15  1  0
 15  8  1  0
 16 18  1  0
 17 16  2  0
 18 19  1  0
 19 20  1  6
 19 27  1  0
 21 20  1  0
 22 21  2  0
 23 22  1  0
 24 25  1  0
 24 23  2  0
 25 26  2  0
 26 21  1  0
 27 28  2  0
 27 29  1  0
M  END
$$$$
