QLF.pdb
     RDKit          3D

 29 29  0  0  1  0  0  0  0  0999 V2000
   15.0629  -18.3838   19.2458 N   0  0  0  0  0  0  0  0  0  0  0  0
   14.2703  -18.6904   18.1146 C   0  0  0  0  0  0  0  0  0  0  0  0
   14.7338  -19.3791   17.1822 O   0  0  0  0  0  0  0  0  0  0  0  0
   12.8817  -18.1867   18.0439 C   0  0  0  0  0  0  0  0  0  0  0  0
   12.5080  -17.4061   19.2910 C   0  0  0  0  0  0  0  0  0  0  0  0
   11.1588  -17.9274   19.7537 C   0  0  2  0  0  0  0  0  0  0  0  0
   10.2782  -17.9499   18.6223 N   0  0  0  0  0  0  0  0  0  0  0  0
   10.6426  -16.9556   20.7459 C   0  0  0  0  0  0  0  0  0  0  0  0
   11.3886  -16.5453   21.6552 O   0  0  0  0  0  0  0  0  0  0  0  0
    6.5478  -13.2818   19.3198 C   0  0  0  0  0  0  0  0  0  0  0  0
    7.8166  -13.9110   19.8188 C   0  0  1  0  0  0  0  0  0  0  0  0
    8.8231  -12.7910   20.1449 C   0  0  0  0  0  0  0  0  0  0  0  0
    7.6560  -14.7355   21.0328 C   0  0  0  0  0  0  0  0  0  0  0  0
    8.8289  -15.4608   21.5668 C   0  0  2  0  0  0  0  0  0  0  0  0
    9.3058  -16.4957   20.6602 N   0  0  0  0  0  0  0  0  0  0  0  0
    8.6463  -16.0540   22.8919 C   0  0  0  0  0  0  0  0  0  0  0  0
    8.4562  -17.2923   22.9969 O   0  0  0  0  0  0  0  0  0  0  0  0
    8.6725  -15.3147   24.1108 N   0  0  0  0  0  0  0  0  0  0  0  0
    8.4062  -15.9829   25.3697 C   0  0  1  0  0  0  0  0  0  0  0  0
    8.7836  -14.9595   26.4408 C   0  0  0  0  0  0  0  0  0  0  0  0
    7.9501  -13.7606   26.4238 C   0  0  0  0  0  0  0  0  0  0  0  0
    8.1495  -12.8084   25.4243 C   0  0  0  0  0  0  0  0  0  0  0  0
    7.3871  -11.6603   25.3647 C   0  0  0  0  0  0  0  0  0  0  0  0
    6.3964  -11.4109   26.2943 C   0  0  0  0  0  0  0  0  0  0  0  0
    6.1849  -12.3298   27.2806 C   0  0  0  0  0  0  0  0  0  0  0  0
    6.9527  -13.4748   27.3315 C   0  0  0  0  0  0  0  0  0  0  0  0
    7.0298  -16.4528   25.5296 C   0  0  0  0  0  0  0  0  0  0  0  0
    6.0980  -16.1277   24.7146 O   0  0  0  0  0  0  0  0  0  0  0  0
    6.6179  -17.2810   26.5626 O   0  0  0  0  0  0  0  0  0  0  0  0
  2  3  2  0
  2  1  1  0
  4  2  1  0
  5  4  1  0
  6  5  1  0
  6  7  1  6
  8  6  1  0
  9  8  2  0
 11 10  1  1
 11 13  1  0
 11 12  1  0
 14 13  1  6
 14 16  1  0
 14 15  1  0
 15  8  1  0
 16 18  1  0
 17 16  2  0
 18 19  1  0
 19 20  1  1
 19 27  1  0
 21 20  1  0
 22 21  2  0
 23 22  1  0
 24 25  1  0
 24 23  2  0
 25 26  2  0
 26 21  1  0
 27 28  2  0
 27 29  1  0
M  END
$$$$
