QLF.pdb
     RDKit          3D

 29 29  0  0  1  0  0  0  0  0999 V2000
   11.9445  -19.8418   16.7764 N   0  0  0  0  0  0  0  0  0  0  0  0
   11.3770  -20.8812   17.5504 C   0  0  0  0  0  0  0  0  0  0  0  0
   11.3037  -22.0425   17.0980 O   0  0  0  0  0  0  0  0  0  0  0  0
   10.8685  -20.5812   18.9063 C   0  0  0  0  0  0  0  0  0  0  0  0
   11.0333  -19.1120   19.2506 C   0  0  0  0  0  0  0  0  0  0  0  0
   10.6325  -18.9493   20.7064 C   0  0  2  0  0  0  0  0  0  0  0  0
    9.3230  -19.5092   20.8731 N   0  0  0  0  0  0  0  0  0  0  0  0
   10.5706  -17.4930   20.9723 C   0  0  0  0  0  0  0  0  0  0  0  0
   11.6213  -16.8245   21.0002 O   0  0  0  0  0  0  0  0  0  0  0  0
    8.5974  -12.5395   20.3475 C   0  0  0  0  0  0  0  0  0  0  0  0
    7.7568  -13.3897   21.2560 C   0  0  1  0  0  0  0  0  0  0  0  0
    6.2725  -13.0870   20.9750 C   0  0  0  0  0  0  0  0  0  0  0  0
    7.9555  -14.8434   21.0929 C   0  0  0  0  0  0  0  0  0  0  0  0
    9.2592  -15.4347   21.4637 C   0  0  2  0  0  0  0  0  0  0  0  0
    9.3209  -16.8643   21.1941 N   0  0  0  0  0  0  0  0  0  0  0  0
    9.6782  -15.2056   22.8469 C   0  0  0  0  0  0  0  0  0  0  0  0
   10.0528  -14.0588   23.2003 O   0  0  0  0  0  0  0  0  0  0  0  0
    9.6905  -16.2119   23.8570 N   0  0  0  0  0  0  0  0  0  0  0  0
    9.2686  -15.8897   25.2063 C   0  0  1  0  0  0  0  0  0  0  0  0
    7.8265  -15.4047   25.0574 C   0  0  0  0  0  0  0  0  0  0  0  0
    7.5908  -14.0845   25.6353 C   0  0  0  0  0  0  0  0  0  0  0  0
    8.6814  -13.2640   25.9227 C   0  0  0  0  0  0  0  0  0  0  0  0
    8.5107  -12.0082   26.4678 C   0  0  0  0  0  0  0  0  0  0  0  0
    7.2511  -11.5164   26.7495 C   0  0  0  0  0  0  0  0  0  0  0  0
    6.1703  -12.3032   26.4759 C   0  0  0  0  0  0  0  0  0  0  0  0
    6.3517  -13.5575   25.9308 C   0  0  0  0  0  0  0  0  0  0  0  0
    9.3730  -16.9969   26.1569 C   0  0  0  0  0  0  0  0  0  0  0  0
    9.6493  -16.8122   27.3930 O   0  0  0  0  0  0  0  0  0  0  0  0
    9.1838  -18.3259   25.8093 O   0  0  0  0  0  0  0  0  0  0  0  0
  2  3  2  0
  2  1  1  0
  4  2  1  0
  5  4  1  0
  6  5  1  0
  6  7  1  6
  8  6  1  0
  9  8  2  0
 11 10  1  6
 11 13  1  0
 11 12  1  0
 14 13  1  1
 14 16  1  0
 14 15  1  0
 15  8  1  0
 16 18  1  0
 17 16  2  0
 18 19  1  0
 19 20  1  6
 19 27  1  0
 21 20  1  0
 22 21  2  0
 23 22  1  0
 24 25  1  0
 24 23  2  0
 25 26  2  0
 26 21  1  0
 27 28  2  0
 27 29  1  0
M  END
$$$$
