QLF.pdb
     RDKit          3D

 29 29  0  0  1  0  0  0  0  0999 V2000
    4.4994  -18.9831   20.3954 N   0  0  0  0  0  0  0  0  0  0  0  0
    5.3712  -20.0422   20.0492 C   0  0  0  0  0  0  0  0  0  0  0  0
    4.9192  -21.1739   19.7781 O   0  0  0  0  0  0  0  0  0  0  0  0
    6.8292  -19.7982   20.0103 C   0  0  0  0  0  0  0  0  0  0  0  0
    7.1607  -18.3514   20.3285 C   0  0  0  0  0  0  0  0  0  0  0  0
    8.0471  -18.3596   21.5616 C   0  0  2  0  0  0  0  0  0  0  0  0
    7.3881  -19.1259   22.5787 N   0  0  0  0  0  0  0  0  0  0  0  0
    8.1603  -16.9539   22.0158 C   0  0  0  0  0  0  0  0  0  0  0  0
    8.6344  -16.0932   21.2501 O   0  0  0  0  0  0  0  0  0  0  0  0
    7.2349  -12.2963   24.5482 C   0  0  0  0  0  0  0  0  0  0  0  0
    7.2384  -13.4841   25.4668 C   0  0  1  0  0  0  0  0  0  0  0  0
    6.1115  -13.3055   26.5022 C   0  0  0  0  0  0  0  0  0  0  0  0
    7.0260  -14.7806   24.7936 C   0  0  0  0  0  0  0  0  0  0  0  0
    8.0527  -15.2758   23.8516 C   0  0  2  0  0  0  0  0  0  0  0  0
    7.7311  -16.5910   23.3158 N   0  0  0  0  0  0  0  0  0  0  0  0
    9.4178  -15.3110   24.3774 C   0  0  0  0  0  0  0  0  0  0  0  0
   10.1573  -14.3019   24.2530 O   0  0  0  0  0  0  0  0  0  0  0  0
    9.9903  -16.4336   25.0445 N   0  0  0  0  0  0  0  0  0  0  0  0
   11.3935  -16.4217   25.4095 C   0  0  1  0  0  0  0  0  0  0  0  0
   11.4142  -16.8124   26.8874 C   0  0  0  0  0  0  0  0  0  0  0  0
   10.9269  -15.7620   27.7771 C   0  0  0  0  0  0  0  0  0  0  0  0
   10.7876  -14.4646   27.2843 C   0  0  0  0  0  0  0  0  0  0  0  0
   10.3300  -13.4383   28.0846 C   0  0  0  0  0  0  0  0  0  0  0  0
    9.9925  -13.6582   29.4058 C   0  0  0  0  0  0  0  0  0  0  0  0
   10.1214  -14.9205   29.9078 C   0  0  0  0  0  0  0  0  0  0  0  0
   10.5798  -15.9399   29.0993 C   0  0  0  0  0  0  0  0  0  0  0  0
   12.2391  -17.3027   24.6037 C   0  0  0  0  0  0  0  0  0  0  0  0
   11.7559  -18.0928   23.7203 O   0  0  0  0  0  0  0  0  0  0  0  0
   13.6195  -17.3590   24.7224 O   0  0  0  0  0  0  0  0  0  0  0  0
  2  3  2  0
  2  1  1  0
  4  2  1  0
  5  4  1  0
  6  5  1  0
  6  7  1  1
  8  6  1  0
  9  8  2  0
 11 10  1  6
 11 13  1  0
 11 12  1  0
 14 13  1  1
 14 16  1  0
 14 15  1  0
 15  8  1  0
 16 18  1  0
 17 16  2  0
 18 19  1  0
 19 20  1  1
 19 27  1  0
 21 20  1  0
 22 21  2  0
 23 22  1  0
 24 25  1  0
 24 23  2  0
 25 26  2  0
 26 21  1  0
 27 28  2  0
 27 29  1  0
M  END
$$$$
