FND.pdb
     RDKit          3D

 28 28  0  0  1  0  0  0  0  0999 V2000
   28.3308  -21.1237   -8.7916 N   0  0  0  0  0  0  0  0  0  0  0  0
   26.9270  -20.8401   -8.7239 C   0  0  1  0  0  0  0  0  0  0  0  0
   26.7352  -19.6436   -7.8086 C   0  0  0  0  0  0  0  0  0  0  0  0
   27.4038  -19.8561   -6.4981 C   0  0  0  0  0  0  0  0  0  0  0  0
   26.8192  -20.7319   -5.6248 C   0  0  0  0  0  0  0  0  0  0  0  0
   27.4213  -20.9438   -4.4053 C   0  0  0  0  0  0  0  0  0  0  0  0
   28.5950  -20.2685   -4.0975 C   0  0  0  0  0  0  0  0  0  0  0  0
   29.1636  -19.3958   -4.9863 C   0  0  0  0  0  0  0  0  0  0  0  0
   28.5551  -19.1927   -6.1982 C   0  0  0  0  0  0  0  0  0  0  0  0
   26.3732  -20.4316  -10.0545 C   0  0  0  0  0  0  0  0  0  0  0  0
   26.8293  -19.4059  -10.6193 O   0  0  0  0  0  0  0  0  0  0  0  0
   27.7765  -22.5161  -13.3497 N   0  0  0  0  0  0  0  0  0  0  0  0
   26.5768  -21.7793  -13.6784 C   0  0  0  0  0  0  0  0  0  0  0  0
   26.6724  -21.0404  -14.6547 O   0  0  0  0  0  0  0  0  0  0  0  0
   25.4380  -22.0026  -12.8309 C   0  0  0  0  0  0  0  0  0  0  0  0
   24.8482  -20.8756  -12.0377 C   0  0  2  0  0  0  0  0  0  0  0  0
   25.3549  -21.1936  -10.6567 N   0  0  0  0  0  0  0  0  0  0  0  0
   23.3900  -20.8282  -11.9502 C   0  0  0  0  0  0  0  0  0  0  0  0
   22.8398  -21.3245  -10.8962 O   0  0  0  0  0  0  0  0  0  0  0  0
   22.5036  -20.2883  -12.8994 N   0  0  0  0  0  0  0  0  0  0  0  0
   21.0837  -20.1987  -12.5828 C   0  0  1  0  0  0  0  0  0  0  0  0
   20.5133  -18.8861  -13.0890 C   0  0  0  0  0  0  0  0  0  0  0  0
   19.0658  -18.8726  -12.8014 C   0  0  0  0  0  0  0  0  0  0  0  0
   18.6761  -19.1685  -11.6484 O   0  0  0  0  0  0  0  0  0  0  0  0
   20.3935  -21.3735  -13.1232 C   0  0  0  0  0  0  0  0  0  0  0  0
   20.6673  -21.9267  -14.2041 O   0  0  0  0  0  0  0  0  0  0  0  0
   18.1071  -18.5475  -13.7476 O   0  0  0  0  0  0  0  0  0  0  0  0
   19.3407  -21.9301  -12.3776 O   0  0  0  0  0  0  0  0  0  0  0  0
  2  1  1  6
  2  3  1  0
  3  4  1  0
  4  5  2  0
  5  6  1  0
  7  6  2  0
  8  7  1  0
  9  4  1  0
  9  8  2  0
 10 11  2  0
 10  2  1  0
 12 13  1  0
 13 14  2  0
 16 15  1  6
 15 13  1  0
 16 18  1  0
 16 17  1  0
 17 10  1  0
 18 20  1  0
 19 18  2  0
 20 21  1  0
 21 22  1  6
 22 23  1  0
 23 27  1  0
 24 23  2  0
 25 28  1  0
 25 21  1  0
 26 25  2  0
M  END
$$$$
