FND.pdb
     RDKit          3D

 28 28  0  0  1  0  0  0  0  0999 V2000
   28.5381  -21.2024   -9.0723 N   0  0  0  0  0  0  0  0  0  0  0  0
   27.1803  -20.7420   -9.0497 C   0  0  1  0  0  0  0  0  0  0  0  0
   27.1438  -19.4305   -8.2851 C   0  0  0  0  0  0  0  0  0  0  0  0
   27.6269  -19.6071   -6.8904 C   0  0  0  0  0  0  0  0  0  0  0  0
   26.7937  -20.2387   -6.0081 C   0  0  0  0  0  0  0  0  0  0  0  0
   27.2207  -20.4129   -4.7112 C   0  0  0  0  0  0  0  0  0  0  0  0
   28.4743  -19.9468   -4.3374 C   0  0  0  0  0  0  0  0  0  0  0  0
   29.2927  -19.3172   -5.2366 C   0  0  0  0  0  0  0  0  0  0  0  0
   28.8569  -19.1493   -6.5258 C   0  0  0  0  0  0  0  0  0  0  0  0
   26.6717  -20.4301  -10.4238 C   0  0  0  0  0  0  0  0  0  0  0  0
   27.4337  -19.8603  -11.2446 O   0  0  0  0  0  0  0  0  0  0  0  0
   25.7056  -22.6660  -15.0334 N   0  0  0  0  0  0  0  0  0  0  0  0
   26.3047  -22.2531  -13.7841 C   0  0  0  0  0  0  0  0  0  0  0  0
   27.5140  -22.0446  -13.8320 O   0  0  0  0  0  0  0  0  0  0  0  0
   25.4194  -22.1404  -12.6578 C   0  0  0  0  0  0  0  0  0  0  0  0
   24.9131  -20.7990  -12.2202 C   0  0  2  0  0  0  0  0  0  0  0  0
   25.3552  -20.7748  -10.7817 N   0  0  0  0  0  0  0  0  0  0  0  0
   23.4632  -20.6143  -12.2177 C   0  0  0  0  0  0  0  0  0  0  0  0
   22.7909  -21.1875  -11.2799 O   0  0  0  0  0  0  0  0  0  0  0  0
   22.7054  -19.8646  -13.1353 N   0  0  0  0  0  0  0  0  0  0  0  0
   21.2634  -19.7559  -12.9524 C   0  0  1  0  0  0  0  0  0  0  0  0
   20.7189  -18.5829  -13.7474 C   0  0  0  0  0  0  0  0  0  0  0  0
   19.2663  -18.4959  -13.5017 C   0  0  0  0  0  0  0  0  0  0  0  0
   18.8400  -18.6582  -12.3351 O   0  0  0  0  0  0  0  0  0  0  0  0
   20.6346  -21.0323  -13.3046 C   0  0  0  0  0  0  0  0  0  0  0  0
   20.8921  -21.6962  -14.3255 O   0  0  0  0  0  0  0  0  0  0  0  0
   18.3412  -18.2423  -14.5017 O   0  0  0  0  0  0  0  0  0  0  0  0
   19.6656  -21.5607  -12.4351 O   0  0  0  0  0  0  0  0  0  0  0  0
  2  1  1  6
  2  3  1  0
  3  4  1  0
  4  5  2  0
  5  6  1  0
  7  6  2  0
  8  7  1  0
  9  4  1  0
  9  8  2  0
 10 11  2  0
 10  2  1  0
 12 13  1  0
 13 14  2  0
 16 15  1  1
 15 13  1  0
 16 18  1  0
 16 17  1  0
 17 10  1  0
 18 20  1  0
 19 18  2  0
 20 21  1  0
 21 22  1  6
 22 23  1  0
 23 27  1  0
 24 23  2  0
 25 28  1  0
 25 21  1  0
 26 25  2  0
M  END
$$$$
