FND.pdb
     RDKit          3D

 28 28  0  0  1  0  0  0  0  0999 V2000
   24.7613  -11.8175  -17.6681 N   0  0  0  0  0  0  0  0  0  0  0  0
   24.4616  -11.2689  -16.3776 C   0  0  1  0  0  0  0  0  0  0  0  0
   25.6663  -10.4657  -15.9197 C   0  0  0  0  0  0  0  0  0  0  0  0
   26.8996  -11.2956  -15.9241 C   0  0  0  0  0  0  0  0  0  0  0  0
   26.8984  -12.4336  -15.1648 C   0  0  0  0  0  0  0  0  0  0  0  0
   28.0300  -13.2171  -15.1539 C   0  0  0  0  0  0  0  0  0  0  0  0
   29.1320  -12.8343  -15.9072 C   0  0  0  0  0  0  0  0  0  0  0  0
   29.1122  -11.6910  -16.6605 C   0  0  0  0  0  0  0  0  0  0  0  0
   27.9794  -10.9184  -16.6637 C   0  0  0  0  0  0  0  0  0  0  0  0
   23.3197  -10.3009  -16.4319 C   0  0  0  0  0  0  0  0  0  0  0  0
   23.0598   -9.7199  -17.5154 O   0  0  0  0  0  0  0  0  0  0  0  0
   19.7036  -11.3884  -16.2386 N   0  0  0  0  0  0  0  0  0  0  0  0
   19.5833  -11.0398  -14.8407 C   0  0  0  0  0  0  0  0  0  0  0  0
   18.7746  -11.7113  -14.2057 O   0  0  0  0  0  0  0  0  0  0  0  0
   20.4158   -9.9641  -14.3770 C   0  0  0  0  0  0  0  0  0  0  0  0
   21.2996   -9.2207  -15.3327 C   0  0  2  0  0  0  0  0  0  0  0  0
   22.5532  -10.0517  -15.2784 N   0  0  0  0  0  0  0  0  0  0  0  0
   21.6792   -7.8614  -14.9528 C   0  0  0  0  0  0  0  0  0  0  0  0
   22.4261   -7.7200  -13.9124 O   0  0  0  0  0  0  0  0  0  0  0  0
   21.3205   -6.6695  -15.6077 N   0  0  0  0  0  0  0  0  0  0  0  0
   21.8942   -5.4066  -15.1603 C   0  0  1  0  0  0  0  0  0  0  0  0
   22.4302   -4.6229  -16.3449 C   0  0  0  0  0  0  0  0  0  0  0  0
   22.8637   -3.2977  -15.8610 C   0  0  0  0  0  0  0  0  0  0  0  0
   21.9992   -2.4116  -15.6702 O   0  0  0  0  0  0  0  0  0  0  0  0
   20.8917   -4.6680  -14.3869 C   0  0  0  0  0  0  0  0  0  0  0  0
   21.1445   -3.7529  -13.5820 O   0  0  0  0  0  0  0  0  0  0  0  0
   24.1877   -2.9791  -15.6049 O   0  0  0  0  0  0  0  0  0  0  0  0
   19.5383   -5.0059  -14.5546 O   0  0  0  0  0  0  0  0  0  0  0  0
  2  1  1  6
  2  3  1  0
  3  4  1  0
  4  5  2  0
  5  6  1  0
  7  6  2  0
  8  7  1  0
  9  4  1  0
  9  8  2  0
 10 11  2  0
 10  2  1  0
 12 13  1  0
 13 14  2  0
 16 15  1  1
 15 13  1  0
 16 18  1  0
 16 17  1  0
 17 10  1  0
 18 20  1  0
 19 18  2  0
 20 21  1  0
 21 22  1  6
 22 23  1  0
 23 27  1  0
 24 23  2  0
 25 28  1  0
 25 21  1  0
 26 25  2  0
M  END
$$$$
