FND.pdb
     RDKit          3D

 28 28  0  0  1  0  0  0  0  0999 V2000
   24.3257  -11.0563  -17.2628 N   0  0  0  0  0  0  0  0  0  0  0  0
   23.7746   -9.9237  -16.5776 C   0  0  1  0  0  0  0  0  0  0  0  0
   24.8766   -8.8907  -16.4201 C   0  0  0  0  0  0  0  0  0  0  0  0
   26.1966   -9.5404  -16.2073 C   0  0  0  0  0  0  0  0  0  0  0  0
   27.1870   -9.2706  -17.1116 C   0  0  0  0  0  0  0  0  0  0  0  0
   28.4174   -9.8616  -16.9340 C   0  0  0  0  0  0  0  0  0  0  0  0
   28.6177  -10.7080  -15.8515 C   0  0  0  0  0  0  0  0  0  0  0  0
   27.6124  -10.9646  -14.9578 C   0  0  0  0  0  0  0  0  0  0  0  0
   26.3910  -10.3702  -15.1447 C   0  0  0  0  0  0  0  0  0  0  0  0
   22.6973   -9.2558  -17.3759 C   0  0  0  0  0  0  0  0  0  0  0  0
   22.6542   -9.4363  -18.6187 O   0  0  0  0  0  0  0  0  0  0  0  0
   19.6471  -11.3882  -17.8112 N   0  0  0  0  0  0  0  0  0  0  0  0
   19.5924  -10.0444  -18.3417 C   0  0  0  0  0  0  0  0  0  0  0  0
   19.5572   -9.9709  -19.5671 O   0  0  0  0  0  0  0  0  0  0  0  0
   19.5862   -8.9776  -17.3789 C   0  0  0  0  0  0  0  0  0  0  0  0
   20.5780   -7.8580  -17.4786 C   0  0  2  0  0  0  0  0  0  0  0  0
   21.7496   -8.4380  -16.7329 N   0  0  0  0  0  0  0  0  0  0  0  0
   20.2271   -6.6093  -16.8048 C   0  0  0  0  0  0  0  0  0  0  0  0
   20.2741   -6.5932  -15.5173 O   0  0  0  0  0  0  0  0  0  0  0  0
   19.8425   -5.4005  -17.4123 N   0  0  0  0  0  0  0  0  0  0  0  0
   19.3910   -4.2929  -16.5794 C   0  0  1  0  0  0  0  0  0  0  0  0
   19.5405   -2.9788  -17.3245 C   0  0  0  0  0  0  0  0  0  0  0  0
   20.9814   -2.7007  -17.4814 C   0  0  0  0  0  0  0  0  0  0  0  0
   21.7098   -2.6929  -16.4624 O   0  0  0  0  0  0  0  0  0  0  0  0
   18.0179   -4.5509  -16.1359 C   0  0  0  0  0  0  0  0  0  0  0  0
   17.2774   -5.4420  -16.5907 O   0  0  0  0  0  0  0  0  0  0  0  0
   21.5760   -2.4454  -18.7067 O   0  0  0  0  0  0  0  0  0  0  0  0
   17.4814   -3.7403  -15.1214 O   0  0  0  0  0  0  0  0  0  0  0  0
  2  1  1  6
  2  3  1  0
  3  4  1  0
  4  5  2  0
  5  6  1  0
  7  6  2  0
  8  7  1  0
  9  4  1  0
  9  8  2  0
 10 11  2  0
 10  2  1  0
 12 13  1  0
 13 14  2  0
 16 15  1  1
 15 13  1  0
 16 18  1  0
 16 17  1  0
 17 10  1  0
 18 20  1  0
 19 18  2  0
 20 21  1  0
 21 22  1  6
 22 23  1  0
 23 27  1  0
 24 23  2  0
 25 28  1  0
 25 21  1  0
 26 25  2  0
M  END
$$$$
