FND.pdb
     RDKit          3D

 28 28  0  0  1  0  0  0  0  0999 V2000
   28.1469  -21.3429   -9.4698 N   0  0  0  0  0  0  0  0  0  0  0  0
   26.7491  -21.0536   -9.3346 C   0  0  1  0  0  0  0  0  0  0  0  0
   26.6135  -19.7458   -8.5748 C   0  0  0  0  0  0  0  0  0  0  0  0
   27.1665  -19.8625   -7.1998 C   0  0  0  0  0  0  0  0  0  0  0  0
   28.3369  -19.2071   -6.9315 C   0  0  0  0  0  0  0  0  0  0  0  0
   28.8671  -19.3017   -5.6647 C   0  0  0  0  0  0  0  0  0  0  0  0
   28.2053  -20.0532   -4.7026 C   0  0  0  0  0  0  0  0  0  0  0  0
   27.0346  -20.7016   -4.9924 C   0  0  0  0  0  0  0  0  0  0  0  0
   26.5157  -20.6002   -6.2576 C   0  0  0  0  0  0  0  0  0  0  0  0
   26.0931  -20.8267  -10.6620 C   0  0  0  0  0  0  0  0  0  0  0  0
   26.6909  -20.1458  -11.5326 O   0  0  0  0  0  0  0  0  0  0  0  0
   25.9914  -24.3747  -13.5197 N   0  0  0  0  0  0  0  0  0  0  0  0
   25.5834  -22.9879  -13.5443 C   0  0  0  0  0  0  0  0  0  0  0  0
   26.3085  -22.2448  -14.2003 O   0  0  0  0  0  0  0  0  0  0  0  0
   24.3949  -22.6589  -12.8066 C   0  0  0  0  0  0  0  0  0  0  0  0
   24.1861  -21.2705  -12.2815 C   0  0  2  0  0  0  0  0  0  0  0  0
   24.8227  -21.3735  -10.9216 N   0  0  0  0  0  0  0  0  0  0  0  0
   22.8023  -20.8515  -12.0675 C   0  0  0  0  0  0  0  0  0  0  0  0
   22.2638  -21.1316  -10.9310 O   0  0  0  0  0  0  0  0  0  0  0  0
   21.9787  -20.1607  -12.9744 N   0  0  0  0  0  0  0  0  0  0  0  0
   20.5898  -19.8954  -12.6208 C   0  0  1  0  0  0  0  0  0  0  0  0
   19.9710  -18.9241  -13.6100 C   0  0  0  0  0  0  0  0  0  0  0  0
   20.4402  -17.5655  -13.2749 C   0  0  0  0  0  0  0  0  0  0  0  0
   20.3874  -17.1849  -12.0827 O   0  0  0  0  0  0  0  0  0  0  0  0
   19.8639  -21.1655  -12.5294 C   0  0  0  0  0  0  0  0  0  0  0  0
   18.8503  -21.3589  -11.8333 O   0  0  0  0  0  0  0  0  0  0  0  0
   20.9400  -16.6813  -14.2174 O   0  0  0  0  0  0  0  0  0  0  0  0
   20.3341  -22.2577  -13.2778 O   0  0  0  0  0  0  0  0  0  0  0  0
  2  1  1  6
  2  3  1  0
  3  4  1  0
  4  5  2  0
  5  6  1  0
  7  6  2  0
  8  7  1  0
  9  4  1  0
  9  8  2  0
 10 11  2  0
 10  2  1  0
 12 13  1  0
 13 14  2  0
 16 15  1  1
 15 13  1  0
 16 18  1  0
 16 17  1  0
 17 10  1  0
 18 20  1  0
 19 18  2  0
 20 21  1  0
 21 22  1  6
 22 23  1  0
 23 27  1  0
 24 23  2  0
 25 28  1  0
 25 21  1  0
 26 25  2  0
M  END
$$$$
