FND.pdb
     RDKit          3D

 28 28  0  0  1  0  0  0  0  0999 V2000
   28.5039  -20.8315   -8.4959 N   0  0  0  0  0  0  0  0  0  0  0  0
   27.0931  -20.6009   -8.3855 C   0  0  1  0  0  0  0  0  0  0  0  0
   26.8834  -19.4230   -7.4502 C   0  0  0  0  0  0  0  0  0  0  0  0
   27.5951  -19.6264   -6.1610 C   0  0  0  0  0  0  0  0  0  0  0  0
   27.2620  -20.7285   -5.4222 C   0  0  0  0  0  0  0  0  0  0  0  0
   27.9083  -20.9364   -4.2248 C   0  0  0  0  0  0  0  0  0  0  0  0
   28.8721  -20.0298   -3.8034 C   0  0  0  0  0  0  0  0  0  0  0  0
   29.1904  -18.9328   -4.5585 C   0  0  0  0  0  0  0  0  0  0  0  0
   28.5401  -18.7359   -5.7495 C   0  0  0  0  0  0  0  0  0  0  0  0
   26.4872  -20.1979   -9.6949 C   0  0  0  0  0  0  0  0  0  0  0  0
   26.6583  -19.0257  -10.1143 O   0  0  0  0  0  0  0  0  0  0  0  0
   28.5934  -21.6820  -12.6764 N   0  0  0  0  0  0  0  0  0  0  0  0
   27.3899  -21.0120  -13.1155 C   0  0  0  0  0  0  0  0  0  0  0  0
   27.5736  -20.0221  -13.8187 O   0  0  0  0  0  0  0  0  0  0  0  0
   26.1457  -21.5829  -12.6783 C   0  0  0  0  0  0  0  0  0  0  0  0
   25.2117  -20.7954  -11.8096 C   0  0  2  0  0  0  0  0  0  0  0  0
   25.7373  -21.1275  -10.4390 N   0  0  0  0  0  0  0  0  0  0  0  0
   23.8056  -21.1938  -11.8287 C   0  0  0  0  0  0  0  0  0  0  0  0
   23.1981  -21.2908  -10.6966 O   0  0  0  0  0  0  0  0  0  0  0  0
   23.0247  -21.4834  -12.9621 N   0  0  0  0  0  0  0  0  0  0  0  0
   21.6244  -21.0797  -12.9885 C   0  0  1  0  0  0  0  0  0  0  0  0
   21.5054  -19.5790  -12.7933 C   0  0  0  0  0  0  0  0  0  0  0  0
   20.0734  -19.2234  -12.8258 C   0  0  0  0  0  0  0  0  0  0  0  0
   19.5464  -18.9379  -13.9257 O   0  0  0  0  0  0  0  0  0  0  0  0
   21.0100  -21.5494  -14.2337 C   0  0  0  0  0  0  0  0  0  0  0  0
   19.9031  -22.1130  -14.3142 O   0  0  0  0  0  0  0  0  0  0  0  0
   19.2744  -19.1881  -11.6943 O   0  0  0  0  0  0  0  0  0  0  0  0
   21.7099  -21.3569  -15.4367 O   0  0  0  0  0  0  0  0  0  0  0  0
  2  1  1  6
  2  3  1  0
  3  4  1  0
  4  5  2  0
  5  6  1  0
  7  6  2  0
  8  7  1  0
  9  4  1  0
  9  8  2  0
 10 11  2  0
 10  2  1  0
 12 13  1  0
 13 14  2  0
 16 15  1  6
 15 13  1  0
 16 18  1  0
 16 17  1  0
 17 10  1  0
 18 20  1  0
 19 18  2  0
 20 21  1  0
 21 22  1  6
 22 23  1  0
 23 27  1  0
 24 23  2  0
 25 28  1  0
 25 21  1  0
 26 25  2  0
M  END
$$$$
