FND.pdb
     RDKit          3D

 28 28  0  0  1  0  0  0  0  0999 V2000
   26.5588  -22.1579  -10.0885 N   0  0  0  0  0  0  0  0  0  0  0  0
   26.0033  -20.8389  -10.1758 C   0  0  1  0  0  0  0  0  0  0  0  0
   27.1403  -19.8422  -10.0350 C   0  0  0  0  0  0  0  0  0  0  0  0
   27.7472  -19.9064   -8.6794 C   0  0  0  0  0  0  0  0  0  0  0  0
   27.0894  -19.2714   -7.6617 C   0  0  0  0  0  0  0  0  0  0  0  0
   27.6335  -19.3177   -6.3982 C   0  0  0  0  0  0  0  0  0  0  0  0
   28.8246  -20.0016   -6.1931 C   0  0  0  0  0  0  0  0  0  0  0  0
   29.4668  -20.6305   -7.2260 C   0  0  0  0  0  0  0  0  0  0  0  0
   28.9155  -20.5778   -8.4803 C   0  0  0  0  0  0  0  0  0  0  0  0
   25.3916  -20.5764  -11.5178 C   0  0  0  0  0  0  0  0  0  0  0  0
   24.9682  -19.4234  -11.7833 O   0  0  0  0  0  0  0  0  0  0  0  0
   27.8658  -22.5536  -14.9680 N   0  0  0  0  0  0  0  0  0  0  0  0
   26.7066  -21.7132  -15.1682 C   0  0  0  0  0  0  0  0  0  0  0  0
   26.9317  -20.6421  -15.7253 O   0  0  0  0  0  0  0  0  0  0  0  0
   25.4526  -22.2318  -14.6954 C   0  0  0  0  0  0  0  0  0  0  0  0
   24.5910  -21.4178  -13.7777 C   0  0  2  0  0  0  0  0  0  0  0  0
   25.2968  -21.6146  -12.4630 N   0  0  0  0  0  0  0  0  0  0  0  0
   23.2163  -21.8773  -13.5899 C   0  0  0  0  0  0  0  0  0  0  0  0
   22.9571  -22.5655  -12.5320 O   0  0  0  0  0  0  0  0  0  0  0  0
   22.1236  -21.6452  -14.4445 N   0  0  0  0  0  0  0  0  0  0  0  0
   20.7777  -21.5928  -13.8873 C   0  0  1  0  0  0  0  0  0  0  0  0
   20.2244  -20.1821  -13.9793 C   0  0  0  0  0  0  0  0  0  0  0  0
   18.8140  -20.2125  -13.5457 C   0  0  0  0  0  0  0  0  0  0  0  0
   18.4914  -20.9558  -12.5905 O   0  0  0  0  0  0  0  0  0  0  0  0
   19.9372  -22.5866  -14.5614 C   0  0  0  0  0  0  0  0  0  0  0  0
   19.9978  -22.8682  -15.7723 O   0  0  0  0  0  0  0  0  0  0  0  0
   17.8195  -19.4561  -14.1445 O   0  0  0  0  0  0  0  0  0  0  0  0
   18.9856  -23.2834  -13.7977 O   0  0  0  0  0  0  0  0  0  0  0  0
  2  1  1  6
  2  3  1  0
  3  4  1  0
  4  5  2  0
  5  6  1  0
  7  6  2  0
  8  7  1  0
  9  4  1  0
  9  8  2  0
 10 11  2  0
 10  2  1  0
 12 13  1  0
 13 14  2  0
 16 15  1  6
 15 13  1  0
 16 18  1  0
 16 17  1  0
 17 10  1  0
 18 20  1  0
 19 18  2  0
 20 21  1  0
 21 22  1  6
 22 23  1  0
 23 27  1  0
 24 23  2  0
 25 28  1  0
 25 21  1  0
 26 25  2  0
M  END
$$$$
