FND.pdb
     RDKit          3D

 28 28  0  0  1  0  0  0  0  0999 V2000
   24.5570  -10.5777  -17.9383 N   0  0  0  0  0  0  0  0  0  0  0  0
   24.3162  -10.0711  -16.6187 C   0  0  1  0  0  0  0  0  0  0  0  0
   25.5223   -9.2451  -16.2075 C   0  0  0  0  0  0  0  0  0  0  0  0
   26.7733  -10.0444  -16.2843 C   0  0  0  0  0  0  0  0  0  0  0  0
   26.8809  -11.1307  -15.4598 C   0  0  0  0  0  0  0  0  0  0  0  0
   28.0309  -11.8852  -15.5140 C   0  0  0  0  0  0  0  0  0  0  0  0
   29.0414  -11.5260  -16.3963 C   0  0  0  0  0  0  0  0  0  0  0  0
   28.9132  -10.4345  -17.2131 C   0  0  0  0  0  0  0  0  0  0  0  0
   27.7632   -9.6904  -17.1504 C   0  0  0  0  0  0  0  0  0  0  0  0
   23.1467   -9.1357  -16.5825 C   0  0  0  0  0  0  0  0  0  0  0  0
   22.8127   -8.5313  -17.6324 O   0  0  0  0  0  0  0  0  0  0  0  0
   18.4119   -7.5985  -14.8829 N   0  0  0  0  0  0  0  0  0  0  0  0
   19.0323   -8.5641  -14.0038 C   0  0  0  0  0  0  0  0  0  0  0  0
   18.2858   -9.0529  -13.1600 O   0  0  0  0  0  0  0  0  0  0  0  0
   20.4275   -8.8263  -14.2264 C   0  0  0  0  0  0  0  0  0  0  0  0
   21.1594   -8.1480  -15.3451 C   0  0  2  0  0  0  0  0  0  0  0  0
   22.4370   -8.9427  -15.3828 N   0  0  0  0  0  0  0  0  0  0  0  0
   21.5381   -6.7529  -15.1300 C   0  0  0  0  0  0  0  0  0  0  0  0
   22.4720   -6.5137  -14.2751 O   0  0  0  0  0  0  0  0  0  0  0  0
   20.9937   -5.6220  -15.7648 N   0  0  0  0  0  0  0  0  0  0  0  0
   21.5286   -4.3016  -15.4568 C   0  0  1  0  0  0  0  0  0  0  0  0
   22.1696   -3.6923  -16.6907 C   0  0  0  0  0  0  0  0  0  0  0  0
   22.6104   -2.3251  -16.3522 C   0  0  0  0  0  0  0  0  0  0  0  0
   22.4626   -1.9161  -15.1775 O   0  0  0  0  0  0  0  0  0  0  0  0
   20.4633   -3.4692  -14.8903 C   0  0  0  0  0  0  0  0  0  0  0  0
   19.2483   -3.6127  -15.1195 O   0  0  0  0  0  0  0  0  0  0  0  0
   23.1836   -1.4627  -17.2729 O   0  0  0  0  0  0  0  0  0  0  0  0
   20.8232   -2.4260  -14.0206 O   0  0  0  0  0  0  0  0  0  0  0  0
  2  1  1  6
  2  3  1  0
  3  4  1  0
  4  5  2  0
  5  6  1  0
  7  6  2  0
  8  7  1  0
  9  4  1  0
  9  8  2  0
 10 11  2  0
 10  2  1  0
 12 13  1  0
 13 14  2  0
 16 15  1  1
 15 13  1  0
 16 18  1  0
 16 17  1  0
 17 10  1  0
 18 20  1  0
 19 18  2  0
 20 21  1  0
 21 22  1  6
 22 23  1  0
 23 27  1  0
 24 23  2  0
 25 28  1  0
 25 21  1  0
 26 25  2  0
M  END
$$$$
