FND.pdb
     RDKit          3D

 28 28  0  0  1  0  0  0  0  0999 V2000
   23.1919  -10.0246  -17.6051 N   0  0  0  0  0  0  0  0  0  0  0  0
   22.6990   -9.4444  -16.3901 C   0  0  1  0  0  0  0  0  0  0  0  0
   23.7385   -8.4580  -15.8874 C   0  0  0  0  0  0  0  0  0  0  0  0
   25.0680   -9.1063  -15.7393 C   0  0  0  0  0  0  0  0  0  0  0  0
   26.0872   -8.6454  -16.5269 C   0  0  0  0  0  0  0  0  0  0  0  0
   27.3269   -9.2314  -16.4065 C   0  0  0  0  0  0  0  0  0  0  0  0
   27.5073  -10.2652  -15.4970 C   0  0  0  0  0  0  0  0  0  0  0  0
   26.4733  -10.7114  -14.7181 C   0  0  0  0  0  0  0  0  0  0  0  0
   25.2428  -10.1201  -14.8466 C   0  0  0  0  0  0  0  0  0  0  0  0
   21.4517   -8.6463  -16.6161 C   0  0  0  0  0  0  0  0  0  0  0  0
   21.3250   -7.9968  -17.6844 O   0  0  0  0  0  0  0  0  0  0  0  0
   17.4339  -10.0430  -16.7572 N   0  0  0  0  0  0  0  0  0  0  0  0
   17.3637   -9.7030  -15.3537 C   0  0  0  0  0  0  0  0  0  0  0  0
   16.5569  -10.3588  -14.7002 O   0  0  0  0  0  0  0  0  0  0  0  0
   18.2368   -8.6527  -14.9068 C   0  0  0  0  0  0  0  0  0  0  0  0
   19.1255   -7.9376  -15.8794 C   0  0  2  0  0  0  0  0  0  0  0  0
   20.4398   -8.6303  -15.6384 N   0  0  0  0  0  0  0  0  0  0  0  0
   19.3500   -6.5137  -15.6379 C   0  0  0  0  0  0  0  0  0  0  0  0
   20.3715   -6.1839  -14.9251 O   0  0  0  0  0  0  0  0  0  0  0  0
   18.5677   -5.4433  -16.1075 N   0  0  0  0  0  0  0  0  0  0  0  0
   19.0294   -4.0760  -15.9032 C   0  0  1  0  0  0  0  0  0  0  0  0
   20.3715   -3.8667  -16.5811 C   0  0  0  0  0  0  0  0  0  0  0  0
   20.6735   -2.4222  -16.5666 C   0  0  0  0  0  0  0  0  0  0  0  0
   20.9759   -1.8790  -15.4791 O   0  0  0  0  0  0  0  0  0  0  0  0
   17.9978   -3.1438  -16.3675 C   0  0  0  0  0  0  0  0  0  0  0  0
   17.1348   -3.4050  -17.2255 O   0  0  0  0  0  0  0  0  0  0  0  0
   20.6396   -1.6284  -17.7018 O   0  0  0  0  0  0  0  0  0  0  0  0
   17.9664   -1.8534  -15.8123 O   0  0  0  0  0  0  0  0  0  0  0  0
  2  1  1  6
  2  3  1  0
  3  4  1  0
  4  5  2  0
  5  6  1  0
  7  6  2  0
  8  7  1  0
  9  4  1  0
  9  8  2  0
 10 11  2  0
 10  2  1  0
 12 13  1  0
 13 14  2  0
 16 15  1  1
 15 13  1  0
 16 18  1  0
 16 17  1  0
 17 10  1  0
 18 20  1  0
 19 18  2  0
 20 21  1  0
 21 22  1  6
 22 23  1  0
 23 27  1  0
 24 23  2  0
 25 28  1  0
 25 21  1  0
 26 25  2  0
M  END
$$$$
