GCE.pdb
     RDKit          3D

 20 19  0  0  1  0  0  0  0  0999 V2000
    7.6178  -13.1871   18.7662 N   0  0  0  0  0  0  0  0  0  0  0  0
    6.9601  -13.8398   19.8747 C   0  0  0  0  0  0  0  0  0  0  0  0
    7.7234  -13.7049   21.1359 C   0  0  0  0  0  0  0  0  0  0  0  0
    8.9350  -13.4858   21.0917 O   0  0  0  0  0  0  0  0  0  0  0  0
    7.0678  -13.8267   22.3707 N   0  0  0  0  0  0  0  0  0  0  0  0
    7.7214  -13.8432   23.6523 C   0  0  1  0  0  0  0  0  0  0  0  0
    6.7903  -13.5482   24.8021 C   0  0  0  0  0  0  0  0  0  0  0  0
    7.6796  -13.4849   26.3765 S   0  0  0  0  0  0  0  0  0  0  0  0
    8.3813  -15.1347   23.9422 C   0  0  0  0  0  0  0  0  0  0  0  0
    7.7030  -16.1795   23.7831 O   0  0  0  0  0  0  0  0  0  0  0  0
    9.7277  -15.1301   24.3788 N   0  0  0  0  0  0  0  0  0  0  0  0
   10.4927  -16.3609   24.5388 C   0  0  1  0  0  0  0  0  0  0  0  0
   11.8679  -16.1774   23.9892 C   0  0  0  0  0  0  0  0  0  0  0  0
   12.7253  -17.3754   24.1866 C   0  0  0  0  0  0  0  0  0  0  0  0
   14.1154  -17.1784   23.7391 C   0  0  0  0  0  0  0  0  0  0  0  0
   14.8942  -16.3950   24.3762 O   0  0  0  0  0  0  0  0  0  0  0  0
   10.4125  -16.8826   25.9110 C   0  0  0  0  0  0  0  0  0  0  0  0
   10.7189  -18.1757   26.2925 O   0  0  0  0  0  0  0  0  0  0  0  0
   14.6006  -17.8301   22.6282 O   0  0  0  0  0  0  0  0  0  0  0  0
   10.0386  -16.1289   26.8445 O   0  0  0  0  0  0  0  0  0  0  0  0
  2  1  1  0
  3  2  1  0
  4  3  2  0
  5  3  1  0
  6  9  1  0
  6  5  1  0
  6  7  1  1
  7  8  1  0
  9 10  2  0
 11 12  1  0
 11  9  1  0
 13 14  1  0
 12 13  1  1
 15 14  1  0
 15 19  1  0
 16 15  2  0
 17 18  1  0
 17 12  1  0
 20 17  2  0
M  END
$$$$
