GCE.pdb
     RDKit          3D

 20 19  0  0  1  0  0  0  0  0999 V2000
    7.5997  -15.2440   20.3068 N   0  0  0  0  0  0  0  0  0  0  0  0
    6.7621  -14.8374   21.4114 C   0  0  0  0  0  0  0  0  0  0  0  0
    7.5533  -14.4634   22.6054 C   0  0  0  0  0  0  0  0  0  0  0  0
    8.7643  -14.6892   22.6261 O   0  0  0  0  0  0  0  0  0  0  0  0
    6.9247  -13.8563   23.7033 N   0  0  0  0  0  0  0  0  0  0  0  0
    7.5842  -13.4787   24.9249 C   0  0  1  0  0  0  0  0  0  0  0  0
    6.7248  -12.6327   25.8315 C   0  0  0  0  0  0  0  0  0  0  0  0
    7.6369  -12.0949   27.2986 S   0  0  0  0  0  0  0  0  0  0  0  0
    8.0398  -14.6438   25.7138 C   0  0  0  0  0  0  0  0  0  0  0  0
    7.1828  -15.5124   26.0105 O   0  0  0  0  0  0  0  0  0  0  0  0
    9.4019  -14.7221   26.0907 N   0  0  0  0  0  0  0  0  0  0  0  0
    9.9338  -15.8567   26.8360 C   0  0  1  0  0  0  0  0  0  0  0  0
   11.1360  -16.4012   26.1395 C   0  0  0  0  0  0  0  0  0  0  0  0
   10.7931  -17.1031   24.8749 C   0  0  0  0  0  0  0  0  0  0  0  0
   11.9717  -17.6145   24.1532 C   0  0  0  0  0  0  0  0  0  0  0  0
   13.0616  -17.8414   24.7750 O   0  0  0  0  0  0  0  0  0  0  0  0
   10.1027  -15.5456   28.2630 C   0  0  0  0  0  0  0  0  0  0  0  0
    9.9645  -14.2915   28.8283 O   0  0  0  0  0  0  0  0  0  0  0  0
   11.9232  -17.8549   22.7989 O   0  0  0  0  0  0  0  0  0  0  0  0
   10.3982  -16.4618   29.0708 O   0  0  0  0  0  0  0  0  0  0  0  0
  2  1  1  0
  3  2  1  0
  4  3  2  0
  5  3  1  0
  6  9  1  0
  6  5  1  0
  6  7  1  1
  7  8  1  0
  9 10  2  0
 11 12  1  0
 11  9  1  0
 13 14  1  0
 12 13  1  6
 15 14  1  0
 15 19  1  0
 16 15  2  0
 17 18  1  0
 17 12  1  0
 20 17  2  0
M  END
$$$$
