GCE.pdb
     RDKit          3D

 20 19  0  0  1  0  0  0  0  0999 V2000
    7.6360  -14.9718   19.5939 N   0  0  0  0  0  0  0  0  0  0  0  0
    6.8376  -14.8883   20.7950 C   0  0  0  0  0  0  0  0  0  0  0  0
    7.6592  -14.6103   21.9946 C   0  0  0  0  0  0  0  0  0  0  0  0
    8.8861  -14.6973   21.9235 O   0  0  0  0  0  0  0  0  0  0  0  0
    7.0410  -14.2508   23.2020 N   0  0  0  0  0  0  0  0  0  0  0  0
    7.7311  -14.0122   24.4417 C   0  0  1  0  0  0  0  0  0  0  0  0
    6.8713  -13.3434   25.4855 C   0  0  0  0  0  0  0  0  0  0  0  0
    7.8288  -12.9179   26.9605 S   0  0  0  0  0  0  0  0  0  0  0  0
    8.2701  -15.2505   25.0448 C   0  0  0  0  0  0  0  0  0  0  0  0
    7.4780  -16.2133   25.1945 O   0  0  0  0  0  0  0  0  0  0  0  0
    9.6347  -15.2894   25.4185 N   0  0  0  0  0  0  0  0  0  0  0  0
   10.2463  -16.4838   25.9888 C   0  0  1  0  0  0  0  0  0  0  0  0
   11.6738  -16.5740   25.5636 C   0  0  0  0  0  0  0  0  0  0  0  0
   11.8386  -16.4568   24.0910 C   0  0  0  0  0  0  0  0  0  0  0  0
   13.2379  -16.5878   23.6479 C   0  0  0  0  0  0  0  0  0  0  0  0
   14.0369  -15.5974   23.7304 O   0  0  0  0  0  0  0  0  0  0  0  0
    9.9973  -16.5914   27.4338 C   0  0  0  0  0  0  0  0  0  0  0  0
   10.2294  -17.7171   28.2021 O   0  0  0  0  0  0  0  0  0  0  0  0
   13.7102  -17.7747   23.1358 O   0  0  0  0  0  0  0  0  0  0  0  0
    9.5349  -15.6064   28.0625 O   0  0  0  0  0  0  0  0  0  0  0  0
  2  1  1  0
  3  2  1  0
  4  3  2  0
  5  3  1  0
  6  9  1  0
  6  5  1  0
  6  7  1  1
  7  8  1  0
  9 10  2  0
 11 12  1  0
 11  9  1  0
 13 14  1  0
 12 13  1  1
 15 14  1  0
 15 19  1  0
 16 15  2  0
 17 18  1  0
 17 12  1  0
 20 17  2  0
M  END
$$$$
