GCE.pdb
     RDKit          3D

 20 19  0  0  1  0  0  0  0  0999 V2000
    6.7471  -14.8708   19.8035 N   0  0  0  0  0  0  0  0  0  0  0  0
    6.1945  -14.4497   21.0701 C   0  0  0  0  0  0  0  0  0  0  0  0
    7.2219  -14.3813   22.1337 C   0  0  0  0  0  0  0  0  0  0  0  0
    8.3788  -14.7231   21.8829 O   0  0  0  0  0  0  0  0  0  0  0  0
    6.8764  -13.9301   23.4167 N   0  0  0  0  0  0  0  0  0  0  0  0
    7.7912  -13.8059   24.5203 C   0  0  1  0  0  0  0  0  0  0  0  0
    7.3897  -12.7431   25.5129 C   0  0  0  0  0  0  0  0  0  0  0  0
    5.6889  -12.9771   26.0840 S   0  0  0  0  0  0  0  0  0  0  0  0
    7.9565  -15.0687   25.2722 C   0  0  0  0  0  0  0  0  0  0  0  0
    6.9364  -15.7828   25.4352 O   0  0  0  0  0  0  0  0  0  0  0  0
    9.2397  -15.4066   25.7647 N   0  0  0  0  0  0  0  0  0  0  0  0
    9.6459  -16.7904   25.9788 C   0  0  1  0  0  0  0  0  0  0  0  0
    9.4512  -17.5751   24.7245 C   0  0  0  0  0  0  0  0  0  0  0  0
    9.9663  -18.9649   24.8358 C   0  0  0  0  0  0  0  0  0  0  0  0
    8.9784  -19.9865   24.4458 C   0  0  0  0  0  0  0  0  0  0  0  0
    8.2472  -19.8175   23.4149 O   0  0  0  0  0  0  0  0  0  0  0  0
   10.9775  -16.8825   26.5953 C   0  0  0  0  0  0  0  0  0  0  0  0
   11.4013  -17.8987   27.4315 O   0  0  0  0  0  0  0  0  0  0  0  0
    8.8223  -21.1382   25.1830 O   0  0  0  0  0  0  0  0  0  0  0  0
   11.8311  -15.9872   26.3738 O   0  0  0  0  0  0  0  0  0  0  0  0
  2  1  1  0
  3  2  1  0
  4  3  2  0
  5  3  1  0
  6  9  1  0
  6  5  1  0
  6  7  1  1
  7  8  1  0
  9 10  2  0
 11 12  1  0
 11  9  1  0
 13 14  1  0
 12 13  1  6
 15 14  1  0
 15 19  1  0
 16 15  2  0
 17 18  1  0
 17 12  1  0
 20 17  2  0
M  END
$$$$
