GCE.pdb
     RDKit          3D

 20 19  0  0  1  0  0  0  0  0999 V2000
   -2.3102  -20.6362   23.6470 N   0  0  0  0  0  0  0  0  0  0  0  0
   -3.6490  -20.5470   24.1826 C   0  0  0  0  0  0  0  0  0  0  0  0
   -3.9863  -21.7046   25.0413 C   0  0  0  0  0  0  0  0  0  0  0  0
   -4.3040  -22.7748   24.5201 O   0  0  0  0  0  0  0  0  0  0  0  0
   -3.9432  -21.5796   26.4383 N   0  0  0  0  0  0  0  0  0  0  0  0
   -4.1910  -22.6485   27.3690 C   0  0  1  0  0  0  0  0  0  0  0  0
   -3.3615  -22.5515   28.6255 C   0  0  0  0  0  0  0  0  0  0  0  0
   -1.6273  -22.9583   28.3086 S   0  0  0  0  0  0  0  0  0  0  0  0
   -5.6083  -22.7296   27.7840 C   0  0  0  0  0  0  0  0  0  0  0  0
   -6.2157  -21.6486   27.9827 O   0  0  0  0  0  0  0  0  0  0  0  0
   -6.2032  -24.0051   27.9345 N   0  0  0  0  0  0  0  0  0  0  0  0
   -7.6177  -24.1661   28.2491 C   0  0  1  0  0  0  0  0  0  0  0  0
   -8.0892  -25.5055   27.7902 C   0  0  0  0  0  0  0  0  0  0  0  0
   -9.5558  -25.6812   27.9559 C   0  0  0  0  0  0  0  0  0  0  0  0
  -10.0398  -26.9996   27.5098 C   0  0  0  0  0  0  0  0  0  0  0  0
   -9.2283  -27.8553   27.0246 O   0  0  0  0  0  0  0  0  0  0  0  0
   -7.9110  -23.8255   29.6490 C   0  0  0  0  0  0  0  0  0  0  0  0
   -8.9810  -23.0619   30.0773 O   0  0  0  0  0  0  0  0  0  0  0  0
  -11.3716  -27.3340   27.6042 O   0  0  0  0  0  0  0  0  0  0  0  0
   -7.1545  -24.2385   30.5635 O   0  0  0  0  0  0  0  0  0  0  0  0
  2  1  1  0
  3  2  1  0
  4  3  2  0
  5  3  1  0
  6  9  1  0
  6  5  1  0
  6  7  1  1
  7  8  1  0
  9 10  2  0
 11 12  1  0
 11  9  1  0
 13 14  1  0
 12 13  1  1
 15 14  1  0
 15 19  1  0
 16 15  2  0
 17 18  1  0
 17 12  1  0
 20 17  2  0
M  END
$$$$
