GCE.pdb
     RDKit          3D

 20 19  0  0  1  0  0  0  0  0999 V2000
   10.0795  -15.7274   14.5709 N   0  0  0  0  0  0  0  0  0  0  0  0
    9.1155  -15.7177   15.6469 C   0  0  0  0  0  0  0  0  0  0  0  0
    9.6923  -15.2049   16.9101 C   0  0  0  0  0  0  0  0  0  0  0  0
   10.9092  -15.2686   17.0915 O   0  0  0  0  0  0  0  0  0  0  0  0
    8.8554  -14.6513   17.8911 N   0  0  0  0  0  0  0  0  0  0  0  0
    9.3029  -14.1183   19.1503 C   0  0  1  0  0  0  0  0  0  0  0  0
    8.1943  -13.4997   19.9655 C   0  0  0  0  0  0  0  0  0  0  0  0
    7.2658  -12.2795   19.0050 S   0  0  0  0  0  0  0  0  0  0  0  0
    9.9593  -15.1341   20.0015 C   0  0  0  0  0  0  0  0  0  0  0  0
    9.5492  -16.3175   19.9108 O   0  0  0  0  0  0  0  0  0  0  0  0
   11.0044  -14.7282   20.8655 N   0  0  0  0  0  0  0  0  0  0  0  0
   11.7569  -15.6830   21.6704 C   0  0  1  0  0  0  0  0  0  0  0  0
   13.1956  -15.2887   21.7102 C   0  0  0  0  0  0  0  0  0  0  0  0
   13.8171  -15.2625   20.3602 C   0  0  0  0  0  0  0  0  0  0  0  0
   15.2421  -14.8880   20.3809 C   0  0  0  0  0  0  0  0  0  0  0  0
   15.6185  -13.8103   20.9494 O   0  0  0  0  0  0  0  0  0  0  0  0
   11.1198  -15.9252   22.9731 C   0  0  0  0  0  0  0  0  0  0  0  0
   11.4543  -16.9416   23.8486 O   0  0  0  0  0  0  0  0  0  0  0  0
   16.1929  -15.6873   19.7883 O   0  0  0  0  0  0  0  0  0  0  0  0
   10.1906  -15.1741   23.3628 O   0  0  0  0  0  0  0  0  0  0  0  0
  2  1  1  0
  3  2  1  0
  4  3  2  0
  5  3  1  0
  6  9  1  0
  6  5  1  0
  6  7  1  1
  7  8  1  0
  9 10  2  0
 11 12  1  0
 11  9  1  0
 13 14  1  0
 12 13  1  1
 15 14  1  0
 15 19  1  0
 16 15  2  0
 17 18  1  0
 17 12  1  0
 20 17  2  0
M  END
$$$$
