GCE.pdb
     RDKit          3D

 20 19  0  0  1  0  0  0  0  0999 V2000
    7.4184  -13.4421   19.3977 N   0  0  0  0  0  0  0  0  0  0  0  0
    6.6139  -13.6565   20.5784 C   0  0  0  0  0  0  0  0  0  0  0  0
    7.4265  -13.6612   21.8157 C   0  0  0  0  0  0  0  0  0  0  0  0
    8.6539  -13.7311   21.7355 O   0  0  0  0  0  0  0  0  0  0  0  0
    6.7993  -13.5864   23.0688 N   0  0  0  0  0  0  0  0  0  0  0  0
    7.4863  -13.5166   24.3310 C   0  0  1  0  0  0  0  0  0  0  0  0
    6.6106  -13.0384   25.4627 C   0  0  0  0  0  0  0  0  0  0  0  0
    7.5683  -12.7669   26.9735 S   0  0  0  0  0  0  0  0  0  0  0  0
    8.0639  -14.8147   24.7415 C   0  0  0  0  0  0  0  0  0  0  0  0
    7.2839  -15.7955   24.8219 O   0  0  0  0  0  0  0  0  0  0  0  0
    9.4499  -14.8875   25.0196 N   0  0  0  0  0  0  0  0  0  0  0  0
   10.1243  -16.1574   25.2609 C   0  0  1  0  0  0  0  0  0  0  0  0
   11.4651  -16.1510   24.6058 C   0  0  0  0  0  0  0  0  0  0  0  0
   12.2354  -17.3942   24.8716 C   0  0  0  0  0  0  0  0  0  0  0  0
   13.5732  -17.3952   24.2537 C   0  0  0  0  0  0  0  0  0  0  0  0
   13.7719  -16.8023   23.1423 O   0  0  0  0  0  0  0  0  0  0  0  0
   10.1050  -16.5276   26.6836 C   0  0  0  0  0  0  0  0  0  0  0  0
   10.2195  -17.8148   27.1750 O   0  0  0  0  0  0  0  0  0  0  0  0
   14.6316  -18.0347   24.8579 O   0  0  0  0  0  0  0  0  0  0  0  0
    9.9743  -15.6355   27.5590 O   0  0  0  0  0  0  0  0  0  0  0  0
  2  1  1  0
  3  2  1  0
  4  3  2  0
  5  3  1  0
  6  9  1  0
  6  5  1  0
  6  7  1  1
  7  8  1  0
  9 10  2  0
 11 12  1  0
 11  9  1  0
 13 14  1  0
 12 13  1  1
 15 14  1  0
 15 19  1  0
 16 15  2  0
 17 18  1  0
 17 12  1  0
 20 17  2  0
M  END
$$$$
