QPS.pdb
     RDKit          3D

 23 23  0  0  1  0  0  0  0  0999 V2000
    7.0001  -18.3695   17.9634 N   0  0  0  0  0  0  0  0  0  0  0  0
    8.1220  -18.7082   17.1689 C   0  0  0  0  0  0  0  0  0  0  0  0
    8.7168  -19.7813   17.3983 O   0  0  0  0  0  0  0  0  0  0  0  0
    8.6180  -17.8387   16.0756 C   0  0  0  0  0  0  0  0  0  0  0  0
    7.7949  -16.5794   15.9938 C   0  0  0  0  0  0  0  0  0  0  0  0
    8.6683  -15.3474   15.8531 C   0  0  2  0  0  0  0  0  0  0  0  0
    9.6748  -15.5657   14.8184 N   0  0  0  0  0  0  0  0  0  0  0  0
    9.2915  -14.9288   17.1246 C   0  0  0  0  0  0  0  0  0  0  0  0
   10.5232  -15.2170   17.2843 O   0  0  0  0  0  0  0  0  0  0  0  0
    8.6412  -14.2426   18.1621 N   0  0  0  0  0  0  0  0  0  0  0  0
    7.2753  -13.7363   18.0885 C   0  0  0  0  0  0  0  0  0  0  0  0
    7.3945  -12.4679   18.9611 C   0  0  0  0  0  0  0  0  0  0  0  0
    8.2089  -12.9932   20.1007 C   0  0  0  0  0  0  0  0  0  0  0  0
    9.1960  -13.9069   19.4629 C   0  0  1  0  0  0  0  0  0  0  0  0
    9.4716  -15.1235   20.2674 C   0  0  0  0  0  0  0  0  0  0  0  0
    8.7322  -16.1246   20.0926 O   0  0  0  0  0  0  0  0  0  0  0  0
   12.5876  -17.2499   23.3649 O   0  0  0  0  0  0  0  0  0  0  0  0
   12.2377  -16.2777   22.4518 C   0  0  0  0  0  0  0  0  0  0  0  0
   10.7710  -16.3867   22.0294 C   0  0  2  0  0  0  0  0  0  0  0  0
   10.5051  -15.2246   21.2097 N   0  0  0  0  0  0  0  0  0  0  0  0
    9.9736  -16.2745   23.2680 C   0  0  0  0  0  0  0  0  0  0  0  0
    9.6830  -17.3500   24.0976 O   0  0  0  0  0  0  0  0  0  0  0  0
    9.5264  -15.1538   23.6042 O   0  0  0  0  0  0  0  0  0  0  0  0
  2  3  2  0
  2  1  1  0
  4  2  1  0
  5  4  1  0
  6  5  1  0
  6  7  1  6
  8  6  1  0
  9  8  2  0
 10  8  1  0
 10 14  1  0
 11 12  1  0
 11 10  1  0
 12 13  1  0
 13 14  1  0
 14 15  1  1
 15 16  2  0
 18 17  1  0
 19 18  1  1
 19 21  1  0
 20 19  1  0
 20 15  1  0
 21 23  2  0
 21 22  1  0
M  END
$$$$
