QPS.pdb
     RDKit          3D

 23 23  0  0  1  0  0  0  0  0999 V2000
    5.6491  -18.7590   17.9776 N   0  0  0  0  0  0  0  0  0  0  0  0
    7.0391  -19.0202   17.9144 C   0  0  0  0  0  0  0  0  0  0  0  0
    7.4861  -20.0306   18.4953 O   0  0  0  0  0  0  0  0  0  0  0  0
    7.9846  -18.1412   17.1858 C   0  0  0  0  0  0  0  0  0  0  0  0
    7.3127  -16.8455   16.8120 C   0  0  0  0  0  0  0  0  0  0  0  0
    8.3244  -15.7572   16.5077 C   0  0  2  0  0  0  0  0  0  0  0  0
    9.2203  -16.1939   15.4410 N   0  0  0  0  0  0  0  0  0  0  0  0
    9.0830  -15.3203   17.6969 C   0  0  0  0  0  0  0  0  0  0  0  0
   10.2852  -15.7331   17.7965 O   0  0  0  0  0  0  0  0  0  0  0  0
    8.5899  -14.4917   18.7170 N   0  0  0  0  0  0  0  0  0  0  0  0
    7.2867  -13.8372   18.6921 C   0  0  0  0  0  0  0  0  0  0  0  0
    7.6089  -12.5326   19.4528 C   0  0  0  0  0  0  0  0  0  0  0  0
    8.4412  -13.0667   20.5753 C   0  0  0  0  0  0  0  0  0  0  0  0
    9.2719  -14.1314   19.9490 C   0  0  1  0  0  0  0  0  0  0  0  0
    9.4692  -15.3117   20.8272 C   0  0  0  0  0  0  0  0  0  0  0  0
    8.5430  -16.1587   20.8915 O   0  0  0  0  0  0  0  0  0  0  0  0
   13.1880  -16.1885   22.0762 O   0  0  0  0  0  0  0  0  0  0  0  0
   12.2546  -17.2033   22.0665 C   0  0  0  0  0  0  0  0  0  0  0  0
   10.8541  -16.6998   22.4221 C   0  0  2  0  0  0  0  0  0  0  0  0
   10.6242  -15.5398   21.5889 N   0  0  0  0  0  0  0  0  0  0  0  0
   10.9182  -16.2561   23.8298 C   0  0  0  0  0  0  0  0  0  0  0  0
   11.1293  -17.1159   24.9001 O   0  0  0  0  0  0  0  0  0  0  0  0
   10.7761  -15.0393   24.0911 O   0  0  0  0  0  0  0  0  0  0  0  0
  2  3  2  0
  2  1  1  0
  4  2  1  0
  5  4  1  0
  6  5  1  0
  6  7  1  6
  8  6  1  0
  9  8  2  0
 10  8  1  0
 10 14  1  0
 11 12  1  0
 11 10  1  0
 12 13  1  0
 13 14  1  0
 14 15  1  1
 15 16  2  0
 18 17  1  0
 19 18  1  6
 19 21  1  0
 20 19  1  0
 20 15  1  0
 21 23  2  0
 21 22  1  0
M  END
$$$$
