QPS.pdb
     RDKit          3D

 23 23  0  0  1  0  0  0  0  0999 V2000
    6.9526  -20.3701   15.9303 N   0  0  0  0  0  0  0  0  0  0  0  0
    6.5544  -19.8958   17.2034 C   0  0  0  0  0  0  0  0  0  0  0  0
    6.5803  -20.6835   18.1714 O   0  0  0  0  0  0  0  0  0  0  0  0
    6.1078  -18.5009   17.4322 C   0  0  0  0  0  0  0  0  0  0  0  0
    6.8890  -17.8796   18.5608 C   0  0  0  0  0  0  0  0  0  0  0  0
    7.9367  -16.9093   18.0493 C   0  0  2  0  0  0  0  0  0  0  0  0
    8.8093  -17.5787   17.0893 N   0  0  0  0  0  0  0  0  0  0  0  0
    8.7182  -16.2753   19.1299 C   0  0  0  0  0  0  0  0  0  0  0  0
    9.8379  -16.8112   19.4210 O   0  0  0  0  0  0  0  0  0  0  0  0
    8.3300  -15.1377   19.8548 N   0  0  0  0  0  0  0  0  0  0  0  0
    7.1173  -14.3691   19.5984 C   0  0  0  0  0  0  0  0  0  0  0  0
    7.5969  -12.9488   19.9690 C   0  0  0  0  0  0  0  0  0  0  0  0
    8.3563  -13.2338   21.2260 C   0  0  0  0  0  0  0  0  0  0  0  0
    9.0502  -14.5231   20.9576 C   0  0  1  0  0  0  0  0  0  0  0  0
    9.1001  -15.4178   22.1410 C   0  0  0  0  0  0  0  0  0  0  0  0
    8.0484  -16.0250   22.4644 O   0  0  0  0  0  0  0  0  0  0  0  0
   12.5625  -16.9483   23.1971 O   0  0  0  0  0  0  0  0  0  0  0  0
   11.4180  -17.5570   23.6670 C   0  0  0  0  0  0  0  0  0  0  0  0
   10.3367  -16.5400   24.0383 C   0  0  2  0  0  0  0  0  0  0  0  0
   10.2474  -15.6271   22.9197 N   0  0  0  0  0  0  0  0  0  0  0  0
   10.8513  -15.7957   25.2061 C   0  0  0  0  0  0  0  0  0  0  0  0
   10.9861  -16.3477   26.4736 O   0  0  0  0  0  0  0  0  0  0  0  0
   11.1900  -14.5982   25.0632 O   0  0  0  0  0  0  0  0  0  0  0  0
  2  3  2  0
  2  1  1  0
  4  2  1  0
  5  4  1  0
  6  5  1  0
  6  7  1  6
  8  6  1  0
  9  8  2  0
 10  8  1  0
 10 14  1  0
 11 12  1  0
 11 10  1  0
 12 13  1  0
 13 14  1  0
 14 15  1  1
 15 16  2  0
 18 17  1  0
 19 18  1  6
 19 21  1  0
 20 19  1  0
 20 15  1  0
 21 23  2  0
 21 22  1  0
M  END
$$$$
