QPS.pdb
     RDKit          3D

 23 23  0  0  1  0  0  0  0  0999 V2000
    7.8990  -20.1807   17.6111 N   0  0  0  0  0  0  0  0  0  0  0  0
    7.3681  -19.5056   16.4856 C   0  0  0  0  0  0  0  0  0  0  0  0
    6.9860  -20.1803   15.5073 O   0  0  0  0  0  0  0  0  0  0  0  0
    7.2481  -18.0294   16.4230 C   0  0  0  0  0  0  0  0  0  0  0  0
    7.7291  -17.4101   17.7096 C   0  0  0  0  0  0  0  0  0  0  0  0
    8.6017  -16.1959   17.4548 C   0  0  2  0  0  0  0  0  0  0  0  0
    9.6413  -16.5243   16.4840 N   0  0  0  0  0  0  0  0  0  0  0  0
    9.1827  -15.6289   18.6883 C   0  0  0  0  0  0  0  0  0  0  0  0
   10.3707  -15.9864   18.9821 O   0  0  0  0  0  0  0  0  0  0  0  0
    8.5365  -14.7334   19.5547 N   0  0  0  0  0  0  0  0  0  0  0  0
    7.2162  -14.1610   19.3167 C   0  0  0  0  0  0  0  0  0  0  0  0
    7.3871  -12.7711   19.9674 C   0  0  0  0  0  0  0  0  0  0  0  0
    8.1068  -13.1425   21.2252 C   0  0  0  0  0  0  0  0  0  0  0  0
    9.0531  -14.2141   20.8102 C   0  0  1  0  0  0  0  0  0  0  0  0
    9.2011  -15.2883   21.8238 C   0  0  0  0  0  0  0  0  0  0  0  0
    8.3568  -16.2192   21.8222 O   0  0  0  0  0  0  0  0  0  0  0  0
   12.7545  -16.4626   22.9154 O   0  0  0  0  0  0  0  0  0  0  0  0
   11.9576  -16.3652   24.0364 C   0  0  0  0  0  0  0  0  0  0  0  0
   10.4683  -16.4276   23.6905 C   0  0  2  0  0  0  0  0  0  0  0  0
   10.2238  -15.3285   22.7822 N   0  0  0  0  0  0  0  0  0  0  0  0
    9.7393  -16.1629   24.9479 C   0  0  0  0  0  0  0  0  0  0  0  0
    9.6185  -17.0869   25.9779 O   0  0  0  0  0  0  0  0  0  0  0  0
    9.1933  -15.0474   25.1113 O   0  0  0  0  0  0  0  0  0  0  0  0
  2  3  2  0
  2  1  1  0
  4  2  1  0
  5  4  1  0
  6  5  1  0
  6  7  1  6
  8  6  1  0
  9  8  2  0
 10  8  1  0
 10 14  1  0
 11 12  1  0
 11 10  1  0
 12 13  1  0
 13 14  1  0
 14 15  1  1
 15 16  2  0
 18 17  1  0
 19 18  1  1
 19 21  1  0
 20 19  1  0
 20 15  1  0
 21 23  2  0
 21 22  1  0
M  END
$$$$
