QPS.pdb
     RDKit          3D

 23 23  0  0  1  0  0  0  0  0999 V2000
    7.3304  -18.6503   28.4708 N   0  0  0  0  0  0  0  0  0  0  0  0
    8.3615  -18.6559   27.5006 C   0  0  0  0  0  0  0  0  0  0  0  0
    9.5451  -18.7554   27.8845 O   0  0  0  0  0  0  0  0  0  0  0  0
    8.0910  -18.5484   26.0471 C   0  0  0  0  0  0  0  0  0  0  0  0
    6.6296  -18.2731   25.8055 C   0  0  0  0  0  0  0  0  0  0  0  0
    6.3300  -18.0930   24.3296 C   0  0  2  0  0  0  0  0  0  0  0  0
    5.8066  -19.3366   23.7721 N   0  0  0  0  0  0  0  0  0  0  0  0
    7.4905  -17.6077   23.5562 C   0  0  0  0  0  0  0  0  0  0  0  0
    8.1373  -18.4759   22.8828 O   0  0  0  0  0  0  0  0  0  0  0  0
    7.9330  -16.2767   23.5025 N   0  0  0  0  0  0  0  0  0  0  0  0
    7.3567  -15.1828   24.2761 C   0  0  0  0  0  0  0  0  0  0  0  0
    7.5428  -14.0085   23.2908 C   0  0  0  0  0  0  0  0  0  0  0  0
    8.9345  -14.2712   22.8089 C   0  0  0  0  0  0  0  0  0  0  0  0
    9.0105  -15.7522   22.6798 C   0  0  1  0  0  0  0  0  0  0  0  0
   10.3255  -16.3080   23.0861 C   0  0  0  0  0  0  0  0  0  0  0  0
   10.5146  -16.5399   24.3067 O   0  0  0  0  0  0  0  0  0  0  0  0
   12.8594  -17.5469   20.1848 O   0  0  0  0  0  0  0  0  0  0  0  0
   13.0105  -18.1294   21.4254 C   0  0  0  0  0  0  0  0  0  0  0  0
   12.6423  -17.1705   22.5595 C   0  0  2  0  0  0  0  0  0  0  0  0
   11.3690  -16.5899   22.1928 N   0  0  0  0  0  0  0  0  0  0  0  0
   13.6620  -16.1016   22.5460 C   0  0  0  0  0  0  0  0  0  0  0  0
   14.9557  -16.2644   23.0248 O   0  0  0  0  0  0  0  0  0  0  0  0
   13.3601  -14.9787   22.0802 O   0  0  0  0  0  0  0  0  0  0  0  0
  2  3  2  0
  2  1  1  0
  4  2  1  0
  5  4  1  0
  6  5  1  0
  6  7  1  6
  8  6  1  0
  9  8  2  0
 10  8  1  0
 10 14  1  0
 11 12  1  0
 11 10  1  0
 12 13  1  0
 13 14  1  0
 14 15  1  1
 15 16  2  0
 18 17  1  0
 19 18  1  6
 19 21  1  0
 20 19  1  0
 20 15  1  0
 21 23  2  0
 21 22  1  0
M  END
$$$$
