AEE.pdb
     RDKit          3D

 24 23  0  0  1  0  0  0  0  0999 V2000
    9.1679  -13.2792   19.9298 C   0  0  0  0  0  0  0  0  0  0  0  0
    7.7469  -13.6936   19.7140 C   0  0  2  0  0  0  0  0  0  0  0  0
    6.9667  -12.5234   19.3593 N   0  0  0  0  0  0  0  0  0  0  0  0
    7.1334  -14.3368   20.8975 C   0  0  0  0  0  0  0  0  0  0  0  0
    6.6258  -13.6383   21.8263 O   0  0  0  0  0  0  0  0  0  0  0  0
    7.0706  -15.7458   21.0747 N   0  0  0  0  0  0  0  0  0  0  0  0
    6.5904  -16.4034   22.2626 C   0  0  1  0  0  0  0  0  0  0  0  0
    5.9607  -17.7393   21.9295 C   0  0  0  0  0  0  0  0  0  0  0  0
    4.5051  -17.5870   21.5039 C   0  0  0  0  0  0  0  0  0  0  0  0
    4.0782  -18.8743   20.9276 C   0  0  0  0  0  0  0  0  0  0  0  0
    4.8158  -19.8729   21.0235 O   0  0  0  0  0  0  0  0  0  0  0  0
    7.6523  -16.6439   23.2590 C   0  0  0  0  0  0  0  0  0  0  0  0
    8.8373  -16.4335   22.8959 O   0  0  0  0  0  0  0  0  0  0  0  0
    2.8648  -18.9658   20.2853 O   0  0  0  0  0  0  0  0  0  0  0  0
    7.4353  -17.0880   24.5742 N   0  0  0  0  0  0  0  0  0  0  0  0
    8.4301  -16.9944   25.6526 C   0  0  1  0  0  0  0  0  0  0  0  0
    8.7686  -15.5326   25.7448 C   0  0  0  0  0  0  0  0  0  0  0  0
    7.5928  -14.7415   26.1955 C   0  0  0  0  0  0  0  0  0  0  0  0
    7.9943  -13.3337   26.4111 C   0  0  0  0  0  0  0  0  0  0  0  0
    7.1117  -12.4579   26.5352 O   0  0  0  0  0  0  0  0  0  0  0  0
    7.9163  -17.5702   26.8979 C   0  0  0  0  0  0  0  0  0  0  0  0
    8.6556  -17.8728   28.0243 O   0  0  0  0  0  0  0  0  0  0  0  0
    9.3282  -12.9934   26.4742 O   0  0  0  0  0  0  0  0  0  0  0  0
    6.6822  -17.8214   26.9643 O   0  0  0  0  0  0  0  0  0  0  0  0
  2  1  1  1
  2  3  1  0
  4  2  1  0
  4  5  2  0
  6  4  1  0
  7  6  1  0
  7 12  1  0
  7  8  1  6
  9 10  1  0
  9  8  1  0
 10 14  1  0
 11 10  2  0
 12 13  2  0
 12 15  1  0
 15 16  1  0
 16 21  1  0
 16 17  1  1
 18 17  1  0
 19 18  1  0
 19 20  2  0
 21 24  2  0
 21 22  1  0
 23 19  1  0
M  END
$$$$
