AEE.pdb
     RDKit          3D

 24 23  0  0  1  0  0  0  0  0999 V2000
    8.0140  -12.6368   20.3214 C   0  0  0  0  0  0  0  0  0  0  0  0
    7.6908  -13.9585   19.6998 C   0  0  2  0  0  0  0  0  0  0  0  0
    6.2673  -14.2031   19.8336 N   0  0  0  0  0  0  0  0  0  0  0  0
    8.4293  -15.0906   20.3028 C   0  0  0  0  0  0  0  0  0  0  0  0
    7.9488  -15.7288   21.2878 O   0  0  0  0  0  0  0  0  0  0  0  0
    9.6966  -15.5328   19.8348 N   0  0  0  0  0  0  0  0  0  0  0  0
   10.4516  -16.6165   20.4090 C   0  0  1  0  0  0  0  0  0  0  0  0
   11.4122  -17.2073   19.3988 C   0  0  0  0  0  0  0  0  0  0  0  0
   12.2094  -18.3651   19.9878 C   0  0  0  0  0  0  0  0  0  0  0  0
   13.1319  -18.8412   18.9418 C   0  0  0  0  0  0  0  0  0  0  0  0
   13.8624  -19.8258   19.1592 O   0  0  0  0  0  0  0  0  0  0  0  0
   11.2369  -16.2107   21.5909 C   0  0  0  0  0  0  0  0  0  0  0  0
   11.8791  -15.1331   21.5100 O   0  0  0  0  0  0  0  0  0  0  0  0
   13.1809  -18.1938   17.7287 O   0  0  0  0  0  0  0  0  0  0  0  0
   11.3177  -16.9372   22.7909 N   0  0  0  0  0  0  0  0  0  0  0  0
   12.0085  -16.4630   23.9989 C   0  0  1  0  0  0  0  0  0  0  0  0
   11.3718  -17.2166   25.1331 C   0  0  0  0  0  0  0  0  0  0  0  0
   12.0256  -16.8839   26.4266 C   0  0  0  0  0  0  0  0  0  0  0  0
   11.3888  -17.6542   27.5178 C   0  0  0  0  0  0  0  0  0  0  0  0
   10.4555  -18.4402   27.2481 O   0  0  0  0  0  0  0  0  0  0  0  0
   13.4568  -16.6553   23.8900 C   0  0  0  0  0  0  0  0  0  0  0  0
   14.4325  -15.8020   24.3665 O   0  0  0  0  0  0  0  0  0  0  0  0
   11.8215  -17.5055   28.8177 O   0  0  0  0  0  0  0  0  0  0  0  0
   13.8698  -17.6943   23.3064 O   0  0  0  0  0  0  0  0  0  0  0  0
  2  1  1  1
  2  3  1  0
  4  2  1  0
  4  5  2  0
  6  4  1  0
  7  6  1  0
  7 12  1  0
  7  8  1  6
  9 10  1  0
  9  8  1  0
 10 14  1  0
 11 10  2  0
 12 13  2  0
 12 15  1  0
 15 16  1  0
 16 21  1  0
 16 17  1  1
 18 17  1  0
 19 18  1  0
 19 20  2  0
 21 24  2  0
 21 22  1  0
 23 19  1  0
M  END
$$$$
