AEE.pdb
     RDKit          3D

 24 23  0  0  1  0  0  0  0  0999 V2000
    7.8319  -13.7965   20.9619 C   0  0  0  0  0  0  0  0  0  0  0  0
    7.9058  -15.1248   20.2778 C   0  0  2  0  0  0  0  0  0  0  0  0
    6.6766  -15.8516   20.5327 N   0  0  0  0  0  0  0  0  0  0  0  0
    9.0509  -15.9526   20.7184 C   0  0  0  0  0  0  0  0  0  0  0  0
    8.9734  -16.6642   21.7653 O   0  0  0  0  0  0  0  0  0  0  0  0
   10.2874  -16.0086   20.0194 N   0  0  0  0  0  0  0  0  0  0  0  0
   11.4228  -16.7983   20.4212 C   0  0  1  0  0  0  0  0  0  0  0  0
   12.4028  -16.9649   19.2793 C   0  0  0  0  0  0  0  0  0  0  0  0
   13.5878  -17.8379   19.6751 C   0  0  0  0  0  0  0  0  0  0  0  0
   14.4647  -17.9502   18.4960 C   0  0  0  0  0  0  0  0  0  0  0  0
   14.1820  -18.7512   17.5857 O   0  0  0  0  0  0  0  0  0  0  0  0
   12.1571  -16.2156   21.5612 C   0  0  0  0  0  0  0  0  0  0  0  0
   12.6959  -15.0940   21.3830 O   0  0  0  0  0  0  0  0  0  0  0  0
   15.5931  -17.1678   18.4077 O   0  0  0  0  0  0  0  0  0  0  0  0
   12.2962  -16.8204   22.8219 N   0  0  0  0  0  0  0  0  0  0  0  0
   13.0034  -16.2105   23.9574 C   0  0  1  0  0  0  0  0  0  0  0  0
   12.2416  -16.6545   25.1749 C   0  0  0  0  0  0  0  0  0  0  0  0
   12.2355  -18.1373   25.2874 C   0  0  0  0  0  0  0  0  0  0  0  0
   11.5539  -18.5379   26.5382 C   0  0  0  0  0  0  0  0  0  0  0  0
   11.1818  -17.6560   27.3416 O   0  0  0  0  0  0  0  0  0  0  0  0
   14.4185  -16.5896   23.9647 C   0  0  0  0  0  0  0  0  0  0  0  0
   15.0120  -17.5472   23.1660 O   0  0  0  0  0  0  0  0  0  0  0  0
   11.3323  -19.8699   26.8130 O   0  0  0  0  0  0  0  0  0  0  0  0
   15.1823  -15.9952   24.7733 O   0  0  0  0  0  0  0  0  0  0  0  0
  2  1  1  1
  2  3  1  0
  4  2  1  0
  4  5  2  0
  6  4  1  0
  7  6  1  0
  7 12  1  0
  7  8  1  6
  9 10  1  0
  9  8  1  0
 10 14  1  0
 11 10  2  0
 12 13  2  0
 12 15  1  0
 15 16  1  0
 16 21  1  0
 16 17  1  1
 18 17  1  0
 19 18  1  0
 19 20  2  0
 21 24  2  0
 21 22  1  0
 23 19  1  0
M  END
$$$$
