AEE.pdb
     RDKit          3D

 24 23  0  0  1  0  0  0  0  0999 V2000
    7.6735  -12.5558   19.3414 C   0  0  0  0  0  0  0  0  0  0  0  0
    8.7037  -13.6219   19.5410 C   0  0  2  0  0  0  0  0  0  0  0  0
    8.5703  -14.6056   18.4834 N   0  0  0  0  0  0  0  0  0  0  0  0
    8.5977  -14.3077   20.8483 C   0  0  0  0  0  0  0  0  0  0  0  0
    8.6387  -13.6504   21.9320 O   0  0  0  0  0  0  0  0  0  0  0  0
    8.4468  -15.7150   20.9807 N   0  0  0  0  0  0  0  0  0  0  0  0
    8.3034  -16.4112   22.2334 C   0  0  1  0  0  0  0  0  0  0  0  0
    7.3344  -17.5675   22.1067 C   0  0  0  0  0  0  0  0  0  0  0  0
    6.1244  -17.1996   21.2560 C   0  0  0  0  0  0  0  0  0  0  0  0
    5.8319  -18.3521   20.3855 C   0  0  0  0  0  0  0  0  0  0  0  0
    5.8917  -19.5080   20.8443 O   0  0  0  0  0  0  0  0  0  0  0  0
    9.5793  -16.9489   22.7446 C   0  0  0  0  0  0  0  0  0  0  0  0
   10.1531  -17.8234   22.0473 O   0  0  0  0  0  0  0  0  0  0  0  0
    5.4938  -18.1440   19.0681 O   0  0  0  0  0  0  0  0  0  0  0  0
   10.1937  -16.5564   23.9457 N   0  0  0  0  0  0  0  0  0  0  0  0
   11.3949  -17.1926   24.5057 C   0  0  1  0  0  0  0  0  0  0  0  0
   12.5040  -16.2051   24.2717 C   0  0  0  0  0  0  0  0  0  0  0  0
   12.9985  -16.2822   22.8714 C   0  0  0  0  0  0  0  0  0  0  0  0
   14.3587  -15.7049   22.7924 C   0  0  0  0  0  0  0  0  0  0  0  0
   15.1760  -15.9368   23.7088 O   0  0  0  0  0  0  0  0  0  0  0  0
   11.1974  -17.5496   25.9128 C   0  0  0  0  0  0  0  0  0  0  0  0
   12.0178  -18.3594   26.6733 O   0  0  0  0  0  0  0  0  0  0  0  0
   14.7191  -14.9200   21.7187 O   0  0  0  0  0  0  0  0  0  0  0  0
   10.1846  -17.0824   26.5014 O   0  0  0  0  0  0  0  0  0  0  0  0
  2  1  1  6
  2  3  1  0
  4  2  1  0
  4  5  2  0
  6  4  1  0
  7  6  1  0
  7 12  1  0
  7  8  1  6
  9 10  1  0
  9  8  1  0
 10 14  1  0
 11 10  2  0
 12 13  2  0
 12 15  1  0
 15 16  1  0
 16 21  1  0
 16 17  1  1
 18 17  1  0
 19 18  1  0
 19 20  2  0
 21 24  2  0
 21 22  1  0
 23 19  1  0
M  END
$$$$
