AEE.pdb
     RDKit          3D

 24 23  0  0  1  0  0  0  0  0999 V2000
    2.6705  -18.0977   22.3430 C   0  0  0  0  0  0  0  0  0  0  0  0
    3.2668  -18.7583   21.1406 C   0  0  2  0  0  0  0  0  0  0  0  0
    2.5974  -20.0266   20.9231 N   0  0  0  0  0  0  0  0  0  0  0  0
    4.7221  -19.0000   21.2610 C   0  0  0  0  0  0  0  0  0  0  0  0
    5.1651  -20.1347   21.6140 O   0  0  0  0  0  0  0  0  0  0  0  0
    5.7024  -18.0051   20.9972 N   0  0  0  0  0  0  0  0  0  0  0  0
    7.1212  -18.1847   21.1675 C   0  0  1  0  0  0  0  0  0  0  0  0
    7.9007  -17.3042   20.2139 C   0  0  0  0  0  0  0  0  0  0  0  0
    7.5230  -17.5718   18.7618 C   0  0  0  0  0  0  0  0  0  0  0  0
    8.3064  -16.6450   17.9255 C   0  0  0  0  0  0  0  0  0  0  0  0
    7.7746  -15.6120   17.4777 O   0  0  0  0  0  0  0  0  0  0  0  0
    7.5816  -17.8810   22.5365 C   0  0  0  0  0  0  0  0  0  0  0  0
    7.0741  -16.8802   23.1031 O   0  0  0  0  0  0  0  0  0  0  0  0
    9.6232  -16.9271   17.6436 O   0  0  0  0  0  0  0  0  0  0  0  0
    8.5392  -18.6248   23.2464 N   0  0  0  0  0  0  0  0  0  0  0  0
    8.4601  -18.9138   24.6858 C   0  0  1  0  0  0  0  0  0  0  0  0
    7.3494  -18.0400   25.1982 C   0  0  0  0  0  0  0  0  0  0  0  0
    7.1385  -18.2471   26.6556 C   0  0  0  0  0  0  0  0  0  0  0  0
    8.4012  -17.9877   27.3821 C   0  0  0  0  0  0  0  0  0  0  0  0
    8.8289  -18.8403   28.1894 O   0  0  0  0  0  0  0  0  0  0  0  0
    8.2574  -20.3444   24.9279 C   0  0  0  0  0  0  0  0  0  0  0  0
    8.4898  -21.0135   26.1133 O   0  0  0  0  0  0  0  0  0  0  0  0
    9.0974  -16.8176   27.1695 O   0  0  0  0  0  0  0  0  0  0  0  0
    7.8314  -21.0480   23.9717 O   0  0  0  0  0  0  0  0  0  0  0  0
  2  1  1  1
  2  3  1  0
  4  2  1  0
  4  5  2  0
  6  4  1  0
  7  6  1  0
  7 12  1  0
  7  8  1  6
  9 10  1  0
  9  8  1  0
 10 14  1  0
 11 10  2  0
 12 13  2  0
 12 15  1  0
 15 16  1  0
 16 21  1  0
 16 17  1  6
 18 17  1  0
 19 18  1  0
 19 20  2  0
 21 24  2  0
 21 22  1  0
 23 19  1  0
M  END
$$$$
