AEE.pdb
     RDKit          3D

 24 23  0  0  1  0  0  0  0  0999 V2000
    7.4161  -12.2167   19.2815 C   0  0  0  0  0  0  0  0  0  0  0  0
    8.4651  -13.1115   19.8616 C   0  0  2  0  0  0  0  0  0  0  0  0
    8.9070  -14.0395   18.8381 N   0  0  0  0  0  0  0  0  0  0  0  0
    7.9999  -13.8817   21.0368 C   0  0  0  0  0  0  0  0  0  0  0  0
    7.5242  -13.2915   22.0535 O   0  0  0  0  0  0  0  0  0  0  0  0
    8.0514  -15.3004   21.1097 N   0  0  0  0  0  0  0  0  0  0  0  0
    7.6608  -16.0784   22.2570 C   0  0  1  0  0  0  0  0  0  0  0  0
    7.7357  -17.5614   21.9614 C   0  0  0  0  0  0  0  0  0  0  0  0
    7.3409  -18.3990   23.1720 C   0  0  0  0  0  0  0  0  0  0  0  0
    6.9690  -19.7370   22.6788 C   0  0  0  0  0  0  0  0  0  0  0  0
    7.6827  -20.3078   21.8331 O   0  0  0  0  0  0  0  0  0  0  0  0
    8.4961  -15.8150   23.4450 C   0  0  0  0  0  0  0  0  0  0  0  0
    9.7347  -15.7034   23.2614 O   0  0  0  0  0  0  0  0  0  0  0  0
    5.8330  -20.3490   23.1563 O   0  0  0  0  0  0  0  0  0  0  0  0
    8.0097  -15.6813   24.7564 N   0  0  0  0  0  0  0  0  0  0  0  0
    8.8540  -15.3960   25.9257 C   0  0  1  0  0  0  0  0  0  0  0  0
    8.0964  -14.3615   26.7103 C   0  0  0  0  0  0  0  0  0  0  0  0
    7.6241  -13.2633   25.8258 C   0  0  0  0  0  0  0  0  0  0  0  0
    6.9167  -12.2447   26.6331 C   0  0  0  0  0  0  0  0  0  0  0  0
    6.8881  -12.3614   27.8769 O   0  0  0  0  0  0  0  0  0  0  0  0
    9.1497  -16.6191   26.6758 C   0  0  0  0  0  0  0  0  0  0  0  0
   10.0893  -16.7557   27.6786 O   0  0  0  0  0  0  0  0  0  0  0  0
    6.2964  -11.1787   26.0183 O   0  0  0  0  0  0  0  0  0  0  0  0
    8.4932  -17.6574   26.3900 O   0  0  0  0  0  0  0  0  0  0  0  0
  2  1  1  6
  2  3  1  0
  4  2  1  0
  4  5  2  0
  6  4  1  0
  7  6  1  0
  7 12  1  0
  7  8  1  6
  9 10  1  0
  9  8  1  0
 10 14  1  0
 11 10  2  0
 12 13  2  0
 12 15  1  0
 15 16  1  0
 16 21  1  0
 16 17  1  1
 18 17  1  0
 19 18  1  0
 19 20  2  0
 21 24  2  0
 21 22  1  0
 23 19  1  0
M  END
$$$$
