AEE.pdb
     RDKit          3D

 24 23  0  0  1  0  0  0  0  0999 V2000
    8.1986  -11.9678   19.9661 C   0  0  0  0  0  0  0  0  0  0  0  0
    8.2917  -13.0143   18.9013 C   0  0  2  0  0  0  0  0  0  0  0  0
    7.0179  -13.7019   18.8081 N   0  0  0  0  0  0  0  0  0  0  0  0
    9.3570  -14.0122   19.1460 C   0  0  0  0  0  0  0  0  0  0  0  0
    9.0996  -15.1068   19.7324 O   0  0  0  0  0  0  0  0  0  0  0  0
   10.7096  -13.8214   18.7527 N   0  0  0  0  0  0  0  0  0  0  0  0
   11.7660  -14.7797   18.9528 C   0  0  1  0  0  0  0  0  0  0  0  0
   12.9038  -14.5480   17.9813 C   0  0  0  0  0  0  0  0  0  0  0  0
   13.9972  -15.5991   18.1313 C   0  0  0  0  0  0  0  0  0  0  0  0
   15.0205  -15.3185   17.1085 C   0  0  0  0  0  0  0  0  0  0  0  0
   15.1430  -16.0763   16.1282 O   0  0  0  0  0  0  0  0  0  0  0  0
   12.3270  -14.7443   20.3175 C   0  0  0  0  0  0  0  0  0  0  0  0
   12.8153  -13.6539   20.7083 O   0  0  0  0  0  0  0  0  0  0  0  0
   15.8363  -14.2187   17.2430 O   0  0  0  0  0  0  0  0  0  0  0  0
   12.3543  -15.8339   21.2042 N   0  0  0  0  0  0  0  0  0  0  0  0
   12.9543  -15.7925   22.5458 C   0  0  1  0  0  0  0  0  0  0  0  0
   12.2037  -16.8245   23.3404 C   0  0  0  0  0  0  0  0  0  0  0  0
   12.7032  -16.8855   24.7397 C   0  0  0  0  0  0  0  0  0  0  0  0
   11.9785  -17.9418   25.4803 C   0  0  0  0  0  0  0  0  0  0  0  0
   11.0561  -18.5646   24.9120 O   0  0  0  0  0  0  0  0  0  0  0  0
   14.4007  -16.0179   22.4856 C   0  0  0  0  0  0  0  0  0  0  0  0
   15.0888  -16.6405   21.4630 O   0  0  0  0  0  0  0  0  0  0  0  0
   12.3183  -18.2350   26.7832 O   0  0  0  0  0  0  0  0  0  0  0  0
   15.0998  -15.6118   23.4536 O   0  0  0  0  0  0  0  0  0  0  0  0
  2  1  1  1
  2  3  1  0
  4  2  1  0
  4  5  2  0
  6  4  1  0
  7  6  1  0
  7 12  1  0
  7  8  1  6
  9 10  1  0
  9  8  1  0
 10 14  1  0
 11 10  2  0
 12 13  2  0
 12 15  1  0
 15 16  1  0
 16 21  1  0
 16 17  1  1
 18 17  1  0
 19 18  1  0
 19 20  2  0
 21 24  2  0
 21 22  1  0
 23 19  1  0
M  END
$$$$
