AEE.pdb
     RDKit          3D

 24 23  0  0  1  0  0  0  0  0999 V2000
    8.2361  -12.1031   19.9111 C   0  0  0  0  0  0  0  0  0  0  0  0
    8.6269  -12.9826   18.7659 C   0  0  2  0  0  0  0  0  0  0  0  0
    7.4240  -13.4593   18.1101 N   0  0  0  0  0  0  0  0  0  0  0  0
    9.4456  -14.1478   19.1691 C   0  0  0  0  0  0  0  0  0  0  0  0
    8.9257  -15.2989   19.2830 O   0  0  0  0  0  0  0  0  0  0  0  0
   10.8363  -14.0638   19.4509 N   0  0  0  0  0  0  0  0  0  0  0  0
   11.6825  -15.1895   19.7526 C   0  0  1  0  0  0  0  0  0  0  0  0
   12.6445  -15.4683   18.6172 C   0  0  0  0  0  0  0  0  0  0  0  0
   13.7099  -14.3845   18.5009 C   0  0  0  0  0  0  0  0  0  0  0  0
   14.5898  -14.7514   17.3772 C   0  0  0  0  0  0  0  0  0  0  0  0
   15.3222  -13.8903   16.8551 O   0  0  0  0  0  0  0  0  0  0  0  0
   12.4799  -15.0000   20.9800 C   0  0  0  0  0  0  0  0  0  0  0  0
   13.1430  -13.9362   21.0743 O   0  0  0  0  0  0  0  0  0  0  0  0
   14.5971  -16.0456   16.9103 O   0  0  0  0  0  0  0  0  0  0  0  0
   12.5505  -15.9167   22.0425 N   0  0  0  0  0  0  0  0  0  0  0  0
   13.3317  -15.7011   23.2692 C   0  0  1  0  0  0  0  0  0  0  0  0
   12.4551  -16.2024   24.3827 C   0  0  0  0  0  0  0  0  0  0  0  0
   12.0787  -17.6244   24.1645 C   0  0  0  0  0  0  0  0  0  0  0  0
   11.2891  -18.1118   25.3172 C   0  0  0  0  0  0  0  0  0  0  0  0
   11.0740  -17.3445   26.2797 O   0  0  0  0  0  0  0  0  0  0  0  0
   14.6361  -16.3632   23.1890 C   0  0  0  0  0  0  0  0  0  0  0  0
   15.0601  -17.2147   22.1879 O   0  0  0  0  0  0  0  0  0  0  0  0
   10.7966  -19.3988   25.3277 O   0  0  0  0  0  0  0  0  0  0  0  0
   15.4632  -16.1472   24.1163 O   0  0  0  0  0  0  0  0  0  0  0  0
  2  1  1  1
  2  3  1  0
  4  2  1  0
  4  5  2  0
  6  4  1  0
  7  6  1  0
  7 12  1  0
  7  8  1  6
  9 10  1  0
  9  8  1  0
 10 14  1  0
 11 10  2  0
 12 13  2  0
 12 15  1  0
 15 16  1  0
 16 21  1  0
 16 17  1  1
 18 17  1  0
 19 18  1  0
 19 20  2  0
 21 24  2  0
 21 22  1  0
 23 19  1  0
M  END
$$$$
