PWS.pdb
     RDKit          3D

 28 30  0  0  1  0  0  0  0  0999 V2000
   38.5966  -10.3069   -6.6376 N   0  0  0  0  0  0  0  0  0  0  0  0
   37.7496  -11.4972   -6.6042 C   0  0  0  0  0  0  0  0  0  0  0  0
   36.5255  -11.1359   -7.4313 C   0  0  0  0  0  0  0  0  0  0  0  0
   36.9085   -9.8722   -8.1356 C   0  0  0  0  0  0  0  0  0  0  0  0
   38.4177   -9.8671   -8.0027 C   0  0  1  0  0  0  0  0  0  0  0  0
   38.8985   -8.4957   -8.2296 C   0  0  0  0  0  0  0  0  0  0  0  0
   38.7732   -7.9681   -9.3619 O   0  0  0  0  0  0  0  0  0  0  0  0
   39.5199   -7.6925   -7.2161 N   0  0  0  0  0  0  0  0  0  0  0  0
   39.9206   -6.3164   -7.4870 C   0  0  1  0  0  0  0  0  0  0  0  0
   39.1351   -5.2970   -6.7451 C   0  0  0  0  0  0  0  0  0  0  0  0
   37.7011   -5.2578   -6.9938 C   0  0  0  0  0  0  0  0  0  0  0  0
   36.6837   -5.9820   -6.4474 C   0  0  0  0  0  0  0  0  0  0  0  0
   35.4933   -5.5928   -6.9850 N   0  0  0  0  0  0  0  0  0  0  0  0
   35.7392   -4.6194   -7.8767 C   0  0  0  0  0  0  0  0  0  0  0  0
   34.8739   -3.9065   -8.6773 C   0  0  0  0  0  0  0  0  0  0  0  0
   35.3489   -2.9395   -9.5317 C   0  0  0  0  0  0  0  0  0  0  0  0
   36.6947   -2.6923   -9.5781 C   0  0  0  0  0  0  0  0  0  0  0  0
   37.5464   -3.4175   -8.7674 C   0  0  0  0  0  0  0  0  0  0  0  0
   37.1094   -4.3946   -7.8983 C   0  0  0  0  0  0  0  0  0  0  0  0
   41.4003   -6.1855   -7.3309 C   0  0  0  0  0  0  0  0  0  0  0  0
   41.9854   -6.6228   -6.2972 O   0  0  0  0  0  0  0  0  0  0  0  0
   43.7808   -5.1478  -10.6037 O   0  0  0  0  0  0  0  0  0  0  0  0
   44.2923   -5.9270   -9.5610 C   0  0  0  0  0  0  0  0  0  0  0  0
   43.6657   -5.5442   -8.2350 C   0  0  2  0  0  0  0  0  0  0  0  0
   42.2190   -5.5783   -8.3079 N   0  0  0  0  0  0  0  0  0  0  0  0
   44.1788   -4.2714   -7.7178 C   0  0  0  0  0  0  0  0  0  0  0  0
   43.4183   -3.2754   -7.6642 O   0  0  0  0  0  0  0  0  0  0  0  0
   45.4817   -4.0981   -7.2745 O   0  0  0  0  0  0  0  0  0  0  0  0
  1  5  1  0
  2  3  1  0
  2  1  1  0
  3  4  1  0
  4  5  1  0
  5  6  1  1
  6  7  2  0
  8  9  1  0
  8  6  1  0
  9 20  1  0
 10 11  1  0
  9 10  1  1
 11 12  2  0
 12 13  1  0
 14 13  1  0
 15 14  2  0
 16 15  1  0
 17 18  1  0
 17 16  2  0
 18 19  2  0
 19 11  1  0
 19 14  1  0
 20 21  2  0
 23 22  1  0
 24 23  1  6
 24 26  1  0
 25 20  1  0
 25 24  1  0
 26 27  2  0
 26 28  1  0
M  END
$$$$
