PWS.pdb
     RDKit          3D

 28 30  0  0  1  0  0  0  0  0999 V2000
   23.8214   -8.6938  -21.4993 N   0  0  0  0  0  0  0  0  0  0  0  0
   23.9145   -9.7166  -22.5387 C   0  0  0  0  0  0  0  0  0  0  0  0
   23.8162  -11.0425  -21.8000 C   0  0  0  0  0  0  0  0  0  0  0  0
   23.3600  -10.6718  -20.4238 C   0  0  0  0  0  0  0  0  0  0  0  0
   22.8266   -9.2678  -20.6219 C   0  0  1  0  0  0  0  0  0  0  0  0
   22.7691   -8.6042  -19.3105 C   0  0  0  0  0  0  0  0  0  0  0  0
   21.9560   -9.0047  -18.4418 O   0  0  0  0  0  0  0  0  0  0  0  0
   23.6033   -7.4966  -18.9420 N   0  0  0  0  0  0  0  0  0  0  0  0
   23.5080   -6.8903  -17.6188 C   0  0  1  0  0  0  0  0  0  0  0  0
   24.8170   -6.6909  -16.9455 C   0  0  0  0  0  0  0  0  0  0  0  0
   25.5696   -7.8872  -16.5963 C   0  0  0  0  0  0  0  0  0  0  0  0
   26.7702   -8.3464  -17.0497 C   0  0  0  0  0  0  0  0  0  0  0  0
   27.0874   -9.5164  -16.4267 N   0  0  0  0  0  0  0  0  0  0  0  0
   26.0952   -9.8137  -15.5722 C   0  0  0  0  0  0  0  0  0  0  0  0
   25.9472  -10.8845  -14.7182 C   0  0  0  0  0  0  0  0  0  0  0  0
   24.8329  -10.9923  -13.9197 C   0  0  0  0  0  0  0  0  0  0  0  0
   23.8698  -10.0213  -13.9828 C   0  0  0  0  0  0  0  0  0  0  0  0
   24.0364   -8.9552  -14.8454 C   0  0  0  0  0  0  0  0  0  0  0  0
   25.1383   -8.8113  -15.6616 C   0  0  0  0  0  0  0  0  0  0  0  0
   22.6602   -5.6627  -17.6902 C   0  0  0  0  0  0  0  0  0  0  0  0
   22.6986   -4.9049  -18.7033 O   0  0  0  0  0  0  0  0  0  0  0  0
   18.7336   -3.3867  -17.4533 O   0  0  0  0  0  0  0  0  0  0  0  0
   19.5668   -4.5047  -17.3452 C   0  0  0  0  0  0  0  0  0  0  0  0
   20.9003   -4.1341  -16.7272 C   0  0  2  0  0  0  0  0  0  0  0  0
   21.7821   -5.2814  -16.6523 N   0  0  0  0  0  0  0  0  0  0  0  0
   20.7515   -3.4468  -15.4403 C   0  0  0  0  0  0  0  0  0  0  0  0
   20.7644   -4.1148  -14.3787 O   0  0  0  0  0  0  0  0  0  0  0  0
   20.5942   -2.0737  -15.3228 O   0  0  0  0  0  0  0  0  0  0  0  0
  1  5  1  0
  2  3  1  0
  2  1  1  0
  3  4  1  0
  4  5  1  0
  5  6  1  1
  6  7  2  0
  8  9  1  0
  8  6  1  0
  9 20  1  0
 10 11  1  0
  9 10  1  6
 11 12  2  0
 12 13  1  0
 14 13  1  0
 15 14  2  0
 16 15  1  0
 17 18  1  0
 17 16  2  0
 18 19  2  0
 19 11  1  0
 19 14  1  0
 20 21  2  0
 23 22  1  0
 24 23  1  1
 24 26  1  0
 25 20  1  0
 25 24  1  0
 26 27  2  0
 26 28  1  0
M  END
$$$$
