PWS.pdb
     RDKit          3D

 28 30  0  0  1  0  0  0  0  0999 V2000
   27.7524  -19.2501  -14.6140 N   0  0  0  0  0  0  0  0  0  0  0  0
   28.6362  -19.2486  -15.7777 C   0  0  0  0  0  0  0  0  0  0  0  0
   29.5730  -20.4278  -15.5655 C   0  0  0  0  0  0  0  0  0  0  0  0
   28.9513  -21.2039  -14.4471 C   0  0  0  0  0  0  0  0  0  0  0  0
   27.5353  -20.6660  -14.4220 C   0  0  1  0  0  0  0  0  0  0  0  0
   26.9425  -20.9817  -13.1134 C   0  0  0  0  0  0  0  0  0  0  0  0
   26.5150  -22.1394  -12.8831 O   0  0  0  0  0  0  0  0  0  0  0  0
   26.8147  -20.0300  -12.0474 N   0  0  0  0  0  0  0  0  0  0  0  0
   26.1922  -20.3979  -10.7807 C   0  0  1  0  0  0  0  0  0  0  0  0
   26.8329  -19.7867   -9.5880 C   0  0  0  0  0  0  0  0  0  0  0  0
   26.4570  -20.3234   -8.2879 C   0  0  0  0  0  0  0  0  0  0  0  0
   25.4009  -21.1022   -7.9189 C   0  0  0  0  0  0  0  0  0  0  0  0
   25.4620  -21.3684   -6.5836 N   0  0  0  0  0  0  0  0  0  0  0  0
   26.5546  -20.7640   -6.0896 C   0  0  0  0  0  0  0  0  0  0  0  0
   27.0500  -20.7329   -4.8045 C   0  0  0  0  0  0  0  0  0  0  0  0
   28.2027  -20.0407   -4.5168 C   0  0  0  0  0  0  0  0  0  0  0  0
   28.8545  -19.3812   -5.5242 C   0  0  0  0  0  0  0  0  0  0  0  0
   28.3420  -19.4243   -6.8064 C   0  0  0  0  0  0  0  0  0  0  0  0
   27.1898  -20.1066   -7.1349 C   0  0  0  0  0  0  0  0  0  0  0  0
   24.7170  -20.1799  -10.8655 C   0  0  0  0  0  0  0  0  0  0  0  0
   24.2414  -19.0222  -11.0541 O   0  0  0  0  0  0  0  0  0  0  0  0
   22.3832  -22.2049  -13.1305 O   0  0  0  0  0  0  0  0  0  0  0  0
   21.8369  -22.2282  -11.8433 C   0  0  0  0  0  0  0  0  0  0  0  0
   22.3657  -21.0814  -11.0049 C   0  0  2  0  0  0  0  0  0  0  0  0
   23.7828  -21.2315  -10.7429 N   0  0  0  0  0  0  0  0  0  0  0  0
   21.5813  -20.8698   -9.7839 C   0  0  0  0  0  0  0  0  0  0  0  0
   22.1502  -20.9257   -8.6674 O   0  0  0  0  0  0  0  0  0  0  0  0
   20.2196  -20.6059   -9.7884 O   0  0  0  0  0  0  0  0  0  0  0  0
  1  5  1  0
  2  3  1  0
  2  1  1  0
  3  4  1  0
  4  5  1  0
  5  6  1  1
  6  7  2  0
  8  9  1  0
  8  6  1  0
  9 20  1  0
 10 11  1  0
  9 10  1  1
 11 12  2  0
 12 13  1  0
 14 13  1  0
 15 14  2  0
 16 15  1  0
 17 18  1  0
 17 16  2  0
 18 19  2  0
 19 11  1  0
 19 14  1  0
 20 21  2  0
 23 22  1  0
 24 23  1  1
 24 26  1  0
 25 20  1  0
 25 24  1  0
 26 27  2  0
 26 28  1  0
M  END
$$$$
