PWS.pdb
     RDKit          3D

 28 30  0  0  1  0  0  0  0  0999 V2000
   29.0443  -19.9836  -12.0906 N   0  0  0  0  0  0  0  0  0  0  0  0
   30.4363  -20.0193  -12.5335 C   0  0  0  0  0  0  0  0  0  0  0  0
   31.1684  -20.8295  -11.4749 C   0  0  0  0  0  0  0  0  0  0  0  0
   30.0790  -21.4612  -10.6664 C   0  0  0  0  0  0  0  0  0  0  0  0
   28.8742  -21.3228  -11.5744 C   0  0  1  0  0  0  0  0  0  0  0  0
   27.6593  -21.4717  -10.7588 C   0  0  0  0  0  0  0  0  0  0  0  0
   27.4302  -22.5564  -10.1698 O   0  0  0  0  0  0  0  0  0  0  0  0
   26.6868  -20.4316  -10.5828 N   0  0  0  0  0  0  0  0  0  0  0  0
   25.4699  -20.6617   -9.8122 C   0  0  1  0  0  0  0  0  0  0  0  0
   25.3048  -19.7514   -8.6500 C   0  0  0  0  0  0  0  0  0  0  0  0
   26.5136  -19.3632   -7.9375 C   0  0  0  0  0  0  0  0  0  0  0  0
   27.4071  -18.3631   -8.1812 C   0  0  0  0  0  0  0  0  0  0  0  0
   28.3886  -18.3742   -7.2357 N   0  0  0  0  0  0  0  0  0  0  0  0
   28.1313  -19.3784   -6.3822 C   0  0  0  0  0  0  0  0  0  0  0  0
   28.8228  -19.7976   -5.2669 C   0  0  0  0  0  0  0  0  0  0  0  0
   28.3735  -20.8660   -4.5271 C   0  0  0  0  0  0  0  0  0  0  0  0
   27.2283  -21.5101   -4.9120 C   0  0  0  0  0  0  0  0  0  0  0  0
   26.5488  -21.0747   -6.0332 C   0  0  0  0  0  0  0  0  0  0  0  0
   26.9668  -20.0084   -6.8009 C   0  0  0  0  0  0  0  0  0  0  0  0
   24.2943  -20.7028  -10.7327 C   0  0  0  0  0  0  0  0  0  0  0  0
   24.3630  -20.2092  -11.8962 O   0  0  0  0  0  0  0  0  0  0  0  0
   19.5583  -21.8595  -11.3303 O   0  0  0  0  0  0  0  0  0  0  0  0
   20.7131  -21.9538  -10.5470 C   0  0  0  0  0  0  0  0  0  0  0  0
   21.8437  -21.1373  -11.1407 C   0  0  2  0  0  0  0  0  0  0  0  0
   23.0603  -21.2834  -10.3674 N   0  0  0  0  0  0  0  0  0  0  0  0
   21.4716  -19.7350  -11.3551 C   0  0  0  0  0  0  0  0  0  0  0  0
   21.6428  -18.9030  -10.4322 O   0  0  0  0  0  0  0  0  0  0  0  0
   20.9305  -19.2624  -12.5417 O   0  0  0  0  0  0  0  0  0  0  0  0
  1  5  1  0
  2  3  1  0
  2  1  1  0
  3  4  1  0
  4  5  1  0
  5  6  1  1
  6  7  2  0
  8  9  1  0
  8  6  1  0
  9 20  1  0
 10 11  1  0
  9 10  1  1
 11 12  2  0
 12 13  1  0
 14 13  1  0
 15 14  2  0
 16 15  1  0
 17 18  1  0
 17 16  2  0
 18 19  2  0
 19 11  1  0
 19 14  1  0
 20 21  2  0
 23 22  1  0
 24 23  1  1
 24 26  1  0
 25 20  1  0
 25 24  1  0
 26 27  2  0
 26 28  1  0
M  END
$$$$
