PWS.pdb
     RDKit          3D

 28 30  0  0  1  0  0  0  0  0999 V2000
   28.3589  -19.2020  -13.2170 N   0  0  0  0  0  0  0  0  0  0  0  0
   29.5036  -19.0716  -14.1157 C   0  0  0  0  0  0  0  0  0  0  0  0
   30.3161  -20.3406  -13.9095 C   0  0  0  0  0  0  0  0  0  0  0  0
   29.4090  -21.2448  -13.1355 C   0  0  0  0  0  0  0  0  0  0  0  0
   28.0510  -20.6080  -13.3486 C   0  0  1  0  0  0  0  0  0  0  0  0
   27.1409  -21.0951  -12.3008 C   0  0  0  0  0  0  0  0  0  0  0  0
   26.7391  -22.2842  -12.3243 O   0  0  0  0  0  0  0  0  0  0  0  0
   26.6650  -20.2814  -11.2191 N   0  0  0  0  0  0  0  0  0  0  0  0
   25.5641  -20.7253  -10.3715 C   0  0  1  0  0  0  0  0  0  0  0  0
   25.7892  -20.5088   -8.9192 C   0  0  0  0  0  0  0  0  0  0  0  0
   27.1625  -20.5937   -8.4434 C   0  0  0  0  0  0  0  0  0  0  0  0
   28.3014  -20.9886   -9.0799 C   0  0  0  0  0  0  0  0  0  0  0  0
   29.3652  -20.8949   -8.2331 N   0  0  0  0  0  0  0  0  0  0  0  0
   28.9165  -20.4405   -7.0519 C   0  0  0  0  0  0  0  0  0  0  0  0
   29.5963  -20.1794   -5.8825 C   0  0  0  0  0  0  0  0  0  0  0  0
   28.9279  -19.7126   -4.7752 C   0  0  0  0  0  0  0  0  0  0  0  0
   27.5758  -19.5096   -4.8479 C   0  0  0  0  0  0  0  0  0  0  0  0
   26.9119  -19.7772   -6.0295 C   0  0  0  0  0  0  0  0  0  0  0  0
   27.5459  -20.2459   -7.1606 C   0  0  0  0  0  0  0  0  0  0  0  0
   24.2788  -20.1635  -10.8847 C   0  0  0  0  0  0  0  0  0  0  0  0
   24.0506  -18.9193  -10.8413 O   0  0  0  0  0  0  0  0  0  0  0  0
   21.3950  -22.6234  -12.8044 O   0  0  0  0  0  0  0  0  0  0  0  0
   21.5964  -21.2978  -13.2023 C   0  0  0  0  0  0  0  0  0  0  0  0
   22.0531  -20.4416  -12.0379 C   0  0  2  0  0  0  0  0  0  0  0  0
   23.2613  -20.9709  -11.4382 N   0  0  0  0  0  0  0  0  0  0  0  0
   20.9866  -20.2104  -11.0583 C   0  0  0  0  0  0  0  0  0  0  0  0
   21.1219  -20.6365   -9.8864 O   0  0  0  0  0  0  0  0  0  0  0  0
   19.8121  -19.5345  -11.3548 O   0  0  0  0  0  0  0  0  0  0  0  0
  1  5  1  0
  2  3  1  0
  2  1  1  0
  3  4  1  0
  4  5  1  0
  5  6  1  1
  6  7  2  0
  8  9  1  0
  8  6  1  0
  9 20  1  0
 10 11  1  0
  9 10  1  1
 11 12  2  0
 12 13  1  0
 14 13  1  0
 15 14  2  0
 16 15  1  0
 17 18  1  0
 17 16  2  0
 18 19  2  0
 19 11  1  0
 19 14  1  0
 20 21  2  0
 23 22  1  0
 24 23  1  6
 24 26  1  0
 25 20  1  0
 25 24  1  0
 26 27  2  0
 26 28  1  0
M  END
$$$$
