PWS.pdb
     RDKit          3D

 28 30  0  0  1  0  0  0  0  0999 V2000
   27.5601  -18.8167  -14.6369 N   0  0  0  0  0  0  0  0  0  0  0  0
   28.7323  -18.4772  -15.4405 C   0  0  0  0  0  0  0  0  0  0  0  0
   29.7494  -19.5668  -15.1380 C   0  0  0  0  0  0  0  0  0  0  0  0
   28.9666  -20.6215  -14.4208 C   0  0  0  0  0  0  0  0  0  0  0  0
   27.5361  -20.2565  -14.7606 C   0  0  1  0  0  0  0  0  0  0  0  0
   26.6479  -20.9003  -13.7808 C   0  0  0  0  0  0  0  0  0  0  0  0
   26.4577  -22.1403  -13.8287 O   0  0  0  0  0  0  0  0  0  0  0  0
   25.9620  -20.1887  -12.7407 N   0  0  0  0  0  0  0  0  0  0  0  0
   25.0983  -20.8865  -11.7948 C   0  0  1  0  0  0  0  0  0  0  0  0
   25.4249  -20.6290  -10.3688 C   0  0  0  0  0  0  0  0  0  0  0  0
   26.7930  -20.8925   -9.9460 C   0  0  0  0  0  0  0  0  0  0  0  0
   27.7928  -21.5911  -10.5545 C   0  0  0  0  0  0  0  0  0  0  0  0
   28.9165  -21.5639   -9.7837 N   0  0  0  0  0  0  0  0  0  0  0  0
   28.6451  -20.8495   -8.6796 C   0  0  0  0  0  0  0  0  0  0  0  0
   29.4459  -20.5361   -7.6032 C   0  0  0  0  0  0  0  0  0  0  0  0
   28.9555  -19.7805   -6.5644 C   0  0  0  0  0  0  0  0  0  0  0  0
   27.6594  -19.3417   -6.6116 C   0  0  0  0  0  0  0  0  0  0  0  0
   26.8722  -19.6663   -7.6995 C   0  0  0  0  0  0  0  0  0  0  0  0
   27.3266  -20.4213   -8.7600 C   0  0  0  0  0  0  0  0  0  0  0  0
   23.6679  -20.6458  -12.1510 C   0  0  0  0  0  0  0  0  0  0  0  0
   23.2374  -19.4728  -12.3530 O   0  0  0  0  0  0  0  0  0  0  0  0
   21.3447  -23.2643  -14.2746 O   0  0  0  0  0  0  0  0  0  0  0  0
   20.7052  -22.7761  -13.1306 C   0  0  0  0  0  0  0  0  0  0  0  0
   21.3442  -21.4860  -12.6565 C   0  0  2  0  0  0  0  0  0  0  0  0
   22.7285  -21.6918  -12.2812 N   0  0  0  0  0  0  0  0  0  0  0  0
   20.5629  -20.8250  -11.6060 C   0  0  0  0  0  0  0  0  0  0  0  0
   20.9326  -20.9176  -10.4110 O   0  0  0  0  0  0  0  0  0  0  0  0
   19.4154  -20.0877  -11.8587 O   0  0  0  0  0  0  0  0  0  0  0  0
  1  5  1  0
  2  3  1  0
  2  1  1  0
  3  4  1  0
  4  5  1  0
  5  6  1  1
  6  7  2  0
  8  9  1  0
  8  6  1  0
  9 20  1  0
 10 11  1  0
  9 10  1  1
 11 12  2  0
 12 13  1  0
 14 13  1  0
 15 14  2  0
 16 15  1  0
 17 18  1  0
 17 16  2  0
 18 19  2  0
 19 11  1  0
 19 14  1  0
 20 21  2  0
 23 22  1  0
 24 23  1  1
 24 26  1  0
 25 20  1  0
 25 24  1  0
 26 27  2  0
 26 28  1  0
M  END
$$$$
