PWS.pdb
     RDKit          3D

 28 30  0  0  1  0  0  0  0  0999 V2000
   28.0093  -19.8278  -15.1041 N   0  0  0  0  0  0  0  0  0  0  0  0
   28.7928  -20.0055  -16.3246 C   0  0  0  0  0  0  0  0  0  0  0  0
   29.4282  -21.3809  -16.1911 C   0  0  0  0  0  0  0  0  0  0  0  0
   28.7084  -22.0164  -15.0432 C   0  0  0  0  0  0  0  0  0  0  0  0
   27.4687  -21.1549  -14.9158 C   0  0  1  0  0  0  0  0  0  0  0  0
   26.9001  -21.3562  -13.5743 C   0  0  0  0  0  0  0  0  0  0  0  0
   25.9711  -22.1836  -13.4062 O   0  0  0  0  0  0  0  0  0  0  0  0
   27.3466  -20.6515  -12.4070 N   0  0  0  0  0  0  0  0  0  0  0  0
   26.7152  -20.8677  -11.1100 C   0  0  1  0  0  0  0  0  0  0  0  0
   27.5809  -20.5362   -9.9493 C   0  0  0  0  0  0  0  0  0  0  0  0
   26.9803  -20.6363   -8.6269 C   0  0  0  0  0  0  0  0  0  0  0  0
   25.7455  -21.0658   -8.2412 C   0  0  0  0  0  0  0  0  0  0  0  0
   25.6276  -20.9894   -6.8856 N   0  0  0  0  0  0  0  0  0  0  0  0
   26.7828  -20.5121   -6.3949 C   0  0  0  0  0  0  0  0  0  0  0  0
   27.1587  -20.2548   -5.0947 C   0  0  0  0  0  0  0  0  0  0  0  0
   28.4104  -19.7593   -4.8145 C   0  0  0  0  0  0  0  0  0  0  0  0
   29.2812  -19.5239   -5.8444 C   0  0  0  0  0  0  0  0  0  0  0  0
   28.8858  -19.7884   -7.1414 C   0  0  0  0  0  0  0  0  0  0  0  0
   27.6405  -20.2851   -7.4632 C   0  0  0  0  0  0  0  0  0  0  0  0
   25.3769  -20.2048  -11.0878 C   0  0  0  0  0  0  0  0  0  0  0  0
   25.2771  -18.9430  -11.0903 O   0  0  0  0  0  0  0  0  0  0  0  0
   22.8874  -20.4391  -13.6416 O   0  0  0  0  0  0  0  0  0  0  0  0
   22.1860  -20.8338  -12.4979 C   0  0  0  0  0  0  0  0  0  0  0  0
   22.8624  -20.3259  -11.2401 C   0  0  2  0  0  0  0  0  0  0  0  0
   24.1667  -20.9316  -11.0633 N   0  0  0  0  0  0  0  0  0  0  0  0
   22.0106  -20.4542  -10.0532 C   0  0  0  0  0  0  0  0  0  0  0  0
   20.8913  -19.8884  -10.0326 O   0  0  0  0  0  0  0  0  0  0  0  0
   22.3748  -21.1788   -8.9278 O   0  0  0  0  0  0  0  0  0  0  0  0
  1  5  1  0
  2  3  1  0
  2  1  1  0
  3  4  1  0
  4  5  1  0
  5  6  1  1
  6  7  2  0
  8  9  1  0
  8  6  1  0
  9 20  1  0
 10 11  1  0
  9 10  1  1
 11 12  2  0
 12 13  1  0
 14 13  1  0
 15 14  2  0
 16 15  1  0
 17 18  1  0
 17 16  2  0
 18 19  2  0
 19 11  1  0
 19 14  1  0
 20 21  2  0
 23 22  1  0
 24 23  1  6
 24 26  1  0
 25 20  1  0
 25 24  1  0
 26 27  2  0
 26 28  1  0
M  END
$$$$
