PWS.pdb
     RDKit          3D

 28 30  0  0  1  0  0  0  0  0999 V2000
   27.6066  -18.5092  -14.4896 N   0  0  0  0  0  0  0  0  0  0  0  0
   28.7998  -18.0573  -15.2018 C   0  0  0  0  0  0  0  0  0  0  0  0
   29.8607  -19.1052  -14.9025 C   0  0  0  0  0  0  0  0  0  0  0  0
   29.1025  -20.2431  -14.2942 C   0  0  0  0  0  0  0  0  0  0  0  0
   27.6742  -19.9380  -14.6965 C   0  0  1  0  0  0  0  0  0  0  0  0
   26.7722  -20.6880  -13.8092 C   0  0  0  0  0  0  0  0  0  0  0  0
   26.6697  -21.9335  -13.9291 O   0  0  0  0  0  0  0  0  0  0  0  0
   25.9762  -20.0775  -12.7834 N   0  0  0  0  0  0  0  0  0  0  0  0
   25.0826  -20.8741  -11.9502 C   0  0  1  0  0  0  0  0  0  0  0  0
   25.3153  -20.7224  -10.4909 C   0  0  0  0  0  0  0  0  0  0  0  0
   26.6844  -20.8767  -10.0204 C   0  0  0  0  0  0  0  0  0  0  0  0
   27.7666  -21.4600  -10.6091 C   0  0  0  0  0  0  0  0  0  0  0  0
   28.8526  -21.3595   -9.7917 N   0  0  0  0  0  0  0  0  0  0  0  0
   28.4747  -20.7128   -8.6772 C   0  0  0  0  0  0  0  0  0  0  0  0
   29.2014  -20.3676   -7.5589 C   0  0  0  0  0  0  0  0  0  0  0  0
   28.6043  -19.6972   -6.5173 C   0  0  0  0  0  0  0  0  0  0  0  0
   27.2763  -19.3756   -6.6042 C   0  0  0  0  0  0  0  0  0  0  0  0
   26.5646  -19.7303   -7.7339 C   0  0  0  0  0  0  0  0  0  0  0  0
   27.1266  -20.4024   -8.7985 C   0  0  0  0  0  0  0  0  0  0  0  0
   23.6683  -20.6480  -12.3739 C   0  0  0  0  0  0  0  0  0  0  0  0
   23.2298  -19.4777  -12.5748 O   0  0  0  0  0  0  0  0  0  0  0  0
   21.5655  -22.9124  -14.8847 O   0  0  0  0  0  0  0  0  0  0  0  0
   20.8300  -22.6975  -13.7147 C   0  0  0  0  0  0  0  0  0  0  0  0
   21.3669  -21.5085  -12.9429 C   0  0  2  0  0  0  0  0  0  0  0  0
   22.7537  -21.7052  -12.5721 N   0  0  0  0  0  0  0  0  0  0  0  0
   20.5187  -21.1502  -11.8015 C   0  0  0  0  0  0  0  0  0  0  0  0
   20.8628  -21.4933  -10.6451 O   0  0  0  0  0  0  0  0  0  0  0  0
   19.3338  -20.4398  -11.9252 O   0  0  0  0  0  0  0  0  0  0  0  0
  1  5  1  0
  2  3  1  0
  2  1  1  0
  3  4  1  0
  4  5  1  0
  5  6  1  1
  6  7  2  0
  8  9  1  0
  8  6  1  0
  9 20  1  0
 10 11  1  0
  9 10  1  1
 11 12  2  0
 12 13  1  0
 14 13  1  0
 15 14  2  0
 16 15  1  0
 17 18  1  0
 17 16  2  0
 18 19  2  0
 19 11  1  0
 19 14  1  0
 20 21  2  0
 23 22  1  0
 24 23  1  1
 24 26  1  0
 25 20  1  0
 25 24  1  0
 26 27  2  0
 26 28  1  0
M  END
$$$$
