PWS.pdb
     RDKit          3D

 28 30  0  0  1  0  0  0  0  0999 V2000
   27.7642  -21.6205  -15.6265 N   0  0  0  0  0  0  0  0  0  0  0  0
   29.0892  -21.8071  -16.2136 C   0  0  0  0  0  0  0  0  0  0  0  0
   28.8714  -22.7391  -17.3956 C   0  0  0  0  0  0  0  0  0  0  0  0
   27.3868  -22.7664  -17.5828 C   0  0  0  0  0  0  0  0  0  0  0  0
   26.9360  -21.5447  -16.8086 C   0  0  1  0  0  0  0  0  0  0  0  0
   25.5022  -21.6863  -16.5127 C   0  0  0  0  0  0  0  0  0  0  0  0
   24.6682  -21.7014  -17.4510 O   0  0  0  0  0  0  0  0  0  0  0  0
   24.9724  -21.8129  -15.1853 N   0  0  0  0  0  0  0  0  0  0  0  0
   23.5576  -22.0894  -14.9629 C   0  0  1  0  0  0  0  0  0  0  0  0
   23.2846  -23.4238  -14.3700 C   0  0  0  0  0  0  0  0  0  0  0  0
   23.7303  -24.5862  -15.1248 C   0  0  0  0  0  0  0  0  0  0  0  0
   24.7974  -25.4131  -14.9364 C   0  0  0  0  0  0  0  0  0  0  0  0
   24.8120  -26.3813  -15.8956 N   0  0  0  0  0  0  0  0  0  0  0  0
   23.7573  -26.1819  -16.7025 C   0  0  0  0  0  0  0  0  0  0  0  0
   23.3388  -26.8858  -17.8104 C   0  0  0  0  0  0  0  0  0  0  0  0
   22.2130  -26.4997  -18.4989 C   0  0  0  0  0  0  0  0  0  0  0  0
   21.5106  -25.4055  -18.0702 C   0  0  0  0  0  0  0  0  0  0  0  0
   21.9461  -24.7128  -16.9571 C   0  0  0  0  0  0  0  0  0  0  0  0
   23.0691  -25.0679  -16.2403 C   0  0  0  0  0  0  0  0  0  0  0  0
   22.9344  -20.9499  -14.2254 C   0  0  0  0  0  0  0  0  0  0  0  0
   23.4292  -20.5319  -13.1380 O   0  0  0  0  0  0  0  0  0  0  0  0
   19.2581  -19.0205  -15.4522 O   0  0  0  0  0  0  0  0  0  0  0  0
   20.3579  -18.3094  -14.9615 C   0  0  0  0  0  0  0  0  0  0  0  0
   21.1741  -19.1571  -14.0062 C   0  0  2  0  0  0  0  0  0  0  0  0
   21.7788  -20.2835  -14.6880 N   0  0  0  0  0  0  0  0  0  0  0  0
   20.4130  -19.5544  -12.8172 C   0  0  0  0  0  0  0  0  0  0  0  0
   20.0692  -20.7524  -12.6762 O   0  0  0  0  0  0  0  0  0  0  0  0
   20.0423  -18.6672  -11.8174 O   0  0  0  0  0  0  0  0  0  0  0  0
  1  5  1  0
  2  3  1  0
  2  1  1  0
  3  4  1  0
  4  5  1  0
  5  6  1  1
  6  7  2  0
  8  9  1  0
  8  6  1  0
  9 20  1  0
 10 11  1  0
  9 10  1  1
 11 12  2  0
 12 13  1  0
 14 13  1  0
 15 14  2  0
 16 15  1  0
 17 18  1  0
 17 16  2  0
 18 19  2  0
 19 11  1  0
 19 14  1  0
 20 21  2  0
 23 22  1  0
 24 23  1  6
 24 26  1  0
 25 20  1  0
 25 24  1  0
 26 27  2  0
 26 28  1  0
M  END
$$$$
