PWS.pdb
     RDKit          3D

 28 30  0  0  1  0  0  0  0  0999 V2000
   27.7039  -21.5004  -15.6071 N   0  0  0  0  0  0  0  0  0  0  0  0
   28.4478  -21.6126  -16.8597 C   0  0  0  0  0  0  0  0  0  0  0  0
   28.4399  -20.2119  -17.4523 C   0  0  0  0  0  0  0  0  0  0  0  0
   27.9585  -19.3364  -16.3382 C   0  0  0  0  0  0  0  0  0  0  0  0
   28.1552  -20.2163  -15.1208 C   0  0  1  0  0  0  0  0  0  0  0  0
   27.3200  -19.6919  -14.0297 C   0  0  0  0  0  0  0  0  0  0  0  0
   27.5949  -18.5832  -13.5087 O   0  0  0  0  0  0  0  0  0  0  0  0
   26.1765  -20.3793  -13.5020 N   0  0  0  0  0  0  0  0  0  0  0  0
   25.2968  -19.7405  -12.5297 C   0  0  1  0  0  0  0  0  0  0  0  0
   24.0164  -19.2479  -13.0993 C   0  0  0  0  0  0  0  0  0  0  0  0
   23.8745  -19.2984  -14.5474 C   0  0  0  0  0  0  0  0  0  0  0  0
   23.6090  -20.3452  -15.3790 C   0  0  0  0  0  0  0  0  0  0  0  0
   23.5600  -19.9137  -16.6708 N   0  0  0  0  0  0  0  0  0  0  0  0
   23.7929  -18.5913  -16.6757 C   0  0  0  0  0  0  0  0  0  0  0  0
   23.8486  -17.7013  -17.7258 C   0  0  0  0  0  0  0  0  0  0  0  0
   24.1062  -16.3697  -17.4999 C   0  0  0  0  0  0  0  0  0  0  0  0
   24.3071  -15.9368  -16.2167 C   0  0  0  0  0  0  0  0  0  0  0  0
   24.2470  -16.8445  -15.1770 C   0  0  0  0  0  0  0  0  0  0  0  0
   23.9916  -18.1867  -15.3622 C   0  0  0  0  0  0  0  0  0  0  0  0
   25.1387  -20.6277  -11.3385 C   0  0  0  0  0  0  0  0  0  0  0  0
   24.9266  -21.8679  -11.4760 O   0  0  0  0  0  0  0  0  0  0  0  0
   25.3458  -21.1957   -6.4921 O   0  0  0  0  0  0  0  0  0  0  0  0
   25.5656  -20.3737   -7.6020 C   0  0  0  0  0  0  0  0  0  0  0  0
   24.9244  -20.9540   -8.8468 C   0  0  2  0  0  0  0  0  0  0  0  0
   25.2150  -20.1455  -10.0136 N   0  0  0  0  0  0  0  0  0  0  0  0
   23.4903  -21.2075   -8.6740 C   0  0  0  0  0  0  0  0  0  0  0  0
   22.6583  -20.4469   -9.2240 O   0  0  0  0  0  0  0  0  0  0  0  0
   22.9869  -22.2597   -7.9233 O   0  0  0  0  0  0  0  0  0  0  0  0
  1  5  1  0
  2  3  1  0
  2  1  1  0
  3  4  1  0
  4  5  1  0
  5  6  1  1
  6  7  2  0
  8  9  1  0
  8  6  1  0
  9 20  1  0
 10 11  1  0
  9 10  1  6
 11 12  2  0
 12 13  1  0
 14 13  1  0
 15 14  2  0
 16 15  1  0
 17 18  1  0
 17 16  2  0
 18 19  2  0
 19 11  1  0
 19 14  1  0
 20 21  2  0
 23 22  1  0
 24 23  1  1
 24 26  1  0
 25 20  1  0
 25 24  1  0
 26 27  2  0
 26 28  1  0
M  END
$$$$
