PWS.pdb
     RDKit          3D

 28 30  0  0  1  0  0  0  0  0999 V2000
   27.3114  -18.5697  -14.5043 N   0  0  0  0  0  0  0  0  0  0  0  0
   28.4271  -18.1215  -15.3346 C   0  0  0  0  0  0  0  0  0  0  0  0
   29.5203  -19.1573  -15.1224 C   0  0  0  0  0  0  0  0  0  0  0  0
   28.8333  -20.2903  -14.4267 C   0  0  0  0  0  0  0  0  0  0  0  0
   27.3705  -20.0012  -14.6947 C   0  0  1  0  0  0  0  0  0  0  0  0
   26.5639  -20.7428  -13.7135 C   0  0  0  0  0  0  0  0  0  0  0  0
   26.4069  -21.9818  -13.8411 O   0  0  0  0  0  0  0  0  0  0  0  0
   25.9238  -20.1309  -12.5846 N   0  0  0  0  0  0  0  0  0  0  0  0
   25.0959  -20.9132  -11.6736 C   0  0  1  0  0  0  0  0  0  0  0  0
   25.4254  -20.7235  -10.2376 C   0  0  0  0  0  0  0  0  0  0  0  0
   26.8221  -20.8727   -9.8547 C   0  0  0  0  0  0  0  0  0  0  0  0
   27.8685  -21.4461  -10.5137 C   0  0  0  0  0  0  0  0  0  0  0  0
   29.0029  -21.3442   -9.7653 N   0  0  0  0  0  0  0  0  0  0  0  0
   28.6921  -20.7066   -8.6251 C   0  0  0  0  0  0  0  0  0  0  0  0
   29.4855  -20.3640   -7.5523 C   0  0  0  0  0  0  0  0  0  0  0  0
   28.9511  -19.7035   -6.4711 C   0  0  0  0  0  0  0  0  0  0  0  0
   27.6186  -19.3891   -6.4726 C   0  0  0  0  0  0  0  0  0  0  0  0
   26.8395  -19.7410   -7.5578 C   0  0  0  0  0  0  0  0  0  0  0  0
   27.3374  -20.4034   -8.6598 C   0  0  0  0  0  0  0  0  0  0  0  0
   23.6542  -20.7082  -12.0057 C   0  0  0  0  0  0  0  0  0  0  0  0
   23.1475  -19.5483  -12.0109 O   0  0  0  0  0  0  0  0  0  0  0  0
   21.8120  -22.9070  -14.7939 O   0  0  0  0  0  0  0  0  0  0  0  0
   20.9946  -22.7660  -13.6678 C   0  0  0  0  0  0  0  0  0  0  0  0
   21.4355  -21.5918  -12.8166 C   0  0  2  0  0  0  0  0  0  0  0  0
   22.7870  -21.7750  -12.3276 N   0  0  0  0  0  0  0  0  0  0  0  0
   20.4809  -21.2837  -11.7468 C   0  0  0  0  0  0  0  0  0  0  0  0
   20.8154  -21.4614  -10.5510 O   0  0  0  0  0  0  0  0  0  0  0  0
   19.2033  -20.7971  -11.9814 O   0  0  0  0  0  0  0  0  0  0  0  0
  1  5  1  0
  2  3  1  0
  2  1  1  0
  3  4  1  0
  4  5  1  0
  5  6  1  1
  6  7  2  0
  8  9  1  0
  8  6  1  0
  9 20  1  0
 10 11  1  0
  9 10  1  1
 11 12  2  0
 12 13  1  0
 14 13  1  0
 15 14  2  0
 16 15  1  0
 17 18  1  0
 17 16  2  0
 18 19  2  0
 19 11  1  0
 19 14  1  0
 20 21  2  0
 23 22  1  0
 24 23  1  1
 24 26  1  0
 25 20  1  0
 25 24  1  0
 26 27  2  0
 26 28  1  0
M  END
$$$$
