PWS.pdb
     RDKit          3D

 28 30  0  0  1  0  0  0  0  0999 V2000
   28.1760  -20.7569  -16.7490 N   0  0  0  0  0  0  0  0  0  0  0  0
   29.0879  -20.9860  -17.8675 C   0  0  0  0  0  0  0  0  0  0  0  0
   29.8549  -22.2474  -17.5017 C   0  0  0  0  0  0  0  0  0  0  0  0
   29.1023  -22.8206  -16.3421 C   0  0  0  0  0  0  0  0  0  0  0  0
   27.7690  -22.1068  -16.4310 C   0  0  1  0  0  0  0  0  0  0  0  0
   27.0997  -22.2102  -15.1254 C   0  0  0  0  0  0  0  0  0  0  0  0
   26.5239  -23.2773  -14.8002 O   0  0  0  0  0  0  0  0  0  0  0  0
   27.0573  -21.1438  -14.1664 N   0  0  0  0  0  0  0  0  0  0  0  0
   26.4096  -21.3214  -12.8716 C   0  0  1  0  0  0  0  0  0  0  0  0
   27.2615  -20.9575  -11.7104 C   0  0  0  0  0  0  0  0  0  0  0  0
   26.5932  -20.7865  -10.4283 C   0  0  0  0  0  0  0  0  0  0  0  0
   25.2673  -20.7366  -10.1163 C   0  0  0  0  0  0  0  0  0  0  0  0
   25.1105  -20.5697   -8.7727 N   0  0  0  0  0  0  0  0  0  0  0  0
   26.3313  -20.5121   -8.2164 C   0  0  0  0  0  0  0  0  0  0  0  0
   26.7025  -20.3528   -6.8993 C   0  0  0  0  0  0  0  0  0  0  0  0
   28.0312  -20.3205   -6.5471 C   0  0  0  0  0  0  0  0  0  0  0  0
   28.9837  -20.4488   -7.5222 C   0  0  0  0  0  0  0  0  0  0  0  0
   28.5916  -20.6079   -8.8373 C   0  0  0  0  0  0  0  0  0  0  0  0
   27.2706  -20.6452   -9.2305 C   0  0  0  0  0  0  0  0  0  0  0  0
   25.0722  -20.6566  -12.8852 C   0  0  0  0  0  0  0  0  0  0  0  0
   24.9740  -19.3967  -12.9565 O   0  0  0  0  0  0  0  0  0  0  0  0
   21.5629  -22.9494  -13.6237 O   0  0  0  0  0  0  0  0  0  0  0  0
   21.8362  -21.6874  -14.1609 C   0  0  0  0  0  0  0  0  0  0  0  0
   22.5704  -20.8159  -13.1614 C   0  0  2  0  0  0  0  0  0  0  0  0
   23.8610  -21.3794  -12.8207 N   0  0  0  0  0  0  0  0  0  0  0  0
   21.7562  -20.5060  -11.9816 C   0  0  0  0  0  0  0  0  0  0  0  0
   22.1264  -20.9093  -10.8530 O   0  0  0  0  0  0  0  0  0  0  0  0
   20.5766  -19.7786  -12.0387 O   0  0  0  0  0  0  0  0  0  0  0  0
  1  5  1  0
  2  3  1  0
  2  1  1  0
  3  4  1  0
  4  5  1  0
  5  6  1  1
  6  7  2  0
  8  9  1  0
  8  6  1  0
  9 20  1  0
 10 11  1  0
  9 10  1  1
 11 12  2  0
 12 13  1  0
 14 13  1  0
 15 14  2  0
 16 15  1  0
 17 18  1  0
 17 16  2  0
 18 19  2  0
 19 11  1  0
 19 14  1  0
 20 21  2  0
 23 22  1  0
 24 23  1  6
 24 26  1  0
 25 20  1  0
 25 24  1  0
 26 27  2  0
 26 28  1  0
M  END
$$$$
