VLA.pdb
     RDKit          3D

 21 20  0  0  1  0  0  0  0  0999 V2000
   27.5540  -18.1457  -17.0459 C   0  0  0  0  0  0  0  0  0  0  0  0
   26.5792  -19.0012  -16.3018 C   0  0  2  0  0  0  0  0  0  0  0  0
   25.3265  -18.2302  -15.9645 C   0  0  0  0  0  0  0  0  0  0  0  0
   27.1433  -19.5313  -15.0014 C   0  0  2  0  0  0  0  0  0  0  0  0
   28.2996  -20.3493  -15.3816 N   0  0  0  0  0  0  0  0  0  0  0  0
   26.1800  -20.3473  -14.2349 C   0  0  0  0  0  0  0  0  0  0  0  0
   25.7877  -21.4597  -14.7188 O   0  0  0  0  0  0  0  0  0  0  0  0
   26.6548  -22.0326   -9.9639 C   0  0  0  0  0  0  0  0  0  0  0  0
   26.1698  -20.6234  -10.1275 C   0  0  2  0  0  0  0  0  0  0  0  0
   25.9883  -20.0544   -8.7002 C   0  0  0  0  0  0  0  0  0  0  0  0
   24.8931  -20.4459  -10.8199 C   0  0  0  0  0  0  0  0  0  0  0  0
   24.6959  -20.8383  -12.2286 C   0  0  2  0  0  0  0  0  0  0  0  0
   25.6523  -19.9847  -12.9873 N   0  0  0  0  0  0  0  0  0  0  0  0
   23.3813  -20.6096  -12.8285 C   0  0  0  0  0  0  0  0  0  0  0  0
   22.7894  -19.4901  -12.8255 O   0  0  0  0  0  0  0  0  0  0  0  0
   21.0915  -22.6101  -15.0233 C   0  0  0  0  0  0  0  0  0  0  0  0
   21.3335  -21.4103  -14.0980 C   0  0  2  0  0  0  0  0  0  0  0  0
   22.6243  -21.6377  -13.4858 N   0  0  0  0  0  0  0  0  0  0  0  0
   20.2412  -21.3714  -13.1223 C   0  0  0  0  0  0  0  0  0  0  0  0
   19.1056  -20.9919  -13.5073 O   0  0  0  0  0  0  0  0  0  0  0  0
   20.4222  -21.7381  -11.7972 O   0  0  0  0  0  0  0  0  0  0  0  0
  2  4  1  0
  2  1  1  1
  3  2  1  0
  4  6  1  0
  4  5  1  6
  6  7  2  0
  9  8  1  1
  9 11  1  0
  9 10  1  0
 12 11  1  1
 12 14  1  0
 13  6  1  0
 13 12  1  0
 14 15  2  0
 17 16  1  6
 17 19  1  0
 18 17  1  0
 18 14  1  0
 19 20  2  0
 19 21  1  0
M  END
$$$$
