VLA.pdb
     RDKit          3D

 21 20  0  0  1  0  0  0  0  0999 V2000
   21.3588  -13.5871  -22.4737 C   0  0  0  0  0  0  0  0  0  0  0  0
   20.6273  -12.8247  -21.4156 C   0  0  2  0  0  0  0  0  0  0  0  0
   19.2324  -12.4687  -21.8684 C   0  0  0  0  0  0  0  0  0  0  0  0
   21.3215  -11.5324  -21.0436 C   0  0  2  0  0  0  0  0  0  0  0  0
   22.7529  -11.7887  -21.2341 N   0  0  0  0  0  0  0  0  0  0  0  0
   21.0669  -11.1110  -19.6512 C   0  0  0  0  0  0  0  0  0  0  0  0
   19.8627  -10.9618  -19.2596 O   0  0  0  0  0  0  0  0  0  0  0  0
   21.7963  -11.0451  -14.1820 C   0  0  0  0  0  0  0  0  0  0  0  0
   22.4587  -11.8407  -15.2665 C   0  0  2  0  0  0  0  0  0  0  0  0
   23.7879  -12.3664  -14.6742 C   0  0  0  0  0  0  0  0  0  0  0  0
   22.7974  -11.1203  -16.4941 C   0  0  0  0  0  0  0  0  0  0  0  0
   21.7826  -10.4250  -17.3089 C   0  0  2  0  0  0  0  0  0  0  0  0
   22.0704  -10.8570  -18.7052 N   0  0  0  0  0  0  0  0  0  0  0  0
   21.7971   -8.9622  -17.3239 C   0  0  0  0  0  0  0  0  0  0  0  0
   22.8085   -8.2697  -17.6424 O   0  0  0  0  0  0  0  0  0  0  0  0
   19.2119   -6.2730  -17.0831 C   0  0  0  0  0  0  0  0  0  0  0  0
   20.6775   -6.7118  -16.9656 C   0  0  2  0  0  0  0  0  0  0  0  0
   20.6590   -8.1581  -16.9770 N   0  0  0  0  0  0  0  0  0  0  0  0
   21.2098   -6.1605  -15.7168 C   0  0  0  0  0  0  0  0  0  0  0  0
   21.2848   -4.9108  -15.5961 O   0  0  0  0  0  0  0  0  0  0  0  0
   21.6300   -6.9707  -14.6727 O   0  0  0  0  0  0  0  0  0  0  0  0
  2  4  1  0
  2  1  1  6
  3  2  1  0
  4  6  1  0
  4  5  1  1
  6  7  2  0
  9  8  1  1
  9 11  1  0
  9 10  1  0
 12 11  1  1
 12 14  1  0
 13  6  1  0
 13 12  1  0
 14 15  2  0
 17 16  1  1
 17 19  1  0
 18 17  1  0
 18 14  1  0
 19 20  2  0
 19 21  1  0
M  END
$$$$
