VLA.pdb
     RDKit          3D

 21 20  0  0  1  0  0  0  0  0999 V2000
   18.4614  -13.9506  -17.9948 C   0  0  0  0  0  0  0  0  0  0  0  0
   18.5879  -12.9294  -16.9099 C   0  0  2  0  0  0  0  0  0  0  0  0
   17.2423  -12.6072  -16.3073 C   0  0  0  0  0  0  0  0  0  0  0  0
   19.1823  -11.6275  -17.4017 C   0  0  2  0  0  0  0  0  0  0  0  0
   19.8961  -11.9659  -18.6374 N   0  0  0  0  0  0  0  0  0  0  0  0
   20.1130  -11.0075  -16.4369 C   0  0  0  0  0  0  0  0  0  0  0  0
   19.6909  -10.7144  -15.2701 O   0  0  0  0  0  0  0  0  0  0  0  0
   25.4000   -9.0071  -15.2796 C   0  0  0  0  0  0  0  0  0  0  0  0
   24.8439  -10.3913  -15.1296 C   0  0  2  0  0  0  0  0  0  0  0  0
   25.9651  -11.3635  -15.5673 C   0  0  0  0  0  0  0  0  0  0  0  0
   23.6650  -10.7146  -15.9337 C   0  0  0  0  0  0  0  0  0  0  0  0
   22.3618  -10.0538  -15.7283 C   0  0  2  0  0  0  0  0  0  0  0  0
   21.4556  -10.7102  -16.7116 N   0  0  0  0  0  0  0  0  0  0  0  0
   22.2712   -8.6167  -15.9870 C   0  0  0  0  0  0  0  0  0  0  0  0
   22.5964   -8.0754  -17.0848 O   0  0  0  0  0  0  0  0  0  0  0  0
   20.2889   -5.8490  -15.2654 C   0  0  0  0  0  0  0  0  0  0  0  0
   21.7725   -6.2403  -15.2454 C   0  0  2  0  0  0  0  0  0  0  0  0
   21.8013   -7.6683  -15.0165 N   0  0  0  0  0  0  0  0  0  0  0  0
   22.4203   -5.4801  -14.1734 C   0  0  0  0  0  0  0  0  0  0  0  0
   22.5905   -6.0387  -13.0596 O   0  0  0  0  0  0  0  0  0  0  0  0
   22.8477   -4.1727  -14.3505 O   0  0  0  0  0  0  0  0  0  0  0  0
  2  4  1  0
  2  1  1  6
  3  2  1  0
  4  6  1  0
  4  5  1  6
  6  7  2  0
  9  8  1  6
  9 11  1  0
  9 10  1  0
 12 11  1  6
 12 14  1  0
 13  6  1  0
 13 12  1  0
 14 15  2  0
 17 16  1  1
 17 19  1  0
 18 17  1  0
 18 14  1  0
 19 20  2  0
 19 21  1  0
M  END
$$$$
