VLA.pdb
     RDKit          3D

 21 20  0  0  1  0  0  0  0  0999 V2000
   24.8094  -31.9024  -10.0295 C   0  0  0  0  0  0  0  0  0  0  0  0
   24.5443  -33.3730  -10.0816 C   0  0  2  0  0  0  0  0  0  0  0  0
   25.6845  -34.1077  -10.7432 C   0  0  0  0  0  0  0  0  0  0  0  0
   23.2861  -33.7113  -10.8514 C   0  0  2  0  0  0  0  0  0  0  0  0
   23.6111  -33.4635  -12.2599 N   0  0  0  0  0  0  0  0  0  0  0  0
   22.1197  -32.8972  -10.4536 C   0  0  0  0  0  0  0  0  0  0  0  0
   21.6552  -33.0164   -9.2722 O   0  0  0  0  0  0  0  0  0  0  0  0
   20.7957  -28.6014   -8.9556 C   0  0  0  0  0  0  0  0  0  0  0  0
   21.4715  -28.8898  -10.2625 C   0  0  2  0  0  0  0  0  0  0  0  0
   21.6588  -27.5261  -10.9689 C   0  0  0  0  0  0  0  0  0  0  0  0
   20.7503  -29.7552  -11.1962 C   0  0  0  0  0  0  0  0  0  0  0  0
   20.3358  -31.1269  -10.8445 C   0  0  2  0  0  0  0  0  0  0  0  0
   21.4695  -31.9822  -11.2941 N   0  0  0  0  0  0  0  0  0  0  0  0
   19.1375  -31.6688  -11.4854 C   0  0  0  0  0  0  0  0  0  0  0  0
   19.0800  -32.0043  -12.7052 O   0  0  0  0  0  0  0  0  0  0  0  0
   15.6786  -32.5850  -10.3076 C   0  0  0  0  0  0  0  0  0  0  0  0
   16.6951  -32.3602  -11.4348 C   0  0  2  0  0  0  0  0  0  0  0  0
   17.8973  -31.8767  -10.7919 N   0  0  0  0  0  0  0  0  0  0  0  0
   16.1195  -31.3879  -12.3676 C   0  0  0  0  0  0  0  0  0  0  0  0
   16.5544  -30.2080  -12.3490 O   0  0  0  0  0  0  0  0  0  0  0  0
   15.1171  -31.7289  -13.2632 O   0  0  0  0  0  0  0  0  0  0  0  0
  2  4  1  0
  2  1  1  6
  3  2  1  0
  4  6  1  0
  4  5  1  6
  6  7  2  0
  9  8  1  1
  9 11  1  0
  9 10  1  0
 12 11  1  6
 12 14  1  0
 13  6  1  0
 13 12  1  0
 14 15  2  0
 17 16  1  1
 17 19  1  0
 18 17  1  0
 18 14  1  0
 19 20  2  0
 19 21  1  0
M  END
$$$$
