VLA.pdb
     RDKit          3D

 21 20  0  0  1  0  0  0  0  0999 V2000
   18.6910  -14.8350  -16.1819 C   0  0  0  0  0  0  0  0  0  0  0  0
   17.3600  -14.2558  -16.5409 C   0  0  2  0  0  0  0  0  0  0  0  0
   16.7121  -15.0348  -17.6594 C   0  0  0  0  0  0  0  0  0  0  0  0
   17.4547  -12.8150  -16.9941 C   0  0  2  0  0  0  0  0  0  0  0  0
   18.1091  -12.8601  -18.3057 N   0  0  0  0  0  0  0  0  0  0  0  0
   18.2322  -11.9615  -16.0730 C   0  0  0  0  0  0  0  0  0  0  0  0
   17.8449  -11.8414  -14.8642 O   0  0  0  0  0  0  0  0  0  0  0  0
   23.9374  -10.6245  -14.9549 C   0  0  0  0  0  0  0  0  0  0  0  0
   22.5590  -10.0451  -14.8456 C   0  0  2  0  0  0  0  0  0  0  0  0
   22.2365   -9.9643  -13.3345 C   0  0  0  0  0  0  0  0  0  0  0  0
   21.4766  -10.8065  -15.4697 C   0  0  0  0  0  0  0  0  0  0  0  0
   20.0871  -10.3124  -15.5173 C   0  0  2  0  0  0  0  0  0  0  0  0
   19.3901  -11.2575  -16.4338 N   0  0  0  0  0  0  0  0  0  0  0  0
   19.8515   -8.9732  -16.0571 C   0  0  0  0  0  0  0  0  0  0  0  0
   20.2210   -8.6020  -17.2101 O   0  0  0  0  0  0  0  0  0  0  0  0
   17.6414   -6.1176  -15.2952 C   0  0  0  0  0  0  0  0  0  0  0  0
   18.9977   -6.5927  -15.8331 C   0  0  2  0  0  0  0  0  0  0  0  0
   19.1732   -7.9374  -15.3297 N   0  0  0  0  0  0  0  0  0  0  0  0
   20.0214   -5.6653  -15.3447 C   0  0  0  0  0  0  0  0  0  0  0  0
   20.0171   -4.4843  -15.7772 O   0  0  0  0  0  0  0  0  0  0  0  0
   20.9871   -6.0494  -14.4265 O   0  0  0  0  0  0  0  0  0  0  0  0
  2  4  1  0
  2  1  1  6
  3  2  1  0
  4  6  1  0
  4  5  1  6
  6  7  2  0
  9  8  1  1
  9 11  1  0
  9 10  1  0
 12 11  1  6
 12 14  1  0
 13  6  1  0
 13 12  1  0
 14 15  2  0
 17 16  1  1
 17 19  1  0
 18 17  1  0
 18 14  1  0
 19 20  2  0
 19 21  1  0
M  END
$$$$
