VLA.pdb
     RDKit          3D

 21 20  0  0  1  0  0  0  0  0999 V2000
   19.5276  -13.2559  -17.6458 C   0  0  0  0  0  0  0  0  0  0  0  0
   18.3630  -12.3555  -17.9081 C   0  0  2  0  0  0  0  0  0  0  0  0
   17.6789  -12.7155  -19.2043 C   0  0  0  0  0  0  0  0  0  0  0  0
   18.7622  -10.8988  -18.0012 C   0  0  2  0  0  0  0  0  0  0  0  0
   19.5001  -10.7755  -19.2626 N   0  0  0  0  0  0  0  0  0  0  0  0
   19.6091  -10.4509  -16.8771 C   0  0  0  0  0  0  0  0  0  0  0  0
   19.1541  -10.5307  -15.6887 O   0  0  0  0  0  0  0  0  0  0  0  0
   22.8802  -11.6912  -13.9657 C   0  0  0  0  0  0  0  0  0  0  0  0
   23.1418  -11.5056  -15.4302 C   0  0  2  0  0  0  0  0  0  0  0  0
   24.6176  -11.9063  -15.6656 C   0  0  0  0  0  0  0  0  0  0  0  0
   22.9813  -10.1505  -15.9580 C   0  0  0  0  0  0  0  0  0  0  0  0
   21.7047   -9.4151  -15.8750 C   0  0  2  0  0  0  0  0  0  0  0  0
   20.9046   -9.9334  -17.0196 N   0  0  0  0  0  0  0  0  0  0  0  0
   21.7380   -7.9604  -16.0268 C   0  0  0  0  0  0  0  0  0  0  0  0
   22.1535   -7.3687  -17.0665 O   0  0  0  0  0  0  0  0  0  0  0  0
   19.8393   -5.1767  -15.1258 C   0  0  0  0  0  0  0  0  0  0  0  0
   21.3102   -5.6122  -15.1615 C   0  0  2  0  0  0  0  0  0  0  0  0
   21.3002   -7.0503  -15.0060 N   0  0  0  0  0  0  0  0  0  0  0  0
   22.0052   -4.9275  -14.0684 C   0  0  0  0  0  0  0  0  0  0  0  0
   22.2179   -5.5605  -13.0026 O   0  0  0  0  0  0  0  0  0  0  0  0
   22.4316   -3.6122  -14.1745 O   0  0  0  0  0  0  0  0  0  0  0  0
  2  4  1  0
  2  1  1  6
  3  2  1  0
  4  6  1  0
  4  5  1  6
  6  7  2  0
  9  8  1  1
  9 11  1  0
  9 10  1  0
 12 11  1  6
 12 14  1  0
 13  6  1  0
 13 12  1  0
 14 15  2  0
 17 16  1  1
 17 19  1  0
 18 17  1  0
 18 14  1  0
 19 20  2  0
 19 21  1  0
M  END
$$$$
