VLA.pdb
     RDKit          3D

 21 20  0  0  1  0  0  0  0  0999 V2000
   30.4329  -30.6643  -18.1576 C   0  0  0  0  0  0  0  0  0  0  0  0
   29.8683  -31.4880  -19.2704 C   0  0  2  0  0  0  0  0  0  0  0  0
   30.8565  -31.6213  -20.4033 C   0  0  0  0  0  0  0  0  0  0  0  0
   28.6009  -30.8964  -19.8481 C   0  0  2  0  0  0  0  0  0  0  0  0
   29.0174  -29.6623  -20.5220 N   0  0  0  0  0  0  0  0  0  0  0  0
   27.5787  -30.5914  -18.8266 C   0  0  0  0  0  0  0  0  0  0  0  0
   27.2494  -31.4959  -17.9906 O   0  0  0  0  0  0  0  0  0  0  0  0
   26.5775  -25.4554  -16.3717 C   0  0  0  0  0  0  0  0  0  0  0  0
   26.6495  -26.9522  -16.4163 C   0  0  2  0  0  0  0  0  0  0  0  0
   28.1439  -27.3136  -16.5901 C   0  0  0  0  0  0  0  0  0  0  0  0
   25.9251  -27.6110  -17.5035 C   0  0  0  0  0  0  0  0  0  0  0  0
   25.8990  -29.0778  -17.6619 C   0  0  2  0  0  0  0  0  0  0  0  0
   26.9281  -29.3554  -18.7026 N   0  0  0  0  0  0  0  0  0  0  0  0
   24.6614  -29.6962  -18.1377 C   0  0  0  0  0  0  0  0  0  0  0  0
   24.1642  -29.4887  -19.2838 O   0  0  0  0  0  0  0  0  0  0  0  0
   22.4046  -32.4133  -16.8820 C   0  0  0  0  0  0  0  0  0  0  0  0
   22.6595  -31.2246  -17.8181 C   0  0  2  0  0  0  0  0  0  0  0  0
   23.8802  -30.6067  -17.3486 N   0  0  0  0  0  0  0  0  0  0  0  0
   21.5011  -30.3316  -17.7314 C   0  0  0  0  0  0  0  0  0  0  0  0
   20.3929  -30.7424  -18.1613 O   0  0  0  0  0  0  0  0  0  0  0  0
   21.5912  -29.0567  -17.1932 O   0  0  0  0  0  0  0  0  0  0  0  0
  2  4  1  0
  2  1  1  1
  3  2  1  0
  4  6  1  0
  4  5  1  1
  6  7  2  0
  9  8  1  6
  9 11  1  0
  9 10  1  0
 12 11  1  6
 12 14  1  0
 13  6  1  0
 13 12  1  0
 14 15  2  0
 17 16  1  1
 17 19  1  0
 18 17  1  0
 18 14  1  0
 19 20  2  0
 19 21  1  0
M  END
$$$$
