VLA.pdb
     RDKit          3D

 21 20  0  0  1  0  0  0  0  0999 V2000
   13.4859  -11.8995  -10.6806 C   0  0  0  0  0  0  0  0  0  0  0  0
   13.5372  -12.0054  -12.1712 C   0  0  2  0  0  0  0  0  0  0  0  0
   13.9491  -13.3913  -12.6037 C   0  0  0  0  0  0  0  0  0  0  0  0
   14.5167  -11.0325  -12.7911 C   0  0  2  0  0  0  0  0  0  0  0  0
   15.8435  -11.4874  -12.3628 N   0  0  0  0  0  0  0  0  0  0  0  0
   14.3024   -9.6347  -12.3651 C   0  0  0  0  0  0  0  0  0  0  0  0
   13.1908   -9.0697  -12.6311 O   0  0  0  0  0  0  0  0  0  0  0  0
   13.3493   -6.5966   -8.8048 C   0  0  0  0  0  0  0  0  0  0  0  0
   14.5644   -7.4746   -8.8264 C   0  0  2  0  0  0  0  0  0  0  0  0
   15.3616   -7.1505   -7.5406 C   0  0  0  0  0  0  0  0  0  0  0  0
   15.4828   -7.2951   -9.9510 C   0  0  0  0  0  0  0  0  0  0  0  0
   15.0484   -7.4227  -11.3554 C   0  0  2  0  0  0  0  0  0  0  0  0
   15.2487   -8.8639  -11.6745 N   0  0  0  0  0  0  0  0  0  0  0  0
   15.7849   -6.6738  -12.3738 C   0  0  0  0  0  0  0  0  0  0  0  0
   17.0125   -6.8504  -12.6296 O   0  0  0  0  0  0  0  0  0  0  0  0
   14.8559   -4.1764  -15.0246 C   0  0  0  0  0  0  0  0  0  0  0  0
   15.9172   -4.8981  -14.1835 C   0  0  2  0  0  0  0  0  0  0  0  0
   15.1867   -5.6563  -13.1917 N   0  0  0  0  0  0  0  0  0  0  0  0
   16.7870   -3.8784  -13.5916 C   0  0  0  0  0  0  0  0  0  0  0  0
   16.5866   -3.5379  -12.3976 O   0  0  0  0  0  0  0  0  0  0  0  0
   17.8166   -3.2828  -14.3047 O   0  0  0  0  0  0  0  0  0  0  0  0
  2  4  1  0
  2  1  1  1
  3  2  1  0
  4  6  1  0
  4  5  1  1
  6  7  2  0
  9  8  1  6
  9 11  1  0
  9 10  1  0
 12 11  1  1
 12 14  1  0
 13  6  1  0
 13 12  1  0
 14 15  2  0
 17 16  1  6
 17 19  1  0
 18 17  1  0
 18 14  1  0
 19 20  2  0
 19 21  1  0
M  END
$$$$
