VLA.pdb
     RDKit          3D

 21 20  0  0  1  0  0  0  0  0999 V2000
   20.2088  -19.6680  -16.0915 C   0  0  0  0  0  0  0  0  0  0  0  0
   20.7364  -21.0251  -15.7515 C   0  0  2  0  0  0  0  0  0  0  0  0
   19.6783  -22.0837  -15.9450 C   0  0  0  0  0  0  0  0  0  0  0  0
   21.2119  -21.1231  -14.3182 C   0  0  2  0  0  0  0  0  0  0  0  0
   20.0521  -20.7631  -13.4961 N   0  0  0  0  0  0  0  0  0  0  0  0
   22.3430  -20.2233  -14.0139 C   0  0  0  0  0  0  0  0  0  0  0  0
   22.1118  -19.1131  -13.4312 O   0  0  0  0  0  0  0  0  0  0  0  0
   25.6846  -21.2746  -10.7730 C   0  0  0  0  0  0  0  0  0  0  0  0
   25.3373  -21.1562  -12.2266 C   0  0  2  0  0  0  0  0  0  0  0  0
   26.4274  -21.9337  -13.0019 C   0  0  0  0  0  0  0  0  0  0  0  0
   25.3037  -19.8039  -12.7843 C   0  0  0  0  0  0  0  0  0  0  0  0
   24.7836  -19.5180  -14.1353 C   0  0  2  0  0  0  0  0  0  0  0  0
   23.6819  -20.5029  -14.3231 N   0  0  0  0  0  0  0  0  0  0  0  0
   25.6873  -19.6959  -15.2719 C   0  0  0  0  0  0  0  0  0  0  0  0
   25.9522  -20.8189  -15.7938 O   0  0  0  0  0  0  0  0  0  0  0  0
   27.7245  -17.3684  -17.4271 C   0  0  0  0  0  0  0  0  0  0  0  0
   27.2275  -18.7749  -17.0679 C   0  0  2  0  0  0  0  0  0  0  0  0
   26.3698  -18.6084  -15.9151 N   0  0  0  0  0  0  0  0  0  0  0  0
   28.4016  -19.6051  -16.7871 C   0  0  0  0  0  0  0  0  0  0  0  0
   29.1436  -19.9396  -17.7459 O   0  0  0  0  0  0  0  0  0  0  0  0
   28.7155  -20.0292  -15.5046 O   0  0  0  0  0  0  0  0  0  0  0  0
  2  4  1  0
  2  1  1  1
  3  2  1  0
  4  6  1  0
  4  5  1  1
  6  7  2  0
  9  8  1  1
  9 11  1  0
  9 10  1  0
 12 11  1  1
 12 14  1  0
 13  6  1  0
 13 12  1  0
 14 15  2  0
 17 16  1  1
 17 19  1  0
 18 17  1  0
 18 14  1  0
 19 20  2  0
 19 21  1  0
M  END
$$$$
