PWL.pdb
     RDKit          3D

 30 32  0  0  1  0  0  0  0  0999 V2000
    8.5666  -16.8835   20.2586 N   0  0  0  0  0  0  0  0  0  0  0  0
    7.4902  -16.4642   19.4125 C   0  0  0  0  0  0  0  0  0  0  0  0
    8.1134  -15.3386   18.6045 C   0  0  0  0  0  0  0  0  0  0  0  0
    8.8502  -14.5955   19.6991 C   0  0  0  0  0  0  0  0  0  0  0  0
    9.4324  -15.7614   20.4855 C   0  0  1  0  0  0  0  0  0  0  0  0
    9.4892  -15.4055   21.9410 C   0  0  0  0  0  0  0  0  0  0  0  0
   10.0158  -14.3152   22.2364 O   0  0  0  0  0  0  0  0  0  0  0  0
    8.9383  -16.3428   22.8405 N   0  0  0  0  0  0  0  0  0  0  0  0
    8.8236  -15.9882   24.2568 C   0  0  1  0  0  0  0  0  0  0  0  0
    7.5095  -16.4826   24.7077 C   0  0  0  0  0  0  0  0  0  0  0  0
    6.4671  -15.5018   25.0452 C   0  0  0  0  0  0  0  0  0  0  0  0
    5.0916  -15.6601   25.1645 C   0  0  0  0  0  0  0  0  0  0  0  0
    4.5297  -14.4836   25.4822 N   0  0  0  0  0  0  0  0  0  0  0  0
    5.4651  -13.5208   25.5870 C   0  0  0  0  0  0  0  0  0  0  0  0
    5.3903  -12.1789   25.9048 C   0  0  0  0  0  0  0  0  0  0  0  0
    6.5627  -11.4626   25.9483 C   0  0  0  0  0  0  0  0  0  0  0  0
    7.7934  -12.0533   25.6834 C   0  0  0  0  0  0  0  0  0  0  0  0
    7.8276  -13.3858   25.3713 C   0  0  0  0  0  0  0  0  0  0  0  0
    6.6733  -14.1431   25.3167 C   0  0  0  0  0  0  0  0  0  0  0  0
   10.0271  -16.4556   24.9540 C   0  0  0  0  0  0  0  0  0  0  0  0
   10.9926  -16.9664   24.3036 O   0  0  0  0  0  0  0  0  0  0  0  0
   11.3520  -13.8076   28.2535 C   0  0  0  0  0  0  0  0  0  0  0  0
   10.7857  -15.1067   28.6911 C   0  0  2  0  0  0  0  0  0  0  0  0
   10.5920  -15.0681   30.2296 C   0  0  0  0  0  0  0  0  0  0  0  0
   11.5613  -16.3004   28.3256 C   0  0  0  0  0  0  0  0  0  0  0  0
   11.5089  -16.7867   26.9170 C   0  0  2  0  0  0  0  0  0  0  0  0
   10.1888  -16.3601   26.3626 N   0  0  0  0  0  0  0  0  0  0  0  0
   11.5674  -18.2378   26.7372 C   0  0  0  0  0  0  0  0  0  0  0  0
   10.3759  -18.9705   26.4675 O   0  0  0  0  0  0  0  0  0  0  0  0
   12.5939  -18.9575   26.7967 O   0  0  0  0  0  0  0  0  0  0  0  0
  1  2  1  0
  3  2  1  0
  4  3  1  0
  5  4  1  0
  5  1  1  0
  6  7  2  0
  5  6  1  1
  8  6  1  0
  9  8  1  0
 10 11  1  0
  9 10  1  1
 11 19  1  0
 11 12  2  0
 12 13  1  0
 14 13  1  0
 14 15  2  0
 16 15  1  0
 17 16  2  0
 18 19  2  0
 18 17  1  0
 19 14  1  0
 20 27  1  0
 20  9  1  0
 21 20  2  0
 23 22  1  1
 23 25  1  0
 24 23  1  0
 26 25  1  1
 26 27  1  0
 26 28  1  0
 28 29  1  0
 30 28  2  0
M  END
$$$$
