PWL.pdb
     RDKit          3D

 30 32  0  0  1  0  0  0  0  0999 V2000
    8.0916  -17.2442   20.7903 N   0  0  0  0  0  0  0  0  0  0  0  0
    6.9950  -16.6845   20.0592 C   0  0  0  0  0  0  0  0  0  0  0  0
    7.6877  -15.8869   18.9674 C   0  0  0  0  0  0  0  0  0  0  0  0
    8.7772  -15.2127   19.7747 C   0  0  0  0  0  0  0  0  0  0  0  0
    9.2195  -16.3653   20.6649 C   0  0  1  0  0  0  0  0  0  0  0  0
    9.6434  -15.8327   22.0009 C   0  0  0  0  0  0  0  0  0  0  0  0
   10.5119  -14.9388   22.0036 O   0  0  0  0  0  0  0  0  0  0  0  0
    9.0157  -16.3967   23.1318 N   0  0  0  0  0  0  0  0  0  0  0  0
    9.3115  -15.8492   24.4576 C   0  0  1  0  0  0  0  0  0  0  0  0
    8.1621  -16.1880   25.3171 C   0  0  0  0  0  0  0  0  0  0  0  0
    6.9987  -15.2887   25.3227 C   0  0  0  0  0  0  0  0  0  0  0  0
    5.6584  -15.5544   25.0690 C   0  0  0  0  0  0  0  0  0  0  0  0
    4.9471  -14.4219   25.1792 N   0  0  0  0  0  0  0  0  0  0  0  0
    5.7454  -13.3861   25.4995 C   0  0  0  0  0  0  0  0  0  0  0  0
    5.4891  -12.0498   25.7363 C   0  0  0  0  0  0  0  0  0  0  0  0
    6.5494  -11.2417   26.0711 C   0  0  0  0  0  0  0  0  0  0  0  0
    7.8451  -11.7362   26.1724 C   0  0  0  0  0  0  0  0  0  0  0  0
    8.0603  -13.0662   25.9298 C   0  0  0  0  0  0  0  0  0  0  0  0
    7.0234  -13.9139   25.5908 C   0  0  0  0  0  0  0  0  0  0  0  0
   10.6480  -16.3004   24.8613 C   0  0  0  0  0  0  0  0  0  0  0  0
   11.6721  -15.5902   24.6109 O   0  0  0  0  0  0  0  0  0  0  0  0
   11.9732  -14.6917   28.0201 C   0  0  0  0  0  0  0  0  0  0  0  0
   10.6045  -15.2467   27.8833 C   0  0  2  0  0  0  0  0  0  0  0  0
    9.7537  -14.7659   29.0878 C   0  0  0  0  0  0  0  0  0  0  0  0
   10.5135  -16.7095   27.7732 C   0  0  0  0  0  0  0  0  0  0  0  0
   11.4918  -17.4261   26.9057 C   0  0  2  0  0  0  0  0  0  0  0  0
   10.8744  -17.5233   25.5487 N   0  0  0  0  0  0  0  0  0  0  0  0
   11.8114  -18.7991   27.2982 C   0  0  0  0  0  0  0  0  0  0  0  0
   12.9427  -19.0586   28.1240 O   0  0  0  0  0  0  0  0  0  0  0  0
   11.1786  -19.8346   26.9778 O   0  0  0  0  0  0  0  0  0  0  0  0
  1  2  1  0
  3  2  1  0
  4  3  1  0
  5  4  1  0
  5  1  1  0
  6  7  2  0
  5  6  1  1
  8  6  1  0
  9  8  1  0
 10 11  1  0
  9 10  1  1
 11 19  1  0
 11 12  2  0
 12 13  1  0
 14 13  1  0
 14 15  2  0
 16 15  1  0
 17 16  2  0
 18 19  2  0
 18 17  1  0
 19 14  1  0
 20 27  1  0
 20  9  1  0
 21 20  2  0
 23 22  1  1
 23 25  1  0
 24 23  1  0
 26 25  1  1
 26 27  1  0
 26 28  1  0
 28 29  1  0
 30 28  2  0
M  END
$$$$
