PWL.pdb
     RDKit          3D

 30 32  0  0  1  0  0  0  0  0999 V2000
    8.6574  -15.7383   19.6129 N   0  0  0  0  0  0  0  0  0  0  0  0
    7.5480  -15.2729   18.8364 C   0  0  0  0  0  0  0  0  0  0  0  0
    8.0868  -14.0007   18.2046 C   0  0  0  0  0  0  0  0  0  0  0  0
    8.7811  -13.3789   19.3981 C   0  0  0  0  0  0  0  0  0  0  0  0
    9.4474  -14.6057   20.0045 C   0  0  1  0  0  0  0  0  0  0  0  0
    9.4925  -14.4655   21.4966 C   0  0  0  0  0  0  0  0  0  0  0  0
   10.0192  -13.4316   21.9518 O   0  0  0  0  0  0  0  0  0  0  0  0
    8.9318  -15.5217   22.2457 N   0  0  0  0  0  0  0  0  0  0  0  0
    8.8026  -15.3750   23.6972 C   0  0  1  0  0  0  0  0  0  0  0  0
    7.4847  -15.9290   24.0589 C   0  0  0  0  0  0  0  0  0  0  0  0
    6.5421  -15.0760   24.7980 C   0  0  0  0  0  0  0  0  0  0  0  0
    5.2944  -15.3725   25.3334 C   0  0  0  0  0  0  0  0  0  0  0  0
    4.7848  -14.2779   25.9188 N   0  0  0  0  0  0  0  0  0  0  0  0
    5.6335  -13.2384   25.8080 C   0  0  0  0  0  0  0  0  0  0  0  0
    5.5718  -11.9327   26.2537 C   0  0  0  0  0  0  0  0  0  0  0  0
    6.6415  -11.1117   25.9872 C   0  0  0  0  0  0  0  0  0  0  0  0
    7.7579  -11.5637   25.2923 C   0  0  0  0  0  0  0  0  0  0  0  0
    7.7825  -12.8643   24.8657 C   0  0  0  0  0  0  0  0  0  0  0  0
    6.7292  -13.7237   25.1123 C   0  0  0  0  0  0  0  0  0  0  0  0
    9.9997  -15.9384   24.3316 C   0  0  0  0  0  0  0  0  0  0  0  0
   10.8603  -16.5692   23.6406 O   0  0  0  0  0  0  0  0  0  0  0  0
    9.6433  -14.7087   28.0078 C   0  0  0  0  0  0  0  0  0  0  0  0
   10.8533  -15.4328   28.4677 C   0  0  2  0  0  0  0  0  0  0  0  0
   11.4412  -14.6845   29.6927 C   0  0  0  0  0  0  0  0  0  0  0  0
   11.9066  -15.6263   27.4611 C   0  0  0  0  0  0  0  0  0  0  0  0
   11.5730  -16.3566   26.2047 C   0  0  2  0  0  0  0  0  0  0  0  0
   10.2700  -15.8089   25.7206 N   0  0  0  0  0  0  0  0  0  0  0  0
   11.3752  -17.8006   26.3356 C   0  0  0  0  0  0  0  0  0  0  0  0
   10.0885  -18.3668   26.1058 O   0  0  0  0  0  0  0  0  0  0  0  0
   12.2466  -18.6493   26.6450 O   0  0  0  0  0  0  0  0  0  0  0  0
  1  2  1  0
  3  2  1  0
  4  3  1  0
  5  4  1  0
  5  1  1  0
  6  7  2  0
  5  6  1  1
  8  6  1  0
  9  8  1  0
 10 11  1  0
  9 10  1  1
 11 19  1  0
 11 12  2  0
 12 13  1  0
 14 13  1  0
 14 15  2  0
 16 15  1  0
 17 16  2  0
 18 19  2  0
 18 17  1  0
 19 14  1  0
 20 27  1  0
 20  9  1  0
 21 20  2  0
 23 22  1  6
 23 25  1  0
 24 23  1  0
 26 25  1  1
 26 27  1  0
 26 28  1  0
 28 29  1  0
 30 28  2  0
M  END
$$$$
