PWL.pdb
     RDKit          3D

 30 32  0  0  1  0  0  0  0  0999 V2000
    9.0476  -16.3964   19.4124 N   0  0  0  0  0  0  0  0  0  0  0  0
    7.9494  -16.2503   18.5052 C   0  0  0  0  0  0  0  0  0  0  0  0
    8.3027  -14.9819   17.7472 C   0  0  0  0  0  0  0  0  0  0  0  0
    8.7562  -14.1002   18.8918 C   0  0  0  0  0  0  0  0  0  0  0  0
    9.5763  -15.0938   19.7023 C   0  0  1  0  0  0  0  0  0  0  0  0
    9.4549  -14.7715   21.1616 C   0  0  0  0  0  0  0  0  0  0  0  0
    9.7355  -13.6079   21.5089 O   0  0  0  0  0  0  0  0  0  0  0  0
    9.0324  -15.8207   22.0053 N   0  0  0  0  0  0  0  0  0  0  0  0
    8.8360  -15.5523   23.4316 C   0  0  1  0  0  0  0  0  0  0  0  0
    7.5452  -16.1633   23.7993 C   0  0  0  0  0  0  0  0  0  0  0  0
    6.6045  -15.3819   24.6158 C   0  0  0  0  0  0  0  0  0  0  0  0
    5.3828  -15.7444   25.1705 C   0  0  0  0  0  0  0  0  0  0  0  0
    4.8634  -14.7006   25.8348 N   0  0  0  0  0  0  0  0  0  0  0  0
    5.6802  -13.6328   25.7598 C   0  0  0  0  0  0  0  0  0  0  0  0
    5.5983  -12.3576   26.2836 C   0  0  0  0  0  0  0  0  0  0  0  0
    6.6367  -11.4924   26.0337 C   0  0  0  0  0  0  0  0  0  0  0  0
    7.7419  -11.8713   25.2796 C   0  0  0  0  0  0  0  0  0  0  0  0
    7.7873  -13.1436   24.7764 C   0  0  0  0  0  0  0  0  0  0  0  0
    6.7656  -14.0455   25.0036 C   0  0  0  0  0  0  0  0  0  0  0  0
   10.0423  -15.9693   24.1554 C   0  0  0  0  0  0  0  0  0  0  0  0
   10.8976  -16.7290   23.6011 O   0  0  0  0  0  0  0  0  0  0  0  0
   11.0862  -13.0367   28.0371 C   0  0  0  0  0  0  0  0  0  0  0  0
   10.8930  -14.5055   27.9634 C   0  0  2  0  0  0  0  0  0  0  0  0
   10.7689  -15.0605   29.4066 C   0  0  0  0  0  0  0  0  0  0  0  0
   11.9305  -15.2535   27.2394 C   0  0  0  0  0  0  0  0  0  0  0  0
   11.5173  -16.1731   26.1408 C   0  0  2  0  0  0  0  0  0  0  0  0
   10.3276  -15.5526   25.4837 N   0  0  0  0  0  0  0  0  0  0  0  0
   11.0936  -17.5124   26.5511 C   0  0  0  0  0  0  0  0  0  0  0  0
   12.0661  -18.4822   26.9292 O   0  0  0  0  0  0  0  0  0  0  0  0
    9.9142  -17.9372   26.6122 O   0  0  0  0  0  0  0  0  0  0  0  0
  1  2  1  0
  3  2  1  0
  4  3  1  0
  5  4  1  0
  5  1  1  0
  6  7  2  0
  5  6  1  1
  8  6  1  0
  9  8  1  0
 10 11  1  0
  9 10  1  1
 11 19  1  0
 11 12  2  0
 12 13  1  0
 14 13  1  0
 14 15  2  0
 16 15  1  0
 17 16  2  0
 18 19  2  0
 18 17  1  0
 19 14  1  0
 20 27  1  0
 20  9  1  0
 21 20  2  0
 23 22  1  1
 23 25  1  0
 24 23  1  0
 26 25  1  1
 26 27  1  0
 26 28  1  0
 28 29  1  0
 30 28  2  0
M  END
$$$$
