PWL.pdb
     RDKit          3D

 30 32  0  0  1  0  0  0  0  0999 V2000
    8.6938  -16.0788   20.0033 N   0  0  0  0  0  0  0  0  0  0  0  0
    7.6067  -15.6936   19.1547 C   0  0  0  0  0  0  0  0  0  0  0  0
    8.1537  -14.4714   18.4371 C   0  0  0  0  0  0  0  0  0  0  0  0
    8.8010  -13.7439   19.5968 C   0  0  0  0  0  0  0  0  0  0  0  0
    9.4587  -14.9075   20.3249 C   0  0  1  0  0  0  0  0  0  0  0  0
    9.4520  -14.6434   21.8008 C   0  0  0  0  0  0  0  0  0  0  0  0
    9.8506  -13.5240   22.1767 O   0  0  0  0  0  0  0  0  0  0  0  0
    8.9927  -15.6917   22.6261 N   0  0  0  0  0  0  0  0  0  0  0  0
    8.7907  -15.4374   24.0542 C   0  0  1  0  0  0  0  0  0  0  0  0
    7.4920  -16.0399   24.4077 C   0  0  0  0  0  0  0  0  0  0  0  0
    6.3761  -15.1494   24.7599 C   0  0  0  0  0  0  0  0  0  0  0  0
    5.0041  -15.3506   24.6666 C   0  0  0  0  0  0  0  0  0  0  0  0
    4.3590  -14.2551   25.0958 N   0  0  0  0  0  0  0  0  0  0  0  0
    5.2334  -13.3068   25.4819 C   0  0  0  0  0  0  0  0  0  0  0  0
    5.0642  -12.0393   26.0037 C   0  0  0  0  0  0  0  0  0  0  0  0
    6.1914  -11.3194   26.3209 C   0  0  0  0  0  0  0  0  0  0  0  0
    7.4687  -11.8343   26.1291 C   0  0  0  0  0  0  0  0  0  0  0  0
    7.5966  -13.0942   25.6091 C   0  0  0  0  0  0  0  0  0  0  0  0
    6.4906  -13.8524   25.2767 C   0  0  0  0  0  0  0  0  0  0  0  0
    9.9887  -15.8740   24.7801 C   0  0  0  0  0  0  0  0  0  0  0  0
   10.8490  -16.6207   24.2161 O   0  0  0  0  0  0  0  0  0  0  0  0
   12.2104  -15.8770   30.5635 C   0  0  0  0  0  0  0  0  0  0  0  0
   12.4060  -16.2451   29.1400 C   0  0  2  0  0  0  0  0  0  0  0  0
   13.8599  -15.8897   28.7330 C   0  0  0  0  0  0  0  0  0  0  0  0
   11.4683  -15.6370   28.1855 C   0  0  0  0  0  0  0  0  0  0  0  0
   11.3874  -16.1944   26.8049 C   0  0  2  0  0  0  0  0  0  0  0  0
   10.2603  -15.4913   26.1215 N   0  0  0  0  0  0  0  0  0  0  0  0
   11.0851  -17.6228   26.7069 C   0  0  0  0  0  0  0  0  0  0  0  0
    9.7634  -18.0899   26.9602 O   0  0  0  0  0  0  0  0  0  0  0  0
   11.8912  -18.5390   26.4134 O   0  0  0  0  0  0  0  0  0  0  0  0
  1  2  1  0
  3  2  1  0
  4  3  1  0
  5  4  1  0
  5  1  1  0
  6  7  2  0
  5  6  1  1
  8  6  1  0
  9  8  1  0
 10 11  1  0
  9 10  1  1
 11 19  1  0
 11 12  2  0
 12 13  1  0
 14 13  1  0
 14 15  2  0
 16 15  1  0
 17 16  2  0
 18 19  2  0
 18 17  1  0
 19 14  1  0
 20 27  1  0
 20  9  1  0
 21 20  2  0
 23 22  1  1
 23 25  1  0
 24 23  1  0
 26 25  1  1
 26 27  1  0
 26 28  1  0
 28 29  1  0
 30 28  2  0
M  END
$$$$
