PWL.pdb
     RDKit          3D

 30 32  0  0  1  0  0  0  0  0999 V2000
    9.0526  -19.3716   21.4635 N   0  0  0  0  0  0  0  0  0  0  0  0
    8.4853  -19.6885   20.1875 C   0  0  0  0  0  0  0  0  0  0  0  0
    9.7108  -19.8838   19.3111 C   0  0  0  0  0  0  0  0  0  0  0  0
   10.5476  -18.6997   19.7482 C   0  0  0  0  0  0  0  0  0  0  0  0
   10.3242  -18.7399   21.2533 C   0  0  1  0  0  0  0  0  0  0  0  0
   10.3330  -17.3433   21.7987 C   0  0  0  0  0  0  0  0  0  0  0  0
   11.3348  -16.6451   21.5494 O   0  0  0  0  0  0  0  0  0  0  0  0
    9.2012  -16.9514   22.5449 N   0  0  0  0  0  0  0  0  0  0  0  0
    9.1350  -15.5877   23.0749 C   0  0  1  0  0  0  0  0  0  0  0  0
    7.7784  -15.0894   22.7815 C   0  0  0  0  0  0  0  0  0  0  0  0
    7.3358  -15.0378   21.3802 C   0  0  0  0  0  0  0  0  0  0  0  0
    6.5222  -15.9075   20.6640 C   0  0  0  0  0  0  0  0  0  0  0  0
    6.3939  -15.4672   19.4029 N   0  0  0  0  0  0  0  0  0  0  0  0
    7.0874  -14.3272   19.2225 C   0  0  0  0  0  0  0  0  0  0  0  0
    7.2501  -13.4977   18.1303 C   0  0  0  0  0  0  0  0  0  0  0  0
    8.0238  -12.3725   18.2878 C   0  0  0  0  0  0  0  0  0  0  0  0
    8.6309  -12.0635   19.5000 C   0  0  0  0  0  0  0  0  0  0  0  0
    8.4471  -12.9100   20.5600 C   0  0  0  0  0  0  0  0  0  0  0  0
    7.6773  -14.0516   20.4457 C   0  0  0  0  0  0  0  0  0  0  0  0
    9.5903  -15.6064   24.4696 C   0  0  0  0  0  0  0  0  0  0  0  0
   10.7869  -15.2927   24.7623 O   0  0  0  0  0  0  0  0  0  0  0  0
    8.7746  -12.2809   27.2925 C   0  0  0  0  0  0  0  0  0  0  0  0
    7.8413  -13.3563   26.8773 C   0  0  2  0  0  0  0  0  0  0  0  0
    6.3925  -12.9038   27.1972 C   0  0  0  0  0  0  0  0  0  0  0  0
    8.0825  -14.6794   27.4701 C   0  0  0  0  0  0  0  0  0  0  0  0
    9.1780  -15.5253   26.9154 C   0  0  2  0  0  0  0  0  0  0  0  0
    8.7413  -15.9576   25.5537 N   0  0  0  0  0  0  0  0  0  0  0  0
    9.4721  -16.7562   27.6500 C   0  0  0  0  0  0  0  0  0  0  0  0
   10.2105  -16.7001   28.8669 O   0  0  0  0  0  0  0  0  0  0  0  0
    9.1380  -17.9206   27.3216 O   0  0  0  0  0  0  0  0  0  0  0  0
  1  2  1  0
  3  2  1  0
  4  3  1  0
  5  4  1  0
  5  1  1  0
  6  7  2  0
  5  6  1  6
  8  6  1  0
  9  8  1  0
 10 11  1  0
  9 10  1  1
 11 19  1  0
 11 12  2  0
 12 13  1  0
 14 13  1  0
 14 15  2  0
 16 15  1  0
 17 16  2  0
 18 19  2  0
 18 17  1  0
 19 14  1  0
 20 27  1  0
 20  9  1  0
 21 20  2  0
 23 22  1  1
 23 25  1  0
 24 23  1  0
 26 25  1  1
 26 27  1  0
 26 28  1  0
 28 29  1  0
 30 28  2  0
M  END
$$$$
