QAA.pdb
     RDKit          3D

 20 19  0  0  1  0  0  0  0  0999 V2000
   21.7309  -13.5742  -17.4391 N   0  0  0  0  0  0  0  0  0  0  0  0
   20.7293  -14.3026  -16.7339 C   0  0  0  0  0  0  0  0  0  0  0  0
   20.8523  -15.5341  -16.4816 O   0  0  0  0  0  0  0  0  0  0  0  0
   19.5133  -13.5554  -16.2966 C   0  0  0  0  0  0  0  0  0  0  0  0
   19.6779  -12.0997  -16.6751 C   0  0  0  0  0  0  0  0  0  0  0  0
   18.4403  -11.3427  -16.2711 C   0  0  2  0  0  0  0  0  0  0  0  0
   17.3359  -11.8128  -17.0566 N   0  0  0  0  0  0  0  0  0  0  0  0
   18.6978   -9.8910  -16.4482 C   0  0  0  0  0  0  0  0  0  0  0  0
   18.9657   -9.4836  -17.6012 O   0  0  0  0  0  0  0  0  0  0  0  0
   17.8533   -6.7154  -14.9859 C   0  0  0  0  0  0  0  0  0  0  0  0
   18.9617   -7.5478  -15.6210 C   0  0  2  0  0  0  0  0  0  0  0  0
   18.6596   -8.9470  -15.4021 N   0  0  0  0  0  0  0  0  0  0  0  0
   20.2246   -7.1921  -14.9652 C   0  0  0  0  0  0  0  0  0  0  0  0
   20.5566   -7.7647  -13.9086 O   0  0  0  0  0  0  0  0  0  0  0  0
   23.2078   -4.9359  -15.6614 C   0  0  0  0  0  0  0  0  0  0  0  0
   22.3656   -5.9087  -14.8401 C   0  0  2  0  0  0  0  0  0  0  0  0
   21.1155   -6.1998  -15.4867 N   0  0  0  0  0  0  0  0  0  0  0  0
   22.1124   -5.2738  -13.5301 C   0  0  0  0  0  0  0  0  0  0  0  0
   21.0641   -4.5934  -13.3159 O   0  0  0  0  0  0  0  0  0  0  0  0
   23.0192   -5.4077  -12.4996 O   0  0  0  0  0  0  0  0  0  0  0  0
  2  1  1  0
  2  4  1  0
  3  2  2  0
  5  4  1  0
  5  6  1  0
  6  7  1  6
  8  6  1  0
  8 12  1  0
  9  8  2  0
 11 12  1  0
 11 13  1  0
 11 10  1  1
 13 17  1  0
 14 13  2  0
 16 15  1  6
 16 18  1  0
 17 16  1  0
 18 19  2  0
 18 20  1  0
M  END
$$$$
