QAA.pdb
     RDKit          3D

 20 19  0  0  1  0  0  0  0  0999 V2000
   20.3098  -16.9589  -13.4897 N   0  0  0  0  0  0  0  0  0  0  0  0
   19.7667  -17.9267  -14.3838 C   0  0  0  0  0  0  0  0  0  0  0  0
   20.2151  -19.1060  -14.4440 O   0  0  0  0  0  0  0  0  0  0  0  0
   18.6362  -17.4984  -15.2592 C   0  0  0  0  0  0  0  0  0  0  0  0
   18.2839  -16.0647  -14.9276 C   0  0  0  0  0  0  0  0  0  0  0  0
   16.8139  -15.8491  -15.1735 C   0  0  2  0  0  0  0  0  0  0  0  0
   16.3286  -16.9031  -16.0168 N   0  0  0  0  0  0  0  0  0  0  0  0
   16.6292  -14.5017  -15.7698 C   0  0  0  0  0  0  0  0  0  0  0  0
   17.1911  -14.2670  -16.8635 O   0  0  0  0  0  0  0  0  0  0  0  0
   14.4061  -11.5562  -15.2043 C   0  0  0  0  0  0  0  0  0  0  0  0
   15.6077  -12.2232  -15.8648 C   0  0  2  0  0  0  0  0  0  0  0  0
   15.8632  -13.4745  -15.1823 N   0  0  0  0  0  0  0  0  0  0  0  0
   16.7572  -11.3231  -15.7229 C   0  0  0  0  0  0  0  0  0  0  0  0
   17.5578  -11.4848  -14.7808 O   0  0  0  0  0  0  0  0  0  0  0  0
   18.3484   -8.4861  -17.6924 C   0  0  0  0  0  0  0  0  0  0  0  0
   18.1910   -9.4308  -16.5037 C   0  0  2  0  0  0  0  0  0  0  0  0
   17.0133  -10.2449  -16.6296 N   0  0  0  0  0  0  0  0  0  0  0  0
   18.0915   -8.5960  -15.2886 C   0  0  0  0  0  0  0  0  0  0  0  0
   16.9679   -8.2615  -14.8055 O   0  0  0  0  0  0  0  0  0  0  0  0
   19.2296   -8.1569  -14.6451 O   0  0  0  0  0  0  0  0  0  0  0  0
  2  1  1  0
  2  4  1  0
  3  2  2  0
  5  4  1  0
  5  6  1  0
  6  7  1  6
  8  6  1  0
  8 12  1  0
  9  8  2  0
 11 12  1  0
 11 13  1  0
 11 10  1  1
 13 17  1  0
 14 13  2  0
 16 15  1  6
 16 18  1  0
 17 16  1  0
 18 19  2  0
 18 20  1  0
M  END
$$$$
