QAA.pdb
     RDKit          3D

 20 19  0  0  1  0  0  0  0  0999 V2000
   20.6373  -12.8550  -16.6174 N   0  0  0  0  0  0  0  0  0  0  0  0
   19.2792  -12.9459  -17.0397 C   0  0  0  0  0  0  0  0  0  0  0  0
   18.9530  -12.8803  -18.2582 O   0  0  0  0  0  0  0  0  0  0  0  0
   18.2395  -13.1234  -15.9835 C   0  0  0  0  0  0  0  0  0  0  0  0
   17.6761  -11.7654  -15.6262 C   0  0  0  0  0  0  0  0  0  0  0  0
   16.6934  -11.9216  -14.4957 C   0  0  2  0  0  0  0  0  0  0  0  0
   15.6104  -12.7515  -14.9383 N   0  0  0  0  0  0  0  0  0  0  0  0
   16.2483  -10.5707  -14.0692 C   0  0  0  0  0  0  0  0  0  0  0  0
   15.3094  -10.0395  -14.7044 O   0  0  0  0  0  0  0  0  0  0  0  0
   16.7026   -8.3220  -11.1400 C   0  0  0  0  0  0  0  0  0  0  0  0
   16.3179   -8.5525  -12.5974 C   0  0  2  0  0  0  0  0  0  0  0  0
   16.8154   -9.8523  -12.9972 N   0  0  0  0  0  0  0  0  0  0  0  0
   16.9462   -7.4987  -13.4014 C   0  0  0  0  0  0  0  0  0  0  0  0
   18.1283   -7.6275  -13.7764 O   0  0  0  0  0  0  0  0  0  0  0  0
   15.8699   -4.3925  -15.2704 C   0  0  0  0  0  0  0  0  0  0  0  0
   16.8938   -5.3102  -14.6072 C   0  0  2  0  0  0  0  0  0  0  0  0
   16.2576   -6.3038  -13.7864 N   0  0  0  0  0  0  0  0  0  0  0  0
   17.7698   -4.4617  -13.7729 C   0  0  0  0  0  0  0  0  0  0  0  0
   17.6438   -4.4190  -12.5119 O   0  0  0  0  0  0  0  0  0  0  0  0
   18.7545   -3.6888  -14.3518 O   0  0  0  0  0  0  0  0  0  0  0  0
  2  1  1  0
  2  4  1  0
  3  2  2  0
  5  4  1  0
  5  6  1  0
  6  7  1  6
  8  6  1  0
  8 12  1  0
  9  8  2  0
 11 12  1  0
 11 13  1  0
 11 10  1  1
 13 17  1  0
 14 13  2  0
 16 15  1  1
 16 18  1  0
 17 16  1  0
 18 19  2  0
 18 20  1  0
M  END
$$$$
