QAA.pdb
     RDKit          3D

 20 19  0  0  1  0  0  0  0  0999 V2000
   22.3156  -23.1152  -15.2064 N   0  0  0  0  0  0  0  0  0  0  0  0
   20.8933  -23.1611  -15.1291 C   0  0  0  0  0  0  0  0  0  0  0  0
   20.2374  -24.1781  -15.4911 O   0  0  0  0  0  0  0  0  0  0  0  0
   20.1925  -21.9541  -14.5999 C   0  0  0  0  0  0  0  0  0  0  0  0
   21.2280  -20.9066  -14.2536 C   0  0  0  0  0  0  0  0  0  0  0  0
   21.9023  -21.2885  -12.9623 C   0  0  2  0  0  0  0  0  0  0  0  0
   21.0038  -21.0206  -11.8768 N   0  0  0  0  0  0  0  0  0  0  0  0
   23.1770  -20.5341  -12.8561 C   0  0  0  0  0  0  0  0  0  0  0  0
   23.1121  -19.3208  -12.5551 O   0  0  0  0  0  0  0  0  0  0  0  0
   26.8556  -21.2345  -13.0400 C   0  0  0  0  0  0  0  0  0  0  0  0
   25.6554  -20.2944  -13.0665 C   0  0  2  0  0  0  0  0  0  0  0  0
   24.4507  -21.0979  -13.0725 N   0  0  0  0  0  0  0  0  0  0  0  0
   25.7377  -19.4929  -14.2922 C   0  0  0  0  0  0  0  0  0  0  0  0
   25.2257  -19.9188  -15.3463 O   0  0  0  0  0  0  0  0  0  0  0  0
   27.0526  -16.0702  -15.3163 C   0  0  0  0  0  0  0  0  0  0  0  0
   26.3409  -17.4044  -15.5254 C   0  0  2  0  0  0  0  0  0  0  0  0
   26.3897  -18.2191  -14.3424 N   0  0  0  0  0  0  0  0  0  0  0  0
   27.0248  -18.0984  -16.6362 C   0  0  0  0  0  0  0  0  0  0  0  0
   26.8367  -17.7603  -17.8438 O   0  0  0  0  0  0  0  0  0  0  0  0
   27.8922  -19.1404  -16.3832 O   0  0  0  0  0  0  0  0  0  0  0  0
  2  1  1  0
  2  4  1  0
  3  2  2  0
  5  4  1  0
  5  6  1  0
  6  7  1  1
  8  6  1  0
  8 12  1  0
  9  8  2  0
 11 12  1  0
 11 13  1  0
 11 10  1  6
 13 17  1  0
 14 13  2  0
 16 15  1  1
 16 18  1  0
 17 16  1  0
 18 19  2  0
 18 20  1  0
M  END
$$$$
