QAA.pdb
     RDKit          3D

 20 19  0  0  1  0  0  0  0  0999 V2000
   20.1230  -13.4823  -21.3214 N   0  0  0  0  0  0  0  0  0  0  0  0
   20.2521  -13.7114  -19.9207 C   0  0  0  0  0  0  0  0  0  0  0  0
   19.4690  -14.4798  -19.2948 O   0  0  0  0  0  0  0  0  0  0  0  0
   21.3564  -13.0059  -19.2060 C   0  0  0  0  0  0  0  0  0  0  0  0
   20.9319  -11.5761  -18.9513 C   0  0  0  0  0  0  0  0  0  0  0  0
   21.5319  -11.1083  -17.6515 C   0  0  2  0  0  0  0  0  0  0  0  0
   21.1628  -12.0296  -16.6160 N   0  0  0  0  0  0  0  0  0  0  0  0
   21.0619   -9.7246  -17.3875 C   0  0  0  0  0  0  0  0  0  0  0  0
   21.3643   -8.8385  -18.2184 O   0  0  0  0  0  0  0  0  0  0  0  0
   18.6423   -7.9827  -15.1715 C   0  0  0  0  0  0  0  0  0  0  0  0
   19.9018   -7.9759  -16.0309 C   0  0  2  0  0  0  0  0  0  0  0  0
   20.2992   -9.3489  -16.2632 N   0  0  0  0  0  0  0  0  0  0  0  0
   20.9483   -7.2623  -15.2912 C   0  0  0  0  0  0  0  0  0  0  0  0
   21.6635   -7.8806  -14.4783 O   0  0  0  0  0  0  0  0  0  0  0  0
   22.5753   -3.8367  -15.3980 C   0  0  0  0  0  0  0  0  0  0  0  0
   22.3122   -5.2227  -14.8151 C   0  0  2  0  0  0  0  0  0  0  0  0
   21.1968   -5.8620  -15.4577 N   0  0  0  0  0  0  0  0  0  0  0  0
   22.0243   -5.0475  -13.3764 C   0  0  0  0  0  0  0  0  0  0  0  0
   20.8374   -5.0733  -12.9309 O   0  0  0  0  0  0  0  0  0  0  0  0
   23.0498   -4.8499  -12.4756 O   0  0  0  0  0  0  0  0  0  0  0  0
  2  1  1  0
  2  4  1  0
  3  2  2  0
  5  4  1  0
  5  6  1  0
  6  7  1  1
  8  6  1  0
  8 12  1  0
  9  8  2  0
 11 12  1  0
 11 13  1  0
 11 10  1  1
 13 17  1  0
 14 13  2  0
 16 15  1  6
 16 18  1  0
 17 16  1  0
 18 19  2  0
 18 20  1  0
M  END
$$$$
