QAA.pdb
     RDKit          3D

 20 19  0  0  1  0  0  0  0  0999 V2000
   27.4014  -18.8750  -14.4448 N   0  0  0  0  0  0  0  0  0  0  0  0
   27.6987  -20.2600  -14.2890 C   0  0  0  0  0  0  0  0  0  0  0  0
   28.4373  -20.8803  -15.1045 O   0  0  0  0  0  0  0  0  0  0  0  0
   27.1022  -20.9652  -13.1163 C   0  0  0  0  0  0  0  0  0  0  0  0
   26.3083  -19.9659  -12.3035 C   0  0  0  0  0  0  0  0  0  0  0  0
   25.0672  -20.6358  -11.7752 C   0  0  2  0  0  0  0  0  0  0  0  0
   25.4476  -21.8420  -11.0984 N   0  0  0  0  0  0  0  0  0  0  0  0
   24.1434  -20.8787  -12.9122 C   0  0  0  0  0  0  0  0  0  0  0  0
   24.0644  -22.0453  -13.3592 O   0  0  0  0  0  0  0  0  0  0  0  0
   21.4376  -18.9994  -14.6825 C   0  0  0  0  0  0  0  0  0  0  0  0
   22.3787  -20.1909  -14.5422 C   0  0  2  0  0  0  0  0  0  0  0  0
   23.3529  -19.8805  -13.5168 N   0  0  0  0  0  0  0  0  0  0  0  0
   23.0460  -20.3926  -15.8328 C   0  0  0  0  0  0  0  0  0  0  0  0
   24.0377  -19.6987  -16.1323 O   0  0  0  0  0  0  0  0  0  0  0  0
   22.9849  -22.9106  -18.6523 C   0  0  0  0  0  0  0  0  0  0  0  0
   23.3033  -21.5529  -18.0314 C   0  0  2  0  0  0  0  0  0  0  0  0
   22.6084  -21.3661  -16.7872 N   0  0  0  0  0  0  0  0  0  0  0  0
   22.8814  -20.5175  -18.9975 C   0  0  0  0  0  0  0  0  0  0  0  0
   21.8968  -19.7541  -18.7617 O   0  0  0  0  0  0  0  0  0  0  0  0
   23.5551  -20.3557  -20.1899 O   0  0  0  0  0  0  0  0  0  0  0  0
  2  1  1  0
  2  4  1  0
  3  2  2  0
  5  4  1  0
  5  6  1  0
  6  7  1  6
  8  6  1  0
  8 12  1  0
  9  8  2  0
 11 12  1  0
 11 13  1  0
 11 10  1  6
 13 17  1  0
 14 13  2  0
 16 15  1  6
 16 18  1  0
 17 16  1  0
 18 19  2  0
 18 20  1  0
M  END
$$$$
