QAA.pdb
     RDKit          3D

 20 19  0  0  1  0  0  0  0  0999 V2000
   27.5647  -19.5672  -14.7586 N   0  0  0  0  0  0  0  0  0  0  0  0
   27.0793  -20.8692  -15.0751 C   0  0  0  0  0  0  0  0  0  0  0  0
   27.6885  -21.9150  -14.7140 O   0  0  0  0  0  0  0  0  0  0  0  0
   25.8112  -20.9606  -15.8573 C   0  0  0  0  0  0  0  0  0  0  0  0
   25.3642  -19.5612  -16.2193 C   0  0  0  0  0  0  0  0  0  0  0  0
   24.8997  -18.8545  -14.9732 C   0  0  2  0  0  0  0  0  0  0  0  0
   23.8564  -19.6295  -14.3661 N   0  0  0  0  0  0  0  0  0  0  0  0
   24.4601  -17.4856  -15.3447 C   0  0  0  0  0  0  0  0  0  0  0  0
   23.2773  -17.3375  -15.7267 O   0  0  0  0  0  0  0  0  0  0  0  0
   25.9098  -14.0209  -15.3822 C   0  0  0  0  0  0  0  0  0  0  0  0
   24.8221  -15.0395  -15.7048 C   0  0  2  0  0  0  0  0  0  0  0  0
   25.2895  -16.3470  -15.2938 N   0  0  0  0  0  0  0  0  0  0  0  0
   24.5955  -15.0133  -17.1538 C   0  0  0  0  0  0  0  0  0  0  0  0
   24.9258  -15.9934  -17.8502 O   0  0  0  0  0  0  0  0  0  0  0  0
   22.6405  -14.9145  -19.5900 C   0  0  0  0  0  0  0  0  0  0  0  0
   23.7500  -13.9264  -19.2395 C   0  0  2  0  0  0  0  0  0  0  0  0
   24.0019  -13.8963  -17.8249 N   0  0  0  0  0  0  0  0  0  0  0  0
   23.3102  -12.5913  -19.6953 C   0  0  0  0  0  0  0  0  0  0  0  0
   23.0615  -11.6596  -18.8719 O   0  0  0  0  0  0  0  0  0  0  0  0
   23.1583  -12.3248  -21.0399 O   0  0  0  0  0  0  0  0  0  0  0  0
  2  1  1  0
  2  4  1  0
  3  2  2  0
  5  4  1  0
  5  6  1  0
  6  7  1  6
  8  6  1  0
  8 12  1  0
  9  8  2  0
 11 12  1  0
 11 13  1  0
 11 10  1  6
 13 17  1  0
 14 13  2  0
 16 15  1  1
 16 18  1  0
 17 16  1  0
 18 19  2  0
 18 20  1  0
M  END
$$$$
