QAA.pdb
     RDKit          3D

 20 19  0  0  1  0  0  0  0  0999 V2000
   28.3835  -12.4775  -20.8415 N   0  0  0  0  0  0  0  0  0  0  0  0
   29.6050  -11.9783  -20.3032 C   0  0  0  0  0  0  0  0  0  0  0  0
   30.7207  -12.5000  -20.5831 O   0  0  0  0  0  0  0  0  0  0  0  0
   29.5246  -10.8036  -19.3857 C   0  0  0  0  0  0  0  0  0  0  0  0
   28.0678  -10.4531  -19.1751 C   0  0  0  0  0  0  0  0  0  0  0  0
   27.9711   -9.3256  -18.1815 C   0  0  2  0  0  0  0  0  0  0  0  0
   28.7925   -9.6389  -17.0480 N   0  0  0  0  0  0  0  0  0  0  0  0
   26.5425   -9.1348  -17.8239 C   0  0  0  0  0  0  0  0  0  0  0  0
   25.7529   -8.8036  -18.7371 O   0  0  0  0  0  0  0  0  0  0  0  0
   24.2888   -9.9292  -14.9736 C   0  0  0  0  0  0  0  0  0  0  0  0
   24.6134   -9.1374  -16.2356 C   0  0  2  0  0  0  0  0  0  0  0  0
   26.0226   -9.3031  -16.5245 N   0  0  0  0  0  0  0  0  0  0  0  0
   24.3112   -7.7263  -15.9724 C   0  0  0  0  0  0  0  0  0  0  0  0
   25.1753   -6.9948  -15.4500 O   0  0  0  0  0  0  0  0  0  0  0  0
   21.6061   -5.2458  -16.8981 C   0  0  0  0  0  0  0  0  0  0  0  0
   22.8196   -5.7253  -16.1058 C   0  0  2  0  0  0  0  0  0  0  0  0
   23.0481   -7.1321  -16.2913 N   0  0  0  0  0  0  0  0  0  0  0  0
   22.5512   -5.4484  -14.6794 C   0  0  0  0  0  0  0  0  0  0  0  0
   22.2027   -6.3693  -13.8806 O   0  0  0  0  0  0  0  0  0  0  0  0
   22.6747   -4.1693  -14.1787 O   0  0  0  0  0  0  0  0  0  0  0  0
  2  1  1  0
  2  4  1  0
  3  2  2  0
  5  4  1  0
  5  6  1  0
  6  7  1  1
  8  6  1  0
  8 12  1  0
  9  8  2  0
 11 12  1  0
 11 13  1  0
 11 10  1  1
 13 17  1  0
 14 13  2  0
 16 15  1  6
 16 18  1  0
 17 16  1  0
 18 19  2  0
 18 20  1  0
M  END
$$$$
