LRL.pdb
     RDKit          3D

 28 27  0  0  1  0  0  0  0  0999 V2000
    9.9366  -22.8627   20.7473 C   0  0  0  0  0  0  0  0  0  0  0  0
    9.2944  -22.0765   21.8644 C   0  0  1  0  0  0  0  0  0  0  0  0
    9.6867  -22.7464   23.1634 C   0  0  0  0  0  0  0  0  0  0  0  0
    9.8003  -20.6491   21.8073 C   0  0  0  0  0  0  0  0  0  0  0  0
    9.2991  -19.8342   22.9706 C   0  0  2  0  0  0  0  0  0  0  0  0
    7.8485  -19.8712   23.0417 N   0  0  0  0  0  0  0  0  0  0  0  0
    9.7806  -18.4379   22.7916 C   0  0  0  0  0  0  0  0  0  0  0  0
   11.0027  -18.2107   22.6788 O   0  0  0  0  0  0  0  0  0  0  0  0
    8.5990  -14.1349   16.5072 N   0  0  0  0  0  0  0  0  0  0  0  0
    8.4794  -13.5046   17.7677 C   0  0  0  0  0  0  0  0  0  0  0  0
    9.0017  -12.3437   17.9366 N   0  0  0  0  0  0  0  0  0  0  0  0
    7.7978  -14.1136   18.8612 N   0  0  0  0  0  0  0  0  0  0  0  0
    7.6581  -13.4802   20.1433 C   0  0  0  0  0  0  0  0  0  0  0  0
    8.7087  -14.0457   21.0728 C   0  0  0  0  0  0  0  0  0  0  0  0
    8.3694  -15.3957   21.5880 C   0  0  0  0  0  0  0  0  0  0  0  0
    9.3738  -16.0063   22.5336 C   0  0  2  0  0  0  0  0  0  0  0  0
    8.8559  -17.3864   22.7510 N   0  0  0  0  0  0  0  0  0  0  0  0
    9.4044  -15.2989   23.8348 C   0  0  0  0  0  0  0  0  0  0  0  0
   10.0842  -14.2255   23.8869 O   0  0  0  0  0  0  0  0  0  0  0  0
    8.9573  -11.8478   18.8574 C   0  0  0  0  0  0  0  0  0  0  0  0
    5.5716  -13.1717   26.4406 C   0  0  1  0  0  0  0  0  0  0  0  0
    7.0303  -13.3593   25.9130 C   0  0  0  0  0  0  0  0  0  0  0  0
    7.6693  -11.9920   26.1978 C   0  0  0  0  0  0  0  0  0  0  0  0
    7.6478  -14.4655   26.6805 C   0  0  2  0  0  0  0  0  0  0  0  0
    8.9534  -15.0090   26.2997 N   0  0  0  0  0  0  0  0  0  0  0  0
    8.7447  -15.7129   25.0096 C   0  0  0  0  0  0  0  0  0  0  0  0
    9.6969  -15.8801   27.1793 O   0  0  0  0  0  0  0  0  0  0  0  0
   10.0573  -17.0683   26.9789 O   0  0  0  0  0  0  0  0  0  0  0  0
  2  1  1  6
  2  3  1  0
  4  2  1  0
  5  4  1  0
  5  6  1  6
  7  5  1  0
  7  8  2  0
  9 10  1  0
 10 11  2  0
 10 12  1  0
 12 13  1  0
 13 14  1  0
 14 15  1  0
 16 15  1  6
 17 16  1  0
 17  7  1  0
 18 16  1  0
 19 18  2  0
 21 20  1  6
 21 22  1  0
 21 23  1  0
 24 23  1  6
 24 25  1  0
 24 26  1  0
 25 18  1  0
 26 28  1  0
 27 26  2  0
M  END
$$$$
