LRL.pdb
     RDKit          3D

 28 27  0  0  1  0  0  0  0  0999 V2000
    6.9617  -12.7595   17.9993 C   0  0  0  0  0  0  0  0  0  0  0  0
    7.9448  -13.7656   18.5470 C   0  0  1  0  0  0  0  0  0  0  0  0
    9.2622  -13.0450   18.7341 C   0  0  0  0  0  0  0  0  0  0  0  0
    7.4154  -14.2945   19.8649 C   0  0  0  0  0  0  0  0  0  0  0  0
    8.4316  -15.1565   20.5668 C   0  0  2  0  0  0  0  0  0  0  0  0
    8.7193  -16.3519   19.7929 N   0  0  0  0  0  0  0  0  0  0  0  0
    7.8822  -15.5152   21.9022 C   0  0  0  0  0  0  0  0  0  0  0  0
    7.1680  -14.6996   22.5208 O   0  0  0  0  0  0  0  0  0  0  0  0
    6.7507  -22.9746   26.9015 N   0  0  0  0  0  0  0  0  0  0  0  0
    6.0332  -22.5136   25.7731 C   0  0  0  0  0  0  0  0  0  0  0  0
    4.9605  -23.1265   25.4230 N   0  0  0  0  0  0  0  0  0  0  0  0
    6.4594  -21.3894   25.0078 N   0  0  0  0  0  0  0  0  0  0  0  0
    7.6804  -20.6812   25.2758 C   0  0  0  0  0  0  0  0  0  0  0  0
    7.3992  -19.1971   25.1981 C   0  0  0  0  0  0  0  0  0  0  0  0
    7.8152  -18.5889   23.9097 C   0  0  0  0  0  0  0  0  0  0  0  0
    7.5720  -17.1059   23.7779 C   0  0  2  0  0  0  0  0  0  0  0  0
    8.1715  -16.7689   22.4561 N   0  0  0  0  0  0  0  0  0  0  0  0
    8.2771  -16.3376   24.8301 C   0  0  0  0  0  0  0  0  0  0  0  0
    9.5456  -16.2933   24.7535 O   0  0  0  0  0  0  0  0  0  0  0  0
    4.4043  -22.8306   24.5870 C   0  0  0  0  0  0  0  0  0  0  0  0
    5.7180  -12.2807   27.5791 C   0  0  1  0  0  0  0  0  0  0  0  0
    6.7348  -13.0146   26.6470 C   0  0  0  0  0  0  0  0  0  0  0  0
    7.5449  -11.8530   26.0526 C   0  0  0  0  0  0  0  0  0  0  0  0
    7.5456  -13.9223   27.4914 C   0  0  2  0  0  0  0  0  0  0  0  0
    8.4630  -14.8919   26.8890 N   0  0  0  0  0  0  0  0  0  0  0  0
    7.6622  -15.6546   25.8988 C   0  0  0  0  0  0  0  0  0  0  0  0
    9.2076  -15.8315   27.6940 O   0  0  0  0  0  0  0  0  0  0  0  0
    9.0208  -17.0686   27.8224 O   0  0  0  0  0  0  0  0  0  0  0  0
  2  1  1  1
  2  3  1  0
  4  2  1  0
  5  4  1  0
  5  6  1  6
  7  5  1  0
  7  8  2  0
  9 10  1  0
 10 11  2  0
 10 12  1  0
 12 13  1  0
 13 14  1  0
 14 15  1  0
 16 15  1  1
 17 16  1  0
 17  7  1  0
 18 16  1  0
 19 18  2  0
 21 20  1  6
 21 22  1  0
 21 23  1  0
 24 23  1  6
 24 25  1  0
 24 26  1  0
 25 18  1  0
 26 28  1  0
 27 26  2  0
M  END
$$$$
