LRL.pdb
     RDKit          3D

 28 27  0  0  1  0  0  0  0  0999 V2000
    7.0264  -12.7268   17.6782 C   0  0  0  0  0  0  0  0  0  0  0  0
    8.0313  -13.6815   18.2760 C   0  0  1  0  0  0  0  0  0  0  0  0
    9.2441  -12.8650   18.6663 C   0  0  0  0  0  0  0  0  0  0  0  0
    7.4070  -14.3507   19.4839 C   0  0  0  0  0  0  0  0  0  0  0  0
    8.4308  -15.0991   20.2964 C   0  0  2  0  0  0  0  0  0  0  0  0
    8.8708  -16.2956   19.5996 N   0  0  0  0  0  0  0  0  0  0  0  0
    7.8102  -15.4502   21.6022 C   0  0  0  0  0  0  0  0  0  0  0  0
    7.2759  -14.5611   22.2964 O   0  0  0  0  0  0  0  0  0  0  0  0
    8.7763  -20.5168   27.0745 N   0  0  0  0  0  0  0  0  0  0  0  0
    7.4750  -21.0610   27.1796 C   0  0  0  0  0  0  0  0  0  0  0  0
    7.0628  -21.4756   28.3229 N   0  0  0  0  0  0  0  0  0  0  0  0
    6.6015  -21.1661   26.0583 N   0  0  0  0  0  0  0  0  0  0  0  0
    6.9596  -20.7063   24.7451 C   0  0  0  0  0  0  0  0  0  0  0  0
    6.8636  -19.1970   24.7244 C   0  0  0  0  0  0  0  0  0  0  0  0
    7.2624  -18.6025   23.4242 C   0  0  0  0  0  0  0  0  0  0  0  0
    7.1507  -17.1011   23.3298 C   0  0  2  0  0  0  0  0  0  0  0  0
    7.8303  -16.7796   22.0434 N   0  0  0  0  0  0  0  0  0  0  0  0
    7.8742  -16.4258   24.4320 C   0  0  0  0  0  0  0  0  0  0  0  0
    9.1251  -16.2572   24.2769 O   0  0  0  0  0  0  0  0  0  0  0  0
    6.1346  -21.9459   28.4370 C   0  0  0  0  0  0  0  0  0  0  0  0
    7.2190  -11.6068   26.6188 C   0  0  2  0  0  0  0  0  0  0  0  0
    6.8695  -12.7703   27.6013 C   0  0  0  0  0  0  0  0  0  0  0  0
    5.5698  -12.2789   28.2556 C   0  0  0  0  0  0  0  0  0  0  0  0
    6.6911  -14.0010   26.7965 C   0  0  1  0  0  0  0  0  0  0  0  0
    7.8466  -14.7770   26.3410 N   0  0  0  0  0  0  0  0  0  0  0  0
    7.2942  -15.9557   25.6276 C   0  0  0  0  0  0  0  0  0  0  0  0
    8.8614  -15.2349   27.2606 O   0  0  0  0  0  0  0  0  0  0  0  0
    9.7899  -14.5726   27.7909 O   0  0  0  0  0  0  0  0  0  0  0  0
  2  1  1  1
  2  3  1  0
  4  2  1  0
  5  4  1  0
  5  6  1  6
  7  5  1  0
  7  8  2  0
  9 10  1  0
 10 11  2  0
 10 12  1  0
 12 13  1  0
 13 14  1  0
 14 15  1  0
 16 15  1  1
 17 16  1  0
 17  7  1  0
 18 16  1  0
 19 18  2  0
 21 20  1  1
 21 22  1  0
 21 23  1  0
 24 23  1  6
 24 25  1  0
 24 26  1  0
 25 18  1  0
 26 28  1  0
 27 26  2  0
M  END
$$$$
