LRL.pdb
     RDKit          3D

 28 27  0  0  1  0  0  0  0  0999 V2000
    6.5816  -12.3984   18.5155 C   0  0  0  0  0  0  0  0  0  0  0  0
    7.9138  -13.0401   18.8186 C   0  0  1  0  0  0  0  0  0  0  0  0
    8.8738  -11.9264   19.1766 C   0  0  0  0  0  0  0  0  0  0  0  0
    7.7366  -14.0056   19.9732 C   0  0  0  0  0  0  0  0  0  0  0  0
    9.0490  -14.3195   20.6423 C   0  0  2  0  0  0  0  0  0  0  0  0
    9.9332  -15.0343   19.7378 N   0  0  0  0  0  0  0  0  0  0  0  0
    8.7615  -15.1377   21.8512 C   0  0  0  0  0  0  0  0  0  0  0  0
    7.8492  -14.7958   22.6315 O   0  0  0  0  0  0  0  0  0  0  0  0
   13.4870  -19.7530   25.4726 N   0  0  0  0  0  0  0  0  0  0  0  0
   12.5923  -20.7054   26.0140 C   0  0  0  0  0  0  0  0  0  0  0  0
   12.9472  -21.3761   27.0499 N   0  0  0  0  0  0  0  0  0  0  0  0
   11.3066  -20.9485   25.4492 N   0  0  0  0  0  0  0  0  0  0  0  0
   10.9150  -20.4521   24.1590 C   0  0  0  0  0  0  0  0  0  0  0  0
   10.0463  -19.2305   24.3604 C   0  0  0  0  0  0  0  0  0  0  0  0
   10.1302  -18.2610   23.2397 C   0  0  0  0  0  0  0  0  0  0  0  0
    9.2426  -17.0469   23.3573 C   0  0  2  0  0  0  0  0  0  0  0  0
    9.5189  -16.2885   22.1049 N   0  0  0  0  0  0  0  0  0  0  0  0
    9.6157  -16.2035   24.5166 C   0  0  0  0  0  0  0  0  0  0  0  0
   10.8112  -15.7712   24.5487 O   0  0  0  0  0  0  0  0  0  0  0  0
   12.3619  -22.1571   27.4282 C   0  0  0  0  0  0  0  0  0  0  0  0
    6.2448  -13.2417   25.6760 C   0  0  2  0  0  0  0  0  0  0  0  0
    7.7801  -13.0625   25.9039 C   0  0  0  0  0  0  0  0  0  0  0  0
    7.8860  -11.5939   26.3408 C   0  0  0  0  0  0  0  0  0  0  0  0
    8.1934  -14.0182   26.9575 C   0  0  2  0  0  0  0  0  0  0  0  0
    9.2433  -15.0079   26.7064 N   0  0  0  0  0  0  0  0  0  0  0  0
    8.7605  -15.8412   25.5768 C   0  0  0  0  0  0  0  0  0  0  0  0
    9.7216  -15.8856   27.7486 O   0  0  0  0  0  0  0  0  0  0  0  0
   10.4734  -15.6083   28.7181 O   0  0  0  0  0  0  0  0  0  0  0  0
  2  1  1  1
  2  3  1  0
  4  2  1  0
  5  4  1  0
  5  6  1  6
  7  5  1  0
  7  8  2  0
  9 10  1  0
 10 11  2  0
 10 12  1  0
 12 13  1  0
 13 14  1  0
 14 15  1  0
 16 15  1  6
 17 16  1  0
 17  7  1  0
 18 16  1  0
 19 18  2  0
 21 20  1  6
 21 22  1  0
 21 23  1  0
 24 23  1  6
 24 25  1  0
 24 26  1  0
 25 18  1  0
 26 28  1  0
 27 26  2  0
M  END
$$$$
