LRL.pdb
     RDKit          3D

 28 27  0  0  1  0  0  0  0  0999 V2000
    7.3544  -11.7855   19.3978 C   0  0  0  0  0  0  0  0  0  0  0  0
    8.0792  -13.0774   19.1075 C   0  0  1  0  0  0  0  0  0  0  0  0
    9.5394  -12.7339   18.9081 C   0  0  0  0  0  0  0  0  0  0  0  0
    7.8906  -14.0151   20.2830 C   0  0  0  0  0  0  0  0  0  0  0  0
    8.6864  -15.2830   20.1165 C   0  0  2  0  0  0  0  0  0  0  0  0
    8.1251  -16.1121   19.0638 N   0  0  0  0  0  0  0  0  0  0  0  0
    8.6727  -16.0053   21.4172 C   0  0  0  0  0  0  0  0  0  0  0  0
    7.6141  -16.5200   21.8321 O   0  0  0  0  0  0  0  0  0  0  0  0
   12.6291  -19.2692   19.5367 N   0  0  0  0  0  0  0  0  0  0  0  0
   11.7185  -20.2675   19.9546 C   0  0  0  0  0  0  0  0  0  0  0  0
   10.8327  -20.6899   19.1263 N   0  0  0  0  0  0  0  0  0  0  0  0
   11.7485  -20.8237   21.2664 N   0  0  0  0  0  0  0  0  0  0  0  0
   11.7638  -20.0170   22.4553 C   0  0  0  0  0  0  0  0  0  0  0  0
   11.2100  -18.6516   22.1137 C   0  0  0  0  0  0  0  0  0  0  0  0
   11.1097  -17.7497   23.2881 C   0  0  0  0  0  0  0  0  0  0  0  0
    9.8341  -16.9510   23.3924 C   0  0  2  0  0  0  0  0  0  0  0  0
    9.8514  -16.1022   22.1680 N   0  0  0  0  0  0  0  0  0  0  0  0
    9.8335  -16.0693   24.5828 C   0  0  0  0  0  0  0  0  0  0  0  0
    9.8369  -14.8161   24.3669 O   0  0  0  0  0  0  0  0  0  0  0  0
   10.1341  -21.4227   19.3923 C   0  0  0  0  0  0  0  0  0  0  0  0
    6.2823  -13.4731   26.1501 C   0  0  1  0  0  0  0  0  0  0  0  0
    7.8127  -13.7824   26.0911 C   0  0  0  0  0  0  0  0  0  0  0  0
    8.4096  -12.7012   27.0041 C   0  0  0  0  0  0  0  0  0  0  0  0
    8.0142  -15.1577   26.6029 C   0  0  2  0  0  0  0  0  0  0  0  0
    9.3408  -15.6207   27.0158 N   0  0  0  0  0  0  0  0  0  0  0  0
    9.8264  -16.5017   25.9243 C   0  0  0  0  0  0  0  0  0  0  0  0
    9.5492  -16.2969   28.2745 O   0  0  0  0  0  0  0  0  0  0  0  0
    9.3573  -17.5091   28.5501 O   0  0  0  0  0  0  0  0  0  0  0  0
  2  1  1  1
  2  3  1  0
  4  2  1  0
  5  4  1  0
  5  6  1  6
  7  5  1  0
  7  8  2  0
  9 10  1  0
 10 11  2  0
 10 12  1  0
 12 13  1  0
 13 14  1  0
 14 15  1  0
 16 15  1  1
 17 16  1  0
 17  7  1  0
 18 16  1  0
 19 18  2  0
 21 20  1  6
 21 22  1  0
 21 23  1  0
 24 23  1  6
 24 25  1  0
 24 26  1  0
 25 18  1  0
 26 28  1  0
 27 26  2  0
M  END
$$$$
