LRL.pdb
     RDKit          3D

 28 27  0  0  1  0  0  0  0  0999 V2000
    6.2686  -11.4494   27.2020 C   0  0  0  0  0  0  0  0  0  0  0  0
    5.9422  -12.2949   25.9949 C   0  0  1  0  0  0  0  0  0  0  0  0
    6.3753  -11.5137   24.7734 C   0  0  0  0  0  0  0  0  0  0  0  0
    6.6931  -13.6069   26.1032 C   0  0  0  0  0  0  0  0  0  0  0  0
    6.1832  -14.6229   25.1150 C   0  0  2  0  0  0  0  0  0  0  0  0
    4.9394  -15.2149   25.5766 N   0  0  0  0  0  0  0  0  0  0  0  0
    7.2315  -15.6656   24.9498 C   0  0  0  0  0  0  0  0  0  0  0  0
    7.2803  -16.6298   25.7409 O   0  0  0  0  0  0  0  0  0  0  0  0
    9.8096  -17.6305   18.1019 N   0  0  0  0  0  0  0  0  0  0  0  0
    8.4802  -17.9372   18.4747 C   0  0  0  0  0  0  0  0  0  0  0  0
    7.9176  -18.9791   17.9777 N   0  0  0  0  0  0  0  0  0  0  0  0
    7.7397  -17.1289   19.3854 N   0  0  0  0  0  0  0  0  0  0  0  0
    8.3656  -16.2752   20.3570 C   0  0  0  0  0  0  0  0  0  0  0  0
    9.1745  -17.1374   21.3004 C   0  0  0  0  0  0  0  0  0  0  0  0
    9.7897  -16.3708   22.4125 C   0  0  0  0  0  0  0  0  0  0  0  0
    9.2000  -16.6144   23.7795 C   0  0  2  0  0  0  0  0  0  0  0  0
    8.1580  -15.5568   23.9047 N   0  0  0  0  0  0  0  0  0  0  0  0
   10.2032  -16.4236   24.8527 C   0  0  0  0  0  0  0  0  0  0  0  0
   10.5966  -15.2329   25.0634 O   0  0  0  0  0  0  0  0  0  0  0  0
    6.9447  -19.2598   18.2428 C   0  0  0  0  0  0  0  0  0  0  0  0
    9.8196  -14.1704   28.5053 C   0  0  1  0  0  0  0  0  0  0  0  0
   10.6407  -14.8234   27.3475 C   0  0  0  0  0  0  0  0  0  0  0  0
   11.9444  -14.0115   27.3604 C   0  0  0  0  0  0  0  0  0  0  0  0
   10.8374  -16.2522   27.6852 C   0  0  2  0  0  0  0  0  0  0  0  0
   11.6222  -17.1305   26.8149 N   0  0  0  0  0  0  0  0  0  0  0  0
   10.7506  -17.4449   25.6552 C   0  0  0  0  0  0  0  0  0  0  0  0
   12.1959  -18.3630   27.3016 O   0  0  0  0  0  0  0  0  0  0  0  0
   13.2732  -18.5278   27.9294 O   0  0  0  0  0  0  0  0  0  0  0  0
  2  1  1  1
  2  3  1  0
  4  2  1  0
  5  4  1  0
  5  6  1  1
  7  5  1  0
  7  8  2  0
  9 10  1  0
 10 11  2  0
 10 12  1  0
 12 13  1  0
 13 14  1  0
 14 15  1  0
 16 15  1  6
 17 16  1  0
 17  7  1  0
 18 16  1  0
 19 18  2  0
 21 20  1  6
 21 22  1  0
 21 23  1  0
 24 23  1  6
 24 25  1  0
 24 26  1  0
 25 18  1  0
 26 28  1  0
 27 26  2  0
M  END
$$$$
