LRL.pdb
     RDKit          3D

 28 27  0  0  1  0  0  0  0  0999 V2000
   14.8279  -13.7758   18.1727 C   0  0  0  0  0  0  0  0  0  0  0  0
   14.6123  -15.0265   18.9899 C   0  0  1  0  0  0  0  0  0  0  0  0
   15.8991  -15.2966   19.7391 C   0  0  0  0  0  0  0  0  0  0  0  0
   13.4594  -14.7904   19.9447 C   0  0  0  0  0  0  0  0  0  0  0  0
   13.2572  -15.9594   20.8727 C   0  0  2  0  0  0  0  0  0  0  0  0
   12.7799  -17.1222   20.1441 N   0  0  0  0  0  0  0  0  0  0  0  0
   12.2750  -15.5522   21.9134 C   0  0  0  0  0  0  0  0  0  0  0  0
   12.5220  -14.5797   22.6557 O   0  0  0  0  0  0  0  0  0  0  0  0
    8.4868  -14.5314   18.1664 N   0  0  0  0  0  0  0  0  0  0  0  0
    8.1756  -13.4817   19.0618 C   0  0  0  0  0  0  0  0  0  0  0  0
    8.4119  -12.2700   18.7085 N   0  0  0  0  0  0  0  0  0  0  0  0
    7.6071  -13.7211   20.3466 N   0  0  0  0  0  0  0  0  0  0  0  0
    7.2346  -15.0317   20.8026 C   0  0  0  0  0  0  0  0  0  0  0  0
    8.4936  -15.8496   20.9865 C   0  0  0  0  0  0  0  0  0  0  0  0
    8.7473  -16.2243   22.4000 C   0  0  0  0  0  0  0  0  0  0  0  0
   10.0467  -15.7290   22.9848 C   0  0  2  0  0  0  0  0  0  0  0  0
   11.0774  -16.2655   22.0522 N   0  0  0  0  0  0  0  0  0  0  0  0
   10.2899  -16.2874   24.3352 C   0  0  0  0  0  0  0  0  0  0  0  0
   11.0464  -17.3072   24.4053 O   0  0  0  0  0  0  0  0  0  0  0  0
    8.2461  -11.4645   19.3562 C   0  0  0  0  0  0  0  0  0  0  0  0
    9.2842  -13.1651   28.5534 C   0  0  1  0  0  0  0  0  0  0  0  0
   10.2647  -14.1226   27.8030 C   0  0  0  0  0  0  0  0  0  0  0  0
   11.5688  -13.9584   28.5975 C   0  0  0  0  0  0  0  0  0  0  0  0
    9.7024  -15.4910   27.8767 C   0  0  2  0  0  0  0  0  0  0  0  0
    9.9838  -16.4779   26.8319 N   0  0  0  0  0  0  0  0  0  0  0  0
    9.7585  -15.7834   25.5395 C   0  0  0  0  0  0  0  0  0  0  0  0
    9.3040  -17.7512   26.7900 O   0  0  0  0  0  0  0  0  0  0  0  0
    8.3474  -18.1010   26.0521 O   0  0  0  0  0  0  0  0  0  0  0  0
  2  1  1  1
  2  3  1  0
  4  2  1  0
  5  4  1  0
  5  6  1  6
  7  5  1  0
  7  8  2  0
  9 10  1  0
 10 11  2  0
 10 12  1  0
 12 13  1  0
 13 14  1  0
 14 15  1  0
 16 15  1  6
 17 16  1  0
 17  7  1  0
 18 16  1  0
 19 18  2  0
 21 20  1  6
 21 22  1  0
 21 23  1  0
 24 23  1  6
 24 25  1  0
 24 26  1  0
 25 18  1  0
 26 28  1  0
 27 26  2  0
M  END
$$$$
