FCM.pdb
     RDKit          3D

 26 26  0  0  1  0  0  0  0  0999 V2000
    6.0147  -18.0452   20.0651 N   0  0  0  0  0  0  0  0  0  0  0  0
    6.8704  -16.8762   20.2257 C   0  0  1  0  0  0  0  0  0  0  0  0
    6.0241  -15.6575   20.5249 C   0  0  0  0  0  0  0  0  0  0  0  0
    6.7920  -14.4172   20.6546 C   0  0  0  0  0  0  0  0  0  0  0  0
    7.4695  -13.8345   19.6111 C   0  0  0  0  0  0  0  0  0  0  0  0
    8.1630  -12.6846   19.8191 C   0  0  0  0  0  0  0  0  0  0  0  0
    8.1948  -12.0980   21.0563 C   0  0  0  0  0  0  0  0  0  0  0  0
    7.5219  -12.6684   22.1117 C   0  0  0  0  0  0  0  0  0  0  0  0
    6.8281  -13.8167   21.9100 C   0  0  0  0  0  0  0  0  0  0  0  0
    7.6941  -17.1143   21.4441 C   0  0  0  0  0  0  0  0  0  0  0  0
    7.1786  -17.4705   22.5515 O   0  0  0  0  0  0  0  0  0  0  0  0
    9.1245  -16.9318   21.3584 N   0  0  0  0  0  0  0  0  0  0  0  0
    9.9480  -17.3092   22.4921 C   0  0  1  0  0  0  0  0  0  0  0  0
   11.3569  -17.4692   21.9297 C   0  0  0  0  0  0  0  0  0  0  0  0
   12.4191  -17.8800   23.3609 S   0  0  0  0  0  0  0  0  0  0  0  0
    9.8945  -16.2014   23.4786 C   0  0  0  0  0  0  0  0  0  0  0  0
    9.9747  -15.0157   23.1041 O   0  0  0  0  0  0  0  0  0  0  0  0
    7.0065  -11.5962   26.0787 C   0  0  0  0  0  0  0  0  0  0  0  0
    6.8230  -13.0757   27.1079 S   0  0  0  0  0  0  0  0  0  0  0  0
    8.3995  -13.9680   27.2574 C   0  0  0  0  0  0  0  0  0  0  0  0
    8.5046  -14.8865   26.0849 C   0  0  0  0  0  0  0  0  0  0  0  0
    9.8766  -15.5159   25.9145 C   0  0  2  0  0  0  0  0  0  0  0  0
    9.7521  -16.5196   24.8529 N   0  0  0  0  0  0  0  0  0  0  0  0
   10.3193  -16.2610   27.1149 C   0  0  0  0  0  0  0  0  0  0  0  0
   11.4510  -16.0081   27.5926 O   0  0  0  0  0  0  0  0  0  0  0  0
    9.5562  -17.2284   27.7508 O   0  0  0  0  0  0  0  0  0  0  0  0
  2  1  1  1
  3  2  1  0
  3  4  1  0
  4  9  2  0
  5  6  2  0
  5  4  1  0
  6  7  1  0
  7  8  2  0
  9  8  1  0
 10  2  1  0
 10 11  2  0
 12 10  1  0
 13 16  1  0
 13 12  1  0
 13 14  1  6
 15 14  1  0
 16 23  1  0
 17 16  2  0
 18 19  1  0
 19 20  1  0
 20 21  1  0
 22 21  1  1
 22 24  1  0
 23 22  1  0
 24 25  2  0
 24 26  1  0
M  END
$$$$
