FCM.pdb
     RDKit          3D

 26 26  0  0  1  0  0  0  0  0999 V2000
    6.1334  -18.3835   24.5790 N   0  0  0  0  0  0  0  0  0  0  0  0
    6.2831  -16.9336   24.5752 C   0  0  1  0  0  0  0  0  0  0  0  0
    6.4269  -16.4284   25.9948 C   0  0  0  0  0  0  0  0  0  0  0  0
    6.3617  -14.9705   26.1170 C   0  0  0  0  0  0  0  0  0  0  0  0
    5.6335  -14.1722   25.2683 C   0  0  0  0  0  0  0  0  0  0  0  0
    5.6317  -12.8254   25.4492 C   0  0  0  0  0  0  0  0  0  0  0  0
    6.3462  -12.2530   26.4678 C   0  0  0  0  0  0  0  0  0  0  0  0
    7.0805  -13.0379   27.3263 C   0  0  0  0  0  0  0  0  0  0  0  0
    7.0863  -14.3830   27.1503 C   0  0  0  0  0  0  0  0  0  0  0  0
    7.5786  -16.6399   23.9009 C   0  0  0  0  0  0  0  0  0  0  0  0
    8.6286  -17.3231   24.1236 O   0  0  0  0  0  0  0  0  0  0  0  0
    7.6377  -15.5409   22.9651 N   0  0  0  0  0  0  0  0  0  0  0  0
    8.8449  -15.3515   22.1823 C   0  0  1  0  0  0  0  0  0  0  0  0
    8.5680  -14.1348   21.3049 C   0  0  0  0  0  0  0  0  0  0  0  0
    7.0886  -14.5612   20.3175 S   0  0  0  0  0  0  0  0  0  0  0  0
    9.9581  -15.0812   23.1262 C   0  0  0  0  0  0  0  0  0  0  0  0
   10.1000  -13.9508   23.6308 O   0  0  0  0  0  0  0  0  0  0  0  0
   11.6520  -12.9195   27.8709 C   0  0  0  0  0  0  0  0  0  0  0  0
   11.8166  -14.6954   28.1885 S   0  0  0  0  0  0  0  0  0  0  0  0
   12.5262  -15.5537   26.7520 C   0  0  0  0  0  0  0  0  0  0  0  0
   11.4916  -15.5513   25.6756 C   0  0  0  0  0  0  0  0  0  0  0  0
   12.0224  -15.9452   24.3078 C   0  0  2  0  0  0  0  0  0  0  0  0
   10.8556  -16.1330   23.4399 N   0  0  0  0  0  0  0  0  0  0  0  0
   12.7233  -17.2493   24.3180 C   0  0  0  0  0  0  0  0  0  0  0  0
   12.1379  -18.2470   23.8334 O   0  0  0  0  0  0  0  0  0  0  0  0
   13.9966  -17.4401   24.8326 O   0  0  0  0  0  0  0  0  0  0  0  0
  2  1  1  1
  3  2  1  0
  3  4  1  0
  4  9  2  0
  5  6  2  0
  5  4  1  0
  6  7  1  0
  7  8  2  0
  9  8  1  0
 10  2  1  0
 10 11  2  0
 12 10  1  0
 13 16  1  0
 13 12  1  0
 13 14  1  6
 15 14  1  0
 16 23  1  0
 17 16  2  0
 18 19  1  0
 19 20  1  0
 20 21  1  0
 22 21  1  1
 22 24  1  0
 23 22  1  0
 24 25  2  0
 24 26  1  0
M  END
$$$$
