FCM.pdb
     RDKit          3D

 26 26  0  0  1  0  0  0  0  0999 V2000
    5.3586  -18.1221   23.9861 N   0  0  0  0  0  0  0  0  0  0  0  0
    6.2526  -16.9747   23.8920 C   0  0  1  0  0  0  0  0  0  0  0  0
    6.5519  -16.4419   25.2768 C   0  0  0  0  0  0  0  0  0  0  0  0
    6.7157  -14.9876   25.3322 C   0  0  0  0  0  0  0  0  0  0  0  0
    7.5162  -14.2832   24.4659 C   0  0  0  0  0  0  0  0  0  0  0  0
    7.6162  -12.9337   24.5904 C   0  0  0  0  0  0  0  0  0  0  0  0
    6.9282  -12.2660   25.5685 C   0  0  0  0  0  0  0  0  0  0  0  0
    6.1225  -12.9563   26.4439 C   0  0  0  0  0  0  0  0  0  0  0  0
    6.0190  -14.3037   26.3246 C   0  0  0  0  0  0  0  0  0  0  0  0
    7.5469  -17.4845   23.3588 C   0  0  0  0  0  0  0  0  0  0  0  0
    7.6051  -18.4394   22.5199 O   0  0  0  0  0  0  0  0  0  0  0  0
    8.7726  -16.8705   23.8144 N   0  0  0  0  0  0  0  0  0  0  0  0
    9.8309  -16.6218   22.8532 C   0  0  1  0  0  0  0  0  0  0  0  0
    9.2524  -15.6071   21.8722 C   0  0  0  0  0  0  0  0  0  0  0  0
   10.5499  -15.3405   20.6109 S   0  0  0  0  0  0  0  0  0  0  0  0
   10.9848  -16.0478   23.5896 C   0  0  0  0  0  0  0  0  0  0  0  0
   12.0175  -15.7064   22.9815 O   0  0  0  0  0  0  0  0  0  0  0  0
    9.8794  -14.5286   29.7945 C   0  0  0  0  0  0  0  0  0  0  0  0
   10.0471  -13.2647   28.5076 S   0  0  0  0  0  0  0  0  0  0  0  0
   10.4352  -14.0167   26.8990 C   0  0  0  0  0  0  0  0  0  0  0  0
   11.5372  -14.9994   27.1207 C   0  0  0  0  0  0  0  0  0  0  0  0
   12.0559  -15.6435   25.8465 C   0  0  2  0  0  0  0  0  0  0  0  0
   10.8887  -15.8977   24.9961 N   0  0  0  0  0  0  0  0  0  0  0  0
   12.6707  -16.9695   26.0828 C   0  0  0  0  0  0  0  0  0  0  0  0
   11.9780  -17.9950   25.8798 O   0  0  0  0  0  0  0  0  0  0  0  0
   13.9747  -17.1520   26.5172 O   0  0  0  0  0  0  0  0  0  0  0  0
  2  1  1  1
  3  2  1  0
  3  4  1  0
  4  9  2  0
  5  6  2  0
  5  4  1  0
  6  7  1  0
  7  8  2  0
  9  8  1  0
 10  2  1  0
 10 11  2  0
 12 10  1  0
 13 16  1  0
 13 12  1  0
 13 14  1  6
 15 14  1  0
 16 23  1  0
 17 16  2  0
 18 19  1  0
 19 20  1  0
 20 21  1  0
 22 21  1  1
 22 24  1  0
 23 22  1  0
 24 25  2  0
 24 26  1  0
M  END
$$$$
