FCM.pdb
     RDKit          3D

 26 26  0  0  1  0  0  0  0  0999 V2000
    9.1958  -15.9333   25.0270 N   0  0  0  0  0  0  0  0  0  0  0  0
    7.8885  -16.5774   25.0502 C   0  0  1  0  0  0  0  0  0  0  0  0
    6.9812  -15.8628   26.0285 C   0  0  0  0  0  0  0  0  0  0  0  0
    7.3464  -14.4647   26.2666 C   0  0  0  0  0  0  0  0  0  0  0  0
    8.6358  -14.0479   26.4931 C   0  0  0  0  0  0  0  0  0  0  0  0
    8.8874  -12.7304   26.7108 C   0  0  0  0  0  0  0  0  0  0  0  0
    7.8717  -11.8117   26.7065 C   0  0  0  0  0  0  0  0  0  0  0  0
    6.5752  -12.2123   26.4813 C   0  0  0  0  0  0  0  0  0  0  0  0
    6.3180  -13.5265   26.2637 C   0  0  0  0  0  0  0  0  0  0  0  0
    7.2863  -16.3696   23.7035 C   0  0  0  0  0  0  0  0  0  0  0  0
    6.3777  -15.5040   23.4937 O   0  0  0  0  0  0  0  0  0  0  0  0
    7.7534  -17.1821   22.6041 N   0  0  0  0  0  0  0  0  0  0  0  0
    8.7157  -16.6183   21.6758 C   0  0  1  0  0  0  0  0  0  0  0  0
    7.9610  -15.5209   20.9320 C   0  0  0  0  0  0  0  0  0  0  0  0
    7.4294  -14.3284   22.2129 S   0  0  0  0  0  0  0  0  0  0  0  0
    9.8311  -16.0478   22.4716 C   0  0  0  0  0  0  0  0  0  0  0  0
   10.6630  -15.2868   21.9410 O   0  0  0  0  0  0  0  0  0  0  0  0
    8.9580  -13.3528   28.2108 C   0  0  0  0  0  0  0  0  0  0  0  0
   10.2084  -14.6153   28.5635 S   0  0  0  0  0  0  0  0  0  0  0  0
   11.2094  -14.9741   27.0894 C   0  0  0  0  0  0  0  0  0  0  0  0
   10.2996  -15.5723   26.0677 C   0  0  0  0  0  0  0  0  0  0  0  0
   10.9622  -15.8277   24.7247 C   0  0  2  0  0  0  0  0  0  0  0  0
    9.9312  -16.3869   23.8446 N   0  0  0  0  0  0  0  0  0  0  0  0
   12.0243  -16.8567   24.7952 C   0  0  0  0  0  0  0  0  0  0  0  0
   13.1707  -16.5089   25.1660 O   0  0  0  0  0  0  0  0  0  0  0  0
   11.8312  -18.1920   24.4755 O   0  0  0  0  0  0  0  0  0  0  0  0
  2  1  1  6
  3  2  1  0
  3  4  1  0
  4  9  2  0
  5  6  2  0
  5  4  1  0
  6  7  1  0
  7  8  2  0
  9  8  1  0
 10  2  1  0
 10 11  2  0
 12 10  1  0
 13 16  1  0
 13 12  1  0
 13 14  1  1
 15 14  1  0
 16 23  1  0
 17 16  2  0
 18 19  1  0
 19 20  1  0
 20 21  1  0
 22 21  1  1
 22 24  1  0
 23 22  1  0
 24 25  2  0
 24 26  1  0
M  END
$$$$
