FCM.pdb
     RDKit          3D

 26 26  0  0  1  0  0  0  0  0999 V2000
    5.6519  -17.3025   20.3313 N   0  0  0  0  0  0  0  0  0  0  0  0
    6.7278  -16.7377   21.1363 C   0  0  1  0  0  0  0  0  0  0  0  0
    6.4342  -15.2840   21.4388 C   0  0  0  0  0  0  0  0  0  0  0  0
    7.1727  -14.3402   20.5968 C   0  0  0  0  0  0  0  0  0  0  0  0
    8.4344  -13.8865   20.8966 C   0  0  0  0  0  0  0  0  0  0  0  0
    9.0472  -13.0059   20.0626 C   0  0  0  0  0  0  0  0  0  0  0  0
    8.4234  -12.5651   18.9258 C   0  0  0  0  0  0  0  0  0  0  0  0
    7.1603  -13.0095   18.6111 C   0  0  0  0  0  0  0  0  0  0  0  0
    6.5434  -13.8885   19.4402 C   0  0  0  0  0  0  0  0  0  0  0  0
    6.6967  -17.4450   22.4471 C   0  0  0  0  0  0  0  0  0  0  0  0
    5.6104  -17.6690   23.0707 O   0  0  0  0  0  0  0  0  0  0  0  0
    7.9450  -17.8876   23.0240 N   0  0  0  0  0  0  0  0  0  0  0  0
    8.0421  -18.0209   24.4657 C   0  0  1  0  0  0  0  0  0  0  0  0
    8.6893  -19.3821   24.7007 C   0  0  0  0  0  0  0  0  0  0  0  0
    8.9434  -19.5057   26.5078 S   0  0  0  0  0  0  0  0  0  0  0  0
    8.9138  -16.9274   24.9633 C   0  0  0  0  0  0  0  0  0  0  0  0
    9.9874  -16.6625   24.3889 O   0  0  0  0  0  0  0  0  0  0  0  0
    6.9976  -11.5184   27.9159 C   0  0  0  0  0  0  0  0  0  0  0  0
    6.1801  -12.4658   26.6060 S   0  0  0  0  0  0  0  0  0  0  0  0
    7.2418  -13.8187   26.0175 C   0  0  0  0  0  0  0  0  0  0  0  0
    8.3491  -13.9787   27.0063 C   0  0  0  0  0  0  0  0  0  0  0  0
    9.3063  -15.1131   26.6833 C   0  0  2  0  0  0  0  0  0  0  0  0
    8.5014  -16.1931   26.1038 N   0  0  0  0  0  0  0  0  0  0  0  0
    9.9374  -15.6928   27.8907 C   0  0  0  0  0  0  0  0  0  0  0  0
   10.8676  -15.0583   28.4429 O   0  0  0  0  0  0  0  0  0  0  0  0
    9.5624  -16.9023   28.4555 O   0  0  0  0  0  0  0  0  0  0  0  0
  2  1  1  6
  3  2  1  0
  3  4  1  0
  4  9  2  0
  5  6  2  0
  5  4  1  0
  6  7  1  0
  7  8  2  0
  9  8  1  0
 10  2  1  0
 10 11  2  0
 12 10  1  0
 13 16  1  0
 13 12  1  0
 13 14  1  6
 15 14  1  0
 16 23  1  0
 17 16  2  0
 18 19  1  0
 19 20  1  0
 20 21  1  0
 22 21  1  1
 22 24  1  0
 23 22  1  0
 24 25  2  0
 24 26  1  0
M  END
$$$$
