FCM.pdb
     RDKit          3D

 26 26  0  0  1  0  0  0  0  0999 V2000
    5.8945  -16.9253   24.6995 N   0  0  0  0  0  0  0  0  0  0  0  0
    7.0573  -16.1206   24.3457 C   0  0  1  0  0  0  0  0  0  0  0  0
    7.4428  -15.2350   25.5111 C   0  0  0  0  0  0  0  0  0  0  0  0
    6.9179  -13.8708   25.4208 C   0  0  0  0  0  0  0  0  0  0  0  0
    7.4410  -12.9128   24.5866 C   0  0  0  0  0  0  0  0  0  0  0  0
    6.8965  -11.6679   24.5683 C   0  0  0  0  0  0  0  0  0  0  0  0
    5.8315  -11.3557   25.3710 C   0  0  0  0  0  0  0  0  0  0  0  0
    5.2958  -12.3032   26.2120 C   0  0  0  0  0  0  0  0  0  0  0  0
    5.8356  -13.5477   26.2346 C   0  0  0  0  0  0  0  0  0  0  0  0
    8.1909  -17.0685   24.1567 C   0  0  0  0  0  0  0  0  0  0  0  0
    8.1869  -18.2381   24.6576 O   0  0  0  0  0  0  0  0  0  0  0  0
    9.3297  -16.6385   23.3787 N   0  0  0  0  0  0  0  0  0  0  0  0
   10.4562  -17.5407   23.2283 C   0  0  1  0  0  0  0  0  0  0  0  0
   10.9382  -17.3460   21.7941 C   0  0  0  0  0  0  0  0  0  0  0  0
   10.9173  -15.5402   21.5043 S   0  0  0  0  0  0  0  0  0  0  0  0
   11.5003  -17.1262   24.1985 C   0  0  0  0  0  0  0  0  0  0  0  0
   11.9395  -15.9602   24.1963 O   0  0  0  0  0  0  0  0  0  0  0  0
   11.2803  -13.4127   27.8240 C   0  0  0  0  0  0  0  0  0  0  0  0
   10.9582  -14.8549   28.8718 S   0  0  0  0  0  0  0  0  0  0  0  0
   12.0247  -16.2518   28.4077 C   0  0  0  0  0  0  0  0  0  0  0  0
   11.6680  -16.6397   27.0107 C   0  0  0  0  0  0  0  0  0  0  0  0
   12.5706  -17.7075   26.4167 C   0  0  2  0  0  0  0  0  0  0  0  0
   11.9875  -18.0827   25.1247 N   0  0  0  0  0  0  0  0  0  0  0  0
   12.5921  -18.9519   27.2186 C   0  0  0  0  0  0  0  0  0  0  0  0
   13.2265  -18.9557   28.3004 O   0  0  0  0  0  0  0  0  0  0  0  0
   11.9498  -20.1233   26.8475 O   0  0  0  0  0  0  0  0  0  0  0  0
  2  1  1  1
  3  2  1  0
  3  4  1  0
  4  9  2  0
  5  6  2  0
  5  4  1  0
  6  7  1  0
  7  8  2  0
  9  8  1  0
 10  2  1  0
 10 11  2  0
 12 10  1  0
 13 16  1  0
 13 12  1  0
 13 14  1  6
 15 14  1  0
 16 23  1  0
 17 16  2  0
 18 19  1  0
 19 20  1  0
 20 21  1  0
 22 21  1  1
 22 24  1  0
 23 22  1  0
 24 25  2  0
 24 26  1  0
M  END
$$$$
