FCM.pdb
     RDKit          3D

 26 26  0  0  1  0  0  0  0  0999 V2000
    6.4115  -18.5192   25.3703 N   0  0  0  0  0  0  0  0  0  0  0  0
    6.5924  -17.1086   25.0506 C   0  0  1  0  0  0  0  0  0  0  0  0
    7.0765  -16.3624   26.2752 C   0  0  0  0  0  0  0  0  0  0  0  0
    6.9819  -14.9055   26.1602 C   0  0  0  0  0  0  0  0  0  0  0  0
    8.0296  -14.1083   25.7673 C   0  0  0  0  0  0  0  0  0  0  0  0
    7.8582  -12.7624   25.6920 C   0  0  0  0  0  0  0  0  0  0  0  0
    6.6533  -12.1898   26.0022 C   0  0  0  0  0  0  0  0  0  0  0  0
    5.5942  -12.9736   26.3974 C   0  0  0  0  0  0  0  0  0  0  0  0
    5.7598  -14.3179   26.4746 C   0  0  0  0  0  0  0  0  0  0  0  0
    7.7015  -17.0347   24.0586 C   0  0  0  0  0  0  0  0  0  0  0  0
    8.6532  -17.8790   24.0420 O   0  0  0  0  0  0  0  0  0  0  0  0
    7.6902  -15.9657   23.0870 N   0  0  0  0  0  0  0  0  0  0  0  0
    8.4854  -16.1064   21.8814 C   0  0  1  0  0  0  0  0  0  0  0  0
    8.0572  -14.9522   20.9806 C   0  0  0  0  0  0  0  0  0  0  0  0
    8.3166  -13.4322   21.9643 S   0  0  0  0  0  0  0  0  0  0  0  0
    9.9137  -15.9775   22.2641 C   0  0  0  0  0  0  0  0  0  0  0  0
   10.8122  -16.1082   21.4107 O   0  0  0  0  0  0  0  0  0  0  0  0
   10.0810  -14.5568   29.2903 C   0  0  0  0  0  0  0  0  0  0  0  0
   10.9819  -14.0134   27.8155 S   0  0  0  0  0  0  0  0  0  0  0  0
   10.8212  -15.2230   26.4684 C   0  0  0  0  0  0  0  0  0  0  0  0
   11.6068  -14.7057   25.3089 C   0  0  0  0  0  0  0  0  0  0  0  0
   11.6150  -15.6329   24.1055 C   0  0  2  0  0  0  0  0  0  0  0  0
   10.2340  -15.7045   23.6180 N   0  0  0  0  0  0  0  0  0  0  0  0
   11.9851  -17.0233   24.4548 C   0  0  0  0  0  0  0  0  0  0  0  0
   13.1299  -17.2391   24.9189 O   0  0  0  0  0  0  0  0  0  0  0  0
   11.1396  -18.1114   24.3010 O   0  0  0  0  0  0  0  0  0  0  0  0
  2  1  1  1
  3  2  1  0
  3  4  1  0
  4  9  2  0
  5  6  2  0
  5  4  1  0
  6  7  1  0
  7  8  2  0
  9  8  1  0
 10  2  1  0
 10 11  2  0
 12 10  1  0
 13 16  1  0
 13 12  1  0
 13 14  1  6
 15 14  1  0
 16 23  1  0
 17 16  2  0
 18 19  1  0
 19 20  1  0
 20 21  1  0
 22 21  1  1
 22 24  1  0
 23 22  1  0
 24 25  2  0
 24 26  1  0
M  END
$$$$
