FCM.pdb
     RDKit          3D

 26 26  0  0  1  0  0  0  0  0999 V2000
    6.1642  -17.2243   19.0574 N   0  0  0  0  0  0  0  0  0  0  0  0
    7.3220  -17.5267   19.8895 C   0  0  1  0  0  0  0  0  0  0  0  0
    8.4097  -16.5021   19.6481 C   0  0  0  0  0  0  0  0  0  0  0  0
    7.9804  -15.1178   19.8585 C   0  0  0  0  0  0  0  0  0  0  0  0
    7.5300  -14.3037   18.8475 C   0  0  0  0  0  0  0  0  0  0  0  0
    7.1554  -13.0281   19.1287 C   0  0  0  0  0  0  0  0  0  0  0  0
    7.2204  -12.5432   20.4079 C   0  0  0  0  0  0  0  0  0  0  0  0
    7.6690  -13.3451   21.4316 C   0  0  0  0  0  0  0  0  0  0  0  0
    8.0445  -14.6194   21.1567 C   0  0  0  0  0  0  0  0  0  0  0  0
    6.8909  -17.3434   21.3037 C   0  0  0  0  0  0  0  0  0  0  0  0
    5.7232  -16.9409   21.6094 O   0  0  0  0  0  0  0  0  0  0  0  0
    7.8353  -17.6332   22.3578 N   0  0  0  0  0  0  0  0  0  0  0  0
    7.3849  -17.5790   23.7362 C   0  0  1  0  0  0  0  0  0  0  0  0
    7.2128  -19.0342   24.1602 C   0  0  0  0  0  0  0  0  0  0  0  0
    6.7626  -18.9850   25.9322 S   0  0  0  0  0  0  0  0  0  0  0  0
    8.4479  -16.9176   24.5336 C   0  0  0  0  0  0  0  0  0  0  0  0
    9.6459  -17.2133   24.3604 O   0  0  0  0  0  0  0  0  0  0  0  0
    7.2124  -10.8857   27.2596 C   0  0  0  0  0  0  0  0  0  0  0  0
    6.2157  -12.3980   27.2253 S   0  0  0  0  0  0  0  0  0  0  0  0
    7.0255  -13.6927   26.2394 C   0  0  0  0  0  0  0  0  0  0  0  0
    8.3090  -14.0346   26.9213 C   0  0  0  0  0  0  0  0  0  0  0  0
    9.0533  -15.1982   26.2889 C   0  0  2  0  0  0  0  0  0  0  0  0
    8.0728  -15.9456   25.4952 N   0  0  0  0  0  0  0  0  0  0  0  0
    9.5704  -16.1601   27.2887 C   0  0  0  0  0  0  0  0  0  0  0  0
    8.9614  -17.2450   27.4460 O   0  0  0  0  0  0  0  0  0  0  0  0
   10.6950  -15.9368   28.0685 O   0  0  0  0  0  0  0  0  0  0  0  0
  2  1  1  6
  3  2  1  0
  3  4  1  0
  4  9  2  0
  5  6  2  0
  5  4  1  0
  6  7  1  0
  7  8  2  0
  9  8  1  0
 10  2  1  0
 10 11  2  0
 12 10  1  0
 13 16  1  0
 13 12  1  0
 13 14  1  1
 15 14  1  0
 16 23  1  0
 17 16  2  0
 18 19  1  0
 19 20  1  0
 20 21  1  0
 22 21  1  1
 22 24  1  0
 23 22  1  0
 24 25  2  0
 24 26  1  0
M  END
$$$$
