FCM.pdb
     RDKit          3D

 26 26  0  0  1  0  0  0  0  0999 V2000
    6.9950  -16.5764   19.5803 N   0  0  0  0  0  0  0  0  0  0  0  0
    7.6371  -15.7558   20.5995 C   0  0  1  0  0  0  0  0  0  0  0  0
    6.5908  -14.9708   21.3611 C   0  0  0  0  0  0  0  0  0  0  0  0
    7.1218  -14.2243   22.5037 C   0  0  0  0  0  0  0  0  0  0  0  0
    7.8365  -13.0576   22.3787 C   0  0  0  0  0  0  0  0  0  0  0  0
    8.2985  -12.4303   23.4920 C   0  0  0  0  0  0  0  0  0  0  0  0
    8.0600  -12.9458   24.7383 C   0  0  0  0  0  0  0  0  0  0  0  0
    7.3462  -14.1130   24.8810 C   0  0  0  0  0  0  0  0  0  0  0  0
    6.8828  -14.7438   23.7729 C   0  0  0  0  0  0  0  0  0  0  0  0
    8.2441  -16.6950   21.5839 C   0  0  0  0  0  0  0  0  0  0  0  0
    7.5934  -17.6684   22.0819 O   0  0  0  0  0  0  0  0  0  0  0  0
    9.6170  -16.4871   21.9824 N   0  0  0  0  0  0  0  0  0  0  0  0
   10.2168  -17.4043   22.9335 C   0  0  1  0  0  0  0  0  0  0  0  0
   11.3114  -18.1294   22.1569 C   0  0  0  0  0  0  0  0  0  0  0  0
   12.0551  -19.3137   23.3358 S   0  0  0  0  0  0  0  0  0  0  0  0
   10.7961  -16.5973   24.0364 C   0  0  0  0  0  0  0  0  0  0  0  0
   11.5882  -15.6670   23.7917 O   0  0  0  0  0  0  0  0  0  0  0  0
    8.5396  -12.4448   27.3425 C   0  0  0  0  0  0  0  0  0  0  0  0
    9.0720  -13.4269   28.7686 S   0  0  0  0  0  0  0  0  0  0  0  0
   10.4145  -14.5651   28.3145 C   0  0  0  0  0  0  0  0  0  0  0  0
    9.9996  -15.2670   27.0637 C   0  0  0  0  0  0  0  0  0  0  0  0
   11.0349  -16.2425   26.5306 C   0  0  2  0  0  0  0  0  0  0  0  0
   10.4316  -16.9070   25.3711 N   0  0  0  0  0  0  0  0  0  0  0  0
   11.3498  -17.3260   27.4893 C   0  0  0  0  0  0  0  0  0  0  0  0
   10.7384  -18.4158   27.3825 O   0  0  0  0  0  0  0  0  0  0  0  0
   12.2858  -17.2126   28.5059 O   0  0  0  0  0  0  0  0  0  0  0  0
  2  1  1  6
  3  2  1  0
  3  4  1  0
  4  9  2  0
  5  6  2  0
  5  4  1  0
  6  7  1  0
  7  8  2  0
  9  8  1  0
 10  2  1  0
 10 11  2  0
 12 10  1  0
 13 16  1  0
 13 12  1  0
 13 14  1  6
 15 14  1  0
 16 23  1  0
 17 16  2  0
 18 19  1  0
 19 20  1  0
 20 21  1  0
 22 21  1  1
 22 24  1  0
 23 22  1  0
 24 25  2  0
 24 26  1  0
M  END
$$$$
