FCM.pdb
     RDKit          3D

 26 26  0  0  1  0  0  0  0  0999 V2000
    5.7934  -17.3102   24.7065 N   0  0  0  0  0  0  0  0  0  0  0  0
    6.8422  -16.3228   24.4839 C   0  0  1  0  0  0  0  0  0  0  0  0
    7.1423  -15.5923   25.7751 C   0  0  0  0  0  0  0  0  0  0  0  0
    6.7641  -14.1775   25.7600 C   0  0  0  0  0  0  0  0  0  0  0  0
    5.7459  -13.6587   26.5227 C   0  0  0  0  0  0  0  0  0  0  0  0
    5.4563  -12.3334   26.4446 C   0  0  0  0  0  0  0  0  0  0  0  0
    6.1674  -11.5071   25.6155 C   0  0  0  0  0  0  0  0  0  0  0  0
    7.1899  -12.0105   24.8452 C   0  0  0  0  0  0  0  0  0  0  0  0
    7.4832  -13.3330   24.9189 C   0  0  0  0  0  0  0  0  0  0  0  0
    8.0781  -17.0821   24.1440 C   0  0  0  0  0  0  0  0  0  0  0  0
    8.3702  -18.1867   24.7039 O   0  0  0  0  0  0  0  0  0  0  0  0
    8.9703  -16.5400   23.1456 N   0  0  0  0  0  0  0  0  0  0  0  0
   10.2450  -17.1942   22.9159 C   0  0  1  0  0  0  0  0  0  0  0  0
   10.6679  -16.7690   21.5133 C   0  0  0  0  0  0  0  0  0  0  0  0
   10.1453  -15.0244   21.3447 S   0  0  0  0  0  0  0  0  0  0  0  0
   11.2017  -16.6904   23.9328 C   0  0  0  0  0  0  0  0  0  0  0  0
   11.5856  -15.5052   23.9086 O   0  0  0  0  0  0  0  0  0  0  0  0
   10.4273  -13.5168   27.8858 C   0  0  0  0  0  0  0  0  0  0  0  0
   10.8395  -14.9384   28.9303 S   0  0  0  0  0  0  0  0  0  0  0  0
   11.1195  -16.4279   27.9268 C   0  0  0  0  0  0  0  0  0  0  0  0
   11.9030  -16.0146   26.7248 C   0  0  0  0  0  0  0  0  0  0  0  0
   12.5786  -17.1672   26.0018 C   0  0  2  0  0  0  0  0  0  0  0  0
   11.6698  -17.5838   24.9292 N   0  0  0  0  0  0  0  0  0  0  0  0
   12.7521  -18.3607   26.8606 C   0  0  0  0  0  0  0  0  0  0  0  0
   12.0572  -19.3766   26.6207 O   0  0  0  0  0  0  0  0  0  0  0  0
   13.6419  -18.4281   27.9219 O   0  0  0  0  0  0  0  0  0  0  0  0
  2  1  1  1
  3  2  1  0
  3  4  1  0
  4  9  2  0
  5  6  2  0
  5  4  1  0
  6  7  1  0
  7  8  2  0
  9  8  1  0
 10  2  1  0
 10 11  2  0
 12 10  1  0
 13 16  1  0
 13 12  1  0
 13 14  1  6
 15 14  1  0
 16 23  1  0
 17 16  2  0
 18 19  1  0
 19 20  1  0
 20 21  1  0
 22 21  1  1
 22 24  1  0
 23 22  1  0
 24 25  2  0
 24 26  1  0
M  END
$$$$
