NCI.pdb
     RDKit          3D

 23 22  0  0  1  0  0  0  0  0999 V2000
    8.0306  -20.6254   19.4590 N   0  0  0  0  0  0  0  0  0  0  0  0
    9.1688  -20.1742   20.1765 C   0  0  0  0  0  0  0  0  0  0  0  0
   10.0570  -20.9920   20.5021 O   0  0  0  0  0  0  0  0  0  0  0  0
    9.3560  -18.7537   20.5642 C   0  0  0  0  0  0  0  0  0  0  0  0
    9.3127  -18.5984   22.0824 C   0  0  2  0  0  0  0  0  0  0  0  0
    8.1661  -19.2427   22.6459 N   0  0  0  0  0  0  0  0  0  0  0  0
    9.2763  -17.1141   22.3328 C   0  0  0  0  0  0  0  0  0  0  0  0
   10.1247  -16.3599   21.7967 O   0  0  0  0  0  0  0  0  0  0  0  0
    8.2988  -16.5226   23.1693 N   0  0  0  0  0  0  0  0  0  0  0  0
    8.2568  -15.0852   23.2985 C   0  0  1  0  0  0  0  0  0  0  0  0
    6.8101  -14.6043   23.4844 C   0  0  0  0  0  0  0  0  0  0  0  0
    6.1859  -14.9868   25.1218 S   0  0  0  0  0  0  0  0  0  0  0  0
    9.0309  -14.6239   24.4851 C   0  0  0  0  0  0  0  0  0  0  0  0
    9.2840  -13.3978   24.6988 O   0  0  0  0  0  0  0  0  0  0  0  0
    7.7158  -12.5723   28.0051 C   0  0  0  0  0  0  0  0  0  0  0  0
    8.6609  -13.2043   27.0119 C   0  0  0  0  0  0  0  0  0  0  0  0
    9.2296  -14.4502   27.6085 C   0  0  2  0  0  0  0  0  0  0  0  0
    9.9524  -14.0952   28.8865 C   0  0  0  0  0  0  0  0  0  0  0  0
   10.1611  -15.1782   26.6649 C   0  0  2  0  0  0  0  0  0  0  0  0
    9.5229  -15.5518   25.4375 N   0  0  0  0  0  0  0  0  0  0  0  0
   10.7298  -16.3702   27.3275 C   0  0  0  0  0  0  0  0  0  0  0  0
   11.7962  -16.2723   28.1998 O   0  0  0  0  0  0  0  0  0  0  0  0
   10.2424  -17.4993   27.1008 O   0  0  0  0  0  0  0  0  0  0  0  0
  2  1  1  0
  3  2  2  0
  4  2  1  0
  5  6  1  6
  5  4  1  0
  7  8  2  0
  7  5  1  0
  9  7  1  0
 10  9  1  0
 10 13  1  0
 10 11  1  1
 12 11  1  0
 13 20  1  0
 13 14  2  0
 16 15  1  0
 17 16  1  0
 17 18  1  1
 19 17  1  0
 19 20  1  6
 21 22  1  0
 21 19  1  0
 23 21  2  0
M  END
$$$$
