NCI.pdb
     RDKit          3D

 23 22  0  0  1  0  0  0  0  0999 V2000
    8.4784  -12.6785   18.0295 N   0  0  0  0  0  0  0  0  0  0  0  0
    8.1164  -13.9624   17.5451 C   0  0  0  0  0  0  0  0  0  0  0  0
    8.5979  -14.3732   16.4666 O   0  0  0  0  0  0  0  0  0  0  0  0
    7.1777  -14.8536   18.2716 C   0  0  0  0  0  0  0  0  0  0  0  0
    7.9419  -15.9099   19.0660 C   0  0  2  0  0  0  0  0  0  0  0  0
    7.9076  -17.1847   18.4172 N   0  0  0  0  0  0  0  0  0  0  0  0
    7.2651  -15.9687   20.4096 C   0  0  0  0  0  0  0  0  0  0  0  0
    6.0150  -16.0549   20.4864 O   0  0  0  0  0  0  0  0  0  0  0  0
    8.0019  -15.9298   21.6182 N   0  0  0  0  0  0  0  0  0  0  0  0
    7.3025  -16.0521   22.8754 C   0  0  1  0  0  0  0  0  0  0  0  0
    6.9500  -17.5208   23.1537 C   0  0  0  0  0  0  0  0  0  0  0  0
    8.4150  -18.5515   23.2474 S   0  0  0  0  0  0  0  0  0  0  0  0
    8.1411  -15.5769   24.0117 C   0  0  0  0  0  0  0  0  0  0  0  0
    9.4080  -15.6671   24.0078 O   0  0  0  0  0  0  0  0  0  0  0  0
    5.9083  -11.4570   26.8512 C   0  0  0  0  0  0  0  0  0  0  0  0
    6.8288  -12.3403   26.0441 C   0  0  0  0  0  0  0  0  0  0  0  0
    7.4763  -13.3293   26.9576 C   0  0  2  0  0  0  0  0  0  0  0  0
    8.3516  -12.5877   27.9404 C   0  0  0  0  0  0  0  0  0  0  0  0
    8.2868  -14.3682   26.2148 C   0  0  2  0  0  0  0  0  0  0  0  0
    7.5469  -14.9959   25.1604 N   0  0  0  0  0  0  0  0  0  0  0  0
    8.7970  -15.3865   27.1562 C   0  0  0  0  0  0  0  0  0  0  0  0
   10.0254  -15.2499   27.7725 O   0  0  0  0  0  0  0  0  0  0  0  0
    8.1090  -16.4000   27.4083 O   0  0  0  0  0  0  0  0  0  0  0  0
  2  1  1  0
  3  2  2  0
  4  2  1  0
  5  6  1  6
  5  4  1  0
  7  8  2  0
  7  5  1  0
  9  7  1  0
 10  9  1  0
 10 13  1  0
 10 11  1  1
 12 11  1  0
 13 20  1  0
 13 14  2  0
 16 15  1  0
 17 16  1  0
 17 18  1  1
 19 17  1  0
 19 20  1  6
 21 22  1  0
 21 19  1  0
 23 21  2  0
M  END
$$$$
