NCI.pdb
     RDKit          3D

 23 22  0  0  1  0  0  0  0  0999 V2000
   13.9898  -17.6576   17.8619 N   0  0  0  0  0  0  0  0  0  0  0  0
   13.6527  -17.8497   19.2270 C   0  0  0  0  0  0  0  0  0  0  0  0
   13.9963  -18.9042   19.8049 O   0  0  0  0  0  0  0  0  0  0  0  0
   12.8992  -16.8405   20.0124 C   0  0  0  0  0  0  0  0  0  0  0  0
   11.5852  -17.4259   20.5241 C   0  0  2  0  0  0  0  0  0  0  0  0
   10.7157  -17.7902   19.4478 N   0  0  0  0  0  0  0  0  0  0  0  0
   10.9698  -16.3467   21.3747 C   0  0  0  0  0  0  0  0  0  0  0  0
   11.6922  -15.6295   22.1093 O   0  0  0  0  0  0  0  0  0  0  0  0
    9.5747  -16.1041   21.3777 N   0  0  0  0  0  0  0  0  0  0  0  0
    9.0216  -15.1774   22.3367 C   0  0  1  0  0  0  0  0  0  0  0  0
    7.6374  -14.6933   21.8798 C   0  0  0  0  0  0  0  0  0  0  0  0
    6.4730  -16.0494   21.7307 S   0  0  0  0  0  0  0  0  0  0  0  0
    8.8468  -15.8169   23.6712 C   0  0  0  0  0  0  0  0  0  0  0  0
    8.9019  -17.0750   23.8362 O   0  0  0  0  0  0  0  0  0  0  0  0
   10.3825  -13.1710   28.3744 C   0  0  0  0  0  0  0  0  0  0  0  0
   10.1943  -14.3150   27.4076 C   0  0  0  0  0  0  0  0  0  0  0  0
    8.7322  -14.5659   27.2317 C   0  0  2  0  0  0  0  0  0  0  0  0
    8.1542  -15.0330   28.5469 C   0  0  0  0  0  0  0  0  0  0  0  0
    8.4386  -15.5743   26.1432 C   0  0  2  0  0  0  0  0  0  0  0  0
    8.6082  -15.0320   24.8276 N   0  0  0  0  0  0  0  0  0  0  0  0
    7.0714  -16.1122   26.3007 C   0  0  0  0  0  0  0  0  0  0  0  0
    5.9817  -15.4991   25.7139 O   0  0  0  0  0  0  0  0  0  0  0  0
    6.8844  -17.1461   26.9790 O   0  0  0  0  0  0  0  0  0  0  0  0
  2  1  1  0
  3  2  2  0
  4  2  1  0
  5  6  1  6
  5  4  1  0
  7  8  2  0
  7  5  1  0
  9  7  1  0
 10  9  1  0
 10 13  1  0
 10 11  1  6
 12 11  1  0
 13 20  1  0
 13 14  2  0
 16 15  1  0
 17 16  1  0
 17 18  1  1
 19 17  1  0
 19 20  1  6
 21 22  1  0
 21 19  1  0
 23 21  2  0
M  END
$$$$
