NCI.pdb
     RDKit          3D

 23 22  0  0  1  0  0  0  0  0999 V2000
    7.8942  -12.0535   17.5928 N   0  0  0  0  0  0  0  0  0  0  0  0
    8.2036  -13.3715   18.0185 C   0  0  0  0  0  0  0  0  0  0  0  0
    9.0070  -14.0619   17.3539 O   0  0  0  0  0  0  0  0  0  0  0  0
    7.6079  -13.9771   19.2357 C   0  0  0  0  0  0  0  0  0  0  0  0
    8.2053  -15.3572   19.4995 C   0  0  2  0  0  0  0  0  0  0  0  0
    7.6351  -16.3512   18.6427 N   0  0  0  0  0  0  0  0  0  0  0  0
    7.9066  -15.6538   20.9451 C   0  0  0  0  0  0  0  0  0  0  0  0
    6.8052  -15.3196   21.4462 O   0  0  0  0  0  0  0  0  0  0  0  0
    8.8424  -16.3107   21.7805 N   0  0  0  0  0  0  0  0  0  0  0  0
    8.4578  -16.6703   23.1248 C   0  0  1  0  0  0  0  0  0  0  0  0
    9.0571  -18.0311   23.5095 C   0  0  0  0  0  0  0  0  0  0  0  0
   10.7933  -18.1419   23.0733 S   0  0  0  0  0  0  0  0  0  0  0  0
    8.9531  -15.6742   24.1161 C   0  0  0  0  0  0  0  0  0  0  0  0
    9.9967  -14.9778   23.9188 O   0  0  0  0  0  0  0  0  0  0  0  0
    5.9966  -11.9683   26.3801 C   0  0  0  0  0  0  0  0  0  0  0  0
    7.1553  -12.7615   25.8257 C   0  0  0  0  0  0  0  0  0  0  0  0
    7.6843  -13.6598   26.8957 C   0  0  2  0  0  0  0  0  0  0  0  0
    8.2364  -12.8121   28.0176 C   0  0  0  0  0  0  0  0  0  0  0  0
    8.7444  -14.6122   26.3887 C   0  0  2  0  0  0  0  0  0  0  0  0
    8.2667  -15.4620   25.3383 N   0  0  0  0  0  0  0  0  0  0  0  0
    9.2741  -15.4263   27.5022 C   0  0  0  0  0  0  0  0  0  0  0  0
    9.0680  -16.7907   27.5616 O   0  0  0  0  0  0  0  0  0  0  0  0
    9.9258  -14.8780   28.4179 O   0  0  0  0  0  0  0  0  0  0  0  0
  2  1  1  0
  3  2  2  0
  4  2  1  0
  5  6  1  6
  5  4  1  0
  7  8  2  0
  7  5  1  0
  9  7  1  0
 10  9  1  0
 10 13  1  0
 10 11  1  1
 12 11  1  0
 13 20  1  0
 13 14  2  0
 16 15  1  0
 17 16  1  0
 17 18  1  1
 19 17  1  0
 19 20  1  6
 21 22  1  0
 21 19  1  0
 23 21  2  0
M  END
$$$$
