NCI.pdb
     RDKit          3D

 23 22  0  0  1  0  0  0  0  0999 V2000
    8.4833  -12.2623   18.2842 N   0  0  0  0  0  0  0  0  0  0  0  0
    8.1305  -13.5123   17.7125 C   0  0  0  0  0  0  0  0  0  0  0  0
    8.3927  -13.7370   16.5105 O   0  0  0  0  0  0  0  0  0  0  0  0
    7.4541  -14.5819   18.4881 C   0  0  0  0  0  0  0  0  0  0  0  0
    8.4688  -15.6012   19.0002 C   0  0  2  0  0  0  0  0  0  0  0  0
    8.5925  -16.7149   18.1104 N   0  0  0  0  0  0  0  0  0  0  0  0
    7.9537  -16.0388   20.3456 C   0  0  0  0  0  0  0  0  0  0  0  0
    6.9277  -16.7574   20.4284 O   0  0  0  0  0  0  0  0  0  0  0  0
    8.5974  -15.6620   21.5493 N   0  0  0  0  0  0  0  0  0  0  0  0
    8.1174  -16.1940   22.8027 C   0  0  1  0  0  0  0  0  0  0  0  0
    8.3409  -17.7123   22.8631 C   0  0  0  0  0  0  0  0  0  0  0  0
   10.0379  -18.1517   22.4832 S   0  0  0  0  0  0  0  0  0  0  0  0
    8.8413  -15.5953   23.9594 C   0  0  0  0  0  0  0  0  0  0  0  0
   10.0782  -15.3104   23.9153 O   0  0  0  0  0  0  0  0  0  0  0  0
    6.0802  -11.7694   26.3120 C   0  0  0  0  0  0  0  0  0  0  0  0
    7.1406  -12.6540   25.7020 C   0  0  0  0  0  0  0  0  0  0  0  0
    7.7351  -13.5082   26.7737 C   0  0  2  0  0  0  0  0  0  0  0  0
    8.4101  -12.6182   27.7907 C   0  0  0  0  0  0  0  0  0  0  0  0
    8.7166  -14.5248   26.2341 C   0  0  2  0  0  0  0  0  0  0  0  0
    8.1656  -15.3162   25.1741 N   0  0  0  0  0  0  0  0  0  0  0  0
    9.1988  -15.3976   27.3246 C   0  0  0  0  0  0  0  0  0  0  0  0
    8.8441  -16.7307   27.3935 O   0  0  0  0  0  0  0  0  0  0  0  0
    9.9460  -14.9294   28.2114 O   0  0  0  0  0  0  0  0  0  0  0  0
  2  1  1  0
  3  2  2  0
  4  2  1  0
  5  6  1  6
  5  4  1  0
  7  8  2  0
  7  5  1  0
  9  7  1  0
 10  9  1  0
 10 13  1  0
 10 11  1  6
 12 11  1  0
 13 20  1  0
 13 14  2  0
 16 15  1  0
 17 16  1  0
 17 18  1  1
 19 17  1  0
 19 20  1  6
 21 22  1  0
 21 19  1  0
 23 21  2  0
M  END
$$$$
