NCI.pdb
     RDKit          3D

 23 22  0  0  1  0  0  0  0  0999 V2000
    7.6567  -17.3542   16.9012 N   0  0  0  0  0  0  0  0  0  0  0  0
    8.1372  -18.2743   17.8690 C   0  0  0  0  0  0  0  0  0  0  0  0
    9.0669  -19.0553   17.5697 O   0  0  0  0  0  0  0  0  0  0  0  0
    7.5779  -18.3530   19.2416 C   0  0  0  0  0  0  0  0  0  0  0  0
    8.3199  -17.4063   20.1820 C   0  0  2  0  0  0  0  0  0  0  0  0
    9.3496  -18.0843   20.9081 N   0  0  0  0  0  0  0  0  0  0  0  0
    7.2699  -16.8621   21.1137 C   0  0  0  0  0  0  0  0  0  0  0  0
    6.0638  -16.8409   20.7664 O   0  0  0  0  0  0  0  0  0  0  0  0
    7.5985  -16.3618   22.3970 N   0  0  0  0  0  0  0  0  0  0  0  0
    6.9843  -16.9515   23.5630 C   0  0  1  0  0  0  0  0  0  0  0  0
    7.4206  -18.4159   23.7178 C   0  0  0  0  0  0  0  0  0  0  0  0
    6.8415  -19.1243   25.2605 S   0  0  0  0  0  0  0  0  0  0  0  0
    7.3859  -16.2378   24.8078 C   0  0  0  0  0  0  0  0  0  0  0  0
    6.8887  -16.5157   25.9430 O   0  0  0  0  0  0  0  0  0  0  0  0
    6.0090  -11.8507   25.8301 C   0  0  0  0  0  0  0  0  0  0  0  0
    7.0879  -12.7462   25.2707 C   0  0  0  0  0  0  0  0  0  0  0  0
    7.7504  -13.4697   26.3973 C   0  0  2  0  0  0  0  0  0  0  0  0
    8.3849  -12.4582   27.3226 C   0  0  0  0  0  0  0  0  0  0  0  0
    8.7842  -14.4674   25.9243 C   0  0  2  0  0  0  0  0  0  0  0  0
    8.3550  -15.2035   24.7722 N   0  0  0  0  0  0  0  0  0  0  0  0
    9.1374  -15.3946   27.0193 C   0  0  0  0  0  0  0  0  0  0  0  0
    9.9305  -14.9948   28.0771 O   0  0  0  0  0  0  0  0  0  0  0  0
    8.7142  -16.5712   26.9984 O   0  0  0  0  0  0  0  0  0  0  0  0
  2  1  1  0
  3  2  2  0
  4  2  1  0
  5  6  1  1
  5  4  1  0
  7  8  2  0
  7  5  1  0
  9  7  1  0
 10  9  1  0
 10 13  1  0
 10 11  1  1
 12 11  1  0
 13 20  1  0
 13 14  2  0
 16 15  1  0
 17 16  1  0
 17 18  1  1
 19 17  1  0
 19 20  1  6
 21 22  1  0
 21 19  1  0
 23 21  2  0
M  END
$$$$
