NCI.pdb
     RDKit          3D

 23 22  0  0  1  0  0  0  0  0999 V2000
   12.2040  -17.9853   18.9437 N   0  0  0  0  0  0  0  0  0  0  0  0
   12.5119  -16.8870   19.7880 C   0  0  0  0  0  0  0  0  0  0  0  0
   13.6749  -16.4278   19.8036 O   0  0  0  0  0  0  0  0  0  0  0  0
   11.5006  -16.2486   20.6672 C   0  0  0  0  0  0  0  0  0  0  0  0
   10.1663  -16.9853   20.5786 C   0  0  2  0  0  0  0  0  0  0  0  0
    9.4153  -16.5800   19.4302 N   0  0  0  0  0  0  0  0  0  0  0  0
    9.4353  -16.6453   21.8502 C   0  0  0  0  0  0  0  0  0  0  0  0
    8.9265  -15.5080   22.0041 O   0  0  0  0  0  0  0  0  0  0  0  0
    9.2964  -17.5812   22.9037 N   0  0  0  0  0  0  0  0  0  0  0  0
    8.4602  -17.2527   24.0339 C   0  0  1  0  0  0  0  0  0  0  0  0
    7.7076  -18.4979   24.5258 C   0  0  0  0  0  0  0  0  0  0  0  0
    6.6806  -18.1362   25.9511 S   0  0  0  0  0  0  0  0  0  0  0  0
    9.2687  -16.7454   25.1782 C   0  0  0  0  0  0  0  0  0  0  0  0
   10.4526  -17.1448   25.4058 O   0  0  0  0  0  0  0  0  0  0  0  0
    7.2180  -12.2276   27.3968 C   0  0  0  0  0  0  0  0  0  0  0  0
    8.3944  -13.0116   26.8672 C   0  0  0  0  0  0  0  0  0  0  0  0
    8.7402  -14.0870   27.8447 C   0  0  2  0  0  0  0  0  0  0  0  0
    9.5959  -13.4958   28.9402 C   0  0  0  0  0  0  0  0  0  0  0  0
    9.4496  -15.2572   27.2002 C   0  0  2  0  0  0  0  0  0  0  0  0
    8.7382  -15.7810   26.0719 N   0  0  0  0  0  0  0  0  0  0  0  0
    9.6832  -16.3239   28.1958 C   0  0  0  0  0  0  0  0  0  0  0  0
   10.8102  -16.3329   28.9941 O   0  0  0  0  0  0  0  0  0  0  0  0
    8.8478  -17.2452   28.3273 O   0  0  0  0  0  0  0  0  0  0  0  0
  2  1  1  0
  3  2  2  0
  4  2  1  0
  5  6  1  6
  5  4  1  0
  7  8  2  0
  7  5  1  0
  9  7  1  0
 10  9  1  0
 10 13  1  0
 10 11  1  1
 12 11  1  0
 13 20  1  0
 13 14  2  0
 16 15  1  0
 17 16  1  0
 17 18  1  1
 19 17  1  0
 19 20  1  6
 21 22  1  0
 21 19  1  0
 23 21  2  0
M  END
$$$$
