NCI.pdb
     RDKit          3D

 23 22  0  0  1  0  0  0  0  0999 V2000
   12.7983  -17.5535   19.2159 N   0  0  0  0  0  0  0  0  0  0  0  0
   11.6264  -18.3275   19.4203 C   0  0  0  0  0  0  0  0  0  0  0  0
   11.3832  -19.2911   18.6612 O   0  0  0  0  0  0  0  0  0  0  0  0
   10.6612  -18.0409   20.5109 C   0  0  0  0  0  0  0  0  0  0  0  0
    9.3080  -17.6254   19.9387 C   0  0  2  0  0  0  0  0  0  0  0  0
    9.4449  -16.5925   18.9581 N   0  0  0  0  0  0  0  0  0  0  0  0
    8.5034  -17.1478   21.1182 C   0  0  0  0  0  0  0  0  0  0  0  0
    7.8639  -16.0695   21.0544 O   0  0  0  0  0  0  0  0  0  0  0  0
    8.4388  -17.8858   22.3250 N   0  0  0  0  0  0  0  0  0  0  0  0
    7.5792  -17.4246   23.3892 C   0  0  1  0  0  0  0  0  0  0  0  0
    6.9791  -18.6161   24.1502 C   0  0  0  0  0  0  0  0  0  0  0  0
    6.1468  -18.0969   25.6518 S   0  0  0  0  0  0  0  0  0  0  0  0
    8.3325  -16.6037   24.3786 C   0  0  0  0  0  0  0  0  0  0  0  0
    9.5445  -16.8388   24.6767 O   0  0  0  0  0  0  0  0  0  0  0  0
    5.6115  -12.0561   26.2632 C   0  0  0  0  0  0  0  0  0  0  0  0
    6.7334  -12.7865   25.5656 C   0  0  0  0  0  0  0  0  0  0  0  0
    7.4729  -13.6108   26.5682 C   0  0  2  0  0  0  0  0  0  0  0  0
    8.2518  -12.6911   27.4790 C   0  0  0  0  0  0  0  0  0  0  0  0
    8.3992  -14.6201   25.9268 C   0  0  2  0  0  0  0  0  0  0  0  0
    7.7148  -15.5101   25.0363 N   0  0  0  0  0  0  0  0  0  0  0  0
    9.1148  -15.3891   26.9660 C   0  0  0  0  0  0  0  0  0  0  0  0
   10.3392  -14.9775   27.4548 O   0  0  0  0  0  0  0  0  0  0  0  0
    8.6096  -16.4387   27.4211 O   0  0  0  0  0  0  0  0  0  0  0  0
  2  1  1  0
  3  2  2  0
  4  2  1  0
  5  6  1  6
  5  4  1  0
  7  8  2  0
  7  5  1  0
  9  7  1  0
 10  9  1  0
 10 13  1  0
 10 11  1  1
 12 11  1  0
 13 20  1  0
 13 14  2  0
 16 15  1  0
 17 16  1  0
 17 18  1  1
 19 17  1  0
 19 20  1  1
 21 22  1  0
 21 19  1  0
 23 21  2  0
M  END
$$$$
