KWT.pdb
     RDKit          3D

 31 32  0  0  1  0  0  0  0  0999 V2000
   29.3645  -25.5707  -17.3894 N   0  0  0  0  0  0  0  0  0  0  0  0
   29.1875  -24.1607  -17.2854 C   0  0  1  0  0  0  0  0  0  0  0  0
   29.5993  -23.3489  -18.4579 C   0  0  0  0  0  0  0  0  0  0  0  0
   31.0170  -22.9171  -18.5169 C   0  0  0  0  0  0  0  0  0  0  0  0
   32.0012  -23.9617  -18.0686 C   0  0  0  0  0  0  0  0  0  0  0  0
   33.0318  -24.1690  -19.1780 C   0  0  0  0  0  0  0  0  0  0  0  0
   34.1090  -23.2036  -19.0850 N   0  0  0  0  0  0  0  0  0  0  0  0
   27.7558  -23.8878  -16.9519 C   0  0  0  0  0  0  0  0  0  0  0  0
   26.8276  -24.5346  -17.5005 O   0  0  0  0  0  0  0  0  0  0  0  0
   27.4414  -22.8826  -16.0017 N   0  0  0  0  0  0  0  0  0  0  0  0
   26.0984  -22.5439  -15.6346 C   0  0  1  0  0  0  0  0  0  0  0  0
   25.9994  -21.9152  -14.2646 C   0  0  0  0  0  0  0  0  0  0  0  0
   24.6085  -21.6339  -13.8847 C   0  0  0  0  0  0  0  0  0  0  0  0
   24.0440  -20.4091  -13.5984 C   0  0  0  0  0  0  0  0  0  0  0  0
   22.7473  -20.6042  -13.2983 N   0  0  0  0  0  0  0  0  0  0  0  0
   22.4283  -21.9214  -13.3753 C   0  0  0  0  0  0  0  0  0  0  0  0
   21.2364  -22.5999  -13.1596 C   0  0  0  0  0  0  0  0  0  0  0  0
   21.2167  -23.9561  -13.3166 C   0  0  0  0  0  0  0  0  0  0  0  0
   22.3555  -24.6477  -13.6826 C   0  0  0  0  0  0  0  0  0  0  0  0
   23.5175  -23.9397  -13.8873 C   0  0  0  0  0  0  0  0  0  0  0  0
   23.5894  -22.5609  -13.7408 C   0  0  0  0  0  0  0  0  0  0  0  0
   25.4353  -21.7045  -16.6703 C   0  0  0  0  0  0  0  0  0  0  0  0
   26.0062  -20.6800  -17.1704 O   0  0  0  0  0  0  0  0  0  0  0  0
   24.5970  -21.9093  -20.1726 C   0  0  0  0  0  0  0  0  0  0  0  0
   23.2933  -21.7263  -19.4538 C   0  0  1  0  0  0  0  0  0  0  0  0
   22.6713  -22.9532  -19.3592 O   0  0  0  0  0  0  0  0  0  0  0  0
   23.4260  -21.1342  -18.0793 C   0  0  2  0  0  0  0  0  0  0  0  0
   24.1343  -21.9907  -17.1629 N   0  0  0  0  0  0  0  0  0  0  0  0
   22.1389  -20.6465  -17.5251 C   0  0  0  0  0  0  0  0  0  0  0  0
   21.5575  -21.1866  -16.5466 O   0  0  0  0  0  0  0  0  0  0  0  0
   21.4815  -19.5429  -18.0606 O   0  0  0  0  0  0  0  0  0  0  0  0
  2  1  1  6
  2  3  1  0
  4  3  1  0
  5  6  1  0
  5  4  1  0
  7  6  1  0
  8  2  1  0
  8  9  2  0
 10  8  1  0
 11 10  1  0
 11 12  1  1
 13 14  2  0
 13 12  1  0
 15 14  1  0
 16 21  2  0
 16 15  1  0
 17 16  1  0
 18 19  1  0
 18 17  2  0
 19 20  2  0
 20 21  1  0
 21 13  1  0
 22 11  1  0
 23 22  2  0
 25 24  1  1
 26 25  1  0
 27 25  1  0
 27 28  1  1
 28 22  1  0
 29 27  1  0
 30 29  2  0
 31 29  1  0
M  END
$$$$
