KWT.pdb
     RDKit          3D

 31 32  0  0  1  0  0  0  0  0999 V2000
   27.5475  -23.1990  -15.4402 N   0  0  0  0  0  0  0  0  0  0  0  0
   27.6208  -21.9018  -14.8554 C   0  0  1  0  0  0  0  0  0  0  0  0
   27.1396  -20.7686  -15.6846 C   0  0  0  0  0  0  0  0  0  0  0  0
   28.0545  -20.2655  -16.7381 C   0  0  0  0  0  0  0  0  0  0  0  0
   29.0552  -21.2774  -17.2235 C   0  0  0  0  0  0  0  0  0  0  0  0
   29.8693  -20.6536  -18.3567 C   0  0  0  0  0  0  0  0  0  0  0  0
   30.9811  -21.5023  -18.7370 N   0  0  0  0  0  0  0  0  0  0  0  0
   26.8881  -21.9292  -13.5524 C   0  0  0  0  0  0  0  0  0  0  0  0
   25.7655  -22.4863  -13.4512 O   0  0  0  0  0  0  0  0  0  0  0  0
   27.4699  -21.3161  -12.4131 N   0  0  0  0  0  0  0  0  0  0  0  0
   26.7727  -21.1457  -11.1730 C   0  0  1  0  0  0  0  0  0  0  0  0
   27.6500  -20.6022  -10.0699 C   0  0  0  0  0  0  0  0  0  0  0  0
   26.9276  -20.4848   -8.7961 C   0  0  0  0  0  0  0  0  0  0  0  0
   25.5663  -20.5540   -8.5895 C   0  0  0  0  0  0  0  0  0  0  0  0
   25.3328  -20.3963   -7.2741 N   0  0  0  0  0  0  0  0  0  0  0  0
   26.4960  -20.2239   -6.5959 C   0  0  0  0  0  0  0  0  0  0  0  0
   26.7616  -20.0271   -5.2475 C   0  0  0  0  0  0  0  0  0  0  0  0
   28.0597  -19.8830   -4.8495 C   0  0  0  0  0  0  0  0  0  0  0  0
   29.0947  -19.9306   -5.7635 C   0  0  0  0  0  0  0  0  0  0  0  0
   28.7911  -20.1273   -7.0911 C   0  0  0  0  0  0  0  0  0  0  0  0
   27.4881  -20.2794   -7.5462 C   0  0  0  0  0  0  0  0  0  0  0  0
   25.5364  -20.3325  -11.3389 C   0  0  0  0  0  0  0  0  0  0  0  0
   25.5808  -19.1085  -11.6935 O   0  0  0  0  0  0  0  0  0  0  0  0
   23.9149  -19.3367  -13.6475 C   0  0  0  0  0  0  0  0  0  0  0  0
   22.8009  -20.0269  -12.9179 C   0  0  1  0  0  0  0  0  0  0  0  0
   22.6314  -21.2808  -13.4659 O   0  0  0  0  0  0  0  0  0  0  0  0
   23.0248  -20.1622  -11.4384 C   0  0  2  0  0  0  0  0  0  0  0  0
   24.2394  -20.8657  -11.1144 N   0  0  0  0  0  0  0  0  0  0  0  0
   21.8454  -20.6974  -10.7143 C   0  0  0  0  0  0  0  0  0  0  0  0
   20.7113  -20.1493  -10.7375 O   0  0  0  0  0  0  0  0  0  0  0  0
   21.9191  -21.8586   -9.9507 O   0  0  0  0  0  0  0  0  0  0  0  0
  2  1  1  6
  2  3  1  0
  4  3  1  0
  5  6  1  0
  5  4  1  0
  7  6  1  0
  8  2  1  0
  8  9  2  0
 10  8  1  0
 11 10  1  0
 11 12  1  1
 13 14  2  0
 13 12  1  0
 15 14  1  0
 16 21  2  0
 16 15  1  0
 17 16  1  0
 18 19  1  0
 18 17  2  0
 19 20  2  0
 20 21  1  0
 21 13  1  0
 22 11  1  0
 23 22  2  0
 25 24  1  6
 26 25  1  0
 27 25  1  0
 27 28  1  6
 28 22  1  0
 29 27  1  0
 30 29  2  0
 31 29  1  0
M  END
$$$$
