KWT.pdb
     RDKit          3D

 31 32  0  0  1  0  0  0  0  0999 V2000
   29.4660  -21.8317  -15.0540 N   0  0  0  0  0  0  0  0  0  0  0  0
   28.2536  -21.1000  -15.2118 C   0  0  1  0  0  0  0  0  0  0  0  0
   27.4699  -21.3664  -16.4439 C   0  0  0  0  0  0  0  0  0  0  0  0
   28.1405  -21.1063  -17.7410 C   0  0  0  0  0  0  0  0  0  0  0  0
   29.5598  -21.5974  -17.8133 C   0  0  0  0  0  0  0  0  0  0  0  0
   30.1636  -21.1502  -19.1442 C   0  0  0  0  0  0  0  0  0  0  0  0
   29.5380  -21.8282  -20.2621 N   0  0  0  0  0  0  0  0  0  0  0  0
   27.4023  -21.3308  -14.0045 C   0  0  0  0  0  0  0  0  0  0  0  0
   26.2171  -21.7357  -14.1145 O   0  0  0  0  0  0  0  0  0  0  0  0
   27.9417  -21.0882  -12.7152 N   0  0  0  0  0  0  0  0  0  0  0  0
   27.1715  -21.1911  -11.5113 C   0  0  1  0  0  0  0  0  0  0  0  0
   27.9523  -20.8144  -10.2743 C   0  0  0  0  0  0  0  0  0  0  0  0
   27.0885  -20.6856   -9.0931 C   0  0  0  0  0  0  0  0  0  0  0  0
   25.7437  -20.9738   -8.9967 C   0  0  0  0  0  0  0  0  0  0  0  0
   25.3478  -20.7134   -7.7377 N   0  0  0  0  0  0  0  0  0  0  0  0
   26.3865  -20.2602   -6.9904 C   0  0  0  0  0  0  0  0  0  0  0  0
   26.4697  -19.8685   -5.6610 C   0  0  0  0  0  0  0  0  0  0  0  0
   27.6752  -19.4504   -5.1752 C   0  0  0  0  0  0  0  0  0  0  0  0
   28.7954  -19.4145   -5.9833 C   0  0  0  0  0  0  0  0  0  0  0  0
   28.6727  -19.8106   -7.2954 C   0  0  0  0  0  0  0  0  0  0  0  0
   27.4698  -20.2438   -7.8370 C   0  0  0  0  0  0  0  0  0  0  0  0
   25.8940  -20.4317  -11.6036 C   0  0  0  0  0  0  0  0  0  0  0  0
   25.8743  -19.1600  -11.6938 O   0  0  0  0  0  0  0  0  0  0  0  0
   21.6490  -19.8280  -13.6039 C   0  0  0  0  0  0  0  0  0  0  0  0
   22.9667  -20.4798  -13.3062 C   0  0  1  0  0  0  0  0  0  0  0  0
   23.9314  -19.8956  -14.0994 O   0  0  0  0  0  0  0  0  0  0  0  0
   23.3889  -20.3857  -11.8673 C   0  0  2  0  0  0  0  0  0  0  0  0
   24.6263  -21.0719  -11.5973 N   0  0  0  0  0  0  0  0  0  0  0  0
   22.3122  -20.7558  -10.9158 C   0  0  0  0  0  0  0  0  0  0  0  0
   22.2969  -21.8406  -10.2754 O   0  0  0  0  0  0  0  0  0  0  0  0
   21.2328  -19.9134  -10.6666 O   0  0  0  0  0  0  0  0  0  0  0  0
  2  1  1  1
  2  3  1  0
  4  3  1  0
  5  6  1  0
  5  4  1  0
  7  6  1  0
  8  2  1  0
  8  9  2  0
 10  8  1  0
 11 10  1  0
 11 12  1  1
 13 14  2  0
 13 12  1  0
 15 14  1  0
 16 21  2  0
 16 15  1  0
 17 16  1  0
 18 19  1  0
 18 17  2  0
 19 20  2  0
 20 21  1  0
 21 13  1  0
 22 11  1  0
 23 22  2  0
 25 24  1  1
 26 25  1  0
 27 25  1  0
 27 28  1  6
 28 22  1  0
 29 27  1  0
 30 29  2  0
 31 29  1  0
M  END
$$$$
