KWT.pdb
     RDKit          3D

 31 32  0  0  1  0  0  0  0  0999 V2000
   29.2413  -23.1693  -17.3649 N   0  0  0  0  0  0  0  0  0  0  0  0
   28.5116  -21.9499  -17.2616 C   0  0  1  0  0  0  0  0  0  0  0  0
   27.6194  -21.6086  -18.3978 C   0  0  0  0  0  0  0  0  0  0  0  0
   28.1093  -21.9268  -19.7611 C   0  0  0  0  0  0  0  0  0  0  0  0
   29.4419  -21.3172  -20.0978 C   0  0  0  0  0  0  0  0  0  0  0  0
   29.7034  -21.5103  -21.5912 C   0  0  0  0  0  0  0  0  0  0  0  0
   29.9884  -22.8970  -21.9022 N   0  0  0  0  0  0  0  0  0  0  0  0
   27.7301  -21.9739  -15.9872 C   0  0  0  0  0  0  0  0  0  0  0  0
   26.8817  -22.8745  -15.7636 O   0  0  0  0  0  0  0  0  0  0  0  0
   27.9501  -20.9636  -15.0161 N   0  0  0  0  0  0  0  0  0  0  0  0
   27.2117  -20.8800  -13.7910 C   0  0  1  0  0  0  0  0  0  0  0  0
   27.8295  -19.9319  -12.7903 C   0  0  0  0  0  0  0  0  0  0  0  0
   27.2002  -20.0375  -11.4671 C   0  0  0  0  0  0  0  0  0  0  0  0
   25.9158  -19.6822  -11.1137 C   0  0  0  0  0  0  0  0  0  0  0  0
   25.7529  -19.9444   -9.8044 N   0  0  0  0  0  0  0  0  0  0  0  0
   26.8887  -20.4637   -9.2724 C   0  0  0  0  0  0  0  0  0  0  0  0
   27.2013  -20.8842   -7.9868 C   0  0  0  0  0  0  0  0  0  0  0  0
   28.4525  -21.3737   -7.7434 C   0  0  0  0  0  0  0  0  0  0  0  0
   29.3951  -21.4526   -8.7506 C   0  0  0  0  0  0  0  0  0  0  0  0
   29.0472  -21.0260  -10.0117 C   0  0  0  0  0  0  0  0  0  0  0  0
   27.7889  -20.5207  -10.3103 C   0  0  0  0  0  0  0  0  0  0  0  0
   25.7762  -20.5640  -14.0291 C   0  0  0  0  0  0  0  0  0  0  0  0
   25.3936  -19.9144  -15.0574 O   0  0  0  0  0  0  0  0  0  0  0  0
   23.7713  -21.0959  -15.8523 C   0  0  0  0  0  0  0  0  0  0  0  0
   22.8903  -21.3927  -14.6752 C   0  0  1  0  0  0  0  0  0  0  0  0
   22.8273  -22.7603  -14.5114 O   0  0  0  0  0  0  0  0  0  0  0  0
   23.3474  -20.7632  -13.3898 C   0  0  2  0  0  0  0  0  0  0  0  0
   24.7504  -20.9639  -13.1320 N   0  0  0  0  0  0  0  0  0  0  0  0
   22.4972  -21.1213  -12.2278 C   0  0  0  0  0  0  0  0  0  0  0  0
   21.2697  -20.8464  -12.1571 O   0  0  0  0  0  0  0  0  0  0  0  0
   23.0109  -21.7948  -11.1236 O   0  0  0  0  0  0  0  0  0  0  0  0
  2  1  1  6
  2  3  1  0
  4  3  1  0
  5  6  1  0
  5  4  1  0
  7  6  1  0
  8  2  1  0
  8  9  2  0
 10  8  1  0
 11 10  1  0
 11 12  1  1
 13 14  2  0
 13 12  1  0
 15 14  1  0
 16 21  2  0
 16 15  1  0
 17 16  1  0
 18 19  1  0
 18 17  2  0
 19 20  2  0
 20 21  1  0
 21 13  1  0
 22 11  1  0
 23 22  2  0
 25 24  1  6
 26 25  1  0
 27 25  1  0
 27 28  1  1
 28 22  1  0
 29 27  1  0
 30 29  2  0
 31 29  1  0
M  END
$$$$
