KWT.pdb
     RDKit          3D

 31 32  0  0  1  0  0  0  0  0999 V2000
   28.1674  -19.2930  -13.8509 N   0  0  0  0  0  0  0  0  0  0  0  0
   27.5866  -20.4850  -14.3724 C   0  0  1  0  0  0  0  0  0  0  0  0
   28.5189  -21.4776  -14.9632 C   0  0  0  0  0  0  0  0  0  0  0  0
   29.4550  -20.9892  -16.0048 C   0  0  0  0  0  0  0  0  0  0  0  0
   28.7833  -20.4597  -17.2414 C   0  0  0  0  0  0  0  0  0  0  0  0
   29.8607  -19.9954  -18.2210 C   0  0  0  0  0  0  0  0  0  0  0  0
   29.2766  -19.4928  -19.4487 N   0  0  0  0  0  0  0  0  0  0  0  0
   26.7743  -21.1258  -13.2931 C   0  0  0  0  0  0  0  0  0  0  0  0
   26.3491  -22.3029  -13.4136 O   0  0  0  0  0  0  0  0  0  0  0  0
   26.4792  -20.3927  -12.1151 N   0  0  0  0  0  0  0  0  0  0  0  0
   25.4931  -20.8060  -11.1612 C   0  0  1  0  0  0  0  0  0  0  0  0
   25.7211  -20.2269   -9.7847 C   0  0  0  0  0  0  0  0  0  0  0  0
   26.9874  -20.6828   -9.1959 C   0  0  0  0  0  0  0  0  0  0  0  0
   27.9158  -21.5376   -9.7510 C   0  0  0  0  0  0  0  0  0  0  0  0
   28.9256  -21.6869   -8.8750 N   0  0  0  0  0  0  0  0  0  0  0  0
   28.7004  -20.9584   -7.7519 C   0  0  0  0  0  0  0  0  0  0  0  0
   29.4424  -20.7939   -6.5901 C   0  0  0  0  0  0  0  0  0  0  0  0
   28.9529  -19.9796   -5.6096 C   0  0  0  0  0  0  0  0  0  0  0  0
   27.7440  -19.3282   -5.7619 C   0  0  0  0  0  0  0  0  0  0  0  0
   27.0379  -19.5165   -6.9278 C   0  0  0  0  0  0  0  0  0  0  0  0
   27.4923  -20.3337   -7.9543 C   0  0  0  0  0  0  0  0  0  0  0  0
   24.1095  -20.5409  -11.6434 C   0  0  0  0  0  0  0  0  0  0  0  0
   23.6994  -19.3588  -11.8890 O   0  0  0  0  0  0  0  0  0  0  0  0
   20.2489  -22.1507  -14.2260 C   0  0  0  0  0  0  0  0  0  0  0  0
   21.5847  -22.3462  -13.5724 C   0  0  1  0  0  0  0  0  0  0  0  0
   22.5626  -22.2424  -14.5389 O   0  0  0  0  0  0  0  0  0  0  0  0
   21.8783  -21.3710  -12.4678 C   0  0  2  0  0  0  0  0  0  0  0  0
   23.1667  -21.5809  -11.8588 N   0  0  0  0  0  0  0  0  0  0  0  0
   20.7852  -21.2706  -11.4695 C   0  0  0  0  0  0  0  0  0  0  0  0
   19.6306  -20.8500  -11.7470 O   0  0  0  0  0  0  0  0  0  0  0  0
   20.9698  -21.6410  -10.1408 O   0  0  0  0  0  0  0  0  0  0  0  0
  2  1  1  1
  2  3  1  0
  4  3  1  0
  5  6  1  0
  5  4  1  0
  7  6  1  0
  8  2  1  0
  8  9  2  0
 10  8  1  0
 11 10  1  0
 11 12  1  1
 13 14  2  0
 13 12  1  0
 15 14  1  0
 16 21  2  0
 16 15  1  0
 17 16  1  0
 18 19  1  0
 18 17  2  0
 19 20  2  0
 20 21  1  0
 21 13  1  0
 22 11  1  0
 23 22  2  0
 25 24  1  6
 26 25  1  0
 27 25  1  0
 27 28  1  1
 28 22  1  0
 29 27  1  0
 30 29  2  0
 31 29  1  0
M  END
$$$$
