KWT.pdb
     RDKit          3D

 31 32  0  0  1  0  0  0  0  0999 V2000
   23.4987  -20.1124  -16.9159 N   0  0  0  0  0  0  0  0  0  0  0  0
   23.3666  -19.5561  -15.6108 C   0  0  1  0  0  0  0  0  0  0  0  0
   24.4510  -19.8600  -14.6437 C   0  0  0  0  0  0  0  0  0  0  0  0
   25.1845  -21.1356  -14.8296 C   0  0  0  0  0  0  0  0  0  0  0  0
   24.3432  -22.3669  -14.6371 C   0  0  0  0  0  0  0  0  0  0  0  0
   25.1555  -23.5858  -15.0733 C   0  0  0  0  0  0  0  0  0  0  0  0
   24.3848  -24.8068  -14.9460 N   0  0  0  0  0  0  0  0  0  0  0  0
   23.1994  -18.0762  -15.7430 C   0  0  0  0  0  0  0  0  0  0  0  0
   23.1186  -17.3394  -14.7274 O   0  0  0  0  0  0  0  0  0  0  0  0
   23.1305  -17.4958  -17.0355 N   0  0  0  0  0  0  0  0  0  0  0  0
   23.0877  -16.0809  -17.2579 C   0  0  1  0  0  0  0  0  0  0  0  0
   24.1327  -15.6035  -18.2387 C   0  0  0  0  0  0  0  0  0  0  0  0
   25.4886  -15.6684  -17.6771 C   0  0  0  0  0  0  0  0  0  0  0  0
   26.4176  -16.6754  -17.8311 C   0  0  0  0  0  0  0  0  0  0  0  0
   27.5257  -16.3320  -17.1501 N   0  0  0  0  0  0  0  0  0  0  0  0
   27.3655  -15.1270  -16.5460 C   0  0  0  0  0  0  0  0  0  0  0  0
   28.2139  -14.3703  -15.7490 C   0  0  0  0  0  0  0  0  0  0  0  0
   27.7693  -13.1700  -15.2739 C   0  0  0  0  0  0  0  0  0  0  0  0
   26.5019  -12.7096  -15.5751 C   0  0  0  0  0  0  0  0  0  0  0  0
   25.6906  -13.4883  -16.3681 C   0  0  0  0  0  0  0  0  0  0  0  0
   26.0956  -14.7156  -16.8758 C   0  0  0  0  0  0  0  0  0  0  0  0
   21.7251  -15.6212  -17.6441 C   0  0  0  0  0  0  0  0  0  0  0  0
   20.9111  -16.3814  -18.2647 O   0  0  0  0  0  0  0  0  0  0  0  0
   19.1341  -16.2923  -17.1293 C   0  0  0  0  0  0  0  0  0  0  0  0
   18.9075  -14.8394  -16.8333 C   0  0  1  0  0  0  0  0  0  0  0  0
   18.9870  -14.6545  -15.4692 O   0  0  0  0  0  0  0  0  0  0  0  0
   19.8767  -13.9142  -17.5130 C   0  0  2  0  0  0  0  0  0  0  0  0
   21.2501  -14.3161  -17.3471 N   0  0  0  0  0  0  0  0  0  0  0  0
   19.6561  -12.4858  -17.1775 C   0  0  0  0  0  0  0  0  0  0  0  0
   20.5065  -11.7762  -16.5771 O   0  0  0  0  0  0  0  0  0  0  0  0
   18.4754  -11.8286  -17.5106 O   0  0  0  0  0  0  0  0  0  0  0  0
  2  1  1  6
  2  3  1  0
  4  3  1  0
  5  6  1  0
  5  4  1  0
  7  6  1  0
  8  2  1  0
  8  9  2  0
 10  8  1  0
 11 10  1  0
 11 12  1  6
 13 14  2  0
 13 12  1  0
 15 14  1  0
 16 21  2  0
 16 15  1  0
 17 16  1  0
 18 19  1  0
 18 17  2  0
 19 20  2  0
 20 21  1  0
 21 13  1  0
 22 11  1  0
 23 22  2  0
 25 24  1  1
 26 25  1  0
 27 25  1  0
 27 28  1  1
 28 22  1  0
 29 27  1  0
 30 29  2  0
 31 29  1  0
M  END
$$$$
