KWT.pdb
     RDKit          3D

 31 32  0  0  1  0  0  0  0  0999 V2000
   28.6024  -22.0877  -14.8704 N   0  0  0  0  0  0  0  0  0  0  0  0
   27.2327  -22.0738  -15.2626 C   0  0  1  0  0  0  0  0  0  0  0  0
   26.7962  -23.1409  -16.1975 C   0  0  0  0  0  0  0  0  0  0  0  0
   27.0003  -22.8957  -17.6460 C   0  0  0  0  0  0  0  0  0  0  0  0
   28.4092  -23.1222  -18.1195 C   0  0  0  0  0  0  0  0  0  0  0  0
   28.4938  -22.7443  -19.5980 C   0  0  0  0  0  0  0  0  0  0  0  0
   29.8471  -22.8765  -20.1001 N   0  0  0  0  0  0  0  0  0  0  0  0
   26.3880  -22.0977  -14.0291 C   0  0  0  0  0  0  0  0  0  0  0  0
   25.7826  -23.1422  -13.6779 O   0  0  0  0  0  0  0  0  0  0  0  0
   26.2684  -20.9224  -13.2440 N   0  0  0  0  0  0  0  0  0  0  0  0
   25.4037  -20.8251  -12.1055 C   0  0  1  0  0  0  0  0  0  0  0  0
   25.9363  -19.9029  -11.0342 C   0  0  0  0  0  0  0  0  0  0  0  0
   27.0955  -20.4763  -10.3374 C   0  0  0  0  0  0  0  0  0  0  0  0
   28.1164  -21.2289  -10.8778 C   0  0  0  0  0  0  0  0  0  0  0  0
   28.9704  -21.5495   -9.8891 N   0  0  0  0  0  0  0  0  0  0  0  0
   28.5514  -21.0344   -8.7051 C   0  0  0  0  0  0  0  0  0  0  0  0
   29.0891  -21.0947   -7.4266 C   0  0  0  0  0  0  0  0  0  0  0  0
   28.4316  -20.4656   -6.4087 C   0  0  0  0  0  0  0  0  0  0  0  0
   27.2538  -19.7802   -6.6373 C   0  0  0  0  0  0  0  0  0  0  0  0
   26.7526  -19.7431   -7.9183 C   0  0  0  0  0  0  0  0  0  0  0  0
   27.3832  -20.3662   -8.9870 C   0  0  0  0  0  0  0  0  0  0  0  0
   24.0126  -20.4644  -12.4950 C   0  0  0  0  0  0  0  0  0  0  0  0
   23.7323  -19.3332  -13.0123 O   0  0  0  0  0  0  0  0  0  0  0  0
   21.8952  -21.5969  -15.0871 C   0  0  0  0  0  0  0  0  0  0  0  0
   21.0529  -21.7646  -13.8574 C   0  0  1  0  0  0  0  0  0  0  0  0
   20.9837  -23.1083  -13.5559 O   0  0  0  0  0  0  0  0  0  0  0  0
   21.5596  -21.0161  -12.6572 C   0  0  2  0  0  0  0  0  0  0  0  0
   22.9183  -21.3519  -12.3162 N   0  0  0  0  0  0  0  0  0  0  0  0
   20.6443  -21.0898  -11.4918 C   0  0  0  0  0  0  0  0  0  0  0  0
   20.9838  -21.5598  -10.3734 O   0  0  0  0  0  0  0  0  0  0  0  0
   19.3303  -20.6365  -11.5621 O   0  0  0  0  0  0  0  0  0  0  0  0
  2  1  1  1
  2  3  1  0
  4  3  1  0
  5  6  1  0
  5  4  1  0
  7  6  1  0
  8  2  1  0
  8  9  2  0
 10  8  1  0
 11 10  1  0
 11 12  1  1
 13 14  2  0
 13 12  1  0
 15 14  1  0
 16 21  2  0
 16 15  1  0
 17 16  1  0
 18 19  1  0
 18 17  2  0
 19 20  2  0
 20 21  1  0
 21 13  1  0
 22 11  1  0
 23 22  2  0
 25 24  1  6
 26 25  1  0
 27 25  1  0
 27 28  1  1
 28 22  1  0
 29 27  1  0
 30 29  2  0
 31 29  1  0
M  END
$$$$
