MWM.pdb
     RDKit          3D

 31 32  0  0  1  0  0  0  0  0999 V2000
   34.4445  -35.3101  -15.7113 C   0  0  0  0  0  0  0  0  0  0  0  0
   32.9817  -35.3508  -16.7827 S   0  0  0  0  0  0  0  0  0  0  0  0
   31.4988  -34.8867  -15.8411 C   0  0  0  0  0  0  0  0  0  0  0  0
   31.3972  -33.3606  -15.7675 C   0  0  0  0  0  0  0  0  0  0  0  0
   30.8737  -32.8104  -17.0797 C   0  0  2  0  0  0  0  0  0  0  0  0
   31.8847  -32.0693  -17.7879 N   0  0  0  0  0  0  0  0  0  0  0  0
   29.7051  -31.9426  -16.7286 C   0  0  0  0  0  0  0  0  0  0  0  0
   28.7778  -32.3346  -15.9985 O   0  0  0  0  0  0  0  0  0  0  0  0
   29.6610  -30.6457  -17.2432 N   0  0  0  0  0  0  0  0  0  0  0  0
   28.6407  -29.6355  -16.8851 C   0  0  1  0  0  0  0  0  0  0  0  0
   29.1844  -28.2825  -17.0834 C   0  0  0  0  0  0  0  0  0  0  0  0
   28.2599  -27.1547  -16.9255 C   0  0  0  0  0  0  0  0  0  0  0  0
   27.1871  -27.1423  -16.0293 C   0  0  0  0  0  0  0  0  0  0  0  0
   26.5703  -25.9684  -16.1962 N   0  0  0  0  0  0  0  0  0  0  0  0
   27.1665  -25.2184  -17.1355 C   0  0  0  0  0  0  0  0  0  0  0  0
   26.8922  -23.9393  -17.6325 C   0  0  0  0  0  0  0  0  0  0  0  0
   27.7318  -23.4264  -18.6176 C   0  0  0  0  0  0  0  0  0  0  0  0
   28.7839  -24.1842  -19.0597 C   0  0  0  0  0  0  0  0  0  0  0  0
   29.0736  -25.4484  -18.5851 C   0  0  0  0  0  0  0  0  0  0  0  0
   28.2350  -25.9416  -17.6125 C   0  0  0  0  0  0  0  0  0  0  0  0
   27.3993  -30.0541  -17.4997 C   0  0  0  0  0  0  0  0  0  0  0  0
   27.4267  -30.5053  -18.7109 O   0  0  0  0  0  0  0  0  0  0  0  0
   21.8171  -34.1923  -19.3042 C   0  0  0  0  0  0  0  0  0  0  0  0
   22.0385  -32.6641  -18.3562 S   0  0  0  0  0  0  0  0  0  0  0  0
   23.6635  -32.6810  -17.5864 C   0  0  0  0  0  0  0  0  0  0  0  0
   24.0731  -31.4031  -16.9343 C   0  0  0  0  0  0  0  0  0  0  0  0
   24.9026  -30.4668  -17.7046 C   0  0  2  0  0  0  0  0  0  0  0  0
   26.0931  -30.0479  -16.9281 N   0  0  0  0  0  0  0  0  0  0  0  0
   24.2865  -29.3013  -18.3345 C   0  0  0  0  0  0  0  0  0  0  0  0
   23.7768  -29.2737  -19.6073 O   0  0  0  0  0  0  0  0  0  0  0  0
   24.1997  -28.1994  -17.6898 O   0  0  0  0  0  0  0  0  0  0  0  0
  1  2  1  0
  3  2  1  0
  4  3  1  0
  5  4  1  0
  5  6  1  1
  7  5  1  0
  8  7  2  0
  9  7  1  0
 10  9  1  0
 11 12  1  0
 10 11  1  6
 12 13  2  0
 12 20  1  0
 13 14  1  0
 14 15  1  0
 15 16  2  0
 16 17  1  0
 18 17  2  0
 19 18  1  0
 20 19  2  0
 20 15  1  0
 21 10  1  0
 21 22  2  0
 23 24  1  0
 24 25  1  0
 25 26  1  0
 27 26  1  1
 27 28  1  0
 28 21  1  0
 29 27  1  0
 30 29  1  0
 31 29  2  0
M  END
$$$$
