MWM.pdb
     RDKit          3D

 31 32  0  0  1  0  0  0  0  0999 V2000
   24.7215  -13.4731  -18.5567 C   0  0  0  0  0  0  0  0  0  0  0  0
   25.0761  -14.9571  -17.5761 S   0  0  0  0  0  0  0  0  0  0  0  0
   23.8993  -16.2789  -17.9869 C   0  0  0  0  0  0  0  0  0  0  0  0
   24.1455  -17.4838  -17.0745 C   0  0  0  0  0  0  0  0  0  0  0  0
   25.5719  -17.9728  -17.2325 C   0  0  2  0  0  0  0  0  0  0  0  0
   25.8307  -18.4374  -18.5705 N   0  0  0  0  0  0  0  0  0  0  0  0
   25.7474  -19.0703  -16.2293 C   0  0  0  0  0  0  0  0  0  0  0  0
   25.3797  -20.2384  -16.4463 O   0  0  0  0  0  0  0  0  0  0  0  0
   26.3472  -18.7644  -15.0065 N   0  0  0  0  0  0  0  0  0  0  0  0
   26.5927  -19.7437  -13.9244 C   0  0  1  0  0  0  0  0  0  0  0  0
   27.6890  -19.2734  -13.0627 C   0  0  0  0  0  0  0  0  0  0  0  0
   28.0494  -20.1103  -11.9133 C   0  0  0  0  0  0  0  0  0  0  0  0
   28.9366  -21.1887  -11.9785 C   0  0  0  0  0  0  0  0  0  0  0  0
   28.9847  -21.7118  -10.7496 N   0  0  0  0  0  0  0  0  0  0  0  0
   28.1932  -21.0497   -9.8919 C   0  0  0  0  0  0  0  0  0  0  0  0
   27.9345  -21.2197   -8.5272 C   0  0  0  0  0  0  0  0  0  0  0  0
   27.0548  -20.3326   -7.9129 C   0  0  0  0  0  0  0  0  0  0  0  0
   26.4807  -19.3370   -8.6584 C   0  0  0  0  0  0  0  0  0  0  0  0
   26.7201  -19.1503  -10.0057 C   0  0  0  0  0  0  0  0  0  0  0  0
   27.5910  -20.0347  -10.5986 C   0  0  0  0  0  0  0  0  0  0  0  0
   25.3007  -20.1055  -13.3824 C   0  0  0  0  0  0  0  0  0  0  0  0
   24.4314  -19.1720  -13.1721 O   0  0  0  0  0  0  0  0  0  0  0  0
   24.1483  -22.3340   -7.4864 C   0  0  0  0  0  0  0  0  0  0  0  0
   23.1445  -20.9748   -8.1407 S   0  0  0  0  0  0  0  0  0  0  0  0
   22.7273  -21.3253   -9.8544 C   0  0  0  0  0  0  0  0  0  0  0  0
   23.8790  -21.3283  -10.8028 C   0  0  0  0  0  0  0  0  0  0  0  0
   23.6084  -21.5999  -12.2209 C   0  0  2  0  0  0  0  0  0  0  0  0
   24.8269  -21.4064  -13.0417 N   0  0  0  0  0  0  0  0  0  0  0  0
   22.4648  -20.9682  -12.8749 C   0  0  0  0  0  0  0  0  0  0  0  0
   22.4449  -20.5332  -14.1752 O   0  0  0  0  0  0  0  0  0  0  0  0
   21.3805  -20.7804  -12.2219 O   0  0  0  0  0  0  0  0  0  0  0  0
  1  2  1  0
  3  2  1  0
  4  3  1  0
  5  4  1  0
  5  6  1  6
  7  5  1  0
  8  7  2  0
  9  7  1  0
 10  9  1  0
 11 12  1  0
 10 11  1  1
 12 13  2  0
 12 20  1  0
 13 14  1  0
 14 15  1  0
 15 16  2  0
 16 17  1  0
 18 17  2  0
 19 18  1  0
 20 19  2  0
 20 15  1  0
 21 10  1  0
 21 22  2  0
 23 24  1  0
 24 25  1  0
 25 26  1  0
 27 26  1  1
 27 28  1  0
 28 21  1  0
 29 27  1  0
 30 29  1  0
 31 29  2  0
M  END
$$$$
