MWM.pdb
     RDKit          3D

 31 32  0  0  1  0  0  0  0  0999 V2000
   29.0806  -26.4946  -19.0191 C   0  0  0  0  0  0  0  0  0  0  0  0
   28.2187  -26.2004  -17.4507 S   0  0  0  0  0  0  0  0  0  0  0  0
   28.0012  -24.4175  -17.1769 C   0  0  0  0  0  0  0  0  0  0  0  0
   27.1716  -24.1929  -15.9096 C   0  0  0  0  0  0  0  0  0  0  0  0
   26.8234  -22.7239  -15.7696 C   0  0  2  0  0  0  0  0  0  0  0  0
   27.9985  -21.8926  -15.8001 N   0  0  0  0  0  0  0  0  0  0  0  0
   26.0947  -22.5928  -14.4682 C   0  0  0  0  0  0  0  0  0  0  0  0
   25.5318  -23.5557  -13.9180 O   0  0  0  0  0  0  0  0  0  0  0  0
   26.0494  -21.3399  -13.8542 N   0  0  0  0  0  0  0  0  0  0  0  0
   25.2097  -21.0106  -12.6810 C   0  0  1  0  0  0  0  0  0  0  0  0
   25.8987  -20.0250  -11.8329 C   0  0  0  0  0  0  0  0  0  0  0  0
   27.0699  -20.4856  -11.0796 C   0  0  0  0  0  0  0  0  0  0  0  0
   28.1740  -21.1174  -11.6595 C   0  0  0  0  0  0  0  0  0  0  0  0
   29.0107  -21.4077  -10.6585 N   0  0  0  0  0  0  0  0  0  0  0  0
   28.5290  -21.0089   -9.4713 C   0  0  0  0  0  0  0  0  0  0  0  0
   29.0458  -21.0835   -8.1730 C   0  0  0  0  0  0  0  0  0  0  0  0
   28.2871  -20.5486   -7.1354 C   0  0  0  0  0  0  0  0  0  0  0  0
   27.0759  -19.9754   -7.4200 C   0  0  0  0  0  0  0  0  0  0  0  0
   26.5454  -19.8910   -8.6923 C   0  0  0  0  0  0  0  0  0  0  0  0
   27.3064  -20.4241   -9.7068 C   0  0  0  0  0  0  0  0  0  0  0  0
   23.8678  -20.7849  -13.1734 C   0  0  0  0  0  0  0  0  0  0  0  0
   23.6289  -20.9641  -14.4312 O   0  0  0  0  0  0  0  0  0  0  0  0
   20.1099  -25.2391  -14.6288 C   0  0  0  0  0  0  0  0  0  0  0  0
   19.9022  -23.4733  -14.2798 S   0  0  0  0  0  0  0  0  0  0  0  0
   20.1380  -23.1910  -12.5196 C   0  0  0  0  0  0  0  0  0  0  0  0
   21.3228  -22.3581  -12.1609 C   0  0  0  0  0  0  0  0  0  0  0  0
   21.3859  -20.9841  -12.6770 C   0  0  2  0  0  0  0  0  0  0  0  0
   22.7183  -20.3841  -12.4312 N   0  0  0  0  0  0  0  0  0  0  0  0
   20.3390  -20.0281  -12.3240 C   0  0  0  0  0  0  0  0  0  0  0  0
   19.3923  -19.5443  -13.1901 O   0  0  0  0  0  0  0  0  0  0  0  0
   20.2650  -19.5757  -11.1293 O   0  0  0  0  0  0  0  0  0  0  0  0
  1  2  1  0
  3  2  1  0
  4  3  1  0
  5  4  1  0
  5  6  1  1
  7  5  1  0
  8  7  2  0
  9  7  1  0
 10  9  1  0
 11 12  1  0
 10 11  1  6
 12 13  2  0
 12 20  1  0
 13 14  1  0
 14 15  1  0
 15 16  2  0
 16 17  1  0
 18 17  2  0
 19 18  1  0
 20 19  2  0
 20 15  1  0
 21 10  1  0
 21 22  2  0
 23 24  1  0
 24 25  1  0
 25 26  1  0
 27 26  1  1
 27 28  1  0
 28 21  1  0
 29 27  1  0
 30 29  1  0
 31 29  2  0
M  END
$$$$
