MWM.pdb
     RDKit          3D

 31 32  0  0  1  0  0  0  0  0999 V2000
   26.9401  -19.3962  -20.3656 C   0  0  0  0  0  0  0  0  0  0  0  0
   28.2021  -20.6984  -20.3973 S   0  0  0  0  0  0  0  0  0  0  0  0
   27.4664  -22.2987  -19.9515 C   0  0  0  0  0  0  0  0  0  0  0  0
   26.9134  -22.2271  -18.5254 C   0  0  0  0  0  0  0  0  0  0  0  0
   28.0530  -22.2193  -17.5255 C   0  0  2  0  0  0  0  0  0  0  0  0
   29.0175  -23.2500  -17.8089 N   0  0  0  0  0  0  0  0  0  0  0  0
   27.4254  -22.4131  -16.1800 C   0  0  0  0  0  0  0  0  0  0  0  0
   27.2624  -23.5379  -15.6749 O   0  0  0  0  0  0  0  0  0  0  0  0
   27.0098  -21.2849  -15.4707 N   0  0  0  0  0  0  0  0  0  0  0  0
   26.4451  -21.3147  -14.1031 C   0  0  1  0  0  0  0  0  0  0  0  0
   26.9954  -20.2041  -13.3099 C   0  0  0  0  0  0  0  0  0  0  0  0
   27.3713  -20.4893  -11.9210 C   0  0  0  0  0  0  0  0  0  0  0  0
   28.6329  -20.9476  -11.5304 C   0  0  0  0  0  0  0  0  0  0  0  0
   28.5794  -21.1150  -10.2056 N   0  0  0  0  0  0  0  0  0  0  0  0
   27.3741  -20.7975   -9.7087 C   0  0  0  0  0  0  0  0  0  0  0  0
   26.8626  -20.8005   -8.4062 C   0  0  0  0  0  0  0  0  0  0  0  0
   25.5458  -20.3887   -8.2197 C   0  0  0  0  0  0  0  0  0  0  0  0
   24.8070  -20.0002   -9.3059 C   0  0  0  0  0  0  0  0  0  0  0  0
   25.2897  -19.9898  -10.5999 C   0  0  0  0  0  0  0  0  0  0  0  0
   26.5921  -20.3995  -10.7681 C   0  0  0  0  0  0  0  0  0  0  0  0
   25.0190  -21.5181  -14.2404 C   0  0  0  0  0  0  0  0  0  0  0  0
   24.3763  -20.8336  -15.1291 O   0  0  0  0  0  0  0  0  0  0  0  0
   20.7641  -25.7637  -15.9385 C   0  0  0  0  0  0  0  0  0  0  0  0
   20.0931  -24.2138  -15.2821 S   0  0  0  0  0  0  0  0  0  0  0  0
   20.7008  -23.9739  -13.6068 C   0  0  0  0  0  0  0  0  0  0  0  0
   22.1753  -23.7812  -13.4853 C   0  0  0  0  0  0  0  0  0  0  0  0
   22.7161  -22.4296  -13.6821 C   0  0  2  0  0  0  0  0  0  0  0  0
   24.1875  -22.4146  -13.5072 N   0  0  0  0  0  0  0  0  0  0  0  0
   22.1210  -21.2999  -12.9720 C   0  0  0  0  0  0  0  0  0  0  0  0
   22.7329  -20.5911  -11.9702 O   0  0  0  0  0  0  0  0  0  0  0  0
   20.9388  -20.9110  -13.2696 O   0  0  0  0  0  0  0  0  0  0  0  0
  1  2  1  0
  3  2  1  0
  4  3  1  0
  5  4  1  0
  5  6  1  6
  7  5  1  0
  8  7  2  0
  9  7  1  0
 10  9  1  0
 11 12  1  0
 10 11  1  6
 12 13  2  0
 12 20  1  0
 13 14  1  0
 14 15  1  0
 15 16  2  0
 16 17  1  0
 18 17  2  0
 19 18  1  0
 20 19  2  0
 20 15  1  0
 21 10  1  0
 21 22  2  0
 23 24  1  0
 24 25  1  0
 25 26  1  0
 27 26  1  1
 27 28  1  0
 28 21  1  0
 29 27  1  0
 30 29  1  0
 31 29  2  0
M  END
$$$$
