MWM.pdb
     RDKit          3D

 31 32  0  0  1  0  0  0  0  0999 V2000
   27.8435  -17.2156  -15.3647 C   0  0  0  0  0  0  0  0  0  0  0  0
   27.6064  -15.4181  -15.3185 S   0  0  0  0  0  0  0  0  0  0  0  0
   25.8884  -14.9989  -15.7355 C   0  0  0  0  0  0  0  0  0  0  0  0
   25.7280  -13.4765  -15.7699 C   0  0  0  0  0  0  0  0  0  0  0  0
   24.2766  -13.1119  -16.0129 C   0  0  2  0  0  0  0  0  0  0  0  0
   23.6982  -13.9026  -17.0680 N   0  0  0  0  0  0  0  0  0  0  0  0
   24.2670  -11.6541  -16.3544 C   0  0  0  0  0  0  0  0  0  0  0  0
   24.7667  -10.7908  -15.6116 O   0  0  0  0  0  0  0  0  0  0  0  0
   23.6734  -11.2554  -17.5534 N   0  0  0  0  0  0  0  0  0  0  0  0
   23.5609   -9.8514  -18.0075 C   0  0  1  0  0  0  0  0  0  0  0  0
   23.5943   -9.7965  -19.4776 C   0  0  0  0  0  0  0  0  0  0  0  0
   23.3813   -8.4894  -20.1083 C   0  0  0  0  0  0  0  0  0  0  0  0
   24.2588   -7.4083  -19.9833 C   0  0  0  0  0  0  0  0  0  0  0  0
   23.7133   -6.3991  -20.6689 N   0  0  0  0  0  0  0  0  0  0  0  0
   22.5456   -6.7481  -21.2302 C   0  0  0  0  0  0  0  0  0  0  0  0
   21.6403   -6.0455  -22.0333 C   0  0  0  0  0  0  0  0  0  0  0  0
   20.5037   -6.7155  -22.4778 C   0  0  0  0  0  0  0  0  0  0  0  0
   20.3149   -8.0234  -22.1166 C   0  0  0  0  0  0  0  0  0  0  0  0
   21.1935   -8.7366  -21.3248 C   0  0  0  0  0  0  0  0  0  0  0  0
   22.3114   -8.0610  -20.8932 C   0  0  0  0  0  0  0  0  0  0  0  0
   22.4876   -9.2475  -17.2477 C   0  0  0  0  0  0  0  0  0  0  0  0
   21.4449   -9.9599  -16.9708 O   0  0  0  0  0  0  0  0  0  0  0  0
   18.9255   -8.7934  -11.0683 C   0  0  0  0  0  0  0  0  0  0  0  0
   20.1136   -9.3671  -12.3103 S   0  0  0  0  0  0  0  0  0  0  0  0
   20.3039   -8.0986  -13.5706 C   0  0  0  0  0  0  0  0  0  0  0  0
   21.1212   -8.4942  -14.7545 C   0  0  0  0  0  0  0  0  0  0  0  0
   21.3346   -7.4985  -15.8133 C   0  0  2  0  0  0  0  0  0  0  0  0
   22.4196   -7.9208  -16.7300 N   0  0  0  0  0  0  0  0  0  0  0  0
   21.5030   -6.0905  -15.4614 C   0  0  0  0  0  0  0  0  0  0  0  0
   22.5995   -5.3284  -15.7734 O   0  0  0  0  0  0  0  0  0  0  0  0
   20.5864   -5.4828  -14.8072 O   0  0  0  0  0  0  0  0  0  0  0  0
  1  2  1  0
  3  2  1  0
  4  3  1  0
  5  4  1  0
  5  6  1  6
  7  5  1  0
  8  7  2  0
  9  7  1  0
 10  9  1  0
 11 12  1  0
 10 11  1  6
 12 13  2  0
 12 20  1  0
 13 14  1  0
 14 15  1  0
 15 16  2  0
 16 17  1  0
 18 17  2  0
 19 18  1  0
 20 19  2  0
 20 15  1  0
 21 10  1  0
 21 22  2  0
 23 24  1  0
 24 25  1  0
 25 26  1  0
 27 26  1  1
 27 28  1  0
 28 21  1  0
 29 27  1  0
 30 29  1  0
 31 29  2  0
M  END
$$$$
