HWQ.pdb
     RDKit          3D

 34 36  0  0  1  0  0  0  0  0999 V2000
    9.6982  -17.5061   19.3639 N   0  0  0  0  0  0  0  0  0  0  0  0
    9.0455  -18.2162   20.4362 C   0  0  1  0  0  0  0  0  0  0  0  0
    9.3452  -19.6800   20.3686 C   0  0  0  0  0  0  0  0  0  0  0  0
    8.8927  -20.1941   19.0500 C   0  0  0  0  0  0  0  0  0  0  0  0
    7.7375  -19.8172   18.3755 C   0  0  0  0  0  0  0  0  0  0  0  0
    7.6505  -20.4848   17.2144 N   0  0  0  0  0  0  0  0  0  0  0  0
    8.7281  -21.2781   17.1388 C   0  0  0  0  0  0  0  0  0  0  0  0
    9.4888  -21.1115   18.2447 N   0  0  0  0  0  0  0  0  0  0  0  0
    9.3483  -17.6271   21.7634 C   0  0  0  0  0  0  0  0  0  0  0  0
   10.2180  -18.1976   22.4742 O   0  0  0  0  0  0  0  0  0  0  0  0
    8.6785  -16.4633   22.2100 N   0  0  0  0  0  0  0  0  0  0  0  0
    8.9796  -15.9271   23.5048 C   0  0  1  0  0  0  0  0  0  0  0  0
    8.3031  -14.5892   23.6008 C   0  0  0  0  0  0  0  0  0  0  0  0
    8.2979  -14.0211   24.9596 C   0  0  0  0  0  0  0  0  0  0  0  0
    9.2459  -14.3325   25.9489 C   0  0  0  0  0  0  0  0  0  0  0  0
    8.9887  -13.6336   27.0606 N   0  0  0  0  0  0  0  0  0  0  0  0
    7.8888  -12.8537   26.8542 C   0  0  0  0  0  0  0  0  0  0  0  0
    7.2295  -11.9728   27.6766 C   0  0  0  0  0  0  0  0  0  0  0  0
    6.1227  -11.3027   27.2337 C   0  0  0  0  0  0  0  0  0  0  0  0
    5.6844  -11.5279   25.9537 C   0  0  0  0  0  0  0  0  0  0  0  0
    6.3505  -12.4118   25.1362 C   0  0  0  0  0  0  0  0  0  0  0  0
    7.4717  -13.1057   25.5474 C   0  0  0  0  0  0  0  0  0  0  0  0
    8.7969  -16.8304   24.6310 C   0  0  0  0  0  0  0  0  0  0  0  0
    7.6090  -17.2638   24.8220 O   0  0  0  0  0  0  0  0  0  0  0  0
   11.1023  -21.6956   24.3881 N   0  0  0  0  0  0  0  0  0  0  0  0
   11.9243  -20.7543   25.0346 C   0  0  0  0  0  0  0  0  0  0  0  0
   13.1820  -20.8136   24.8043 O   0  0  0  0  0  0  0  0  0  0  0  0
   11.4258  -19.7100   25.9461 C   0  0  0  0  0  0  0  0  0  0  0  0
    9.9686  -19.5855   26.1041 C   0  0  0  0  0  0  0  0  0  0  0  0
    9.4385  -18.2632   26.5708 C   0  0  2  0  0  0  0  0  0  0  0  0
    9.7954  -17.2576   25.5097 N   0  0  0  0  0  0  0  0  0  0  0  0
    9.9656  -17.7830   27.8475 C   0  0  0  0  0  0  0  0  0  0  0  0
    9.8203  -18.3822   28.9353 O   0  0  0  0  0  0  0  0  0  0  0  0
   10.6888  -16.5771   27.9113 O   0  0  0  0  0  0  0  0  0  0  0  0
  2  1  1  6
  2  9  1  0
  2  3  1  0
  3  4  1  0
  4  8  1  0
  5  6  1  0
  5  4  2  0
  6  7  1  0
  7  8  2  0
  9 10  2  0
 11 12  1  0
 11  9  1  0
 13 14  1  0
 12 13  1  1
 14 15  2  0
 16 15  1  0
 17 16  1  0
 18 17  2  0
 19 18  1  0
 20 19  2  0
 20 21  1  0
 21 22  2  0
 22 17  1  0
 22 14  1  0
 23 24  2  0
 23 12  1  0
 25 26  1  0
 26 28  1  0
 26 27  2  0
 28 29  1  0
 30 29  1  6
 30 32  1  0
 30 31  1  0
 31 23  1  0
 32 34  1  0
 33 32  2  0
M  END
$$$$
