HWQ.pdb
     RDKit          3D

 34 36  0  0  1  0  0  0  0  0999 V2000
    9.5118  -17.8175   18.8597 N   0  0  0  0  0  0  0  0  0  0  0  0
    8.5581  -17.4268   19.8685 C   0  0  1  0  0  0  0  0  0  0  0  0
    7.6215  -18.5499   20.1825 C   0  0  0  0  0  0  0  0  0  0  0  0
    6.9103  -18.9341   18.9358 C   0  0  0  0  0  0  0  0  0  0  0  0
    7.1221  -18.3962   17.6719 C   0  0  0  0  0  0  0  0  0  0  0  0
    6.3028  -18.9822   16.7850 N   0  0  0  0  0  0  0  0  0  0  0  0
    5.5749  -19.8818   17.4614 C   0  0  0  0  0  0  0  0  0  0  0  0
    5.9333  -19.8625   18.7655 N   0  0  0  0  0  0  0  0  0  0  0  0
    9.2165  -16.8715   21.0760 C   0  0  0  0  0  0  0  0  0  0  0  0
   10.4198  -17.1815   21.2836 O   0  0  0  0  0  0  0  0  0  0  0  0
    8.5105  -16.0224   21.9612 N   0  0  0  0  0  0  0  0  0  0  0  0
    9.1647  -15.5234   23.1349 C   0  0  1  0  0  0  0  0  0  0  0  0
    8.6559  -14.1295   23.3694 C   0  0  0  0  0  0  0  0  0  0  0  0
    7.6150  -14.0429   24.4078 C   0  0  0  0  0  0  0  0  0  0  0  0
    6.7373  -15.0903   24.7349 C   0  0  0  0  0  0  0  0  0  0  0  0
    5.9328  -14.7132   25.7354 N   0  0  0  0  0  0  0  0  0  0  0  0
    6.2398  -13.4346   26.0984 C   0  0  0  0  0  0  0  0  0  0  0  0
    5.7062  -12.6067   27.0559 C   0  0  0  0  0  0  0  0  0  0  0  0
    6.1892  -11.3387   27.2268 C   0  0  0  0  0  0  0  0  0  0  0  0
    7.2153  -10.9107   26.4238 C   0  0  0  0  0  0  0  0  0  0  0  0
    7.7444  -11.7463   25.4671 C   0  0  0  0  0  0  0  0  0  0  0  0
    7.2841  -13.0329   25.2659 C   0  0  0  0  0  0  0  0  0  0  0  0
    9.1804  -16.4124   24.2870 C   0  0  0  0  0  0  0  0  0  0  0  0
    8.2279  -17.2629   24.3586 O   0  0  0  0  0  0  0  0  0  0  0  0
   11.2303  -21.0651   23.1772 N   0  0  0  0  0  0  0  0  0  0  0  0
   11.4624  -20.8950   24.5545 C   0  0  0  0  0  0  0  0  0  0  0  0
   11.1513  -21.8656   25.3288 O   0  0  0  0  0  0  0  0  0  0  0  0
   12.0438  -19.6798   25.1504 C   0  0  0  0  0  0  0  0  0  0  0  0
   11.4183  -18.3919   24.8133 C   0  0  0  0  0  0  0  0  0  0  0  0
   10.5822  -17.7363   25.8710 C   0  0  2  0  0  0  0  0  0  0  0  0
   10.1340  -16.4148   25.3077 N   0  0  0  0  0  0  0  0  0  0  0  0
   11.2543  -17.4828   27.1447 C   0  0  0  0  0  0  0  0  0  0  0  0
   11.8055  -16.4007   27.4428 O   0  0  0  0  0  0  0  0  0  0  0  0
   11.3131  -18.4851   28.1312 O   0  0  0  0  0  0  0  0  0  0  0  0
  2  1  1  6
  2  9  1  0
  2  3  1  0
  3  4  1  0
  4  8  1  0
  5  6  1  0
  5  4  2  0
  6  7  1  0
  7  8  2  0
  9 10  2  0
 11 12  1  0
 11  9  1  0
 13 14  1  0
 12 13  1  1
 14 15  2  0
 16 15  1  0
 17 16  1  0
 18 17  2  0
 19 18  1  0
 20 19  2  0
 20 21  1  0
 21 22  2  0
 22 17  1  0
 22 14  1  0
 23 24  2  0
 23 12  1  0
 25 26  1  0
 26 28  1  0
 26 27  2  0
 28 29  1  0
 30 29  1  6
 30 32  1  0
 30 31  1  0
 31 23  1  0
 32 34  1  0
 33 32  2  0
M  END
$$$$
