HWQ.pdb
     RDKit          3D

 34 36  0  0  1  0  0  0  0  0999 V2000
    7.6169  -16.3082   20.6243 N   0  0  0  0  0  0  0  0  0  0  0  0
    8.7609  -15.4612   20.8556 C   0  0  1  0  0  0  0  0  0  0  0  0
    8.4586  -14.0426   20.4904 C   0  0  0  0  0  0  0  0  0  0  0  0
    8.1272  -13.9880   19.0430 C   0  0  0  0  0  0  0  0  0  0  0  0
    7.0307  -14.5824   18.4300 C   0  0  0  0  0  0  0  0  0  0  0  0
    7.0505  -14.3243   17.1130 N   0  0  0  0  0  0  0  0  0  0  0  0
    8.1385  -13.5775   16.8782 C   0  0  0  0  0  0  0  0  0  0  0  0
    8.7994  -13.3666   18.0393 N   0  0  0  0  0  0  0  0  0  0  0  0
    9.2911  -15.6004   22.2338 C   0  0  0  0  0  0  0  0  0  0  0  0
   10.3425  -14.9704   22.5248 O   0  0  0  0  0  0  0  0  0  0  0  0
    8.6328  -16.4156   23.1850 N   0  0  0  0  0  0  0  0  0  0  0  0
    9.1728  -16.5363   24.5073 C   0  0  1  0  0  0  0  0  0  0  0  0
    8.0113  -16.6196   25.4565 C   0  0  0  0  0  0  0  0  0  0  0  0
    7.1319  -15.4385   25.4260 C   0  0  0  0  0  0  0  0  0  0  0  0
    5.8019  -15.4562   24.9730 C   0  0  0  0  0  0  0  0  0  0  0  0
    5.2627  -14.2382   25.0996 N   0  0  0  0  0  0  0  0  0  0  0  0
    6.1919  -13.3903   25.6271 C   0  0  0  0  0  0  0  0  0  0  0  0
    6.1323  -12.0538   25.9389 C   0  0  0  0  0  0  0  0  0  0  0  0
    7.2215  -11.4118   26.4603 C   0  0  0  0  0  0  0  0  0  0  0  0
    8.3730  -12.1281   26.6650 C   0  0  0  0  0  0  0  0  0  0  0  0
    8.4244  -13.4666   26.3501 C   0  0  0  0  0  0  0  0  0  0  0  0
    7.3454  -14.1492   25.8233 C   0  0  0  0  0  0  0  0  0  0  0  0
   10.2272  -17.5241   24.6816 C   0  0  0  0  0  0  0  0  0  0  0  0
   10.0511  -18.6486   24.0983 O   0  0  0  0  0  0  0  0  0  0  0  0
   16.2869  -17.2720   23.8464 N   0  0  0  0  0  0  0  0  0  0  0  0
   16.1166  -18.4624   24.5770 C   0  0  0  0  0  0  0  0  0  0  0  0
   17.1599  -19.1675   24.8061 O   0  0  0  0  0  0  0  0  0  0  0  0
   14.8214  -18.9357   25.0949 C   0  0  0  0  0  0  0  0  0  0  0  0
   13.6845  -18.0042   25.0348 C   0  0  0  0  0  0  0  0  0  0  0  0
   12.3601  -18.5035   25.5291 C   0  0  2  0  0  0  0  0  0  0  0  0
   11.3986  -17.3508   25.4225 N   0  0  0  0  0  0  0  0  0  0  0  0
   12.3389  -18.9869   26.9090 C   0  0  0  0  0  0  0  0  0  0  0  0
   11.8127  -18.3684   27.8599 O   0  0  0  0  0  0  0  0  0  0  0  0
   12.9332  -20.2187   27.2416 O   0  0  0  0  0  0  0  0  0  0  0  0
  2  1  1  1
  2  9  1  0
  2  3  1  0
  3  4  1  0
  4  8  1  0
  5  6  1  0
  5  4  2  0
  6  7  1  0
  7  8  2  0
  9 10  2  0
 11 12  1  0
 11  9  1  0
 13 14  1  0
 12 13  1  1
 14 15  2  0
 16 15  1  0
 17 16  1  0
 18 17  2  0
 19 18  1  0
 20 19  2  0
 20 21  1  0
 21 22  2  0
 22 17  1  0
 22 14  1  0
 23 24  2  0
 23 12  1  0
 25 26  1  0
 26 28  1  0
 26 27  2  0
 28 29  1  0
 30 29  1  1
 30 32  1  0
 30 31  1  0
 31 23  1  0
 32 34  1  0
 33 32  2  0
M  END
$$$$
