HWQ.pdb
     RDKit          3D

 34 36  0  0  1  0  0  0  0  0999 V2000
    8.1764  -16.3757   20.5677 N   0  0  0  0  0  0  0  0  0  0  0  0
    8.7189  -15.1104   20.9972 C   0  0  1  0  0  0  0  0  0  0  0  0
    7.7947  -13.9867   20.6503 C   0  0  0  0  0  0  0  0  0  0  0  0
    7.6417  -13.9402   19.1731 C   0  0  0  0  0  0  0  0  0  0  0  0
    8.1726  -12.9769   18.3236 C   0  0  0  0  0  0  0  0  0  0  0  0
    7.8334  -13.2527   17.0546 N   0  0  0  0  0  0  0  0  0  0  0  0
    7.0975  -14.3726   17.0822 C   0  0  0  0  0  0  0  0  0  0  0  0
    6.9739  -14.7993   18.3597 N   0  0  0  0  0  0  0  0  0  0  0  0
    9.0986  -15.1218   22.4310 C   0  0  0  0  0  0  0  0  0  0  0  0
    9.7425  -14.1345   22.8756 O   0  0  0  0  0  0  0  0  0  0  0  0
    8.7461  -16.2088   23.2658 N   0  0  0  0  0  0  0  0  0  0  0  0
    9.3652  -16.3426   24.5517 C   0  0  1  0  0  0  0  0  0  0  0  0
    8.2651  -16.5255   25.5584 C   0  0  0  0  0  0  0  0  0  0  0  0
    7.3647  -15.3657   25.6732 C   0  0  0  0  0  0  0  0  0  0  0  0
    5.9781  -15.4180   25.4518 C   0  0  0  0  0  0  0  0  0  0  0  0
    5.4383  -14.2122   25.6638 N   0  0  0  0  0  0  0  0  0  0  0  0
    6.4223  -13.3388   26.0238 C   0  0  0  0  0  0  0  0  0  0  0  0
    6.3836  -12.0018   26.3369 C   0  0  0  0  0  0  0  0  0  0  0  0
    7.5293  -11.3305   26.6645 C   0  0  0  0  0  0  0  0  0  0  0  0
    8.7160  -12.0180   26.6737 C   0  0  0  0  0  0  0  0  0  0  0  0
    8.7462  -13.3572   26.3590 C   0  0  0  0  0  0  0  0  0  0  0  0
    7.6107  -14.0688   26.0245 C   0  0  0  0  0  0  0  0  0  0  0  0
   10.4815  -17.2728   24.6321 C   0  0  0  0  0  0  0  0  0  0  0  0
   10.1805  -18.5059   24.7888 O   0  0  0  0  0  0  0  0  0  0  0  0
   16.6083  -16.5844   22.7215 N   0  0  0  0  0  0  0  0  0  0  0  0
   16.5060  -17.8580   23.3108 C   0  0  0  0  0  0  0  0  0  0  0  0
   17.5505  -18.5977   23.3003 O   0  0  0  0  0  0  0  0  0  0  0  0
   15.2810  -18.3815   23.9394 C   0  0  0  0  0  0  0  0  0  0  0  0
   14.1073  -17.4959   23.9810 C   0  0  0  0  0  0  0  0  0  0  0  0
   12.8546  -18.0436   24.5962 C   0  0  2  0  0  0  0  0  0  0  0  0
   11.8353  -16.9373   24.5546 N   0  0  0  0  0  0  0  0  0  0  0  0
   12.9742  -18.4994   25.9805 C   0  0  0  0  0  0  0  0  0  0  0  0
   12.7668  -17.7737   26.9774 O   0  0  0  0  0  0  0  0  0  0  0  0
   13.3424  -19.8281   26.2638 O   0  0  0  0  0  0  0  0  0  0  0  0
  2  1  1  1
  2  9  1  0
  2  3  1  0
  3  4  1  0
  4  8  1  0
  5  6  1  0
  5  4  2  0
  6  7  1  0
  7  8  2  0
  9 10  2  0
 11 12  1  0
 11  9  1  0
 13 14  1  0
 12 13  1  1
 14 15  2  0
 16 15  1  0
 17 16  1  0
 18 17  2  0
 19 18  1  0
 20 19  2  0
 20 21  1  0
 21 22  2  0
 22 17  1  0
 22 14  1  0
 23 24  2  0
 23 12  1  0
 25 26  1  0
 26 28  1  0
 26 27  2  0
 28 29  1  0
 30 29  1  1
 30 32  1  0
 30 31  1  0
 31 23  1  0
 32 34  1  0
 33 32  2  0
M  END
$$$$
