HWQ.pdb
     RDKit          3D

 34 36  0  0  1  0  0  0  0  0999 V2000
    7.6738  -16.5155   20.3958 N   0  0  0  0  0  0  0  0  0  0  0  0
    8.6578  -15.4635   20.4661 C   0  0  1  0  0  0  0  0  0  0  0  0
    8.1235  -14.1919   19.8876 C   0  0  0  0  0  0  0  0  0  0  0  0
    7.9949  -14.3596   18.4169 C   0  0  0  0  0  0  0  0  0  0  0  0
    8.3286  -15.4954   17.6889 C   0  0  0  0  0  0  0  0  0  0  0  0
    8.0801  -15.2898   16.3860 N   0  0  0  0  0  0  0  0  0  0  0  0
    7.5950  -14.0454   16.2730 C   0  0  0  0  0  0  0  0  0  0  0  0
    7.5384  -13.4711   17.4963 N   0  0  0  0  0  0  0  0  0  0  0  0
    9.1958  -15.2909   21.8375 C   0  0  0  0  0  0  0  0  0  0  0  0
    9.9603  -14.3123   22.0493 O   0  0  0  0  0  0  0  0  0  0  0  0
    8.8575  -16.1991   22.8687 N   0  0  0  0  0  0  0  0  0  0  0  0
    9.5824  -16.1673   24.1049 C   0  0  1  0  0  0  0  0  0  0  0  0
    8.5910  -16.4047   25.2084 C   0  0  0  0  0  0  0  0  0  0  0  0
    7.5279  -15.3881   25.2822 C   0  0  0  0  0  0  0  0  0  0  0  0
    6.1903  -15.6169   24.9175 C   0  0  0  0  0  0  0  0  0  0  0  0
    5.4668  -14.5110   25.1269 N   0  0  0  0  0  0  0  0  0  0  0  0
    6.2777  -13.5336   25.6248 C   0  0  0  0  0  0  0  0  0  0  0  0
    6.0195  -12.2353   25.9920 C   0  0  0  0  0  0  0  0  0  0  0  0
    7.0215  -11.4338   26.4652 C   0  0  0  0  0  0  0  0  0  0  0  0
    8.2876  -11.9514   26.5653 C   0  0  0  0  0  0  0  0  0  0  0  0
    8.5379  -13.2529   26.1956 C   0  0  0  0  0  0  0  0  0  0  0  0
    7.5523  -14.0926   25.7147 C   0  0  0  0  0  0  0  0  0  0  0  0
   10.8067  -16.9527   24.1505 C   0  0  0  0  0  0  0  0  0  0  0  0
   10.6724  -18.1948   24.4241 O   0  0  0  0  0  0  0  0  0  0  0  0
   18.2019  -16.7409   24.1485 N   0  0  0  0  0  0  0  0  0  0  0  0
   16.9869  -16.5738   23.4589 C   0  0  0  0  0  0  0  0  0  0  0  0
   16.9489  -15.6845   22.5391 O   0  0  0  0  0  0  0  0  0  0  0  0
   15.7703  -17.3602   23.7261 C   0  0  0  0  0  0  0  0  0  0  0  0
   14.4757  -16.6747   23.5932 C   0  0  0  0  0  0  0  0  0  0  0  0
   13.2495  -17.4381   23.9948 C   0  0  2  0  0  0  0  0  0  0  0  0
   12.0984  -16.4713   23.9249 N   0  0  0  0  0  0  0  0  0  0  0  0
   13.2744  -18.0185   25.3368 C   0  0  0  0  0  0  0  0  0  0  0  0
   13.5558  -19.2126   25.5785 O   0  0  0  0  0  0  0  0  0  0  0  0
   12.9711  -17.2275   26.4608 O   0  0  0  0  0  0  0  0  0  0  0  0
  2  1  1  1
  2  9  1  0
  2  3  1  0
  3  4  1  0
  4  8  1  0
  5  6  1  0
  5  4  2  0
  6  7  1  0
  7  8  2  0
  9 10  2  0
 11 12  1  0
 11  9  1  0
 13 14  1  0
 12 13  1  1
 14 15  2  0
 16 15  1  0
 17 16  1  0
 18 17  2  0
 19 18  1  0
 20 19  2  0
 20 21  1  0
 21 22  2  0
 22 17  1  0
 22 14  1  0
 23 24  2  0
 23 12  1  0
 25 26  1  0
 26 28  1  0
 26 27  2  0
 28 29  1  0
 30 29  1  1
 30 32  1  0
 30 31  1  0
 31 23  1  0
 32 34  1  0
 33 32  2  0
M  END
$$$$
