HWQ.pdb
     RDKit          3D

 34 36  0  0  1  0  0  0  0  0999 V2000
    9.1333  -15.9026   19.3418 N   0  0  0  0  0  0  0  0  0  0  0  0
    9.0075  -17.0350   20.2259 C   0  0  1  0  0  0  0  0  0  0  0  0
    9.8452  -18.1797   19.7514 C   0  0  0  0  0  0  0  0  0  0  0  0
    9.4425  -18.5149   18.3610 C   0  0  0  0  0  0  0  0  0  0  0  0
    8.1671  -18.8725   17.9403 C   0  0  0  0  0  0  0  0  0  0  0  0
    8.1725  -19.1042   16.6183 N   0  0  0  0  0  0  0  0  0  0  0  0
    9.4266  -18.9006   16.1916 C   0  0  0  0  0  0  0  0  0  0  0  0
   10.2060  -18.5430   17.2377 N   0  0  0  0  0  0  0  0  0  0  0  0
    9.2738  -16.6738   21.6396 C   0  0  0  0  0  0  0  0  0  0  0  0
   10.3573  -16.0866   21.9013 O   0  0  0  0  0  0  0  0  0  0  0  0
    8.3379  -16.9817   22.6554 N   0  0  0  0  0  0  0  0  0  0  0  0
    8.6562  -16.6899   24.0222 C   0  0  1  0  0  0  0  0  0  0  0  0
    7.3576  -16.5990   24.7720 C   0  0  0  0  0  0  0  0  0  0  0  0
    6.9569  -15.2210   25.1034 C   0  0  0  0  0  0  0  0  0  0  0  0
    5.6972  -14.6728   24.8086 C   0  0  0  0  0  0  0  0  0  0  0  0
    5.6313  -13.4158   25.2625 N   0  0  0  0  0  0  0  0  0  0  0  0
    6.8148  -13.0930   25.8590 C   0  0  0  0  0  0  0  0  0  0  0  0
    7.2437  -11.9375   26.4653 C   0  0  0  0  0  0  0  0  0  0  0  0
    8.5030  -11.8544   26.9923 C   0  0  0  0  0  0  0  0  0  0  0  0
    9.3281  -12.9464   26.9028 C   0  0  0  0  0  0  0  0  0  0  0  0
    8.8907  -14.1002   26.2940 C   0  0  0  0  0  0  0  0  0  0  0  0
    7.6263  -14.2222   25.7517 C   0  0  0  0  0  0  0  0  0  0  0  0
    9.6997  -17.5054   24.6255 C   0  0  0  0  0  0  0  0  0  0  0  0
    9.6973  -18.7466   24.3173 O   0  0  0  0  0  0  0  0  0  0  0  0
   16.2639  -17.3271   24.9780 N   0  0  0  0  0  0  0  0  0  0  0  0
   15.0519  -16.6349   24.7995 C   0  0  0  0  0  0  0  0  0  0  0  0
   14.9933  -15.7864   23.8431 O   0  0  0  0  0  0  0  0  0  0  0  0
   13.8561  -16.8335   25.6364 C   0  0  0  0  0  0  0  0  0  0  0  0
   12.9280  -17.9075   25.2508 C   0  0  0  0  0  0  0  0  0  0  0  0
   11.6710  -18.0512   26.0550 C   0  0  2  0  0  0  0  0  0  0  0  0
   10.6895  -17.0536   25.5015 N   0  0  0  0  0  0  0  0  0  0  0  0
   11.8049  -17.8083   27.4907 C   0  0  0  0  0  0  0  0  0  0  0  0
   11.2712  -16.8506   28.0920 O   0  0  0  0  0  0  0  0  0  0  0  0
   12.5707  -18.6762   28.2917 O   0  0  0  0  0  0  0  0  0  0  0  0
  2  1  1  6
  2  9  1  0
  2  3  1  0
  3  4  1  0
  4  8  1  0
  5  6  1  0
  5  4  2  0
  6  7  1  0
  7  8  2  0
  9 10  2  0
 11 12  1  0
 11  9  1  0
 13 14  1  0
 12 13  1  1
 14 15  2  0
 16 15  1  0
 17 16  1  0
 18 17  2  0
 19 18  1  0
 20 19  2  0
 20 21  1  0
 21 22  2  0
 22 17  1  0
 22 14  1  0
 23 24  2  0
 23 12  1  0
 25 26  1  0
 26 28  1  0
 26 27  2  0
 28 29  1  0
 30 29  1  6
 30 32  1  0
 30 31  1  0
 31 23  1  0
 32 34  1  0
 33 32  2  0
M  END
$$$$
