HWQ.pdb
     RDKit          3D

 34 36  0  0  1  0  0  0  0  0999 V2000
   10.4439  -16.6305   18.5026 N   0  0  0  0  0  0  0  0  0  0  0  0
    9.8832  -17.4324   19.5620 C   0  0  1  0  0  0  0  0  0  0  0  0
   10.6234  -18.7243   19.7040 C   0  0  0  0  0  0  0  0  0  0  0  0
   10.3247  -19.5720   18.5209 C   0  0  0  0  0  0  0  0  0  0  0  0
    9.5060  -19.2285   17.4517 C   0  0  0  0  0  0  0  0  0  0  0  0
    9.4679  -20.2362   16.5659 N   0  0  0  0  0  0  0  0  0  0  0  0
   10.2467  -21.2127   17.0521 C   0  0  0  0  0  0  0  0  0  0  0  0
   10.7718  -20.8228   18.2361 N   0  0  0  0  0  0  0  0  0  0  0  0
    9.7829  -16.6830   20.8381 C   0  0  0  0  0  0  0  0  0  0  0  0
   10.8143  -16.0911   21.2539 O   0  0  0  0  0  0  0  0  0  0  0  0
    8.5661  -16.6387   21.5593 N   0  0  0  0  0  0  0  0  0  0  0  0
    8.5369  -16.0385   22.8607 C   0  0  1  0  0  0  0  0  0  0  0  0
    7.1001  -15.7371   23.1796 C   0  0  0  0  0  0  0  0  0  0  0  0
    6.8967  -15.1566   24.5179 C   0  0  0  0  0  0  0  0  0  0  0  0
    6.5338  -15.8999   25.6538 C   0  0  0  0  0  0  0  0  0  0  0  0
    6.4574  -15.0936   26.7189 N   0  0  0  0  0  0  0  0  0  0  0  0
    6.7586  -13.8191   26.3375 C   0  0  0  0  0  0  0  0  0  0  0  0
    6.8132  -12.6447   27.0480 C   0  0  0  0  0  0  0  0  0  0  0  0
    7.1383  -11.4703   26.4271 C   0  0  0  0  0  0  0  0  0  0  0  0
    7.4080  -11.4886   25.0825 C   0  0  0  0  0  0  0  0  0  0  0  0
    7.3513  -12.6693   24.3780 C   0  0  0  0  0  0  0  0  0  0  0  0
    7.0280  -13.8744   24.9703 C   0  0  0  0  0  0  0  0  0  0  0  0
    9.3048  -16.7144   23.8957 C   0  0  0  0  0  0  0  0  0  0  0  0
    9.2655  -17.9927   23.8859 O   0  0  0  0  0  0  0  0  0  0  0  0
   14.7383  -18.2070   25.5034 N   0  0  0  0  0  0  0  0  0  0  0  0
   14.1762  -17.6304   24.3495 C   0  0  0  0  0  0  0  0  0  0  0  0
   14.7775  -17.8315   23.2376 O   0  0  0  0  0  0  0  0  0  0  0  0
   12.9440  -16.8233   24.3456 C   0  0  0  0  0  0  0  0  0  0  0  0
   12.3119  -16.5426   25.6438 C   0  0  0  0  0  0  0  0  0  0  0  0
   10.8811  -16.9559   25.8151 C   0  0  2  0  0  0  0  0  0  0  0  0
   10.0698  -16.0937   24.8861 N   0  0  0  0  0  0  0  0  0  0  0  0
   10.3353  -16.8093   27.1638 C   0  0  0  0  0  0  0  0  0  0  0  0
   10.7723  -17.4156   28.1662 O   0  0  0  0  0  0  0  0  0  0  0  0
    9.2507  -15.9446   27.4034 O   0  0  0  0  0  0  0  0  0  0  0  0
  2  1  1  6
  2  9  1  0
  2  3  1  0
  3  4  1  0
  4  8  1  0
  5  6  1  0
  5  4  2  0
  6  7  1  0
  7  8  2  0
  9 10  2  0
 11 12  1  0
 11  9  1  0
 13 14  1  0
 12 13  1  1
 14 15  2  0
 16 15  1  0
 17 16  1  0
 18 17  2  0
 19 18  1  0
 20 19  2  0
 20 21  1  0
 21 22  2  0
 22 17  1  0
 22 14  1  0
 23 24  2  0
 23 12  1  0
 25 26  1  0
 26 28  1  0
 26 27  2  0
 28 29  1  0
 30 29  1  1
 30 32  1  0
 30 31  1  0
 31 23  1  0
 32 34  1  0
 33 32  2  0
M  END
$$$$
