HVD.pdb
     RDKit          3D

 26 26  0  0  1  0  0  0  0  0999 V2000
   20.6875  -13.2991  -17.2866 N   0  0  0  0  0  0  0  0  0  0  0  0
   21.1875  -12.0040  -17.6671 C   0  0  1  0  0  0  0  0  0  0  0  0
   20.0353  -11.0753  -18.0689 C   0  0  0  0  0  0  0  0  0  0  0  0
   19.3421  -11.6780  -19.2176 C   0  0  0  0  0  0  0  0  0  0  0  0
   18.0689  -12.2542  -19.2490 C   0  0  0  0  0  0  0  0  0  0  0  0
   17.8350  -12.6787  -20.4962 N   0  0  0  0  0  0  0  0  0  0  0  0
   18.9111  -12.3915  -21.2487 C   0  0  0  0  0  0  0  0  0  0  0  0
   19.8318  -11.7801  -20.4674 N   0  0  0  0  0  0  0  0  0  0  0  0
   22.0280  -11.4040  -16.6064 C   0  0  0  0  0  0  0  0  0  0  0  0
   21.6289  -11.3518  -15.3999 O   0  0  0  0  0  0  0  0  0  0  0  0
   26.2466  -10.2699  -17.1445 C   0  0  0  0  0  0  0  0  0  0  0  0
   25.5802  -10.7189  -15.8901 C   0  0  1  0  0  0  0  0  0  0  0  0
   26.3785  -10.1650  -14.7255 C   0  0  0  0  0  0  0  0  0  0  0  0
   24.1449  -10.3069  -15.7675 C   0  0  2  0  0  0  0  0  0  0  0  0
   23.3230  -10.8460  -16.8310 N   0  0  0  0  0  0  0  0  0  0  0  0
   23.9423   -8.8552  -15.6752 C   0  0  0  0  0  0  0  0  0  0  0  0
   24.4454   -8.1240  -14.7813 O   0  0  0  0  0  0  0  0  0  0  0  0
   23.1319   -8.1951  -16.6386 N   0  0  0  0  0  0  0  0  0  0  0  0
   22.8208   -6.7321  -16.5135 C   0  0  1  0  0  0  0  0  0  0  0  0
   23.1320   -6.0865  -17.8243 C   0  0  0  0  0  0  0  0  0  0  0  0
   22.7450   -4.7091  -17.9393 C   0  0  0  0  0  0  0  0  0  0  0  0
   22.9802   -3.8437  -17.0834 O   0  0  0  0  0  0  0  0  0  0  0  0
   21.4432   -6.5898  -16.0386 C   0  0  0  0  0  0  0  0  0  0  0  0
   20.6688   -7.5513  -15.9819 O   0  0  0  0  0  0  0  0  0  0  0  0
   22.0522   -4.2705  -19.0823 O   0  0  0  0  0  0  0  0  0  0  0  0
   20.9255   -5.3472  -15.6202 O   0  0  0  0  0  0  0  0  0  0  0  0
  2  1  1  1
  3  2  1  0
  4  3  1  0
  5  4  2  0
  6  7  1  0
  6  5  1  0
  7  8  2  0
  8  4  1  0
  9  2  1  0
  9 10  2  0
 12 11  1  6
 12 14  1  0
 12 13  1  0
 14 15  1  6
 15  9  1  0
 16 14  1  0
 17 16  2  0
 18 16  1  0
 19 18  1  0
 19 20  1  6
 20 21  1  0
 21 22  2  0
 23 19  1  0
 24 23  2  0
 25 21  1  0
 26 23  1  0
M  END
$$$$
