HVD.pdb
     RDKit          3D

 26 26  0  0  1  0  0  0  0  0999 V2000
   27.9203  -20.5403  -16.4817 N   0  0  0  0  0  0  0  0  0  0  0  0
   27.0132  -19.7420  -15.6995 C   0  0  1  0  0  0  0  0  0  0  0  0
   26.2714  -18.7368  -16.5889 C   0  0  0  0  0  0  0  0  0  0  0  0
   27.2601  -17.7967  -17.1385 C   0  0  0  0  0  0  0  0  0  0  0  0
   28.6405  -17.7739  -16.9197 C   0  0  0  0  0  0  0  0  0  0  0  0
   29.1546  -16.7508  -17.6122 N   0  0  0  0  0  0  0  0  0  0  0  0
   28.1513  -16.1309  -18.2569 C   0  0  0  0  0  0  0  0  0  0  0  0
   26.9938  -16.7699  -17.9675 N   0  0  0  0  0  0  0  0  0  0  0  0
   26.0733  -20.5793  -14.9204 C   0  0  0  0  0  0  0  0  0  0  0  0
   25.5172  -21.6003  -15.4362 O   0  0  0  0  0  0  0  0  0  0  0  0
   26.6461  -21.6513  -11.1628 C   0  0  0  0  0  0  0  0  0  0  0  0
   25.2115  -21.3105  -11.3757 C   0  0  1  0  0  0  0  0  0  0  0  0
   24.9366  -20.0129  -10.6401 C   0  0  0  0  0  0  0  0  0  0  0  0
   24.8115  -21.1773  -12.8134 C   0  0  2  0  0  0  0  0  0  0  0  0
   25.7147  -20.3275  -13.5614 N   0  0  0  0  0  0  0  0  0  0  0  0
   23.4289  -20.7238  -13.0129 C   0  0  0  0  0  0  0  0  0  0  0  0
   23.0536  -19.5255  -12.9122 O   0  0  0  0  0  0  0  0  0  0  0  0
   22.4190  -21.6685  -13.3421 N   0  0  0  0  0  0  0  0  0  0  0  0
   20.9977  -21.2362  -13.5560 C   0  0  1  0  0  0  0  0  0  0  0  0
   20.3904  -22.1523  -14.5679 C   0  0  0  0  0  0  0  0  0  0  0  0
   19.0024  -21.9217  -14.8524 C   0  0  0  0  0  0  0  0  0  0  0  0
   18.5338  -20.8297  -15.2055 O   0  0  0  0  0  0  0  0  0  0  0  0
   20.3284  -21.1824  -12.2549 C   0  0  0  0  0  0  0  0  0  0  0  0
   20.5956  -21.9794  -11.3491 O   0  0  0  0  0  0  0  0  0  0  0  0
   18.0800  -22.9772  -14.7353 O   0  0  0  0  0  0  0  0  0  0  0  0
   19.3422  -20.2175  -11.9654 O   0  0  0  0  0  0  0  0  0  0  0  0
  2  1  1  6
  3  2  1  0
  4  3  1  0
  5  4  2  0
  6  7  1  0
  6  5  1  0
  7  8  2  0
  8  4  1  0
  9  2  1  0
  9 10  2  0
 12 11  1  6
 12 14  1  0
 12 13  1  0
 14 15  1  1
 15  9  1  0
 16 14  1  0
 17 16  2  0
 18 16  1  0
 19 18  1  0
 19 20  1  6
 20 21  1  0
 21 22  2  0
 23 19  1  0
 24 23  2  0
 25 21  1  0
 26 23  1  0
M  END
$$$$
