HVD.pdb
     RDKit          3D

 26 26  0  0  1  0  0  0  0  0999 V2000
   19.8643  -13.1728  -17.7708 N   0  0  0  0  0  0  0  0  0  0  0  0
   20.3547  -11.8816  -18.1760 C   0  0  1  0  0  0  0  0  0  0  0  0
   19.4122  -11.2422  -19.2030 C   0  0  0  0  0  0  0  0  0  0  0  0
   19.4390  -12.0649  -20.4219 C   0  0  0  0  0  0  0  0  0  0  0  0
   20.3112  -13.1114  -20.7350 C   0  0  0  0  0  0  0  0  0  0  0  0
   19.9810  -13.5807  -21.9438 N   0  0  0  0  0  0  0  0  0  0  0  0
   18.9360  -12.8699  -22.4016 C   0  0  0  0  0  0  0  0  0  0  0  0
   18.6049  -11.9438  -21.4718 N   0  0  0  0  0  0  0  0  0  0  0  0
   20.5845  -10.9903  -17.0166 C   0  0  0  0  0  0  0  0  0  0  0  0
   19.7442  -10.9172  -16.0648 O   0  0  0  0  0  0  0  0  0  0  0  0
   23.2306  -11.2240  -14.5567 C   0  0  0  0  0  0  0  0  0  0  0  0
   23.2106   -9.7861  -14.9455 C   0  0  1  0  0  0  0  0  0  0  0  0
   24.4366   -9.5272  -15.8001 C   0  0  0  0  0  0  0  0  0  0  0  0
   21.9766   -9.3582  -15.6797 C   0  0  2  0  0  0  0  0  0  0  0  0
   21.7335  -10.1566  -16.8632 N   0  0  0  0  0  0  0  0  0  0  0  0
   21.9511   -7.9328  -16.0325 C   0  0  0  0  0  0  0  0  0  0  0  0
   22.2982   -7.4728  -17.1527 O   0  0  0  0  0  0  0  0  0  0  0  0
   21.5127   -6.9785  -15.0745 N   0  0  0  0  0  0  0  0  0  0  0  0
   21.4687   -5.5154  -15.4067 C   0  0  1  0  0  0  0  0  0  0  0  0
   20.0607   -5.1730  -15.7703 C   0  0  0  0  0  0  0  0  0  0  0  0
   19.8007   -3.7767  -15.9779 C   0  0  0  0  0  0  0  0  0  0  0  0
   20.5025   -3.0321  -16.6779 O   0  0  0  0  0  0  0  0  0  0  0  0
   22.0425   -4.7678  -14.2861 C   0  0  0  0  0  0  0  0  0  0  0  0
   22.0181   -5.2027  -13.1296 O   0  0  0  0  0  0  0  0  0  0  0  0
   18.6869   -3.1742  -15.3655 O   0  0  0  0  0  0  0  0  0  0  0  0
   22.6542   -3.5107  -14.4665 O   0  0  0  0  0  0  0  0  0  0  0  0
  2  1  1  1
  3  2  1  0
  4  3  1  0
  5  4  2  0
  6  7  1  0
  6  5  1  0
  7  8  2  0
  8  4  1  0
  9  2  1  0
  9 10  2  0
 12 11  1  6
 12 14  1  0
 12 13  1  0
 14 15  1  6
 15  9  1  0
 16 14  1  0
 17 16  2  0
 18 16  1  0
 19 18  1  0
 19 20  1  1
 20 21  1  0
 21 22  2  0
 23 19  1  0
 24 23  2  0
 25 21  1  0
 26 23  1  0
M  END
$$$$
