HVD.pdb
     RDKit          3D

 26 26  0  0  1  0  0  0  0  0999 V2000
   14.2379  -11.6692  -12.5967 N   0  0  0  0  0  0  0  0  0  0  0  0
   15.2891  -10.6859  -12.6064 C   0  0  1  0  0  0  0  0  0  0  0  0
   15.9265  -10.5882  -13.9977 C   0  0  0  0  0  0  0  0  0  0  0  0
   16.5937  -11.8670  -14.2853 C   0  0  0  0  0  0  0  0  0  0  0  0
   17.9366  -12.2008  -14.0873 C   0  0  0  0  0  0  0  0  0  0  0  0
   18.1140  -13.4658  -14.4861 N   0  0  0  0  0  0  0  0  0  0  0  0
   16.9354  -13.9388  -14.9264 C   0  0  0  0  0  0  0  0  0  0  0  0
   16.0066  -12.9620  -14.8038 N   0  0  0  0  0  0  0  0  0  0  0  0
   14.8149   -9.3672  -12.1291 C   0  0  0  0  0  0  0  0  0  0  0  0
   13.7610   -8.8352  -12.6021 O   0  0  0  0  0  0  0  0  0  0  0  0
   13.6142   -8.3533   -8.8039 C   0  0  0  0  0  0  0  0  0  0  0  0
   14.6431   -7.3473   -9.1894 C   0  0  1  0  0  0  0  0  0  0  0  0
   15.8941   -7.6422   -8.3843 C   0  0  0  0  0  0  0  0  0  0  0  0
   14.9704   -7.3226  -10.6513 C   0  0  2  0  0  0  0  0  0  0  0  0
   15.4746   -8.5945  -11.1258 N   0  0  0  0  0  0  0  0  0  0  0  0
   15.8936   -6.2493  -11.0423 C   0  0  0  0  0  0  0  0  0  0  0  0
   17.1477   -6.3656  -11.0660 O   0  0  0  0  0  0  0  0  0  0  0  0
   15.3771   -4.9816  -11.4255 N   0  0  0  0  0  0  0  0  0  0  0  0
   16.2933   -3.8706  -11.8487 C   0  0  1  0  0  0  0  0  0  0  0  0
   15.9512   -3.5098  -13.2575 C   0  0  0  0  0  0  0  0  0  0  0  0
   16.6282   -2.3566  -13.7793 C   0  0  0  0  0  0  0  0  0  0  0  0
   17.8281   -2.1070  -13.5925 O   0  0  0  0  0  0  0  0  0  0  0  0
   16.1950   -2.7889  -10.8669 C   0  0  0  0  0  0  0  0  0  0  0  0
   16.8852   -1.7671  -10.9489 O   0  0  0  0  0  0  0  0  0  0  0  0
   15.9207   -1.4237  -14.5589 O   0  0  0  0  0  0  0  0  0  0  0  0
   15.3067   -2.8549   -9.7742 O   0  0  0  0  0  0  0  0  0  0  0  0
  2  1  1  6
  3  2  1  0
  4  3  1  0
  5  4  2  0
  6  7  1  0
  6  5  1  0
  7  8  2  0
  8  4  1  0
  9  2  1  0
  9 10  2  0
 12 11  1  6
 12 14  1  0
 12 13  1  0
 14 15  1  1
 15  9  1  0
 16 14  1  0
 17 16  2  0
 18 16  1  0
 19 18  1  0
 19 20  1  6
 20 21  1  0
 21 22  2  0
 23 19  1  0
 24 23  2  0
 25 21  1  0
 26 23  1  0
M  END
$$$$
