HVD.pdb
     RDKit          3D

 26 26  0  0  1  0  0  0  0  0999 V2000
   27.7666  -20.9527  -16.4494 N   0  0  0  0  0  0  0  0  0  0  0  0
   26.5913  -20.3476  -15.8798 C   0  0  1  0  0  0  0  0  0  0  0  0
   25.5286  -20.1077  -16.9589 C   0  0  0  0  0  0  0  0  0  0  0  0
   26.0075  -19.0322  -17.8406 C   0  0  0  0  0  0  0  0  0  0  0  0
   26.2737  -17.7009  -17.5079 C   0  0  0  0  0  0  0  0  0  0  0  0
   26.6879  -17.0706  -18.6132 N   0  0  0  0  0  0  0  0  0  0  0  0
   26.6921  -17.9539  -19.6263 C   0  0  0  0  0  0  0  0  0  0  0  0
   26.2764  -19.1524  -19.1542 N   0  0  0  0  0  0  0  0  0  0  0  0
   26.0543  -21.1412  -14.7513 C   0  0  0  0  0  0  0  0  0  0  0  0
   25.9819  -22.4094  -14.8132 O   0  0  0  0  0  0  0  0  0  0  0  0
   25.1669  -19.5482  -10.7042 C   0  0  0  0  0  0  0  0  0  0  0  0
   25.6180  -20.9110  -11.1024 C   0  0  1  0  0  0  0  0  0  0  0  0
   25.1903  -21.8712  -10.0090 C   0  0  0  0  0  0  0  0  0  0  0  0
   25.0925  -21.3772  -12.4259 C   0  0  2  0  0  0  0  0  0  0  0  0
   25.5829  -20.5757  -13.5279 N   0  0  0  0  0  0  0  0  0  0  0  0
   23.6280  -21.4653  -12.4936 C   0  0  0  0  0  0  0  0  0  0  0  0
   22.9176  -22.1113  -11.6782 O   0  0  0  0  0  0  0  0  0  0  0  0
   22.9298  -20.7917  -13.5324 N   0  0  0  0  0  0  0  0  0  0  0  0
   21.4314  -20.8354  -13.6100 C   0  0  1  0  0  0  0  0  0  0  0  0
   20.9578  -19.4840  -14.0356 C   0  0  0  0  0  0  0  0  0  0  0  0
   20.1777  -18.7710  -13.0643 C   0  0  0  0  0  0  0  0  0  0  0  0
   19.9486  -19.1792  -11.9164 O   0  0  0  0  0  0  0  0  0  0  0  0
   21.0440  -21.9529  -14.4730 C   0  0  0  0  0  0  0  0  0  0  0  0
   19.8714  -22.3324  -14.5639 O   0  0  0  0  0  0  0  0  0  0  0  0
   19.6185  -17.5235  -13.3958 O   0  0  0  0  0  0  0  0  0  0  0  0
   21.9887  -22.6566  -15.2474 O   0  0  0  0  0  0  0  0  0  0  0  0
  2  1  1  6
  3  2  1  0
  4  3  1  0
  5  4  2  0
  6  7  1  0
  6  5  1  0
  7  8  2  0
  8  4  1  0
  9  2  1  0
  9 10  2  0
 12 11  1  1
 12 14  1  0
 12 13  1  0
 14 15  1  6
 15  9  1  0
 16 14  1  0
 17 16  2  0
 18 16  1  0
 19 18  1  0
 19 20  1  6
 20 21  1  0
 21 22  2  0
 23 19  1  0
 24 23  2  0
 25 21  1  0
 26 23  1  0
M  END
$$$$
