HVD.pdb
     RDKit          3D

 26 26  0  0  1  0  0  0  0  0999 V2000
   17.2917  -12.5693  -15.9393 N   0  0  0  0  0  0  0  0  0  0  0  0
   18.6427  -12.4606  -16.4239 C   0  0  1  0  0  0  0  0  0  0  0  0
   18.9171  -13.5142  -17.5039 C   0  0  0  0  0  0  0  0  0  0  0  0
   18.6533  -14.8406  -16.9255 C   0  0  0  0  0  0  0  0  0  0  0  0
   19.1163  -15.3581  -15.7124 C   0  0  0  0  0  0  0  0  0  0  0  0
   18.6366  -16.6003  -15.5798 N   0  0  0  0  0  0  0  0  0  0  0  0
   17.8908  -16.8824  -16.6619 C   0  0  0  0  0  0  0  0  0  0  0  0
   17.9011  -15.8074  -17.4840 N   0  0  0  0  0  0  0  0  0  0  0  0
   18.9479  -11.0940  -16.9042 C   0  0  0  0  0  0  0  0  0  0  0  0
   20.0615  -10.8225  -17.4554 O   0  0  0  0  0  0  0  0  0  0  0  0
   17.4737   -6.7499  -18.6667 C   0  0  0  0  0  0  0  0  0  0  0  0
   17.3422   -8.1870  -18.2968 C   0  0  1  0  0  0  0  0  0  0  0  0
   17.4386   -8.9980  -19.5747 C   0  0  0  0  0  0  0  0  0  0  0  0
   18.3591   -8.6693  -17.3077 C   0  0  2  0  0  0  0  0  0  0  0  0
   18.0502   -9.9888  -16.7971 N   0  0  0  0  0  0  0  0  0  0  0  0
   18.5911   -7.7487  -16.1871 C   0  0  0  0  0  0  0  0  0  0  0  0
   17.7717   -7.5492  -15.2514 O   0  0  0  0  0  0  0  0  0  0  0  0
   19.8075   -7.0164  -16.1182 N   0  0  0  0  0  0  0  0  0  0  0  0
   20.0493   -6.0228  -15.0195 C   0  0  1  0  0  0  0  0  0  0  0  0
   21.5254   -5.9238  -14.8116 C   0  0  0  0  0  0  0  0  0  0  0  0
   21.9429   -5.0061  -13.7899 C   0  0  0  0  0  0  0  0  0  0  0  0
   21.1662   -4.3517  -13.0790 O   0  0  0  0  0  0  0  0  0  0  0  0
   19.3641   -4.7754  -15.3631 C   0  0  0  0  0  0  0  0  0  0  0  0
   18.5829   -4.2221  -14.5816 O   0  0  0  0  0  0  0  0  0  0  0  0
   23.3140   -4.8070  -13.5466 O   0  0  0  0  0  0  0  0  0  0  0  0
   19.5589   -4.1378  -16.6052 O   0  0  0  0  0  0  0  0  0  0  0  0
  2  1  1  6
  3  2  1  0
  4  3  1  0
  5  4  2  0
  6  7  1  0
  6  5  1  0
  7  8  2  0
  8  4  1  0
  9  2  1  0
  9 10  2  0
 12 11  1  6
 12 14  1  0
 12 13  1  0
 14 15  1  1
 15  9  1  0
 16 14  1  0
 17 16  2  0
 18 16  1  0
 19 18  1  0
 19 20  1  6
 20 21  1  0
 21 22  2  0
 23 19  1  0
 24 23  2  0
 25 21  1  0
 26 23  1  0
M  END
$$$$
