HVD.pdb
     RDKit          3D

 26 26  0  0  1  0  0  0  0  0999 V2000
   17.6823  -13.0249  -16.5333 N   0  0  0  0  0  0  0  0  0  0  0  0
   18.0382  -11.7183  -17.0214 C   0  0  1  0  0  0  0  0  0  0  0  0
   16.7927  -10.9589  -17.4941 C   0  0  0  0  0  0  0  0  0  0  0  0
   16.2559  -11.6521  -18.6751 C   0  0  0  0  0  0  0  0  0  0  0  0
   15.2957  -12.6672  -18.7149 C   0  0  0  0  0  0  0  0  0  0  0  0
   15.1046  -13.0092  -19.9943 N   0  0  0  0  0  0  0  0  0  0  0  0
   15.9069  -12.2487  -20.7589 C   0  0  0  0  0  0  0  0  0  0  0  0
   16.6103  -11.4196  -19.9529 N   0  0  0  0  0  0  0  0  0  0  0  0
   18.8017  -10.9437  -16.0171 C   0  0  0  0  0  0  0  0  0  0  0  0
   18.3369  -10.7376  -14.8513 O   0  0  0  0  0  0  0  0  0  0  0  0
   23.0546  -10.3617  -16.1657 C   0  0  0  0  0  0  0  0  0  0  0  0
   22.1709  -10.2526  -14.9714 C   0  0  1  0  0  0  0  0  0  0  0  0
   22.9078   -9.4301  -13.9318 C   0  0  0  0  0  0  0  0  0  0  0  0
   20.8286   -9.6458  -15.2453 C   0  0  2  0  0  0  0  0  0  0  0  0
   20.0891  -10.3741  -16.2553 N   0  0  0  0  0  0  0  0  0  0  0  0
   20.8742   -8.2210  -15.5989 C   0  0  0  0  0  0  0  0  0  0  0  0
   21.2091   -7.7812  -16.7308 O   0  0  0  0  0  0  0  0  0  0  0  0
   20.5249   -7.2434  -14.6278 N   0  0  0  0  0  0  0  0  0  0  0  0
   20.6290   -5.7780  -14.9355 C   0  0  1  0  0  0  0  0  0  0  0  0
   19.3823   -5.1193  -14.4420 C   0  0  0  0  0  0  0  0  0  0  0  0
   18.1840   -5.4555  -15.1572 C   0  0  0  0  0  0  0  0  0  0  0  0
   18.1253   -5.6171  -16.3849 O   0  0  0  0  0  0  0  0  0  0  0  0
   21.8854   -5.2749  -14.3769 C   0  0  0  0  0  0  0  0  0  0  0  0
   22.4512   -5.8352  -13.4317 O   0  0  0  0  0  0  0  0  0  0  0  0
   16.9753   -5.6221  -14.4571 O   0  0  0  0  0  0  0  0  0  0  0  0
   22.5179   -4.1232  -14.8877 O   0  0  0  0  0  0  0  0  0  0  0  0
  2  1  1  1
  3  2  1  0
  4  3  1  0
  5  4  2  0
  6  7  1  0
  6  5  1  0
  7  8  2  0
  8  4  1  0
  9  2  1  0
  9 10  2  0
 12 11  1  6
 12 14  1  0
 12 13  1  0
 14 15  1  6
 15  9  1  0
 16 14  1  0
 17 16  2  0
 18 16  1  0
 19 18  1  0
 19 20  1  1
 20 21  1  0
 21 22  2  0
 23 19  1  0
 24 23  2  0
 25 21  1  0
 26 23  1  0
M  END
$$$$
