HVD.pdb
     RDKit          3D

 26 26  0  0  1  0  0  0  0  0999 V2000
   18.4502  -12.5932  -16.2104 N   0  0  0  0  0  0  0  0  0  0  0  0
   18.6806  -11.2355  -16.6293 C   0  0  1  0  0  0  0  0  0  0  0  0
   17.3630  -10.5618  -17.0315 C   0  0  0  0  0  0  0  0  0  0  0  0
   16.8370  -11.2577  -18.2157 C   0  0  0  0  0  0  0  0  0  0  0  0
   17.3868  -11.3072  -19.4999 C   0  0  0  0  0  0  0  0  0  0  0  0
   16.5816  -12.0493  -20.2689 N   0  0  0  0  0  0  0  0  0  0  0  0
   15.5483  -12.4675  -19.5179 C   0  0  0  0  0  0  0  0  0  0  0  0
   15.7043  -11.9839  -18.2635 N   0  0  0  0  0  0  0  0  0  0  0  0
   19.4004  -10.4549  -15.5977 C   0  0  0  0  0  0  0  0  0  0  0  0
   18.9647  -10.3791  -14.4053 O   0  0  0  0  0  0  0  0  0  0  0  0
   22.7097  -10.8789  -14.0939 C   0  0  0  0  0  0  0  0  0  0  0  0
   22.6527   -9.4509  -14.5148 C   0  0  1  0  0  0  0  0  0  0  0  0
   23.5409   -9.2987  -15.7347 C   0  0  0  0  0  0  0  0  0  0  0  0
   21.2747   -8.9480  -14.8201 C   0  0  2  0  0  0  0  0  0  0  0  0
   20.6115   -9.7375  -15.8370 N   0  0  0  0  0  0  0  0  0  0  0  0
   21.2214   -7.5267  -15.1863 C   0  0  0  0  0  0  0  0  0  0  0  0
   21.3857   -7.0887  -16.3559 O   0  0  0  0  0  0  0  0  0  0  0  0
   20.9703   -6.5506  -14.1839 N   0  0  0  0  0  0  0  0  0  0  0  0
   20.9814   -5.0861  -14.5124 C   0  0  1  0  0  0  0  0  0  0  0  0
   19.6410   -4.5296  -14.1580 C   0  0  0  0  0  0  0  0  0  0  0  0
   19.4958   -3.1128  -14.3372 C   0  0  0  0  0  0  0  0  0  0  0  0
   19.6340   -2.2766  -13.4326 O   0  0  0  0  0  0  0  0  0  0  0  0
   22.1295   -4.4697  -13.8450 C   0  0  0  0  0  0  0  0  0  0  0  0
   22.6337   -4.9579  -12.8278 O   0  0  0  0  0  0  0  0  0  0  0  0
   19.1763   -2.5978  -15.6066 O   0  0  0  0  0  0  0  0  0  0  0  0
   22.7221   -3.2850  -14.3273 O   0  0  0  0  0  0  0  0  0  0  0  0
  2  1  1  1
  3  2  1  0
  4  3  1  0
  5  4  2  0
  6  7  1  0
  6  5  1  0
  7  8  2  0
  8  4  1  0
  9  2  1  0
  9 10  2  0
 12 11  1  6
 12 14  1  0
 12 13  1  0
 14 15  1  6
 15  9  1  0
 16 14  1  0
 17 16  2  0
 18 16  1  0
 19 18  1  0
 19 20  1  1
 20 21  1  0
 21 22  2  0
 23 19  1  0
 24 23  2  0
 25 21  1  0
 26 23  1  0
M  END
$$$$
