MVC.pdb
     RDKit          3D

 22 21  0  0  1  0  0  0  0  0999 V2000
   27.0272  -14.8618  -15.2196 C   0  0  0  0  0  0  0  0  0  0  0  0
   25.6845  -15.9404  -15.7698 S   0  0  0  0  0  0  0  0  0  0  0  0
   25.1548  -15.5099  -17.4410 C   0  0  0  0  0  0  0  0  0  0  0  0
   24.7545  -14.0519  -17.4505 C   0  0  0  0  0  0  0  0  0  0  0  0
   24.3046  -13.6977  -18.8400 C   0  0  2  0  0  0  0  0  0  0  0  0
   25.3151  -13.8760  -19.8507 N   0  0  0  0  0  0  0  0  0  0  0  0
   23.8946  -12.2540  -18.8145 C   0  0  0  0  0  0  0  0  0  0  0  0
   24.7893  -11.3742  -18.8353 O   0  0  0  0  0  0  0  0  0  0  0  0
   21.9171  -10.4938  -21.3112 C   0  0  0  0  0  0  0  0  0  0  0  0
   21.3377  -10.2134  -19.9764 C   0  0  1  0  0  0  0  0  0  0  0  0
   20.0730  -11.0336  -19.6880 C   0  0  0  0  0  0  0  0  0  0  0  0
   22.2457  -10.4070  -18.7978 C   0  0  2  0  0  0  0  0  0  0  0  0
   22.5431  -11.8394  -18.7682 N   0  0  0  0  0  0  0  0  0  0  0  0
   21.6967   -9.9457  -17.5107 C   0  0  0  0  0  0  0  0  0  0  0  0
   20.9899  -10.7903  -16.8600 O   0  0  0  0  0  0  0  0  0  0  0  0
   21.8570   -8.6967  -16.9158 N   0  0  0  0  0  0  0  0  0  0  0  0
   21.2809   -8.3826  -15.6516 C   0  0  1  0  0  0  0  0  0  0  0  0
   22.2780   -8.3307  -14.5221 C   0  0  0  0  0  0  0  0  0  0  0  0
   21.4862   -7.7690  -12.9871 S   0  0  0  0  0  0  0  0  0  0  0  0
   20.5760   -7.0762  -15.7268 C   0  0  0  0  0  0  0  0  0  0  0  0
   20.9137   -6.2423  -16.6042 O   0  0  0  0  0  0  0  0  0  0  0  0
   19.5532   -6.7297  -14.8668 O   0  0  0  0  0  0  0  0  0  0  0  0
  2  1  1  0
  3  2  1  0
  3  4  1  0
  4  5  1  0
  5  7  1  0
  5  6  1  6
  7  8  2  0
 10  9  1  6
 10 12  1  0
 10 11  1  0
 12 14  1  0
 13  7  1  0
 12 13  1  1
 14 16  1  0
 15 14  2  0
 16 17  1  0
 17 18  1  1
 18 19  1  0
 20 22  1  0
 20 17  1  0
 21 20  2  0
M  END
$$$$
