MVC.pdb
     RDKit          3D

 22 21  0  0  1  0  0  0  0  0999 V2000
   29.0951  -25.9761  -15.6166 C   0  0  0  0  0  0  0  0  0  0  0  0
   28.7460  -25.6507  -17.3605 S   0  0  0  0  0  0  0  0  0  0  0  0
   28.3669  -23.9061  -17.6277 C   0  0  0  0  0  0  0  0  0  0  0  0
   27.3944  -23.4630  -16.5582 C   0  0  0  0  0  0  0  0  0  0  0  0
   27.0974  -22.0049  -16.7685 C   0  0  2  0  0  0  0  0  0  0  0  0
   28.2222  -21.1349  -16.5396 N   0  0  0  0  0  0  0  0  0  0  0  0
   25.9990  -21.6379  -15.8137 C   0  0  0  0  0  0  0  0  0  0  0  0
   26.2763  -21.5169  -14.5957 O   0  0  0  0  0  0  0  0  0  0  0  0
   24.4642  -18.7332  -15.1220 C   0  0  0  0  0  0  0  0  0  0  0  0
   23.3429  -19.6736  -15.3549 C   0  0  1  0  0  0  0  0  0  0  0  0
   22.6969  -19.5051  -16.7368 C   0  0  0  0  0  0  0  0  0  0  0  0
   23.6519  -21.1344  -15.2074 C   0  0  2  0  0  0  0  0  0  0  0  0
   24.6631  -21.4218  -16.2251 N   0  0  0  0  0  0  0  0  0  0  0  0
   22.4890  -22.0296  -15.3379 C   0  0  0  0  0  0  0  0  0  0  0  0
   22.1248  -22.3167  -16.5300 O   0  0  0  0  0  0  0  0  0  0  0  0
   21.7375  -22.6031  -14.3151 N   0  0  0  0  0  0  0  0  0  0  0  0
   20.6294  -23.4580  -14.5799 C   0  0  1  0  0  0  0  0  0  0  0  0
   20.5061  -24.6132  -13.6192 C   0  0  0  0  0  0  0  0  0  0  0  0
   22.1001  -25.4606  -13.4205 S   0  0  0  0  0  0  0  0  0  0  0  0
   19.3667  -22.6745  -14.5494 C   0  0  0  0  0  0  0  0  0  0  0  0
   19.3994  -21.4640  -14.2132 O   0  0  0  0  0  0  0  0  0  0  0  0
   18.1418  -23.2204  -14.8773 O   0  0  0  0  0  0  0  0  0  0  0  0
  2  1  1  0
  3  2  1  0
  3  4  1  0
  4  5  1  0
  5  7  1  0
  5  6  1  1
  7  8  2  0
 10  9  1  6
 10 12  1  0
 10 11  1  0
 12 14  1  0
 13  7  1  0
 12 13  1  6
 14 16  1  0
 15 14  2  0
 16 17  1  0
 17 18  1  1
 18 19  1  0
 20 22  1  0
 20 17  1  0
 21 20  2  0
M  END
$$$$
