MVC.pdb
     RDKit          3D

 22 21  0  0  1  0  0  0  0  0999 V2000
   30.8832  -22.8517  -10.4861 C   0  0  0  0  0  0  0  0  0  0  0  0
   31.6364  -21.4734  -11.3816 S   0  0  0  0  0  0  0  0  0  0  0  0
   30.4130  -20.6184  -12.3969 C   0  0  0  0  0  0  0  0  0  0  0  0
   29.7598  -21.6333  -13.3075 C   0  0  0  0  0  0  0  0  0  0  0  0
   28.7267  -20.9238  -14.1368 C   0  0  2  0  0  0  0  0  0  0  0  0
   29.2616  -19.8975  -14.9941 N   0  0  0  0  0  0  0  0  0  0  0  0
   27.7512  -20.2983  -13.1828 C   0  0  0  0  0  0  0  0  0  0  0  0
   27.8047  -19.0586  -12.9947 O   0  0  0  0  0  0  0  0  0  0  0  0
   24.3216  -21.6549  -13.2749 C   0  0  0  0  0  0  0  0  0  0  0  0
   24.4946  -20.4392  -12.4453 C   0  0  1  0  0  0  0  0  0  0  0  0
   23.3668  -20.2465  -11.4224 C   0  0  0  0  0  0  0  0  0  0  0  0
   25.7817  -20.3260  -11.6827 C   0  0  2  0  0  0  0  0  0  0  0  0
   26.7725  -21.0438  -12.4851 N   0  0  0  0  0  0  0  0  0  0  0  0
   25.7317  -20.8417  -10.3035 C   0  0  0  0  0  0  0  0  0  0  0  0
   25.6162  -22.1093  -10.1755 O   0  0  0  0  0  0  0  0  0  0  0  0
   25.7967  -20.1119   -9.1191 N   0  0  0  0  0  0  0  0  0  0  0  0
   25.7817  -20.7419   -7.8417 C   0  0  1  0  0  0  0  0  0  0  0  0
   26.3657  -19.8978   -6.7376 C   0  0  0  0  0  0  0  0  0  0  0  0
   27.7205  -18.8630   -7.3639 S   0  0  0  0  0  0  0  0  0  0  0  0
   24.3892  -21.1107   -7.4753 C   0  0  0  0  0  0  0  0  0  0  0  0
   23.4381  -20.7307   -8.2034 O   0  0  0  0  0  0  0  0  0  0  0  0
   24.0860  -21.8617   -6.3572 O   0  0  0  0  0  0  0  0  0  0  0  0
  2  1  1  0
  3  2  1  0
  3  4  1  0
  4  5  1  0
  5  7  1  0
  5  6  1  1
  7  8  2  0
 10  9  1  1
 10 12  1  0
 10 11  1  0
 12 14  1  0
 13  7  1  0
 12 13  1  6
 14 16  1  0
 15 14  2  0
 16 17  1  0
 17 18  1  1
 18 19  1  0
 20 22  1  0
 20 17  1  0
 21 20  2  0
M  END
$$$$
