MVC.pdb
     RDKit          3D

 22 21  0  0  1  0  0  0  0  0999 V2000
   27.8833  -18.2271  -15.7208 C   0  0  0  0  0  0  0  0  0  0  0  0
   27.8167  -18.9870  -17.3600 S   0  0  0  0  0  0  0  0  0  0  0  0
   26.1718  -19.6496  -17.6975 C   0  0  0  0  0  0  0  0  0  0  0  0
   25.1830  -18.5065  -17.6580 C   0  0  0  0  0  0  0  0  0  0  0  0
   24.7427  -18.3155  -16.2338 C   0  0  2  0  0  0  0  0  0  0  0  0
   23.9715  -19.4099  -15.7030 N   0  0  0  0  0  0  0  0  0  0  0  0
   23.9060  -17.0700  -16.1959 C   0  0  0  0  0  0  0  0  0  0  0  0
   22.6586  -17.1807  -16.2785 O   0  0  0  0  0  0  0  0  0  0  0  0
   25.6760  -13.3725  -15.4101 C   0  0  0  0  0  0  0  0  0  0  0  0
   24.2401  -13.6202  -15.1404 C   0  0  1  0  0  0  0  0  0  0  0  0
   23.3904  -12.3435  -15.2001 C   0  0  0  0  0  0  0  0  0  0  0  0
   23.5567  -14.6251  -16.0203 C   0  0  2  0  0  0  0  0  0  0  0  0
   24.4604  -15.7748  -16.0707 N   0  0  0  0  0  0  0  0  0  0  0  0
   23.2269  -14.1415  -17.3723 C   0  0  0  0  0  0  0  0  0  0  0  0
   24.2088  -14.0019  -18.1803 O   0  0  0  0  0  0  0  0  0  0  0  0
   21.9698  -13.8185  -17.8776 N   0  0  0  0  0  0  0  0  0  0  0  0
   21.7869  -13.3664  -19.2158 C   0  0  1  0  0  0  0  0  0  0  0  0
   20.5388  -13.8969  -19.8743 C   0  0  0  0  0  0  0  0  0  0  0  0
   20.4204  -13.3206  -21.5925 S   0  0  0  0  0  0  0  0  0  0  0  0
   21.7493  -11.8809  -19.2479 C   0  0  0  0  0  0  0  0  0  0  0  0
   21.1910  -11.2572  -18.3105 O   0  0  0  0  0  0  0  0  0  0  0  0
   22.3062  -11.1424  -20.2727 O   0  0  0  0  0  0  0  0  0  0  0  0
  2  1  1  0
  3  2  1  0
  3  4  1  0
  4  5  1  0
  5  7  1  0
  5  6  1  6
  7  8  2  0
 10  9  1  6
 10 12  1  0
 10 11  1  0
 12 14  1  0
 13  7  1  0
 12 13  1  6
 14 16  1  0
 15 14  2  0
 16 17  1  0
 17 18  1  1
 18 19  1  0
 20 22  1  0
 20 17  1  0
 21 20  2  0
M  END
$$$$
