MVC.pdb
     RDKit          3D

 22 21  0  0  1  0  0  0  0  0999 V2000
   16.3155  -17.3261  -14.7947 C   0  0  0  0  0  0  0  0  0  0  0  0
   15.8310  -17.6695  -16.5024 S   0  0  0  0  0  0  0  0  0  0  0  0
   16.9388  -16.8455  -17.6653 C   0  0  0  0  0  0  0  0  0  0  0  0
   17.4684  -15.5912  -17.0079 C   0  0  0  0  0  0  0  0  0  0  0  0
   18.4790  -14.9688  -17.9298 C   0  0  2  0  0  0  0  0  0  0  0  0
   19.6777  -15.7482  -18.1035 N   0  0  0  0  0  0  0  0  0  0  0  0
   18.8478  -13.6374  -17.3430 C   0  0  0  0  0  0  0  0  0  0  0  0
   19.8170  -13.5782  -16.5479 O   0  0  0  0  0  0  0  0  0  0  0  0
   19.1306  -10.8481  -19.6238 C   0  0  0  0  0  0  0  0  0  0  0  0
   18.6967  -10.2572  -18.3359 C   0  0  1  0  0  0  0  0  0  0  0  0
   17.3019   -9.6210  -18.4084 C   0  0  0  0  0  0  0  0  0  0  0  0
   18.6823  -11.1746  -17.1488 C   0  0  2  0  0  0  0  0  0  0  0  0
   18.1514  -12.4442  -17.6461 N   0  0  0  0  0  0  0  0  0  0  0  0
   17.9079  -10.6833  -15.9958 C   0  0  0  0  0  0  0  0  0  0  0  0
   16.6525  -10.9287  -16.0094 O   0  0  0  0  0  0  0  0  0  0  0  0
   18.3811   -9.9826  -14.8891 N   0  0  0  0  0  0  0  0  0  0  0  0
   17.5346   -9.6320  -13.7985 C   0  0  1  0  0  0  0  0  0  0  0  0
   18.1723   -9.8206  -12.4455 C   0  0  0  0  0  0  0  0  0  0  0  0
   17.1352   -9.1050  -11.1375 S   0  0  0  0  0  0  0  0  0  0  0  0
   17.1007   -8.2164  -13.9289 C   0  0  0  0  0  0  0  0  0  0  0  0
   15.9774   -7.8716  -13.4832 O   0  0  0  0  0  0  0  0  0  0  0  0
   17.8836   -7.2480  -14.5247 O   0  0  0  0  0  0  0  0  0  0  0  0
  2  1  1  0
  3  2  1  0
  3  4  1  0
  4  5  1  0
  5  7  1  0
  5  6  1  1
  7  8  2  0
 10  9  1  6
 10 12  1  0
 10 11  1  0
 12 14  1  0
 13  7  1  0
 12 13  1  6
 14 16  1  0
 15 14  2  0
 16 17  1  0
 17 18  1  1
 18 19  1  0
 20 22  1  0
 20 17  1  0
 21 20  2  0
M  END
$$$$
