MVC.pdb
     RDKit          3D

 22 21  0  0  1  0  0  0  0  0999 V2000
   29.2909  -20.1242   -5.3118 C   0  0  0  0  0  0  0  0  0  0  0  0
   28.9443  -18.9155   -6.6110 S   0  0  0  0  0  0  0  0  0  0  0  0
   27.2072  -18.9729   -7.0986 C   0  0  0  0  0  0  0  0  0  0  0  0
   27.0026  -20.1826   -7.9822 C   0  0  0  0  0  0  0  0  0  0  0  0
   25.5540  -20.2345   -8.3792 C   0  0  2  0  0  0  0  0  0  0  0  0
   24.7096  -20.9269   -7.4401 N   0  0  0  0  0  0  0  0  0  0  0  0
   25.4860  -20.9390   -9.7027 C   0  0  0  0  0  0  0  0  0  0  0  0
   25.5948  -22.1891   -9.7250 O   0  0  0  0  0  0  0  0  0  0  0  0
   23.3408  -19.1810  -12.7007 C   0  0  0  0  0  0  0  0  0  0  0  0
   23.5756  -20.6285  -12.4871 C   0  0  1  0  0  0  0  0  0  0  0  0
   23.1775  -21.4848  -13.6969 C   0  0  0  0  0  0  0  0  0  0  0  0
   24.9736  -21.0340  -12.1232 C   0  0  2  0  0  0  0  0  0  0  0  0
   25.3044  -20.2569  -10.9284 N   0  0  0  0  0  0  0  0  0  0  0  0
   25.9730  -20.8347  -13.1872 C   0  0  0  0  0  0  0  0  0  0  0  0
   26.3525  -19.6302  -13.3909 O   0  0  0  0  0  0  0  0  0  0  0  0
   26.5566  -21.8043  -13.9991 N   0  0  0  0  0  0  0  0  0  0  0  0
   27.4482  -21.4667  -15.0573 C   0  0  1  0  0  0  0  0  0  0  0  0
   28.4201  -22.5637  -15.4102 C   0  0  0  0  0  0  0  0  0  0  0  0
   29.4234  -22.0988  -16.8510 S   0  0  0  0  0  0  0  0  0  0  0  0
   26.6757  -21.1033  -16.2740 C   0  0  0  0  0  0  0  0  0  0  0  0
   25.6285  -21.7395  -16.5531 O   0  0  0  0  0  0  0  0  0  0  0  0
   27.0588  -20.0857  -17.1247 O   0  0  0  0  0  0  0  0  0  0  0  0
  2  1  1  0
  3  2  1  0
  3  4  1  0
  4  5  1  0
  5  7  1  0
  5  6  1  1
  7  8  2  0
 10  9  1  6
 10 12  1  0
 10 11  1  0
 12 14  1  0
 13  7  1  0
 12 13  1  1
 14 16  1  0
 15 14  2  0
 16 17  1  0
 17 18  1  6
 18 19  1  0
 20 22  1  0
 20 17  1  0
 21 20  2  0
M  END
$$$$
