EML.pdb
     RDKit          3D

 26 25  0  0  1  0  0  0  0  0999 V2000
    6.6825  -15.9166   18.9203 N   0  0  0  0  0  0  0  0  0  0  0  0
    7.3987  -15.2631   19.8981 C   0  0  1  0  0  0  0  0  0  0  0  0
    7.4249  -13.7693   19.7870 C   0  0  0  0  0  0  0  0  0  0  0  0
    8.0968  -13.2291   18.5705 C   0  0  0  0  0  0  0  0  0  0  0  0
    9.5324  -13.4601   18.5646 C   0  0  0  0  0  0  0  0  0  0  0  0
   10.1415  -14.0405   19.4839 O   0  0  0  0  0  0  0  0  0  0  0  0
    6.8687  -15.6304   21.2753 C   0  0  0  0  0  0  0  0  0  0  0  0
    5.6835  -15.3342   21.5113 O   0  0  0  0  0  0  0  0  0  0  0  0
   10.2886  -13.0047   17.4580 O   0  0  0  0  0  0  0  0  0  0  0  0
    4.9119  -21.1547   22.3430 C   0  0  0  0  0  0  0  0  0  0  0  0
    6.2479  -20.4174   23.3164 S   0  0  0  0  0  0  0  0  0  0  0  0
    6.2952  -18.6098   22.9286 C   0  0  0  0  0  0  0  0  0  0  0  0
    7.3648  -18.0499   23.8330 C   0  0  0  0  0  0  0  0  0  0  0  0
    7.4868  -16.5666   23.5425 C   0  0  2  0  0  0  0  0  0  0  0  0
    7.7344  -16.2722   22.1857 N   0  0  0  0  0  0  0  0  0  0  0  0
    8.3326  -15.8253   24.4631 C   0  0  0  0  0  0  0  0  0  0  0  0
    9.5846  -15.6908   24.3092 O   0  0  0  0  0  0  0  0  0  0  0  0
    8.0715  -11.7294   25.3514 C   0  0  0  0  0  0  0  0  0  0  0  0
    7.1799  -12.4504   26.2931 C   0  0  2  0  0  0  0  0  0  0  0  0
    6.2477  -11.4782   27.0461 C   0  0  0  0  0  0  0  0  0  0  0  0
    7.7732  -13.4386   27.2118 C   0  0  0  0  0  0  0  0  0  0  0  0
    8.5123  -14.5938   26.6832 C   0  0  2  0  0  0  0  0  0  0  0  0
    7.7285  -15.2226   25.5897 N   0  0  0  0  0  0  0  0  0  0  0  0
    9.0159  -15.6240   27.5752 C   0  0  0  0  0  0  0  0  0  0  0  0
    8.7096  -16.9593   27.5531 O   0  0  0  0  0  0  0  0  0  0  0  0
    9.8340  -15.2737   28.4997 O   0  0  0  0  0  0  0  0  0  0  0  0
  2  1  1  6
  3  2  1  0
  4  3  1  0
  5  4  1  0
  6  5  2  0
  7  2  1  0
  7  8  2  0
  9  5  1  0
 11 12  1  0
 11 10  1  0
 12 13  1  0
 14 13  1  6
 14 15  1  0
 15  7  1  0
 16 14  1  0
 17 16  2  0
 19 18  1  1
 19 21  1  0
 20 19  1  0
 22 21  1  1
 22 23  1  0
 22 24  1  0
 23 16  1  0
 24 25  1  0
 26 24  2  0
M  END
$$$$
