EML.pdb
     RDKit          3D

 26 25  0  0  1  0  0  0  0  0999 V2000
    9.8625  -19.3319   21.1746 N   0  0  0  0  0  0  0  0  0  0  0  0
   10.9179  -18.6525   21.7411 C   0  0  1  0  0  0  0  0  0  0  0  0
   12.2355  -18.8157   21.0470 C   0  0  0  0  0  0  0  0  0  0  0  0
   12.6269  -20.2208   20.7379 C   0  0  0  0  0  0  0  0  0  0  0  0
   13.9241  -20.3193   20.0884 C   0  0  0  0  0  0  0  0  0  0  0  0
   15.0071  -20.3054   20.7049 O   0  0  0  0  0  0  0  0  0  0  0  0
   10.6042  -17.1670   21.8273 C   0  0  0  0  0  0  0  0  0  0  0  0
   11.5413  -16.3864   21.5811 O   0  0  0  0  0  0  0  0  0  0  0  0
   13.9701  -20.4380   18.6786 O   0  0  0  0  0  0  0  0  0  0  0  0
    7.7313  -11.5225   19.5293 C   0  0  0  0  0  0  0  0  0  0  0  0
    8.0580  -13.2865   19.7687 S   0  0  0  0  0  0  0  0  0  0  0  0
    7.2074  -13.8102   21.3251 C   0  0  0  0  0  0  0  0  0  0  0  0
    7.4865  -15.2883   21.4377 C   0  0  0  0  0  0  0  0  0  0  0  0
    8.7796  -15.4576   22.2113 C   0  0  2  0  0  0  0  0  0  0  0  0
    9.2959  -16.7695   22.1741 N   0  0  0  0  0  0  0  0  0  0  0  0
    8.7860  -14.8666   23.5391 C   0  0  0  0  0  0  0  0  0  0  0  0
    8.5744  -13.6351   23.7578 O   0  0  0  0  0  0  0  0  0  0  0  0
    8.2149  -12.2528   26.5767 C   0  0  0  0  0  0  0  0  0  0  0  0
    7.3178  -13.2230   25.9019 C   0  0  2  0  0  0  0  0  0  0  0  0
    5.8365  -12.8120   26.0364 C   0  0  0  0  0  0  0  0  0  0  0  0
    7.4986  -14.6604   26.1740 C   0  0  0  0  0  0  0  0  0  0  0  0
    8.8265  -15.2781   26.0504 C   0  0  2  0  0  0  0  0  0  0  0  0
    9.0417  -15.7081   24.6453 N   0  0  0  0  0  0  0  0  0  0  0  0
    9.2378  -16.3400   26.9524 C   0  0  0  0  0  0  0  0  0  0  0  0
    9.6388  -16.2090   28.2560 O   0  0  0  0  0  0  0  0  0  0  0  0
    9.2424  -17.5429   26.5052 O   0  0  0  0  0  0  0  0  0  0  0  0
  2  1  1  6
  3  2  1  0
  4  3  1  0
  5  4  1  0
  6  5  2  0
  7  2  1  0
  7  8  2  0
  9  5  1  0
 11 12  1  0
 11 10  1  0
 12 13  1  0
 14 13  1  1
 14 15  1  0
 15  7  1  0
 16 14  1  0
 17 16  2  0
 19 18  1  1
 19 21  1  0
 20 19  1  0
 22 21  1  6
 22 23  1  0
 22 24  1  0
 23 16  1  0
 24 25  1  0
 26 24  2  0
M  END
$$$$
