EML.pdb
     RDKit          3D

 26 25  0  0  1  0  0  0  0  0999 V2000
    8.6921  -18.3437   21.3215 N   0  0  0  0  0  0  0  0  0  0  0  0
    9.9883  -17.8799   21.2893 C   0  0  1  0  0  0  0  0  0  0  0  0
   10.5630  -17.6698   19.9218 C   0  0  0  0  0  0  0  0  0  0  0  0
   10.2374  -18.7259   18.9209 C   0  0  0  0  0  0  0  0  0  0  0  0
   10.7217  -18.4123   17.5863 C   0  0  0  0  0  0  0  0  0  0  0  0
   10.1642  -17.5997   16.8235 O   0  0  0  0  0  0  0  0  0  0  0  0
   10.1011  -16.5741   22.0605 C   0  0  0  0  0  0  0  0  0  0  0  0
   11.1708  -15.9498   21.9420 O   0  0  0  0  0  0  0  0  0  0  0  0
   11.8899  -19.0604   17.1184 O   0  0  0  0  0  0  0  0  0  0  0  0
    6.4208  -11.5922   26.6883 C   0  0  0  0  0  0  0  0  0  0  0  0
    6.6682  -12.2581   25.0236 S   0  0  0  0  0  0  0  0  0  0  0  0
    7.3348  -13.9743   25.1974 C   0  0  0  0  0  0  0  0  0  0  0  0
    7.4905  -14.4720   23.7819 C   0  0  0  0  0  0  0  0  0  0  0  0
    8.9098  -14.9819   23.6240 C   0  0  2  0  0  0  0  0  0  0  0  0
    9.0084  -16.1558   22.8487 N   0  0  0  0  0  0  0  0  0  0  0  0
    9.6893  -15.0263   24.8499 C   0  0  0  0  0  0  0  0  0  0  0  0
   10.0170  -13.9928   25.5085 O   0  0  0  0  0  0  0  0  0  0  0  0
    9.5883  -14.6455   29.8831 C   0  0  0  0  0  0  0  0  0  0  0  0
   10.2962  -14.8543   28.5959 C   0  0  2  0  0  0  0  0  0  0  0  0
   10.4675  -13.5296   27.8232 C   0  0  0  0  0  0  0  0  0  0  0  0
    9.8383  -15.9354   27.7048 C   0  0  0  0  0  0  0  0  0  0  0  0
   10.7315  -16.4710   26.6677 C   0  0  2  0  0  0  0  0  0  0  0  0
   10.1046  -16.2875   25.3339 N   0  0  0  0  0  0  0  0  0  0  0  0
   11.2667  -17.8176   26.7723 C   0  0  0  0  0  0  0  0  0  0  0  0
   12.3497  -18.2223   27.5075 O   0  0  0  0  0  0  0  0  0  0  0  0
   10.6859  -18.7503   26.1093 O   0  0  0  0  0  0  0  0  0  0  0  0
  2  1  1  6
  3  2  1  0
  4  3  1  0
  5  4  1  0
  6  5  2  0
  7  2  1  0
  7  8  2  0
  9  5  1  0
 11 12  1  0
 11 10  1  0
 12 13  1  0
 14 13  1  1
 14 15  1  0
 15  7  1  0
 16 14  1  0
 17 16  2  0
 19 18  1  1
 19 21  1  0
 20 19  1  0
 22 21  1  1
 22 23  1  0
 22 24  1  0
 23 16  1  0
 24 25  1  0
 26 24  2  0
M  END
$$$$
