EML.pdb
     RDKit          3D

 26 25  0  0  1  0  0  0  0  0999 V2000
    8.4271  -18.3301   21.1558 N   0  0  0  0  0  0  0  0  0  0  0  0
    9.7760  -18.1794   21.3885 C   0  0  1  0  0  0  0  0  0  0  0  0
   10.6352  -18.0973   20.1639 C   0  0  0  0  0  0  0  0  0  0  0  0
    9.9020  -18.0984   18.8656 C   0  0  0  0  0  0  0  0  0  0  0  0
   10.7815  -17.9575   17.7164 C   0  0  0  0  0  0  0  0  0  0  0  0
   12.0192  -17.8415   17.8051 O   0  0  0  0  0  0  0  0  0  0  0  0
   10.0308  -16.9417   22.2345 C   0  0  0  0  0  0  0  0  0  0  0  0
   11.1991  -16.5141   22.2552 O   0  0  0  0  0  0  0  0  0  0  0  0
   10.2103  -17.9507   16.4213 O   0  0  0  0  0  0  0  0  0  0  0  0
    6.1669  -11.2979   26.1373 C   0  0  0  0  0  0  0  0  0  0  0  0
    6.1564  -13.0364   25.6341 S   0  0  0  0  0  0  0  0  0  0  0  0
    7.8215  -13.4289   24.9315 C   0  0  0  0  0  0  0  0  0  0  0  0
    7.6187  -14.7026   24.1493 C   0  0  0  0  0  0  0  0  0  0  0  0
    8.9874  -15.2605   23.8104 C   0  0  2  0  0  0  0  0  0  0  0  0
    8.9496  -16.3628   22.9316 N   0  0  0  0  0  0  0  0  0  0  0  0
    9.8743  -15.4512   24.9460 C   0  0  0  0  0  0  0  0  0  0  0  0
   10.7627  -14.6129   25.2884 O   0  0  0  0  0  0  0  0  0  0  0  0
    9.5512  -14.4328   29.9471 C   0  0  0  0  0  0  0  0  0  0  0  0
   10.1159  -14.8804   28.6500 C   0  0  2  0  0  0  0  0  0  0  0  0
   10.1006  -13.7455   27.6046 C   0  0  0  0  0  0  0  0  0  0  0  0
    9.6345  -16.1465   28.0688 C   0  0  0  0  0  0  0  0  0  0  0  0
   10.4102  -16.8246   27.0206 C   0  0  2  0  0  0  0  0  0  0  0  0
    9.7402  -16.6331   25.7092 N   0  0  0  0  0  0  0  0  0  0  0  0
   10.8001  -18.2162   27.1689 C   0  0  0  0  0  0  0  0  0  0  0  0
   10.5084  -19.2518   26.3206 O   0  0  0  0  0  0  0  0  0  0  0  0
   11.4884  -18.5426   28.2017 O   0  0  0  0  0  0  0  0  0  0  0  0
  2  1  1  6
  3  2  1  0
  4  3  1  0
  5  4  1  0
  6  5  2  0
  7  2  1  0
  7  8  2  0
  9  5  1  0
 11 12  1  0
 11 10  1  0
 12 13  1  0
 14 13  1  1
 14 15  1  0
 15  7  1  0
 16 14  1  0
 17 16  2  0
 19 18  1  1
 19 21  1  0
 20 19  1  0
 22 21  1  1
 22 23  1  0
 22 24  1  0
 23 16  1  0
 24 25  1  0
 26 24  2  0
M  END
$$$$
