EML.pdb
     RDKit          3D

 26 25  0  0  1  0  0  0  0  0999 V2000
    9.1676  -16.8529   19.7836 N   0  0  0  0  0  0  0  0  0  0  0  0
   10.1260  -17.2586   20.6853 C   0  0  1  0  0  0  0  0  0  0  0  0
   11.5281  -17.3007   20.1591 C   0  0  0  0  0  0  0  0  0  0  0  0
   11.7554  -18.2296   19.0152 C   0  0  0  0  0  0  0  0  0  0  0  0
   13.1274  -18.2128   18.5338 C   0  0  0  0  0  0  0  0  0  0  0  0
   13.4385  -18.0104   17.3441 O   0  0  0  0  0  0  0  0  0  0  0  0
   10.1044  -16.3660   21.9162 C   0  0  0  0  0  0  0  0  0  0  0  0
   11.0879  -15.6215   22.0796 O   0  0  0  0  0  0  0  0  0  0  0  0
   14.1743  -18.4375   19.4595 O   0  0  0  0  0  0  0  0  0  0  0  0
    6.2951  -11.9125   26.0153 C   0  0  0  0  0  0  0  0  0  0  0  0
    5.9272  -13.6720   25.8049 S   0  0  0  0  0  0  0  0  0  0  0  0
    7.5374  -14.5712   25.6680 C   0  0  0  0  0  0  0  0  0  0  0  0
    7.5097  -15.2043   24.2991 C   0  0  0  0  0  0  0  0  0  0  0  0
    8.8630  -15.8442   24.0576 C   0  0  2  0  0  0  0  0  0  0  0  0
    8.9932  -16.4331   22.7827 N   0  0  0  0  0  0  0  0  0  0  0  0
    9.3504  -16.6836   25.1394 C   0  0  0  0  0  0  0  0  0  0  0  0
    9.4511  -17.9453   25.0551 O   0  0  0  0  0  0  0  0  0  0  0  0
   11.1119  -13.5973   27.5898 C   0  0  0  0  0  0  0  0  0  0  0  0
   10.2788  -14.4534   28.4700 C   0  0  2  0  0  0  0  0  0  0  0  0
   10.0796  -13.8116   29.8591 C   0  0  0  0  0  0  0  0  0  0  0  0
   10.6137  -15.8840   28.5872 C   0  0  0  0  0  0  0  0  0  0  0  0
   10.4340  -16.7850   27.4401 C   0  0  2  0  0  0  0  0  0  0  0  0
    9.7321  -16.0614   26.3496 N   0  0  0  0  0  0  0  0  0  0  0  0
    9.8381  -18.0985   27.6144 C   0  0  0  0  0  0  0  0  0  0  0  0
   10.4249  -19.2062   28.1674 O   0  0  0  0  0  0  0  0  0  0  0  0
    8.6328  -18.2721   27.2094 O   0  0  0  0  0  0  0  0  0  0  0  0
  2  1  1  6
  3  2  1  0
  4  3  1  0
  5  4  1  0
  6  5  2  0
  7  2  1  0
  7  8  2  0
  9  5  1  0
 11 12  1  0
 11 10  1  0
 12 13  1  0
 14 13  1  1
 14 15  1  0
 15  7  1  0
 16 14  1  0
 17 16  2  0
 19 18  1  1
 19 21  1  0
 20 19  1  0
 22 21  1  1
 22 23  1  0
 22 24  1  0
 23 16  1  0
 24 25  1  0
 26 24  2  0
M  END
$$$$
