EML.pdb
     RDKit          3D

 26 25  0  0  1  0  0  0  0  0999 V2000
    8.6073  -18.5641   21.5648 N   0  0  0  0  0  0  0  0  0  0  0  0
    9.7656  -17.8773   21.2769 C   0  0  1  0  0  0  0  0  0  0  0  0
    9.9481  -17.4971   19.8393 C   0  0  0  0  0  0  0  0  0  0  0  0
    9.7258  -18.5935   18.8536 C   0  0  0  0  0  0  0  0  0  0  0  0
    9.8117  -18.1429   17.4738 C   0  0  0  0  0  0  0  0  0  0  0  0
    8.8299  -18.0694   16.7098 O   0  0  0  0  0  0  0  0  0  0  0  0
    9.8541  -16.6147   22.1198 C   0  0  0  0  0  0  0  0  0  0  0  0
   10.8618  -15.9044   21.9518 O   0  0  0  0  0  0  0  0  0  0  0  0
   11.0755  -17.7646   16.9608 O   0  0  0  0  0  0  0  0  0  0  0  0
    6.1495  -11.3006   26.2156 C   0  0  0  0  0  0  0  0  0  0  0  0
    6.1082  -12.6287   24.9867 S   0  0  0  0  0  0  0  0  0  0  0  0
    7.4146  -13.8564   25.4409 C   0  0  0  0  0  0  0  0  0  0  0  0
    7.3261  -14.9235   24.3784 C   0  0  0  0  0  0  0  0  0  0  0  0
    8.7387  -15.2606   23.9421 C   0  0  2  0  0  0  0  0  0  0  0  0
    8.8097  -16.3287   23.0240 N   0  0  0  0  0  0  0  0  0  0  0  0
    9.7115  -15.3518   25.0182 C   0  0  0  0  0  0  0  0  0  0  0  0
   10.3607  -14.3559   25.4607 O   0  0  0  0  0  0  0  0  0  0  0  0
   11.3568  -13.9930   27.9289 C   0  0  0  0  0  0  0  0  0  0  0  0
   10.1779  -14.8555   28.1896 C   0  0  2  0  0  0  0  0  0  0  0  0
    9.5494  -14.5534   29.5661 C   0  0  0  0  0  0  0  0  0  0  0  0
   10.3014  -16.3074   27.9675 C   0  0  0  0  0  0  0  0  0  0  0  0
   10.8969  -16.8205   26.7256 C   0  0  2  0  0  0  0  0  0  0  0  0
    9.9470  -16.6170   25.6023 N   0  0  0  0  0  0  0  0  0  0  0  0
   11.4414  -18.1660   26.6644 C   0  0  0  0  0  0  0  0  0  0  0  0
   12.5688  -18.6312   27.2886 O   0  0  0  0  0  0  0  0  0  0  0  0
   10.8236  -19.0343   25.9495 O   0  0  0  0  0  0  0  0  0  0  0  0
  2  1  1  6
  3  2  1  0
  4  3  1  0
  5  4  1  0
  6  5  2  0
  7  2  1  0
  7  8  2  0
  9  5  1  0
 11 12  1  0
 11 10  1  0
 12 13  1  0
 14 13  1  1
 14 15  1  0
 15  7  1  0
 16 14  1  0
 17 16  2  0
 19 18  1  1
 19 21  1  0
 20 19  1  0
 22 21  1  1
 22 23  1  0
 22 24  1  0
 23 16  1  0
 24 25  1  0
 26 24  2  0
M  END
$$$$
