EML.pdb
     RDKit          3D

 26 25  0  0  1  0  0  0  0  0999 V2000
    9.9507  -18.6576   20.6177 N   0  0  0  0  0  0  0  0  0  0  0  0
   11.0550  -17.8457   20.7511 C   0  0  1  0  0  0  0  0  0  0  0  0
   11.8153  -17.5806   19.4877 C   0  0  0  0  0  0  0  0  0  0  0  0
   11.9209  -18.7345   18.5494 C   0  0  0  0  0  0  0  0  0  0  0  0
   12.9984  -18.5853   17.5845 C   0  0  0  0  0  0  0  0  0  0  0  0
   12.8203  -18.2456   16.3988 O   0  0  0  0  0  0  0  0  0  0  0  0
   10.6577  -16.5096   21.3588 C   0  0  0  0  0  0  0  0  0  0  0  0
   11.5674  -15.6731   21.5039 O   0  0  0  0  0  0  0  0  0  0  0  0
   14.3261  -18.8375   18.0053 O   0  0  0  0  0  0  0  0  0  0  0  0
    7.9586  -11.4759   19.3640 C   0  0  0  0  0  0  0  0  0  0  0  0
    7.2631  -13.1379   19.1911 S   0  0  0  0  0  0  0  0  0  0  0  0
    8.3699  -14.3083   20.0995 C   0  0  0  0  0  0  0  0  0  0  0  0
    7.7815  -14.3972   21.4856 C   0  0  0  0  0  0  0  0  0  0  0  0
    8.7547  -15.1720   22.3528 C   0  0  2  0  0  0  0  0  0  0  0  0
    9.3087  -16.3012   21.7149 N   0  0  0  0  0  0  0  0  0  0  0  0
    8.3000  -15.4333   23.7083 C   0  0  0  0  0  0  0  0  0  0  0  0
    7.3418  -16.2168   23.9860 O   0  0  0  0  0  0  0  0  0  0  0  0
    7.8590  -11.8877   26.7953 C   0  0  0  0  0  0  0  0  0  0  0  0
    7.0265  -12.8930   26.0896 C   0  0  2  0  0  0  0  0  0  0  0  0
    5.5292  -12.5232   26.1399 C   0  0  0  0  0  0  0  0  0  0  0  0
    7.2331  -14.3205   26.3932 C   0  0  0  0  0  0  0  0  0  0  0  0
    8.5511  -14.9391   26.1923 C   0  0  2  0  0  0  0  0  0  0  0  0
    8.9599  -14.7796   24.7735 N   0  0  0  0  0  0  0  0  0  0  0  0
    8.8032  -16.3043   26.6205 C   0  0  0  0  0  0  0  0  0  0  0  0
    8.9553  -16.7531   27.9061 O   0  0  0  0  0  0  0  0  0  0  0  0
    8.9061  -17.2101   25.7174 O   0  0  0  0  0  0  0  0  0  0  0  0
  2  1  1  6
  3  2  1  0
  4  3  1  0
  5  4  1  0
  6  5  2  0
  7  2  1  0
  7  8  2  0
  9  5  1  0
 11 12  1  0
 11 10  1  0
 12 13  1  0
 14 13  1  6
 14 15  1  0
 15  7  1  0
 16 14  1  0
 17 16  2  0
 19 18  1  1
 19 21  1  0
 20 19  1  0
 22 21  1  6
 22 23  1  0
 22 24  1  0
 23 16  1  0
 24 25  1  0
 26 24  2  0
M  END
$$$$
