EML.pdb
     RDKit          3D

 26 25  0  0  1  0  0  0  0  0999 V2000
    9.3177  -18.4016   19.9276 N   0  0  0  0  0  0  0  0  0  0  0  0
    8.8509  -17.1063   19.9493 C   0  0  1  0  0  0  0  0  0  0  0  0
    7.9080  -16.7432   18.8431 C   0  0  0  0  0  0  0  0  0  0  0  0
    7.9508  -17.6327   17.6472 C   0  0  0  0  0  0  0  0  0  0  0  0
    7.0087  -17.2384   16.6121 C   0  0  0  0  0  0  0  0  0  0  0  0
    6.0468  -17.9432   16.2501 O   0  0  0  0  0  0  0  0  0  0  0  0
    8.1665  -16.8139   21.2754 C   0  0  0  0  0  0  0  0  0  0  0  0
    7.5845  -15.7182   21.3702 O   0  0  0  0  0  0  0  0  0  0  0  0
    7.1853  -15.9870   15.9745 O   0  0  0  0  0  0  0  0  0  0  0  0
    6.6092  -20.0124   28.3316 C   0  0  0  0  0  0  0  0  0  0  0  0
    7.0812  -20.2970   26.6077 S   0  0  0  0  0  0  0  0  0  0  0  0
    7.1945  -18.6492   25.7758 C   0  0  0  0  0  0  0  0  0  0  0  0
    7.6771  -18.9551   24.3798 C   0  0  0  0  0  0  0  0  0  0  0  0
    7.8252  -17.6384   23.6423 C   0  0  2  0  0  0  0  0  0  0  0  0
    8.2303  -17.7823   22.2992 N   0  0  0  0  0  0  0  0  0  0  0  0
    8.5523  -16.6064   24.3626 C   0  0  0  0  0  0  0  0  0  0  0  0
    9.8173  -16.5123   24.3626 O   0  0  0  0  0  0  0  0  0  0  0  0
    6.0917  -11.6071   26.2657 C   0  0  0  0  0  0  0  0  0  0  0  0
    7.2364  -12.4584   25.8577 C   0  0  2  0  0  0  0  0  0  0  0  0
    7.3080  -12.6130   24.3240 C   0  0  0  0  0  0  0  0  0  0  0  0
    7.4298  -13.7541   26.5333 C   0  0  0  0  0  0  0  0  0  0  0  0
    8.4428  -14.7012   26.0466 C   0  0  2  0  0  0  0  0  0  0  0  0
    7.8108  -15.6576   25.1025 N   0  0  0  0  0  0  0  0  0  0  0  0
    9.2898  -15.4257   26.9785 C   0  0  0  0  0  0  0  0  0  0  0  0
   10.5307  -15.0568   27.4270 O   0  0  0  0  0  0  0  0  0  0  0  0
    8.8573  -16.5404   27.4447 O   0  0  0  0  0  0  0  0  0  0  0  0
  2  1  1  1
  3  2  1  0
  4  3  1  0
  5  4  1  0
  6  5  2  0
  7  2  1  0
  7  8  2  0
  9  5  1  0
 11 12  1  0
 11 10  1  0
 12 13  1  0
 14 13  1  1
 14 15  1  0
 15  7  1  0
 16 14  1  0
 17 16  2  0
 19 18  1  6
 19 21  1  0
 20 19  1  0
 22 21  1  1
 22 23  1  0
 22 24  1  0
 23 16  1  0
 24 25  1  0
 26 24  2  0
M  END
$$$$
