LAI.pdb
     RDKit          3D

 22 21  0  0  1  0  0  0  0  0999 V2000
   19.4950  -25.0611   -9.0455 C   0  0  0  0  0  0  0  0  0  0  0  0
   18.1173  -24.5586   -8.7647 C   0  0  2  0  0  0  0  0  0  0  0  0
   18.1263  -23.0641   -8.8004 C   0  0  0  0  0  0  0  0  0  0  0  0
   17.5612  -25.1305   -7.5002 C   0  0  0  0  0  0  0  0  0  0  0  0
   17.5802  -26.6188   -7.4280 C   0  0  2  0  0  0  0  0  0  0  0  0
   16.7322  -27.2187   -8.4245 N   0  0  0  0  0  0  0  0  0  0  0  0
   17.1321  -26.9969   -6.0400 C   0  0  0  0  0  0  0  0  0  0  0  0
   15.9466  -26.7776   -5.6819 O   0  0  0  0  0  0  0  0  0  0  0  0
   18.5519  -28.9964   -3.2476 C   0  0  0  0  0  0  0  0  0  0  0  0
   17.5590  -27.9728   -3.7634 C   0  0  2  0  0  0  0  0  0  0  0  0
   17.9935  -27.5987   -5.0980 N   0  0  0  0  0  0  0  0  0  0  0  0
   17.5008  -26.7954   -2.8825 C   0  0  0  0  0  0  0  0  0  0  0  0
   18.3987  -25.9401   -2.9349 O   0  0  0  0  0  0  0  0  0  0  0  0
   13.8759  -23.3150   -2.9851 C   0  0  0  0  0  0  0  0  0  0  0  0
   15.1250  -24.1027   -2.7282 C   0  0  0  0  0  0  0  0  0  0  0  0
   15.1328  -24.6741   -1.3230 C   0  0  2  0  0  0  0  0  0  0  0  0
   15.0814  -23.5595   -0.2985 C   0  0  0  0  0  0  0  0  0  0  0  0
   16.4321  -25.4491   -1.1144 C   0  0  2  0  0  0  0  0  0  0  0  0
   16.4327  -26.6170   -1.9690 N   0  0  0  0  0  0  0  0  0  0  0  0
   16.5649  -25.8583    0.3050 C   0  0  0  0  0  0  0  0  0  0  0  0
   16.0104  -26.9108    0.7086 O   0  0  0  0  0  0  0  0  0  0  0  0
   17.3081  -25.0660    1.1819 O   0  0  0  0  0  0  0  0  0  0  0  0
  2  1  1  1
  2  3  1  0
  4  5  1  0
  4  2  1  0
  5  6  1  6
  7  5  1  0
  8  7  2  0
 10  9  1  1
 10 12  1  0
 10 11  1  0
 11  7  1  0
 12 19  1  0
 13 12  2  0
 14 15  1  0
 16 17  1  1
 16 15  1  0
 18 16  1  0
 18 19  1  6
 20 22  1  0
 20 18  1  0
 21 20  2  0
M  END
$$$$
