LAI.pdb
     RDKit          3D

 22 21  0  0  1  0  0  0  0  0999 V2000
   17.2044  -15.6020  -16.8608 C   0  0  0  0  0  0  0  0  0  0  0  0
   18.6708  -15.3799  -17.0323 C   0  0  2  0  0  0  0  0  0  0  0  0
   19.4084  -16.5767  -16.5239 C   0  0  0  0  0  0  0  0  0  0  0  0
   19.1155  -14.0900  -16.4210 C   0  0  0  0  0  0  0  0  0  0  0  0
   18.3686  -12.8883  -16.8888 C   0  0  2  0  0  0  0  0  0  0  0  0
   18.6095  -12.6106  -18.2805 N   0  0  0  0  0  0  0  0  0  0  0  0
   18.8076  -11.7345  -16.0247 C   0  0  0  0  0  0  0  0  0  0  0  0
   18.7465  -11.8299  -14.7722 O   0  0  0  0  0  0  0  0  0  0  0  0
   20.2908   -8.3567  -16.6213 C   0  0  0  0  0  0  0  0  0  0  0  0
   19.5642   -9.3546  -15.7406 C   0  0  2  0  0  0  0  0  0  0  0  0
   19.2953  -10.5234  -16.5600 N   0  0  0  0  0  0  0  0  0  0  0  0
   18.3136   -8.7872  -15.2114 C   0  0  0  0  0  0  0  0  0  0  0  0
   17.2472   -8.9689  -15.8200 O   0  0  0  0  0  0  0  0  0  0  0  0
   16.3077   -9.5277  -10.5113 C   0  0  0  0  0  0  0  0  0  0  0  0
   16.4869   -9.1668  -11.9551 C   0  0  0  0  0  0  0  0  0  0  0  0
   16.8309   -7.6979  -12.1138 C   0  0  2  0  0  0  0  0  0  0  0  0
   15.6818   -6.8315  -11.6413 C   0  0  0  0  0  0  0  0  0  0  0  0
   17.0669   -7.4051  -13.5939 C   0  0  2  0  0  0  0  0  0  0  0  0
   18.3021   -8.0324  -14.0127 N   0  0  0  0  0  0  0  0  0  0  0  0
   17.1370   -5.9417  -13.8241 C   0  0  0  0  0  0  0  0  0  0  0  0
   16.0893   -5.2956  -14.0750 O   0  0  0  0  0  0  0  0  0  0  0  0
   18.3722   -5.2942  -13.7594 O   0  0  0  0  0  0  0  0  0  0  0  0
  2  1  1  1
  2  3  1  0
  4  5  1  0
  4  2  1  0
  5  6  1  6
  7  5  1  0
  8  7  2  0
 10  9  1  6
 10 12  1  0
 10 11  1  0
 11  7  1  0
 12 19  1  0
 13 12  2  0
 14 15  1  0
 16 17  1  6
 16 15  1  0
 18 16  1  0
 18 19  1  1
 20 22  1  0
 20 18  1  0
 21 20  2  0
M  END
$$$$
