LAI.pdb
     RDKit          3D

 22 21  0  0  1  0  0  0  0  0999 V2000
   21.7703  -12.2196  -18.0411 C   0  0  0  0  0  0  0  0  0  0  0  0
   21.0830  -11.1593  -18.8365 C   0  0  2  0  0  0  0  0  0  0  0  0
   21.9588  -10.7633  -19.9814 C   0  0  0  0  0  0  0  0  0  0  0  0
   20.6493  -10.0123  -17.9811 C   0  0  0  0  0  0  0  0  0  0  0  0
   19.7813  -10.3870  -16.8292 C   0  0  2  0  0  0  0  0  0  0  0  0
   18.5000  -10.8839  -17.2577 N   0  0  0  0  0  0  0  0  0  0  0  0
   19.6242   -9.1535  -15.9782 C   0  0  0  0  0  0  0  0  0  0  0  0
   18.9005   -8.2050  -16.3759 O   0  0  0  0  0  0  0  0  0  0  0  0
   20.4946   -8.2424  -12.4797 C   0  0  0  0  0  0  0  0  0  0  0  0
   20.0552   -7.8455  -13.8757 C   0  0  2  0  0  0  0  0  0  0  0  0
   20.2619   -9.0031  -14.7284 N   0  0  0  0  0  0  0  0  0  0  0  0
   20.8217   -6.6894  -14.3675 C   0  0  0  0  0  0  0  0  0  0  0  0
   21.8084   -6.8688  -15.0987 O   0  0  0  0  0  0  0  0  0  0  0  0
   18.2558   -2.4772  -16.2258 C   0  0  0  0  0  0  0  0  0  0  0  0
   19.3163   -3.5122  -16.0007 C   0  0  0  0  0  0  0  0  0  0  0  0
   20.2483   -3.1056  -14.8750 C   0  0  2  0  0  0  0  0  0  0  0  0
   21.0776   -1.9053  -15.2824 C   0  0  0  0  0  0  0  0  0  0  0  0
   21.2016   -4.2625  -14.5834 C   0  0  2  0  0  0  0  0  0  0  0  0
   20.4535   -5.3662  -14.0206 N   0  0  0  0  0  0  0  0  0  0  0  0
   22.2597   -3.8315  -13.6377 C   0  0  0  0  0  0  0  0  0  0  0  0
   21.9986   -3.7177  -12.4143 O   0  0  0  0  0  0  0  0  0  0  0  0
   23.5407   -3.5555  -14.1192 O   0  0  0  0  0  0  0  0  0  0  0  0
  2  1  1  1
  2  3  1  0
  4  5  1  0
  4  2  1  0
  5  6  1  6
  7  5  1  0
  8  7  2  0
 10  9  1  1
 10 12  1  0
 10 11  1  0
 11  7  1  0
 12 19  1  0
 13 12  2  0
 14 15  1  0
 16 17  1  6
 16 15  1  0
 18 16  1  0
 18 19  1  1
 20 22  1  0
 20 18  1  0
 21 20  2  0
M  END
$$$$
