LAI.pdb
     RDKit          3D

 22 21  0  0  1  0  0  0  0  0999 V2000
   22.4658  -19.1180  -13.8311 C   0  0  0  0  0  0  0  0  0  0  0  0
   21.8659  -20.1390  -12.9218 C   0  0  2  0  0  0  0  0  0  0  0  0
   20.6995  -19.5329  -12.2096 C   0  0  0  0  0  0  0  0  0  0  0  0
   22.8853  -20.7422  -12.0095 C   0  0  0  0  0  0  0  0  0  0  0  0
   24.1610  -21.1340  -12.6726 C   0  0  2  0  0  0  0  0  0  0  0  0
   23.9836  -22.2441  -13.5716 N   0  0  0  0  0  0  0  0  0  0  0  0
   25.1376  -21.4774  -11.5778 C   0  0  0  0  0  0  0  0  0  0  0  0
   24.8329  -22.3376  -10.7124 O   0  0  0  0  0  0  0  0  0  0  0  0
   28.7400  -20.8198  -10.9774 C   0  0  0  0  0  0  0  0  0  0  0  0
   27.3820  -21.2618  -10.4673 C   0  0  2  0  0  0  0  0  0  0  0  0
   26.4067  -20.8699  -11.4698 N   0  0  0  0  0  0  0  0  0  0  0  0
   27.0739  -20.6443   -9.1675 C   0  0  0  0  0  0  0  0  0  0  0  0
   26.1945  -19.7716   -9.0915 O   0  0  0  0  0  0  0  0  0  0  0  0
   28.5536  -20.9833   -3.1452 C   0  0  0  0  0  0  0  0  0  0  0  0
   27.7443  -20.4548   -4.2908 C   0  0  0  0  0  0  0  0  0  0  0  0
   28.2230  -21.0295   -5.6106 C   0  0  2  0  0  0  0  0  0  0  0  0
   29.6957  -20.7377   -5.8115 C   0  0  0  0  0  0  0  0  0  0  0  0
   27.4493  -20.3636   -6.7465 C   0  0  2  0  0  0  0  0  0  0  0  0
   27.7657  -21.0285   -7.9924 N   0  0  0  0  0  0  0  0  0  0  0  0
   27.8011  -18.9255   -6.8348 C   0  0  0  0  0  0  0  0  0  0  0  0
   28.7605  -18.5579   -7.5577 O   0  0  0  0  0  0  0  0  0  0  0  0
   27.0590  -17.9908   -6.1102 O   0  0  0  0  0  0  0  0  0  0  0  0
  2  1  1  1
  2  3  1  0
  4  5  1  0
  4  2  1  0
  5  6  1  6
  7  5  1  0
  8  7  2  0
 10  9  1  6
 10 12  1  0
 10 11  1  0
 11  7  1  0
 12 19  1  0
 13 12  2  0
 14 15  1  0
 16 17  1  6
 16 15  1  0
 18 16  1  0
 18 19  1  6
 20 22  1  0
 20 18  1  0
 21 20  2  0
M  END
$$$$
