LAI.pdb
     RDKit          3D

 22 21  0  0  1  0  0  0  0  0999 V2000
   28.3439  -22.6019  -15.1183 C   0  0  0  0  0  0  0  0  0  0  0  0
   29.1836  -21.5517  -14.4692 C   0  0  2  0  0  0  0  0  0  0  0  0
   30.4873  -22.1556  -14.0563 C   0  0  0  0  0  0  0  0  0  0  0  0
   28.4569  -20.8629  -13.3589 C   0  0  0  0  0  0  0  0  0  0  0  0
   27.1622  -20.2395  -13.7537 C   0  0  2  0  0  0  0  0  0  0  0  0
   27.3504  -19.1111  -14.6275 N   0  0  0  0  0  0  0  0  0  0  0  0
   26.4677  -19.8268  -12.4818 C   0  0  0  0  0  0  0  0  0  0  0  0
   26.9283  -18.8797  -11.7944 O   0  0  0  0  0  0  0  0  0  0  0  0
   23.1606  -20.4007  -10.9560 C   0  0  0  0  0  0  0  0  0  0  0  0
   24.6293  -20.0643  -10.7844 C   0  0  2  0  0  0  0  0  0  0  0  0
   25.2994  -20.4624  -12.0101 N   0  0  0  0  0  0  0  0  0  0  0  0
   25.2040  -20.7622   -9.6231 C   0  0  0  0  0  0  0  0  0  0  0  0
   25.5749  -21.9415   -9.7330 O   0  0  0  0  0  0  0  0  0  0  0  0
   28.3542  -18.2713   -6.0721 C   0  0  0  0  0  0  0  0  0  0  0  0
   27.7103  -19.3079   -6.9424 C   0  0  0  0  0  0  0  0  0  0  0  0
   26.5110  -19.9323   -6.2547 C   0  0  2  0  0  0  0  0  0  0  0  0
   26.9532  -20.7478   -5.0573 C   0  0  0  0  0  0  0  0  0  0  0  0
   25.8151  -20.8723   -7.2367 C   0  0  2  0  0  0  0  0  0  0  0  0
   25.3436  -20.1103   -8.3731 N   0  0  0  0  0  0  0  0  0  0  0  0
   24.6767  -21.5557   -6.5758 C   0  0  0  0  0  0  0  0  0  0  0  0
   24.8641  -22.6365   -5.9636 O   0  0  0  0  0  0  0  0  0  0  0  0
   23.4028  -20.9883   -6.6413 O   0  0  0  0  0  0  0  0  0  0  0  0
  2  1  1  1
  2  3  1  0
  4  5  1  0
  4  2  1  0
  5  6  1  6
  7  5  1  0
  8  7  2  0
 10  9  1  6
 10 12  1  0
 10 11  1  0
 11  7  1  0
 12 19  1  0
 13 12  2  0
 14 15  1  0
 16 17  1  1
 16 15  1  0
 18 16  1  0
 18 19  1  6
 20 22  1  0
 20 18  1  0
 21 20  2  0
M  END
$$$$
