LAI.pdb
     RDKit          3D

 22 21  0  0  1  0  0  0  0  0999 V2000
   14.6192  -14.3984  -19.0495 C   0  0  0  0  0  0  0  0  0  0  0  0
   14.6510  -14.7430  -17.5971 C   0  0  2  0  0  0  0  0  0  0  0  0
   13.2488  -14.8819  -17.0978 C   0  0  0  0  0  0  0  0  0  0  0  0
   15.4802  -13.7779  -16.8121 C   0  0  0  0  0  0  0  0  0  0  0  0
   16.8806  -13.6213  -17.2969 C   0  0  2  0  0  0  0  0  0  0  0  0
   17.6825  -14.7833  -17.0163 N   0  0  0  0  0  0  0  0  0  0  0  0
   17.4458  -12.3997  -16.6195 C   0  0  0  0  0  0  0  0  0  0  0  0
   17.8721  -12.4778  -15.4390 O   0  0  0  0  0  0  0  0  0  0  0  0
   18.2905   -8.9263  -17.6915 C   0  0  0  0  0  0  0  0  0  0  0  0
   18.0863   -9.9693  -16.6098 C   0  0  2  0  0  0  0  0  0  0  0  0
   17.5236  -11.1424  -17.2555 N   0  0  0  0  0  0  0  0  0  0  0  0
   17.1904   -9.4731  -15.5529 C   0  0  0  0  0  0  0  0  0  0  0  0
   15.9868   -9.7753  -15.5717 O   0  0  0  0  0  0  0  0  0  0  0  0
   15.4201   -9.3258  -10.1977 C   0  0  0  0  0  0  0  0  0  0  0  0
   15.6728   -8.3983  -11.3477 C   0  0  0  0  0  0  0  0  0  0  0  0
   16.6188   -9.0217  -12.3565 C   0  0  2  0  0  0  0  0  0  0  0  0
   17.9994   -9.1865  -11.7555 C   0  0  0  0  0  0  0  0  0  0  0  0
   16.7353   -8.0912  -13.5619 C   0  0  2  0  0  0  0  0  0  0  0  0
   17.6776   -8.6513  -14.5069 N   0  0  0  0  0  0  0  0  0  0  0  0
   17.1867   -6.7457  -13.1315 C   0  0  0  0  0  0  0  0  0  0  0  0
   16.3618   -5.9343  -12.6423 O   0  0  0  0  0  0  0  0  0  0  0  0
   18.5299   -6.3930  -13.2750 O   0  0  0  0  0  0  0  0  0  0  0  0
  2  1  1  6
  2  3  1  0
  4  5  1  0
  4  2  1  0
  5  6  1  1
  7  5  1  0
  8  7  2  0
 10  9  1  6
 10 12  1  0
 10 11  1  0
 11  7  1  0
 12 19  1  0
 13 12  2  0
 14 15  1  0
 16 17  1  1
 16 15  1  0
 18 16  1  0
 18 19  1  6
 20 22  1  0
 20 18  1  0
 21 20  2  0
M  END
$$$$
