FDR.pdb
     RDKit          3D

 31 31  0  0  1  0  0  0  0  0999 V2000
   25.8532  -21.4365   -7.7781 N   0  0  0  0  0  0  0  0  0  0  0  0
   26.5706  -20.4877   -8.6116 C   0  0  1  0  0  0  0  0  0  0  0  0
   28.0302  -20.4142   -8.2569 C   0  0  0  0  0  0  0  0  0  0  0  0
   28.0829  -19.9188   -6.8431 C   0  0  0  0  0  0  0  0  0  0  0  0
   27.8023  -18.5823   -6.6071 C   0  0  0  0  0  0  0  0  0  0  0  0
   27.8483  -18.0959   -5.3102 C   0  0  0  0  0  0  0  0  0  0  0  0
   28.1645  -18.9017   -4.2495 C   0  0  0  0  0  0  0  0  0  0  0  0
   28.4424  -20.2328   -4.4985 C   0  0  0  0  0  0  0  0  0  0  0  0
   28.3996  -20.7267   -5.7822 C   0  0  0  0  0  0  0  0  0  0  0  0
   26.3158  -20.8505  -10.0248 C   0  0  0  0  0  0  0  0  0  0  0  0
   27.2505  -21.2934  -10.7714 O   0  0  0  0  0  0  0  0  0  0  0  0
   25.0105  -20.7004  -10.5417 N   0  0  0  0  0  0  0  0  0  0  0  0
   24.7163  -21.0226  -11.9151 C   0  0  1  0  0  0  0  0  0  0  0  0
   23.4739  -21.9070  -11.8941 C   0  0  0  0  0  0  0  0  0  0  0  0
   23.8464  -23.2795  -12.3983 C   0  0  0  0  0  0  0  0  0  0  0  0
   25.0390  -23.5163  -12.7414 O   0  0  0  0  0  0  0  0  0  0  0  0
   24.2934  -19.7454  -12.5908 C   0  0  0  0  0  0  0  0  0  0  0  0
   23.5661  -18.9097  -11.9819 O   0  0  0  0  0  0  0  0  0  0  0  0
   22.9103  -24.2891  -12.4937 O   0  0  0  0  0  0  0  0  0  0  0  0
   26.6626  -16.4098  -20.6929 N   0  0  0  0  0  0  0  0  0  0  0  0
   25.9119  -15.4331  -19.9923 C   0  0  0  0  0  0  0  0  0  0  0  0
   25.6945  -14.2803  -20.5209 N   0  0  0  0  0  0  0  0  0  0  0  0
   25.3667  -15.6633  -18.6916 N   0  0  0  0  0  0  0  0  0  0  0  0
   25.5540  -16.9054  -17.9714 C   0  0  0  0  0  0  0  0  0  0  0  0
   24.8324  -16.9546  -16.6706 C   0  0  0  0  0  0  0  0  0  0  0  0
   25.1185  -18.2492  -15.9528 C   0  0  0  0  0  0  0  0  0  0  0  0
   24.3817  -18.3766  -14.6406 C   0  0  2  0  0  0  0  0  0  0  0  0
   24.7576  -19.5609  -13.9130 N   0  0  0  0  0  0  0  0  0  0  0  0
   22.9241  -18.4061  -14.9918 C   0  0  0  0  0  0  0  0  0  0  0  0
   22.2939  -19.6107  -15.1576 O   0  0  0  0  0  0  0  0  0  0  0  0
   22.3193  -17.3339  -15.1251 O   0  0  0  0  0  0  0  0  0  0  0  0
  2  1  1  1
  2 10  1  0
  3  2  1  0
  3  4  1  0
  4  5  2  0
  4  9  1  0
  5  6  1  0
  6  7  2  0
  8  7  1  0
  9  8  2  0
 10 11  2  0
 12 10  1  0
 12 13  1  0
 13 14  1  1
 13 17  1  0
 15 14  1  0
 16 15  2  0
 17 18  2  0
 19 15  1  0
 20 21  1  0
 21 22  2  0
 21 23  1  0
 23 24  1  0
 24 25  1  0
 25 26  1  0
 27 26  1  6
 27 29  1  0
 28 27  1  0
 28 17  1  0
 29 31  2  0
 29 30  1  0
M  END
$$$$
