FDR.pdb
     RDKit          3D

 31 31  0  0  1  0  0  0  0  0999 V2000
   31.8607  -25.8422  -15.1492 N   0  0  0  0  0  0  0  0  0  0  0  0
   31.7245  -24.3965  -15.1805 C   0  0  1  0  0  0  0  0  0  0  0  0
   33.0446  -23.7088  -15.3952 C   0  0  0  0  0  0  0  0  0  0  0  0
   33.8552  -23.9869  -14.1652 C   0  0  0  0  0  0  0  0  0  0  0  0
   33.4038  -23.4821  -12.9560 C   0  0  0  0  0  0  0  0  0  0  0  0
   34.1359  -23.7197  -11.8035 C   0  0  0  0  0  0  0  0  0  0  0  0
   35.2983  -24.4427  -11.8248 C   0  0  0  0  0  0  0  0  0  0  0  0
   35.7375  -24.9406  -13.0374 C   0  0  0  0  0  0  0  0  0  0  0  0
   35.0187  -24.7109  -14.1881 C   0  0  0  0  0  0  0  0  0  0  0  0
   30.7040  -24.0646  -16.2013 C   0  0  0  0  0  0  0  0  0  0  0  0
   30.4047  -22.8531  -16.4658 O   0  0  0  0  0  0  0  0  0  0  0  0
   30.0598  -25.1170  -16.8876 N   0  0  0  0  0  0  0  0  0  0  0  0
   29.0009  -24.8493  -17.8276 C   0  0  1  0  0  0  0  0  0  0  0  0
   28.8925  -26.0828  -18.7182 C   0  0  0  0  0  0  0  0  0  0  0  0
   29.7802  -25.8911  -19.9231 C   0  0  0  0  0  0  0  0  0  0  0  0
   29.8365  -24.7604  -20.4837 O   0  0  0  0  0  0  0  0  0  0  0  0
   27.7148  -24.7991  -17.0464 C   0  0  0  0  0  0  0  0  0  0  0  0
   27.4025  -25.7437  -16.2665 O   0  0  0  0  0  0  0  0  0  0  0  0
   30.5375  -26.9274  -20.4305 O   0  0  0  0  0  0  0  0  0  0  0  0
   21.3340  -21.4930  -14.0715 N   0  0  0  0  0  0  0  0  0  0  0  0
   22.1681  -20.8500  -13.1232 C   0  0  0  0  0  0  0  0  0  0  0  0
   21.7564  -20.6637  -11.9184 N   0  0  0  0  0  0  0  0  0  0  0  0
   23.4806  -20.3818  -13.4396 N   0  0  0  0  0  0  0  0  0  0  0  0
   24.0686  -20.5256  -14.7550 C   0  0  0  0  0  0  0  0  0  0  0  0
   24.2217  -21.9414  -15.1878 C   0  0  0  0  0  0  0  0  0  0  0  0
   25.5474  -22.1464  -15.8759 C   0  0  0  0  0  0  0  0  0  0  0  0
   25.6816  -23.5087  -16.5138 C   0  0  2  0  0  0  0  0  0  0  0  0
   26.9127  -23.6527  -17.2464 N   0  0  0  0  0  0  0  0  0  0  0  0
   24.4987  -23.6516  -17.4245 C   0  0  0  0  0  0  0  0  0  0  0  0
   24.6393  -23.3850  -18.7605 O   0  0  0  0  0  0  0  0  0  0  0  0
   23.4148  -24.0095  -16.9450 O   0  0  0  0  0  0  0  0  0  0  0  0
  2  1  1  6
  2 10  1  0
  3  2  1  0
  3  4  1  0
  4  5  2  0
  4  9  1  0
  5  6  1  0
  6  7  2  0
  8  7  1  0
  9  8  2  0
 10 11  2  0
 12 10  1  0
 12 13  1  0
 13 14  1  6
 13 17  1  0
 15 14  1  0
 16 15  2  0
 17 18  2  0
 19 15  1  0
 20 21  1  0
 21 22  2  0
 21 23  1  0
 23 24  1  0
 24 25  1  0
 25 26  1  0
 27 26  1  6
 27 29  1  0
 28 27  1  0
 28 17  1  0
 29 31  2  0
 29 30  1  0
M  END
$$$$
