FDR.pdb
     RDKit          3D

 31 31  0  0  1  0  0  0  0  0999 V2000
  -23.8796  -39.1826  -53.2188 N   0  0  0  0  0  0  0  0  0  0  0  0
  -23.4369  -38.5358  -51.9960 C   0  0  1  0  0  0  0  0  0  0  0  0
  -22.7139  -39.4872  -51.0830 C   0  0  0  0  0  0  0  0  0  0  0  0
  -23.6291  -39.7098  -49.9169 C   0  0  0  0  0  0  0  0  0  0  0  0
  -23.1076  -39.5729  -48.6402 C   0  0  0  0  0  0  0  0  0  0  0  0
  -23.9298  -39.7777  -47.5435 C   0  0  0  0  0  0  0  0  0  0  0  0
  -25.2496  -40.1131  -47.6854 C   0  0  0  0  0  0  0  0  0  0  0  0
  -25.7573  -40.2465  -48.9643 C   0  0  0  0  0  0  0  0  0  0  0  0
  -24.9502  -40.0454  -50.0604 C   0  0  0  0  0  0  0  0  0  0  0  0
  -22.6363  -37.3506  -52.3806 C   0  0  0  0  0  0  0  0  0  0  0  0
  -23.0856  -36.4911  -53.2092 O   0  0  0  0  0  0  0  0  0  0  0  0
  -21.3555  -37.1800  -51.8114 N   0  0  0  0  0  0  0  0  0  0  0  0
  -20.5212  -36.0662  -52.1855 C   0  0  1  0  0  0  0  0  0  0  0  0
  -20.9103  -34.9092  -51.2711 C   0  0  0  0  0  0  0  0  0  0  0  0
  -19.9312  -33.7794  -51.4740 C   0  0  0  0  0  0  0  0  0  0  0  0
  -20.3137  -32.7151  -52.0371 O   0  0  0  0  0  0  0  0  0  0  0  0
  -19.1078  -36.4229  -51.8088 C   0  0  0  0  0  0  0  0  0  0  0  0
  -18.2813  -35.5189  -51.4962 O   0  0  0  0  0  0  0  0  0  0  0  0
  -18.6196  -33.8807  -51.0564 O   0  0  0  0  0  0  0  0  0  0  0  0
  -16.4697  -38.8472  -51.7501 N   0  0  0  0  0  0  0  0  0  0  0  0
  -17.1631  -39.9982  -52.2003 C   0  0  0  0  0  0  0  0  0  0  0  0
  -17.9618  -39.9218  -53.2062 N   0  0  0  0  0  0  0  0  0  0  0  0
  -17.0214  -41.2780  -51.5806 N   0  0  0  0  0  0  0  0  0  0  0  0
  -17.9692  -41.7900  -50.6131 C   0  0  0  0  0  0  0  0  0  0  0  0
  -19.3065  -41.1411  -50.6879 C   0  0  0  0  0  0  0  0  0  0  0  0
  -19.2111  -39.6826  -50.3183 C   0  0  0  0  0  0  0  0  0  0  0  0
  -19.7612  -38.7626  -51.3820 C   0  0  2  0  0  0  0  0  0  0  0  0
  -18.7893  -37.7998  -51.8311 N   0  0  0  0  0  0  0  0  0  0  0  0
  -20.9420  -38.0787  -50.7599 C   0  0  0  0  0  0  0  0  0  0  0  0
  -22.0872  -38.7915  -50.5228 O   0  0  0  0  0  0  0  0  0  0  0  0
  -20.8546  -36.8775  -50.4731 O   0  0  0  0  0  0  0  0  0  0  0  0
  2  1  1  6
  2 10  1  0
  3  2  1  0
  3  4  1  0
  4  5  2  0
  4  9  1  0
  5  6  1  0
  6  7  2  0
  8  7  1  0
  9  8  2  0
 10 11  2  0
 12 10  1  0
 12 13  1  0
 13 14  1  1
 13 17  1  0
 15 14  1  0
 16 15  2  0
 17 18  2  0
 19 15  1  0
 20 21  1  0
 21 22  2  0
 21 23  1  0
 23 24  1  0
 24 25  1  0
 25 26  1  0
 27 26  1  1
 27 29  1  0
 28 27  1  0
 28 17  1  0
 29 31  2  0
 29 30  1  0
M  END
$$$$
