FDR.pdb
     RDKit          3D

 31 31  0  0  1  0  0  0  0  0999 V2000
   24.9098  -18.8008  -16.4982 N   0  0  0  0  0  0  0  0  0  0  0  0
   23.5038  -18.4403  -16.5516 C   0  0  1  0  0  0  0  0  0  0  0  0
   22.8955  -18.7340  -17.8952 C   0  0  0  0  0  0  0  0  0  0  0  0
   23.5874  -17.8239  -18.8648 C   0  0  0  0  0  0  0  0  0  0  0  0
   24.5492  -18.3683  -19.7012 C   0  0  0  0  0  0  0  0  0  0  0  0
   25.2082  -17.5492  -20.6041 C   0  0  0  0  0  0  0  0  0  0  0  0
   24.9355  -16.2106  -20.6946 C   0  0  0  0  0  0  0  0  0  0  0  0
   23.9740  -15.6802  -19.8546 C   0  0  0  0  0  0  0  0  0  0  0  0
   23.3132  -16.4841  -18.9543 C   0  0  0  0  0  0  0  0  0  0  0  0
   22.8238  -19.1206  -15.4253 C   0  0  0  0  0  0  0  0  0  0  0  0
   23.3760  -20.0926  -14.8110 O   0  0  0  0  0  0  0  0  0  0  0  0
   21.5427  -18.6743  -15.0337 N   0  0  0  0  0  0  0  0  0  0  0  0
   20.8686  -19.2595  -13.9024 C   0  0  1  0  0  0  0  0  0  0  0  0
   20.0973  -18.1297  -13.2280 C   0  0  0  0  0  0  0  0  0  0  0  0
   18.9686  -17.7038  -14.1342 C   0  0  0  0  0  0  0  0  0  0  0  0
   18.8289  -18.2586  -15.2606 O   0  0  0  0  0  0  0  0  0  0  0  0
   19.8227  -20.1973  -14.4442 C   0  0  0  0  0  0  0  0  0  0  0  0
   19.3712  -20.0446  -15.6151 O   0  0  0  0  0  0  0  0  0  0  0  0
   18.0791  -16.7171  -13.7601 O   0  0  0  0  0  0  0  0  0  0  0  0
   20.5278  -25.8953  -11.6377 N   0  0  0  0  0  0  0  0  0  0  0  0
   20.4148  -26.5746  -12.8763 C   0  0  0  0  0  0  0  0  0  0  0  0
   21.4081  -27.2494  -13.3387 N   0  0  0  0  0  0  0  0  0  0  0  0
   19.2235  -26.5510  -13.6652 N   0  0  0  0  0  0  0  0  0  0  0  0
   17.9993  -25.9203  -13.2181 C   0  0  0  0  0  0  0  0  0  0  0  0
   17.7237  -24.6168  -13.8815 C   0  0  0  0  0  0  0  0  0  0  0  0
   18.6311  -23.5419  -13.3389 C   0  0  0  0  0  0  0  0  0  0  0  0
   18.4615  -22.2131  -14.0362 C   0  0  2  0  0  0  0  0  0  0  0  0
   19.4007  -21.2256  -13.5713 N   0  0  0  0  0  0  0  0  0  0  0  0
   17.0524  -21.7823  -13.7575 C   0  0  0  0  0  0  0  0  0  0  0  0
   16.8234  -20.7243  -12.9184 O   0  0  0  0  0  0  0  0  0  0  0  0
   16.1218  -22.3970  -14.2952 O   0  0  0  0  0  0  0  0  0  0  0  0
  2  1  1  6
  2 10  1  0
  3  2  1  0
  3  4  1  0
  4  5  2  0
  4  9  1  0
  5  6  1  0
  6  7  2  0
  8  7  1  0
  9  8  2  0
 10 11  2  0
 12 10  1  0
 12 13  1  0
 13 14  1  6
 13 17  1  0
 15 14  1  0
 16 15  2  0
 17 18  2  0
 19 15  1  0
 20 21  1  0
 21 22  2  0
 21 23  1  0
 23 24  1  0
 24 25  1  0
 25 26  1  0
 27 26  1  1
 27 29  1  0
 28 27  1  0
 28 17  1  0
 29 31  2  0
 29 30  1  0
M  END
$$$$
