FDR.pdb
     RDKit          3D

 31 31  0  0  1  0  0  0  0  0999 V2000
   23.2333  -17.9951  -16.4524 N   0  0  0  0  0  0  0  0  0  0  0  0
   23.3470  -19.1203  -15.5411 C   0  0  1  0  0  0  0  0  0  0  0  0
   24.0263  -18.7395  -14.2546 C   0  0  0  0  0  0  0  0  0  0  0  0
   25.4203  -18.3375  -14.6319 C   0  0  0  0  0  0  0  0  0  0  0  0
   26.3528  -19.3385  -14.8536 C   0  0  0  0  0  0  0  0  0  0  0  0
   27.6503  -18.9956  -15.1990 C   0  0  0  0  0  0  0  0  0  0  0  0
   28.0401  -17.6895  -15.3284 C   0  0  0  0  0  0  0  0  0  0  0  0
   27.1003  -16.7007  -15.1044 C   0  0  0  0  0  0  0  0  0  0  0  0
   25.8090  -17.0295  -14.7611 C   0  0  0  0  0  0  0  0  0  0  0  0
   21.9908  -19.6864  -15.3568 C   0  0  0  0  0  0  0  0  0  0  0  0
   21.0020  -18.9431  -15.0451 O   0  0  0  0  0  0  0  0  0  0  0  0
   21.8024  -21.0744  -15.5339 N   0  0  0  0  0  0  0  0  0  0  0  0
   20.4854  -21.6564  -15.4751 C   0  0  1  0  0  0  0  0  0  0  0  0
   20.2445  -22.3166  -16.8288 C   0  0  0  0  0  0  0  0  0  0  0  0
   18.8830  -22.9669  -16.8163 C   0  0  0  0  0  0  0  0  0  0  0  0
   18.1660  -22.8948  -15.7787 O   0  0  0  0  0  0  0  0  0  0  0  0
   20.5414  -22.7837  -14.4786 C   0  0  0  0  0  0  0  0  0  0  0  0
   21.5651  -23.5215  -14.4039 O   0  0  0  0  0  0  0  0  0  0  0  0
   18.3986  -23.6423  -17.9181 O   0  0  0  0  0  0  0  0  0  0  0  0
   18.5866  -24.4027   -6.4139 N   0  0  0  0  0  0  0  0  0  0  0  0
   18.8782  -25.1920   -7.5542 C   0  0  0  0  0  0  0  0  0  0  0  0
   19.2061  -26.4290   -7.4199 N   0  0  0  0  0  0  0  0  0  0  0  0
   18.8279  -24.6754   -8.8856 N   0  0  0  0  0  0  0  0  0  0  0  0
   18.4279  -23.3164   -9.1848 C   0  0  0  0  0  0  0  0  0  0  0  0
   18.4301  -23.0010  -10.6393 C   0  0  0  0  0  0  0  0  0  0  0  0
   19.6162  -23.6365  -11.3192 C   0  0  0  0  0  0  0  0  0  0  0  0
   19.3327  -24.0525  -12.7431 C   0  0  2  0  0  0  0  0  0  0  0  0
   19.3994  -22.9458  -13.6617 N   0  0  0  0  0  0  0  0  0  0  0  0
   17.9579  -24.6513  -12.7277 C   0  0  0  0  0  0  0  0  0  0  0  0
   16.8839  -23.8854  -13.0957 O   0  0  0  0  0  0  0  0  0  0  0  0
   17.8239  -25.8321  -12.3802 O   0  0  0  0  0  0  0  0  0  0  0  0
  2  1  1  6
  2 10  1  0
  3  2  1  0
  3  4  1  0
  4  5  2  0
  4  9  1  0
  5  6  1  0
  6  7  2  0
  8  7  1  0
  9  8  2  0
 10 11  2  0
 12 10  1  0
 12 13  1  0
 13 14  1  6
 13 17  1  0
 15 14  1  0
 16 15  2  0
 17 18  2  0
 19 15  1  0
 20 21  1  0
 21 22  2  0
 21 23  1  0
 23 24  1  0
 24 25  1  0
 25 26  1  0
 27 26  1  1
 27 29  1  0
 28 27  1  0
 28 17  1  0
 29 31  2  0
 29 30  1  0
M  END
$$$$
