FDR.pdb
     RDKit          3D

 31 31  0  0  1  0  0  0  0  0999 V2000
   25.6703  -21.2770   -6.7314 N   0  0  0  0  0  0  0  0  0  0  0  0
   26.4080  -20.5848   -7.7736 C   0  0  1  0  0  0  0  0  0  0  0  0
   27.8951  -20.6755   -7.5691 C   0  0  0  0  0  0  0  0  0  0  0  0
   28.1605  -20.0692   -6.2241 C   0  0  0  0  0  0  0  0  0  0  0  0
   28.4949  -18.7255   -6.1665 C   0  0  0  0  0  0  0  0  0  0  0  0
   28.7503  -18.1399   -4.9367 C   0  0  0  0  0  0  0  0  0  0  0  0
   28.6815  -18.8540   -3.7706 C   0  0  0  0  0  0  0  0  0  0  0  0
   28.3470  -20.1935   -3.8420 C   0  0  0  0  0  0  0  0  0  0  0  0
   28.0912  -20.7854   -5.0576 C   0  0  0  0  0  0  0  0  0  0  0  0
   25.9496  -21.1185   -9.0769 C   0  0  0  0  0  0  0  0  0  0  0  0
   25.4431  -22.2855   -9.1710 O   0  0  0  0  0  0  0  0  0  0  0  0
   26.0794  -20.3104  -10.2274 N   0  0  0  0  0  0  0  0  0  0  0  0
   25.3761  -20.6340  -11.4429 C   0  0  1  0  0  0  0  0  0  0  0  0
   23.8937  -20.4222  -11.1532 C   0  0  0  0  0  0  0  0  0  0  0  0
   23.1070  -20.7192  -12.4059 C   0  0  0  0  0  0  0  0  0  0  0  0
   23.4613  -21.6733  -13.1544 O   0  0  0  0  0  0  0  0  0  0  0  0
   25.7437  -19.5879  -12.4614 C   0  0  0  0  0  0  0  0  0  0  0  0
   25.4723  -18.3706  -12.2549 O   0  0  0  0  0  0  0  0  0  0  0  0
   22.0023  -19.9697  -12.7559 O   0  0  0  0  0  0  0  0  0  0  0  0
   30.9838  -22.8782  -16.8767 N   0  0  0  0  0  0  0  0  0  0  0  0
   29.9051  -23.7176  -16.5022 C   0  0  0  0  0  0  0  0  0  0  0  0
   29.8664  -24.9404  -16.9010 N   0  0  0  0  0  0  0  0  0  0  0  0
   28.8245  -23.2685  -15.6821 N   0  0  0  0  0  0  0  0  0  0  0  0
   28.7977  -21.9568  -15.0694 C   0  0  0  0  0  0  0  0  0  0  0  0
   28.0668  -20.9388  -15.8724 C   0  0  0  0  0  0  0  0  0  0  0  0
   28.1798  -19.5775  -15.2346 C   0  0  0  0  0  0  0  0  0  0  0  0
   26.8947  -19.1142  -14.5906 C   0  0  2  0  0  0  0  0  0  0  0  0
   26.3934  -20.0576  -13.6253 N   0  0  0  0  0  0  0  0  0  0  0  0
   25.9183  -18.9298  -15.7137 C   0  0  0  0  0  0  0  0  0  0  0  0
   24.7464  -19.6385  -15.7125 O   0  0  0  0  0  0  0  0  0  0  0  0
   26.1954  -18.1361  -16.6227 O   0  0  0  0  0  0  0  0  0  0  0  0
  2  1  1  1
  2 10  1  0
  3  2  1  0
  3  4  1  0
  4  5  2  0
  4  9  1  0
  5  6  1  0
  6  7  2  0
  8  7  1  0
  9  8  2  0
 10 11  2  0
 12 10  1  0
 12 13  1  0
 13 14  1  1
 13 17  1  0
 15 14  1  0
 16 15  2  0
 17 18  2  0
 19 15  1  0
 20 21  1  0
 21 22  2  0
 21 23  1  0
 23 24  1  0
 24 25  1  0
 25 26  1  0
 27 26  1  6
 27 29  1  0
 28 27  1  0
 28 17  1  0
 29 31  2  0
 29 30  1  0
M  END
$$$$
