FDR.pdb
     RDKit          3D

 31 31  0  0  1  0  0  0  0  0999 V2000
   29.5365  -22.4791  -12.1695 N   0  0  0  0  0  0  0  0  0  0  0  0
   29.1665  -21.1520  -11.7098 C   0  0  1  0  0  0  0  0  0  0  0  0
   30.3541  -20.3737  -11.2145 C   0  0  0  0  0  0  0  0  0  0  0  0
   30.9478  -21.1935  -10.1088 C   0  0  0  0  0  0  0  0  0  0  0  0
   30.3578  -21.1283   -8.8564 C   0  0  0  0  0  0  0  0  0  0  0  0
   30.8887  -21.8719   -7.8144 C   0  0  0  0  0  0  0  0  0  0  0  0
   31.9850  -22.6736   -7.9871 C   0  0  0  0  0  0  0  0  0  0  0  0
   32.5641  -22.7296   -9.2412 C   0  0  0  0  0  0  0  0  0  0  0  0
   32.0453  -21.9956  -10.2831 C   0  0  0  0  0  0  0  0  0  0  0  0
   28.4309  -20.4859  -12.8093 C   0  0  0  0  0  0  0  0  0  0  0  0
   27.9947  -19.2937  -12.6844 O   0  0  0  0  0  0  0  0  0  0  0  0
   28.2170  -21.1935  -14.0123 N   0  0  0  0  0  0  0  0  0  0  0  0
   27.4074  -20.6355  -15.0657 C   0  0  1  0  0  0  0  0  0  0  0  0
   27.9297  -21.2272  -16.3708 C   0  0  0  0  0  0  0  0  0  0  0  0
   27.0799  -20.7183  -17.5090 C   0  0  0  0  0  0  0  0  0  0  0  0
   26.5334  -19.5826  -17.4210 O   0  0  0  0  0  0  0  0  0  0  0  0
   26.0169  -21.1878  -14.8981 C   0  0  0  0  0  0  0  0  0  0  0  0
   25.8437  -22.3937  -14.5606 O   0  0  0  0  0  0  0  0  0  0  0  0
   26.8844  -21.4676  -18.6514 O   0  0  0  0  0  0  0  0  0  0  0  0
   19.4580  -20.7409  -10.2927 N   0  0  0  0  0  0  0  0  0  0  0  0
   19.5842  -21.5042  -11.4800 C   0  0  0  0  0  0  0  0  0  0  0  0
   18.5390  -21.9874  -12.0543 N   0  0  0  0  0  0  0  0  0  0  0  0
   20.8456  -21.7766  -12.0936 N   0  0  0  0  0  0  0  0  0  0  0  0
   22.0910  -21.2218  -11.6060 C   0  0  0  0  0  0  0  0  0  0  0  0
   22.4904  -19.9618  -12.2901 C   0  0  0  0  0  0  0  0  0  0  0  0
   23.8262  -20.1263  -12.9695 C   0  0  0  0  0  0  0  0  0  0  0  0
   23.7093  -20.4472  -14.4406 C   0  0  2  0  0  0  0  0  0  0  0  0
   24.9578  -20.2835  -15.1389 N   0  0  0  0  0  0  0  0  0  0  0  0
   22.6687  -19.5124  -14.9812 C   0  0  0  0  0  0  0  0  0  0  0  0
   23.0194  -18.5865  -15.9276 O   0  0  0  0  0  0  0  0  0  0  0  0
   21.5088  -19.5989  -14.5570 O   0  0  0  0  0  0  0  0  0  0  0  0
  2  1  1  6
  2 10  1  0
  3  2  1  0
  3  4  1  0
  4  5  2  0
  4  9  1  0
  5  6  1  0
  6  7  2  0
  8  7  1  0
  9  8  2  0
 10 11  2  0
 12 10  1  0
 12 13  1  0
 13 14  1  6
 13 17  1  0
 15 14  1  0
 16 15  2  0
 17 18  2  0
 19 15  1  0
 20 21  1  0
 21 22  2  0
 21 23  1  0
 23 24  1  0
 24 25  1  0
 25 26  1  0
 27 26  1  1
 27 29  1  0
 28 27  1  0
 28 17  1  0
 29 31  2  0
 29 30  1  0
M  END
$$$$
