GIC.pdb
     RDKit          3D

 19 18  0  0  1  0  0  0  0  0999 V2000
    4.5739  -18.7562   23.2221 N   0  0  0  0  0  0  0  0  0  0  0  0
    4.9960  -18.1903   24.5018 C   0  0  0  0  0  0  0  0  0  0  0  0
    6.0269  -17.1499   24.2573 C   0  0  0  0  0  0  0  0  0  0  0  0
    6.6264  -17.1366   23.1657 O   0  0  0  0  0  0  0  0  0  0  0  0
    6.0094  -12.3293   27.1191 C   0  0  0  0  0  0  0  0  0  0  0  0
    6.2096  -13.3486   26.0297 C   0  0  0  0  0  0  0  0  0  0  0  0
    7.4291  -14.1922   26.1712 C   0  0  2  0  0  0  0  0  0  0  0  0
    8.7042  -13.3703   26.2148 C   0  0  0  0  0  0  0  0  0  0  0  0
    7.5297  -15.3684   25.2388 C   0  0  2  0  0  0  0  0  0  0  0  0
    6.3423  -16.1772   25.2325 N   0  0  0  0  0  0  0  0  0  0  0  0
    8.7611  -16.1309   25.4324 C   0  0  0  0  0  0  0  0  0  0  0  0
    8.9750  -16.7560   26.4943 O   0  0  0  0  0  0  0  0  0  0  0  0
    9.7439  -16.1832   24.4245 N   0  0  0  0  0  0  0  0  0  0  0  0
   10.8778  -17.0828   24.5436 C   0  0  1  0  0  0  0  0  0  0  0  0
   11.4188  -17.3358   23.1272 C   0  0  0  0  0  0  0  0  0  0  0  0
   11.9689  -15.7300   22.4949 S   0  0  0  0  0  0  0  0  0  0  0  0
   11.9215  -16.5731   25.4264 C   0  0  0  0  0  0  0  0  0  0  0  0
   12.9988  -17.3648   25.7577 O   0  0  0  0  0  0  0  0  0  0  0  0
   11.8531  -15.4177   25.8915 O   0  0  0  0  0  0  0  0  0  0  0  0
  2  1  1  0
  3  2  1  0
  4  3  2  0
  5  6  1  0
  7  6  1  0
  7  8  1  6
  9 10  1  1
  9  7  1  0
 10  3  1  0
 11  9  1  0
 12 11  2  0
 13 11  1  0
 14 15  1  6
 14 13  1  0
 16 15  1  0
 17 18  1  0
 17 14  1  0
 19 17  2  0
M  END
$$$$
