GIC.pdb
     RDKit          3D

 19 18  0  0  1  0  0  0  0  0999 V2000
    7.2482  -14.4627   19.9253 N   0  0  0  0  0  0  0  0  0  0  0  0
    6.5019  -14.6757   21.1639 C   0  0  0  0  0  0  0  0  0  0  0  0
    7.4244  -14.5316   22.3184 C   0  0  0  0  0  0  0  0  0  0  0  0
    8.6444  -14.7121   22.1447 O   0  0  0  0  0  0  0  0  0  0  0  0
    5.8393  -11.3518   26.6462 C   0  0  0  0  0  0  0  0  0  0  0  0
    6.5920  -12.0628   25.5535 C   0  0  0  0  0  0  0  0  0  0  0  0
    7.1161  -13.4080   25.9207 C   0  0  2  0  0  0  0  0  0  0  0  0
    7.9769  -13.3767   27.1702 C   0  0  0  0  0  0  0  0  0  0  0  0
    7.7428  -14.1990   24.8051 C   0  0  2  0  0  0  0  0  0  0  0  0
    6.9507  -14.1954   23.6065 N   0  0  0  0  0  0  0  0  0  0  0  0
    8.1597  -15.5329   25.2320 C   0  0  0  0  0  0  0  0  0  0  0  0
    7.3196  -16.4287   25.4685 O   0  0  0  0  0  0  0  0  0  0  0  0
    9.5239  -15.8472   25.3887 N   0  0  0  0  0  0  0  0  0  0  0  0
    9.9344  -17.1854   25.7763 C   0  0  1  0  0  0  0  0  0  0  0  0
   10.5792  -17.8459   24.5471 C   0  0  0  0  0  0  0  0  0  0  0  0
   12.0116  -16.8267   24.1106 S   0  0  0  0  0  0  0  0  0  0  0  0
   10.8398  -17.1967   26.9201 C   0  0  0  0  0  0  0  0  0  0  0  0
   11.2421  -18.3911   27.4757 O   0  0  0  0  0  0  0  0  0  0  0  0
   11.2605  -16.1291   27.4090 O   0  0  0  0  0  0  0  0  0  0  0  0
  2  1  1  0
  3  2  1  0
  4  3  2  0
  5  6  1  0
  7  6  1  0
  7  8  1  1
  9 10  1  6
  9  7  1  0
 10  3  1  0
 11  9  1  0
 12 11  2  0
 13 11  1  0
 14 15  1  6
 14 13  1  0
 16 15  1  0
 17 18  1  0
 17 14  1  0
 19 17  2  0
M  END
$$$$
