GIC.pdb
     RDKit          3D

 19 18  0  0  1  0  0  0  0  0999 V2000
    5.1398  -19.2446   24.2459 N   0  0  0  0  0  0  0  0  0  0  0  0
    5.3368  -18.2610   25.3089 C   0  0  0  0  0  0  0  0  0  0  0  0
    6.1768  -17.1501   24.7940 C   0  0  0  0  0  0  0  0  0  0  0  0
    6.6247  -17.2174   23.6338 O   0  0  0  0  0  0  0  0  0  0  0  0
    5.6129  -12.3200   27.2351 C   0  0  0  0  0  0  0  0  0  0  0  0
    5.9029  -13.2538   26.0907 C   0  0  0  0  0  0  0  0  0  0  0  0
    7.3038  -13.7561   26.0256 C   0  0  2  0  0  0  0  0  0  0  0  0
    8.2869  -12.6856   25.5890 C   0  0  0  0  0  0  0  0  0  0  0  0
    7.5048  -15.0581   25.2994 C   0  0  2  0  0  0  0  0  0  0  0  0
    6.4787  -16.0213   25.5885 N   0  0  0  0  0  0  0  0  0  0  0  0
    8.8616  -15.5788   25.4516 C   0  0  0  0  0  0  0  0  0  0  0  0
    9.3975  -15.6694   26.5780 O   0  0  0  0  0  0  0  0  0  0  0  0
    9.6053  -15.9949   24.3298 N   0  0  0  0  0  0  0  0  0  0  0  0
   10.9778  -16.4459   24.4787 C   0  0  1  0  0  0  0  0  0  0  0  0
   10.9933  -17.9655   24.2469 C   0  0  0  0  0  0  0  0  0  0  0  0
   10.0902  -18.7039   25.6326 S   0  0  0  0  0  0  0  0  0  0  0  0
   11.9042  -15.7635   23.5817 C   0  0  0  0  0  0  0  0  0  0  0  0
   13.2602  -15.9805   23.6875 O   0  0  0  0  0  0  0  0  0  0  0  0
   11.4827  -14.9771   22.7101 O   0  0  0  0  0  0  0  0  0  0  0  0
  2  1  1  0
  3  2  1  0
  4  3  2  0
  5  6  1  0
  7  6  1  0
  7  8  1  6
  9 10  1  1
  9  7  1  0
 10  3  1  0
 11  9  1  0
 12 11  2  0
 13 11  1  0
 14 15  1  6
 14 13  1  0
 16 15  1  0
 17 18  1  0
 17 14  1  0
 19 17  2  0
M  END
$$$$
