GIC.pdb
     RDKit          3D

 19 18  0  0  1  0  0  0  0  0999 V2000
    6.1182  -19.0735   23.9995 N   0  0  0  0  0  0  0  0  0  0  0  0
    6.0617  -18.1276   25.1123 C   0  0  0  0  0  0  0  0  0  0  0  0
    6.9830  -16.9963   24.8364 C   0  0  0  0  0  0  0  0  0  0  0  0
    7.7886  -17.0884   23.8910 O   0  0  0  0  0  0  0  0  0  0  0  0
    5.2802  -12.1044   26.5509 C   0  0  0  0  0  0  0  0  0  0  0  0
    5.9579  -13.1151   25.6649 C   0  0  0  0  0  0  0  0  0  0  0  0
    7.3632  -13.4392   26.0377 C   0  0  2  0  0  0  0  0  0  0  0  0
    8.3097  -12.2750   25.8100 C   0  0  0  0  0  0  0  0  0  0  0  0
    7.9042  -14.7382   25.5056 C   0  0  2  0  0  0  0  0  0  0  0  0
    6.9665  -15.8207   25.6201 N   0  0  0  0  0  0  0  0  0  0  0  0
    9.2306  -15.0491   26.0341 C   0  0  0  0  0  0  0  0  0  0  0  0
   10.2555  -14.4990   25.5749 O   0  0  0  0  0  0  0  0  0  0  0  0
    9.3913  -15.9798   27.0794 N   0  0  0  0  0  0  0  0  0  0  0  0
   10.7097  -16.2692   27.6152 C   0  0  1  0  0  0  0  0  0  0  0  0
   10.7741  -15.6758   29.0318 C   0  0  0  0  0  0  0  0  0  0  0  0
   10.4861  -13.8963   28.8549 S   0  0  0  0  0  0  0  0  0  0  0  0
   11.0235  -17.6940   27.6227 C   0  0  0  0  0  0  0  0  0  0  0  0
   12.1926  -18.1447   28.1945 O   0  0  0  0  0  0  0  0  0  0  0  0
   10.2404  -18.5204   27.1132 O   0  0  0  0  0  0  0  0  0  0  0  0
  2  1  1  0
  3  2  1  0
  4  3  2  0
  5  6  1  0
  7  6  1  0
  7  8  1  6
  9 10  1  1
  9  7  1  0
 10  3  1  0
 11  9  1  0
 12 11  2  0
 13 11  1  0
 14 15  1  1
 14 13  1  0
 16 15  1  0
 17 18  1  0
 17 14  1  0
 19 17  2  0
M  END
$$$$
