GIC.pdb
     RDKit          3D

 19 18  0  0  1  0  0  0  0  0999 V2000
    6.5862  -18.7937   17.5298 N   0  0  0  0  0  0  0  0  0  0  0  0
    6.2335  -18.4791   18.9128 C   0  0  0  0  0  0  0  0  0  0  0  0
    7.3377  -17.7030   19.5318 C   0  0  0  0  0  0  0  0  0  0  0  0
    8.4944  -18.1636   19.4982 O   0  0  0  0  0  0  0  0  0  0  0  0
    6.9801  -12.0901   19.9863 C   0  0  0  0  0  0  0  0  0  0  0  0
    7.4671  -13.5018   19.7966 C   0  0  0  0  0  0  0  0  0  0  0  0
    7.7115  -14.2594   21.0556 C   0  0  2  0  0  0  0  0  0  0  0  0
    8.6317  -13.5213   22.0104 C   0  0  0  0  0  0  0  0  0  0  0  0
    8.0867  -15.7071   20.8924 C   0  0  2  0  0  0  0  0  0  0  0  0
    7.1065  -16.4568   20.1566 N   0  0  0  0  0  0  0  0  0  0  0  0
    8.4777  -16.3286   22.1557 C   0  0  0  0  0  0  0  0  0  0  0  0
    7.6490  -16.4998   23.0765 O   0  0  0  0  0  0  0  0  0  0  0  0
    9.8034  -16.7537   22.3712 N   0  0  0  0  0  0  0  0  0  0  0  0
   10.1819  -17.3894   23.6210 C   0  0  1  0  0  0  0  0  0  0  0  0
   10.5804  -18.8391   23.3009 C   0  0  0  0  0  0  0  0  0  0  0  0
   11.1712  -19.5621   24.8531 S   0  0  0  0  0  0  0  0  0  0  0  0
   11.2537  -16.6866   24.3180 C   0  0  0  0  0  0  0  0  0  0  0  0
   11.4289  -16.8564   25.6735 O   0  0  0  0  0  0  0  0  0  0  0  0
   12.0233  -15.9253   23.6983 O   0  0  0  0  0  0  0  0  0  0  0  0
  2  1  1  0
  3  2  1  0
  4  3  2  0
  5  6  1  0
  7  6  1  0
  7  8  1  6
  9 10  1  1
  9  7  1  0
 10  3  1  0
 11  9  1  0
 12 11  2  0
 13 11  1  0
 14 15  1  6
 14 13  1  0
 16 15  1  0
 17 18  1  0
 17 14  1  0
 19 17  2  0
M  END
$$$$
