GIC.pdb
     RDKit          3D

 19 18  0  0  1  0  0  0  0  0999 V2000
    6.5369  -19.2421   23.4629 N   0  0  0  0  0  0  0  0  0  0  0  0
    6.3939  -18.3925   24.6435 C   0  0  0  0  0  0  0  0  0  0  0  0
    7.0609  -17.0904   24.3894 C   0  0  0  0  0  0  0  0  0  0  0  0
    7.9706  -17.0317   23.5407 O   0  0  0  0  0  0  0  0  0  0  0  0
    6.4936  -11.0701   26.1789 C   0  0  0  0  0  0  0  0  0  0  0  0
    7.2360  -12.1859   25.4934 C   0  0  0  0  0  0  0  0  0  0  0  0
    6.6454  -13.5413   25.6746 C   0  0  2  0  0  0  0  0  0  0  0  0
    6.2227  -13.8058   27.1080 C   0  0  0  0  0  0  0  0  0  0  0  0
    7.4216  -14.6843   25.0793 C   0  0  2  0  0  0  0  0  0  0  0  0
    6.6879  -15.9195   25.0868 N   0  0  0  0  0  0  0  0  0  0  0  0
    8.7680  -14.7951   25.6362 C   0  0  0  0  0  0  0  0  0  0  0  0
    9.5840  -13.8514   25.5493 O   0  0  0  0  0  0  0  0  0  0  0  0
    9.1846  -15.9720   26.2890 N   0  0  0  0  0  0  0  0  0  0  0  0
   10.2834  -15.9414   27.2382 C   0  0  1  0  0  0  0  0  0  0  0  0
    9.8295  -15.1041   28.4448 C   0  0  0  0  0  0  0  0  0  0  0  0
   10.6541  -13.4985   28.2930 S   0  0  0  0  0  0  0  0  0  0  0  0
   10.7202  -17.2711   27.6499 C   0  0  0  0  0  0  0  0  0  0  0  0
   11.8079  -17.4181   28.4820 O   0  0  0  0  0  0  0  0  0  0  0  0
   10.1171  -18.2892   27.2556 O   0  0  0  0  0  0  0  0  0  0  0  0
  2  1  1  0
  3  2  1  0
  4  3  2  0
  5  6  1  0
  7  6  1  0
  7  8  1  1
  9 10  1  1
  9  7  1  0
 10  3  1  0
 11  9  1  0
 12 11  2  0
 13 11  1  0
 14 15  1  1
 14 13  1  0
 16 15  1  0
 17 18  1  0
 17 14  1  0
 19 17  2  0
M  END
$$$$
