GIC.pdb
     RDKit          3D

 19 18  0  0  1  0  0  0  0  0999 V2000
    4.8724  -19.5859   23.6540 N   0  0  0  0  0  0  0  0  0  0  0  0
    5.3357  -18.8538   24.8311 C   0  0  0  0  0  0  0  0  0  0  0  0
    6.1311  -17.6796   24.3916 C   0  0  0  0  0  0  0  0  0  0  0  0
    6.6391  -17.6838   23.2545 O   0  0  0  0  0  0  0  0  0  0  0  0
    7.2376  -11.7638   26.1500 C   0  0  0  0  0  0  0  0  0  0  0  0
    7.5752  -12.9827   25.3338 C   0  0  0  0  0  0  0  0  0  0  0  0
    6.8936  -14.2366   25.7607 C   0  0  2  0  0  0  0  0  0  0  0  0
    6.9845  -14.4684   27.2577 C   0  0  0  0  0  0  0  0  0  0  0  0
    7.2197  -15.4695   24.9627 C   0  0  2  0  0  0  0  0  0  0  0  0
    6.3242  -16.5602   25.2321 N   0  0  0  0  0  0  0  0  0  0  0  0
    8.6326  -15.8322   25.0476 C   0  0  0  0  0  0  0  0  0  0  0  0
    9.0925  -16.4122   26.0557 O   0  0  0  0  0  0  0  0  0  0  0  0
    9.5182  -15.5378   23.9923 N   0  0  0  0  0  0  0  0  0  0  0  0
   10.7837  -16.2401   23.8716 C   0  0  1  0  0  0  0  0  0  0  0  0
   10.9681  -16.6105   22.3911 C   0  0  0  0  0  0  0  0  0  0  0  0
   10.7811  -15.0731   21.4517 S   0  0  0  0  0  0  0  0  0  0  0  0
   11.9162  -15.4669   24.3695 C   0  0  0  0  0  0  0  0  0  0  0  0
   13.1608  -16.0474   24.4753 O   0  0  0  0  0  0  0  0  0  0  0  0
   11.7737  -14.2740   24.7051 O   0  0  0  0  0  0  0  0  0  0  0  0
  2  1  1  0
  3  2  1  0
  4  3  2  0
  5  6  1  0
  7  6  1  0
  7  8  1  1
  9 10  1  1
  9  7  1  0
 10  3  1  0
 11  9  1  0
 12 11  2  0
 13 11  1  0
 14 15  1  6
 14 13  1  0
 16 15  1  0
 17 18  1  0
 17 14  1  0
 19 17  2  0
M  END
$$$$
