GIC.pdb
     RDKit          3D

 19 18  0  0  1  0  0  0  0  0999 V2000
    8.7953  -18.5096   17.2148 N   0  0  0  0  0  0  0  0  0  0  0  0
    8.0326  -18.4708   18.4610 C   0  0  0  0  0  0  0  0  0  0  0  0
    8.7146  -17.5659   19.4206 C   0  0  0  0  0  0  0  0  0  0  0  0
    9.9019  -17.7886   19.7237 O   0  0  0  0  0  0  0  0  0  0  0  0
    6.7772  -12.3112   20.0673 C   0  0  0  0  0  0  0  0  0  0  0  0
    7.6800  -13.5086   19.9358 C   0  0  0  0  0  0  0  0  0  0  0  0
    7.8324  -14.3228   21.1738 C   0  0  2  0  0  0  0  0  0  0  0  0
    8.3083  -13.5004   22.3571 C   0  0  0  0  0  0  0  0  0  0  0  0
    8.5884  -15.6149   21.0249 C   0  0  2  0  0  0  0  0  0  0  0  0
    8.0486  -16.4605   19.9963 N   0  0  0  0  0  0  0  0  0  0  0  0
    8.7886  -16.2952   22.3024 C   0  0  0  0  0  0  0  0  0  0  0  0
    7.8304  -16.8131   22.9171 O   0  0  0  0  0  0  0  0  0  0  0  0
   10.0710  -16.3872   22.8782 N   0  0  0  0  0  0  0  0  0  0  0  0
   10.2739  -17.1142   24.1190 C   0  0  1  0  0  0  0  0  0  0  0  0
   10.4726  -18.5957   23.7602 C   0  0  0  0  0  0  0  0  0  0  0  0
   11.9226  -18.6701   22.6772 S   0  0  0  0  0  0  0  0  0  0  0  0
   11.3930  -16.6043   24.9039 C   0  0  0  0  0  0  0  0  0  0  0  0
   12.1628  -15.5679   24.4239 O   0  0  0  0  0  0  0  0  0  0  0  0
   11.6670  -17.0979   26.0161 O   0  0  0  0  0  0  0  0  0  0  0  0
  2  1  1  0
  3  2  1  0
  4  3  2  0
  5  6  1  0
  7  6  1  0
  7  8  1  1
  9 10  1  6
  9  7  1  0
 10  3  1  0
 11  9  1  0
 12 11  2  0
 13 11  1  0
 14 15  1  6
 14 13  1  0
 16 15  1  0
 17 18  1  0
 17 14  1  0
 19 17  2  0
M  END
$$$$
