GIC.pdb
     RDKit          3D

 19 18  0  0  1  0  0  0  0  0999 V2000
    4.8815  -19.1787   23.9903 N   0  0  0  0  0  0  0  0  0  0  0  0
    5.2090  -18.1811   25.0071 C   0  0  0  0  0  0  0  0  0  0  0  0
    6.1803  -17.2108   24.4415 C   0  0  0  0  0  0  0  0  0  0  0  0
    6.6749  -17.4331   23.3203 O   0  0  0  0  0  0  0  0  0  0  0  0
    7.9492  -12.3320   27.3664 C   0  0  0  0  0  0  0  0  0  0  0  0
    7.5662  -13.6877   26.8360 C   0  0  0  0  0  0  0  0  0  0  0  0
    7.4704  -13.7807   25.3524 C   0  0  2  0  0  0  0  0  0  0  0  0
    6.2682  -13.0385   24.7985 C   0  0  0  0  0  0  0  0  0  0  0  0
    7.6212  -15.1581   24.7665 C   0  0  2  0  0  0  0  0  0  0  0  0
    6.5552  -16.0439   25.1447 N   0  0  0  0  0  0  0  0  0  0  0  0
    8.9548  -15.7144   24.9836 C   0  0  0  0  0  0  0  0  0  0  0  0
    9.2205  -16.3766   26.0108 O   0  0  0  0  0  0  0  0  0  0  0  0
    9.9810  -15.5198   24.0382 N   0  0  0  0  0  0  0  0  0  0  0  0
   11.1113  -16.4296   23.9763 C   0  0  1  0  0  0  0  0  0  0  0  0
   11.3462  -16.7760   22.4972 C   0  0  0  0  0  0  0  0  0  0  0  0
   11.5346  -18.5758   22.4167 S   0  0  0  0  0  0  0  0  0  0  0  0
   12.3173  -15.8855   24.5912 C   0  0  0  0  0  0  0  0  0  0  0  0
   13.4205  -16.6870   24.7847 O   0  0  0  0  0  0  0  0  0  0  0  0
   12.3657  -14.6914   24.9487 O   0  0  0  0  0  0  0  0  0  0  0  0
  2  1  1  0
  3  2  1  0
  4  3  2  0
  5  6  1  0
  7  6  1  0
  7  8  1  1
  9 10  1  1
  9  7  1  0
 10  3  1  0
 11  9  1  0
 12 11  2  0
 13 11  1  0
 14 15  1  6
 14 13  1  0
 16 15  1  0
 17 18  1  0
 17 14  1  0
 19 17  2  0
M  END
$$$$
