GIC.pdb
     RDKit          3D

 19 18  0  0  1  0  0  0  0  0999 V2000
    4.8600  -19.6245   23.3822 N   0  0  0  0  0  0  0  0  0  0  0  0
    5.4561  -18.9852   24.5536 C   0  0  0  0  0  0  0  0  0  0  0  0
    6.1631  -17.7511   24.1272 C   0  0  0  0  0  0  0  0  0  0  0  0
    6.5211  -17.6382   22.9396 O   0  0  0  0  0  0  0  0  0  0  0  0
    7.3323  -11.9384   26.1099 C   0  0  0  0  0  0  0  0  0  0  0  0
    7.6181  -13.1106   25.2098 C   0  0  0  0  0  0  0  0  0  0  0  0
    7.0092  -14.4000   25.6406 C   0  0  2  0  0  0  0  0  0  0  0  0
    7.2193  -14.6789   27.1174 C   0  0  0  0  0  0  0  0  0  0  0  0
    7.3120  -15.5939   24.7768 C   0  0  2  0  0  0  0  0  0  0  0  0
    6.4383  -16.7046   25.0359 N   0  0  0  0  0  0  0  0  0  0  0  0
    8.7304  -15.9449   24.7865 C   0  0  0  0  0  0  0  0  0  0  0  0
    9.2270  -16.6064   25.7245 O   0  0  0  0  0  0  0  0  0  0  0  0
    9.5798  -15.5468   23.7355 N   0  0  0  0  0  0  0  0  0  0  0  0
   10.9413  -16.0460   23.6559 C   0  0  1  0  0  0  0  0  0  0  0  0
   11.4326  -15.8233   22.2164 C   0  0  0  0  0  0  0  0  0  0  0  0
   10.3360  -16.7892   21.1461 S   0  0  0  0  0  0  0  0  0  0  0  0
   11.8365  -15.4217   24.6240 C   0  0  0  0  0  0  0  0  0  0  0  0
   13.1473  -15.8327   24.7237 O   0  0  0  0  0  0  0  0  0  0  0  0
   11.4288  -14.5106   25.3720 O   0  0  0  0  0  0  0  0  0  0  0  0
  2  1  1  0
  3  2  1  0
  4  3  2  0
  5  6  1  0
  7  6  1  0
  7  8  1  1
  9 10  1  1
  9  7  1  0
 10  3  1  0
 11  9  1  0
 12 11  2  0
 13 11  1  0
 14 15  1  6
 14 13  1  0
 16 15  1  0
 17 18  1  0
 17 14  1  0
 19 17  2  0
M  END
$$$$
