GIC.pdb
     RDKit          3D

 19 18  0  0  1  0  0  0  0  0999 V2000
    4.8593  -19.4307   24.3211 N   0  0  0  0  0  0  0  0  0  0  0  0
    5.3431  -18.5397   25.3739 C   0  0  0  0  0  0  0  0  0  0  0  0
    6.0941  -17.4183   24.7550 C   0  0  0  0  0  0  0  0  0  0  0  0
    6.4643  -17.5186   23.5701 O   0  0  0  0  0  0  0  0  0  0  0  0
    5.8496  -12.2954   27.0220 C   0  0  0  0  0  0  0  0  0  0  0  0
    5.9986  -13.3589   25.9672 C   0  0  0  0  0  0  0  0  0  0  0  0
    7.3317  -14.0222   25.9239 C   0  0  2  0  0  0  0  0  0  0  0  0
    8.4542  -13.0533   25.6008 C   0  0  0  0  0  0  0  0  0  0  0  0
    7.4118  -15.2907   25.1193 C   0  0  2  0  0  0  0  0  0  0  0  0
    6.3975  -16.2428   25.4782 N   0  0  0  0  0  0  0  0  0  0  0  0
    8.7615  -15.8499   25.0910 C   0  0  0  0  0  0  0  0  0  0  0  0
    9.2525  -16.4070   26.0974 O   0  0  0  0  0  0  0  0  0  0  0  0
    9.5489  -15.7769   23.9251 N   0  0  0  0  0  0  0  0  0  0  0  0
   10.7201  -16.6216   23.7701 C   0  0  1  0  0  0  0  0  0  0  0  0
   10.6929  -17.1932   22.3433 C   0  0  0  0  0  0  0  0  0  0  0  0
   10.4668  -15.7819   21.2307 S   0  0  0  0  0  0  0  0  0  0  0  0
   11.9708  -15.9190   24.0358 C   0  0  0  0  0  0  0  0  0  0  0  0
   11.9639  -14.5704   24.3154 O   0  0  0  0  0  0  0  0  0  0  0  0
   13.0594  -16.5276   24.0136 O   0  0  0  0  0  0  0  0  0  0  0  0
  2  1  1  0
  3  2  1  0
  4  3  2  0
  5  6  1  0
  7  6  1  0
  7  8  1  6
  9 10  1  1
  9  7  1  0
 10  3  1  0
 11  9  1  0
 12 11  2  0
 13 11  1  0
 14 15  1  6
 14 13  1  0
 16 15  1  0
 17 18  1  0
 17 14  1  0
 19 17  2  0
M  END
$$$$
