SID.pdb
     RDKit          3D

 23 22  0  0  1  0  0  0  0  0999 V2000
   10.8819  -19.9612   17.9922 O   0  0  0  0  0  0  0  0  0  0  0  0
   10.4521  -18.9741   18.8981 C   0  0  0  0  0  0  0  0  0  0  0  0
   10.4846  -17.6340   18.1552 C   0  0  2  0  0  0  0  0  0  0  0  0
   11.7397  -17.6131   17.4278 N   0  0  0  0  0  0  0  0  0  0  0  0
   10.4584  -16.5832   19.2069 C   0  0  0  0  0  0  0  0  0  0  0  0
   11.5619  -16.0456   19.5000 O   0  0  0  0  0  0  0  0  0  0  0  0
    6.6502  -12.6929   19.4754 C   0  0  0  0  0  0  0  0  0  0  0  0
    8.0409  -13.3406   19.6016 C   0  0  0  0  0  0  0  0  0  0  0  0
    8.0561  -14.2704   20.7699 C   0  0  2  0  0  0  0  0  0  0  0  0
    7.7905  -13.4076   22.0001 C   0  0  0  0  0  0  0  0  0  0  0  0
    9.2563  -15.1366   20.9047 C   0  0  2  0  0  0  0  0  0  0  0  0
    9.2820  -16.1667   19.8797 N   0  0  0  0  0  0  0  0  0  0  0  0
    9.5159  -15.6798   22.2430 C   0  0  0  0  0  0  0  0  0  0  0  0
    9.6797  -14.8972   23.2091 O   0  0  0  0  0  0  0  0  0  0  0  0
    9.5986  -17.0778   22.5376 N   0  0  0  0  0  0  0  0  0  0  0  0
    9.7949  -17.5819   23.8735 C   0  0  1  0  0  0  0  0  0  0  0  0
    9.3329  -19.0141   24.0226 C   0  0  0  0  0  0  0  0  0  0  0  0
    9.9316  -19.8984   22.9935 C   0  0  0  0  0  0  0  0  0  0  0  0
   10.9420  -19.5124   22.3571 O   0  0  0  0  0  0  0  0  0  0  0  0
   11.2299  -17.5542   24.2011 C   0  0  0  0  0  0  0  0  0  0  0  0
   12.0675  -17.2499   23.3381 O   0  0  0  0  0  0  0  0  0  0  0  0
    9.4242  -21.1502   22.6933 O   0  0  0  0  0  0  0  0  0  0  0  0
   11.6353  -17.8690   25.4746 O   0  0  0  0  0  0  0  0  0  0  0  0
  2  1  1  0
  3  2  1  0
  3  4  1  1
  5  3  1  0
  5  6  2  0
  7  8  1  0
  8  9  1  0
  9 11  1  0
  9 10  1  1
 11 12  1  6
 11 13  1  0
 12  5  1  0
 13 15  1  0
 14 13  2  0
 15 16  1  0
 16 20  1  0
 17 18  1  0
 16 17  1  6
 18 22  1  0
 19 18  2  0
 20 21  2  0
 20 23  1  0
M  END
$$$$
