SID.pdb
     RDKit          3D

 23 22  0  0  1  0  0  0  0  0999 V2000
    9.6097  -19.7275   18.0488 O   0  0  0  0  0  0  0  0  0  0  0  0
    8.6046  -18.8709   17.5632 C   0  0  0  0  0  0  0  0  0  0  0  0
    9.2941  -17.5840   17.0970 C   0  0  2  0  0  0  0  0  0  0  0  0
   10.4809  -18.0071   16.3777 N   0  0  0  0  0  0  0  0  0  0  0  0
    9.6546  -16.8425   18.3344 C   0  0  0  0  0  0  0  0  0  0  0  0
   10.8692  -16.8651   18.6764 O   0  0  0  0  0  0  0  0  0  0  0  0
    6.4631  -12.5836   19.9882 C   0  0  0  0  0  0  0  0  0  0  0  0
    7.7581  -13.3342   19.6288 C   0  0  0  0  0  0  0  0  0  0  0  0
    8.0359  -14.3764   20.6615 C   0  0  2  0  0  0  0  0  0  0  0  0
    8.3202  -13.6221   21.9572 C   0  0  0  0  0  0  0  0  0  0  0  0
    9.0802  -15.3775   20.3203 C   0  0  2  0  0  0  0  0  0  0  0  0
    8.7220  -16.1290   19.1289 N   0  0  0  0  0  0  0  0  0  0  0  0
    9.5225  -16.2502   21.4140 C   0  0  0  0  0  0  0  0  0  0  0  0
    8.8672  -17.2843   21.6862 O   0  0  0  0  0  0  0  0  0  0  0  0
   10.6804  -16.0028   22.2176 N   0  0  0  0  0  0  0  0  0  0  0  0
   11.1922  -16.9629   23.1628 C   0  0  1  0  0  0  0  0  0  0  0  0
   12.7034  -16.9663   23.2198 C   0  0  0  0  0  0  0  0  0  0  0  0
   13.2161  -17.9042   24.2479 C   0  0  0  0  0  0  0  0  0  0  0  0
   13.3455  -19.1205   23.9671 O   0  0  0  0  0  0  0  0  0  0  0  0
   10.7094  -16.6266   24.5122 C   0  0  0  0  0  0  0  0  0  0  0  0
   10.4510  -17.5224   25.3305 O   0  0  0  0  0  0  0  0  0  0  0  0
   13.5654  -17.4999   25.5242 O   0  0  0  0  0  0  0  0  0  0  0  0
   10.5467  -15.3081   24.8592 O   0  0  0  0  0  0  0  0  0  0  0  0
  2  1  1  0
  3  2  1  0
  3  4  1  1
  5  3  1  0
  5  6  2  0
  7  8  1  0
  8  9  1  0
  9 11  1  0
  9 10  1  1
 11 12  1  6
 11 13  1  0
 12  5  1  0
 13 15  1  0
 14 13  2  0
 15 16  1  0
 16 20  1  0
 17 18  1  0
 16 17  1  1
 18 22  1  0
 19 18  2  0
 20 21  2  0
 20 23  1  0
M  END
$$$$
