SID.pdb
     RDKit          3D

 23 22  0  0  1  0  0  0  0  0999 V2000
    5.3371  -17.2719   20.7213 O   0  0  0  0  0  0  0  0  0  0  0  0
    6.5934  -16.8083   21.1531 C   0  0  0  0  0  0  0  0  0  0  0  0
    6.5128  -15.2791   21.2177 C   0  0  2  0  0  0  0  0  0  0  0  0
    6.9701  -14.8021   19.9262 N   0  0  0  0  0  0  0  0  0  0  0  0
    7.4445  -14.8665   22.3007 C   0  0  0  0  0  0  0  0  0  0  0  0
    8.6509  -14.6900   21.9752 O   0  0  0  0  0  0  0  0  0  0  0  0
    5.7329  -11.7723   26.4313 C   0  0  0  0  0  0  0  0  0  0  0  0
    6.6927  -12.2788   25.3396 C   0  0  0  0  0  0  0  0  0  0  0  0
    7.3318  -13.5523   25.7862 C   0  0  2  0  0  0  0  0  0  0  0  0
    8.2772  -13.1747   26.9230 C   0  0  0  0  0  0  0  0  0  0  0  0
    7.9795  -14.3692   24.7269 C   0  0  2  0  0  0  0  0  0  0  0  0
    7.0519  -14.6668   23.6483 N   0  0  0  0  0  0  0  0  0  0  0  0
    8.7029  -15.5626   25.1809 C   0  0  0  0  0  0  0  0  0  0  0  0
    8.0676  -16.5176   25.6880 O   0  0  0  0  0  0  0  0  0  0  0  0
   10.1216  -15.7237   25.0854 N   0  0  0  0  0  0  0  0  0  0  0  0
   10.7878  -16.9625   25.3997 C   0  0  1  0  0  0  0  0  0  0  0  0
   12.2694  -16.9121   25.1006 C   0  0  0  0  0  0  0  0  0  0  0  0
   12.9432  -18.1925   25.4261 C   0  0  0  0  0  0  0  0  0  0  0  0
   12.5379  -18.8762   26.3975 O   0  0  0  0  0  0  0  0  0  0  0  0
   10.6463  -17.2431   26.8379 C   0  0  0  0  0  0  0  0  0  0  0  0
   10.2878  -18.3645   27.2288 O   0  0  0  0  0  0  0  0  0  0  0  0
   14.0153  -18.6813   24.7008 O   0  0  0  0  0  0  0  0  0  0  0  0
   10.9155  -16.2497   27.7467 O   0  0  0  0  0  0  0  0  0  0  0  0
  2  1  1  0
  3  2  1  0
  3  4  1  6
  5  3  1  0
  5  6  2  0
  7  8  1  0
  8  9  1  0
  9 11  1  0
  9 10  1  1
 11 12  1  6
 11 13  1  0
 12  5  1  0
 13 15  1  0
 14 13  2  0
 15 16  1  0
 16 20  1  0
 17 18  1  0
 16 17  1  1
 18 22  1  0
 19 18  2  0
 20 21  2  0
 20 23  1  0
M  END
$$$$
