SID.pdb
     RDKit          3D

 23 22  0  0  1  0  0  0  0  0999 V2000
    5.6683  -19.8500   24.0022 O   0  0  0  0  0  0  0  0  0  0  0  0
    6.6316  -18.8316   24.1236 C   0  0  0  0  0  0  0  0  0  0  0  0
    5.9993  -17.5447   23.5821 C   0  0  2  0  0  0  0  0  0  0  0  0
    5.8943  -17.7269   22.1466 N   0  0  0  0  0  0  0  0  0  0  0  0
    6.9505  -16.4512   23.9143 C   0  0  0  0  0  0  0  0  0  0  0  0
    7.8442  -16.1971   23.0603 O   0  0  0  0  0  0  0  0  0  0  0  0
    5.2394  -12.1279   26.8161 C   0  0  0  0  0  0  0  0  0  0  0  0
    5.9930  -12.8822   25.7059 C   0  0  0  0  0  0  0  0  0  0  0  0
    7.1681  -13.5930   26.2922 C   0  0  2  0  0  0  0  0  0  0  0  0
    8.1260  -12.5045   26.7681 C   0  0  0  0  0  0  0  0  0  0  0  0
    7.8170  -14.6134   25.4281 C   0  0  2  0  0  0  0  0  0  0  0  0
    6.9025  -15.6988   25.1150 N   0  0  0  0  0  0  0  0  0  0  0  0
    9.1260  -15.1031   25.8755 C   0  0  0  0  0  0  0  0  0  0  0  0
    9.7589  -14.4687   26.7529 O   0  0  0  0  0  0  0  0  0  0  0  0
    9.7537  -16.2860   25.3709 N   0  0  0  0  0  0  0  0  0  0  0  0
   10.5958  -17.1278   26.1829 C   0  0  1  0  0  0  0  0  0  0  0  0
    9.8823  -17.6412   27.4135 C   0  0  0  0  0  0  0  0  0  0  0  0
   10.7631  -18.4939   28.2481 C   0  0  0  0  0  0  0  0  0  0  0  0
   11.9534  -18.6838   27.8985 O   0  0  0  0  0  0  0  0  0  0  0  0
   11.0110  -18.3043   25.4014 C   0  0  0  0  0  0  0  0  0  0  0  0
   10.2615  -18.7825   24.5362 O   0  0  0  0  0  0  0  0  0  0  0  0
   10.3322  -19.1020   29.4139 O   0  0  0  0  0  0  0  0  0  0  0  0
   12.2393  -18.8702   25.6386 O   0  0  0  0  0  0  0  0  0  0  0  0
  2  1  1  0
  3  2  1  0
  3  4  1  6
  5  3  1  0
  5  6  2  0
  7  8  1  0
  8  9  1  0
  9 11  1  0
  9 10  1  6
 11 12  1  1
 11 13  1  0
 12  5  1  0
 13 15  1  0
 14 13  2  0
 15 16  1  0
 16 20  1  0
 17 18  1  0
 16 17  1  1
 18 22  1  0
 19 18  2  0
 20 21  2  0
 20 23  1  0
M  END
$$$$
