SID.pdb
     RDKit          3D

 23 22  0  0  1  0  0  0  0  0999 V2000
    9.4540  -20.0997   17.0534 O   0  0  0  0  0  0  0  0  0  0  0  0
    9.4092  -19.1986   18.1332 C   0  0  0  0  0  0  0  0  0  0  0  0
    9.6184  -17.7935   17.5579 C   0  0  2  0  0  0  0  0  0  0  0  0
   10.8140  -17.8727   16.7400 N   0  0  0  0  0  0  0  0  0  0  0  0
    9.8290  -16.9004   18.7280 C   0  0  0  0  0  0  0  0  0  0  0  0
   11.0241  -16.6954   19.0779 O   0  0  0  0  0  0  0  0  0  0  0  0
    6.6510  -12.5754   19.7720 C   0  0  0  0  0  0  0  0  0  0  0  0
    7.9163  -13.4433   19.6482 C   0  0  0  0  0  0  0  0  0  0  0  0
    7.9668  -14.4190   20.7774 C   0  0  2  0  0  0  0  0  0  0  0  0
    8.1141  -13.5872   22.0482 C   0  0  0  0  0  0  0  0  0  0  0  0
    8.9751  -15.5050   20.6628 C   0  0  2  0  0  0  0  0  0  0  0  0
    8.7774  -16.2835   19.4515 N   0  0  0  0  0  0  0  0  0  0  0  0
    9.1482  -16.3554   21.8461 C   0  0  0  0  0  0  0  0  0  0  0  0
    8.3055  -17.2500   22.0958 O   0  0  0  0  0  0  0  0  0  0  0  0
   10.2394  -16.2374   22.7644 N   0  0  0  0  0  0  0  0  0  0  0  0
   10.7029  -17.3396   23.5691 C   0  0  1  0  0  0  0  0  0  0  0  0
   11.1751  -18.5064   22.7310 C   0  0  0  0  0  0  0  0  0  0  0  0
   11.6979  -19.6132   23.5684 C   0  0  0  0  0  0  0  0  0  0  0  0
   12.6639  -20.2996   23.1551 O   0  0  0  0  0  0  0  0  0  0  0  0
   11.8473  -16.9023   24.3854 C   0  0  0  0  0  0  0  0  0  0  0  0
   12.3101  -17.6406   25.2684 O   0  0  0  0  0  0  0  0  0  0  0  0
   11.1658  -19.9339   24.8048 O   0  0  0  0  0  0  0  0  0  0  0  0
   12.4005  -15.6659   24.1606 O   0  0  0  0  0  0  0  0  0  0  0  0
  2  1  1  0
  3  2  1  0
  3  4  1  6
  5  3  1  0
  5  6  2  0
  7  8  1  0
  8  9  1  0
  9 11  1  0
  9 10  1  1
 11 12  1  6
 11 13  1  0
 12  5  1  0
 13 15  1  0
 14 13  2  0
 15 16  1  0
 16 20  1  0
 17 18  1  0
 16 17  1  6
 18 22  1  0
 19 18  2  0
 20 21  2  0
 20 23  1  0
M  END
$$$$
