SID.pdb
     RDKit          3D

 23 22  0  0  1  0  0  0  0  0999 V2000
    7.0601  -16.9905   21.1941 O   0  0  0  0  0  0  0  0  0  0  0  0
    6.0060  -16.0847   20.9745 C   0  0  0  0  0  0  0  0  0  0  0  0
    6.6101  -14.6762   20.9901 C   0  0  2  0  0  0  0  0  0  0  0  0
    7.4384  -14.5857   19.8025 N   0  0  0  0  0  0  0  0  0  0  0  0
    7.4351  -14.5994   22.2248 C   0  0  0  0  0  0  0  0  0  0  0  0
    8.6803  -14.7506   22.0859 O   0  0  0  0  0  0  0  0  0  0  0  0
    5.7774  -11.4165   26.4086 C   0  0  0  0  0  0  0  0  0  0  0  0
    6.6217  -12.0774   25.3041 C   0  0  0  0  0  0  0  0  0  0  0  0
    7.0597  -13.4329   25.7521 C   0  0  2  0  0  0  0  0  0  0  0  0
    7.9237  -13.2100   26.9900 C   0  0  0  0  0  0  0  0  0  0  0  0
    7.7107  -14.2861   24.7240 C   0  0  2  0  0  0  0  0  0  0  0  0
    6.9028  -14.3701   23.5187 N   0  0  0  0  0  0  0  0  0  0  0  0
    8.1729  -15.6041   25.1743 C   0  0  0  0  0  0  0  0  0  0  0  0
    7.3404  -16.4441   25.5916 O   0  0  0  0  0  0  0  0  0  0  0  0
    9.5435  -16.0156   25.1730 N   0  0  0  0  0  0  0  0  0  0  0  0
    9.9670  -17.3151   25.6303 C   0  0  1  0  0  0  0  0  0  0  0  0
   11.1198  -17.8638   24.8197 C   0  0  0  0  0  0  0  0  0  0  0  0
   12.1171  -16.8150   24.4963 C   0  0  0  0  0  0  0  0  0  0  0  0
   11.9614  -15.6530   24.9441 O   0  0  0  0  0  0  0  0  0  0  0  0
   10.4273  -17.2169   27.0252 C   0  0  0  0  0  0  0  0  0  0  0  0
   10.4933  -16.1149   27.5909 O   0  0  0  0  0  0  0  0  0  0  0  0
   13.2311  -17.0560   23.7117 O   0  0  0  0  0  0  0  0  0  0  0  0
   10.7844  -18.3596   27.6977 O   0  0  0  0  0  0  0  0  0  0  0  0
  2  1  1  0
  3  2  1  0
  3  4  1  6
  5  3  1  0
  5  6  2  0
  7  8  1  0
  8  9  1  0
  9 11  1  0
  9 10  1  1
 11 12  1  6
 11 13  1  0
 12  5  1  0
 13 15  1  0
 14 13  2  0
 15 16  1  0
 16 20  1  0
 17 18  1  0
 16 17  1  6
 18 22  1  0
 19 18  2  0
 20 21  2  0
 20 23  1  0
M  END
$$$$
