PMH.pdb
     RDKit          3D

 26 27  0  0  1  0  0  0  0  0999 V2000
    7.4320  -14.9667   19.8167 N   0  0  0  0  0  0  0  0  0  0  0  0
    7.0257  -14.4193   18.5223 C   0  0  0  0  0  0  0  0  0  0  0  0
    7.3442  -12.9643   18.6542 C   0  0  0  0  0  0  0  0  0  0  0  0
    8.3947  -12.8269   19.7339 C   0  0  0  0  0  0  0  0  0  0  0  0
    8.6653  -14.2673   20.1030 C   0  0  1  0  0  0  0  0  0  0  0  0
    8.9630  -14.4011   21.5660 C   0  0  0  0  0  0  0  0  0  0  0  0
   10.1399  -14.6303   21.8927 O   0  0  0  0  0  0  0  0  0  0  0  0
    6.9499  -10.7266   27.1104 C   0  0  0  0  0  0  0  0  0  0  0  0
    6.0997  -12.3093   26.9045 S   0  0  0  0  0  0  0  0  0  0  0  0
    7.2627  -13.5529   26.2193 C   0  0  0  0  0  0  0  0  0  0  0  0
    7.0622  -13.5492   24.7393 C   0  0  0  0  0  0  0  0  0  0  0  0
    8.1329  -14.3166   23.9727 C   0  0  2  0  0  0  0  0  0  0  0  0
    7.9525  -14.2735   22.5449 N   0  0  0  0  0  0  0  0  0  0  0  0
    8.1131  -15.7005   24.4740 C   0  0  0  0  0  0  0  0  0  0  0  0
    7.3281  -16.5499   23.9570 O   0  0  0  0  0  0  0  0  0  0  0  0
    8.9559  -16.1167   25.5303 N   0  0  0  0  0  0  0  0  0  0  0  0
    9.6570  -17.3995   25.4621 C   0  0  1  0  0  0  0  0  0  0  0  0
   10.4916  -17.4935   24.2234 C   0  0  0  0  0  0  0  0  0  0  0  0
   11.2487  -18.7602   24.2112 C   0  0  0  0  0  0  0  0  0  0  0  0
   11.0980  -19.9080   24.9686 C   0  0  0  0  0  0  0  0  0  0  0  0
   12.0142  -20.8081   24.6456 N   0  0  0  0  0  0  0  0  0  0  0  0
   12.7758  -20.2722   23.6794 C   0  0  0  0  0  0  0  0  0  0  0  0
   12.3242  -19.0367   23.4084 N   0  0  0  0  0  0  0  0  0  0  0  0
   10.4313  -17.6416   26.6887 C   0  0  0  0  0  0  0  0  0  0  0  0
   11.0581  -18.6958   26.9422 O   0  0  0  0  0  0  0  0  0  0  0  0
   10.4794  -16.6183   27.6597 O   0  0  0  0  0  0  0  0  0  0  0  0
  1  2  1  0
  3  2  1  0
  4  5  1  0
  4  3  1  0
  5  1  1  0
  5  6  1  1
  6  7  2  0
  9  8  1  0
 10  9  1  0
 12 11  1  1
 11 10  1  0
 12 14  1  0
 13  6  1  0
 13 12  1  0
 14 15  2  0
 16 17  1  0
 16 14  1  0
 17 24  1  0
 17 18  1  6
 19 18  1  0
 20 19  2  0
 21 20  1  0
 22 21  1  0
 22 23  2  0
 23 19  1  0
 24 25  2  0
 24 26  1  0
M  END
$$$$
