PMH.pdb
     RDKit          3D

 26 27  0  0  1  0  0  0  0  0999 V2000
    7.2490  -15.2814   20.2222 N   0  0  0  0  0  0  0  0  0  0  0  0
    6.8114  -14.9432   18.8678 C   0  0  0  0  0  0  0  0  0  0  0  0
    7.1337  -13.4870   18.7608 C   0  0  0  0  0  0  0  0  0  0  0  0
    8.2105  -13.1857   19.7797 C   0  0  0  0  0  0  0  0  0  0  0  0
    8.4893  -14.5510   20.3647 C   0  0  1  0  0  0  0  0  0  0  0  0
    8.8227  -14.4536   21.8229 C   0  0  0  0  0  0  0  0  0  0  0  0
    9.9755  -14.1015   22.1249 O   0  0  0  0  0  0  0  0  0  0  0  0
    7.2782  -11.8769   28.4288 C   0  0  0  0  0  0  0  0  0  0  0  0
    7.0883  -12.2567   26.6710 S   0  0  0  0  0  0  0  0  0  0  0  0
    6.9078  -14.0691   26.4446 C   0  0  0  0  0  0  0  0  0  0  0  0
    6.7360  -14.2971   24.9785 C   0  0  0  0  0  0  0  0  0  0  0  0
    8.0412  -14.5798   24.2440 C   0  0  2  0  0  0  0  0  0  0  0  0
    7.8709  -14.7485   22.8243 N   0  0  0  0  0  0  0  0  0  0  0  0
    8.6307  -15.7798   24.8596 C   0  0  0  0  0  0  0  0  0  0  0  0
    7.9819  -16.8679   24.8737 O   0  0  0  0  0  0  0  0  0  0  0  0
    9.9179  -15.7549   25.4444 N   0  0  0  0  0  0  0  0  0  0  0  0
   10.4798  -16.9583   26.0591 C   0  0  1  0  0  0  0  0  0  0  0  0
   11.9733  -16.9670   25.9623 C   0  0  0  0  0  0  0  0  0  0  0  0
   12.3942  -17.0520   24.5503 C   0  0  0  0  0  0  0  0  0  0  0  0
   11.6463  -17.1602   23.3915 C   0  0  0  0  0  0  0  0  0  0  0  0
   12.4335  -17.2303   22.3288 N   0  0  0  0  0  0  0  0  0  0  0  0
   13.7005  -17.1701   22.7669 C   0  0  0  0  0  0  0  0  0  0  0  0
   13.6902  -17.0625   24.1057 N   0  0  0  0  0  0  0  0  0  0  0  0
    9.9990  -17.1172   27.4398 C   0  0  0  0  0  0  0  0  0  0  0  0
   10.3146  -18.0587   28.2030 O   0  0  0  0  0  0  0  0  0  0  0  0
    9.1162  -16.1435   27.9546 O   0  0  0  0  0  0  0  0  0  0  0  0
  1  2  1  0
  3  2  1  0
  4  5  1  0
  4  3  1  0
  5  1  1  0
  5  6  1  1
  6  7  2  0
  9  8  1  0
 10  9  1  0
 12 11  1  1
 11 10  1  0
 12 14  1  0
 13  6  1  0
 13 12  1  0
 14 15  2  0
 16 17  1  0
 16 14  1  0
 17 24  1  0
 17 18  1  1
 19 18  1  0
 20 19  2  0
 21 20  1  0
 22 21  1  0
 22 23  2  0
 23 19  1  0
 24 25  2  0
 24 26  1  0
M  END
$$$$
