PMH.pdb
     RDKit          3D

 26 27  0  0  1  0  0  0  0  0999 V2000
    8.9103  -15.9408   19.1475 N   0  0  0  0  0  0  0  0  0  0  0  0
    8.3902  -16.7555   18.0493 C   0  0  0  0  0  0  0  0  0  0  0  0
    7.8231  -17.9481   18.7507 C   0  0  0  0  0  0  0  0  0  0  0  0
    7.5317  -17.5381   20.1773 C   0  0  0  0  0  0  0  0  0  0  0  0
    7.8955  -16.0712   20.1699 C   0  0  1  0  0  0  0  0  0  0  0  0
    8.4842  -15.6562   21.4845 C   0  0  0  0  0  0  0  0  0  0  0  0
    9.7048  -15.8257   21.6447 O   0  0  0  0  0  0  0  0  0  0  0  0
    6.7987  -11.5085   28.1041 C   0  0  0  0  0  0  0  0  0  0  0  0
    6.2677  -12.2432   26.5394 S   0  0  0  0  0  0  0  0  0  0  0  0
    7.5989  -13.3189   25.8766 C   0  0  0  0  0  0  0  0  0  0  0  0
    7.1158  -13.8253   24.5571 C   0  0  0  0  0  0  0  0  0  0  0  0
    8.1487  -14.6533   23.8018 C   0  0  2  0  0  0  0  0  0  0  0  0
    7.6917  -15.0930   22.5092 N   0  0  0  0  0  0  0  0  0  0  0  0
    8.4996  -15.7942   24.6630 C   0  0  0  0  0  0  0  0  0  0  0  0
    7.6431  -16.6981   24.8966 O   0  0  0  0  0  0  0  0  0  0  0  0
    9.7822  -15.9140   25.2461 N   0  0  0  0  0  0  0  0  0  0  0  0
   10.1160  -17.0695   26.0799 C   0  0  1  0  0  0  0  0  0  0  0  0
   11.4613  -17.6209   25.7249 C   0  0  0  0  0  0  0  0  0  0  0  0
   11.4715  -18.0829   24.3233 C   0  0  0  0  0  0  0  0  0  0  0  0
   10.6429  -18.9705   23.6605 C   0  0  0  0  0  0  0  0  0  0  0  0
   11.0234  -19.1177   22.4005 N   0  0  0  0  0  0  0  0  0  0  0  0
   12.0988  -18.3365   22.2154 C   0  0  0  0  0  0  0  0  0  0  0  0
   12.3792  -17.7069   23.3682 N   0  0  0  0  0  0  0  0  0  0  0  0
    9.9959  -16.7398   27.5080 C   0  0  0  0  0  0  0  0  0  0  0  0
    9.6887  -15.6122   27.9581 O   0  0  0  0  0  0  0  0  0  0  0  0
   10.2424  -17.7607   28.4511 O   0  0  0  0  0  0  0  0  0  0  0  0
  1  2  1  0
  3  2  1  0
  4  5  1  0
  4  3  1  0
  5  1  1  0
  5  6  1  1
  6  7  2  0
  9  8  1  0
 10  9  1  0
 12 11  1  1
 11 10  1  0
 12 14  1  0
 13  6  1  0
 13 12  1  0
 14 15  2  0
 16 17  1  0
 16 14  1  0
 17 24  1  0
 17 18  1  1
 19 18  1  0
 20 19  2  0
 21 20  1  0
 22 21  1  0
 22 23  2  0
 23 19  1  0
 24 25  2  0
 24 26  1  0
M  END
$$$$
