PMH.pdb
     RDKit          3D

 26 27  0  0  1  0  0  0  0  0999 V2000
    7.3980  -15.0492   20.1736 N   0  0  0  0  0  0  0  0  0  0  0  0
    6.8701  -14.6455   18.8703 C   0  0  0  0  0  0  0  0  0  0  0  0
    7.2013  -13.1887   18.8066 C   0  0  0  0  0  0  0  0  0  0  0  0
    8.3506  -12.9437   19.7591 C   0  0  0  0  0  0  0  0  0  0  0  0
    8.6538  -14.3368   20.2606 C   0  0  1  0  0  0  0  0  0  0  0  0
    9.0903  -14.3094   21.6944 C   0  0  0  0  0  0  0  0  0  0  0  0
   10.2750  -14.0152   21.9272 O   0  0  0  0  0  0  0  0  0  0  0  0
    6.4662  -11.0656   26.9502 C   0  0  0  0  0  0  0  0  0  0  0  0
    6.1709  -12.8409   27.1278 S   0  0  0  0  0  0  0  0  0  0  0  0
    7.5783  -13.7777   26.4135 C   0  0  0  0  0  0  0  0  0  0  0  0
    7.3141  -13.8853   24.9474 C   0  0  0  0  0  0  0  0  0  0  0  0
    8.4693  -14.4899   24.1581 C   0  0  2  0  0  0  0  0  0  0  0  0
    8.1979  -14.6048   22.7488 N   0  0  0  0  0  0  0  0  0  0  0  0
    8.7596  -15.8029   24.7570 C   0  0  0  0  0  0  0  0  0  0  0  0
    7.8624  -16.6968   24.7882 O   0  0  0  0  0  0  0  0  0  0  0  0
   10.0278  -16.1012   25.3064 N   0  0  0  0  0  0  0  0  0  0  0  0
   10.2770  -17.3940   25.9454 C   0  0  1  0  0  0  0  0  0  0  0  0
   11.6409  -17.9093   25.6077 C   0  0  0  0  0  0  0  0  0  0  0  0
   11.7642  -18.1152   24.1516 C   0  0  0  0  0  0  0  0  0  0  0  0
   10.8326  -18.5326   23.2180 C   0  0  0  0  0  0  0  0  0  0  0  0
   11.3747  -18.6028   22.0117 N   0  0  0  0  0  0  0  0  0  0  0  0
   12.6602  -18.2362   22.1308 C   0  0  0  0  0  0  0  0  0  0  0  0
   12.9076  -17.9396   23.4172 N   0  0  0  0  0  0  0  0  0  0  0  0
   10.0410  -17.3184   27.3950 C   0  0  0  0  0  0  0  0  0  0  0  0
    9.7093  -16.2804   28.0122 O   0  0  0  0  0  0  0  0  0  0  0  0
   10.1964  -18.4956   28.1582 O   0  0  0  0  0  0  0  0  0  0  0  0
  1  2  1  0
  3  2  1  0
  4  5  1  0
  4  3  1  0
  5  1  1  0
  5  6  1  1
  6  7  2  0
  9  8  1  0
 10  9  1  0
 12 11  1  1
 11 10  1  0
 12 14  1  0
 13  6  1  0
 13 12  1  0
 14 15  2  0
 16 17  1  0
 16 14  1  0
 17 24  1  0
 17 18  1  1
 19 18  1  0
 20 19  2  0
 21 20  1  0
 22 21  1  0
 22 23  2  0
 23 19  1  0
 24 25  2  0
 24 26  1  0
M  END
$$$$
