PMH.pdb
     RDKit          3D

 26 27  0  0  1  0  0  0  0  0999 V2000
    6.8890  -14.9409   19.8820 N   0  0  0  0  0  0  0  0  0  0  0  0
    6.5467  -14.4734   18.5386 C   0  0  0  0  0  0  0  0  0  0  0  0
    7.2304  -13.1461   18.4568 C   0  0  0  0  0  0  0  0  0  0  0  0
    8.3528  -13.1519   19.4709 C   0  0  0  0  0  0  0  0  0  0  0  0
    8.2755  -14.5552   20.0266 C   0  0  1  0  0  0  0  0  0  0  0  0
    8.6290  -14.5773   21.4832 C   0  0  0  0  0  0  0  0  0  0  0  0
    9.8358  -14.5833   21.7800 O   0  0  0  0  0  0  0  0  0  0  0  0
    7.5849  -11.7003   27.8745 C   0  0  0  0  0  0  0  0  0  0  0  0
    6.4103  -12.2827   26.6291 S   0  0  0  0  0  0  0  0  0  0  0  0
    6.8105  -14.0114   26.1602 C   0  0  0  0  0  0  0  0  0  0  0  0
    6.5989  -14.1092   24.6849 C   0  0  0  0  0  0  0  0  0  0  0  0
    7.8547  -14.4870   23.9082 C   0  0  2  0  0  0  0  0  0  0  0  0
    7.6370  -14.5910   22.4888 N   0  0  0  0  0  0  0  0  0  0  0  0
    8.3431  -15.7568   24.4702 C   0  0  0  0  0  0  0  0  0  0  0  0
    7.6216  -16.7963   24.4065 O   0  0  0  0  0  0  0  0  0  0  0  0
    9.6114  -15.8532   25.0878 N   0  0  0  0  0  0  0  0  0  0  0  0
   10.2585  -17.1545   25.2603 C   0  0  1  0  0  0  0  0  0  0  0  0
   11.6228  -17.1648   24.6452 C   0  0  0  0  0  0  0  0  0  0  0  0
   12.2999  -18.4463   24.9232 C   0  0  0  0  0  0  0  0  0  0  0  0
   11.9327  -19.5018   25.7387 C   0  0  0  0  0  0  0  0  0  0  0  0
   12.8500  -20.4567   25.7135 N   0  0  0  0  0  0  0  0  0  0  0  0
   13.8269  -20.0488   24.8887 C   0  0  0  0  0  0  0  0  0  0  0  0
   13.5068  -18.8372   24.4055 N   0  0  0  0  0  0  0  0  0  0  0  0
   10.2704  -17.5524   26.6760 C   0  0  0  0  0  0  0  0  0  0  0  0
   10.7946  -18.5996   27.1200 O   0  0  0  0  0  0  0  0  0  0  0  0
    9.6487  -16.6999   27.6135 O   0  0  0  0  0  0  0  0  0  0  0  0
  1  2  1  0
  3  2  1  0
  4  5  1  0
  4  3  1  0
  5  1  1  0
  5  6  1  1
  6  7  2  0
  9  8  1  0
 10  9  1  0
 12 11  1  1
 11 10  1  0
 12 14  1  0
 13  6  1  0
 13 12  1  0
 14 15  2  0
 16 17  1  0
 16 14  1  0
 17 24  1  0
 17 18  1  1
 19 18  1  0
 20 19  2  0
 21 20  1  0
 22 21  1  0
 22 23  2  0
 23 19  1  0
 24 25  2  0
 24 26  1  0
M  END
$$$$
