SGC.pdb
     RDKit          3D

 17 16  0  0  1  0  0  0  0  0999 V2000
    5.6456  -18.3255   18.0102 O   0  0  0  0  0  0  0  0  0  0  0  0
    6.0142  -19.6685   18.1319 C   0  0  0  0  0  0  0  0  0  0  0  0
    5.5153  -20.1995   19.4778 C   0  0  2  0  0  0  0  0  0  0  0  0
    4.0822  -19.9994   19.5870 N   0  0  0  0  0  0  0  0  0  0  0  0
    6.1842  -19.4728   20.5817 C   0  0  0  0  0  0  0  0  0  0  0  0
    7.4301  -19.5485   20.7576 O   0  0  0  0  0  0  0  0  0  0  0  0
    5.4290  -18.6740   21.4656 N   0  0  0  0  0  0  0  0  0  0  0  0
    6.0090  -17.9829   22.5973 C   0  0  0  0  0  0  0  0  0  0  0  0
    6.2761  -18.9493   23.6636 C   0  0  0  0  0  0  0  0  0  0  0  0
    5.3210  -19.4402   24.3166 O   0  0  0  0  0  0  0  0  0  0  0  0
    7.6001  -19.3599   23.9930 N   0  0  0  0  0  0  0  0  0  0  0  0
    7.7906  -20.2707   25.0813 C   0  0  1  0  0  0  0  0  0  0  0  0
    9.0166  -21.1129   24.7493 C   0  0  0  0  0  0  0  0  0  0  0  0
    8.8664  -21.7103   23.0442 S   0  0  0  0  0  0  0  0  0  0  0  0
    8.0077  -19.5526   26.3788 C   0  0  0  0  0  0  0  0  0  0  0  0
    8.2579  -18.3283   26.4455 O   0  0  0  0  0  0  0  0  0  0  0  0
    7.9258  -20.2825   27.5399 O   0  0  0  0  0  0  0  0  0  0  0  0
  2  1  1  0
  3  2  1  0
  3  4  1  6
  5  3  1  0
  6  5  2  0
  7  5  1  0
  8  7  1  0
  9  8  1  0
  9 11  1  0
 10  9  2  0
 12 11  1  0
 12 15  1  0
 12 13  1  6
 14 13  1  0
 15 17  1  0
 16 15  2  0
M  END
$$$$
