SGC.pdb
     RDKit          3D

 17 16  0  0  1  0  0  0  0  0999 V2000
    9.0196  -19.0311   20.1517 O   0  0  0  0  0  0  0  0  0  0  0  0
    8.0479  -18.1665   19.6391 C   0  0  0  0  0  0  0  0  0  0  0  0
    8.5470  -16.7258   19.7711 C   0  0  2  0  0  0  0  0  0  0  0  0
    9.8183  -16.7057   20.4706 N   0  0  0  0  0  0  0  0  0  0  0  0
    7.5666  -15.9248   20.5401 C   0  0  0  0  0  0  0  0  0  0  0  0
    6.3963  -15.7330   20.1128 O   0  0  0  0  0  0  0  0  0  0  0  0
    7.9303  -15.3563   21.7786 N   0  0  0  0  0  0  0  0  0  0  0  0
    6.9799  -14.7194   22.6652 C   0  0  0  0  0  0  0  0  0  0  0  0
    7.6730  -14.2861   23.8792 C   0  0  0  0  0  0  0  0  0  0  0  0
    8.9286  -14.3179   23.9280 O   0  0  0  0  0  0  0  0  0  0  0  0
    6.9650  -13.8223   25.0254 N   0  0  0  0  0  0  0  0  0  0  0  0
    7.7098  -13.3731   26.1629 C   0  0  1  0  0  0  0  0  0  0  0  0
    6.7346  -12.6341   27.0715 C   0  0  0  0  0  0  0  0  0  0  0  0
    5.9667  -11.2898   26.1281 S   0  0  0  0  0  0  0  0  0  0  0  0
    8.3301  -14.5146   26.9103 C   0  0  0  0  0  0  0  0  0  0  0  0
    8.0270  -15.7104   26.7005 O   0  0  0  0  0  0  0  0  0  0  0  0
    9.2724  -14.2215   27.8662 O   0  0  0  0  0  0  0  0  0  0  0  0
  2  1  1  0
  3  2  1  0
  3  4  1  1
  5  3  1  0
  6  5  2  0
  7  5  1  0
  8  7  1  0
  9  8  1  0
  9 11  1  0
 10  9  2  0
 12 11  1  0
 12 15  1  0
 12 13  1  1
 14 13  1  0
 15 17  1  0
 16 15  2  0
M  END
$$$$
