SGC.pdb
     RDKit          3D

 17 16  0  0  1  0  0  0  0  0999 V2000
   10.9364  -13.8257   19.8951 O   0  0  0  0  0  0  0  0  0  0  0  0
   10.0066  -14.3969   19.0212 C   0  0  0  0  0  0  0  0  0  0  0  0
    8.6956  -13.6124   19.1103 C   0  0  2  0  0  0  0  0  0  0  0  0
    8.9700  -12.2293   19.4528 N   0  0  0  0  0  0  0  0  0  0  0  0
    7.8302  -14.2010   20.1586 C   0  0  0  0  0  0  0  0  0  0  0  0
    7.3126  -15.3418   20.0185 O   0  0  0  0  0  0  0  0  0  0  0  0
    7.5675  -13.4862   21.3458 N   0  0  0  0  0  0  0  0  0  0  0  0
    6.8179  -14.0410   22.4527 C   0  0  0  0  0  0  0  0  0  0  0  0
    7.5801  -13.8557   23.6883 C   0  0  0  0  0  0  0  0  0  0  0  0
    8.8085  -13.5951   23.6327 O   0  0  0  0  0  0  0  0  0  0  0  0
    6.9705  -13.9617   24.9718 N   0  0  0  0  0  0  0  0  0  0  0  0
    7.7544  -13.6741   26.1351 C   0  0  1  0  0  0  0  0  0  0  0  0
    6.8391  -12.9650   27.1261 C   0  0  0  0  0  0  0  0  0  0  0  0
    5.8759  -11.7143   26.2347 S   0  0  0  0  0  0  0  0  0  0  0  0
    8.3051  -14.9205   26.7592 C   0  0  0  0  0  0  0  0  0  0  0  0
    7.9798  -16.0697   26.3860 O   0  0  0  0  0  0  0  0  0  0  0  0
    9.2069  -14.7815   27.7864 O   0  0  0  0  0  0  0  0  0  0  0  0
  2  1  1  0
  3  2  1  0
  3  4  1  1
  5  3  1  0
  6  5  2  0
  7  5  1  0
  8  7  1  0
  9  8  1  0
  9 11  1  0
 10  9  2  0
 12 11  1  0
 12 15  1  0
 12 13  1  1
 14 13  1  0
 15 17  1  0
 16 15  2  0
M  END
$$$$
