SGC.pdb
     RDKit          3D

 17 16  0  0  1  0  0  0  0  0999 V2000
   -1.6480  -22.8530   22.0579 O   0  0  0  0  0  0  0  0  0  0  0  0
   -1.9219  -22.1154   23.2134 C   0  0  0  0  0  0  0  0  0  0  0  0
   -3.1646  -22.6980   23.8904 C   0  0  2  0  0  0  0  0  0  0  0  0
   -4.2706  -22.7272   22.9515 N   0  0  0  0  0  0  0  0  0  0  0  0
   -3.5442  -21.8568   25.0491 C   0  0  0  0  0  0  0  0  0  0  0  0
   -2.7802  -21.7249   26.0430 O   0  0  0  0  0  0  0  0  0  0  0  0
   -4.7822  -21.1810   25.0600 N   0  0  0  0  0  0  0  0  0  0  0  0
   -5.2578  -20.4215   26.1966 C   0  0  0  0  0  0  0  0  0  0  0  0
   -6.3741  -21.1363   26.8173 C   0  0  0  0  0  0  0  0  0  0  0  0
   -7.5293  -21.0341   26.3327 O   0  0  0  0  0  0  0  0  0  0  0  0
   -6.1958  -21.9564   27.9687 N   0  0  0  0  0  0  0  0  0  0  0  0
   -7.3121  -22.7034   28.4647 C   0  0  1  0  0  0  0  0  0  0  0  0
   -6.7646  -24.0203   29.0022 C   0  0  0  0  0  0  0  0  0  0  0  0
   -6.0113  -24.9384   27.6324 S   0  0  0  0  0  0  0  0  0  0  0  0
   -8.0318  -21.9724   29.5574 C   0  0  0  0  0  0  0  0  0  0  0  0
   -9.1062  -22.3778   30.0546 O   0  0  0  0  0  0  0  0  0  0  0  0
   -7.4767  -20.8061   30.0255 O   0  0  0  0  0  0  0  0  0  0  0  0
  2  1  1  0
  3  2  1  0
  3  4  1  6
  5  3  1  0
  6  5  2  0
  7  5  1  0
  8  7  1  0
  9  8  1  0
  9 11  1  0
 10  9  2  0
 12 11  1  0
 12 15  1  0
 12 13  1  1
 14 13  1  0
 15 17  1  0
 16 15  2  0
M  END
$$$$
