SGC.pdb
     RDKit          3D

 17 16  0  0  1  0  0  0  0  0999 V2000
    3.8858  -17.7060   22.2193 O   0  0  0  0  0  0  0  0  0  0  0  0
    4.7854  -18.6949   21.8101 C   0  0  0  0  0  0  0  0  0  0  0  0
    6.1792  -18.3455   22.3365 C   0  0  2  0  0  0  0  0  0  0  0  0
    6.1391  -18.1958   23.7794 N   0  0  0  0  0  0  0  0  0  0  0  0
    6.6358  -17.0703   21.7369 C   0  0  0  0  0  0  0  0  0  0  0  0
    6.6579  -16.9030   20.4877 O   0  0  0  0  0  0  0  0  0  0  0  0
    7.0586  -16.0087   22.5637 N   0  0  0  0  0  0  0  0  0  0  0  0
    7.4382  -14.7099   22.0498 C   0  0  0  0  0  0  0  0  0  0  0  0
    7.7161  -13.8129   23.1724 C   0  0  0  0  0  0  0  0  0  0  0  0
    8.3807  -12.7627   22.9845 O   0  0  0  0  0  0  0  0  0  0  0  0
    7.2532  -14.0914   24.4908 N   0  0  0  0  0  0  0  0  0  0  0  0
    8.0376  -13.6529   25.6057 C   0  0  1  0  0  0  0  0  0  0  0  0
    7.1712  -12.6918   26.4108 C   0  0  0  0  0  0  0  0  0  0  0  0
    5.4438  -13.2292   26.2926 S   0  0  0  0  0  0  0  0  0  0  0  0
    8.4622  -14.7982   26.4743 C   0  0  0  0  0  0  0  0  0  0  0  0
    8.0397  -15.9654   26.3164 O   0  0  0  0  0  0  0  0  0  0  0  0
    9.3559  -14.5418   27.4859 O   0  0  0  0  0  0  0  0  0  0  0  0
  2  1  1  0
  3  2  1  0
  3  4  1  1
  5  3  1  0
  6  5  2  0
  7  5  1  0
  8  7  1  0
  9  8  1  0
  9 11  1  0
 10  9  2  0
 12 11  1  0
 12 15  1  0
 12 13  1  1
 14 13  1  0
 15 17  1  0
 16 15  2  0
M  END
$$$$
