YST.pdb
     RDKit          3D

 26 26  0  0  1  0  0  0  0  0999 V2000
    7.9043  -12.0667   17.3193 O   0  0  0  0  0  0  0  0  0  0  0  0
    7.9856  -12.8538   18.4792 C   0  0  0  0  0  0  0  0  0  0  0  0
    6.9088  -13.5599   18.9608 C   0  0  0  0  0  0  0  0  0  0  0  0
    7.0663  -14.3121   20.1079 C   0  0  0  0  0  0  0  0  0  0  0  0
    8.2734  -14.3519   20.7517 C   0  0  0  0  0  0  0  0  0  0  0  0
    8.4422  -15.1475   21.9739 C   0  0  0  0  0  0  0  0  0  0  0  0
    9.1133  -16.4577   21.6271 C   0  0  2  0  0  0  0  0  0  0  0  0
    8.2663  -17.1666   20.6469 N   0  0  0  0  0  0  0  0  0  0  0  0
    9.2966  -17.3057   22.8231 C   0  0  0  0  0  0  0  0  0  0  0  0
    8.7685  -18.4255   22.9876 O   0  0  0  0  0  0  0  0  0  0  0  0
    9.3353  -13.6406   20.2553 C   0  0  0  0  0  0  0  0  0  0  0  0
    9.2173  -12.8773   19.1115 C   0  0  0  0  0  0  0  0  0  0  0  0
   12.3576  -18.2241   23.9422 O   0  0  0  0  0  0  0  0  0  0  0  0
   11.2557  -18.7820   24.6167 C   0  0  0  0  0  0  0  0  0  0  0  0
   10.3910  -17.6001   25.0711 C   0  0  2  0  0  0  0  0  0  0  0  0
   10.1360  -16.8165   23.8691 N   0  0  0  0  0  0  0  0  0  0  0  0
   11.1831  -16.8106   26.0367 C   0  0  0  0  0  0  0  0  0  0  0  0
   12.0632  -16.0033   25.6555 O   0  0  0  0  0  0  0  0  0  0  0  0
    8.9380  -15.0749   27.6642 C   0  0  0  0  0  0  0  0  0  0  0  0
   10.4009  -14.7038   27.8232 C   0  0  1  0  0  0  0  0  0  0  0  0
   10.5007  -13.6552   28.7227 O   0  0  0  0  0  0  0  0  0  0  0  0
   11.2008  -15.8944   28.3268 C   0  0  2  0  0  0  0  0  0  0  0  0
   10.9305  -16.9813   27.4160 N   0  0  0  0  0  0  0  0  0  0  0  0
   10.8494  -16.2441   29.7113 C   0  0  0  0  0  0  0  0  0  0  0  0
   11.2839  -15.4679   30.7559 O   0  0  0  0  0  0  0  0  0  0  0  0
   10.1490  -17.2584   29.9287 O   0  0  0  0  0  0  0  0  0  0  0  0
  2  3  2  0
  2  1  1  0
  4  3  1  0
  5  4  2  0
  6  5  1  0
  7  6  1  0
  7  9  1  0
  7  8  1  6
  9 16  1  0
  9 10  2  0
 11  5  1  0
 11 12  2  0
 12  2  1  0
 14 13  1  0
 15 14  1  6
 16 15  1  0
 17 15  1  0
 17 18  2  0
 20 19  1  1
 20 21  1  0
 20 22  1  0
 22 23  1  6
 23 17  1  0
 24 22  1  0
 25 24  1  0
 26 24  2  0
M  END
$$$$
