YST.pdb
     RDKit          3D

 26 26  0  0  1  0  0  0  0  0999 V2000
    9.9545  -13.8524   30.6104 O   0  0  0  0  0  0  0  0  0  0  0  0
    9.6744  -14.1848   29.2753 C   0  0  0  0  0  0  0  0  0  0  0  0
    8.9389  -13.3619   28.4556 C   0  0  0  0  0  0  0  0  0  0  0  0
    8.7049  -13.7574   27.1535 C   0  0  0  0  0  0  0  0  0  0  0  0
    9.1973  -14.9474   26.6903 C   0  0  0  0  0  0  0  0  0  0  0  0
    8.9463  -15.3721   25.3076 C   0  0  0  0  0  0  0  0  0  0  0  0
    7.5026  -15.8020   25.1724 C   0  0  2  0  0  0  0  0  0  0  0  0
    7.2726  -16.9440   26.0801 N   0  0  0  0  0  0  0  0  0  0  0  0
    7.1843  -16.2033   23.7865 C   0  0  0  0  0  0  0  0  0  0  0  0
    6.7137  -17.3128   23.4585 O   0  0  0  0  0  0  0  0  0  0  0  0
    9.9286  -15.7540   27.5236 C   0  0  0  0  0  0  0  0  0  0  0  0
   10.1838  -15.3934   28.8312 C   0  0  0  0  0  0  0  0  0  0  0  0
    8.4507  -13.5231   21.0128 O   0  0  0  0  0  0  0  0  0  0  0  0
    7.4663  -14.4005   20.5214 C   0  0  0  0  0  0  0  0  0  0  0  0
    7.5821  -15.6816   21.3559 C   0  0  2  0  0  0  0  0  0  0  0  0
    7.4297  -15.2607   22.7428 N   0  0  0  0  0  0  0  0  0  0  0  0
    8.9332  -16.2383   21.1371 C   0  0  0  0  0  0  0  0  0  0  0  0
    9.9268  -15.8123   21.7717 O   0  0  0  0  0  0  0  0  0  0  0  0
    9.5790  -20.1344   20.6788 C   0  0  0  0  0  0  0  0  0  0  0  0
   10.1425  -19.3005   19.5429 C   0  0  1  0  0  0  0  0  0  0  0  0
    9.2391  -19.3067   18.4930 O   0  0  0  0  0  0  0  0  0  0  0  0
   10.3908  -17.8729   20.0024 C   0  0  2  0  0  0  0  0  0  0  0  0
    9.0911  -17.2728   20.1882 N   0  0  0  0  0  0  0  0  0  0  0  0
   11.2048  -17.1203   19.0361 C   0  0  0  0  0  0  0  0  0  0  0  0
   10.6052  -16.3246   18.0929 O   0  0  0  0  0  0  0  0  0  0  0  0
   12.4522  -17.2125   19.0820 O   0  0  0  0  0  0  0  0  0  0  0  0
  2  3  2  0
  2  1  1  0
  4  3  1  0
  5  4  2  0
  6  5  1  0
  7  6  1  0
  7  9  1  0
  7  8  1  1
  9 16  1  0
  9 10  2  0
 11  5  1  0
 11 12  2  0
 12  2  1  0
 14 13  1  0
 15 14  1  6
 16 15  1  0
 17 15  1  0
 17 18  2  0
 20 19  1  1
 20 21  1  0
 20 22  1  0
 22 23  1  6
 23 17  1  0
 24 22  1  0
 25 24  1  0
 26 24  2  0
M  END
$$$$
