YST.pdb
     RDKit          3D

 26 26  0  0  1  0  0  0  0  0999 V2000
    5.8532  -10.4766   27.4539 O   0  0  0  0  0  0  0  0  0  0  0  0
    6.4237  -11.5774   26.7951 C   0  0  0  0  0  0  0  0  0  0  0  0
    7.1213  -11.4443   25.6180 C   0  0  0  0  0  0  0  0  0  0  0  0
    7.6535  -12.5741   25.0291 C   0  0  0  0  0  0  0  0  0  0  0  0
    7.4879  -13.8027   25.6090 C   0  0  0  0  0  0  0  0  0  0  0  0
    8.0493  -15.0060   24.9826 C   0  0  0  0  0  0  0  0  0  0  0  0
    6.9922  -15.6582   24.1198 C   0  0  2  0  0  0  0  0  0  0  0  0
    6.1381  -16.4948   24.9867 N   0  0  0  0  0  0  0  0  0  0  0  0
    7.5963  -16.4990   23.0657 C   0  0  0  0  0  0  0  0  0  0  0  0
    7.9218  -17.6961   23.2113 O   0  0  0  0  0  0  0  0  0  0  0  0
    6.7890  -13.9145   26.7832 C   0  0  0  0  0  0  0  0  0  0  0  0
    6.2422  -12.8087   27.4021 C   0  0  0  0  0  0  0  0  0  0  0  0
    8.0597  -14.4079   19.9955 O   0  0  0  0  0  0  0  0  0  0  0  0
    8.7058  -15.5921   19.5951 C   0  0  0  0  0  0  0  0  0  0  0  0
    8.7768  -16.4815   20.8421 C   0  0  2  0  0  0  0  0  0  0  0  0
    7.8272  -15.9076   21.7870 N   0  0  0  0  0  0  0  0  0  0  0  0
   10.1501  -16.3906   21.3797 C   0  0  0  0  0  0  0  0  0  0  0  0
   10.3855  -15.8457   22.4838 O   0  0  0  0  0  0  0  0  0  0  0  0
   11.3323  -17.7721   23.4052 C   0  0  0  0  0  0  0  0  0  0  0  0
   12.2121  -18.2964   22.2854 C   0  0  1  0  0  0  0  0  0  0  0  0
   11.5755  -19.3679   21.6810 O   0  0  0  0  0  0  0  0  0  0  0  0
   12.4749  -17.2059   21.2594 C   0  0  2  0  0  0  0  0  0  0  0  0
   11.2095  -16.9347   20.6199 N   0  0  0  0  0  0  0  0  0  0  0  0
   13.5021  -17.6059   20.2860 C   0  0  0  0  0  0  0  0  0  0  0  0
   14.8308  -17.3857   20.5476 O   0  0  0  0  0  0  0  0  0  0  0  0
   13.1526  -18.1501   19.2144 O   0  0  0  0  0  0  0  0  0  0  0  0
  2  3  2  0
  2  1  1  0
  4  3  1  0
  5  4  2  0
  6  5  1  0
  7  6  1  0
  7  9  1  0
  7  8  1  1
  9 16  1  0
  9 10  2  0
 11  5  1  0
 11 12  2  0
 12  2  1  0
 14 13  1  0
 15 14  1  6
 16 15  1  0
 17 15  1  0
 17 18  2  0
 20 19  1  1
 20 21  1  0
 20 22  1  0
 22 23  1  6
 23 17  1  0
 24 22  1  0
 25 24  1  0
 26 24  2  0
M  END
$$$$
