YST.pdb
     RDKit          3D

 26 26  0  0  1  0  0  0  0  0999 V2000
    8.5580  -12.3731   17.9944 O   0  0  0  0  0  0  0  0  0  0  0  0
    8.0762  -13.0164   19.1458 C   0  0  0  0  0  0  0  0  0  0  0  0
    8.6906  -12.8844   20.3685 C   0  0  0  0  0  0  0  0  0  0  0  0
    8.1575  -13.5483   21.4556 C   0  0  0  0  0  0  0  0  0  0  0  0
    7.0380  -14.3230   21.3152 C   0  0  0  0  0  0  0  0  0  0  0  0
    6.4718  -15.0332   22.4686 C   0  0  0  0  0  0  0  0  0  0  0  0
    6.9033  -16.4820   22.4228 C   0  0  2  0  0  0  0  0  0  0  0  0
    5.7096  -17.3129   22.1670 N   0  0  0  0  0  0  0  0  0  0  0  0
    7.5311  -16.9007   23.6931 C   0  0  0  0  0  0  0  0  0  0  0  0
    6.9070  -17.1460   24.7469 O   0  0  0  0  0  0  0  0  0  0  0  0
    6.4399  -14.4418   20.0872 C   0  0  0  0  0  0  0  0  0  0  0  0
    6.9428  -13.7938   18.9772 C   0  0  0  0  0  0  0  0  0  0  0  0
   11.5220  -17.5075   23.5019 O   0  0  0  0  0  0  0  0  0  0  0  0
   10.8317  -18.3293   24.4119 C   0  0  0  0  0  0  0  0  0  0  0  0
    9.6459  -17.5005   24.9202 C   0  0  2  0  0  0  0  0  0  0  0  0
    8.9518  -17.0367   23.7256 N   0  0  0  0  0  0  0  0  0  0  0  0
   10.1917  -16.3516   25.6720 C   0  0  0  0  0  0  0  0  0  0  0  0
   10.8528  -15.4517   25.1022 O   0  0  0  0  0  0  0  0  0  0  0  0
    9.4272  -13.3863   26.8894 C   0  0  0  0  0  0  0  0  0  0  0  0
    9.7053  -14.1856   28.1491 C   0  0  1  0  0  0  0  0  0  0  0  0
    8.5107  -14.7014   28.6240 O   0  0  0  0  0  0  0  0  0  0  0  0
   10.6773  -15.3175   27.8580 C   0  0  2  0  0  0  0  0  0  0  0  0
    9.9543  -16.2811   27.0627 N   0  0  0  0  0  0  0  0  0  0  0  0
   11.2053  -15.9171   29.0927 C   0  0  0  0  0  0  0  0  0  0  0  0
   11.9616  -15.1700   29.9600 O   0  0  0  0  0  0  0  0  0  0  0  0
   10.9579  -17.1177   29.3458 O   0  0  0  0  0  0  0  0  0  0  0  0
  2  3  2  0
  2  1  1  0
  4  3  1  0
  5  4  2  0
  6  5  1  0
  7  6  1  0
  7  9  1  0
  7  8  1  1
  9 16  1  0
  9 10  2  0
 11  5  1  0
 11 12  2  0
 12  2  1  0
 14 13  1  0
 15 14  1  6
 16 15  1  0
 17 15  1  0
 17 18  2  0
 20 19  1  6
 20 21  1  0
 20 22  1  0
 22 23  1  1
 23 17  1  0
 24 22  1  0
 25 24  1  0
 26 24  2  0
M  END
$$$$
