YST.pdb
     RDKit          3D

 26 26  0  0  1  0  0  0  0  0999 V2000
   10.0124  -13.4458   30.4582 O   0  0  0  0  0  0  0  0  0  0  0  0
   10.3958  -14.1926   29.3327 C   0  0  0  0  0  0  0  0  0  0  0  0
    9.9448  -13.8943   28.0688 C   0  0  0  0  0  0  0  0  0  0  0  0
   10.3663  -14.6752   27.0109 C   0  0  0  0  0  0  0  0  0  0  0  0
   11.2174  -15.7264   27.2199 C   0  0  0  0  0  0  0  0  0  0  0  0
   11.6636  -16.5607   26.0973 C   0  0  0  0  0  0  0  0  0  0  0  0
   10.4569  -17.1642   25.4142 C   0  0  2  0  0  0  0  0  0  0  0  0
    9.7521  -18.0199   26.3899 N   0  0  0  0  0  0  0  0  0  0  0  0
   10.8467  -17.9738   24.2413 C   0  0  0  0  0  0  0  0  0  0  0  0
   10.9708  -19.2166   24.2455 O   0  0  0  0  0  0  0  0  0  0  0  0
   11.6559  -16.0076   28.4881 C   0  0  0  0  0  0  0  0  0  0  0  0
   11.2571  -15.2503   29.5709 C   0  0  0  0  0  0  0  0  0  0  0  0
   11.3479  -15.9365   20.7318 O   0  0  0  0  0  0  0  0  0  0  0  0
   10.9273  -17.2760   20.6363 C   0  0  0  0  0  0  0  0  0  0  0  0
   11.5591  -18.0071   21.8269 C   0  0  2  0  0  0  0  0  0  0  0  0
   11.1013  -17.2935   23.0122 N   0  0  0  0  0  0  0  0  0  0  0  0
   13.0263  -17.8916   21.6963 C   0  0  0  0  0  0  0  0  0  0  0  0
   13.6374  -16.8635   22.0720 O   0  0  0  0  0  0  0  0  0  0  0  0
   15.3797  -21.1227   22.3669 C   0  0  0  0  0  0  0  0  0  0  0  0
   15.6336  -20.4024   21.0555 C   0  0  1  0  0  0  0  0  0  0  0  0
   14.9356  -21.0483   20.0484 O   0  0  0  0  0  0  0  0  0  0  0  0
   15.1842  -18.9532   21.1481 C   0  0  2  0  0  0  0  0  0  0  0  0
   13.7408  -18.9724   21.1336 N   0  0  0  0  0  0  0  0  0  0  0  0
   15.7288  -18.1397   20.0506 C   0  0  0  0  0  0  0  0  0  0  0  0
   14.9709  -17.8773   18.9375 O   0  0  0  0  0  0  0  0  0  0  0  0
   16.8926  -17.6879   20.1414 O   0  0  0  0  0  0  0  0  0  0  0  0
  2  3  2  0
  2  1  1  0
  4  3  1  0
  5  4  2  0
  6  5  1  0
  7  6  1  0
  7  9  1  0
  7  8  1  1
  9 16  1  0
  9 10  2  0
 11  5  1  0
 11 12  2  0
 12  2  1  0
 14 13  1  0
 15 14  1  6
 16 15  1  0
 17 15  1  0
 17 18  2  0
 20 19  1  1
 20 21  1  0
 20 22  1  0
 22 23  1  6
 23 17  1  0
 24 22  1  0
 25 24  1  0
 26 24  2  0
M  END
$$$$
