YST.pdb
     RDKit          3D

 26 26  0  0  1  0  0  0  0  0999 V2000
    8.5941  -13.2415   16.6857 O   0  0  0  0  0  0  0  0  0  0  0  0
    8.3213  -13.6152   18.0114 C   0  0  0  0  0  0  0  0  0  0  0  0
    9.2052  -14.3565   18.7590 C   0  0  0  0  0  0  0  0  0  0  0  0
    8.8661  -14.6853   20.0565 C   0  0  0  0  0  0  0  0  0  0  0  0
    7.6710  -14.2793   20.5858 C   0  0  0  0  0  0  0  0  0  0  0  0
    7.3064  -14.6313   21.9637 C   0  0  0  0  0  0  0  0  0  0  0  0
    7.0564  -16.1204   22.0483 C   0  0  2  0  0  0  0  0  0  0  0  0
    5.7725  -16.4132   21.3799 N   0  0  0  0  0  0  0  0  0  0  0  0
    6.9970  -16.5809   23.4510 C   0  0  0  0  0  0  0  0  0  0  0  0
    5.9654  -16.9973   24.0189 O   0  0  0  0  0  0  0  0  0  0  0  0
    6.8030  -13.5406   19.8238 C   0  0  0  0  0  0  0  0  0  0  0  0
    7.1061  -13.1921   18.5232 C   0  0  0  0  0  0  0  0  0  0  0  0
    9.4468  -18.8410   24.8258 O   0  0  0  0  0  0  0  0  0  0  0  0
    8.2896  -18.5180   25.5583 C   0  0  0  0  0  0  0  0  0  0  0  0
    8.2301  -16.9866   25.6080 C   0  0  2  0  0  0  0  0  0  0  0  0
    8.2008  -16.5506   24.2178 N   0  0  0  0  0  0  0  0  0  0  0  0
    9.4645  -16.5114   26.2662 C   0  0  0  0  0  0  0  0  0  0  0  0
   10.2486  -15.7194   25.6921 O   0  0  0  0  0  0  0  0  0  0  0  0
    9.8961  -14.2262   27.1672 C   0  0  0  0  0  0  0  0  0  0  0  0
   10.1679  -14.8378   28.5292 C   0  0  1  0  0  0  0  0  0  0  0  0
    8.9873  -14.8589   29.2533 O   0  0  0  0  0  0  0  0  0  0  0  0
   10.7081  -16.2509   28.3804 C   0  0  2  0  0  0  0  0  0  0  0  0
    9.7526  -16.9692   27.5712 N   0  0  0  0  0  0  0  0  0  0  0  0
   10.9133  -16.8989   29.6845 C   0  0  0  0  0  0  0  0  0  0  0  0
   10.0960  -17.9247   30.0872 O   0  0  0  0  0  0  0  0  0  0  0  0
   11.8422  -16.5053   30.4254 O   0  0  0  0  0  0  0  0  0  0  0  0
  2  3  2  0
  2  1  1  0
  4  3  1  0
  5  4  2  0
  6  5  1  0
  7  6  1  0
  7  9  1  0
  7  8  1  1
  9 16  1  0
  9 10  2  0
 11  5  1  0
 11 12  2  0
 12  2  1  0
 14 13  1  0
 15 14  1  6
 16 15  1  0
 17 15  1  0
 17 18  2  0
 20 19  1  6
 20 21  1  0
 20 22  1  0
 22 23  1  6
 23 17  1  0
 24 22  1  0
 25 24  1  0
 26 24  2  0
M  END
$$$$
