YST.pdb
     RDKit          3D

 26 26  0  0  1  0  0  0  0  0999 V2000
   10.3822  -14.4458   30.7090 O   0  0  0  0  0  0  0  0  0  0  0  0
   10.0821  -14.7296   29.3670 C   0  0  0  0  0  0  0  0  0  0  0  0
    9.3497  -13.8694   28.5837 C   0  0  0  0  0  0  0  0  0  0  0  0
    9.0951  -14.2180   27.2721 C   0  0  0  0  0  0  0  0  0  0  0  0
    9.5646  -15.3990   26.7640 C   0  0  0  0  0  0  0  0  0  0  0  0
    9.2917  -15.7738   25.3711 C   0  0  0  0  0  0  0  0  0  0  0  0
    7.8802  -16.3064   25.2655 C   0  0  2  0  0  0  0  0  0  0  0  0
    7.7863  -17.5342   26.0808 N   0  0  0  0  0  0  0  0  0  0  0  0
    7.5214  -16.6165   23.8662 C   0  0  0  0  0  0  0  0  0  0  0  0
    7.2120  -17.7517   23.4470 O   0  0  0  0  0  0  0  0  0  0  0  0
   10.2933  -16.2432   27.5615 C   0  0  0  0  0  0  0  0  0  0  0  0
   10.5685  -15.9300   28.8772 C   0  0  0  0  0  0  0  0  0  0  0  0
    7.9134  -13.5911   21.0201 O   0  0  0  0  0  0  0  0  0  0  0  0
    6.7512  -14.3840   20.9912 C   0  0  0  0  0  0  0  0  0  0  0  0
    7.1613  -15.7613   21.5259 C   0  0  2  0  0  0  0  0  0  0  0  0
    7.5265  -15.5472   22.9203 N   0  0  0  0  0  0  0  0  0  0  0  0
    8.3380  -16.2098   20.7530 C   0  0  0  0  0  0  0  0  0  0  0  0
    8.2770  -16.3890   19.5137 O   0  0  0  0  0  0  0  0  0  0  0  0
   11.8240  -14.8003   20.7789 C   0  0  0  0  0  0  0  0  0  0  0  0
   11.9047  -16.2567   21.1976 C   0  0  1  0  0  0  0  0  0  0  0  0
   12.0060  -16.3201   22.5776 O   0  0  0  0  0  0  0  0  0  0  0  0
   10.6700  -17.0132   20.7349 C   0  0  2  0  0  0  0  0  0  0  0  0
    9.5506  -16.4369   21.4411 N   0  0  0  0  0  0  0  0  0  0  0  0
   10.7867  -18.4576   20.9857 C   0  0  0  0  0  0  0  0  0  0  0  0
   11.7076  -19.2097   20.3012 O   0  0  0  0  0  0  0  0  0  0  0  0
   10.0366  -18.9957   21.8310 O   0  0  0  0  0  0  0  0  0  0  0  0
  2  3  2  0
  2  1  1  0
  4  3  1  0
  5  4  2  0
  6  5  1  0
  7  6  1  0
  7  9  1  0
  7  8  1  1
  9 16  1  0
  9 10  2  0
 11  5  1  0
 11 12  2  0
 12  2  1  0
 14 13  1  0
 15 14  1  6
 16 15  1  0
 17 15  1  0
 17 18  2  0
 20 19  1  1
 20 21  1  0
 20 22  1  0
 22 23  1  1
 23 17  1  0
 24 22  1  0
 25 24  1  0
 26 24  2  0
M  END
$$$$
