IWC.pdb
     RDKit          3D

 29 30  0  0  1  0  0  0  0  0999 V2000
   19.1462  -13.3009  -20.7346 C   0  0  0  0  0  0  0  0  0  0  0  0
   20.4364  -12.7313  -20.2230 C   0  0  0  0  0  0  0  0  0  0  0  0
   20.2579  -11.7302  -19.1158 C   0  0  2  0  0  0  0  0  0  0  0  0
   19.3643  -10.6247  -19.6282 C   0  0  0  0  0  0  0  0  0  0  0  0
   21.5725  -11.1914  -18.5955 C   0  0  2  0  0  0  0  0  0  0  0  0
   22.3692  -12.3106  -18.1561 N   0  0  0  0  0  0  0  0  0  0  0  0
   21.4047  -10.2223  -17.5139 C   0  0  0  0  0  0  0  0  0  0  0  0
   21.0189  -10.6325  -16.3771 O   0  0  0  0  0  0  0  0  0  0  0  0
   21.6399   -8.8314  -17.6236 N   0  0  0  0  0  0  0  0  0  0  0  0
   21.5849   -7.8945  -16.5372 C   0  0  1  0  0  0  0  0  0  0  0  0
   22.8122   -7.0526  -16.4131 C   0  0  0  0  0  0  0  0  0  0  0  0
   24.0853   -7.7600  -16.3385 C   0  0  0  0  0  0  0  0  0  0  0  0
   25.2195   -7.4464  -17.0582 C   0  0  0  0  0  0  0  0  0  0  0  0
   26.1778   -8.3174  -16.7383 N   0  0  0  0  0  0  0  0  0  0  0  0
   25.7310   -9.1985  -15.8355 C   0  0  0  0  0  0  0  0  0  0  0  0
   26.3517  -10.2666  -15.2106 C   0  0  0  0  0  0  0  0  0  0  0  0
   25.6731  -11.0227  -14.3082 C   0  0  0  0  0  0  0  0  0  0  0  0
   24.3609  -10.7069  -14.0281 C   0  0  0  0  0  0  0  0  0  0  0  0
   23.7463   -9.6426  -14.6528 C   0  0  0  0  0  0  0  0  0  0  0  0
   24.4166   -8.8577  -15.5764 C   0  0  0  0  0  0  0  0  0  0  0  0
   20.3279   -7.1301  -16.4944 C   0  0  0  0  0  0  0  0  0  0  0  0
   19.9068   -6.5523  -17.5559 O   0  0  0  0  0  0  0  0  0  0  0  0
   19.5100   -6.9688  -15.3448 N   0  0  0  0  0  0  0  0  0  0  0  0
   18.2599   -6.2059  -15.3989 C   0  0  1  0  0  0  0  0  0  0  0  0
   17.3214   -6.7527  -14.3360 C   0  0  0  0  0  0  0  0  0  0  0  0
   15.8196   -5.7424  -14.2849 S   0  0  0  0  0  0  0  0  0  0  0  0
   18.4962   -4.7691  -15.2838 C   0  0  0  0  0  0  0  0  0  0  0  0
   17.8243   -3.8755  -16.1360 O   0  0  0  0  0  0  0  0  0  0  0  0
   19.2993   -4.3287  -14.4251 O   0  0  0  0  0  0  0  0  0  0  0  0
  2  1  1  0
  3  2  1  0
  3  4  1  6
  5  3  1  0
  5  6  1  1
  7  5  1  0
  8  7  2  0
  9  7  1  0
 10  9  1  0
 11 12  1  0
 10 11  1  6
 12 20  1  0
 12 13  2  0
 13 14  1  0
 15 14  1  0
 15 16  2  0
 17 16  1  0
 18 17  2  0
 19 18  1  0
 19 20  2  0
 20 15  1  0
 21 22  2  0
 21 10  1  0
 23 21  1  0
 24 23  1  0
 24 25  1  1
 26 25  1  0
 27 24  1  0
 28 27  1  0
 29 27  2  0
M  END
$$$$
