IWC.pdb
     RDKit          3D

 29 30  0  0  1  0  0  0  0  0999 V2000
   30.5451  -18.8592  -15.4424 C   0  0  0  0  0  0  0  0  0  0  0  0
   29.1279  -18.5986  -15.0246 C   0  0  0  0  0  0  0  0  0  0  0  0
   28.6393  -19.5173  -13.9396 C   0  0  2  0  0  0  0  0  0  0  0  0
   28.9155  -20.9379  -14.3740 C   0  0  0  0  0  0  0  0  0  0  0  0
   27.1781  -19.3074  -13.6082 C   0  0  2  0  0  0  0  0  0  0  0  0
   26.9939  -17.9175  -13.2697 N   0  0  0  0  0  0  0  0  0  0  0  0
   26.7088  -20.1683  -12.5237 C   0  0  0  0  0  0  0  0  0  0  0  0
   26.9384  -21.4144  -12.5867 O   0  0  0  0  0  0  0  0  0  0  0  0
   26.0031  -19.7253  -11.3803 N   0  0  0  0  0  0  0  0  0  0  0  0
   25.1482  -20.5430  -10.5671 C   0  0  1  0  0  0  0  0  0  0  0  0
   25.0658  -20.0908   -9.1460 C   0  0  0  0  0  0  0  0  0  0  0  0
   26.3288  -19.7907   -8.4815 C   0  0  0  0  0  0  0  0  0  0  0  0
   27.3474  -19.0225   -9.0059 C   0  0  0  0  0  0  0  0  0  0  0  0
   28.3444  -18.9807   -8.1208 N   0  0  0  0  0  0  0  0  0  0  0  0
   28.0340  -19.6882   -7.0280 C   0  0  0  0  0  0  0  0  0  0  0  0
   28.7376  -19.9290   -5.8603 C   0  0  0  0  0  0  0  0  0  0  0  0
   28.1931  -20.6907   -4.8755 C   0  0  0  0  0  0  0  0  0  0  0  0
   26.9323  -21.2163   -5.0607 C   0  0  0  0  0  0  0  0  0  0  0  0
   26.2350  -20.9744   -6.2252 C   0  0  0  0  0  0  0  0  0  0  0  0
   26.7688  -20.2019   -7.2433 C   0  0  0  0  0  0  0  0  0  0  0  0
   23.8402  -20.8093  -11.1871 C   0  0  0  0  0  0  0  0  0  0  0  0
   23.1643  -19.8366  -11.6719 O   0  0  0  0  0  0  0  0  0  0  0  0
   23.2374  -22.0900  -11.3019 N   0  0  0  0  0  0  0  0  0  0  0  0
   21.9667  -22.2745  -12.0083 C   0  0  1  0  0  0  0  0  0  0  0  0
   21.9427  -23.6795  -12.5870 C   0  0  0  0  0  0  0  0  0  0  0  0
   23.3728  -23.9044  -13.6748 S   0  0  0  0  0  0  0  0  0  0  0  0
   20.8218  -21.9781  -11.1510 C   0  0  0  0  0  0  0  0  0  0  0  0
   21.0266  -21.5294   -9.8346 O   0  0  0  0  0  0  0  0  0  0  0  0
   19.6533  -22.1236  -11.5866 O   0  0  0  0  0  0  0  0  0  0  0  0
  2  1  1  0
  3  2  1  0
  3  4  1  6
  5  3  1  0
  5  6  1  1
  7  5  1  0
  8  7  2  0
  9  7  1  0
 10  9  1  0
 11 12  1  0
 10 11  1  1
 12 20  1  0
 12 13  2  0
 13 14  1  0
 15 14  1  0
 15 16  2  0
 17 16  1  0
 18 17  2  0
 19 18  1  0
 19 20  2  0
 20 15  1  0
 21 22  2  0
 21 10  1  0
 23 21  1  0
 24 23  1  0
 24 25  1  1
 26 25  1  0
 27 24  1  0
 28 27  1  0
 29 27  2  0
M  END
$$$$
