IWC.pdb
     RDKit          3D

 29 30  0  0  1  0  0  0  0  0999 V2000
   29.2935  -19.1484  -14.1960 C   0  0  0  0  0  0  0  0  0  0  0  0
   27.9730  -19.8263  -13.9777 C   0  0  0  0  0  0  0  0  0  0  0  0
   27.7224  -20.2144  -12.5471 C   0  0  2  0  0  0  0  0  0  0  0  0
   28.8030  -21.1859  -12.1328 C   0  0  0  0  0  0  0  0  0  0  0  0
   26.3398  -20.7890  -12.3296 C   0  0  2  0  0  0  0  0  0  0  0  0
   25.3852  -19.8917  -12.9327 N   0  0  0  0  0  0  0  0  0  0  0  0
   26.0254  -21.0026  -10.9179 C   0  0  0  0  0  0  0  0  0  0  0  0
   26.6704  -21.8839  -10.2723 O   0  0  0  0  0  0  0  0  0  0  0  0
   25.0407  -20.2964  -10.1875 N   0  0  0  0  0  0  0  0  0  0  0  0
   24.6468  -20.5840   -8.8373 C   0  0  1  0  0  0  0  0  0  0  0  0
   24.7903  -19.4194   -7.9132 C   0  0  0  0  0  0  0  0  0  0  0  0
   26.1185  -19.1850   -7.3587 C   0  0  0  0  0  0  0  0  0  0  0  0
   27.0511  -18.3004   -7.8592 C   0  0  0  0  0  0  0  0  0  0  0  0
   28.1471  -18.3678   -7.1020 N   0  0  0  0  0  0  0  0  0  0  0  0
   27.9851  -19.2596   -6.1174 C   0  0  0  0  0  0  0  0  0  0  0  0
   28.8298  -19.6642   -5.0978 C   0  0  0  0  0  0  0  0  0  0  0  0
   28.4234  -20.6007   -4.2008 C   0  0  0  0  0  0  0  0  0  0  0  0
   27.1599  -21.1372   -4.3251 C   0  0  0  0  0  0  0  0  0  0  0  0
   26.3219  -20.7318   -5.3421 C   0  0  0  0  0  0  0  0  0  0  0  0
   26.7133  -19.7796   -6.2686 C   0  0  0  0  0  0  0  0  0  0  0  0
   23.3444  -21.2635   -8.7459 C   0  0  0  0  0  0  0  0  0  0  0  0
   22.5095  -21.1551   -9.7099 O   0  0  0  0  0  0  0  0  0  0  0  0
   22.9130  -22.0563   -7.6495 N   0  0  0  0  0  0  0  0  0  0  0  0
   21.5689  -22.6392   -7.6119 C   0  0  1  0  0  0  0  0  0  0  0  0
   21.3180  -23.1681   -6.2094 C   0  0  0  0  0  0  0  0  0  0  0  0
   19.7359  -24.0482   -6.1746 S   0  0  0  0  0  0  0  0  0  0  0  0
   20.5543  -21.6924   -8.0675 C   0  0  0  0  0  0  0  0  0  0  0  0
   19.4770  -22.1396   -8.8520 O   0  0  0  0  0  0  0  0  0  0  0  0
   20.6417  -20.4781   -7.7606 O   0  0  0  0  0  0  0  0  0  0  0  0
  2  1  1  0
  3  2  1  0
  3  4  1  6
  5  3  1  0
  5  6  1  1
  7  5  1  0
  8  7  2  0
  9  7  1  0
 10  9  1  0
 11 12  1  0
 10 11  1  1
 12 20  1  0
 12 13  2  0
 13 14  1  0
 15 14  1  0
 15 16  2  0
 17 16  1  0
 18 17  2  0
 19 18  1  0
 19 20  2  0
 20 15  1  0
 21 22  2  0
 21 10  1  0
 23 21  1  0
 24 23  1  0
 24 25  1  1
 26 25  1  0
 27 24  1  0
 28 27  1  0
 29 27  2  0
M  END
$$$$
