IWC.pdb
     RDKit          3D

 29 30  0  0  1  0  0  0  0  0999 V2000
   28.7404  -19.0102  -17.6046 C   0  0  0  0  0  0  0  0  0  0  0  0
   28.2212  -19.9176  -16.5286 C   0  0  0  0  0  0  0  0  0  0  0  0
   26.9093  -19.4732  -15.9444 C   0  0  2  0  0  0  0  0  0  0  0  0
   27.0508  -18.0268  -15.5307 C   0  0  0  0  0  0  0  0  0  0  0  0
   26.4562  -20.3430  -14.7924 C   0  0  2  0  0  0  0  0  0  0  0  0
   26.4173  -21.7087  -15.2547 N   0  0  0  0  0  0  0  0  0  0  0  0
   25.1573  -19.9449  -14.2523 C   0  0  0  0  0  0  0  0  0  0  0  0
   25.0447  -18.8078  -13.7012 O   0  0  0  0  0  0  0  0  0  0  0  0
   23.9837  -20.7342  -14.2896 N   0  0  0  0  0  0  0  0  0  0  0  0
   22.6870  -20.3109  -13.8424 C   0  0  1  0  0  0  0  0  0  0  0  0
   21.6577  -20.2982  -14.9245 C   0  0  0  0  0  0  0  0  0  0  0  0
   21.7702  -19.2396  -15.9212 C   0  0  0  0  0  0  0  0  0  0  0  0
   22.5427  -19.2927  -17.0628 C   0  0  0  0  0  0  0  0  0  0  0  0
   22.4043  -18.1409  -17.7212 N   0  0  0  0  0  0  0  0  0  0  0  0
   21.5721  -17.3218  -17.0674 C   0  0  0  0  0  0  0  0  0  0  0  0
   21.1256  -16.0441  -17.3584 C   0  0  0  0  0  0  0  0  0  0  0  0
   20.2602  -15.4124  -16.5225 C   0  0  0  0  0  0  0  0  0  0  0  0
   19.8373  -16.0655  -15.3847 C   0  0  0  0  0  0  0  0  0  0  0  0
   20.2846  -17.3379  -15.0984 C   0  0  0  0  0  0  0  0  0  0  0  0
   21.1669  -18.0020  -15.9342 C   0  0  0  0  0  0  0  0  0  0  0  0
   22.2506  -20.9856  -12.6093 C   0  0  0  0  0  0  0  0  0  0  0  0
   22.3128  -22.2617  -12.5349 O   0  0  0  0  0  0  0  0  0  0  0  0
   21.7497  -20.3293  -11.4538 N   0  0  0  0  0  0  0  0  0  0  0  0
   21.2951  -21.0856  -10.2838 C   0  0  1  0  0  0  0  0  0  0  0  0
   21.9669  -20.5051   -9.0505 C   0  0  0  0  0  0  0  0  0  0  0  0
   21.4229  -21.4190   -7.5850 S   0  0  0  0  0  0  0  0  0  0  0  0
   19.8377  -21.1182  -10.1921 C   0  0  0  0  0  0  0  0  0  0  0  0
   19.1865  -22.2851   -9.7557 O   0  0  0  0  0  0  0  0  0  0  0  0
   19.1633  -20.1058  -10.5029 O   0  0  0  0  0  0  0  0  0  0  0  0
  2  1  1  0
  3  2  1  0
  3  4  1  1
  5  3  1  0
  5  6  1  6
  7  5  1  0
  8  7  2  0
  9  7  1  0
 10  9  1  0
 11 12  1  0
 10 11  1  6
 12 20  1  0
 12 13  2  0
 13 14  1  0
 15 14  1  0
 15 16  2  0
 17 16  1  0
 18 17  2  0
 19 18  1  0
 19 20  2  0
 20 15  1  0
 21 22  2  0
 21 10  1  0
 23 21  1  0
 24 23  1  0
 24 25  1  1
 26 25  1  0
 27 24  1  0
 28 27  1  0
 29 27  2  0
M  END
$$$$
