IWC.pdb
     RDKit          3D

 29 30  0  0  1  0  0  0  0  0999 V2000
   27.2512  -14.3191  -18.5635 C   0  0  0  0  0  0  0  0  0  0  0  0
   27.1198  -13.2674  -17.5017 C   0  0  0  0  0  0  0  0  0  0  0  0
   25.7635  -12.6205  -17.4567 C   0  0  2  0  0  0  0  0  0  0  0  0
   25.4672  -12.0658  -18.8306 C   0  0  0  0  0  0  0  0  0  0  0  0
   25.6580  -11.5547  -16.3881 C   0  0  2  0  0  0  0  0  0  0  0  0
   25.9260  -12.1745  -15.1136 N   0  0  0  0  0  0  0  0  0  0  0  0
   24.3571  -10.8877  -16.3731 C   0  0  0  0  0  0  0  0  0  0  0  0
   24.0410  -10.1379  -17.3464 O   0  0  0  0  0  0  0  0  0  0  0  0
   23.3937  -11.0059  -15.3437 N   0  0  0  0  0  0  0  0  0  0  0  0
   22.0917  -10.4012  -15.3552 C   0  0  1  0  0  0  0  0  0  0  0  0
   21.0560  -11.2017  -14.6361 C   0  0  0  0  0  0  0  0  0  0  0  0
   19.8036  -11.4374  -15.3451 C   0  0  0  0  0  0  0  0  0  0  0  0
   19.5730  -12.4545  -16.2479 C   0  0  0  0  0  0  0  0  0  0  0  0
   18.3228  -12.3441  -16.6993 N   0  0  0  0  0  0  0  0  0  0  0  0
   17.7094  -11.2967  -16.1358 C   0  0  0  0  0  0  0  0  0  0  0  0
   16.4279  -10.7944  -16.2852 C   0  0  0  0  0  0  0  0  0  0  0  0
   16.0336   -9.6998  -15.5831 C   0  0  0  0  0  0  0  0  0  0  0  0
   16.9299   -9.1022  -14.7231 C   0  0  0  0  0  0  0  0  0  0  0  0
   18.2052   -9.6053  -14.5775 C   0  0  0  0  0  0  0  0  0  0  0  0
   18.6307  -10.7191  -15.2822 C   0  0  0  0  0  0  0  0  0  0  0  0
   22.1111   -8.9769  -14.9846 C   0  0  0  0  0  0  0  0  0  0  0  0
   22.7536   -8.6072  -13.9413 O   0  0  0  0  0  0  0  0  0  0  0  0
   21.4609   -7.9383  -15.7025 N   0  0  0  0  0  0  0  0  0  0  0  0
   21.4863   -6.5518  -15.2286 C   0  0  1  0  0  0  0  0  0  0  0  0
   22.5501   -5.8001  -16.0113 C   0  0  0  0  0  0  0  0  0  0  0  0
   22.5377   -4.0576  -15.5190 S   0  0  0  0  0  0  0  0  0  0  0  0
   20.1658   -5.9313  -15.2965 C   0  0  0  0  0  0  0  0  0  0  0  0
   19.8116   -4.9291  -14.3766 O   0  0  0  0  0  0  0  0  0  0  0  0
   19.3443   -6.2910  -16.1752 O   0  0  0  0  0  0  0  0  0  0  0  0
  2  1  1  0
  3  2  1  0
  3  4  1  6
  5  3  1  0
  5  6  1  1
  7  5  1  0
  8  7  2  0
  9  7  1  0
 10  9  1  0
 11 12  1  0
 10 11  1  1
 12 20  1  0
 12 13  2  0
 13 14  1  0
 15 14  1  0
 15 16  2  0
 17 16  1  0
 18 17  2  0
 19 18  1  0
 19 20  2  0
 20 15  1  0
 21 22  2  0
 21 10  1  0
 23 21  1  0
 24 23  1  0
 24 25  1  6
 26 25  1  0
 27 24  1  0
 28 27  1  0
 29 27  2  0
M  END
$$$$
