IWC.pdb
     RDKit          3D

 29 30  0  0  1  0  0  0  0  0999 V2000
   25.9755  -20.7643  -16.3272 C   0  0  0  0  0  0  0  0  0  0  0  0
   27.0047  -20.1568  -15.4203 C   0  0  0  0  0  0  0  0  0  0  0  0
   26.9649  -20.6931  -14.0164 C   0  0  2  0  0  0  0  0  0  0  0  0
   27.3706  -22.1479  -14.0628 C   0  0  0  0  0  0  0  0  0  0  0  0
   25.6156  -20.5091  -13.3571 C   0  0  2  0  0  0  0  0  0  0  0  0
   25.2324  -19.1267  -13.5064 N   0  0  0  0  0  0  0  0  0  0  0  0
   25.6113  -20.8955  -11.9471 C   0  0  0  0  0  0  0  0  0  0  0  0
   25.8093  -22.1113  -11.6437 O   0  0  0  0  0  0  0  0  0  0  0  0
   25.4005  -20.0125  -10.8619 N   0  0  0  0  0  0  0  0  0  0  0  0
   25.3791  -20.3926   -9.4777 C   0  0  1  0  0  0  0  0  0  0  0  0
   26.1340  -19.4577   -8.5908 C   0  0  0  0  0  0  0  0  0  0  0  0
   27.3465  -19.9801   -7.9715 C   0  0  0  0  0  0  0  0  0  0  0  0
   28.1533  -20.9677   -8.4974 C   0  0  0  0  0  0  0  0  0  0  0  0
   29.1576  -21.1903   -7.6483 N   0  0  0  0  0  0  0  0  0  0  0  0
   29.0553  -20.3929   -6.5785 C   0  0  0  0  0  0  0  0  0  0  0  0
   29.8512  -20.2602   -5.4535 C   0  0  0  0  0  0  0  0  0  0  0  0
   29.5327  -19.3563   -4.4901 C   0  0  0  0  0  0  0  0  0  0  0  0
   28.4072  -18.5776   -4.6539 C   0  0  0  0  0  0  0  0  0  0  0  0
   27.6170  -18.7131   -5.7756 C   0  0  0  0  0  0  0  0  0  0  0  0
   27.9204  -19.6273   -6.7708 C   0  0  0  0  0  0  0  0  0  0  0  0
   24.0311  -20.7241   -8.9886 C   0  0  0  0  0  0  0  0  0  0  0  0
   23.0257  -20.0568   -9.4149 O   0  0  0  0  0  0  0  0  0  0  0  0
   23.7318  -21.7519   -8.0555 N   0  0  0  0  0  0  0  0  0  0  0  0
   22.3510  -22.0480   -7.6637 C   0  0  1  0  0  0  0  0  0  0  0  0
   22.3518  -23.3295   -6.8468 C   0  0  0  0  0  0  0  0  0  0  0  0
   20.6515  -23.7474   -6.3851 S   0  0  0  0  0  0  0  0  0  0  0  0
   21.7286  -20.9195   -6.9762 C   0  0  0  0  0  0  0  0  0  0  0  0
   20.3758  -20.6149   -7.2071 O   0  0  0  0  0  0  0  0  0  0  0  0
   22.3992  -20.2190   -6.1788 O   0  0  0  0  0  0  0  0  0  0  0  0
  2  1  1  0
  3  2  1  0
  3  4  1  6
  5  3  1  0
  5  6  1  1
  7  5  1  0
  8  7  2  0
  9  7  1  0
 10  9  1  0
 11 12  1  0
 10 11  1  1
 12 20  1  0
 12 13  2  0
 13 14  1  0
 15 14  1  0
 15 16  2  0
 17 16  1  0
 18 17  2  0
 19 18  1  0
 19 20  2  0
 20 15  1  0
 21 22  2  0
 21 10  1  0
 23 21  1  0
 24 23  1  0
 24 25  1  1
 26 25  1  0
 27 24  1  0
 28 27  1  0
 29 27  2  0
M  END
$$$$
