IWC.pdb
     RDKit          3D

 29 30  0  0  1  0  0  0  0  0999 V2000
   28.0760  -20.2936  -16.5751 C   0  0  0  0  0  0  0  0  0  0  0  0
   28.5284  -19.5119  -15.3771 C   0  0  0  0  0  0  0  0  0  0  0  0
   28.2065  -20.1744  -14.0667 C   0  0  2  0  0  0  0  0  0  0  0  0
   28.7755  -21.5738  -14.1011 C   0  0  0  0  0  0  0  0  0  0  0  0
   26.7246  -20.1802  -13.7615 C   0  0  2  0  0  0  0  0  0  0  0  0
   26.2216  -18.8452  -13.9735 N   0  0  0  0  0  0  0  0  0  0  0  0
   26.4223  -20.6352  -12.4055 C   0  0  0  0  0  0  0  0  0  0  0  0
   26.3778  -21.8815  -12.1723 O   0  0  0  0  0  0  0  0  0  0  0  0
   26.1681  -19.7887  -11.3006 N   0  0  0  0  0  0  0  0  0  0  0  0
   25.8005  -20.2321   -9.9856 C   0  0  1  0  0  0  0  0  0  0  0  0
   26.3671  -19.3879   -8.8916 C   0  0  0  0  0  0  0  0  0  0  0  0
   26.2960  -19.9340   -7.5412 C   0  0  0  0  0  0  0  0  0  0  0  0
   25.2739  -20.7169   -7.0463 C   0  0  0  0  0  0  0  0  0  0  0  0
   25.5472  -21.0157   -5.7754 N   0  0  0  0  0  0  0  0  0  0  0  0
   26.7085  -20.4655   -5.4016 C   0  0  0  0  0  0  0  0  0  0  0  0
   27.3955  -20.5000   -4.2001 C   0  0  0  0  0  0  0  0  0  0  0  0
   28.5831  -19.8525   -4.0697 C   0  0  0  0  0  0  0  0  0  0  0  0
   29.0881  -19.1640   -5.1517 C   0  0  0  0  0  0  0  0  0  0  0  0
   28.4007  -19.1317   -6.3464 C   0  0  0  0  0  0  0  0  0  0  0  0
   27.1886  -19.7832   -6.5038 C   0  0  0  0  0  0  0  0  0  0  0  0
   24.3606  -20.5038   -9.8472 C   0  0  0  0  0  0  0  0  0  0  0  0
   23.5186  -19.7606  -10.4608 O   0  0  0  0  0  0  0  0  0  0  0  0
   23.7992  -21.5509   -9.0693 N   0  0  0  0  0  0  0  0  0  0  0  0
   22.3855  -21.9176   -9.1907 C   0  0  1  0  0  0  0  0  0  0  0  0
   22.0326  -22.8433   -8.0383 C   0  0  0  0  0  0  0  0  0  0  0  0
   21.9723  -21.8898   -6.5001 S   0  0  0  0  0  0  0  0  0  0  0  0
   21.5254  -20.7402   -9.2764 C   0  0  0  0  0  0  0  0  0  0  0  0
   20.1589  -20.8877   -9.5717 O   0  0  0  0  0  0  0  0  0  0  0  0
   22.0034  -19.5948   -9.0873 O   0  0  0  0  0  0  0  0  0  0  0  0
  2  1  1  0
  3  2  1  0
  3  4  1  6
  5  3  1  0
  5  6  1  1
  7  5  1  0
  8  7  2  0
  9  7  1  0
 10  9  1  0
 11 12  1  0
 10 11  1  1
 12 20  1  0
 12 13  2  0
 13 14  1  0
 15 14  1  0
 15 16  2  0
 17 16  1  0
 18 17  2  0
 19 18  1  0
 19 20  2  0
 20 15  1  0
 21 22  2  0
 21 10  1  0
 23 21  1  0
 24 23  1  0
 24 25  1  1
 26 25  1  0
 27 24  1  0
 28 27  1  0
 29 27  2  0
M  END
$$$$
