IWC.pdb
     RDKit          3D

 29 30  0  0  1  0  0  0  0  0999 V2000
   26.3304  -18.5783  -19.8672 C   0  0  0  0  0  0  0  0  0  0  0  0
   26.7640  -19.5345  -18.7955 C   0  0  0  0  0  0  0  0  0  0  0  0
   26.0897  -19.3044  -17.4717 C   0  0  2  0  0  0  0  0  0  0  0  0
   26.3773  -17.8839  -17.0442 C   0  0  0  0  0  0  0  0  0  0  0  0
   26.5134  -20.3030  -16.4170 C   0  0  2  0  0  0  0  0  0  0  0  0
   26.1527  -21.6201  -16.8810 N   0  0  0  0  0  0  0  0  0  0  0  0
   25.9196  -20.0376  -15.1077 C   0  0  0  0  0  0  0  0  0  0  0  0
   25.9421  -18.8536  -14.6526 O   0  0  0  0  0  0  0  0  0  0  0  0
   25.3061  -21.0077  -14.2805 N   0  0  0  0  0  0  0  0  0  0  0  0
   24.6373  -20.7341  -13.0400 C   0  0  1  0  0  0  0  0  0  0  0  0
   23.2537  -21.2925  -12.9727 C   0  0  0  0  0  0  0  0  0  0  0  0
   22.2371  -20.6181  -13.7718 C   0  0  0  0  0  0  0  0  0  0  0  0
   22.0156  -20.8155  -15.1189 C   0  0  0  0  0  0  0  0  0  0  0  0
   21.0181  -20.0186  -15.5048 N   0  0  0  0  0  0  0  0  0  0  0  0
   20.5645  -19.2981  -14.4723 C   0  0  0  0  0  0  0  0  0  0  0  0
   19.5545  -18.3553  -14.3845 C   0  0  0  0  0  0  0  0  0  0  0  0
   19.2761  -17.7562  -13.1971 C   0  0  0  0  0  0  0  0  0  0  0  0
   20.0152  -18.1038  -12.0868 C   0  0  0  0  0  0  0  0  0  0  0  0
   21.0204  -19.0429  -12.1784 C   0  0  0  0  0  0  0  0  0  0  0  0
   21.3233  -19.6669  -13.3772 C   0  0  0  0  0  0  0  0  0  0  0  0
   25.4620  -21.0345  -11.8586 C   0  0  0  0  0  0  0  0  0  0  0  0
   25.9435  -22.2110  -11.7104 O   0  0  0  0  0  0  0  0  0  0  0  0
   25.7847  -20.1077  -10.8320 N   0  0  0  0  0  0  0  0  0  0  0  0
   26.2181  -20.5580   -9.5065 C   0  0  1  0  0  0  0  0  0  0  0  0
   27.0687  -19.4624   -8.8855 C   0  0  0  0  0  0  0  0  0  0  0  0
   27.4699  -19.9102   -7.1775 S   0  0  0  0  0  0  0  0  0  0  0  0
   25.0872  -20.9598   -8.6739 C   0  0  0  0  0  0  0  0  0  0  0  0
   25.2579  -21.9417   -7.6825 O   0  0  0  0  0  0  0  0  0  0  0  0
   23.9611  -20.4306   -8.8414 O   0  0  0  0  0  0  0  0  0  0  0  0
  2  1  1  0
  3  2  1  0
  3  4  1  1
  5  3  1  0
  5  6  1  6
  7  5  1  0
  8  7  2  0
  9  7  1  0
 10  9  1  0
 11 12  1  0
 10 11  1  1
 12 20  1  0
 12 13  2  0
 13 14  1  0
 15 14  1  0
 15 16  2  0
 17 16  1  0
 18 17  2  0
 19 18  1  0
 19 20  2  0
 20 15  1  0
 21 22  2  0
 21 10  1  0
 23 21  1  0
 24 23  1  0
 24 25  1  1
 26 25  1  0
 27 24  1  0
 28 27  1  0
 29 27  2  0
M  END
$$$$
