EYL.pdb
     RDKit          3D

 30 30  0  0  1  0  0  0  0  0999 V2000
   27.5969  -28.9118  -19.7505 N   0  0  0  0  0  0  0  0  0  0  0  0
   28.4091  -29.5094  -20.8167 C   0  0  1  0  0  0  0  0  0  0  0  0
   29.2173  -28.4337  -21.5190 C   0  0  0  0  0  0  0  0  0  0  0  0
   28.3841  -27.4458  -22.2642 C   0  0  0  0  0  0  0  0  0  0  0  0
   29.3373  -26.5167  -22.9690 C   0  0  0  0  0  0  0  0  0  0  0  0
   29.0558  -25.9816  -24.0678 O   0  0  0  0  0  0  0  0  0  0  0  0
   29.2276  -30.5822  -20.2449 C   0  0  0  0  0  0  0  0  0  0  0  0
   30.0285  -31.2864  -20.9152 O   0  0  0  0  0  0  0  0  0  0  0  0
   30.5639  -26.2360  -22.3985 O   0  0  0  0  0  0  0  0  0  0  0  0
   35.0428  -28.3476  -19.6626 O   0  0  0  0  0  0  0  0  0  0  0  0
   34.0384  -29.0817  -19.0504 C   0  0  0  0  0  0  0  0  0  0  0  0
   34.1613  -30.4340  -18.8571 C   0  0  0  0  0  0  0  0  0  0  0  0
   33.1522  -31.1417  -18.2475 C   0  0  0  0  0  0  0  0  0  0  0  0
   31.9867  -30.4992  -17.8148 C   0  0  0  0  0  0  0  0  0  0  0  0
   30.9043  -31.2709  -17.1876 C   0  0  0  0  0  0  0  0  0  0  0  0
   30.0398  -31.8980  -18.2339 C   0  0  2  0  0  0  0  0  0  0  0  0
   29.1472  -30.8880  -18.8379 N   0  0  0  0  0  0  0  0  0  0  0  0
   29.1699  -32.9366  -17.6445 C   0  0  0  0  0  0  0  0  0  0  0  0
   29.6314  -33.9898  -17.0986 O   0  0  0  0  0  0  0  0  0  0  0  0
   31.8770  -29.1458  -18.0148 C   0  0  0  0  0  0  0  0  0  0  0  0
   32.8955  -28.4119  -18.6336 C   0  0  0  0  0  0  0  0  0  0  0  0
   25.4835  -32.7373  -13.6726 C   0  0  0  0  0  0  0  0  0  0  0  0
   26.5689  -33.5094  -14.5133 C   0  0  1  0  0  0  0  0  0  0  0  0
   26.3994  -34.9273  -14.0604 C   0  0  0  0  0  0  0  0  0  0  0  0
   26.2263  -33.1943  -15.9091 C   0  0  0  0  0  0  0  0  0  0  0  0
   26.9205  -33.8584  -17.0272 C   0  0  2  0  0  0  0  0  0  0  0  0
   27.7733  -32.8160  -17.6551 N   0  0  0  0  0  0  0  0  0  0  0  0
   26.0398  -34.4239  -18.0450 C   0  0  0  0  0  0  0  0  0  0  0  0
   25.9533  -33.8363  -19.3054 O   0  0  0  0  0  0  0  0  0  0  0  0
   25.3467  -35.4276  -17.8381 O   0  0  0  0  0  0  0  0  0  0  0  0
  2  3  1  0
  2  1  1  1
  4  5  1  0
  4  3  1  0
  5  6  2  0
  7  2  1  0
  8  7  2  0
  9  5  1  0
 11 10  1  0
 11 21  2  0
 12 11  1  0
 13 12  2  0
 13 14  1  0
 14 20  2  0
 15 14  1  0
 16 15  1  1
 16 17  1  0
 17  7  1  0
 18 16  1  0
 18 19  2  0
 20 21  1  0
 23 22  1  1
 23 25  1  0
 24 23  1  0
 26 25  1  1
 26 27  1  0
 27 18  1  0
 28 29  1  0
 28 26  1  0
 30 28  2  0
M  END
$$$$
