EYL.pdb
     RDKit          3D

 30 30  0  0  1  0  0  0  0  0999 V2000
   26.9123  -23.6210  -19.2344 N   0  0  0  0  0  0  0  0  0  0  0  0
   26.6215  -22.2977  -18.6704 C   0  0  1  0  0  0  0  0  0  0  0  0
   25.7807  -21.4916  -19.6434 C   0  0  0  0  0  0  0  0  0  0  0  0
   26.5133  -21.0851  -20.8776 C   0  0  0  0  0  0  0  0  0  0  0  0
   25.5862  -20.1915  -21.6592 C   0  0  0  0  0  0  0  0  0  0  0  0
   24.4360  -19.9042  -21.2501 O   0  0  0  0  0  0  0  0  0  0  0  0
   25.9986  -22.4692  -17.3550 C   0  0  0  0  0  0  0  0  0  0  0  0
   25.3374  -23.4875  -17.0195 O   0  0  0  0  0  0  0  0  0  0  0  0
   26.0030  -19.6645  -22.8664 O   0  0  0  0  0  0  0  0  0  0  0  0
   23.2267  -20.8972   -9.1548 O   0  0  0  0  0  0  0  0  0  0  0  0
   23.9323  -20.8670  -10.3479 C   0  0  0  0  0  0  0  0  0  0  0  0
   25.0441  -21.6474  -10.5379 C   0  0  0  0  0  0  0  0  0  0  0  0
   25.7282  -21.6011  -11.7298 C   0  0  0  0  0  0  0  0  0  0  0  0
   25.3055  -20.7613  -12.7664 C   0  0  0  0  0  0  0  0  0  0  0  0
   26.0600  -20.7017  -14.0264 C   0  0  0  0  0  0  0  0  0  0  0  0
   25.4033  -21.5522  -15.0659 C   0  0  2  0  0  0  0  0  0  0  0  0
   26.1212  -21.4405  -16.3519 N   0  0  0  0  0  0  0  0  0  0  0  0
   24.0168  -21.1054  -15.3123 C   0  0  0  0  0  0  0  0  0  0  0  0
   23.7427  -20.0327  -15.9404 O   0  0  0  0  0  0  0  0  0  0  0  0
   24.1917  -19.9857  -12.5625 C   0  0  0  0  0  0  0  0  0  0  0  0
   23.4849  -20.0219  -11.3550 C   0  0  0  0  0  0  0  0  0  0  0  0
   18.7526  -22.3594  -15.5984 C   0  0  0  0  0  0  0  0  0  0  0  0
   19.6559  -21.7783  -16.7505 C   0  0  1  0  0  0  0  0  0  0  0  0
   19.1901  -20.3587  -16.8599 C   0  0  0  0  0  0  0  0  0  0  0  0
   21.0291  -22.0103  -16.2755 C   0  0  0  0  0  0  0  0  0  0  0  0
   21.5327  -21.3434  -15.0611 C   0  0  2  0  0  0  0  0  0  0  0  0
   22.9162  -21.8479  -14.8623 N   0  0  0  0  0  0  0  0  0  0  0  0
   20.7566  -21.6050  -13.8526 C   0  0  0  0  0  0  0  0  0  0  0  0
   21.0260  -22.7281  -13.0733 O   0  0  0  0  0  0  0  0  0  0  0  0
   19.8456  -20.8577  -13.4754 O   0  0  0  0  0  0  0  0  0  0  0  0
  2  3  1  0
  2  1  1  6
  4  5  1  0
  4  3  1  0
  5  6  2  0
  7  2  1  0
  8  7  2  0
  9  5  1  0
 11 10  1  0
 11 21  2  0
 12 11  1  0
 13 12  2  0
 13 14  1  0
 14 20  2  0
 15 14  1  0
 16 15  1  1
 16 17  1  0
 17  7  1  0
 18 16  1  0
 18 19  2  0
 20 21  1  0
 23 22  1  1
 23 25  1  0
 24 23  1  0
 26 25  1  6
 26 27  1  0
 27 18  1  0
 28 29  1  0
 28 26  1  0
 30 28  2  0
M  END
$$$$
