EYL.pdb
     RDKit          3D

 30 30  0  0  1  0  0  0  0  0999 V2000
   19.8828  -17.0338  -16.2078 N   0  0  0  0  0  0  0  0  0  0  0  0
   20.2869  -18.4234  -16.4520 C   0  0  1  0  0  0  0  0  0  0  0  0
   20.4488  -18.6632  -17.9419 C   0  0  0  0  0  0  0  0  0  0  0  0
   19.7017  -19.8527  -18.4442 C   0  0  0  0  0  0  0  0  0  0  0  0
   18.7710  -19.3591  -19.5206 C   0  0  0  0  0  0  0  0  0  0  0  0
   17.5464  -19.1844  -19.3137 O   0  0  0  0  0  0  0  0  0  0  0  0
   21.4958  -18.7095  -15.6744 C   0  0  0  0  0  0  0  0  0  0  0  0
   22.6554  -18.3706  -16.0308 O   0  0  0  0  0  0  0  0  0  0  0  0
   19.2682  -19.0860  -20.7804 O   0  0  0  0  0  0  0  0  0  0  0  0
   26.9568  -21.5142   -9.4381 O   0  0  0  0  0  0  0  0  0  0  0  0
   25.7994  -21.2311  -10.1471 C   0  0  0  0  0  0  0  0  0  0  0  0
   25.2631  -22.1369  -11.0264 C   0  0  0  0  0  0  0  0  0  0  0  0
   24.1141  -21.8345  -11.7186 C   0  0  0  0  0  0  0  0  0  0  0  0
   23.4732  -20.6033  -11.5402 C   0  0  0  0  0  0  0  0  0  0  0  0
   22.2600  -20.2816  -12.3050 C   0  0  0  0  0  0  0  0  0  0  0  0
   22.6222  -19.7580  -13.6578 C   0  0  2  0  0  0  0  0  0  0  0  0
   21.4047  -19.4178  -14.4216 N   0  0  0  0  0  0  0  0  0  0  0  0
   23.3445  -20.7809  -14.4418 C   0  0  0  0  0  0  0  0  0  0  0  0
   22.7747  -21.8220  -14.9019 O   0  0  0  0  0  0  0  0  0  0  0  0
   24.0210  -19.7063  -10.6575 C   0  0  0  0  0  0  0  0  0  0  0  0
   25.1897  -19.9997   -9.9456 C   0  0  0  0  0  0  0  0  0  0  0  0
   26.8172  -22.4894  -17.9958 C   0  0  0  0  0  0  0  0  0  0  0  0
   27.6133  -21.9693  -16.7402 C   0  0  1  0  0  0  0  0  0  0  0  0
   28.7855  -21.2657  -17.3527 C   0  0  0  0  0  0  0  0  0  0  0  0
   26.6314  -21.1504  -16.0120 C   0  0  0  0  0  0  0  0  0  0  0  0
   25.4502  -21.7674  -15.3817 C   0  0  2  0  0  0  0  0  0  0  0  0
   24.7120  -20.6578  -14.7243 N   0  0  0  0  0  0  0  0  0  0  0  0
   25.7525  -22.7895  -14.3841 C   0  0  0  0  0  0  0  0  0  0  0  0
   25.6733  -24.1405  -14.7152 O   0  0  0  0  0  0  0  0  0  0  0  0
   26.0851  -22.5075  -13.2263 O   0  0  0  0  0  0  0  0  0  0  0  0
  2  3  1  0
  2  1  1  6
  4  5  1  0
  4  3  1  0
  5  6  2  0
  7  2  1  0
  8  7  2  0
  9  5  1  0
 11 10  1  0
 11 21  2  0
 12 11  1  0
 13 12  2  0
 13 14  1  0
 14 20  2  0
 15 14  1  0
 16 15  1  1
 16 17  1  0
 17  7  1  0
 18 16  1  0
 18 19  2  0
 20 21  1  0
 23 22  1  6
 23 25  1  0
 24 23  1  0
 26 25  1  1
 26 27  1  0
 27 18  1  0
 28 29  1  0
 28 26  1  0
 30 28  2  0
M  END
$$$$
