EYL.pdb
     RDKit          3D

 30 30  0  0  1  0  0  0  0  0999 V2000
   17.3326  -12.0915  -15.4065 N   0  0  0  0  0  0  0  0  0  0  0  0
   18.2789  -12.0630  -16.5279 C   0  0  1  0  0  0  0  0  0  0  0  0
   17.6747  -12.7564  -17.7352 C   0  0  0  0  0  0  0  0  0  0  0  0
   17.3850  -14.2031  -17.5152 C   0  0  0  0  0  0  0  0  0  0  0  0
   16.8050  -14.7310  -18.8012 C   0  0  0  0  0  0  0  0  0  0  0  0
   17.3082  -14.4631  -19.9183 O   0  0  0  0  0  0  0  0  0  0  0  0
   18.6722  -10.6743  -16.7816 C   0  0  0  0  0  0  0  0  0  0  0  0
   19.4805  -10.3279  -17.6835 O   0  0  0  0  0  0  0  0  0  0  0  0
   15.6833  -15.5367  -18.7639 O   0  0  0  0  0  0  0  0  0  0  0  0
   14.4720   -7.9318  -21.0774 O   0  0  0  0  0  0  0  0  0  0  0  0
   15.1737   -7.7671  -19.8930 C   0  0  0  0  0  0  0  0  0  0  0  0
   16.3080   -6.9979  -19.8381 C   0  0  0  0  0  0  0  0  0  0  0  0
   16.9877   -6.8486  -18.6521 C   0  0  0  0  0  0  0  0  0  0  0  0
   16.5376   -7.4752  -17.4846 C   0  0  0  0  0  0  0  0  0  0  0  0
   17.2871   -7.3289  -16.2287 C   0  0  0  0  0  0  0  0  0  0  0  0
   18.5013   -8.2011  -16.2438 C   0  0  2  0  0  0  0  0  0  0  0  0
   18.1299   -9.6059  -15.9791 N   0  0  0  0  0  0  0  0  0  0  0  0
   19.4478   -7.8037  -15.1813 C   0  0  0  0  0  0  0  0  0  0  0  0
   19.1188   -7.7530  -13.9527 O   0  0  0  0  0  0  0  0  0  0  0  0
   15.4014   -8.2421  -17.5540 C   0  0  0  0  0  0  0  0  0  0  0  0
   14.6988   -8.4034  -18.7536 C   0  0  0  0  0  0  0  0  0  0  0  0
   24.1511  -10.1278  -14.8014 C   0  0  0  0  0  0  0  0  0  0  0  0
   22.7255   -9.5557  -14.4531 C   0  0  1  0  0  0  0  0  0  0  0  0
   22.4803  -10.0810  -13.0717 C   0  0  0  0  0  0  0  0  0  0  0  0
   22.8789   -8.1009  -14.6115 C   0  0  0  0  0  0  0  0  0  0  0  0
   21.7434   -7.1902  -14.3784 C   0  0  2  0  0  0  0  0  0  0  0  0
   20.7745   -7.4575  -15.4730 N   0  0  0  0  0  0  0  0  0  0  0  0
   22.0853   -5.7710  -14.3868 C   0  0  0  0  0  0  0  0  0  0  0  0
   22.6808   -5.1845  -13.2720 O   0  0  0  0  0  0  0  0  0  0  0  0
   21.8663   -5.0424  -15.3624 O   0  0  0  0  0  0  0  0  0  0  0  0
  2  3  1  0
  2  1  1  1
  4  5  1  0
  4  3  1  0
  5  6  2  0
  7  2  1  0
  8  7  2  0
  9  5  1  0
 11 10  1  0
 11 21  2  0
 12 11  1  0
 13 12  2  0
 13 14  1  0
 14 20  2  0
 15 14  1  0
 16 15  1  1
 16 17  1  0
 17  7  1  0
 18 16  1  0
 18 19  2  0
 20 21  1  0
 23 22  1  1
 23 25  1  0
 24 23  1  0
 26 25  1  6
 26 27  1  0
 27 18  1  0
 28 29  1  0
 28 26  1  0
 30 28  2  0
M  END
$$$$
