YWY.pdb
     RDKit          3D

 39 42  0  0  1  0  0  0  0  0999 V2000
   29.6370  -15.9831  -18.4665 O   0  0  0  0  0  0  0  0  0  0  0  0
   29.1075  -16.7943  -17.4725 C   0  0  0  0  0  0  0  0  0  0  0  0
   29.2602  -16.4669  -16.1280 C   0  0  0  0  0  0  0  0  0  0  0  0
   28.7351  -17.2704  -15.1249 C   0  0  0  0  0  0  0  0  0  0  0  0
   28.0612  -18.3948  -15.4707 C   0  0  0  0  0  0  0  0  0  0  0  0
   27.4726  -19.2962  -14.4650 C   0  0  0  0  0  0  0  0  0  0  0  0
   28.5083  -20.1359  -13.7605 C   0  0  2  0  0  0  0  0  0  0  0  0
   29.2052  -20.9311  -14.7183 N   0  0  0  0  0  0  0  0  0  0  0  0
   27.7536  -20.9564  -12.7442 C   0  0  0  0  0  0  0  0  0  0  0  0
   28.1313  -22.1272  -12.5517 O   0  0  0  0  0  0  0  0  0  0  0  0
   27.8962  -18.7409  -16.8157 C   0  0  0  0  0  0  0  0  0  0  0  0
   28.4220  -17.9370  -17.8079 C   0  0  0  0  0  0  0  0  0  0  0  0
   26.6641  -20.4476  -12.0325 N   0  0  0  0  0  0  0  0  0  0  0  0
   25.9791  -21.2096  -10.9727 C   0  0  1  0  0  0  0  0  0  0  0  0
   27.0301  -21.4583   -9.9373 C   0  0  0  0  0  0  0  0  0  0  0  0
   26.9438  -20.6068   -8.7574 C   0  0  0  0  0  0  0  0  0  0  0  0
   26.0146  -19.6636   -8.4292 C   0  0  0  0  0  0  0  0  0  0  0  0
   26.3378  -19.1203   -7.2196 N   0  0  0  0  0  0  0  0  0  0  0  0
   27.4584  -19.6955   -6.7577 C   0  0  0  0  0  0  0  0  0  0  0  0
   28.1697  -19.4941   -5.5819 C   0  0  0  0  0  0  0  0  0  0  0  0
   29.2952  -20.2628   -5.3839 C   0  0  0  0  0  0  0  0  0  0  0  0
   29.7109  -21.1964   -6.3029 C   0  0  0  0  0  0  0  0  0  0  0  0
   28.9872  -21.3830   -7.4727 C   0  0  0  0  0  0  0  0  0  0  0  0
   27.8458  -20.6196   -7.7010 C   0  0  0  0  0  0  0  0  0  0  0  0
   24.8252  -20.3955  -10.4747 C   0  0  0  0  0  0  0  0  0  0  0  0
   24.9259  -19.3439   -9.8177 O   0  0  0  0  0  0  0  0  0  0  0  0
   23.3194  -25.9239  -14.8476 O   0  0  0  0  0  0  0  0  0  0  0  0
   23.3467  -24.5916  -14.4352 C   0  0  0  0  0  0  0  0  0  0  0  0
   22.1893  -23.8558  -14.4167 C   0  0  0  0  0  0  0  0  0  0  0  0
   22.2452  -22.5316  -14.0009 C   0  0  0  0  0  0  0  0  0  0  0  0
   23.4740  -22.0101  -13.6215 C   0  0  0  0  0  0  0  0  0  0  0  0
   23.5428  -20.5761  -13.1781 C   0  0  0  0  0  0  0  0  0  0  0  0
   22.7631  -20.3396  -11.9318 C   0  0  2  0  0  0  0  0  0  0  0  0
   23.5119  -20.8700  -10.7806 N   0  0  0  0  0  0  0  0  0  0  0  0
   21.4017  -20.8885  -11.9052 C   0  0  0  0  0  0  0  0  0  0  0  0
   21.0910  -21.8133  -11.0968 O   0  0  0  0  0  0  0  0  0  0  0  0
   24.6129  -22.7564  -13.6463 C   0  0  0  0  0  0  0  0  0  0  0  0
   24.5751  -24.0792  -14.0584 C   0  0  0  0  0  0  0  0  0  0  0  0
   20.3991  -20.4413  -12.7408 O   0  0  0  0  0  0  0  0  0  0  0  0
  1  2  1  0
  2  3  2  0
  3  4  1  0
  5  6  1  0
  5  4  2  0
  6  7  1  0
  7  8  1  6
  9  7  1  0
 10  9  2  0
 11  5  1  0
 12 11  2  0
 12  2  1  0
 13  9  1  0
 14 15  1  1
 14 13  1  0
 16 24  1  0
 16 15  1  0
 17 16  2  0
 18 17  1  0
 18 19  1  0
 19 24  2  0
 20 19  1  0
 20 21  2  0
 21 22  1  0
 22 23  2  0
 24 23  1  0
 25 14  1  0
 25 34  1  0
 26 25  2  0
 28 38  2  0
 28 27  1  0
 29 28  1  0
 30 31  1  0
 30 29  2  0
 31 37  2  0
 32 31  1  0
 33 34  1  0
 33 32  1  6
 35 33  1  0
 36 35  2  0
 37 38  1  0
 39 35  1  0
M  END
$$$$
