YWY.pdb
     RDKit          3D

 39 42  0  0  1  0  0  0  0  0999 V2000
   21.7904  -30.2166  -22.2099 O   0  0  0  0  0  0  0  0  0  0  0  0
   21.4190  -30.5515  -20.9152 C   0  0  0  0  0  0  0  0  0  0  0  0
   20.6439  -31.6806  -20.6650 C   0  0  0  0  0  0  0  0  0  0  0  0
   20.2662  -32.0258  -19.3743 C   0  0  0  0  0  0  0  0  0  0  0  0
   20.6648  -31.2418  -18.3426 C   0  0  0  0  0  0  0  0  0  0  0  0
   20.3073  -31.5434  -16.9455 C   0  0  0  0  0  0  0  0  0  0  0  0
   21.3032  -32.4559  -16.2751 C   0  0  2  0  0  0  0  0  0  0  0  0
   21.2425  -33.7478  -16.8773 N   0  0  0  0  0  0  0  0  0  0  0  0
   20.9359  -32.4650  -14.8120 C   0  0  0  0  0  0  0  0  0  0  0  0
   20.1297  -33.3312  -14.4244 O   0  0  0  0  0  0  0  0  0  0  0  0
   21.4445  -30.1037  -18.5728 C   0  0  0  0  0  0  0  0  0  0  0  0
   21.8156  -29.7664  -19.8595 C   0  0  0  0  0  0  0  0  0  0  0  0
   21.4633  -31.5443  -13.9028 N   0  0  0  0  0  0  0  0  0  0  0  0
   21.0721  -31.5147  -12.4819 C   0  0  1  0  0  0  0  0  0  0  0  0
   22.2445  -30.9138  -11.7727 C   0  0  0  0  0  0  0  0  0  0  0  0
   23.4209  -31.7709  -11.6952 C   0  0  0  0  0  0  0  0  0  0  0  0
   23.9384  -32.6269  -12.6226 C   0  0  0  0  0  0  0  0  0  0  0  0
   25.0578  -33.2164  -12.1107 N   0  0  0  0  0  0  0  0  0  0  0  0
   25.2757  -32.7566  -10.8693 C   0  0  0  0  0  0  0  0  0  0  0  0
   26.2803  -33.0419   -9.9536 C   0  0  0  0  0  0  0  0  0  0  0  0
   26.2380  -32.3861   -8.7433 C   0  0  0  0  0  0  0  0  0  0  0  0
   25.2485  -31.4822   -8.4385 C   0  0  0  0  0  0  0  0  0  0  0  0
   24.2523  -31.2106   -9.3664 C   0  0  0  0  0  0  0  0  0  0  0  0
   24.2683  -31.8592  -10.5979 C   0  0  0  0  0  0  0  0  0  0  0  0
   19.8151  -30.7110  -12.3535 C   0  0  0  0  0  0  0  0  0  0  0  0
   19.4286  -29.8573  -13.1716 O   0  0  0  0  0  0  0  0  0  0  0  0
   11.6248  -28.6907  -11.8300 O   0  0  0  0  0  0  0  0  0  0  0  0
   12.9120  -29.2212  -11.9174 C   0  0  0  0  0  0  0  0  0  0  0  0
   13.1917  -30.4384  -11.3502 C   0  0  0  0  0  0  0  0  0  0  0  0
   14.4817  -30.9434  -11.4529 C   0  0  0  0  0  0  0  0  0  0  0  0
   15.4334  -30.1913  -12.1270 C   0  0  0  0  0  0  0  0  0  0  0  0
   16.8326  -30.7281  -12.2349 C   0  0  0  0  0  0  0  0  0  0  0  0
   17.6727  -30.3337  -11.0704 C   0  0  2  0  0  0  0  0  0  0  0  0
   19.0043  -30.9479  -11.2002 N   0  0  0  0  0  0  0  0  0  0  0  0
   17.1313  -30.6522   -9.7435 C   0  0  0  0  0  0  0  0  0  0  0  0
   16.2402  -29.9231   -9.2146 O   0  0  0  0  0  0  0  0  0  0  0  0
   15.1368  -28.9844  -12.6839 C   0  0  0  0  0  0  0  0  0  0  0  0
   13.8549  -28.4657  -12.5910 C   0  0  0  0  0  0  0  0  0  0  0  0
   17.5505  -31.7408   -9.0068 O   0  0  0  0  0  0  0  0  0  0  0  0
  1  2  1  0
  2  3  2  0
  3  4  1  0
  5  6  1  0
  5  4  2  0
  6  7  1  0
  7  8  1  6
  9  7  1  0
 10  9  2  0
 11  5  1  0
 12 11  2  0
 12  2  1  0
 13  9  1  0
 14 15  1  1
 14 13  1  0
 16 24  1  0
 16 15  1  0
 17 16  2  0
 18 17  1  0
 18 19  1  0
 19 24  2  0
 20 19  1  0
 20 21  2  0
 21 22  1  0
 22 23  2  0
 24 23  1  0
 25 14  1  0
 25 34  1  0
 26 25  2  0
 28 38  2  0
 28 27  1  0
 29 28  1  0
 30 31  1  0
 30 29  2  0
 31 37  2  0
 32 31  1  0
 33 34  1  0
 33 32  1  6
 35 33  1  0
 36 35  2  0
 37 38  1  0
 39 35  1  0
M  END
$$$$
