YWY.pdb
     RDKit          3D

 39 42  0  0  1  0  0  0  0  0999 V2000
   14.1244  -24.2472   -1.7731 O   0  0  0  0  0  0  0  0  0  0  0  0
   14.8161  -23.5467   -0.7948 C   0  0  0  0  0  0  0  0  0  0  0  0
   15.0301  -24.1024    0.4637 C   0  0  0  0  0  0  0  0  0  0  0  0
   15.7204  -23.4114    1.4504 C   0  0  0  0  0  0  0  0  0  0  0  0
   16.1925  -22.1709    1.1740 C   0  0  0  0  0  0  0  0  0  0  0  0
   16.9367  -21.3765    2.1668 C   0  0  0  0  0  0  0  0  0  0  0  0
   16.0755  -20.9399    3.3252 C   0  0  2  0  0  0  0  0  0  0  0  0
   14.9821  -20.1644    2.8369 N   0  0  0  0  0  0  0  0  0  0  0  0
   16.9851  -20.1684    4.2487 C   0  0  0  0  0  0  0  0  0  0  0  0
   18.0614  -20.7013    4.5772 O   0  0  0  0  0  0  0  0  0  0  0  0
   15.9887  -21.5953   -0.0842 C   0  0  0  0  0  0  0  0  0  0  0  0
   15.3004  -22.2885   -1.0603 C   0  0  0  0  0  0  0  0  0  0  0  0
   16.6553  -18.9011    4.7362 N   0  0  0  0  0  0  0  0  0  0  0  0
   17.5223  -18.1550    5.6661 C   0  0  1  0  0  0  0  0  0  0  0  0
   17.2163  -16.7140    5.4048 C   0  0  0  0  0  0  0  0  0  0  0  0
   17.6865  -16.2091    4.1208 C   0  0  0  0  0  0  0  0  0  0  0  0
   17.8284  -16.8565    2.9286 C   0  0  0  0  0  0  0  0  0  0  0  0
   18.2987  -15.9777    1.9963 N   0  0  0  0  0  0  0  0  0  0  0  0
   18.4624  -14.7725    2.5626 C   0  0  0  0  0  0  0  0  0  0  0  0
   18.9015  -13.5667    2.0313 C   0  0  0  0  0  0  0  0  0  0  0  0
   18.9491  -12.4820    2.8787 C   0  0  0  0  0  0  0  0  0  0  0  0
   18.5798  -12.5724    4.1995 C   0  0  0  0  0  0  0  0  0  0  0  0
   18.1442  -13.7865    4.7126 C   0  0  0  0  0  0  0  0  0  0  0  0
   18.0867  -14.9007    3.8802 C   0  0  0  0  0  0  0  0  0  0  0  0
   17.2064  -18.5932    7.0627 C   0  0  0  0  0  0  0  0  0  0  0  0
   16.1228  -19.0830    7.4279 O   0  0  0  0  0  0  0  0  0  0  0  0
   16.9452  -22.1867   14.6945 O   0  0  0  0  0  0  0  0  0  0  0  0
   17.1385  -21.7159   13.3957 C   0  0  0  0  0  0  0  0  0  0  0  0
   18.4098  -21.5147   12.9216 C   0  0  0  0  0  0  0  0  0  0  0  0
   18.5733  -21.0459   11.6242 C   0  0  0  0  0  0  0  0  0  0  0  0
   17.4392  -20.8010   10.8629 C   0  0  0  0  0  0  0  0  0  0  0  0
   17.6088  -20.2864    9.4615 C   0  0  0  0  0  0  0  0  0  0  0  0
   18.0215  -18.8558    9.4387 C   0  0  2  0  0  0  0  0  0  0  0  0
   18.2326  -18.4319    8.0448 N   0  0  0  0  0  0  0  0  0  0  0  0
   19.2134  -18.5128   10.2240 C   0  0  0  0  0  0  0  0  0  0  0  0
   20.3493  -18.4177    9.6708 O   0  0  0  0  0  0  0  0  0  0  0  0
   16.1846  -21.0069   11.3510 C   0  0  0  0  0  0  0  0  0  0  0  0
   16.0032  -21.4743   12.6431 C   0  0  0  0  0  0  0  0  0  0  0  0
   19.1711  -18.2785   11.5830 O   0  0  0  0  0  0  0  0  0  0  0  0
  1  2  1  0
  2  3  2  0
  3  4  1  0
  5  6  1  0
  5  4  2  0
  6  7  1  0
  7  8  1  6
  9  7  1  0
 10  9  2  0
 11  5  1  0
 12 11  2  0
 12  2  1  0
 13  9  1  0
 14 15  1  1
 14 13  1  0
 16 24  1  0
 16 15  1  0
 17 16  2  0
 18 17  1  0
 18 19  1  0
 19 24  2  0
 20 19  1  0
 20 21  2  0
 21 22  1  0
 22 23  2  0
 24 23  1  0
 25 14  1  0
 25 34  1  0
 26 25  2  0
 28 38  2  0
 28 27  1  0
 29 28  1  0
 30 31  1  0
 30 29  2  0
 31 37  2  0
 32 31  1  0
 33 34  1  0
 33 32  1  6
 35 33  1  0
 36 35  2  0
 37 38  1  0
 39 35  1  0
M  END
$$$$
