YWY.pdb
     RDKit          3D

 39 42  0  0  1  0  0  0  0  0999 V2000
   28.9659  -18.2228  -22.0988 O   0  0  0  0  0  0  0  0  0  0  0  0
   28.5558  -18.8411  -20.9258 C   0  0  0  0  0  0  0  0  0  0  0  0
   28.0814  -18.0917  -19.8528 C   0  0  0  0  0  0  0  0  0  0  0  0
   27.6685  -18.6988  -18.6744 C   0  0  0  0  0  0  0  0  0  0  0  0
   27.7319  -20.0494  -18.5754 C   0  0  0  0  0  0  0  0  0  0  0  0
   27.3095  -20.7668  -17.3600 C   0  0  0  0  0  0  0  0  0  0  0  0
   28.4509  -21.0164  -16.4065 C   0  0  2  0  0  0  0  0  0  0  0  0
   29.4308  -21.8340  -17.0440 N   0  0  0  0  0  0  0  0  0  0  0  0
   27.8386  -21.6635  -15.1891 C   0  0  0  0  0  0  0  0  0  0  0  0
   28.5165  -22.5160  -14.5857 O   0  0  0  0  0  0  0  0  0  0  0  0
   28.2047  -20.8203  -19.6423 C   0  0  0  0  0  0  0  0  0  0  0  0
   28.6143  -20.2091  -20.8110 C   0  0  0  0  0  0  0  0  0  0  0  0
   26.5576  -21.3396  -14.7346 N   0  0  0  0  0  0  0  0  0  0  0  0
   26.1296  -21.5531  -13.3402 C   0  0  1  0  0  0  0  0  0  0  0  0
   27.1001  -20.7678  -12.5156 C   0  0  0  0  0  0  0  0  0  0  0  0
   26.7317  -20.6142  -11.1137 C   0  0  0  0  0  0  0  0  0  0  0  0
   25.5502  -20.2143  -10.5617 C   0  0  0  0  0  0  0  0  0  0  0  0
   25.6659  -20.2264   -9.2018 N   0  0  0  0  0  0  0  0  0  0  0  0
   26.9001  -20.6285   -8.8631 C   0  0  0  0  0  0  0  0  0  0  0  0
   27.4913  -20.8113   -7.6196 C   0  0  0  0  0  0  0  0  0  0  0  0
   28.7952  -21.2540   -7.5980 C   0  0  0  0  0  0  0  0  0  0  0  0
   29.4971  -21.5100   -8.7516 C   0  0  0  0  0  0  0  0  0  0  0  0
   28.8895  -21.3207   -9.9853 C   0  0  0  0  0  0  0  0  0  0  0  0
   27.5727  -20.8727  -10.0386 C   0  0  0  0  0  0  0  0  0  0  0  0
   24.7121  -21.0901  -13.2039 C   0  0  0  0  0  0  0  0  0  0  0  0
   24.3150  -19.9337  -13.4336 O   0  0  0  0  0  0  0  0  0  0  0  0
   16.0215  -21.9611  -12.2920 O   0  0  0  0  0  0  0  0  0  0  0  0
   17.3946  -22.2073  -12.2951 C   0  0  0  0  0  0  0  0  0  0  0  0
   18.0990  -22.1776  -11.1185 C   0  0  0  0  0  0  0  0  0  0  0  0
   19.4651  -22.4272  -11.1504 C   0  0  0  0  0  0  0  0  0  0  0  0
   20.0586  -22.6963  -12.3756 C   0  0  0  0  0  0  0  0  0  0  0  0
   21.5373  -22.9594  -12.4182 C   0  0  0  0  0  0  0  0  0  0  0  0
   22.3137  -21.7295  -12.7377 C   0  0  2  0  0  0  0  0  0  0  0  0
   23.7488  -22.0557  -12.7759 N   0  0  0  0  0  0  0  0  0  0  0  0
   22.1116  -20.5847  -11.8412 C   0  0  0  0  0  0  0  0  0  0  0  0
   22.7364  -20.5036  -10.7419 O   0  0  0  0  0  0  0  0  0  0  0  0
   19.3426  -22.7215  -13.5338 C   0  0  0  0  0  0  0  0  0  0  0  0
   17.9788  -22.4749  -13.5201 C   0  0  0  0  0  0  0  0  0  0  0  0
   21.2477  -19.5496  -12.1338 O   0  0  0  0  0  0  0  0  0  0  0  0
  1  2  1  0
  2  3  2  0
  3  4  1  0
  5  6  1  0
  5  4  2  0
  6  7  1  0
  7  8  1  6
  9  7  1  0
 10  9  2  0
 11  5  1  0
 12 11  2  0
 12  2  1  0
 13  9  1  0
 14 15  1  1
 14 13  1  0
 16 24  1  0
 16 15  1  0
 17 16  2  0
 18 17  1  0
 18 19  1  0
 19 24  2  0
 20 19  1  0
 20 21  2  0
 21 22  1  0
 22 23  2  0
 24 23  1  0
 25 14  1  0
 25 34  1  0
 26 25  2  0
 28 38  2  0
 28 27  1  0
 29 28  1  0
 30 31  1  0
 30 29  2  0
 31 37  2  0
 32 31  1  0
 33 34  1  0
 33 32  1  1
 35 33  1  0
 36 35  2  0
 37 38  1  0
 39 35  1  0
M  END
$$$$
