YWY.pdb
     RDKit          3D

 39 42  0  0  1  0  0  0  0  0999 V2000
   23.6992  -22.6353  -25.0026 O   0  0  0  0  0  0  0  0  0  0  0  0
   24.0446  -22.2459  -23.7159 C   0  0  0  0  0  0  0  0  0  0  0  0
   25.3724  -21.9998  -23.3775 C   0  0  0  0  0  0  0  0  0  0  0  0
   25.7301  -21.6098  -22.0939 C   0  0  0  0  0  0  0  0  0  0  0  0
   24.7602  -21.4682  -21.1574 C   0  0  0  0  0  0  0  0  0  0  0  0
   25.0596  -21.0550  -19.7753 C   0  0  0  0  0  0  0  0  0  0  0  0
   24.8949  -19.5709  -19.5640 C   0  0  2  0  0  0  0  0  0  0  0  0
   25.8917  -18.8727  -20.3084 N   0  0  0  0  0  0  0  0  0  0  0  0
   25.0026  -19.3508  -18.0755 C   0  0  0  0  0  0  0  0  0  0  0  0
   26.1437  -19.3095  -17.5789 O   0  0  0  0  0  0  0  0  0  0  0  0
   23.4203  -21.7100  -21.4774 C   0  0  0  0  0  0  0  0  0  0  0  0
   23.0724  -22.0983  -22.7562 C   0  0  0  0  0  0  0  0  0  0  0  0
   23.8790  -19.1992  -17.2588 N   0  0  0  0  0  0  0  0  0  0  0  0
   23.9760  -18.9453  -15.8100 C   0  0  1  0  0  0  0  0  0  0  0  0
   23.1209  -17.7407  -15.5726 C   0  0  0  0  0  0  0  0  0  0  0  0
   23.6503  -16.4952  -16.1138 C   0  0  0  0  0  0  0  0  0  0  0  0
   23.1154  -15.6511  -17.0423 C   0  0  0  0  0  0  0  0  0  0  0  0
   23.9668  -14.6021  -17.2352 N   0  0  0  0  0  0  0  0  0  0  0  0
   25.0426  -14.7504  -16.4473 C   0  0  0  0  0  0  0  0  0  0  0  0
   26.1663  -13.9520  -16.2773 C   0  0  0  0  0  0  0  0  0  0  0  0
   27.1100  -14.3736  -15.3672 C   0  0  0  0  0  0  0  0  0  0  0  0
   26.9605  -15.5349  -14.6475 C   0  0  0  0  0  0  0  0  0  0  0  0
   25.8307  -16.3203  -14.8318 C   0  0  0  0  0  0  0  0  0  0  0  0
   24.8603  -15.9203  -15.7459 C   0  0  0  0  0  0  0  0  0  0  0  0
   23.5079  -20.1677  -15.0827 C   0  0  0  0  0  0  0  0  0  0  0  0
   22.4379  -20.7624  -15.3038 O   0  0  0  0  0  0  0  0  0  0  0  0
   27.3151  -18.7969   -8.7534 O   0  0  0  0  0  0  0  0  0  0  0  0
   26.7420  -19.6901   -9.6589 C   0  0  0  0  0  0  0  0  0  0  0  0
   25.7138  -20.5056   -9.2599 C   0  0  0  0  0  0  0  0  0  0  0  0
   25.1612  -21.3850  -10.1823 C   0  0  0  0  0  0  0  0  0  0  0  0
   25.6758  -21.3994  -11.4710 C   0  0  0  0  0  0  0  0  0  0  0  0
   25.0878  -22.3538  -12.4715 C   0  0  0  0  0  0  0  0  0  0  0  0
   23.9109  -21.7711  -13.1734 C   0  0  2  0  0  0  0  0  0  0  0  0
   24.3605  -20.6833  -14.0575 N   0  0  0  0  0  0  0  0  0  0  0  0
   22.8290  -21.2694  -12.3172 C   0  0  0  0  0  0  0  0  0  0  0  0
   22.7440  -20.0372  -12.0347 O   0  0  0  0  0  0  0  0  0  0  0  0
   26.6973  -20.5819  -11.8489 C   0  0  0  0  0  0  0  0  0  0  0  0
   27.2602  -19.6984  -10.9415 C   0  0  0  0  0  0  0  0  0  0  0  0
   21.8598  -22.0908  -11.7791 O   0  0  0  0  0  0  0  0  0  0  0  0
  1  2  1  0
  2  3  2  0
  3  4  1  0
  5  6  1  0
  5  4  2  0
  6  7  1  0
  7  8  1  6
  9  7  1  0
 10  9  2  0
 11  5  1  0
 12 11  2  0
 12  2  1  0
 13  9  1  0
 14 15  1  6
 14 13  1  0
 16 24  1  0
 16 15  1  0
 17 16  2  0
 18 17  1  0
 18 19  1  0
 19 24  2  0
 20 19  1  0
 20 21  2  0
 21 22  1  0
 22 23  2  0
 24 23  1  0
 25 14  1  0
 25 34  1  0
 26 25  2  0
 28 38  2  0
 28 27  1  0
 29 28  1  0
 30 31  1  0
 30 29  2  0
 31 37  2  0
 32 31  1  0
 33 34  1  0
 33 32  1  1
 35 33  1  0
 36 35  2  0
 37 38  1  0
 39 35  1  0
M  END
$$$$
