GMN.pdb
     RDKit          3D

 21 20  0  0  1  0  0  0  0  0999 V2000
   18.8348  -12.1888  -17.4365 N   0  0  0  0  0  0  0  0  0  0  0  0
   19.8223  -11.3833  -18.1195 C   0  0  0  0  0  0  0  0  0  0  0  0
   20.7701  -10.7628  -17.1115 C   0  0  0  0  0  0  0  0  0  0  0  0
   20.3174  -10.4613  -15.9838 O   0  0  0  0  0  0  0  0  0  0  0  0
   26.9051  -12.1085  -15.0901 C   0  0  0  0  0  0  0  0  0  0  0  0
   26.9756  -10.3844  -15.6621 S   0  0  0  0  0  0  0  0  0  0  0  0
   25.3263   -9.6262  -15.6369 C   0  0  0  0  0  0  0  0  0  0  0  0
   24.4118  -10.2927  -16.6116 C   0  0  0  0  0  0  0  0  0  0  0  0
   23.0096   -9.8106  -16.5672 C   0  0  2  0  0  0  0  0  0  0  0  0
   22.1136  -10.5269  -17.4148 N   0  0  0  0  0  0  0  0  0  0  0  0
   22.8591   -8.3309  -16.5912 C   0  0  0  0  0  0  0  0  0  0  0  0
   22.9236   -7.7307  -17.6735 O   0  0  0  0  0  0  0  0  0  0  0  0
   21.4452   -3.3722  -15.7641 N   0  0  0  0  0  0  0  0  0  0  0  0
   20.7695   -4.4352  -16.3948 C   0  0  0  0  0  0  0  0  0  0  0  0
   19.7580   -4.1302  -17.0961 O   0  0  0  0  0  0  0  0  0  0  0  0
   21.1182   -5.8557  -16.3216 C   0  0  0  0  0  0  0  0  0  0  0  0
   22.3297   -6.1632  -15.5062 C   0  0  2  0  0  0  0  0  0  0  0  0
   22.6429   -7.5654  -15.4197 N   0  0  0  0  0  0  0  0  0  0  0  0
   22.1718   -5.5588  -14.1410 C   0  0  0  0  0  0  0  0  0  0  0  0
   21.8462   -6.2714  -13.1594 O   0  0  0  0  0  0  0  0  0  0  0  0
   22.3757   -4.2040  -13.9048 O   0  0  0  0  0  0  0  0  0  0  0  0
  1  2  1  0
  2  3  1  0
  3 10  1  0
  3  4  2  0
  6  5  1  0
  7  6  1  0
  8  7  1  0
  9  8  1  6
 10  9  1  0
 11  9  1  0
 11 18  1  0
 12 11  2  0
 13 14  1  0
 14 15  2  0
 14 16  1  0
 17 16  1  6
 17 19  1  0
 18 17  1  0
 19 20  2  0
 19 21  1  0
M  END
$$$$
