GMN.pdb
     RDKit          3D

 21 20  0  0  1  0  0  0  0  0999 V2000
   28.3570  -22.7778  -16.4175 N   0  0  0  0  0  0  0  0  0  0  0  0
   27.8727  -21.4724  -16.0277 C   0  0  0  0  0  0  0  0  0  0  0  0
   26.8148  -21.6141  -14.9506 C   0  0  0  0  0  0  0  0  0  0  0  0
   25.8116  -22.3212  -15.1982 O   0  0  0  0  0  0  0  0  0  0  0  0
   24.4337  -21.2763   -7.6932 C   0  0  0  0  0  0  0  0  0  0  0  0
   25.7626  -21.2050   -8.9316 S   0  0  0  0  0  0  0  0  0  0  0  0
   25.2193  -20.3070  -10.4129 C   0  0  0  0  0  0  0  0  0  0  0  0
   26.2876  -20.2925  -11.4565 C   0  0  0  0  0  0  0  0  0  0  0  0
   25.8824  -20.8761  -12.7587 C   0  0  2  0  0  0  0  0  0  0  0  0
   26.9390  -20.9811  -13.7110 N   0  0  0  0  0  0  0  0  0  0  0  0
   24.5930  -20.3647  -13.2956 C   0  0  0  0  0  0  0  0  0  0  0  0
   24.5412  -19.2187  -13.7644 O   0  0  0  0  0  0  0  0  0  0  0  0
   22.3858  -19.6727  -17.3487 N   0  0  0  0  0  0  0  0  0  0  0  0
   21.7001  -19.8546  -16.1317 C   0  0  0  0  0  0  0  0  0  0  0  0
   20.8646  -18.9567  -15.8098 O   0  0  0  0  0  0  0  0  0  0  0  0
   21.8556  -20.9757  -15.2024 C   0  0  0  0  0  0  0  0  0  0  0  0
   22.1731  -20.5865  -13.7971 C   0  0  2  0  0  0  0  0  0  0  0  0
   23.4055  -21.1361  -13.2963 N   0  0  0  0  0  0  0  0  0  0  0  0
   21.0178  -20.9524  -12.9109 C   0  0  0  0  0  0  0  0  0  0  0  0
   21.0648  -21.9796  -12.1897 O   0  0  0  0  0  0  0  0  0  0  0  0
   19.8614  -20.1832  -12.8492 O   0  0  0  0  0  0  0  0  0  0  0  0
  1  2  1  0
  2  3  1  0
  3 10  1  0
  3  4  2  0
  6  5  1  0
  7  6  1  0
  8  7  1  0
  9  8  1  1
 10  9  1  0
 11  9  1  0
 11 18  1  0
 12 11  2  0
 13 14  1  0
 14 15  2  0
 14 16  1  0
 17 16  1  6
 17 19  1  0
 18 17  1  0
 19 20  2  0
 19 21  1  0
M  END
$$$$
