GMN.pdb
     RDKit          3D

 21 20  0  0  1  0  0  0  0  0999 V2000
   21.7830  -14.9487  -17.7144 N   0  0  0  0  0  0  0  0  0  0  0  0
   20.7401  -13.9955  -17.4073 C   0  0  0  0  0  0  0  0  0  0  0  0
   21.3221  -12.8197  -16.6470 C   0  0  0  0  0  0  0  0  0  0  0  0
   20.6578  -12.3428  -15.6990 O   0  0  0  0  0  0  0  0  0  0  0  0
   27.7777  -13.4613  -14.6779 C   0  0  0  0  0  0  0  0  0  0  0  0
   27.0297  -12.1189  -15.6491 S   0  0  0  0  0  0  0  0  0  0  0  0
   25.2183  -12.2396  -15.6322 C   0  0  0  0  0  0  0  0  0  0  0  0
   24.5941  -11.0747  -16.3278 C   0  0  0  0  0  0  0  0  0  0  0  0
   23.1115  -11.1054  -16.3680 C   0  0  2  0  0  0  0  0  0  0  0  0
   22.5632  -12.2708  -16.9806 N   0  0  0  0  0  0  0  0  0  0  0  0
   22.4728   -9.8212  -16.7625 C   0  0  0  0  0  0  0  0  0  0  0  0
   22.3097   -9.5673  -17.9645 O   0  0  0  0  0  0  0  0  0  0  0  0
   19.6100   -5.3589  -16.8003 N   0  0  0  0  0  0  0  0  0  0  0  0
   19.2405   -6.3252  -15.8441 C   0  0  0  0  0  0  0  0  0  0  0  0
   18.1410   -6.1373  -15.2410 O   0  0  0  0  0  0  0  0  0  0  0  0
   19.9983   -7.5235  -15.4777 C   0  0  0  0  0  0  0  0  0  0  0  0
   21.2714   -7.7160  -16.2322 C   0  0  2  0  0  0  0  0  0  0  0  0
   22.0366   -8.8621  -15.8166 N   0  0  0  0  0  0  0  0  0  0  0  0
   22.0893   -6.4598  -16.1482 C   0  0  0  0  0  0  0  0  0  0  0  0
   21.6045   -5.3559  -16.5001 O   0  0  0  0  0  0  0  0  0  0  0  0
   23.3999   -6.4613  -15.6846 O   0  0  0  0  0  0  0  0  0  0  0  0
  1  2  1  0
  2  3  1  0
  3 10  1  0
  3  4  2  0
  6  5  1  0
  7  6  1  0
  8  7  1  0
  9  8  1  6
 10  9  1  0
 11  9  1  0
 11 18  1  0
 12 11  2  0
 13 14  1  0
 14 15  2  0
 14 16  1  0
 17 16  1  1
 17 19  1  0
 18 17  1  0
 19 20  2  0
 19 21  1  0
M  END
$$$$
