GMN.pdb
     RDKit          3D

 21 20  0  0  1  0  0  0  0  0999 V2000
   13.0937  -11.2309   -8.5319 N   0  0  0  0  0  0  0  0  0  0  0  0
   13.4770  -11.1223   -9.9218 C   0  0  0  0  0  0  0  0  0  0  0  0
   14.0365   -9.7401  -10.1972 C   0  0  0  0  0  0  0  0  0  0  0  0
   13.7995   -9.2186  -11.3105 O   0  0  0  0  0  0  0  0  0  0  0  0
   12.5316   -4.8390   -5.7913 C   0  0  0  0  0  0  0  0  0  0  0  0
   14.1789   -5.3210   -6.3903 S   0  0  0  0  0  0  0  0  0  0  0  0
   14.0482   -6.4281   -7.8232 C   0  0  0  0  0  0  0  0  0  0  0  0
   15.3955   -6.8920   -8.2705 C   0  0  0  0  0  0  0  0  0  0  0  0
   15.3776   -7.7686   -9.4671 C   0  0  2  0  0  0  0  0  0  0  0  0
   14.7970   -9.0527   -9.2476 N   0  0  0  0  0  0  0  0  0  0  0  0
   16.6377   -7.7688  -10.2574 C   0  0  0  0  0  0  0  0  0  0  0  0
   17.5975   -8.4510   -9.8712 O   0  0  0  0  0  0  0  0  0  0  0  0
   19.5525   -9.5621  -14.6509 N   0  0  0  0  0  0  0  0  0  0  0  0
   19.4450   -8.7220  -13.5253 C   0  0  0  0  0  0  0  0  0  0  0  0
   20.4678   -8.0333  -13.2296 O   0  0  0  0  0  0  0  0  0  0  0  0
   18.2714   -8.5647  -12.6636 C   0  0  0  0  0  0  0  0  0  0  0  0
   17.9758   -7.1597  -12.2562 C   0  0  2  0  0  0  0  0  0  0  0  0
   16.7946   -7.0159  -11.4464 N   0  0  0  0  0  0  0  0  0  0  0  0
   17.8999   -6.2963  -13.4821 C   0  0  0  0  0  0  0  0  0  0  0  0
   16.7882   -5.9536  -13.9556 O   0  0  0  0  0  0  0  0  0  0  0  0
   19.0387   -5.8439  -14.1388 O   0  0  0  0  0  0  0  0  0  0  0  0
  1  2  1  0
  2  3  1  0
  3 10  1  0
  3  4  2  0
  6  5  1  0
  7  6  1  0
  8  7  1  0
  9  8  1  1
 10  9  1  0
 11  9  1  0
 11 18  1  0
 12 11  2  0
 13 14  1  0
 14 15  2  0
 14 16  1  0
 17 16  1  6
 17 19  1  0
 18 17  1  0
 19 20  2  0
 19 21  1  0
M  END
$$$$
