GMN.pdb
     RDKit          3D

 21 20  0  0  1  0  0  0  0  0999 V2000
   17.3550  -13.5022  -16.3458 N   0  0  0  0  0  0  0  0  0  0  0  0
   17.9001  -12.3758  -17.0702 C   0  0  0  0  0  0  0  0  0  0  0  0
   18.8940  -11.6328  -16.1986 C   0  0  0  0  0  0  0  0  0  0  0  0
   18.5518  -11.3417  -15.0300 O   0  0  0  0  0  0  0  0  0  0  0  0
   24.4260  -14.5574  -14.2930 C   0  0  0  0  0  0  0  0  0  0  0  0
   24.2860  -12.9984  -15.2176 S   0  0  0  0  0  0  0  0  0  0  0  0
   22.5773  -12.3856  -15.1982 C   0  0  0  0  0  0  0  0  0  0  0  0
   22.4697  -11.0672  -15.8917 C   0  0  0  0  0  0  0  0  0  0  0  0
   21.0991  -10.5008  -15.9255 C   0  0  2  0  0  0  0  0  0  0  0  0
   20.1602  -11.2751  -16.6692 N   0  0  0  0  0  0  0  0  0  0  0  0
   21.0377   -9.0332  -16.1595 C   0  0  0  0  0  0  0  0  0  0  0  0
   21.1710   -8.5950  -17.3111 O   0  0  0  0  0  0  0  0  0  0  0  0
   20.3562   -3.7998  -15.7525 N   0  0  0  0  0  0  0  0  0  0  0  0
   19.2914   -4.6705  -15.4483 C   0  0  0  0  0  0  0  0  0  0  0  0
   18.1468   -4.1428  -15.3095 O   0  0  0  0  0  0  0  0  0  0  0  0
   19.3743   -6.1225  -15.2765 C   0  0  0  0  0  0  0  0  0  0  0  0
   20.7493   -6.6907  -15.3938 C   0  0  2  0  0  0  0  0  0  0  0  0
   20.8315   -8.1003  -15.1144 N   0  0  0  0  0  0  0  0  0  0  0  0
   21.6825   -5.9095  -14.5147 C   0  0  0  0  0  0  0  0  0  0  0  0
   22.0703   -6.3790  -13.4163 O   0  0  0  0  0  0  0  0  0  0  0  0
   22.1526   -4.6505  -14.8709 O   0  0  0  0  0  0  0  0  0  0  0  0
  1  2  1  0
  2  3  1  0
  3 10  1  0
  3  4  2  0
  6  5  1  0
  7  6  1  0
  8  7  1  0
  9  8  1  6
 10  9  1  0
 11  9  1  0
 11 18  1  0
 12 11  2  0
 13 14  1  0
 14 15  2  0
 14 16  1  0
 17 16  1  1
 17 19  1  0
 18 17  1  0
 19 20  2  0
 19 21  1  0
M  END
$$$$
