GMN.pdb
     RDKit          3D

 21 20  0  0  1  0  0  0  0  0999 V2000
   28.4106  -21.4790  -15.8978 N   0  0  0  0  0  0  0  0  0  0  0  0
   27.8789  -20.4490  -15.0335 C   0  0  0  0  0  0  0  0  0  0  0  0
   26.8666  -21.0487  -14.0770 C   0  0  0  0  0  0  0  0  0  0  0  0
   26.2433  -22.0713  -14.4423 O   0  0  0  0  0  0  0  0  0  0  0  0
   26.6456  -19.7828   -7.7172 C   0  0  0  0  0  0  0  0  0  0  0  0
   25.3106  -21.0103   -7.8428 S   0  0  0  0  0  0  0  0  0  0  0  0
   24.8602  -21.3015   -9.5772 C   0  0  0  0  0  0  0  0  0  0  0  0
   25.8668  -20.7020  -10.5034 C   0  0  0  0  0  0  0  0  0  0  0  0
   25.5826  -20.9184  -11.9432 C   0  0  2  0  0  0  0  0  0  0  0  0
   26.6230  -20.4898  -12.8196 N   0  0  0  0  0  0  0  0  0  0  0  0
   24.2048  -20.5523  -12.3675 C   0  0  0  0  0  0  0  0  0  0  0  0
   23.9680  -19.3903  -12.7276 O   0  0  0  0  0  0  0  0  0  0  0  0
   19.7142  -21.8964  -11.1557 N   0  0  0  0  0  0  0  0  0  0  0  0
   20.0531  -20.5528  -11.4092 C   0  0  0  0  0  0  0  0  0  0  0  0
   19.3662  -19.6703  -10.8113 O   0  0  0  0  0  0  0  0  0  0  0  0
   21.1181  -20.0740  -12.2930 C   0  0  0  0  0  0  0  0  0  0  0  0
   21.8796  -21.1474  -12.9967 C   0  0  2  0  0  0  0  0  0  0  0  0
   23.1362  -21.4814  -12.3795 N   0  0  0  0  0  0  0  0  0  0  0  0
   22.0694  -20.7565  -14.4337 C   0  0  0  0  0  0  0  0  0  0  0  0
   21.4823  -21.3830  -15.3503 O   0  0  0  0  0  0  0  0  0  0  0  0
   22.8910  -19.6997  -14.8095 O   0  0  0  0  0  0  0  0  0  0  0  0
  1  2  1  0
  2  3  1  0
  3 10  1  0
  3  4  2  0
  6  5  1  0
  7  6  1  0
  8  7  1  0
  9  8  1  1
 10  9  1  0
 11  9  1  0
 11 18  1  0
 12 11  2  0
 13 14  1  0
 14 15  2  0
 14 16  1  0
 17 16  1  1
 17 19  1  0
 18 17  1  0
 19 20  2  0
 19 21  1  0
M  END
$$$$
