GMN.pdb
     RDKit          3D

 21 20  0  0  1  0  0  0  0  0999 V2000
   28.4618  -22.3234  -16.0193 N   0  0  0  0  0  0  0  0  0  0  0  0
   27.8689  -21.0998  -15.5274 C   0  0  0  0  0  0  0  0  0  0  0  0
   26.9196  -21.4080  -14.3857 C   0  0  0  0  0  0  0  0  0  0  0  0
   26.2130  -22.4383  -14.4677 O   0  0  0  0  0  0  0  0  0  0  0  0
   26.8751  -20.9173   -7.2579 C   0  0  0  0  0  0  0  0  0  0  0  0
   25.9189  -19.7239   -8.2409 S   0  0  0  0  0  0  0  0  0  0  0  0
   25.3401  -20.4764   -9.7883 C   0  0  0  0  0  0  0  0  0  0  0  0
   26.3083  -20.2358  -10.8997 C   0  0  0  0  0  0  0  0  0  0  0  0
   25.8723  -20.7575  -12.2182 C   0  0  2  0  0  0  0  0  0  0  0  0
   26.8228  -20.5774  -13.2662 N   0  0  0  0  0  0  0  0  0  0  0  0
   24.4640  -20.4414  -12.5779 C   0  0  0  0  0  0  0  0  0  0  0  0
   24.1843  -19.3121  -13.0049 O   0  0  0  0  0  0  0  0  0  0  0  0
   19.8503  -21.9233  -15.6785 N   0  0  0  0  0  0  0  0  0  0  0  0
   20.2064  -22.0680  -14.3233 C   0  0  0  0  0  0  0  0  0  0  0  0
   19.2635  -22.0060  -13.4776 O   0  0  0  0  0  0  0  0  0  0  0  0
   21.5549  -22.2825  -13.7942 C   0  0  0  0  0  0  0  0  0  0  0  0
   22.1247  -21.1268  -13.0412 C   0  0  2  0  0  0  0  0  0  0  0  0
   23.4135  -21.3827  -12.4536 N   0  0  0  0  0  0  0  0  0  0  0  0
   21.1364  -20.6784  -12.0040 C   0  0  0  0  0  0  0  0  0  0  0  0
   21.2716  -21.0176  -10.8023 O   0  0  0  0  0  0  0  0  0  0  0  0
   20.0436  -19.8797  -12.3213 O   0  0  0  0  0  0  0  0  0  0  0  0
  1  2  1  0
  2  3  1  0
  3 10  1  0
  3  4  2  0
  6  5  1  0
  7  6  1  0
  8  7  1  0
  9  8  1  1
 10  9  1  0
 11  9  1  0
 11 18  1  0
 12 11  2  0
 13 14  1  0
 14 15  2  0
 14 16  1  0
 17 16  1  1
 17 19  1  0
 18 17  1  0
 19 20  2  0
 19 21  1  0
M  END
$$$$
