GMN.pdb
     RDKit          3D

 21 20  0  0  1  0  0  0  0  0999 V2000
   17.6221  -12.1051  -19.3952 N   0  0  0  0  0  0  0  0  0  0  0  0
   19.0287  -12.4248  -19.2960 C   0  0  0  0  0  0  0  0  0  0  0  0
   19.6177  -11.7850  -18.0538 C   0  0  0  0  0  0  0  0  0  0  0  0
   18.8748  -11.6382  -17.0568 O   0  0  0  0  0  0  0  0  0  0  0  0
   23.8666  -13.1274  -14.0596 C   0  0  0  0  0  0  0  0  0  0  0  0
   23.1454  -11.4651  -13.9129 S   0  0  0  0  0  0  0  0  0  0  0  0
   23.5194  -10.4654  -15.3814 C   0  0  0  0  0  0  0  0  0  0  0  0
   22.9407  -11.0800  -16.6135 C   0  0  0  0  0  0  0  0  0  0  0  0
   21.5351  -10.6950  -16.8901 C   0  0  2  0  0  0  0  0  0  0  0  0
   20.9496  -11.3650  -18.0048 N   0  0  0  0  0  0  0  0  0  0  0  0
   21.2631   -9.2346  -16.8135 C   0  0  0  0  0  0  0  0  0  0  0  0
   21.6474   -8.4956  -17.7311 O   0  0  0  0  0  0  0  0  0  0  0  0
   19.6444   -4.3721  -15.4718 N   0  0  0  0  0  0  0  0  0  0  0  0
   18.6924   -5.3974  -15.3080 C   0  0  0  0  0  0  0  0  0  0  0  0
   17.5169   -5.0378  -14.9966 O   0  0  0  0  0  0  0  0  0  0  0  0
   18.9243   -6.8352  -15.4614 C   0  0  0  0  0  0  0  0  0  0  0  0
   20.3478   -7.2202  -15.6905 C   0  0  2  0  0  0  0  0  0  0  0  0
   20.5767   -8.6408  -15.7266 N   0  0  0  0  0  0  0  0  0  0  0  0
   21.2104   -6.5592  -14.6546 C   0  0  0  0  0  0  0  0  0  0  0  0
   21.4209   -7.1147  -13.5480 O   0  0  0  0  0  0  0  0  0  0  0  0
   21.8061   -5.3216  -14.8697 O   0  0  0  0  0  0  0  0  0  0  0  0
  1  2  1  0
  2  3  1  0
  3 10  1  0
  3  4  2  0
  6  5  1  0
  7  6  1  0
  8  7  1  0
  9  8  1  6
 10  9  1  0
 11  9  1  0
 11 18  1  0
 12 11  2  0
 13 14  1  0
 14 15  2  0
 14 16  1  0
 17 16  1  1
 17 19  1  0
 18 17  1  0
 19 20  2  0
 19 21  1  0
M  END
$$$$
