GYA.pdb
     RDKit          3D

 22 22  0  0  1  0  0  0  0  0999 V2000
    4.9319  -19.4378   20.4612 N   0  0  0  0  0  0  0  0  0  0  0  0
    4.7821  -18.3939   21.4257 C   0  0  0  0  0  0  0  0  0  0  0  0
    6.1109  -17.9104   21.9344 C   0  0  0  0  0  0  0  0  0  0  0  0
    7.1439  -18.5392   21.6252 O   0  0  0  0  0  0  0  0  0  0  0  0
    8.6822  -12.4385   18.3997 O   0  0  0  0  0  0  0  0  0  0  0  0
    8.3973  -13.0197   19.6353 C   0  0  0  0  0  0  0  0  0  0  0  0
    9.4287  -13.4073   20.4812 C   0  0  0  0  0  0  0  0  0  0  0  0
    9.0792  -13.9755   21.6879 C   0  0  0  0  0  0  0  0  0  0  0  0
    7.7712  -14.1701   22.0799 C   0  0  0  0  0  0  0  0  0  0  0  0
    7.5162  -14.7880   23.3944 C   0  0  0  0  0  0  0  0  0  0  0  0
    7.4856  -16.3056   23.3175 C   0  0  2  0  0  0  0  0  0  0  0  0
    6.2352  -16.7688   22.7512 N   0  0  0  0  0  0  0  0  0  0  0  0
    7.5483  -16.7651   24.7552 C   0  0  0  0  0  0  0  0  0  0  0  0
    6.6492  -16.3716   25.5401 O   0  0  0  0  0  0  0  0  0  0  0  0
    6.7492  -13.7789   21.2265 C   0  0  0  0  0  0  0  0  0  0  0  0
    7.0964  -13.2129   20.0245 C   0  0  0  0  0  0  0  0  0  0  0  0
    8.6229  -19.6401   26.5794 C   0  0  0  0  0  0  0  0  0  0  0  0
    8.6842  -18.1368   26.4966 C   0  0  2  0  0  0  0  0  0  0  0  0
    8.5874  -17.6047   25.1764 N   0  0  0  0  0  0  0  0  0  0  0  0
    9.8230  -17.5587   27.2532 C   0  0  0  0  0  0  0  0  0  0  0  0
   10.0576  -17.6401   28.4533 O   0  0  0  0  0  0  0  0  0  0  0  0
   10.7488  -16.8233   26.4853 O   0  0  0  0  0  0  0  0  0  0  0  0
  1  2  1  0
  2  3  1  0
  3 12  1  0
  3  4  2  0
  6  5  1  0
  7  6  2  0
  8  7  1  0
  9  8  2  0
  9 15  1  0
 10  9  1  0
 11 10  1  1
 11 13  1  0
 12 11  1  0
 13 19  1  0
 14 13  2  0
 15 16  2  0
 16  6  1  0
 18 20  1  0
 18 17  1  6
 19 18  1  0
 20 22  1  0
 21 20  2  0
M  END
$$$$
