GYA.pdb
     RDKit          3D

 22 22  0  0  1  0  0  0  0  0999 V2000
    6.6675  -13.7578   20.0292 N   0  0  0  0  0  0  0  0  0  0  0  0
    6.4228  -14.7117   21.0649 C   0  0  0  0  0  0  0  0  0  0  0  0
    7.4904  -14.6726   22.1219 C   0  0  0  0  0  0  0  0  0  0  0  0
    8.6690  -14.4371   21.7850 O   0  0  0  0  0  0  0  0  0  0  0  0
   11.3346  -14.6710   30.0868 O   0  0  0  0  0  0  0  0  0  0  0  0
   10.3993  -14.6891   29.0522 C   0  0  0  0  0  0  0  0  0  0  0  0
    9.7980  -15.8824   28.6726 C   0  0  0  0  0  0  0  0  0  0  0  0
    8.8823  -15.8315   27.6431 C   0  0  0  0  0  0  0  0  0  0  0  0
    8.5468  -14.6647   26.9884 C   0  0  0  0  0  0  0  0  0  0  0  0
    7.5533  -14.7303   25.9005 C   0  0  0  0  0  0  0  0  0  0  0  0
    8.2070  -14.8695   24.5356 C   0  0  2  0  0  0  0  0  0  0  0  0
    7.2096  -14.8927   23.4852 N   0  0  0  0  0  0  0  0  0  0  0  0
    8.8845  -16.2193   24.5693 C   0  0  0  0  0  0  0  0  0  0  0  0
    8.1574  -17.2436   24.6037 O   0  0  0  0  0  0  0  0  0  0  0  0
    9.1540  -13.4787   27.3763 C   0  0  0  0  0  0  0  0  0  0  0  0
   10.0661  -13.5285   28.4016 C   0  0  0  0  0  0  0  0  0  0  0  0
   12.1279  -17.4892   23.4234 C   0  0  0  0  0  0  0  0  0  0  0  0
   11.0001  -17.5258   24.4220 C   0  0  2  0  0  0  0  0  0  0  0  0
   10.2829  -16.3004   24.5614 N   0  0  0  0  0  0  0  0  0  0  0  0
   11.4026  -18.0935   25.7332 C   0  0  0  0  0  0  0  0  0  0  0  0
   11.2225  -17.6255   26.8515 O   0  0  0  0  0  0  0  0  0  0  0  0
   12.0783  -19.3295   25.6758 O   0  0  0  0  0  0  0  0  0  0  0  0
  1  2  1  0
  2  3  1  0
  3 12  1  0
  3  4  2  0
  6  5  1  0
  7  6  2  0
  8  7  1  0
  9  8  2  0
  9 15  1  0
 10  9  1  0
 11 10  1  1
 11 13  1  0
 12 11  1  0
 13 19  1  0
 14 13  2  0
 15 16  2  0
 16  6  1  0
 18 20  1  0
 18 17  1  6
 19 18  1  0
 20 22  1  0
 21 20  2  0
M  END
$$$$
