GYA.pdb
     RDKit          3D

 22 22  0  0  1  0  0  0  0  0999 V2000
    5.4770  -19.3484   20.0497 N   0  0  0  0  0  0  0  0  0  0  0  0
    5.4520  -18.6853   21.3154 C   0  0  0  0  0  0  0  0  0  0  0  0
    6.7993  -18.1277   21.6790 C   0  0  0  0  0  0  0  0  0  0  0  0
    7.8249  -18.6746   21.2239 O   0  0  0  0  0  0  0  0  0  0  0  0
    8.1561  -12.1366   18.2431 O   0  0  0  0  0  0  0  0  0  0  0  0
    8.1527  -12.8332   19.4516 C   0  0  0  0  0  0  0  0  0  0  0  0
    9.3496  -13.2305   20.0341 C   0  0  0  0  0  0  0  0  0  0  0  0
    9.2766  -13.9154   21.2285 C   0  0  0  0  0  0  0  0  0  0  0  0
    8.0851  -14.2154   21.8550 C   0  0  0  0  0  0  0  0  0  0  0  0
    8.1285  -14.9534   23.1311 C   0  0  0  0  0  0  0  0  0  0  0  0
    8.2273  -16.4553   22.9209 C   0  0  2  0  0  0  0  0  0  0  0  0
    6.9490  -17.0056   22.5182 N   0  0  0  0  0  0  0  0  0  0  0  0
    8.5701  -17.0127   24.2824 C   0  0  0  0  0  0  0  0  0  0  0  0
    7.7367  -16.8580   25.2101 O   0  0  0  0  0  0  0  0  0  0  0  0
    6.8957  -13.8134   21.2636 C   0  0  0  0  0  0  0  0  0  0  0  0
    6.9674  -13.1312   20.0740 C   0  0  0  0  0  0  0  0  0  0  0  0
   10.7805  -19.6761   25.5442 C   0  0  0  0  0  0  0  0  0  0  0  0
   10.1448  -18.3192   25.7028 C   0  0  2  0  0  0  0  0  0  0  0  0
    9.7868  -17.6783   24.4796 N   0  0  0  0  0  0  0  0  0  0  0  0
   10.9085  -17.4212   26.6050 C   0  0  0  0  0  0  0  0  0  0  0  0
   11.0255  -17.4883   27.8231 O   0  0  0  0  0  0  0  0  0  0  0  0
   11.5826  -16.3574   25.9714 O   0  0  0  0  0  0  0  0  0  0  0  0
  1  2  1  0
  2  3  1  0
  3 12  1  0
  3  4  2  0
  6  5  1  0
  7  6  2  0
  8  7  1  0
  9  8  2  0
  9 15  1  0
 10  9  1  0
 11 10  1  1
 11 13  1  0
 12 11  1  0
 13 19  1  0
 14 13  2  0
 15 16  2  0
 16  6  1  0
 18 20  1  0
 18 17  1  6
 19 18  1  0
 20 22  1  0
 21 20  2  0
M  END
$$$$
