GYA.pdb
     RDKit          3D

 22 22  0  0  1  0  0  0  0  0999 V2000
    5.6532  -20.0870   20.7299 N   0  0  0  0  0  0  0  0  0  0  0  0
    5.7378  -19.9578   22.1507 C   0  0  0  0  0  0  0  0  0  0  0  0
    6.4445  -18.6944   22.5541 C   0  0  0  0  0  0  0  0  0  0  0  0
    7.0015  -18.0042   21.6758 O   0  0  0  0  0  0  0  0  0  0  0  0
    7.9275  -11.1964   26.7825 O   0  0  0  0  0  0  0  0  0  0  0  0
    7.5872  -12.5192   26.4995 C   0  0  0  0  0  0  0  0  0  0  0  0
    6.3201  -12.8296   26.0225 C   0  0  0  0  0  0  0  0  0  0  0  0
    6.0479  -14.1560   25.7627 C   0  0  0  0  0  0  0  0  0  0  0  0
    6.9668  -15.1666   25.9541 C   0  0  0  0  0  0  0  0  0  0  0  0
    6.5643  -16.5506   25.6420 C   0  0  0  0  0  0  0  0  0  0  0  0
    7.1433  -17.0314   24.3217 C   0  0  2  0  0  0  0  0  0  0  0  0
    6.5023  -18.2578   23.8927 N   0  0  0  0  0  0  0  0  0  0  0  0
    8.5906  -17.3399   24.6257 C   0  0  0  0  0  0  0  0  0  0  0  0
    8.8435  -18.3529   25.3249 O   0  0  0  0  0  0  0  0  0  0  0  0
    8.2295  -14.8445   26.4311 C   0  0  0  0  0  0  0  0  0  0  0  0
    8.5015  -13.5237   26.6902 C   0  0  0  0  0  0  0  0  0  0  0  0
   11.7766  -16.2498   22.9835 C   0  0  0  0  0  0  0  0  0  0  0  0
   10.9803  -16.8739   24.1001 C   0  0  2  0  0  0  0  0  0  0  0  0
    9.6021  -16.5065   24.1315 N   0  0  0  0  0  0  0  0  0  0  0  0
   11.6298  -16.7320   25.4273 C   0  0  0  0  0  0  0  0  0  0  0  0
   11.1529  -16.2818   26.4626 O   0  0  0  0  0  0  0  0  0  0  0  0
   12.9666  -17.1742   25.4973 O   0  0  0  0  0  0  0  0  0  0  0  0
  1  2  1  0
  2  3  1  0
  3 12  1  0
  3  4  2  0
  6  5  1  0
  7  6  2  0
  8  7  1  0
  9  8  2  0
  9 15  1  0
 10  9  1  0
 11 10  1  1
 11 13  1  0
 12 11  1  0
 13 19  1  0
 14 13  2  0
 15 16  2  0
 16  6  1  0
 18 20  1  0
 18 17  1  6
 19 18  1  0
 20 22  1  0
 21 20  2  0
M  END
$$$$
