WNM.pdb
     RDKit          3D

 31 32  0  0  1  0  0  0  0  0999 V2000
    6.5755  -17.7039   23.6717 N   0  0  0  0  0  0  0  0  0  0  0  0
    7.7047  -16.7531   23.5872 C   0  0  1  0  0  0  0  0  0  0  0  0
    7.8689  -16.2207   24.9793 C   0  0  0  0  0  0  0  0  0  0  0  0
    6.9427  -15.1342   25.3402 C   0  0  0  0  0  0  0  0  0  0  0  0
    5.8779  -15.2803   26.2476 C   0  0  0  0  0  0  0  0  0  0  0  0
    5.2519  -14.1077   26.3964 N   0  0  0  0  0  0  0  0  0  0  0  0
    5.8419  -13.1705   25.6304 C   0  0  0  0  0  0  0  0  0  0  0  0
    5.5731  -11.8264   25.4174 C   0  0  0  0  0  0  0  0  0  0  0  0
    6.3444  -11.1033   24.5479 C   0  0  0  0  0  0  0  0  0  0  0  0
    7.3837  -11.7281   23.8932 C   0  0  0  0  0  0  0  0  0  0  0  0
    7.6452  -13.0677   24.1114 C   0  0  0  0  0  0  0  0  0  0  0  0
    6.8797  -13.8069   24.9835 C   0  0  0  0  0  0  0  0  0  0  0  0
    8.9183  -17.4301   23.1145 C   0  0  0  0  0  0  0  0  0  0  0  0
    9.1773  -18.6375   23.3528 O   0  0  0  0  0  0  0  0  0  0  0  0
   11.1294  -15.4907   19.1962 N   0  0  0  0  0  0  0  0  0  0  0  0
   11.6665  -16.5505   19.9946 C   0  0  0  0  0  0  0  0  0  0  0  0
   11.7493  -17.6701   19.4307 O   0  0  0  0  0  0  0  0  0  0  0  0
   12.0885  -16.3049   21.3975 C   0  0  0  0  0  0  0  0  0  0  0  0
   11.2873  -17.1170   22.3850 C   0  0  2  0  0  0  0  0  0  0  0  0
    9.9151  -16.7381   22.3308 N   0  0  0  0  0  0  0  0  0  0  0  0
   11.8871  -16.8825   23.7354 C   0  0  0  0  0  0  0  0  0  0  0  0
   12.3202  -15.7324   23.9712 O   0  0  0  0  0  0  0  0  0  0  0  0
   10.0367  -14.8937   29.4480 C   0  0  0  0  0  0  0  0  0  0  0  0
    9.4717  -15.3917   27.8235 S   0  0  0  0  0  0  0  0  0  0  0  0
   10.8483  -15.8211   26.7146 C   0  0  0  0  0  0  0  0  0  0  0  0
   11.3891  -17.1723   26.9785 C   0  0  0  0  0  0  0  0  0  0  0  0
   12.5105  -17.5230   26.0620 C   0  0  2  0  0  0  0  0  0  0  0  0
   11.9823  -17.8779   24.7285 N   0  0  0  0  0  0  0  0  0  0  0  0
   13.2140  -18.7245   26.5607 C   0  0  0  0  0  0  0  0  0  0  0  0
   13.1594  -19.8893   25.7744 O   0  0  0  0  0  0  0  0  0  0  0  0
   13.8599  -18.7558   27.6557 O   0  0  0  0  0  0  0  0  0  0  0  0
  2  1  1  1
  2 13  1  0
  2  3  1  0
  3  4  1  0
  4  5  2  0
  6  5  1  0
  7  6  1  0
  8  7  2  0
  9  8  1  0
 10 11  1  0
 10  9  2  0
 11 12  2  0
 12  7  1  0
 12  4  1  0
 13 14  2  0
 15 16  1  0
 16 17  2  0
 19 18  1  6
 18 16  1  0
 20 19  1  0
 20 13  1  0
 21 19  1  0
 22 21  2  0
 23 24  1  0
 24 25  1  0
 25 26  1  0
 27 26  1  1
 27 28  1  0
 28 21  1  0
 29 30  1  0
 29 27  1  0
 31 29  2  0
M  END
$$$$
