WNM.pdb
     RDKit          3D

 31 32  0  0  1  0  0  0  0  0999 V2000
    8.8605  -15.7558   24.8477 N   0  0  0  0  0  0  0  0  0  0  0  0
    8.1557  -16.7569   24.0187 C   0  0  1  0  0  0  0  0  0  0  0  0
    7.4288  -15.9576   22.9790 C   0  0  0  0  0  0  0  0  0  0  0  0
    7.3627  -14.5106   23.2443 C   0  0  0  0  0  0  0  0  0  0  0  0
    7.6386  -13.5233   22.2812 C   0  0  0  0  0  0  0  0  0  0  0  0
    7.4494  -12.3116   22.8149 N   0  0  0  0  0  0  0  0  0  0  0  0
    7.0582  -12.4295   24.0979 C   0  0  0  0  0  0  0  0  0  0  0  0
    6.7535  -11.4947   25.0765 C   0  0  0  0  0  0  0  0  0  0  0  0
    6.3946  -11.9088   26.3309 C   0  0  0  0  0  0  0  0  0  0  0  0
    6.3417  -13.2587   26.6028 C   0  0  0  0  0  0  0  0  0  0  0  0
    6.6462  -14.1838   25.6221 C   0  0  0  0  0  0  0  0  0  0  0  0
    7.0070  -13.7829   24.3564 C   0  0  0  0  0  0  0  0  0  0  0  0
    9.1099  -17.6964   23.4173 C   0  0  0  0  0  0  0  0  0  0  0  0
    8.7657  -18.6795   22.7126 O   0  0  0  0  0  0  0  0  0  0  0  0
   12.7401  -21.2123   23.4301 N   0  0  0  0  0  0  0  0  0  0  0  0
   13.1396  -20.0578   22.6841 C   0  0  0  0  0  0  0  0  0  0  0  0
   14.2844  -20.1103   22.1693 O   0  0  0  0  0  0  0  0  0  0  0  0
   12.2317  -18.8900   22.5488 C   0  0  0  0  0  0  0  0  0  0  0  0
   11.3752  -18.6879   23.7744 C   0  0  2  0  0  0  0  0  0  0  0  0
   10.5351  -17.5503   23.6020 N   0  0  0  0  0  0  0  0  0  0  0  0
   12.3030  -18.5360   24.9383 C   0  0  0  0  0  0  0  0  0  0  0  0
   12.9752  -19.5406   25.2620 O   0  0  0  0  0  0  0  0  0  0  0  0
   10.5975  -14.0969   29.7062 C   0  0  0  0  0  0  0  0  0  0  0  0
    9.5514  -14.6066   28.3453 S   0  0  0  0  0  0  0  0  0  0  0  0
    9.6691  -16.3913   28.0139 C   0  0  0  0  0  0  0  0  0  0  0  0
   10.3673  -16.6876   26.7439 C   0  0  0  0  0  0  0  0  0  0  0  0
   11.7528  -17.1902   26.9626 C   0  0  2  0  0  0  0  0  0  0  0  0
   12.4480  -17.3387   25.6673 N   0  0  0  0  0  0  0  0  0  0  0  0
   11.7116  -18.5399   27.5661 C   0  0  0  0  0  0  0  0  0  0  0  0
   11.9745  -18.6502   28.9434 O   0  0  0  0  0  0  0  0  0  0  0  0
   11.4524  -19.5959   26.9067 O   0  0  0  0  0  0  0  0  0  0  0  0
  2  1  1  1
  2 13  1  0
  2  3  1  0
  3  4  1  0
  4  5  2  0
  6  5  1  0
  7  6  1  0
  8  7  2  0
  9  8  1  0
 10 11  1  0
 10  9  2  0
 11 12  2  0
 12  7  1  0
 12  4  1  0
 13 14  2  0
 15 16  1  0
 16 17  2  0
 19 18  1  6
 18 16  1  0
 20 19  1  0
 20 13  1  0
 21 19  1  0
 22 21  2  0
 23 24  1  0
 24 25  1  0
 25 26  1  0
 27 26  1  6
 27 28  1  0
 28 21  1  0
 29 30  1  0
 29 27  1  0
 31 29  2  0
M  END
$$$$
