WNM.pdb
     RDKit          3D

 31 32  0  0  1  0  0  0  0  0999 V2000
    6.7525  -17.9827   23.2077 N   0  0  0  0  0  0  0  0  0  0  0  0
    7.8248  -16.9655   23.2480 C   0  0  1  0  0  0  0  0  0  0  0  0
    7.9440  -16.5842   24.6933 C   0  0  0  0  0  0  0  0  0  0  0  0
    7.0329  -15.5121   25.1283 C   0  0  0  0  0  0  0  0  0  0  0  0
    5.9634  -15.7061   26.0211 C   0  0  0  0  0  0  0  0  0  0  0  0
    5.3543  -14.5377   26.2511 N   0  0  0  0  0  0  0  0  0  0  0  0
    5.9603  -13.5576   25.5544 C   0  0  0  0  0  0  0  0  0  0  0  0
    5.7120  -12.1980   25.4364 C   0  0  0  0  0  0  0  0  0  0  0  0
    6.4964  -11.4269   24.6215 C   0  0  0  0  0  0  0  0  0  0  0  0
    7.5282  -12.0194   23.9263 C   0  0  0  0  0  0  0  0  0  0  0  0
    7.7694  -13.3748   24.0499 C   0  0  0  0  0  0  0  0  0  0  0  0
    6.9905  -14.1622   24.8661 C   0  0  0  0  0  0  0  0  0  0  0  0
    9.0805  -17.5146   22.7225 C   0  0  0  0  0  0  0  0  0  0  0  0
    9.4089  -18.7237   22.8316 O   0  0  0  0  0  0  0  0  0  0  0  0
   11.3199  -15.8136   18.6632 N   0  0  0  0  0  0  0  0  0  0  0  0
   12.0183  -16.6036   19.6314 C   0  0  0  0  0  0  0  0  0  0  0  0
   12.4886  -17.6904   19.2119 O   0  0  0  0  0  0  0  0  0  0  0  0
   12.1581  -16.1359   21.0343 C   0  0  0  0  0  0  0  0  0  0  0  0
   11.4239  -17.0243   22.0080 C   0  0  2  0  0  0  0  0  0  0  0  0
   10.0407  -16.6839   22.0337 N   0  0  0  0  0  0  0  0  0  0  0  0
   12.0762  -16.8465   23.3427 C   0  0  0  0  0  0  0  0  0  0  0  0
   13.3103  -17.0450   23.4013 O   0  0  0  0  0  0  0  0  0  0  0  0
   10.3432  -13.2881   28.8347 C   0  0  0  0  0  0  0  0  0  0  0  0
   10.8616  -14.9013   29.4133 S   0  0  0  0  0  0  0  0  0  0  0  0
   11.8468  -15.7965   28.1736 C   0  0  0  0  0  0  0  0  0  0  0  0
   11.2319  -15.7634   26.8286 C   0  0  0  0  0  0  0  0  0  0  0  0
   12.1011  -16.3889   25.7925 C   0  0  2  0  0  0  0  0  0  0  0  0
   11.3763  -16.4739   24.5077 N   0  0  0  0  0  0  0  0  0  0  0  0
   12.4247  -17.7800   26.1767 C   0  0  0  0  0  0  0  0  0  0  0  0
   13.7089  -18.0361   26.6900 O   0  0  0  0  0  0  0  0  0  0  0  0
   11.6062  -18.7469   26.0669 O   0  0  0  0  0  0  0  0  0  0  0  0
  2  1  1  1
  2 13  1  0
  2  3  1  0
  3  4  1  0
  4  5  2  0
  6  5  1  0
  7  6  1  0
  8  7  2  0
  9  8  1  0
 10 11  1  0
 10  9  2  0
 11 12  2  0
 12  7  1  0
 12  4  1  0
 13 14  2  0
 15 16  1  0
 16 17  2  0
 19 18  1  6
 18 16  1  0
 20 19  1  0
 20 13  1  0
 21 19  1  0
 22 21  2  0
 23 24  1  0
 24 25  1  0
 25 26  1  0
 27 26  1  1
 27 28  1  0
 28 21  1  0
 29 30  1  0
 29 27  1  0
 31 29  2  0
M  END
$$$$
