WNM.pdb
     RDKit          3D

 31 32  0  0  1  0  0  0  0  0999 V2000
    6.4917  -18.6088   24.3648 N   0  0  0  0  0  0  0  0  0  0  0  0
    7.2138  -18.2362   23.1294 C   0  0  1  0  0  0  0  0  0  0  0  0
    6.7282  -16.8571   22.7969 C   0  0  0  0  0  0  0  0  0  0  0  0
    6.7003  -15.9197   23.9323 C   0  0  0  0  0  0  0  0  0  0  0  0
    6.2065  -16.2475   25.2079 C   0  0  0  0  0  0  0  0  0  0  0  0
    6.3583  -15.2027   26.0291 N   0  0  0  0  0  0  0  0  0  0  0  0
    6.9322  -14.1784   25.3698 C   0  0  0  0  0  0  0  0  0  0  0  0
    7.2842  -12.8932   25.7551 C   0  0  0  0  0  0  0  0  0  0  0  0
    7.8487  -12.0369   24.8484 C   0  0  0  0  0  0  0  0  0  0  0  0
    8.0595  -12.4699   23.5572 C   0  0  0  0  0  0  0  0  0  0  0  0
    7.7065  -13.7523   23.1814 C   0  0  0  0  0  0  0  0  0  0  0  0
    7.1396  -14.6246   24.0818 C   0  0  0  0  0  0  0  0  0  0  0  0
    8.6650  -18.2667   23.3478 C   0  0  0  0  0  0  0  0  0  0  0  0
    9.2350  -19.0872   24.1116 O   0  0  0  0  0  0  0  0  0  0  0  0
   10.8192  -15.9039   19.5867 N   0  0  0  0  0  0  0  0  0  0  0  0
   11.3280  -16.8784   20.5036 C   0  0  0  0  0  0  0  0  0  0  0  0
   11.4626  -18.0405   20.0454 O   0  0  0  0  0  0  0  0  0  0  0  0
   11.6644  -16.5030   21.9008 C   0  0  0  0  0  0  0  0  0  0  0  0
   10.9564  -17.3714   22.9113 C   0  0  2  0  0  0  0  0  0  0  0  0
    9.5499  -17.3353   22.6875 N   0  0  0  0  0  0  0  0  0  0  0  0
   11.3278  -16.8595   24.2672 C   0  0  0  0  0  0  0  0  0  0  0  0
   11.8917  -15.7435   24.3168 O   0  0  0  0  0  0  0  0  0  0  0  0
    8.7838  -12.5857   27.7490 C   0  0  0  0  0  0  0  0  0  0  0  0
    9.5416  -14.0764   28.3891 S   0  0  0  0  0  0  0  0  0  0  0  0
   10.0693  -15.2067   27.0652 C   0  0  0  0  0  0  0  0  0  0  0  0
   10.5768  -16.4943   27.5873 C   0  0  0  0  0  0  0  0  0  0  0  0
   11.6506  -17.0701   26.7296 C   0  0  2  0  0  0  0  0  0  0  0  0
   11.0753  -17.5640   25.4614 N   0  0  0  0  0  0  0  0  0  0  0  0
   12.2533  -18.2454   27.3949 C   0  0  0  0  0  0  0  0  0  0  0  0
   12.9945  -18.0248   28.5697 O   0  0  0  0  0  0  0  0  0  0  0  0
   12.1352  -19.4348   26.9609 O   0  0  0  0  0  0  0  0  0  0  0  0
  2  1  1  1
  2 13  1  0
  2  3  1  0
  3  4  1  0
  4  5  2  0
  6  5  1  0
  7  6  1  0
  8  7  2  0
  9  8  1  0
 10 11  1  0
 10  9  2  0
 11 12  2  0
 12  7  1  0
 12  4  1  0
 13 14  2  0
 15 16  1  0
 16 17  2  0
 19 18  1  6
 18 16  1  0
 20 19  1  0
 20 13  1  0
 21 19  1  0
 22 21  2  0
 23 24  1  0
 24 25  1  0
 25 26  1  0
 27 26  1  1
 27 28  1  0
 28 21  1  0
 29 30  1  0
 29 27  1  0
 31 29  2  0
M  END
$$$$
