WNM.pdb
     RDKit          3D

 31 32  0  0  1  0  0  0  0  0999 V2000
    6.5131  -18.4406   23.0233 N   0  0  0  0  0  0  0  0  0  0  0  0
    7.5585  -17.3952   23.0008 C   0  0  1  0  0  0  0  0  0  0  0  0
    7.8441  -17.1007   24.4431 C   0  0  0  0  0  0  0  0  0  0  0  0
    7.0832  -15.9734   25.0076 C   0  0  0  0  0  0  0  0  0  0  0  0
    5.9793  -16.1241   25.8663 C   0  0  0  0  0  0  0  0  0  0  0  0
    5.5349  -14.9193   26.2404 N   0  0  0  0  0  0  0  0  0  0  0  0
    6.2858  -13.9555   25.6744 C   0  0  0  0  0  0  0  0  0  0  0  0
    6.2324  -12.5704   25.7281 C   0  0  0  0  0  0  0  0  0  0  0  0
    7.1332  -11.8224   25.0190 C   0  0  0  0  0  0  0  0  0  0  0  0
    8.0859  -12.4634   24.2571 C   0  0  0  0  0  0  0  0  0  0  0  0
    8.1327  -13.8439   24.2093 C   0  0  0  0  0  0  0  0  0  0  0  0
    7.2352  -14.6090   24.9177 C   0  0  0  0  0  0  0  0  0  0  0  0
    8.7532  -17.8717   22.2935 C   0  0  0  0  0  0  0  0  0  0  0  0
    9.0703  -19.0856   22.2061 O   0  0  0  0  0  0  0  0  0  0  0  0
   11.6048  -17.5418   18.5254 N   0  0  0  0  0  0  0  0  0  0  0  0
   11.2427  -16.4035   19.3142 C   0  0  0  0  0  0  0  0  0  0  0  0
   10.4795  -15.5749   18.7580 O   0  0  0  0  0  0  0  0  0  0  0  0
   11.7563  -16.2452   20.6990 C   0  0  0  0  0  0  0  0  0  0  0  0
   11.0697  -17.1718   21.6718 C   0  0  2  0  0  0  0  0  0  0  0  0
    9.6615  -16.9579   21.6405 N   0  0  0  0  0  0  0  0  0  0  0  0
   11.6540  -16.9020   23.0224 C   0  0  0  0  0  0  0  0  0  0  0  0
   12.9024  -16.8863   23.1069 O   0  0  0  0  0  0  0  0  0  0  0  0
   11.3962  -12.6981   29.1152 C   0  0  0  0  0  0  0  0  0  0  0  0
   10.4094  -14.1195   28.6547 S   0  0  0  0  0  0  0  0  0  0  0  0
   11.3441  -15.3134   27.6498 C   0  0  0  0  0  0  0  0  0  0  0  0
   10.7654  -15.4955   26.3008 C   0  0  0  0  0  0  0  0  0  0  0  0
   11.5504  -16.4531   25.4718 C   0  0  2  0  0  0  0  0  0  0  0  0
   10.8766  -16.6703   24.1748 N   0  0  0  0  0  0  0  0  0  0  0  0
   11.6017  -17.7732   26.1366 C   0  0  0  0  0  0  0  0  0  0  0  0
   12.5742  -17.9672   27.1340 O   0  0  0  0  0  0  0  0  0  0  0  0
   10.8166  -18.7327   25.8533 O   0  0  0  0  0  0  0  0  0  0  0  0
  2  1  1  1
  2 13  1  0
  2  3  1  0
  3  4  1  0
  4  5  2  0
  6  5  1  0
  7  6  1  0
  8  7  2  0
  9  8  1  0
 10 11  1  0
 10  9  2  0
 11 12  2  0
 12  7  1  0
 12  4  1  0
 13 14  2  0
 15 16  1  0
 16 17  2  0
 19 18  1  6
 18 16  1  0
 20 19  1  0
 20 13  1  0
 21 19  1  0
 22 21  2  0
 23 24  1  0
 24 25  1  0
 25 26  1  0
 27 26  1  1
 27 28  1  0
 28 21  1  0
 29 30  1  0
 29 27  1  0
 31 29  2  0
M  END
$$$$
