WNM.pdb
     RDKit          3D

 31 32  0  0  1  0  0  0  0  0999 V2000
    6.6237  -17.7123   22.5662 N   0  0  0  0  0  0  0  0  0  0  0  0
    7.5831  -16.7255   23.1064 C   0  0  1  0  0  0  0  0  0  0  0  0
    7.3290  -16.7056   24.5840 C   0  0  0  0  0  0  0  0  0  0  0  0
    6.6619  -15.4907   25.0815 C   0  0  0  0  0  0  0  0  0  0  0  0
    5.4508  -15.4981   25.7968 C   0  0  0  0  0  0  0  0  0  0  0  0
    5.1288  -14.2476   26.1454 N   0  0  0  0  0  0  0  0  0  0  0  0
    6.0654  -13.3895   25.6989 C   0  0  0  0  0  0  0  0  0  0  0  0
    6.1912  -12.0105   25.7814 C   0  0  0  0  0  0  0  0  0  0  0  0
    7.2640  -11.3851   25.2053 C   0  0  0  0  0  0  0  0  0  0  0  0
    8.2089  -12.1424   24.5475 C   0  0  0  0  0  0  0  0  0  0  0  0
    8.0765  -13.5160   24.4703 C   0  0  0  0  0  0  0  0  0  0  0  0
    7.0047  -14.1588   25.0456 C   0  0  0  0  0  0  0  0  0  0  0  0
    8.9625  -17.1189   22.7944 C   0  0  0  0  0  0  0  0  0  0  0  0
    9.3320  -18.3145   22.6694 O   0  0  0  0  0  0  0  0  0  0  0  0
   13.8308  -16.4912   20.2495 N   0  0  0  0  0  0  0  0  0  0  0  0
   13.5388  -15.7961   21.4663 C   0  0  0  0  0  0  0  0  0  0  0  0
   14.5244  -15.5563   22.2076 O   0  0  0  0  0  0  0  0  0  0  0  0
   12.1464  -15.3994   21.7984 C   0  0  0  0  0  0  0  0  0  0  0  0
   11.3607  -16.5326   22.4106 C   0  0  2  0  0  0  0  0  0  0  0  0
   10.0063  -16.1377   22.6091 N   0  0  0  0  0  0  0  0  0  0  0  0
   12.0394  -16.8947   23.6939 C   0  0  0  0  0  0  0  0  0  0  0  0
   13.2442  -17.2253   23.6241 O   0  0  0  0  0  0  0  0  0  0  0  0
    9.1952  -13.0517   27.6407 C   0  0  0  0  0  0  0  0  0  0  0  0
    9.4860  -14.8176   27.6979 S   0  0  0  0  0  0  0  0  0  0  0  0
   11.2082  -15.2477   27.3006 C   0  0  0  0  0  0  0  0  0  0  0  0
   11.4602  -16.7036   27.3712 C   0  0  0  0  0  0  0  0  0  0  0  0
   12.1644  -17.2162   26.1622 C   0  0  2  0  0  0  0  0  0  0  0  0
   11.3946  -16.8791   24.9469 N   0  0  0  0  0  0  0  0  0  0  0  0
   12.2379  -18.6927   26.2081 C   0  0  0  0  0  0  0  0  0  0  0  0
   13.0249  -19.2785   27.2158 O   0  0  0  0  0  0  0  0  0  0  0  0
   11.6298  -19.4514   25.3885 O   0  0  0  0  0  0  0  0  0  0  0  0
  2  1  1  6
  2 13  1  0
  2  3  1  0
  3  4  1  0
  4  5  2  0
  6  5  1  0
  7  6  1  0
  8  7  2  0
  9  8  1  0
 10 11  1  0
 10  9  2  0
 11 12  2  0
 12  7  1  0
 12  4  1  0
 13 14  2  0
 15 16  1  0
 16 17  2  0
 19 18  1  1
 18 16  1  0
 20 19  1  0
 20 13  1  0
 21 19  1  0
 22 21  2  0
 23 24  1  0
 24 25  1  0
 25 26  1  0
 27 26  1  1
 27 28  1  0
 28 21  1  0
 29 30  1  0
 29 27  1  0
 31 29  2  0
M  END
$$$$
