WNM.pdb
     RDKit          3D

 31 32  0  0  1  0  0  0  0  0999 V2000
    6.2171  -19.9435   22.9858 N   0  0  0  0  0  0  0  0  0  0  0  0
    6.2415  -18.4832   23.2163 C   0  0  1  0  0  0  0  0  0  0  0  0
    6.8251  -18.3164   24.5874 C   0  0  0  0  0  0  0  0  0  0  0  0
    6.6117  -16.9918   25.1945 C   0  0  0  0  0  0  0  0  0  0  0  0
    5.3909  -16.2949   25.1470 C   0  0  0  0  0  0  0  0  0  0  0  0
    5.5037  -15.1469   25.8240 N   0  0  0  0  0  0  0  0  0  0  0  0
    6.7464  -15.0306   26.3293 C   0  0  0  0  0  0  0  0  0  0  0  0
    7.3662  -14.0424   27.0800 C   0  0  0  0  0  0  0  0  0  0  0  0
    8.6774  -14.1827   27.4474 C   0  0  0  0  0  0  0  0  0  0  0  0
    9.3654  -15.3127   27.0618 C   0  0  0  0  0  0  0  0  0  0  0  0
    8.7404  -16.2930   26.3143 C   0  0  0  0  0  0  0  0  0  0  0  0
    7.4228  -16.1668   25.9390 C   0  0  0  0  0  0  0  0  0  0  0  0
    7.0503  -17.8102   22.1927 C   0  0  0  0  0  0  0  0  0  0  0  0
    8.0818  -18.3152   21.6801 O   0  0  0  0  0  0  0  0  0  0  0  0
    7.7780  -12.5137   19.1678 N   0  0  0  0  0  0  0  0  0  0  0  0
    7.5975  -13.9335   19.1411 C   0  0  0  0  0  0  0  0  0  0  0  0
    8.1378  -14.5340   18.1789 O   0  0  0  0  0  0  0  0  0  0  0  0
    6.8145  -14.6191   20.2008 C   0  0  0  0  0  0  0  0  0  0  0  0
    7.5296  -15.8310   20.7452 C   0  0  2  0  0  0  0  0  0  0  0  0
    6.7076  -16.4964   21.6997 N   0  0  0  0  0  0  0  0  0  0  0  0
    8.8154  -15.3513   21.3411 C   0  0  0  0  0  0  0  0  0  0  0  0
    9.6507  -14.8484   20.5567 O   0  0  0  0  0  0  0  0  0  0  0  0
    7.5264  -11.2001   26.0397 C   0  0  0  0  0  0  0  0  0  0  0  0
    8.7760  -12.4799   26.1227 S   0  0  0  0  0  0  0  0  0  0  0  0
    9.2453  -13.0954   24.4765 C   0  0  0  0  0  0  0  0  0  0  0  0
   10.1794  -14.2403   24.5439 C   0  0  0  0  0  0  0  0  0  0  0  0
   10.3901  -14.8790   23.2143 C   0  0  2  0  0  0  0  0  0  0  0  0
    9.1177  -15.4399   22.7147 N   0  0  0  0  0  0  0  0  0  0  0  0
   11.3219  -16.0203   23.3437 C   0  0  0  0  0  0  0  0  0  0  0  0
   12.6301  -15.7513   23.7844 O   0  0  0  0  0  0  0  0  0  0  0  0
   11.0010  -17.2218   23.0784 O   0  0  0  0  0  0  0  0  0  0  0  0
  2  1  1  6
  2 13  1  0
  2  3  1  0
  3  4  1  0
  4  5  2  0
  6  5  1  0
  7  6  1  0
  8  7  2  0
  9  8  1  0
 10 11  1  0
 10  9  2  0
 11 12  2  0
 12  7  1  0
 12  4  1  0
 13 14  2  0
 15 16  1  0
 16 17  2  0
 19 18  1  1
 18 16  1  0
 20 19  1  0
 20 13  1  0
 21 19  1  0
 22 21  2  0
 23 24  1  0
 24 25  1  0
 25 26  1  0
 27 26  1  1
 27 28  1  0
 28 21  1  0
 29 30  1  0
 29 27  1  0
 31 29  2  0
M  END
$$$$
