ECV.pdb
     RDKit          3D

 23 22  0  0  1  0  0  0  0  0999 V2000
    9.4449  -19.2781   21.0721 N   0  0  0  0  0  0  0  0  0  0  0  0
   10.1623  -18.0642   21.1744 C   0  0  1  0  0  0  0  0  0  0  0  0
   10.2806  -17.2168   19.9618 C   0  0  0  0  0  0  0  0  0  0  0  0
   10.6929  -17.8648   18.6985 C   0  0  0  0  0  0  0  0  0  0  0  0
   11.8873  -17.3280   18.0534 C   0  0  0  0  0  0  0  0  0  0  0  0
   13.0287  -17.8019   18.1626 O   0  0  0  0  0  0  0  0  0  0  0  0
    9.6906  -17.2009   22.3061 C   0  0  0  0  0  0  0  0  0  0  0  0
   10.2422  -16.0673   22.3896 O   0  0  0  0  0  0  0  0  0  0  0  0
   11.6844  -16.1737   17.2468 O   0  0  0  0  0  0  0  0  0  0  0  0
    8.6964  -17.5992   23.2360 N   0  0  0  0  0  0  0  0  0  0  0  0
    8.2067  -16.6696   24.2065 C   0  0  1  0  0  0  0  0  0  0  0  0
    6.8459  -17.0650   24.7566 C   0  0  0  0  0  0  0  0  0  0  0  0
    6.8936  -18.5877   25.6967 S   0  0  0  0  0  0  0  0  0  0  0  0
    9.1446  -16.4558   25.3348 C   0  0  0  0  0  0  0  0  0  0  0  0
   10.1611  -17.1979   25.3780 O   0  0  0  0  0  0  0  0  0  0  0  0
   10.7468  -13.9576   29.3111 C   0  0  0  0  0  0  0  0  0  0  0  0
    9.6625  -14.1667   28.2881 C   0  0  1  0  0  0  0  0  0  0  0  0
    9.4415  -12.9060   27.4940 C   0  0  0  0  0  0  0  0  0  0  0  0
    9.9309  -15.3634   27.4068 C   0  0  2  0  0  0  0  0  0  0  0  0
    8.9812  -15.4986   26.3429 N   0  0  0  0  0  0  0  0  0  0  0  0
    9.9079  -16.5599   28.3105 C   0  0  0  0  0  0  0  0  0  0  0  0
   11.0493  -17.0331   28.9196 O   0  0  0  0  0  0  0  0  0  0  0  0
    8.7882  -17.1076   28.4818 O   0  0  0  0  0  0  0  0  0  0  0  0
  2  1  1  6
  2  7  1  0
  3  2  1  0
  4  5  1  0
  4  3  1  0
  5  6  2  0
  7  8  2  0
  7 10  1  0
  9  5  1  0
 10 11  1  0
 11 14  1  0
 12 13  1  0
 11 12  1  1
 14 15  2  0
 14 20  1  0
 17 16  1  1
 17 18  1  0
 19 17  1  0
 19 20  1  6
 21 19  1  0
 21 22  1  0
 23 21  2  0
M  END
$$$$
