ECV.pdb
     RDKit          3D

 23 22  0  0  1  0  0  0  0  0999 V2000
   11.4137  -19.2084   21.3209 N   0  0  0  0  0  0  0  0  0  0  0  0
   11.4042  -17.7948   21.3388 C   0  0  1  0  0  0  0  0  0  0  0  0
   11.1795  -17.0802   20.0576 C   0  0  0  0  0  0  0  0  0  0  0  0
   10.7740  -17.8761   18.8795 C   0  0  0  0  0  0  0  0  0  0  0  0
   10.4683  -17.1273   17.6644 C   0  0  0  0  0  0  0  0  0  0  0  0
   10.6330  -15.9059   17.5209 O   0  0  0  0  0  0  0  0  0  0  0  0
   10.4649  -17.2302   22.3622 C   0  0  0  0  0  0  0  0  0  0  0  0
   10.3519  -15.9718   22.3586 O   0  0  0  0  0  0  0  0  0  0  0  0
    9.9437  -17.8928   16.5859 O   0  0  0  0  0  0  0  0  0  0  0  0
    9.7387  -18.0256   23.2851 N   0  0  0  0  0  0  0  0  0  0  0  0
    8.8836  -17.4065   24.2501 C   0  0  1  0  0  0  0  0  0  0  0  0
    7.7714  -18.3300   24.7199 C   0  0  0  0  0  0  0  0  0  0  0  0
    6.5538  -17.4917   25.7295 S   0  0  0  0  0  0  0  0  0  0  0  0
    9.6156  -16.8864   25.4299 C   0  0  0  0  0  0  0  0  0  0  0  0
   10.6959  -17.4610   25.7277 O   0  0  0  0  0  0  0  0  0  0  0  0
   10.2466  -13.5794   29.0843 C   0  0  0  0  0  0  0  0  0  0  0  0
    9.3128  -14.2488   28.1118 C   0  0  1  0  0  0  0  0  0  0  0  0
    8.6314  -13.2205   27.2475 C   0  0  0  0  0  0  0  0  0  0  0  0
   10.0037  -15.3181   27.2992 C   0  0  2  0  0  0  0  0  0  0  0  0
    9.1951  -15.8147   26.2260 N   0  0  0  0  0  0  0  0  0  0  0  0
   10.3572  -16.4109   28.2634 C   0  0  0  0  0  0  0  0  0  0  0  0
    9.6058  -17.5609   28.3665 O   0  0  0  0  0  0  0  0  0  0  0  0
   11.3784  -16.2193   28.9729 O   0  0  0  0  0  0  0  0  0  0  0  0
  2  1  1  6
  2  7  1  0
  3  2  1  0
  4  5  1  0
  4  3  1  0
  5  6  2  0
  7  8  2  0
  7 10  1  0
  9  5  1  0
 10 11  1  0
 11 14  1  0
 12 13  1  0
 11 12  1  1
 14 15  2  0
 14 20  1  0
 17 16  1  6
 17 18  1  0
 19 17  1  0
 19 20  1  6
 21 19  1  0
 21 22  1  0
 23 21  2  0
M  END
$$$$
