ECV.pdb
     RDKit          3D

 23 22  0  0  1  0  0  0  0  0999 V2000
    9.5275  -19.1185   19.9953 N   0  0  0  0  0  0  0  0  0  0  0  0
    9.6485  -17.7286   20.2242 C   0  0  1  0  0  0  0  0  0  0  0  0
    9.6095  -16.8202   19.0511 C   0  0  0  0  0  0  0  0  0  0  0  0
    8.4550  -16.9197   18.1330 C   0  0  0  0  0  0  0  0  0  0  0  0
    8.5721  -16.2082   16.8638 C   0  0  0  0  0  0  0  0  0  0  0  0
    7.6837  -16.1432   16.0001 O   0  0  0  0  0  0  0  0  0  0  0  0
    8.6766  -17.2183   21.2456 C   0  0  0  0  0  0  0  0  0  0  0  0
    7.5692  -16.8180   20.7876 O   0  0  0  0  0  0  0  0  0  0  0  0
    9.8145  -15.5527   16.6386 O   0  0  0  0  0  0  0  0  0  0  0  0
    8.9501  -17.1741   22.6366 N   0  0  0  0  0  0  0  0  0  0  0  0
    7.9100  -16.8504   23.5634 C   0  0  1  0  0  0  0  0  0  0  0  0
    7.4593  -18.0532   24.3763 C   0  0  0  0  0  0  0  0  0  0  0  0
    6.2252  -17.6374   25.6045 S   0  0  0  0  0  0  0  0  0  0  0  0
    8.2729  -15.7477   24.4858 C   0  0  0  0  0  0  0  0  0  0  0  0
    9.4830  -15.6642   24.8242 O   0  0  0  0  0  0  0  0  0  0  0  0
    7.1510  -11.7926   27.2801 C   0  0  0  0  0  0  0  0  0  0  0  0
    6.6892  -12.8441   26.3069 C   0  0  1  0  0  0  0  0  0  0  0  0
    6.0099  -12.2023   25.1257 C   0  0  0  0  0  0  0  0  0  0  0  0
    7.8071  -13.7722   25.8946 C   0  0  2  0  0  0  0  0  0  0  0  0
    7.3756  -14.8047   25.0004 N   0  0  0  0  0  0  0  0  0  0  0  0
    8.3594  -14.3489   27.1640 C   0  0  0  0  0  0  0  0  0  0  0  0
    9.1776  -13.6196   27.9984 O   0  0  0  0  0  0  0  0  0  0  0  0
    8.0336  -15.5359   27.4248 O   0  0  0  0  0  0  0  0  0  0  0  0
  2  1  1  6
  2  7  1  0
  3  2  1  0
  4  5  1  0
  4  3  1  0
  5  6  2  0
  7  8  2  0
  7 10  1  0
  9  5  1  0
 10 11  1  0
 11 14  1  0
 12 13  1  0
 11 12  1  1
 14 15  2  0
 14 20  1  0
 17 16  1  1
 17 18  1  0
 19 17  1  0
 19 20  1  6
 21 19  1  0
 21 22  1  0
 23 21  2  0
M  END
$$$$
