ECV.pdb
     RDKit          3D

 23 22  0  0  1  0  0  0  0  0999 V2000
    9.5414  -17.5152   16.5898 N   0  0  0  0  0  0  0  0  0  0  0  0
    8.5731  -17.4402   17.6171 C   0  0  1  0  0  0  0  0  0  0  0  0
    7.9721  -18.7060   18.1061 C   0  0  0  0  0  0  0  0  0  0  0  0
    8.8684  -19.8606   18.3285 C   0  0  0  0  0  0  0  0  0  0  0  0
    8.2277  -21.1154   18.7102 C   0  0  0  0  0  0  0  0  0  0  0  0
    8.8236  -22.1827   18.9227 O   0  0  0  0  0  0  0  0  0  0  0  0
    9.0414  -16.6534   18.8045 C   0  0  0  0  0  0  0  0  0  0  0  0
   10.2134  -16.9128   19.1988 O   0  0  0  0  0  0  0  0  0  0  0  0
    6.8114  -21.0689   18.8378 O   0  0  0  0  0  0  0  0  0  0  0  0
    8.2488  -15.6787   19.4629 N   0  0  0  0  0  0  0  0  0  0  0  0
    8.7434  -15.0213   20.6329 C   0  0  1  0  0  0  0  0  0  0  0  0
    7.8667  -13.8552   21.0600 C   0  0  0  0  0  0  0  0  0  0  0  0
    7.6030  -12.6682   19.7463 S   0  0  0  0  0  0  0  0  0  0  0  0
    8.9283  -15.9383   21.7832 C   0  0  0  0  0  0  0  0  0  0  0  0
    8.0619  -16.8391   21.9376 O   0  0  0  0  0  0  0  0  0  0  0  0
   11.5121  -18.4730   22.5738 C   0  0  0  0  0  0  0  0  0  0  0  0
   11.3920  -17.5726   23.7742 C   0  0  1  0  0  0  0  0  0  0  0  0
   12.5950  -16.6718   23.8757 C   0  0  0  0  0  0  0  0  0  0  0  0
   10.0929  -16.8024   23.7836 C   0  0  2  0  0  0  0  0  0  0  0  0
    9.9856  -15.8737   22.6983 N   0  0  0  0  0  0  0  0  0  0  0  0
   10.0346  -16.1000   25.1073 C   0  0  0  0  0  0  0  0  0  0  0  0
    9.8071  -16.7813   26.2827 O   0  0  0  0  0  0  0  0  0  0  0  0
   10.2053  -14.8536   25.0847 O   0  0  0  0  0  0  0  0  0  0  0  0
  2  1  1  6
  2  7  1  0
  3  2  1  0
  4  5  1  0
  4  3  1  0
  5  6  2  0
  7  8  2  0
  7 10  1  0
  9  5  1  0
 10 11  1  0
 11 14  1  0
 12 13  1  0
 11 12  1  1
 14 15  2  0
 14 20  1  0
 17 16  1  6
 17 18  1  0
 19 17  1  0
 19 20  1  6
 21 19  1  0
 21 22  1  0
 23 21  2  0
M  END
$$$$
