ECV.pdb
     RDKit          3D

 23 22  0  0  1  0  0  0  0  0999 V2000
   11.1890  -17.4366   20.0033 N   0  0  0  0  0  0  0  0  0  0  0  0
   11.6845  -17.7254   21.2955 C   0  0  1  0  0  0  0  0  0  0  0  0
   12.9760  -17.1173   21.7019 C   0  0  0  0  0  0  0  0  0  0  0  0
   14.2145  -17.6397   21.0863 C   0  0  0  0  0  0  0  0  0  0  0  0
   15.4643  -17.0206   21.5170 C   0  0  0  0  0  0  0  0  0  0  0  0
   16.2418  -16.3982   20.7772 O   0  0  0  0  0  0  0  0  0  0  0  0
   10.6807  -17.4626   22.3779 C   0  0  0  0  0  0  0  0  0  0  0  0
    9.8749  -16.5160   22.1518 O   0  0  0  0  0  0  0  0  0  0  0  0
   15.7782  -17.1645   22.8972 O   0  0  0  0  0  0  0  0  0  0  0  0
   10.6134  -18.2060   23.5839 N   0  0  0  0  0  0  0  0  0  0  0  0
    9.6917  -17.8284   24.6103 C   0  0  1  0  0  0  0  0  0  0  0  0
    8.9014  -19.0109   25.1469 C   0  0  0  0  0  0  0  0  0  0  0  0
    7.8747  -18.5802   26.5487 S   0  0  0  0  0  0  0  0  0  0  0  0
   10.3366  -17.1200   25.7419 C   0  0  0  0  0  0  0  0  0  0  0  0
   11.4688  -17.5368   26.1028 O   0  0  0  0  0  0  0  0  0  0  0  0
   10.5087  -13.5469   29.1863 C   0  0  0  0  0  0  0  0  0  0  0  0
    9.7646  -14.1878   28.0455 C   0  0  1  0  0  0  0  0  0  0  0  0
    9.5386  -13.1892   26.9407 C   0  0  0  0  0  0  0  0  0  0  0  0
   10.4421  -15.4456   27.5557 C   0  0  2  0  0  0  0  0  0  0  0  0
    9.7820  -16.0337   26.4286 N   0  0  0  0  0  0  0  0  0  0  0  0
   10.4666  -16.3871   28.7227 C   0  0  0  0  0  0  0  0  0  0  0  0
    9.7028  -17.5332   28.7485 O   0  0  0  0  0  0  0  0  0  0  0  0
   11.2237  -16.0723   29.6770 O   0  0  0  0  0  0  0  0  0  0  0  0
  2  1  1  6
  2  7  1  0
  3  2  1  0
  4  5  1  0
  4  3  1  0
  5  6  2  0
  7  8  2  0
  7 10  1  0
  9  5  1  0
 10 11  1  0
 11 14  1  0
 12 13  1  0
 11 12  1  1
 14 15  2  0
 14 20  1  0
 17 16  1  1
 17 18  1  0
 19 17  1  0
 19 20  1  6
 21 19  1  0
 21 22  1  0
 23 21  2  0
M  END
$$$$
