ECV.pdb
     RDKit          3D

 23 22  0  0  1  0  0  0  0  0999 V2000
    9.6804  -15.4087   20.2554 N   0  0  0  0  0  0  0  0  0  0  0  0
    9.1931  -16.1692   21.3429 C   0  0  1  0  0  0  0  0  0  0  0  0
    9.8416  -17.4726   21.6318 C   0  0  0  0  0  0  0  0  0  0  0  0
   10.1532  -18.3616   20.4923 C   0  0  0  0  0  0  0  0  0  0  0  0
    9.9671  -19.7921   20.7155 C   0  0  0  0  0  0  0  0  0  0  0  0
   10.1884  -20.6780   19.8755 O   0  0  0  0  0  0  0  0  0  0  0  0
    9.1251  -15.3856   22.6195 C   0  0  0  0  0  0  0  0  0  0  0  0
   10.0955  -14.6039   22.8280 O   0  0  0  0  0  0  0  0  0  0  0  0
    9.4950  -20.1567   22.0072 O   0  0  0  0  0  0  0  0  0  0  0  0
    8.0599  -15.4912   23.5500 N   0  0  0  0  0  0  0  0  0  0  0  0
    8.1465  -14.8364   24.8186 C   0  0  1  0  0  0  0  0  0  0  0  0
    6.7980  -14.7303   25.5122 C   0  0  0  0  0  0  0  0  0  0  0  0
    6.2907  -13.0356   25.7867 S   0  0  0  0  0  0  0  0  0  0  0  0
    9.1186  -15.4737   25.7390 C   0  0  0  0  0  0  0  0  0  0  0  0
    9.5075  -16.6339   25.4412 O   0  0  0  0  0  0  0  0  0  0  0  0
   11.5688  -13.3798   28.4974 C   0  0  0  0  0  0  0  0  0  0  0  0
   11.0386  -14.7289   28.9035 C   0  0  1  0  0  0  0  0  0  0  0  0
    9.9487  -14.5754   29.9318 C   0  0  0  0  0  0  0  0  0  0  0  0
   10.5986  -15.5516   27.7159 C   0  0  2  0  0  0  0  0  0  0  0  0
    9.6280  -14.8833   26.9014 N   0  0  0  0  0  0  0  0  0  0  0  0
   10.0502  -16.8305   28.2751 C   0  0  0  0  0  0  0  0  0  0  0  0
   10.8717  -17.8161   28.7765 O   0  0  0  0  0  0  0  0  0  0  0  0
    8.7981  -16.9531   28.2613 O   0  0  0  0  0  0  0  0  0  0  0  0
  2  1  1  6
  2  7  1  0
  3  2  1  0
  4  5  1  0
  4  3  1  0
  5  6  2  0
  7  8  2  0
  7 10  1  0
  9  5  1  0
 10 11  1  0
 11 14  1  0
 12 13  1  0
 11 12  1  1
 14 15  2  0
 14 20  1  0
 17 16  1  6
 17 18  1  0
 19 17  1  0
 19 20  1  1
 21 19  1  0
 21 22  1  0
 23 21  2  0
M  END
$$$$
