ECV.pdb
     RDKit          3D

 23 22  0  0  1  0  0  0  0  0999 V2000
   10.5736  -19.0579   21.2402 N   0  0  0  0  0  0  0  0  0  0  0  0
    9.8260  -18.4789   22.2911 C   0  0  1  0  0  0  0  0  0  0  0  0
   10.1816  -18.8417   23.6856 C   0  0  0  0  0  0  0  0  0  0  0  0
   10.5864  -20.2371   23.9591 C   0  0  0  0  0  0  0  0  0  0  0  0
   10.9081  -20.5595   25.3459 C   0  0  0  0  0  0  0  0  0  0  0  0
   12.0502  -20.5558   25.8307 O   0  0  0  0  0  0  0  0  0  0  0  0
    9.7510  -16.9841   22.1995 C   0  0  0  0  0  0  0  0  0  0  0  0
   10.8580  -16.3940   22.0494 O   0  0  0  0  0  0  0  0  0  0  0  0
    9.7999  -20.8982   26.1715 O   0  0  0  0  0  0  0  0  0  0  0  0
    8.5380  -16.2527   22.2729 N   0  0  0  0  0  0  0  0  0  0  0  0
    8.5581  -14.8229   22.2423 C   0  0  1  0  0  0  0  0  0  0  0  0
    7.3150  -14.2370   21.5925 C   0  0  0  0  0  0  0  0  0  0  0  0
    5.8156  -15.0919   22.0675 S   0  0  0  0  0  0  0  0  0  0  0  0
    8.7409  -14.2132   23.5813 C   0  0  0  0  0  0  0  0  0  0  0  0
    9.0972  -13.0058   23.6127 O   0  0  0  0  0  0  0  0  0  0  0  0
    7.7635  -11.9799   25.3141 C   0  0  0  0  0  0  0  0  0  0  0  0
    7.6054  -13.1432   26.2563 C   0  0  1  0  0  0  0  0  0  0  0  0
    6.2130  -13.7096   26.1602 C   0  0  0  0  0  0  0  0  0  0  0  0
    8.6705  -14.1941   26.0510 C   0  0  2  0  0  0  0  0  0  0  0  0
    8.5475  -14.8776   24.7981 N   0  0  0  0  0  0  0  0  0  0  0  0
    8.5446  -15.1456   27.2032 C   0  0  0  0  0  0  0  0  0  0  0  0
    8.9063  -14.7889   28.4837 O   0  0  0  0  0  0  0  0  0  0  0  0
    8.0900  -16.2879   26.9357 O   0  0  0  0  0  0  0  0  0  0  0  0
  2  1  1  6
  2  7  1  0
  3  2  1  0
  4  5  1  0
  4  3  1  0
  5  6  2  0
  7  8  2  0
  7 10  1  0
  9  5  1  0
 10 11  1  0
 11 14  1  0
 12 13  1  0
 11 12  1  1
 14 15  2  0
 14 20  1  0
 17 16  1  6
 17 18  1  0
 19 17  1  0
 19 20  1  6
 21 19  1  0
 21 22  1  0
 23 21  2  0
M  END
$$$$
