ECV.pdb
     RDKit          3D

 23 22  0  0  1  0  0  0  0  0999 V2000
    9.3657  -15.2765   20.3586 N   0  0  0  0  0  0  0  0  0  0  0  0
    8.6532  -15.9975   21.3441 C   0  0  1  0  0  0  0  0  0  0  0  0
    8.9395  -17.4459   21.4955 C   0  0  0  0  0  0  0  0  0  0  0  0
   10.3455  -17.8600   21.6891 C   0  0  0  0  0  0  0  0  0  0  0  0
   10.6023  -19.2968   21.7065 C   0  0  0  0  0  0  0  0  0  0  0  0
   11.7152  -19.8186   21.8760 O   0  0  0  0  0  0  0  0  0  0  0  0
    8.7252  -15.3606   22.6996 C   0  0  0  0  0  0  0  0  0  0  0  0
    9.8490  -14.8745   23.0112 O   0  0  0  0  0  0  0  0  0  0  0  0
    9.4639  -20.1274   21.5108 O   0  0  0  0  0  0  0  0  0  0  0  0
    7.6269  -15.2920   23.5944 N   0  0  0  0  0  0  0  0  0  0  0  0
    7.7767  -14.6603   24.8689 C   0  0  1  0  0  0  0  0  0  0  0  0
    6.4543  -14.5107   25.6036 C   0  0  0  0  0  0  0  0  0  0  0  0
    5.6526  -12.9439   25.2764 S   0  0  0  0  0  0  0  0  0  0  0  0
    8.7486  -15.3497   25.7512 C   0  0  0  0  0  0  0  0  0  0  0  0
    9.0628  -16.5287   25.4396 O   0  0  0  0  0  0  0  0  0  0  0  0
   11.3759  -13.4265   28.5127 C   0  0  0  0  0  0  0  0  0  0  0  0
   10.7586  -14.7466   28.8898 C   0  0  1  0  0  0  0  0  0  0  0  0
    9.6714  -14.5434   29.9122 C   0  0  0  0  0  0  0  0  0  0  0  0
   10.2786  -15.5188   27.6838 C   0  0  2  0  0  0  0  0  0  0  0  0
    9.3341  -14.7886   26.8920 N   0  0  0  0  0  0  0  0  0  0  0  0
    9.6782  -16.7870   28.2130 C   0  0  0  0  0  0  0  0  0  0  0  0
    8.3191  -17.0111   28.1945 O   0  0  0  0  0  0  0  0  0  0  0  0
   10.4847  -17.6352   28.6745 O   0  0  0  0  0  0  0  0  0  0  0  0
  2  1  1  6
  2  7  1  0
  3  2  1  0
  4  5  1  0
  4  3  1  0
  5  6  2  0
  7  8  2  0
  7 10  1  0
  9  5  1  0
 10 11  1  0
 11 14  1  0
 12 13  1  0
 11 12  1  1
 14 15  2  0
 14 20  1  0
 17 16  1  6
 17 18  1  0
 19 17  1  0
 19 20  1  1
 21 19  1  0
 21 22  1  0
 23 21  2  0
M  END
$$$$
