CAY.pdb
     RDKit          3D

 24 24  0  0  1  0  0  0  0  0999 V2000
   21.5659  -14.7480  -17.8789 N   0  0  0  0  0  0  0  0  0  0  0  0
   22.4839  -13.6559  -18.1445 C   0  0  1  0  0  0  0  0  0  0  0  0
   22.0889  -13.0048  -19.4512 C   0  0  0  0  0  0  0  0  0  0  0  0
   22.4506  -14.1045  -20.8468 S   0  0  0  0  0  0  0  0  0  0  0  0
   22.3771  -12.6833  -17.0082 C   0  0  0  0  0  0  0  0  0  0  0  0
   21.2729  -12.1626  -16.6934 O   0  0  0  0  0  0  0  0  0  0  0  0
   24.7250  -11.3017  -14.4493 C   0  0  0  0  0  0  0  0  0  0  0  0
   23.3845  -11.3538  -15.1643 C   0  0  2  0  0  0  0  0  0  0  0  0
   23.5043  -12.3013  -16.2340 N   0  0  0  0  0  0  0  0  0  0  0  0
   22.9357  -10.0253  -15.6106 C   0  0  0  0  0  0  0  0  0  0  0  0
   23.3742   -9.6037  -16.7146 O   0  0  0  0  0  0  0  0  0  0  0  0
   15.8212  -10.6244  -14.9698 O   0  0  0  0  0  0  0  0  0  0  0  0
   17.0056   -9.9929  -15.3325 C   0  0  0  0  0  0  0  0  0  0  0  0
   17.2377   -8.6580  -15.0747 C   0  0  0  0  0  0  0  0  0  0  0  0
   18.4178   -8.0441  -15.4402 C   0  0  0  0  0  0  0  0  0  0  0  0
   19.4254   -8.7456  -16.0850 C   0  0  0  0  0  0  0  0  0  0  0  0
   20.6870   -8.0907  -16.4859 C   0  0  0  0  0  0  0  0  0  0  0  0
   21.6497   -7.8543  -15.3498 C   0  0  2  0  0  0  0  0  0  0  0  0
   22.0552   -9.1838  -14.9055 N   0  0  0  0  0  0  0  0  0  0  0  0
   20.9843   -7.0979  -14.2816 C   0  0  0  0  0  0  0  0  0  0  0  0
   20.7362   -5.8803  -14.4683 O   0  0  0  0  0  0  0  0  0  0  0  0
   19.1847  -10.0786  -16.3387 C   0  0  0  0  0  0  0  0  0  0  0  0
   18.0010  -10.6995  -15.9734 C   0  0  0  0  0  0  0  0  0  0  0  0
   20.6136   -7.6602  -13.0741 O   0  0  0  0  0  0  0  0  0  0  0  0
  2  1  1  1
  2  3  1  0
  3  4  1  0
  5  2  1  0
  6  5  2  0
  8  7  1  6
  8  9  1  0
  9  5  1  0
 10  8  1  0
 10 19  1  0
 11 10  2  0
 13 12  1  0
 14 13  2  0
 15 14  1  0
 16 22  1  0
 16 15  2  0
 17 16  1  0
 18 19  1  0
 18 17  1  6
 20 18  1  0
 21 20  2  0
 22 23  2  0
 23 13  1  0
 24 20  1  0
M  END
$$$$
