CAY.pdb
     RDKit          3D

 24 24  0  0  1  0  0  0  0  0999 V2000
   26.1667  -15.5613  -18.8981 N   0  0  0  0  0  0  0  0  0  0  0  0
   26.8478  -16.0465  -17.7121 C   0  0  1  0  0  0  0  0  0  0  0  0
   26.5359  -15.1122  -16.5644 C   0  0  0  0  0  0  0  0  0  0  0  0
   27.3313  -15.6870  -15.0397 S   0  0  0  0  0  0  0  0  0  0  0  0
   26.3418  -17.4294  -17.4290 C   0  0  0  0  0  0  0  0  0  0  0  0
   25.1122  -17.7016  -17.4868 O   0  0  0  0  0  0  0  0  0  0  0  0
   27.3120  -20.8113  -17.6334 C   0  0  0  0  0  0  0  0  0  0  0  0
   26.7025  -19.7788  -16.6989 C   0  0  2  0  0  0  0  0  0  0  0  0
   27.2138  -18.4955  -17.0838 N   0  0  0  0  0  0  0  0  0  0  0  0
   26.9376  -20.0980  -15.2817 C   0  0  0  0  0  0  0  0  0  0  0  0
   27.9458  -19.5818  -14.7286 O   0  0  0  0  0  0  0  0  0  0  0  0
   26.2210  -20.2697   -6.6933 O   0  0  0  0  0  0  0  0  0  0  0  0
   26.2138  -20.1636   -8.0796 C   0  0  0  0  0  0  0  0  0  0  0  0
   26.3093  -18.9489   -8.7260 C   0  0  0  0  0  0  0  0  0  0  0  0
   26.3010  -18.8581  -10.1025 C   0  0  0  0  0  0  0  0  0  0  0  0
   26.1960  -19.9888  -10.8986 C   0  0  0  0  0  0  0  0  0  0  0  0
   26.1781  -19.8960  -12.3725 C   0  0  0  0  0  0  0  0  0  0  0  0
   26.3638  -21.2155  -13.0779 C   0  0  2  0  0  0  0  0  0  0  0  0
   26.1282  -20.9340  -14.4901 N   0  0  0  0  0  0  0  0  0  0  0  0
   25.4133  -22.2018  -12.5488 C   0  0  0  0  0  0  0  0  0  0  0  0
   24.2270  -22.1797  -12.9626 O   0  0  0  0  0  0  0  0  0  0  0  0
   26.1008  -21.1979  -10.2442 C   0  0  0  0  0  0  0  0  0  0  0  0
   26.1088  -21.2940   -8.8619 C   0  0  0  0  0  0  0  0  0  0  0  0
   25.7589  -23.1599  -11.6138 O   0  0  0  0  0  0  0  0  0  0  0  0
  2  1  1  6
  2  3  1  0
  3  4  1  0
  5  2  1  0
  6  5  2  0
  8  7  1  6
  8  9  1  0
  9  5  1  0
 10  8  1  0
 10 19  1  0
 11 10  2  0
 13 12  1  0
 14 13  2  0
 15 14  1  0
 16 22  1  0
 16 15  2  0
 17 16  1  0
 18 19  1  0
 18 17  1  1
 20 18  1  0
 21 20  2  0
 22 23  2  0
 23 13  1  0
 24 20  1  0
M  END
$$$$
