CAY.pdb
     RDKit          3D

 24 24  0  0  1  0  0  0  0  0999 V2000
   19.2231  -10.8588  -16.8282 N   0  0  0  0  0  0  0  0  0  0  0  0
   18.2874   -9.9397  -16.2070 C   0  0  1  0  0  0  0  0  0  0  0  0
   18.1680  -10.2950  -14.7418 C   0  0  0  0  0  0  0  0  0  0  0  0
   17.2671  -11.8549  -14.5349 S   0  0  0  0  0  0  0  0  0  0  0  0
   18.8286   -8.5520  -16.3788 C   0  0  0  0  0  0  0  0  0  0  0  0
   20.0393   -8.2877  -16.1469 O   0  0  0  0  0  0  0  0  0  0  0  0
   17.5481   -5.3922  -17.8723 C   0  0  0  0  0  0  0  0  0  0  0  0
   18.5699   -6.1759  -17.0645 C   0  0  2  0  0  0  0  0  0  0  0  0
   18.0127   -7.4721  -16.8082 N   0  0  0  0  0  0  0  0  0  0  0  0
   18.9810   -5.4667  -15.8423 C   0  0  0  0  0  0  0  0  0  0  0  0
   18.2592   -5.6058  -14.8184 O   0  0  0  0  0  0  0  0  0  0  0  0
   22.9496   -9.9807  -13.8828 O   0  0  0  0  0  0  0  0  0  0  0  0
   22.7223   -8.6145  -14.0058 C   0  0  0  0  0  0  0  0  0  0  0  0
   23.0834   -7.9061  -15.1328 C   0  0  0  0  0  0  0  0  0  0  0  0
   22.8518   -6.5506  -15.2415 C   0  0  0  0  0  0  0  0  0  0  0  0
   22.2435   -5.8391  -14.2183 C   0  0  0  0  0  0  0  0  0  0  0  0
   22.0011   -4.3862  -14.3265 C   0  0  0  0  0  0  0  0  0  0  0  0
   20.5489   -4.0108  -14.4797 C   0  0  2  0  0  0  0  0  0  0  0  0
   20.1162   -4.6437  -15.7212 N   0  0  0  0  0  0  0  0  0  0  0  0
   20.4145   -2.5496  -14.5326 C   0  0  0  0  0  0  0  0  0  0  0  0
   20.1223   -2.0094  -15.6288 O   0  0  0  0  0  0  0  0  0  0  0  0
   21.8864   -6.5549  -13.0961 C   0  0  0  0  0  0  0  0  0  0  0  0
   22.1170   -7.9165  -12.9824 C   0  0  0  0  0  0  0  0  0  0  0  0
   20.5931   -1.7329  -13.4314 O   0  0  0  0  0  0  0  0  0  0  0  0
  2  1  1  6
  2  3  1  0
  3  4  1  0
  5  2  1  0
  6  5  2  0
  8  7  1  1
  8  9  1  0
  9  5  1  0
 10  8  1  0
 10 19  1  0
 11 10  2  0
 13 12  1  0
 14 13  2  0
 15 14  1  0
 16 22  1  0
 16 15  2  0
 17 16  1  0
 18 19  1  0
 18 17  1  6
 20 18  1  0
 21 20  2  0
 22 23  2  0
 23 13  1  0
 24 20  1  0
M  END
$$$$
