CAY.pdb
     RDKit          3D

 24 24  0  0  1  0  0  0  0  0999 V2000
   25.3864  -24.8851  -16.2156 N   0  0  0  0  0  0  0  0  0  0  0  0
   24.3751  -24.0003  -15.6674 C   0  0  1  0  0  0  0  0  0  0  0  0
   23.3655  -24.8360  -14.9126 C   0  0  0  0  0  0  0  0  0  0  0  0
   24.0879  -25.4773  -13.3782 S   0  0  0  0  0  0  0  0  0  0  0  0
   25.0629  -23.0341  -14.7499 C   0  0  0  0  0  0  0  0  0  0  0  0
   26.3098  -23.0773  -14.5687 O   0  0  0  0  0  0  0  0  0  0  0  0
   24.3187  -19.6799  -13.6466 C   0  0  0  0  0  0  0  0  0  0  0  0
   25.0410  -20.9829  -13.3446 C   0  0  2  0  0  0  0  0  0  0  0  0
   24.3518  -22.0285  -14.0434 N   0  0  0  0  0  0  0  0  0  0  0  0
   25.1658  -21.2323  -11.8996 C   0  0  0  0  0  0  0  0  0  0  0  0
   24.2001  -21.8001  -11.3218 O   0  0  0  0  0  0  0  0  0  0  0  0
   28.0889  -19.5639   -3.6035 O   0  0  0  0  0  0  0  0  0  0  0  0
   27.9096  -19.6391   -4.9802 C   0  0  0  0  0  0  0  0  0  0  0  0
   27.8151  -18.5146   -5.7733 C   0  0  0  0  0  0  0  0  0  0  0  0
   27.6374  -18.6038   -7.1384 C   0  0  0  0  0  0  0  0  0  0  0  0
   27.5457  -19.8328   -7.7744 C   0  0  0  0  0  0  0  0  0  0  0  0
   27.3469  -19.9333   -9.2344 C   0  0  0  0  0  0  0  0  0  0  0  0
   26.2959  -20.9319   -9.6485 C   0  0  2  0  0  0  0  0  0  0  0  0
   26.2767  -20.8887  -11.1069 N   0  0  0  0  0  0  0  0  0  0  0  0
   24.9985  -20.5586   -9.0712 C   0  0  0  0  0  0  0  0  0  0  0  0
   24.5061  -21.2852   -8.1721 O   0  0  0  0  0  0  0  0  0  0  0  0
   27.6410  -20.9507   -6.9741 C   0  0  0  0  0  0  0  0  0  0  0  0
   27.8196  -20.8661   -5.6027 C   0  0  0  0  0  0  0  0  0  0  0  0
   24.2870  -19.4415   -9.4679 O   0  0  0  0  0  0  0  0  0  0  0  0
  2  1  1  1
  2  3  1  0
  3  4  1  0
  5  2  1  0
  6  5  2  0
  8  7  1  1
  8  9  1  0
  9  5  1  0
 10  8  1  0
 10 19  1  0
 11 10  2  0
 13 12  1  0
 14 13  2  0
 15 14  1  0
 16 22  1  0
 16 15  2  0
 17 16  1  0
 18 19  1  0
 18 17  1  1
 20 18  1  0
 21 20  2  0
 22 23  2  0
 23 13  1  0
 24 20  1  0
M  END
$$$$
