CAY.pdb
     RDKit          3D

 24 24  0  0  1  0  0  0  0  0999 V2000
   26.0569   -9.7277  -18.6987 N   0  0  0  0  0  0  0  0  0  0  0  0
   25.2491   -9.4970  -17.5154 C   0  0  1  0  0  0  0  0  0  0  0  0
   26.1447   -8.9614  -16.4207 C   0  0  0  0  0  0  0  0  0  0  0  0
   26.9621  -10.3213  -15.5429 S   0  0  0  0  0  0  0  0  0  0  0  0
   24.1881   -8.5000  -17.8745 C   0  0  0  0  0  0  0  0  0  0  0  0
   24.4859   -7.3479  -18.2907 O   0  0  0  0  0  0  0  0  0  0  0  0
   20.6571   -8.6233  -18.7817 C   0  0  0  0  0  0  0  0  0  0  0  0
   21.8054   -7.8476  -18.1567 C   0  0  2  0  0  0  0  0  0  0  0  0
   22.8044   -8.7990  -17.7653 N   0  0  0  0  0  0  0  0  0  0  0  0
   21.3612   -6.9820  -17.0525 C   0  0  0  0  0  0  0  0  0  0  0  0
   20.5538   -6.0545  -17.3292 O   0  0  0  0  0  0  0  0  0  0  0  0
   17.2964   -5.2379   -9.6803 O   0  0  0  0  0  0  0  0  0  0  0  0
   18.2415   -5.7045  -10.5872 C   0  0  0  0  0  0  0  0  0  0  0  0
   19.5336   -6.0093  -10.2132 C   0  0  0  0  0  0  0  0  0  0  0  0
   20.4613   -6.4716  -11.1236 C   0  0  0  0  0  0  0  0  0  0  0  0
   20.1331   -6.6504  -12.4591 C   0  0  0  0  0  0  0  0  0  0  0  0
   21.1252   -7.1370  -13.4391 C   0  0  0  0  0  0  0  0  0  0  0  0
   21.3142   -6.2316  -14.6299 C   0  0  2  0  0  0  0  0  0  0  0  0
   21.7640   -7.1040  -15.7096 N   0  0  0  0  0  0  0  0  0  0  0  0
   22.3035   -5.1934  -14.3148 C   0  0  0  0  0  0  0  0  0  0  0  0
   23.5111   -5.4068  -14.5888 O   0  0  0  0  0  0  0  0  0  0  0  0
   18.8401   -6.3432  -12.8236 C   0  0  0  0  0  0  0  0  0  0  0  0
   17.9049   -5.8787  -11.9128 C   0  0  0  0  0  0  0  0  0  0  0  0
   21.9723   -3.9853  -13.7293 O   0  0  0  0  0  0  0  0  0  0  0  0
  2  1  1  6
  2  3  1  0
  3  4  1  0
  5  2  1  0
  6  5  2  0
  8  7  1  1
  8  9  1  0
  9  5  1  0
 10  8  1  0
 10 19  1  0
 11 10  2  0
 13 12  1  0
 14 13  2  0
 15 14  1  0
 16 22  1  0
 16 15  2  0
 17 16  1  0
 18 19  1  0
 18 17  1  1
 20 18  1  0
 21 20  2  0
 22 23  2  0
 23 13  1  0
 24 20  1  0
M  END
$$$$
