CAY.pdb
     RDKit          3D

 24 24  0  0  1  0  0  0  0  0999 V2000
   27.5243  -17.9991  -16.9212 N   0  0  0  0  0  0  0  0  0  0  0  0
   26.3185  -18.3232  -16.1815 C   0  0  1  0  0  0  0  0  0  0  0  0
   26.6953  -19.2104  -15.0161 C   0  0  0  0  0  0  0  0  0  0  0  0
   27.7414  -20.5833  -15.5716 S   0  0  0  0  0  0  0  0  0  0  0  0
   25.7176  -17.0359  -15.7017 C   0  0  0  0  0  0  0  0  0  0  0  0
   24.6653  -17.0229  -15.0076 O   0  0  0  0  0  0  0  0  0  0  0  0
   26.6866  -13.5014  -15.4067 C   0  0  0  0  0  0  0  0  0  0  0  0
   25.6220  -14.5513  -15.6811 C   0  0  2  0  0  0  0  0  0  0  0  0
   26.2975  -15.7750  -16.0016 N   0  0  0  0  0  0  0  0  0  0  0  0
   24.6679  -14.1242  -16.7170 C   0  0  0  0  0  0  0  0  0  0  0  0
   25.1130  -13.9574  -17.8844 O   0  0  0  0  0  0  0  0  0  0  0  0
   18.8502  -18.1760  -14.9594 O   0  0  0  0  0  0  0  0  0  0  0  0
   19.6097  -17.3317  -15.7616 C   0  0  0  0  0  0  0  0  0  0  0  0
   20.9582  -17.5311  -15.9717 C   0  0  0  0  0  0  0  0  0  0  0  0
   21.6998  -16.6854  -16.7703 C   0  0  0  0  0  0  0  0  0  0  0  0
   21.1190  -15.5941  -17.3987 C   0  0  0  0  0  0  0  0  0  0  0  0
   21.9106  -14.6809  -18.2478 C   0  0  0  0  0  0  0  0  0  0  0  0
   22.3736  -13.4292  -17.5464 C   0  0  2  0  0  0  0  0  0  0  0  0
   23.2962  -13.8859  -16.5122 N   0  0  0  0  0  0  0  0  0  0  0  0
   21.2200  -12.7200  -16.9786 C   0  0  0  0  0  0  0  0  0  0  0  0
   21.0951  -12.6732  -15.7292 O   0  0  0  0  0  0  0  0  0  0  0  0
   19.7714  -15.4025  -17.1829 C   0  0  0  0  0  0  0  0  0  0  0  0
   19.0225  -16.2493  -16.3817 C   0  0  0  0  0  0  0  0  0  0  0  0
   20.2591  -12.0966  -17.7530 O   0  0  0  0  0  0  0  0  0  0  0  0
  2  1  1  1
  2  3  1  0
  3  4  1  0
  5  2  1  0
  6  5  2  0
  8  7  1  6
  8  9  1  0
  9  5  1  0
 10  8  1  0
 10 19  1  0
 11 10  2  0
 13 12  1  0
 14 13  2  0
 15 14  1  0
 16 22  1  0
 16 15  2  0
 17 16  1  0
 18 19  1  0
 18 17  1  1
 20 18  1  0
 21 20  2  0
 22 23  2  0
 23 13  1  0
 24 20  1  0
M  END
$$$$
