CAY.pdb
     RDKit          3D

 24 24  0  0  1  0  0  0  0  0999 V2000
   20.6380  -11.2548  -19.9420 N   0  0  0  0  0  0  0  0  0  0  0  0
   20.1816   -9.8773  -19.9585 C   0  0  1  0  0  0  0  0  0  0  0  0
   18.7356   -9.8463  -19.5164 C   0  0  0  0  0  0  0  0  0  0  0  0
   18.1025   -8.1472  -19.5240 S   0  0  0  0  0  0  0  0  0  0  0  0
   21.0469   -9.0985  -19.0135 C   0  0  0  0  0  0  0  0  0  0  0  0
   21.2686   -9.5060  -17.8412 O   0  0  0  0  0  0  0  0  0  0  0  0
   23.1262   -6.0041  -19.2200 C   0  0  0  0  0  0  0  0  0  0  0  0
   22.4199   -7.1048  -18.4451 C   0  0  2  0  0  0  0  0  0  0  0  0
   21.6568   -7.8717  -19.3864 N   0  0  0  0  0  0  0  0  0  0  0  0
   21.6128   -6.5777  -17.3332 C   0  0  0  0  0  0  0  0  0  0  0  0
   20.4251   -6.2395  -17.5858 O   0  0  0  0  0  0  0  0  0  0  0  0
   17.7789   -5.5637   -9.4940 O   0  0  0  0  0  0  0  0  0  0  0  0
   18.5659   -5.8935  -10.5918 C   0  0  0  0  0  0  0  0  0  0  0  0
   18.3204   -5.3901  -11.8521 C   0  0  0  0  0  0  0  0  0  0  0  0
   19.1096   -5.7257  -12.9327 C   0  0  0  0  0  0  0  0  0  0  0  0
   20.1880   -6.5870  -12.7975 C   0  0  0  0  0  0  0  0  0  0  0  0
   21.0307   -6.9560  -13.9529 C   0  0  0  0  0  0  0  0  0  0  0  0
   21.2620   -5.8342  -14.9334 C   0  0  2  0  0  0  0  0  0  0  0  0
   22.0578   -6.4192  -16.0075 N   0  0  0  0  0  0  0  0  0  0  0  0
   21.9643   -4.7287  -14.2695 C   0  0  0  0  0  0  0  0  0  0  0  0
   23.2157   -4.7821  -14.1688 O   0  0  0  0  0  0  0  0  0  0  0  0
   20.4257   -7.0852  -11.5347 C   0  0  0  0  0  0  0  0  0  0  0  0
   19.6358   -6.7510  -10.4464 C   0  0  0  0  0  0  0  0  0  0  0  0
   21.3155   -3.6250  -13.7474 O   0  0  0  0  0  0  0  0  0  0  0  0
  2  1  1  1
  2  3  1  0
  3  4  1  0
  5  2  1  0
  6  5  2  0
  8  7  1  6
  8  9  1  0
  9  5  1  0
 10  8  1  0
 10 19  1  0
 11 10  2  0
 13 12  1  0
 14 13  2  0
 15 14  1  0
 16 22  1  0
 16 15  2  0
 17 16  1  0
 18 19  1  0
 18 17  1  1
 20 18  1  0
 21 20  2  0
 22 23  2  0
 23 13  1  0
 24 20  1  0
M  END
$$$$
