CAY.pdb
     RDKit          3D

 24 24  0  0  1  0  0  0  0  0999 V2000
   24.6771  -12.8466  -20.6008 N   0  0  0  0  0  0  0  0  0  0  0  0
   24.2196  -12.7362  -19.2280 C   0  0  1  0  0  0  0  0  0  0  0  0
   25.1519  -13.5368  -18.3463 C   0  0  0  0  0  0  0  0  0  0  0  0
   24.6533  -13.4079  -16.6078 S   0  0  0  0  0  0  0  0  0  0  0  0
   24.2446  -11.2843  -18.8540 C   0  0  0  0  0  0  0  0  0  0  0  0
   25.1224  -10.5046  -19.3133 O   0  0  0  0  0  0  0  0  0  0  0  0
   23.2089   -8.5755  -19.0116 C   0  0  0  0  0  0  0  0  0  0  0  0
   23.2847   -9.3116  -17.6837 C   0  0  2  0  0  0  0  0  0  0  0  0
   23.2889  -10.7166  -17.9706 N   0  0  0  0  0  0  0  0  0  0  0  0
   22.2134   -8.9094  -16.7584 C   0  0  0  0  0  0  0  0  0  0  0  0
   21.0915   -9.4689  -16.8891 O   0  0  0  0  0  0  0  0  0  0  0  0
   18.2205   -5.5448   -9.5136 O   0  0  0  0  0  0  0  0  0  0  0  0
   19.1111   -5.9627  -10.4963 C   0  0  0  0  0  0  0  0  0  0  0  0
   19.4505   -7.2885  -10.6671 C   0  0  0  0  0  0  0  0  0  0  0  0
   20.3356   -7.6893  -11.6464 C   0  0  0  0  0  0  0  0  0  0  0  0
   20.9243   -6.7726  -12.5046 C   0  0  0  0  0  0  0  0  0  0  0  0
   21.8790   -7.1958  -13.5490 C   0  0  0  0  0  0  0  0  0  0  0  0
   21.2420   -7.5095  -14.8791 C   0  0  2  0  0  0  0  0  0  0  0  0
   22.3375   -7.9495  -15.7367 N   0  0  0  0  0  0  0  0  0  0  0  0
   20.5774   -6.3120  -15.4085 C   0  0  0  0  0  0  0  0  0  0  0  0
   21.2617   -5.4746  -16.0484 O   0  0  0  0  0  0  0  0  0  0  0  0
   20.5794   -5.4503  -12.3264 C   0  0  0  0  0  0  0  0  0  0  0  0
   19.6909   -5.0431  -11.3442 C   0  0  0  0  0  0  0  0  0  0  0  0
   19.2290   -6.0575  -15.2388 O   0  0  0  0  0  0  0  0  0  0  0  0
  2  1  1  6
  2  3  1  0
  3  4  1  0
  5  2  1  0
  6  5  2  0
  8  7  1  6
  8  9  1  0
  9  5  1  0
 10  8  1  0
 10 19  1  0
 11 10  2  0
 13 12  1  0
 14 13  2  0
 15 14  1  0
 16 22  1  0
 16 15  2  0
 17 16  1  0
 18 19  1  0
 18 17  1  1
 20 18  1  0
 21 20  2  0
 22 23  2  0
 23 13  1  0
 24 20  1  0
M  END
$$$$
