CAY.pdb
     RDKit          3D

 24 24  0  0  1  0  0  0  0  0999 V2000
   47.7581  -12.2389   -7.0406 N   0  0  0  0  0  0  0  0  0  0  0  0
   47.4008  -11.0502   -7.7925 C   0  0  1  0  0  0  0  0  0  0  0  0
   46.8747  -11.4783   -9.1442 C   0  0  0  0  0  0  0  0  0  0  0  0
   48.2401  -11.9508  -10.2397 S   0  0  0  0  0  0  0  0  0  0  0  0
   46.3475  -10.3183   -7.0156 C   0  0  0  0  0  0  0  0  0  0  0  0
   45.4252  -10.9369   -6.4190 O   0  0  0  0  0  0  0  0  0  0  0  0
   45.9628   -6.8854   -5.7002 C   0  0  0  0  0  0  0  0  0  0  0  0
   45.3663   -8.2257   -6.0986 C   0  0  2  0  0  0  0  0  0  0  0  0
   46.3342   -8.9023   -6.9122 N   0  0  0  0  0  0  0  0  0  0  0  0
   44.0547   -8.0835   -6.7507 C   0  0  0  0  0  0  0  0  0  0  0  0
   44.0391   -7.9611   -8.0051 O   0  0  0  0  0  0  0  0  0  0  0  0
   35.1563   -6.8932   -7.2558 O   0  0  0  0  0  0  0  0  0  0  0  0
   36.4574   -7.2098   -6.8814 C   0  0  0  0  0  0  0  0  0  0  0  0
   36.9867   -8.4719   -7.0521 C   0  0  0  0  0  0  0  0  0  0  0  0
   38.2796   -8.7721   -6.6760 C   0  0  0  0  0  0  0  0  0  0  0  0
   39.1058   -7.8140   -6.1080 C   0  0  0  0  0  0  0  0  0  0  0  0
   40.4878   -8.1329   -5.6960 C   0  0  0  0  0  0  0  0  0  0  0  0
   41.5309   -7.8286   -6.7412 C   0  0  2  0  0  0  0  0  0  0  0  0
   42.8130   -8.0728   -6.0886 N   0  0  0  0  0  0  0  0  0  0  0  0
   41.3985   -6.4359   -7.1872 C   0  0  0  0  0  0  0  0  0  0  0  0
   42.0222   -5.5405   -6.5644 O   0  0  0  0  0  0  0  0  0  0  0  0
   38.5684   -6.5560   -5.9411 C   0  0  0  0  0  0  0  0  0  0  0  0
   37.2705   -6.2497   -6.3173 C   0  0  0  0  0  0  0  0  0  0  0  0
   40.6187   -6.0573   -8.2644 O   0  0  0  0  0  0  0  0  0  0  0  0
  2  1  1  1
  2  3  1  0
  3  4  1  0
  5  2  1  0
  6  5  2  0
  8  7  1  6
  8  9  1  0
  9  5  1  0
 10  8  1  0
 10 19  1  0
 11 10  2  0
 13 12  1  0
 14 13  2  0
 15 14  1  0
 16 22  1  0
 16 15  2  0
 17 16  1  0
 18 19  1  0
 18 17  1  1
 20 18  1  0
 21 20  2  0
 22 23  2  0
 23 13  1  0
 24 20  1  0
M  END
$$$$
