CAY.pdb
     RDKit          3D

 24 24  0  0  1  0  0  0  0  0999 V2000
   28.9102  -22.7543  -17.2031 N   0  0  0  0  0  0  0  0  0  0  0  0
   27.4977  -23.0833  -17.2561 C   0  0  1  0  0  0  0  0  0  0  0  0
   27.2491  -24.2743  -16.3579 C   0  0  0  0  0  0  0  0  0  0  0  0
   27.7159  -25.8133  -17.1953 S   0  0  0  0  0  0  0  0  0  0  0  0
   26.7320  -21.8850  -16.7804 C   0  0  0  0  0  0  0  0  0  0  0  0
   27.0461  -21.2873  -15.7157 O   0  0  0  0  0  0  0  0  0  0  0  0
   24.0065  -19.7270  -18.1135 C   0  0  0  0  0  0  0  0  0  0  0  0
   24.8316  -20.2927  -16.9689 C   0  0  2  0  0  0  0  0  0  0  0  0
   25.6225  -21.3655  -17.4981 N   0  0  0  0  0  0  0  0  0  0  0  0
   23.9995  -20.6930  -15.8230 C   0  0  0  0  0  0  0  0  0  0  0  0
   23.6022  -21.8885  -15.7821 O   0  0  0  0  0  0  0  0  0  0  0  0
   20.5247  -20.7233   -7.6125 O   0  0  0  0  0  0  0  0  0  0  0  0
   21.2046  -20.4424   -8.7924 C   0  0  0  0  0  0  0  0  0  0  0  0
   22.4018  -21.0469   -9.1145 C   0  0  0  0  0  0  0  0  0  0  0  0
   23.0658  -20.7589  -10.2889 C   0  0  0  0  0  0  0  0  0  0  0  0
   22.5560  -19.8457  -11.1997 C   0  0  0  0  0  0  0  0  0  0  0  0
   23.2675  -19.5277  -12.4543 C   0  0  0  0  0  0  0  0  0  0  0  0
   22.7390  -20.2526  -13.6661 C   0  0  2  0  0  0  0  0  0  0  0  0
   23.6092  -19.8498  -14.7660 N   0  0  0  0  0  0  0  0  0  0  0  0
   21.3410  -19.8719  -13.9046 C   0  0  0  0  0  0  0  0  0  0  0  0
   21.1029  -18.8026  -14.5199 O   0  0  0  0  0  0  0  0  0  0  0  0
   21.3597  -19.2466  -10.8694 C   0  0  0  0  0  0  0  0  0  0  0  0
   20.6891  -19.5327   -9.6911 C   0  0  0  0  0  0  0  0  0  0  0  0
   20.2669  -20.6348  -13.4850 O   0  0  0  0  0  0  0  0  0  0  0  0
  2  1  1  1
  2  3  1  0
  3  4  1  0
  5  2  1  0
  6  5  2  0
  8  7  1  6
  8  9  1  0
  9  5  1  0
 10  8  1  0
 10 19  1  0
 11 10  2  0
 13 12  1  0
 14 13  2  0
 15 14  1  0
 16 22  1  0
 16 15  2  0
 17 16  1  0
 18 19  1  0
 18 17  1  1
 20 18  1  0
 21 20  2  0
 22 23  2  0
 23 13  1  0
 24 20  1  0
M  END
$$$$
