PNC.pdb
     RDKit          3D

 22 22  0  0  1  0  0  0  0  0999 V2000
   17.4782  -25.8754   -8.4047 N   0  0  0  0  0  0  0  0  0  0  0  0
   17.8659  -25.6478   -9.8063 C   0  0  0  0  0  0  0  0  0  0  0  0
   17.8424  -24.1482   -9.8947 C   0  0  0  0  0  0  0  0  0  0  0  0
   18.4620  -23.7301   -8.5769 C   0  0  0  0  0  0  0  0  0  0  0  0
   18.3422  -24.9712   -7.7192 C   0  0  1  0  0  0  0  0  0  0  0  0
   17.8649  -24.6411   -6.3487 C   0  0  0  0  0  0  0  0  0  0  0  0
   18.4624  -23.8638   -5.5835 O   0  0  0  0  0  0  0  0  0  0  0  0
   15.0951  -22.5408   -5.5437 N   0  0  0  0  0  0  0  0  0  0  0  0
   14.1705  -23.5785   -5.1955 C   0  0  0  0  0  0  0  0  0  0  0  0
   12.9352  -23.2947   -5.3754 O   0  0  0  0  0  0  0  0  0  0  0  0
   14.6172  -24.8780   -4.6683 C   0  0  0  0  0  0  0  0  0  0  0  0
   16.0932  -25.0727   -4.5795 C   0  0  2  0  0  0  0  0  0  0  0  0
   16.6616  -25.2413   -5.8777 N   0  0  0  0  0  0  0  0  0  0  0  0
   16.5407  -26.0193   -3.5463 C   0  0  0  0  0  0  0  0  0  0  0  0
   16.1820  -25.7615   -2.3506 O   0  0  0  0  0  0  0  0  0  0  0  0
   17.3210  -27.1716   -3.7303 N   0  0  0  0  0  0  0  0  0  0  0  0
   17.7820  -28.0004   -2.6094 C   0  0  1  0  0  0  0  0  0  0  0  0
   18.0416  -29.4294   -3.0297 C   0  0  0  0  0  0  0  0  0  0  0  0
   18.7128  -30.2912   -1.5834 S   0  0  0  0  0  0  0  0  0  0  0  0
   18.9991  -27.3971   -2.0447 C   0  0  0  0  0  0  0  0  0  0  0  0
   19.2964  -27.5898   -0.8309 O   0  0  0  0  0  0  0  0  0  0  0  0
   19.8890  -26.5965   -2.7687 O   0  0  0  0  0  0  0  0  0  0  0  0
  1  2  1  0
  3  4  1  0
  3  2  1  0
  4  5  1  0
  5  1  1  0
  5  6  1  1
  7  6  2  0
  9 11  1  0
  9  8  1  0
 10  9  2  0
 12 11  1  6
 12 13  1  0
 12 14  1  0
 13  6  1  0
 14 16  1  0
 15 14  2  0
 16 17  1  0
 17 20  1  0
 17 18  1  6
 18 19  1  0
 20 21  2  0
 20 22  1  0
M  END
$$$$
