PNC.pdb
     RDKit          3D

 22 22  0  0  1  0  0  0  0  0999 V2000
   27.3714  -20.7051  -16.2892 N   0  0  0  0  0  0  0  0  0  0  0  0
   28.6223  -21.4562  -16.0958 C   0  0  0  0  0  0  0  0  0  0  0  0
   29.3428  -20.6046  -15.0894 C   0  0  0  0  0  0  0  0  0  0  0  0
   28.2310  -20.2001  -14.1430 C   0  0  0  0  0  0  0  0  0  0  0  0
   26.9725  -20.4632  -14.9415 C   0  0  1  0  0  0  0  0  0  0  0  0
   26.0048  -19.3394  -14.8170 C   0  0  0  0  0  0  0  0  0  0  0  0
   25.5518  -18.9422  -13.7289 O   0  0  0  0  0  0  0  0  0  0  0  0
   23.0319  -15.2097  -16.3067 N   0  0  0  0  0  0  0  0  0  0  0  0
   24.3218  -15.2660  -16.9279 C   0  0  0  0  0  0  0  0  0  0  0  0
   24.6566  -14.2233  -17.5911 O   0  0  0  0  0  0  0  0  0  0  0  0
   25.1959  -16.4440  -16.8075 C   0  0  0  0  0  0  0  0  0  0  0  0
   24.6283  -17.6030  -16.0600 C   0  0  2  0  0  0  0  0  0  0  0  0
   25.5668  -18.6764  -15.9996 N   0  0  0  0  0  0  0  0  0  0  0  0
   23.2483  -17.9657  -16.4178 C   0  0  0  0  0  0  0  0  0  0  0  0
   23.0856  -18.5137  -17.5570 O   0  0  0  0  0  0  0  0  0  0  0  0
   22.0917  -17.7722  -15.6461 N   0  0  0  0  0  0  0  0  0  0  0  0
   20.7743  -18.2723  -16.0587 C   0  0  1  0  0  0  0  0  0  0  0  0
   19.8828  -18.5667  -14.8735 C   0  0  0  0  0  0  0  0  0  0  0  0
   18.9424  -20.0620  -15.2793 S   0  0  0  0  0  0  0  0  0  0  0  0
   20.1477  -17.2789  -16.9443 C   0  0  0  0  0  0  0  0  0  0  0  0
   19.0258  -17.5219  -17.4742 O   0  0  0  0  0  0  0  0  0  0  0  0
   20.7135  -16.0391  -17.2606 O   0  0  0  0  0  0  0  0  0  0  0  0
  1  2  1  0
  3  4  1  0
  3  2  1  0
  4  5  1  0
  5  1  1  0
  5  6  1  6
  7  6  2  0
  9 11  1  0
  9  8  1  0
 10  9  2  0
 12 11  1  6
 12 13  1  0
 12 14  1  0
 13  6  1  0
 14 16  1  0
 15 14  2  0
 16 17  1  0
 17 20  1  0
 17 18  1  1
 18 19  1  0
 20 21  2  0
 20 22  1  0
M  END
$$$$
