PNC.pdb
     RDKit          3D

 22 22  0  0  1  0  0  0  0  0999 V2000
   44.3585  -15.3457   -7.7390 N   0  0  0  0  0  0  0  0  0  0  0  0
   44.6812  -16.7636   -7.9669 C   0  0  0  0  0  0  0  0  0  0  0  0
   43.5725  -17.1899   -8.8868 C   0  0  0  0  0  0  0  0  0  0  0  0
   43.4431  -16.0033   -9.8199 C   0  0  0  0  0  0  0  0  0  0  0  0
   44.1365  -14.8860   -9.0708 C   0  0  1  0  0  0  0  0  0  0  0  0
   43.3484  -13.6246   -9.1240 C   0  0  0  0  0  0  0  0  0  0  0  0
   43.1612  -12.9769  -10.1691 O   0  0  0  0  0  0  0  0  0  0  0  0
   40.1478   -9.7554   -7.3883 N   0  0  0  0  0  0  0  0  0  0  0  0
   40.0756  -10.9179   -6.5537 C   0  0  0  0  0  0  0  0  0  0  0  0
   39.1219  -10.9209   -5.6996 O   0  0  0  0  0  0  0  0  0  0  0  0
   41.0347  -12.0276   -6.6756 C   0  0  0  0  0  0  0  0  0  0  0  0
   42.0190  -11.9187   -7.7908 C   0  0  2  0  0  0  0  0  0  0  0  0
   42.7737  -13.1230   -7.9206 N   0  0  0  0  0  0  0  0  0  0  0  0
   42.7856  -10.6639   -7.8313 C   0  0  0  0  0  0  0  0  0  0  0  0
   43.4679  -10.3850   -6.7914 O   0  0  0  0  0  0  0  0  0  0  0  0
   42.8459   -9.7388   -8.8854 N   0  0  0  0  0  0  0  0  0  0  0  0
   43.6383   -8.5050   -8.8089 C   0  0  1  0  0  0  0  0  0  0  0  0
   45.1123   -8.7632   -9.0255 C   0  0  0  0  0  0  0  0  0  0  0  0
   45.9406   -7.1515   -8.9923 S   0  0  0  0  0  0  0  0  0  0  0  0
   43.1271   -7.5523   -9.8063 C   0  0  0  0  0  0  0  0  0  0  0  0
   43.6039   -6.3828   -9.8670 O   0  0  0  0  0  0  0  0  0  0  0  0
   42.1173   -7.8456  -10.7291 O   0  0  0  0  0  0  0  0  0  0  0  0
  1  2  1  0
  3  4  1  0
  3  2  1  0
  4  5  1  0
  5  1  1  0
  5  6  1  1
  7  6  2  0
  9 11  1  0
  9  8  1  0
 10  9  2  0
 12 11  1  1
 12 13  1  0
 12 14  1  0
 13  6  1  0
 14 16  1  0
 15 14  2  0
 16 17  1  0
 17 20  1  0
 17 18  1  6
 18 19  1  0
 20 21  2  0
 20 22  1  0
M  END
$$$$
