PNC.pdb
     RDKit          3D

 22 22  0  0  1  0  0  0  0  0999 V2000
   29.8848  -20.7388   -9.9117 N   0  0  0  0  0  0  0  0  0  0  0  0
   31.2984  -20.9921   -9.5893 C   0  0  0  0  0  0  0  0  0  0  0  0
   31.5693  -22.2561  -10.3550 C   0  0  0  0  0  0  0  0  0  0  0  0
   30.8415  -22.0131  -11.6613 C   0  0  0  0  0  0  0  0  0  0  0  0
   29.8843  -20.8886  -11.3300 C   0  0  1  0  0  0  0  0  0  0  0  0
   28.5277  -21.1482  -11.8843 C   0  0  0  0  0  0  0  0  0  0  0  0
   28.3170  -21.4302  -13.0771 O   0  0  0  0  0  0  0  0  0  0  0  0
   25.9997  -19.5893   -9.0451 N   0  0  0  0  0  0  0  0  0  0  0  0
   25.2450  -20.8072   -9.0464 C   0  0  0  0  0  0  0  0  0  0  0  0
   24.5828  -21.0426   -7.9762 O   0  0  0  0  0  0  0  0  0  0  0  0
   25.2361  -21.7194  -10.2014 C   0  0  0  0  0  0  0  0  0  0  0  0
   26.0415  -21.2866  -11.3797 C   0  0  2  0  0  0  0  0  0  0  0  0
   27.4037  -21.0723  -11.0120 N   0  0  0  0  0  0  0  0  0  0  0  0
   25.4226  -20.2460  -12.2152 C   0  0  0  0  0  0  0  0  0  0  0  0
   25.9062  -19.0718  -12.1055 O   0  0  0  0  0  0  0  0  0  0  0  0
   24.3573  -20.4019  -13.1160 N   0  0  0  0  0  0  0  0  0  0  0  0
   24.0696  -19.4264  -14.1751 C   0  0  1  0  0  0  0  0  0  0  0  0
   25.2577  -19.2097  -15.0847 C   0  0  0  0  0  0  0  0  0  0  0  0
   24.7234  -18.0689  -16.3878 S   0  0  0  0  0  0  0  0  0  0  0  0
   22.9062  -19.8935  -14.9446 C   0  0  0  0  0  0  0  0  0  0  0  0
   22.6662  -21.1312  -15.0403 O   0  0  0  0  0  0  0  0  0  0  0  0
   22.0086  -19.0476  -15.6049 O   0  0  0  0  0  0  0  0  0  0  0  0
  1  2  1  0
  3  4  1  0
  3  2  1  0
  4  5  1  0
  5  1  1  0
  5  6  1  1
  7  6  2  0
  9 11  1  0
  9  8  1  0
 10  9  2  0
 12 11  1  1
 12 13  1  0
 12 14  1  0
 13  6  1  0
 14 16  1  0
 15 14  2  0
 16 17  1  0
 17 20  1  0
 17 18  1  6
 18 19  1  0
 20 21  2  0
 20 22  1  0
M  END
$$$$
