PNC.pdb
     RDKit          3D

 22 22  0  0  1  0  0  0  0  0999 V2000
   28.0322  -20.3304  -15.5892 N   0  0  0  0  0  0  0  0  0  0  0  0
   28.4626  -19.7708  -16.8808 C   0  0  0  0  0  0  0  0  0  0  0  0
   27.3088  -18.8740  -17.2299 C   0  0  0  0  0  0  0  0  0  0  0  0
   26.9698  -18.2383  -15.8971 C   0  0  0  0  0  0  0  0  0  0  0  0
   27.6288  -19.1551  -14.8893 C   0  0  1  0  0  0  0  0  0  0  0  0
   26.7231  -19.4453  -13.7445 C   0  0  0  0  0  0  0  0  0  0  0  0
   26.1200  -18.5640  -13.1071 O   0  0  0  0  0  0  0  0  0  0  0  0
   24.8718  -23.7494  -14.8706 N   0  0  0  0  0  0  0  0  0  0  0  0
   24.4874  -22.7160  -13.9555 C   0  0  0  0  0  0  0  0  0  0  0  0
   23.5807  -21.9179  -14.3798 O   0  0  0  0  0  0  0  0  0  0  0  0
   25.0967  -22.5873  -12.6220 C   0  0  0  0  0  0  0  0  0  0  0  0
   25.6774  -21.2526  -12.2970 C   0  0  2  0  0  0  0  0  0  0  0  0
   26.5293  -20.8003  -13.3489 N   0  0  0  0  0  0  0  0  0  0  0  0
   26.2023  -21.1123  -10.9300 C   0  0  0  0  0  0  0  0  0  0  0  0
   27.2910  -21.7251  -10.6773 O   0  0  0  0  0  0  0  0  0  0  0  0
   25.6359  -20.3822   -9.8732 N   0  0  0  0  0  0  0  0  0  0  0  0
   26.1448  -20.4596   -8.4981 C   0  0  1  0  0  0  0  0  0  0  0  0
   26.6612  -19.1255   -8.0084 C   0  0  0  0  0  0  0  0  0  0  0  0
   28.0392  -19.4736   -6.8839 S   0  0  0  0  0  0  0  0  0  0  0  0
   25.0695  -20.9518   -7.6231 C   0  0  0  0  0  0  0  0  0  0  0  0
   23.8807  -21.0053   -8.0502 O   0  0  0  0  0  0  0  0  0  0  0  0
   25.2621  -21.3821   -6.3060 O   0  0  0  0  0  0  0  0  0  0  0  0
  1  2  1  0
  3  4  1  0
  3  2  1  0
  4  5  1  0
  5  1  1  0
  5  6  1  1
  7  6  2  0
  9 11  1  0
  9  8  1  0
 10  9  2  0
 12 11  1  6
 12 13  1  0
 12 14  1  0
 13  6  1  0
 14 16  1  0
 15 14  2  0
 16 17  1  0
 17 20  1  0
 17 18  1  1
 18 19  1  0
 20 21  2  0
 20 22  1  0
M  END
$$$$
