PNC.pdb
     RDKit          3D

 22 22  0  0  1  0  0  0  0  0999 V2000
   27.0704  -19.9617  -17.5095 N   0  0  0  0  0  0  0  0  0  0  0  0
   27.6067  -19.4405  -18.7773 C   0  0  0  0  0  0  0  0  0  0  0  0
   27.5037  -17.9560  -18.5705 C   0  0  0  0  0  0  0  0  0  0  0  0
   27.9368  -17.7929  -17.1279 C   0  0  0  0  0  0  0  0  0  0  0  0
   27.7913  -19.1859  -16.5544 C   0  0  1  0  0  0  0  0  0  0  0  0
   27.1363  -19.1581  -15.2182 C   0  0  0  0  0  0  0  0  0  0  0  0
   27.5008  -18.4130  -14.2915 O   0  0  0  0  0  0  0  0  0  0  0  0
   23.7028  -18.2274  -15.3600 N   0  0  0  0  0  0  0  0  0  0  0  0
   23.0890  -19.4264  -14.8714 C   0  0  0  0  0  0  0  0  0  0  0  0
   21.8508  -19.5670  -15.1653 O   0  0  0  0  0  0  0  0  0  0  0  0
   23.8361  -20.4227  -14.0870 C   0  0  0  0  0  0  0  0  0  0  0  0
   25.2551  -20.0804  -13.7811 C   0  0  2  0  0  0  0  0  0  0  0  0
   26.0329  -20.0265  -14.9764 N   0  0  0  0  0  0  0  0  0  0  0  0
   25.8485  -20.8134  -12.6522 C   0  0  0  0  0  0  0  0  0  0  0  0
   25.9156  -22.0804  -12.7742 O   0  0  0  0  0  0  0  0  0  0  0  0
   26.3449  -20.2733  -11.4553 N   0  0  0  0  0  0  0  0  0  0  0  0
   26.7422  -21.1103  -10.3162 C   0  0  1  0  0  0  0  0  0  0  0  0
   28.1555  -20.8196   -9.8644 C   0  0  0  0  0  0  0  0  0  0  0  0
   29.2136  -20.9399  -11.3309 S   0  0  0  0  0  0  0  0  0  0  0  0
   25.7911  -20.8927   -9.2153 C   0  0  0  0  0  0  0  0  0  0  0  0
   24.8458  -20.0639   -9.3502 O   0  0  0  0  0  0  0  0  0  0  0  0
   25.8491  -21.5532   -7.9835 O   0  0  0  0  0  0  0  0  0  0  0  0
  1  2  1  0
  3  4  1  0
  3  2  1  0
  4  5  1  0
  5  1  1  0
  5  6  1  1
  7  6  2  0
  9 11  1  0
  9  8  1  0
 10  9  2  0
 12 11  1  6
 12 13  1  0
 12 14  1  0
 13  6  1  0
 14 16  1  0
 15 14  2  0
 16 17  1  0
 17 20  1  0
 17 18  1  1
 18 19  1  0
 20 21  2  0
 20 22  1  0
M  END
$$$$
