PNC.pdb
     RDKit          3D

 22 22  0  0  1  0  0  0  0  0999 V2000
   14.5890  -10.6166   -9.9641 N   0  0  0  0  0  0  0  0  0  0  0  0
   13.4715  -11.5713  -10.0431 C   0  0  0  0  0  0  0  0  0  0  0  0
   12.4230  -10.7630  -10.7535 C   0  0  0  0  0  0  0  0  0  0  0  0
   13.2277  -10.0342  -11.8101 C   0  0  0  0  0  0  0  0  0  0  0  0
   14.6510  -10.1382  -11.3062 C   0  0  1  0  0  0  0  0  0  0  0  0
   15.3662   -8.8384  -11.4250 C   0  0  0  0  0  0  0  0  0  0  0  0
   15.5562   -8.2570  -12.5079 O   0  0  0  0  0  0  0  0  0  0  0  0
   17.8653   -4.4452   -9.6703 N   0  0  0  0  0  0  0  0  0  0  0  0
   16.8464   -4.9123   -8.7777 C   0  0  0  0  0  0  0  0  0  0  0  0
   16.5303   -4.1044   -7.8362 O   0  0  0  0  0  0  0  0  0  0  0  0
   16.2115   -6.2304   -8.9384 C   0  0  0  0  0  0  0  0  0  0  0  0
   16.5666   -6.9777  -10.1793 C   0  0  2  0  0  0  0  0  0  0  0  0
   15.8641   -8.2183  -10.2428 N   0  0  0  0  0  0  0  0  0  0  0  0
   18.0029   -7.0274  -10.4931 C   0  0  0  0  0  0  0  0  0  0  0  0
   18.6742   -7.9482   -9.9220 O   0  0  0  0  0  0  0  0  0  0  0  0
   18.7160   -6.1720  -11.3476 N   0  0  0  0  0  0  0  0  0  0  0  0
   20.0838   -6.4633  -11.7951 C   0  0  1  0  0  0  0  0  0  0  0  0
   20.1958   -7.8352  -12.4207 C   0  0  0  0  0  0  0  0  0  0  0  0
   21.8874   -7.9905  -13.0526 S   0  0  0  0  0  0  0  0  0  0  0  0
   20.5009   -5.4235  -12.7483 C   0  0  0  0  0  0  0  0  0  0  0  0
   19.6391   -4.8426  -13.4684 O   0  0  0  0  0  0  0  0  0  0  0  0
   21.8244   -5.0085  -12.9304 O   0  0  0  0  0  0  0  0  0  0  0  0
  1  2  1  0
  3  4  1  0
  3  2  1  0
  4  5  1  0
  5  1  1  0
  5  6  1  1
  7  6  2  0
  9 11  1  0
  9  8  1  0
 10  9  2  0
 12 11  1  1
 12 13  1  0
 12 14  1  0
 13  6  1  0
 14 16  1  0
 15 14  2  0
 16 17  1  0
 17 20  1  0
 17 18  1  6
 18 19  1  0
 20 21  2  0
 20 22  1  0
M  END
$$$$
