PNC.pdb
     RDKit          3D

 22 22  0  0  1  0  0  0  0  0999 V2000
   27.6956  -19.7244  -17.5529 N   0  0  0  0  0  0  0  0  0  0  0  0
   28.5493  -19.2919  -18.6712 C   0  0  0  0  0  0  0  0  0  0  0  0
   28.2638  -17.8179  -18.7269 C   0  0  0  0  0  0  0  0  0  0  0  0
   28.2184  -17.4349  -17.2618 C   0  0  0  0  0  0  0  0  0  0  0  0
   28.0212  -18.7586  -16.5553 C   0  0  1  0  0  0  0  0  0  0  0  0
   26.9880  -18.6572  -15.4888 C   0  0  0  0  0  0  0  0  0  0  0  0
   27.0660  -17.8664  -14.5319 O   0  0  0  0  0  0  0  0  0  0  0  0
   21.3764  -18.6130  -14.4950 N   0  0  0  0  0  0  0  0  0  0  0  0
   22.2418  -19.7532  -14.5597 C   0  0  0  0  0  0  0  0  0  0  0  0
   21.8778  -20.7580  -13.8548 O   0  0  0  0  0  0  0  0  0  0  0  0
   23.4626  -19.7614  -15.3817 C   0  0  0  0  0  0  0  0  0  0  0  0
   24.7382  -19.4942  -14.6566 C   0  0  2  0  0  0  0  0  0  0  0  0
   25.8454  -19.5056  -15.5569 N   0  0  0  0  0  0  0  0  0  0  0  0
   24.9144  -20.2394  -13.4005 C   0  0  0  0  0  0  0  0  0  0  0  0
   25.4158  -21.4068  -13.5019 O   0  0  0  0  0  0  0  0  0  0  0  0
   24.5885  -19.8092  -12.1046 N   0  0  0  0  0  0  0  0  0  0  0  0
   24.8506  -20.6253  -10.9125 C   0  0  1  0  0  0  0  0  0  0  0  0
   25.9355  -20.0292  -10.0443 C   0  0  0  0  0  0  0  0  0  0  0  0
   26.1236  -21.1216   -8.6104 S   0  0  0  0  0  0  0  0  0  0  0  0
   23.5989  -20.7679  -10.1528 C   0  0  0  0  0  0  0  0  0  0  0  0
   22.6286  -19.9897  -10.3798 O   0  0  0  0  0  0  0  0  0  0  0  0
   23.3860  -21.7316   -9.1613 O   0  0  0  0  0  0  0  0  0  0  0  0
  1  2  1  0
  3  4  1  0
  3  2  1  0
  4  5  1  0
  5  1  1  0
  5  6  1  1
  7  6  2  0
  9 11  1  0
  9  8  1  0
 10  9  2  0
 12 11  1  6
 12 13  1  0
 12 14  1  0
 13  6  1  0
 14 16  1  0
 15 14  2  0
 16 17  1  0
 17 20  1  0
 17 18  1  1
 18 19  1  0
 20 21  2  0
 20 22  1  0
M  END
$$$$
