QYY.pdb
     RDKit          3D

 34 35  0  0  1  0  0  0  0  0999 V2000
   28.9201  -28.3572  -20.6072 N   0  0  0  0  0  0  0  0  0  0  0  0
   28.6756  -27.3806  -21.5738 C   0  0  0  0  0  0  0  0  0  0  0  0
   28.0742  -26.3339  -21.2159 O   0  0  0  0  0  0  0  0  0  0  0  0
   29.0743  -27.4855  -22.9963 C   0  0  0  0  0  0  0  0  0  0  0  0
   29.7838  -28.7752  -23.2985 C   0  0  0  0  0  0  0  0  0  0  0  0
   31.2775  -28.4658  -23.3236 C   0  0  2  0  0  0  0  0  0  0  0  0
   31.6576  -28.4618  -24.7244 N   0  0  0  0  0  0  0  0  0  0  0  0
   32.0622  -29.4096  -22.5239 C   0  0  0  0  0  0  0  0  0  0  0  0
   32.5087  -30.4500  -23.0520 O   0  0  0  0  0  0  0  0  0  0  0  0
   37.8866  -29.3564  -24.3684 O   0  0  0  0  0  0  0  0  0  0  0  0
   37.0287  -29.4300  -23.2664 C   0  0  0  0  0  0  0  0  0  0  0  0
   36.1333  -28.4056  -23.0722 C   0  0  0  0  0  0  0  0  0  0  0  0
   35.2791  -28.4575  -21.9964 C   0  0  0  0  0  0  0  0  0  0  0  0
   35.2881  -29.5167  -21.0911 C   0  0  0  0  0  0  0  0  0  0  0  0
   34.3874  -29.6119  -19.9311 C   0  0  0  0  0  0  0  0  0  0  0  0
   33.0174  -30.1235  -20.3108 C   0  0  2  0  0  0  0  0  0  0  0  0
   32.3252  -29.1625  -21.1585 N   0  0  0  0  0  0  0  0  0  0  0  0
   32.1948  -30.5074  -19.1450 C   0  0  0  0  0  0  0  0  0  0  0  0
   31.3291  -29.7068  -18.7275 O   0  0  0  0  0  0  0  0  0  0  0  0
   36.2070  -30.5357  -21.3181 C   0  0  0  0  0  0  0  0  0  0  0  0
   37.0618  -30.4873  -22.3909 C   0  0  0  0  0  0  0  0  0  0  0  0
   26.7715  -33.3455  -13.1654 O   0  0  0  0  0  0  0  0  0  0  0  0
   27.5763  -33.0454  -14.2390 C   0  0  0  0  0  0  0  0  0  0  0  0
   27.9007  -31.7354  -14.5260 C   0  0  0  0  0  0  0  0  0  0  0  0
   28.6995  -31.4564  -15.5942 C   0  0  0  0  0  0  0  0  0  0  0  0
   29.2283  -32.4409  -16.4443 C   0  0  0  0  0  0  0  0  0  0  0  0
   30.0707  -32.0528  -17.5936 C   0  0  0  0  0  0  0  0  0  0  0  0
   31.5286  -32.1260  -17.3050 C   0  0  2  0  0  0  0  0  0  0  0  0
   32.3288  -31.7464  -18.4636 N   0  0  0  0  0  0  0  0  0  0  0  0
   31.9102  -33.4908  -16.9093 C   0  0  0  0  0  0  0  0  0  0  0  0
   31.3868  -34.0439  -15.8851 O   0  0  0  0  0  0  0  0  0  0  0  0
   28.8845  -33.7314  -16.1286 C   0  0  0  0  0  0  0  0  0  0  0  0
   28.0726  -34.0488  -15.0467 C   0  0  0  0  0  0  0  0  0  0  0  0
   32.8359  -34.2362  -17.6112 O   0  0  0  0  0  0  0  0  0  0  0  0
  2  1  1  0
  3  2  2  0
  4  2  1  0
  5  4  1  0
  6  5  1  0
  6  7  1  6
  8  6  1  0
  8  9  2  0
 10 11  1  0
 11 12  2  0
 12 13  1  0
 14 13  2  0
 14 15  1  0
 16 17  1  0
 16 15  1  1
 17  8  1  0
 18 16  1  0
 19 18  2  0
 20 14  1  0
 21 11  1  0
 21 20  2  0
 23 22  1  0
 23 24  2  0
 25 24  1  0
 26 25  2  0
 28 27  1  6
 27 26  1  0
 28 29  1  0
 29 18  1  0
 30 28  1  0
 30 34  1  0
 31 30  2  0
 32 33  2  0
 32 26  1  0
 33 23  1  0
M  END
$$$$
