QYY.pdb
     RDKit          3D

 34 35  0  0  1  0  0  0  0  0999 V2000
   19.2769  -18.9955  -17.7862 N   0  0  0  0  0  0  0  0  0  0  0  0
   18.3996  -18.4718  -16.8354 C   0  0  0  0  0  0  0  0  0  0  0  0
   17.7160  -19.2809  -16.1547 O   0  0  0  0  0  0  0  0  0  0  0  0
   18.2134  -17.0273  -16.5668 C   0  0  0  0  0  0  0  0  0  0  0  0
   18.9956  -16.1631  -17.5152 C   0  0  0  0  0  0  0  0  0  0  0  0
   19.4336  -14.9284  -16.7334 C   0  0  2  0  0  0  0  0  0  0  0  0
   18.9028  -15.0992  -15.3934 N   0  0  0  0  0  0  0  0  0  0  0  0
   18.9985  -13.6791  -17.3626 C   0  0  0  0  0  0  0  0  0  0  0  0
   19.3836  -13.3982  -18.5174 O   0  0  0  0  0  0  0  0  0  0  0  0
   14.4314   -6.6900  -19.8409 O   0  0  0  0  0  0  0  0  0  0  0  0
   14.8680   -7.8649  -19.2208 C   0  0  0  0  0  0  0  0  0  0  0  0
   15.2128   -8.9297  -20.0183 C   0  0  0  0  0  0  0  0  0  0  0  0
   15.6462  -10.0943  -19.4307 C   0  0  0  0  0  0  0  0  0  0  0  0
   15.7494  -10.2351  -18.0482 C   0  0  0  0  0  0  0  0  0  0  0  0
   16.2134  -11.4621  -17.3811 C   0  0  0  0  0  0  0  0  0  0  0  0
   17.7190  -11.5172  -17.2672 C   0  0  2  0  0  0  0  0  0  0  0  0
   18.1458  -12.7813  -16.6832 N   0  0  0  0  0  0  0  0  0  0  0  0
   18.2911  -10.3651  -16.5402 C   0  0  0  0  0  0  0  0  0  0  0  0
   18.3568  -10.4116  -15.2919 O   0  0  0  0  0  0  0  0  0  0  0  0
   15.3923   -9.1379  -17.2717 C   0  0  0  0  0  0  0  0  0  0  0  0
   14.9587   -7.9735  -17.8549 C   0  0  0  0  0  0  0  0  0  0  0  0
   22.9522   -3.0111  -14.7640 O   0  0  0  0  0  0  0  0  0  0  0  0
   22.3890   -4.1327  -15.3254 C   0  0  0  0  0  0  0  0  0  0  0  0
   22.8362   -5.3903  -14.9756 C   0  0  0  0  0  0  0  0  0  0  0  0
   22.2666   -6.4910  -15.5422 C   0  0  0  0  0  0  0  0  0  0  0  0
   21.2266   -6.4274  -16.4835 C   0  0  0  0  0  0  0  0  0  0  0  0
   20.6770   -7.6686  -17.0654 C   0  0  0  0  0  0  0  0  0  0  0  0
   19.3722   -8.0682  -16.4723 C   0  0  2  0  0  0  0  0  0  0  0  0
   18.7783   -9.1954  -17.1819 N   0  0  0  0  0  0  0  0  0  0  0  0
   18.4205   -6.9467  -16.5114 C   0  0  0  0  0  0  0  0  0  0  0  0
   17.6872   -6.7481  -17.5368 O   0  0  0  0  0  0  0  0  0  0  0  0
   20.8082   -5.1611  -16.8073 C   0  0  0  0  0  0  0  0  0  0  0  0
   21.3680   -4.0194  -16.2475 C   0  0  0  0  0  0  0  0  0  0  0  0
   18.2685   -6.0647  -15.4605 O   0  0  0  0  0  0  0  0  0  0  0  0
  2  1  1  0
  3  2  2  0
  4  2  1  0
  5  4  1  0
  6  5  1  0
  6  7  1  1
  8  6  1  0
  8  9  2  0
 10 11  1  0
 11 12  2  0
 12 13  1  0
 14 13  2  0
 14 15  1  0
 16 17  1  0
 16 15  1  1
 17  8  1  0
 18 16  1  0
 19 18  2  0
 20 14  1  0
 21 11  1  0
 21 20  2  0
 23 22  1  0
 23 24  2  0
 25 24  1  0
 26 25  2  0
 28 27  1  6
 27 26  1  0
 28 29  1  0
 29 18  1  0
 30 28  1  0
 30 34  1  0
 31 30  2  0
 32 33  2  0
 32 26  1  0
 33 23  1  0
M  END
$$$$
