QYY.pdb
     RDKit          3D

 34 35  0  0  1  0  0  0  0  0999 V2000
   34.8827  -13.5482  -18.9531 N   0  0  0  0  0  0  0  0  0  0  0  0
   34.5245  -14.6354  -19.7516 C   0  0  0  0  0  0  0  0  0  0  0  0
   35.4350  -15.2192  -20.3961 O   0  0  0  0  0  0  0  0  0  0  0  0
   33.1455  -15.1556  -19.8964 C   0  0  0  0  0  0  0  0  0  0  0  0
   32.1694  -14.4478  -18.9995 C   0  0  0  0  0  0  0  0  0  0  0  0
   30.7963  -15.0559  -19.2689 C   0  0  2  0  0  0  0  0  0  0  0  0
   30.8360  -15.5321  -20.6393 N   0  0  0  0  0  0  0  0  0  0  0  0
   29.7037  -14.1106  -19.0265 C   0  0  0  0  0  0  0  0  0  0  0  0
   29.5382  -13.6321  -17.8845 O   0  0  0  0  0  0  0  0  0  0  0  0
   32.0170   -8.1944  -18.0758 O   0  0  0  0  0  0  0  0  0  0  0  0
   31.0892   -9.0083  -18.7334 C   0  0  0  0  0  0  0  0  0  0  0  0
   29.7535   -8.7980  -18.4881 C   0  0  0  0  0  0  0  0  0  0  0  0
   28.8234   -9.5852  -19.1245 C   0  0  0  0  0  0  0  0  0  0  0  0
   29.1879  -10.5938  -20.0141 C   0  0  0  0  0  0  0  0  0  0  0  0
   28.2237  -11.4539  -20.7188 C   0  0  0  0  0  0  0  0  0  0  0  0
   27.8414  -12.6696  -19.9071 C   0  0  2  0  0  0  0  0  0  0  0  0
   28.8293  -13.7277  -20.0674 N   0  0  0  0  0  0  0  0  0  0  0  0
   26.4762  -13.1562  -20.1939 C   0  0  0  0  0  0  0  0  0  0  0  0
   26.3050  -13.9447  -21.1498 O   0  0  0  0  0  0  0  0  0  0  0  0
   30.5479  -10.7790  -20.2386 C   0  0  0  0  0  0  0  0  0  0  0  0
   31.4795   -9.9952  -19.6048 C   0  0  0  0  0  0  0  0  0  0  0  0
   17.7388  -14.5893  -19.7780 O   0  0  0  0  0  0  0  0  0  0  0  0
   19.0626  -14.3587  -19.4873 C   0  0  0  0  0  0  0  0  0  0  0  0
   19.4966  -13.0906  -19.1596 C   0  0  0  0  0  0  0  0  0  0  0  0
   20.8125  -12.8801  -18.8746 C   0  0  0  0  0  0  0  0  0  0  0  0
   21.7812  -13.8964  -18.8927 C   0  0  0  0  0  0  0  0  0  0  0  0
   23.1919  -13.5807  -18.5902 C   0  0  0  0  0  0  0  0  0  0  0  0
   23.9695  -13.1595  -19.7869 C   0  0  2  0  0  0  0  0  0  0  0  0
   25.3337  -12.7792  -19.4389 N   0  0  0  0  0  0  0  0  0  0  0  0
   23.3256  -12.0119  -20.4452 C   0  0  0  0  0  0  0  0  0  0  0  0
   23.6384  -10.8164  -20.1263 O   0  0  0  0  0  0  0  0  0  0  0  0
   21.3136  -15.1436  -19.2228 C   0  0  0  0  0  0  0  0  0  0  0  0
   19.9787  -15.3909  -19.5184 C   0  0  0  0  0  0  0  0  0  0  0  0
   22.3673  -12.1609  -21.4275 O   0  0  0  0  0  0  0  0  0  0  0  0
  2  1  1  0
  3  2  2  0
  4  2  1  0
  5  4  1  0
  6  5  1  0
  6  7  1  6
  8  6  1  0
  8  9  2  0
 10 11  1  0
 11 12  2  0
 12 13  1  0
 14 13  2  0
 14 15  1  0
 16 17  1  0
 16 15  1  6
 17  8  1  0
 18 16  1  0
 19 18  2  0
 20 14  1  0
 21 11  1  0
 21 20  2  0
 23 22  1  0
 23 24  2  0
 25 24  1  0
 26 25  2  0
 28 27  1  1
 27 26  1  0
 28 29  1  0
 29 18  1  0
 30 28  1  0
 30 34  1  0
 31 30  2  0
 32 33  2  0
 32 26  1  0
 33 23  1  0
M  END
$$$$
