QYY.pdb
     RDKit          3D

 34 35  0  0  1  0  0  0  0  0999 V2000
   27.9291  -31.8945  -14.5204 N   0  0  0  0  0  0  0  0  0  0  0  0
   27.8950  -32.5729  -15.7396 C   0  0  0  0  0  0  0  0  0  0  0  0
   28.0352  -33.8241  -15.7225 O   0  0  0  0  0  0  0  0  0  0  0  0
   27.7043  -31.9261  -17.0581 C   0  0  0  0  0  0  0  0  0  0  0  0
   27.3920  -30.4611  -16.9374 C   0  0  0  0  0  0  0  0  0  0  0  0
   27.0555  -29.9611  -18.3390 C   0  0  2  0  0  0  0  0  0  0  0  0
   28.3295  -29.6880  -18.9785 N   0  0  0  0  0  0  0  0  0  0  0  0
   26.1655  -28.7976  -18.3239 C   0  0  0  0  0  0  0  0  0  0  0  0
   26.6005  -27.6877  -17.9504 O   0  0  0  0  0  0  0  0  0  0  0  0
   19.8580  -23.0471  -20.1100 O   0  0  0  0  0  0  0  0  0  0  0  0
   20.6677  -24.1870  -20.0831 C   0  0  0  0  0  0  0  0  0  0  0  0
   22.0075  -24.0372  -20.3502 C   0  0  0  0  0  0  0  0  0  0  0  0
   22.8228  -25.1437  -20.3279 C   0  0  0  0  0  0  0  0  0  0  0  0
   22.3376  -26.4184  -20.0427 C   0  0  0  0  0  0  0  0  0  0  0  0
   23.1777  -27.6261  -20.0039 C   0  0  0  0  0  0  0  0  0  0  0  0
   23.8935  -27.7831  -18.6826 C   0  0  2  0  0  0  0  0  0  0  0  0
   24.8166  -28.9088  -18.7272 N   0  0  0  0  0  0  0  0  0  0  0  0
   22.9745  -27.8826  -17.5300 C   0  0  0  0  0  0  0  0  0  0  0  0
   22.4065  -28.9738  -17.3036 O   0  0  0  0  0  0  0  0  0  0  0  0
   20.9772  -26.5332  -19.7774 C   0  0  0  0  0  0  0  0  0  0  0  0
   20.1598  -25.4308  -19.7991 C   0  0  0  0  0  0  0  0  0  0  0  0
   19.0161  -26.3826   -9.7634 O   0  0  0  0  0  0  0  0  0  0  0  0
   19.8381  -26.3287  -10.8642 C   0  0  0  0  0  0  0  0  0  0  0  0
   19.6917  -25.3239  -11.7985 C   0  0  0  0  0  0  0  0  0  0  0  0
   20.5151  -25.2860  -12.8836 C   0  0  0  0  0  0  0  0  0  0  0  0
   21.5300  -26.2274  -13.1192 C   0  0  0  0  0  0  0  0  0  0  0  0
   22.3673  -26.1264  -14.3316 C   0  0  0  0  0  0  0  0  0  0  0  0
   21.8350  -26.9081  -15.4804 C   0  0  2  0  0  0  0  0  0  0  0  0
   22.6960  -26.8010  -16.6526 N   0  0  0  0  0  0  0  0  0  0  0  0
   20.4920  -26.4348  -15.8509 C   0  0  0  0  0  0  0  0  0  0  0  0
   19.4494  -27.0614  -15.4649 O   0  0  0  0  0  0  0  0  0  0  0  0
   21.6459  -27.2116  -12.1699 C   0  0  0  0  0  0  0  0  0  0  0  0
   20.8224  -27.2779  -11.0528 C   0  0  0  0  0  0  0  0  0  0  0  0
   20.2881  -25.3068  -16.6199 O   0  0  0  0  0  0  0  0  0  0  0  0
  2  1  1  0
  3  2  2  0
  4  2  1  0
  5  4  1  0
  6  5  1  0
  6  7  1  1
  8  6  1  0
  8  9  2  0
 10 11  1  0
 11 12  2  0
 12 13  1  0
 14 13  2  0
 14 15  1  0
 16 17  1  0
 16 15  1  6
 17  8  1  0
 18 16  1  0
 19 18  2  0
 20 14  1  0
 21 11  1  0
 21 20  2  0
 23 22  1  0
 23 24  2  0
 25 24  1  0
 26 25  2  0
 28 27  1  1
 27 26  1  0
 28 29  1  0
 29 18  1  0
 30 28  1  0
 30 34  1  0
 31 30  2  0
 32 33  2  0
 32 26  1  0
 33 23  1  0
M  END
$$$$
