QYY.pdb
     RDKit          3D

 34 35  0  0  1  0  0  0  0  0999 V2000
   26.4351  -22.6991  -21.0343 N   0  0  0  0  0  0  0  0  0  0  0  0
   27.0092  -21.4633  -21.3360 C   0  0  0  0  0  0  0  0  0  0  0  0
   27.7140  -21.3785  -22.3760 O   0  0  0  0  0  0  0  0  0  0  0  0
   26.8489  -20.2384  -20.5192 C   0  0  0  0  0  0  0  0  0  0  0  0
   25.8708  -20.4248  -19.3937 C   0  0  0  0  0  0  0  0  0  0  0  0
   26.5319  -19.8734  -18.1340 C   0  0  2  0  0  0  0  0  0  0  0  0
   27.9591  -20.0575  -18.3229 N   0  0  0  0  0  0  0  0  0  0  0  0
   26.0334  -20.5084  -16.9116 C   0  0  0  0  0  0  0  0  0  0  0  0
   25.0064  -21.2185  -16.9550 O   0  0  0  0  0  0  0  0  0  0  0  0
   24.6614  -21.0674   -8.1971 O   0  0  0  0  0  0  0  0  0  0  0  0
   25.2578  -20.9640   -9.4577 C   0  0  0  0  0  0  0  0  0  0  0  0
   25.7517  -19.7408   -9.8432 C   0  0  0  0  0  0  0  0  0  0  0  0
   26.3436  -19.6160  -11.0775 C   0  0  0  0  0  0  0  0  0  0  0  0
   26.4618  -20.6905  -11.9567 C   0  0  0  0  0  0  0  0  0  0  0  0
   27.0926  -20.5994  -13.2832 C   0  0  0  0  0  0  0  0  0  0  0  0
   26.0823  -20.6787  -14.4039 C   0  0  2  0  0  0  0  0  0  0  0  0
   26.6973  -20.3317  -15.6777 N   0  0  0  0  0  0  0  0  0  0  0  0
   24.8685  -19.8747  -14.1525 C   0  0  0  0  0  0  0  0  0  0  0  0
   24.9723  -18.6298  -14.0867 O   0  0  0  0  0  0  0  0  0  0  0  0
   25.9512  -21.9133  -11.5343 C   0  0  0  0  0  0  0  0  0  0  0  0
   25.3592  -22.0417  -10.3027 C   0  0  0  0  0  0  0  0  0  0  0  0
   20.0367  -21.6181  -19.1170 O   0  0  0  0  0  0  0  0  0  0  0  0
   20.4916  -20.9339  -18.0147 C   0  0  0  0  0  0  0  0  0  0  0  0
   19.8093  -21.0026  -16.8175 C   0  0  0  0  0  0  0  0  0  0  0  0
   20.2745  -20.3176  -15.7351 C   0  0  0  0  0  0  0  0  0  0  0  0
   21.4338  -19.5257  -15.7592 C   0  0  0  0  0  0  0  0  0  0  0  0
   21.8597  -18.7987  -14.5462 C   0  0  0  0  0  0  0  0  0  0  0  0
   22.4227  -19.6886  -13.4949 C   0  0  2  0  0  0  0  0  0  0  0  0
   23.5757  -20.4375  -13.9811 N   0  0  0  0  0  0  0  0  0  0  0  0
   21.4096  -20.6510  -13.0342 C   0  0  0  0  0  0  0  0  0  0  0  0
   21.6223  -21.9074  -13.1063 O   0  0  0  0  0  0  0  0  0  0  0  0
   22.0857  -19.4807  -16.9659 C   0  0  0  0  0  0  0  0  0  0  0  0
   21.6374  -20.1674  -18.0875 C   0  0  0  0  0  0  0  0  0  0  0  0
   20.1967  -20.2570  -12.5062 O   0  0  0  0  0  0  0  0  0  0  0  0
  2  1  1  0
  3  2  2  0
  4  2  1  0
  5  4  1  0
  6  5  1  0
  6  7  1  6
  8  6  1  0
  8  9  2  0
 10 11  1  0
 11 12  2  0
 12 13  1  0
 14 13  2  0
 14 15  1  0
 16 17  1  0
 16 15  1  1
 17  8  1  0
 18 16  1  0
 19 18  2  0
 20 14  1  0
 21 11  1  0
 21 20  2  0
 23 22  1  0
 23 24  2  0
 25 24  1  0
 26 25  2  0
 28 27  1  6
 27 26  1  0
 28 29  1  0
 29 18  1  0
 30 28  1  0
 30 34  1  0
 31 30  2  0
 32 33  2  0
 32 26  1  0
 33 23  1  0
M  END
$$$$
