QYY.pdb
     RDKit          3D

 34 35  0  0  1  0  0  0  0  0999 V2000
   21.9540  -12.9036  -23.3167 N   0  0  0  0  0  0  0  0  0  0  0  0
   20.8891  -13.3698  -22.5442 C   0  0  0  0  0  0  0  0  0  0  0  0
   19.7889  -13.5770  -23.1203 O   0  0  0  0  0  0  0  0  0  0  0  0
   20.9589  -13.6405  -21.0898 C   0  0  0  0  0  0  0  0  0  0  0  0
   22.3180  -13.3504  -20.5181 C   0  0  0  0  0  0  0  0  0  0  0  0
   22.2450  -13.6496  -19.0238 C   0  0  2  0  0  0  0  0  0  0  0  0
   21.4107  -14.8305  -18.8967 N   0  0  0  0  0  0  0  0  0  0  0  0
   21.7455  -12.5137  -18.2452 C   0  0  0  0  0  0  0  0  0  0  0  0
   20.5211  -12.2665  -18.2226 O   0  0  0  0  0  0  0  0  0  0  0  0
   21.4572   -5.4647  -12.9611 O   0  0  0  0  0  0  0  0  0  0  0  0
   21.8614   -6.6246  -13.6296 C   0  0  0  0  0  0  0  0  0  0  0  0
   21.3604   -7.8296  -13.1985 C   0  0  0  0  0  0  0  0  0  0  0  0
   21.7427   -8.9827  -13.8416 C   0  0  0  0  0  0  0  0  0  0  0  0
   22.6244   -8.9742  -14.9206 C   0  0  0  0  0  0  0  0  0  0  0  0
   23.0538  -10.1850  -15.6385 C   0  0  0  0  0  0  0  0  0  0  0  0
   22.1856  -10.4759  -16.8403 C   0  0  2  0  0  0  0  0  0  0  0  0
   22.6286  -11.6885  -17.5147 N   0  0  0  0  0  0  0  0  0  0  0  0
   22.0900   -9.3391  -17.7792 C   0  0  0  0  0  0  0  0  0  0  0  0
   23.0382   -9.1252  -18.5664 O   0  0  0  0  0  0  0  0  0  0  0  0
   23.1119   -7.7377  -15.3300 C   0  0  0  0  0  0  0  0  0  0  0  0
   22.7327   -6.5841  -14.6902 C   0  0  0  0  0  0  0  0  0  0  0  0
   14.7504   -9.0012  -18.8927 O   0  0  0  0  0  0  0  0  0  0  0  0
   16.0489   -8.6232  -19.1403 C   0  0  0  0  0  0  0  0  0  0  0  0
   16.9430   -9.5139  -19.6980 C   0  0  0  0  0  0  0  0  0  0  0  0
   18.2263   -9.1223  -19.9363 C   0  0  0  0  0  0  0  0  0  0  0  0
   18.7110   -7.8373  -19.6439 C   0  0  0  0  0  0  0  0  0  0  0  0
   20.1227   -7.4985  -19.9151 C   0  0  0  0  0  0  0  0  0  0  0  0
   20.9207   -7.2724  -18.6798 C   0  0  2  0  0  0  0  0  0  0  0  0
   20.9716   -8.4658  -17.8430 N   0  0  0  0  0  0  0  0  0  0  0  0
   20.3445   -6.1768  -17.8844 C   0  0  0  0  0  0  0  0  0  0  0  0
   20.2439   -5.0007  -18.3697 O   0  0  0  0  0  0  0  0  0  0  0  0
   17.7945   -6.9790  -19.0903 C   0  0  0  0  0  0  0  0  0  0  0  0
   16.4794   -7.3475  -18.8352 C   0  0  0  0  0  0  0  0  0  0  0  0
   19.8869   -6.3564  -16.5946 O   0  0  0  0  0  0  0  0  0  0  0  0
  2  1  1  0
  3  2  2  0
  4  2  1  0
  5  4  1  0
  6  5  1  0
  6  7  1  6
  8  6  1  0
  8  9  2  0
 10 11  1  0
 11 12  2  0
 12 13  1  0
 14 13  2  0
 14 15  1  0
 16 17  1  0
 16 15  1  1
 17  8  1  0
 18 16  1  0
 19 18  2  0
 20 14  1  0
 21 11  1  0
 21 20  2  0
 23 22  1  0
 23 24  2  0
 25 24  1  0
 26 25  2  0
 28 27  1  6
 27 26  1  0
 28 29  1  0
 29 18  1  0
 30 28  1  0
 30 34  1  0
 31 30  2  0
 32 33  2  0
 32 26  1  0
 33 23  1  0
M  END
$$$$
