QYY.pdb
     RDKit          3D

 34 35  0  0  1  0  0  0  0  0999 V2000
   22.6102  -11.6231  -23.5194 N   0  0  0  0  0  0  0  0  0  0  0  0
   23.9093  -11.7504  -23.0254 C   0  0  0  0  0  0  0  0  0  0  0  0
   24.8501  -11.8439  -23.8570 O   0  0  0  0  0  0  0  0  0  0  0  0
   24.2642  -11.7831  -21.5879 C   0  0  0  0  0  0  0  0  0  0  0  0
   23.3029  -10.9957  -20.7429 C   0  0  0  0  0  0  0  0  0  0  0  0
   24.1326  -10.0060  -19.9305 C   0  0  2  0  0  0  0  0  0  0  0  0
   25.2934  -10.7460  -19.4707 N   0  0  0  0  0  0  0  0  0  0  0  0
   23.3731   -9.4004  -18.8339 C   0  0  0  0  0  0  0  0  0  0  0  0
   22.2828   -8.8381  -19.0698 O   0  0  0  0  0  0  0  0  0  0  0  0
   20.8690  -14.9109  -16.1325 O   0  0  0  0  0  0  0  0  0  0  0  0
   21.4534  -13.6623  -15.8981 C   0  0  0  0  0  0  0  0  0  0  0  0
   20.7126  -12.5377  -16.1726 C   0  0  0  0  0  0  0  0  0  0  0  0
   21.2661  -11.2996  -15.9485 C   0  0  0  0  0  0  0  0  0  0  0  0
   22.5579  -11.1425  -15.4503 C   0  0  0  0  0  0  0  0  0  0  0  0
   23.1842   -9.8361  -15.1921 C   0  0  0  0  0  0  0  0  0  0  0  0
   23.0925   -8.9119  -16.3839 C   0  0  2  0  0  0  0  0  0  0  0  0
   23.8540   -9.4418  -17.5067 N   0  0  0  0  0  0  0  0  0  0  0  0
   23.4826   -7.5209  -16.0742 C   0  0  0  0  0  0  0  0  0  0  0  0
   24.6979   -7.2256  -16.0527 O   0  0  0  0  0  0  0  0  0  0  0  0
   23.2790  -12.3016  -15.1839 C   0  0  0  0  0  0  0  0  0  0  0  0
   22.7298  -13.5396  -15.4067 C   0  0  0  0  0  0  0  0  0  0  0  0
   17.8500   -4.0557  -19.3318 O   0  0  0  0  0  0  0  0  0  0  0  0
   19.0792   -4.1039  -18.7178 C   0  0  0  0  0  0  0  0  0  0  0  0
   20.0714   -4.9317  -19.2017 C   0  0  0  0  0  0  0  0  0  0  0  0
   21.2837   -4.9669  -18.5805 C   0  0  0  0  0  0  0  0  0  0  0  0
   21.5977   -4.1952  -17.4502 C   0  0  0  0  0  0  0  0  0  0  0  0
   22.9306   -4.3068  -16.8239 C   0  0  0  0  0  0  0  0  0  0  0  0
   22.9232   -5.0970  -15.5631 C   0  0  2  0  0  0  0  0  0  0  0  0
   22.5489   -6.4867  -15.7983 N   0  0  0  0  0  0  0  0  0  0  0  0
   21.9742   -4.5218  -14.5970 C   0  0  0  0  0  0  0  0  0  0  0  0
   20.9560   -5.1857  -14.2077 O   0  0  0  0  0  0  0  0  0  0  0  0
   20.5873   -3.3846  -16.9970 C   0  0  0  0  0  0  0  0  0  0  0  0
   19.3408   -3.3258  -17.6080 C   0  0  0  0  0  0  0  0  0  0  0  0
   22.1298   -3.2574  -14.0658 O   0  0  0  0  0  0  0  0  0  0  0  0
  2  1  1  0
  3  2  2  0
  4  2  1  0
  5  4  1  0
  6  5  1  0
  6  7  1  1
  8  6  1  0
  8  9  2  0
 10 11  1  0
 11 12  2  0
 12 13  1  0
 14 13  2  0
 14 15  1  0
 16 17  1  0
 16 15  1  1
 17  8  1  0
 18 16  1  0
 19 18  2  0
 20 14  1  0
 21 11  1  0
 21 20  2  0
 23 22  1  0
 23 24  2  0
 25 24  1  0
 26 25  2  0
 28 27  1  6
 27 26  1  0
 28 29  1  0
 29 18  1  0
 30 28  1  0
 30 34  1  0
 31 30  2  0
 32 33  2  0
 32 26  1  0
 33 23  1  0
M  END
$$$$
