QYY.pdb
     RDKit          3D

 34 35  0  0  1  0  0  0  0  0999 V2000
   30.8460  -17.0981  -20.2774 N   0  0  0  0  0  0  0  0  0  0  0  0
   30.6957  -18.3851  -19.7589 C   0  0  0  0  0  0  0  0  0  0  0  0
   30.6736  -19.3486  -20.5691 O   0  0  0  0  0  0  0  0  0  0  0  0
   30.5606  -18.7022  -18.3185 C   0  0  0  0  0  0  0  0  0  0  0  0
   29.3924  -18.0007  -17.6850 C   0  0  0  0  0  0  0  0  0  0  0  0
   28.1784  -18.9071  -17.8652 C   0  0  2  0  0  0  0  0  0  0  0  0
   27.4750  -18.4001  -19.0291 N   0  0  0  0  0  0  0  0  0  0  0  0
   27.3338  -18.9624  -16.6695 C   0  0  0  0  0  0  0  0  0  0  0  0
   27.5920  -18.2285  -15.6921 O   0  0  0  0  0  0  0  0  0  0  0  0
   20.3823  -20.4315  -11.4673 O   0  0  0  0  0  0  0  0  0  0  0  0
   21.2549  -20.3691  -12.5584 C   0  0  0  0  0  0  0  0  0  0  0  0
   21.4949  -19.1414  -13.1275 C   0  0  0  0  0  0  0  0  0  0  0  0
   22.3503  -19.0559  -14.2000 C   0  0  0  0  0  0  0  0  0  0  0  0
   22.9865  -20.1747  -14.7340 C   0  0  0  0  0  0  0  0  0  0  0  0
   23.9122  -20.1245  -15.8769 C   0  0  0  0  0  0  0  0  0  0  0  0
   25.3405  -19.8847  -15.4464 C   0  0  2  0  0  0  0  0  0  0  0  0
   26.2257  -19.8354  -16.6019 N   0  0  0  0  0  0  0  0  0  0  0  0
   25.8172  -20.8568  -14.4409 C   0  0  0  0  0  0  0  0  0  0  0  0
   26.1862  -21.9890  -14.8238 O   0  0  0  0  0  0  0  0  0  0  0  0
   22.7206  -21.4008  -14.1337 C   0  0  0  0  0  0  0  0  0  0  0  0
   21.8667  -21.4903  -13.0627 C   0  0  0  0  0  0  0  0  0  0  0  0
   27.2935  -18.9704   -6.2475 O   0  0  0  0  0  0  0  0  0  0  0  0
   27.3235  -19.5547   -7.4917 C   0  0  0  0  0  0  0  0  0  0  0  0
   28.4957  -20.0890   -7.9859 C   0  0  0  0  0  0  0  0  0  0  0  0
   28.5073  -20.6642   -9.2212 C   0  0  0  0  0  0  0  0  0  0  0  0
   27.3741  -20.7512  -10.0459 C   0  0  0  0  0  0  0  0  0  0  0  0
   27.4757  -21.3736  -11.3814 C   0  0  0  0  0  0  0  0  0  0  0  0
   26.1549  -21.5872  -12.0323 C   0  0  2  0  0  0  0  0  0  0  0  0
   25.8840  -20.5782  -13.0498 N   0  0  0  0  0  0  0  0  0  0  0  0
   25.0729  -21.5387  -11.0363 C   0  0  0  0  0  0  0  0  0  0  0  0
   24.3225  -20.5112  -10.9373 O   0  0  0  0  0  0  0  0  0  0  0  0
   26.2272  -20.2095   -9.5220 C   0  0  0  0  0  0  0  0  0  0  0  0
   26.1826  -19.6164   -8.2663 C   0  0  0  0  0  0  0  0  0  0  0  0
   24.8122  -22.5824  -10.1715 O   0  0  0  0  0  0  0  0  0  0  0  0
  2  1  1  0
  3  2  2  0
  4  2  1  0
  5  4  1  0
  6  5  1  0
  6  7  1  6
  8  6  1  0
  8  9  2  0
 10 11  1  0
 11 12  2  0
 12 13  1  0
 14 13  2  0
 14 15  1  0
 16 17  1  0
 16 15  1  6
 17  8  1  0
 18 16  1  0
 19 18  2  0
 20 14  1  0
 21 11  1  0
 21 20  2  0
 23 22  1  0
 23 24  2  0
 25 24  1  0
 26 25  2  0
 28 27  1  1
 27 26  1  0
 28 29  1  0
 29 18  1  0
 30 28  1  0
 30 34  1  0
 31 30  2  0
 32 33  2  0
 32 26  1  0
 33 23  1  0
M  END
$$$$
