QYY.pdb
     RDKit          3D

 34 35  0  0  1  0  0  0  0  0999 V2000
   24.5483  -19.6859  -20.7928 N   0  0  0  0  0  0  0  0  0  0  0  0
   25.9133  -19.9372  -20.9388 C   0  0  0  0  0  0  0  0  0  0  0  0
   26.4703  -19.5673  -22.0057 O   0  0  0  0  0  0  0  0  0  0  0  0
   26.7588  -20.6097  -19.9258 C   0  0  0  0  0  0  0  0  0  0  0  0
   26.0221  -20.8606  -18.6404 C   0  0  0  0  0  0  0  0  0  0  0  0
   27.0047  -21.5369  -17.6893 C   0  0  2  0  0  0  0  0  0  0  0  0
   27.3907  -22.7780  -18.3353 N   0  0  0  0  0  0  0  0  0  0  0  0
   26.4439  -21.7424  -16.3516 C   0  0  0  0  0  0  0  0  0  0  0  0
   25.5653  -22.6124  -16.1734 O   0  0  0  0  0  0  0  0  0  0  0  0
   24.7302  -20.6309   -7.7559 O   0  0  0  0  0  0  0  0  0  0  0  0
   25.3414  -20.6281   -9.0137 C   0  0  0  0  0  0  0  0  0  0  0  0
   25.5578  -21.8361   -9.6322 C   0  0  0  0  0  0  0  0  0  0  0  0
   26.1558  -21.8575  -10.8698 C   0  0  0  0  0  0  0  0  0  0  0  0
   26.5524  -20.6926  -11.5234 C   0  0  0  0  0  0  0  0  0  0  0  0
   27.1904  -20.6727  -12.8495 C   0  0  0  0  0  0  0  0  0  0  0  0
   26.2197  -21.0119  -13.9566 C   0  0  2  0  0  0  0  0  0  0  0  0
   26.8818  -20.9702  -15.2532 N   0  0  0  0  0  0  0  0  0  0  0  0
   25.0037  -20.1728  -13.9431 C   0  0  0  0  0  0  0  0  0  0  0  0
   25.1237  -18.9343  -14.0706 O   0  0  0  0  0  0  0  0  0  0  0  0
   26.3184  -19.4881  -10.8685 C   0  0  0  0  0  0  0  0  0  0  0  0
   25.7218  -19.4628   -9.6326 C   0  0  0  0  0  0  0  0  0  0  0  0
   21.0091  -20.8833  -19.5016 O   0  0  0  0  0  0  0  0  0  0  0  0
   21.3126  -20.3885  -18.2553 C   0  0  0  0  0  0  0  0  0  0  0  0
   20.4240  -20.5324  -17.2096 C   0  0  0  0  0  0  0  0  0  0  0  0
   20.7411  -20.0354  -15.9810 C   0  0  0  0  0  0  0  0  0  0  0  0
   21.9452  -19.3691  -15.7021 C   0  0  0  0  0  0  0  0  0  0  0  0
   22.2039  -18.8426  -14.3467 C   0  0  0  0  0  0  0  0  0  0  0  0
   22.5468  -19.9022  -13.3601 C   0  0  2  0  0  0  0  0  0  0  0  0
   23.6913  -20.6951  -13.7940 N   0  0  0  0  0  0  0  0  0  0  0  0
   21.4071  -20.8108  -13.1588 C   0  0  0  0  0  0  0  0  0  0  0  0
   21.5234  -22.0626  -13.3786 O   0  0  0  0  0  0  0  0  0  0  0  0
   22.8039  -19.2444  -16.7653 C   0  0  0  0  0  0  0  0  0  0  0  0
   22.5101  -19.7400  -18.0297 C   0  0  0  0  0  0  0  0  0  0  0  0
   20.1726  -20.3693  -12.7271 O   0  0  0  0  0  0  0  0  0  0  0  0
  2  1  1  0
  3  2  2  0
  4  2  1  0
  5  4  1  0
  6  5  1  0
  6  7  1  6
  8  6  1  0
  8  9  2  0
 10 11  1  0
 11 12  2  0
 12 13  1  0
 14 13  2  0
 14 15  1  0
 16 17  1  0
 16 15  1  1
 17  8  1  0
 18 16  1  0
 19 18  2  0
 20 14  1  0
 21 11  1  0
 21 20  2  0
 23 22  1  0
 23 24  2  0
 25 24  1  0
 26 25  2  0
 28 27  1  6
 27 26  1  0
 28 29  1  0
 29 18  1  0
 30 28  1  0
 30 34  1  0
 31 30  2  0
 32 33  2  0
 32 26  1  0
 33 23  1  0
M  END
$$$$
