QYY.pdb
     RDKit          3D

 34 35  0  0  1  0  0  0  0  0999 V2000
   27.7906  -20.0363  -20.8026 N   0  0  0  0  0  0  0  0  0  0  0  0
   28.9359  -20.8039  -21.0196 C   0  0  0  0  0  0  0  0  0  0  0  0
   29.7141  -20.4536  -21.9453 O   0  0  0  0  0  0  0  0  0  0  0  0
   29.3050  -22.0056  -20.2366 C   0  0  0  0  0  0  0  0  0  0  0  0
   28.2727  -22.3540  -19.2017 C   0  0  0  0  0  0  0  0  0  0  0  0
   28.9871  -22.3858  -17.8539 C   0  0  2  0  0  0  0  0  0  0  0  0
   29.8605  -23.5442  -17.8960 N   0  0  0  0  0  0  0  0  0  0  0  0
   28.0564  -22.4158  -16.7231 C   0  0  0  0  0  0  0  0  0  0  0  0
   27.1345  -23.2586  -16.6996 O   0  0  0  0  0  0  0  0  0  0  0  0
   24.0210  -20.1853   -9.1853 O   0  0  0  0  0  0  0  0  0  0  0  0
   24.9323  -20.2653  -10.2431 C   0  0  0  0  0  0  0  0  0  0  0  0
   25.7965  -21.3334  -10.2752 C   0  0  0  0  0  0  0  0  0  0  0  0
   26.6999  -21.4335  -11.3063 C   0  0  0  0  0  0  0  0  0  0  0  0
   26.7716  -20.4862  -12.3258 C   0  0  0  0  0  0  0  0  0  0  0  0
   27.7199  -20.5599  -13.4487 C   0  0  0  0  0  0  0  0  0  0  0  0
   27.2023  -21.4179  -14.5795 C   0  0  2  0  0  0  0  0  0  0  0  0
   28.1838  -21.5040  -15.6521 N   0  0  0  0  0  0  0  0  0  0  0  0
   25.8845  -20.9820  -15.0860 C   0  0  0  0  0  0  0  0  0  0  0  0
   25.8341  -20.0289  -15.8946 O   0  0  0  0  0  0  0  0  0  0  0  0
   25.8825  -19.4186  -12.2616 C   0  0  0  0  0  0  0  0  0  0  0  0
   24.9792  -19.3151  -11.2334 C   0  0  0  0  0  0  0  0  0  0  0  0
   17.5656  -19.6579  -17.3621 O   0  0  0  0  0  0  0  0  0  0  0  0
   18.8391  -20.1123  -17.1130 C   0  0  0  0  0  0  0  0  0  0  0  0
   19.0455  -21.2001  -16.2896 C   0  0  0  0  0  0  0  0  0  0  0  0
   20.3145  -21.6368  -16.0535 C   0  0  0  0  0  0  0  0  0  0  0  0
   21.4562  -21.0364  -16.6083 C   0  0  0  0  0  0  0  0  0  0  0  0
   22.7992  -21.5595  -16.2859 C   0  0  0  0  0  0  0  0  0  0  0  0
   23.3466  -21.0268  -15.0090 C   0  0  2  0  0  0  0  0  0  0  0  0
   24.6578  -21.5889  -14.7065 N   0  0  0  0  0  0  0  0  0  0  0  0
   22.4435  -21.3364  -13.8894 C   0  0  0  0  0  0  0  0  0  0  0  0
   21.2943  -20.7876  -13.8066 O   0  0  0  0  0  0  0  0  0  0  0  0
   21.2127  -19.9579  -17.4212 C   0  0  0  0  0  0  0  0  0  0  0  0
   19.9312  -19.4884  -17.6818 C   0  0  0  0  0  0  0  0  0  0  0  0
   22.7810  -22.2224  -12.8862 O   0  0  0  0  0  0  0  0  0  0  0  0
  2  1  1  0
  3  2  2  0
  4  2  1  0
  5  4  1  0
  6  5  1  0
  6  7  1  6
  8  6  1  0
  8  9  2  0
 10 11  1  0
 11 12  2  0
 12 13  1  0
 14 13  2  0
 14 15  1  0
 16 17  1  0
 16 15  1  1
 17  8  1  0
 18 16  1  0
 19 18  2  0
 20 14  1  0
 21 11  1  0
 21 20  2  0
 23 22  1  0
 23 24  2  0
 25 24  1  0
 26 25  2  0
 28 27  1  6
 27 26  1  0
 28 29  1  0
 29 18  1  0
 30 28  1  0
 30 34  1  0
 31 30  2  0
 32 33  2  0
 32 26  1  0
 33 23  1  0
M  END
$$$$
