QYY.pdb
     RDKit          3D

 34 35  0  0  1  0  0  0  0  0999 V2000
   21.6346   -7.1647  -19.3365 N   0  0  0  0  0  0  0  0  0  0  0  0
   22.4073   -7.9276  -20.2133 C   0  0  0  0  0  0  0  0  0  0  0  0
   23.2139   -7.3227  -20.9677 O   0  0  0  0  0  0  0  0  0  0  0  0
   22.3484   -9.4035  -20.3215 C   0  0  0  0  0  0  0  0  0  0  0  0
   21.2772   -9.9990  -19.4520 C   0  0  0  0  0  0  0  0  0  0  0  0
   21.9175  -10.2988  -18.1000 C   0  0  2  0  0  0  0  0  0  0  0  0
   22.1488  -11.7315  -18.0804 N   0  0  0  0  0  0  0  0  0  0  0  0
   21.1000   -9.8391  -16.9747 C   0  0  0  0  0  0  0  0  0  0  0  0
   20.0176  -10.4085  -16.7199 O   0  0  0  0  0  0  0  0  0  0  0  0
   18.4824   -5.7452   -9.6413 O   0  0  0  0  0  0  0  0  0  0  0  0
   19.2421   -6.2762  -10.6885 C   0  0  0  0  0  0  0  0  0  0  0  0
   19.3340   -7.6433  -10.7947 C   0  0  0  0  0  0  0  0  0  0  0  0
   20.0742   -8.1876  -11.8171 C   0  0  0  0  0  0  0  0  0  0  0  0
   20.7381   -7.3993  -12.7549 C   0  0  0  0  0  0  0  0  0  0  0  0
   21.5356   -7.9427  -13.8660 C   0  0  0  0  0  0  0  0  0  0  0  0
   20.6944   -8.2275  -15.0884 C   0  0  2  0  0  0  0  0  0  0  0  0
   21.5164   -8.7576  -16.1675 N   0  0  0  0  0  0  0  0  0  0  0  0
   19.9013   -7.0634  -15.5343 C   0  0  0  0  0  0  0  0  0  0  0  0
   20.4808   -6.1347  -16.1397 O   0  0  0  0  0  0  0  0  0  0  0  0
   20.6237   -6.0200  -12.6172 C   0  0  0  0  0  0  0  0  0  0  0  0
   19.8858   -5.4728  -11.5974 C   0  0  0  0  0  0  0  0  0  0  0  0
   13.1617   -9.8331  -13.8230 O   0  0  0  0  0  0  0  0  0  0  0  0
   13.9678   -8.9261  -14.4693 C   0  0  0  0  0  0  0  0  0  0  0  0
   14.9445   -9.3563  -15.3438 C   0  0  0  0  0  0  0  0  0  0  0  0
   15.7347   -8.4433  -15.9754 C   0  0  0  0  0  0  0  0  0  0  0  0
   15.6167   -7.0564  -15.7898 C   0  0  0  0  0  0  0  0  0  0  0  0
   16.5267   -6.1340  -16.4984 C   0  0  0  0  0  0  0  0  0  0  0  0
   17.7263   -5.7631  -15.7000 C   0  0  2  0  0  0  0  0  0  0  0  0
   18.5037   -6.9355  -15.3157 N   0  0  0  0  0  0  0  0  0  0  0  0
   17.3325   -5.0501  -14.4747 C   0  0  0  0  0  0  0  0  0  0  0  0
   17.5134   -5.5766  -13.3262 O   0  0  0  0  0  0  0  0  0  0  0  0
   14.6356   -6.6656  -14.9134 C   0  0  0  0  0  0  0  0  0  0  0  0
   13.8138   -7.5713  -14.2540 C   0  0  0  0  0  0  0  0  0  0  0  0
   16.7586   -3.7949  -14.4976 O   0  0  0  0  0  0  0  0  0  0  0  0
  2  1  1  0
  3  2  2  0
  4  2  1  0
  5  4  1  0
  6  5  1  0
  6  7  1  1
  8  6  1  0
  8  9  2  0
 10 11  1  0
 11 12  2  0
 12 13  1  0
 14 13  2  0
 14 15  1  0
 16 17  1  0
 16 15  1  1
 17  8  1  0
 18 16  1  0
 19 18  2  0
 20 14  1  0
 21 11  1  0
 21 20  2  0
 23 22  1  0
 23 24  2  0
 25 24  1  0
 26 25  2  0
 28 27  1  1
 27 26  1  0
 28 29  1  0
 29 18  1  0
 30 28  1  0
 30 34  1  0
 31 30  2  0
 32 33  2  0
 32 26  1  0
 33 23  1  0
M  END
$$$$
