QYY.pdb
     RDKit          3D

 34 35  0  0  1  0  0  0  0  0999 V2000
   30.2996  -18.8262  -19.1932 N   0  0  0  0  0  0  0  0  0  0  0  0
   28.9410  -18.8087  -19.5124 C   0  0  0  0  0  0  0  0  0  0  0  0
   28.3028  -17.7411  -19.3164 O   0  0  0  0  0  0  0  0  0  0  0  0
   28.1916  -19.9589  -20.0680 C   0  0  0  0  0  0  0  0  0  0  0  0
   27.1806  -20.5051  -19.0997 C   0  0  0  0  0  0  0  0  0  0  0  0
   27.9573  -21.2526  -18.0201 C   0  0  2  0  0  0  0  0  0  0  0  0
   28.4102  -22.4846  -18.6393 N   0  0  0  0  0  0  0  0  0  0  0  0
   27.1629  -21.4822  -16.8108 C   0  0  0  0  0  0  0  0  0  0  0  0
   26.2062  -22.2849  -16.8393 O   0  0  0  0  0  0  0  0  0  0  0  0
   24.2430  -20.8961   -8.4979 O   0  0  0  0  0  0  0  0  0  0  0  0
   25.0012  -20.7633   -9.6654 C   0  0  0  0  0  0  0  0  0  0  0  0
   24.9000  -19.5903  -10.3744 C   0  0  0  0  0  0  0  0  0  0  0  0
   25.6373  -19.4368  -11.5244 C   0  0  0  0  0  0  0  0  0  0  0  0
   26.4881  -20.4327  -11.9998 C   0  0  0  0  0  0  0  0  0  0  0  0
   27.2973  -20.3054  -13.2224 C   0  0  0  0  0  0  0  0  0  0  0  0
   26.6089  -20.9001  -14.4287 C   0  0  2  0  0  0  0  0  0  0  0  0
   27.4616  -20.8086  -15.6059 N   0  0  0  0  0  0  0  0  0  0  0  0
   25.2733  -20.3213  -14.6821 C   0  0  0  0  0  0  0  0  0  0  0  0
   25.1895  -19.2666  -15.3494 O   0  0  0  0  0  0  0  0  0  0  0  0
   26.5659  -21.6064  -11.2576 C   0  0  0  0  0  0  0  0  0  0  0  0
   25.8310  -21.7634  -10.1091 C   0  0  0  0  0  0  0  0  0  0  0  0
   17.3010  -17.9868  -16.9120 O   0  0  0  0  0  0  0  0  0  0  0  0
   18.5323  -18.5403  -16.6513 C   0  0  0  0  0  0  0  0  0  0  0  0
   19.6739  -17.7677  -16.7116 C   0  0  0  0  0  0  0  0  0  0  0  0
   20.8860  -18.3330  -16.4504 C   0  0  0  0  0  0  0  0  0  0  0  0
   21.0537  -19.6860  -16.1147 C   0  0  0  0  0  0  0  0  0  0  0  0
   22.4057  -20.2256  -15.8654 C   0  0  0  0  0  0  0  0  0  0  0  0
   22.7474  -20.3102  -14.4197 C   0  0  2  0  0  0  0  0  0  0  0  0
   24.0649  -20.8988  -14.2091 N   0  0  0  0  0  0  0  0  0  0  0  0
   21.7577  -21.1278  -13.7007 C   0  0  0  0  0  0  0  0  0  0  0  0
   20.7927  -20.5801  -13.0702 O   0  0  0  0  0  0  0  0  0  0  0  0
   19.8972  -20.4232  -16.0645 C   0  0  0  0  0  0  0  0  0  0  0  0
   18.6467  -19.8767  -16.3252 C   0  0  0  0  0  0  0  0  0  0  0  0
   21.8147  -22.5067  -13.6703 O   0  0  0  0  0  0  0  0  0  0  0  0
  2  1  1  0
  3  2  2  0
  4  2  1  0
  5  4  1  0
  6  5  1  0
  6  7  1  6
  8  6  1  0
  8  9  2  0
 10 11  1  0
 11 12  2  0
 12 13  1  0
 14 13  2  0
 14 15  1  0
 16 17  1  0
 16 15  1  1
 17  8  1  0
 18 16  1  0
 19 18  2  0
 20 14  1  0
 21 11  1  0
 21 20  2  0
 23 22  1  0
 23 24  2  0
 25 24  1  0
 26 25  2  0
 28 27  1  6
 27 26  1  0
 28 29  1  0
 29 18  1  0
 30 28  1  0
 30 34  1  0
 31 30  2  0
 32 33  2  0
 32 26  1  0
 33 23  1  0
M  END
$$$$
