HVL.pdb
     RDKit          3D

 26 26  0  0  1  0  0  0  0  0999 V2000
   24.1574  -18.5519  -18.8512 N   0  0  0  0  0  0  0  0  0  0  0  0
   24.1267  -17.9380  -17.5374 C   0  0  1  0  0  0  0  0  0  0  0  0
   22.6700  -17.6873  -17.2052 C   0  0  0  0  0  0  0  0  0  0  0  0
   22.1360  -16.5286  -17.9613 C   0  0  0  0  0  0  0  0  0  0  0  0
   22.2293  -15.2076  -17.5860 C   0  0  0  0  0  0  0  0  0  0  0  0
   21.6324  -14.4404  -18.5154 N   0  0  0  0  0  0  0  0  0  0  0  0
   21.1619  -15.2569  -19.4749 C   0  0  0  0  0  0  0  0  0  0  0  0
   21.4711  -16.5196  -19.1314 N   0  0  0  0  0  0  0  0  0  0  0  0
   24.7566  -18.8697  -16.5793 C   0  0  0  0  0  0  0  0  0  0  0  0
   24.3968  -20.0874  -16.5436 O   0  0  0  0  0  0  0  0  0  0  0  0
   28.3594  -20.0893  -13.4897 C   0  0  0  0  0  0  0  0  0  0  0  0
   27.8314  -19.1531  -14.5276 C   0  0  1  0  0  0  0  0  0  0  0  0
   28.4829  -19.3028  -15.8703 C   0  0  0  0  0  0  0  0  0  0  0  0
   26.3450  -19.3590  -14.6855 C   0  0  2  0  0  0  0  0  0  0  0  0
   25.7697  -18.4719  -15.6699 N   0  0  0  0  0  0  0  0  0  0  0  0
   25.6313  -19.2774  -13.3840 C   0  0  0  0  0  0  0  0  0  0  0  0
   24.8201  -18.3355  -13.1945 O   0  0  0  0  0  0  0  0  0  0  0  0
   21.8065  -19.4778  -10.1662 C   0  0  0  0  0  0  0  0  0  0  0  0
   22.2683  -20.6459  -10.9786 C   0  0  1  0  0  0  0  0  0  0  0  0
   21.0504  -21.1215  -11.7703 C   0  0  0  0  0  0  0  0  0  0  0  0
   23.4706  -20.5001  -11.7954 C   0  0  0  0  0  0  0  0  0  0  0  0
   24.8149  -20.3449  -11.2273 C   0  0  2  0  0  0  0  0  0  0  0  0
   25.8066  -20.1995  -12.3333 N   0  0  0  0  0  0  0  0  0  0  0  0
   25.3120  -21.2798  -10.2324 C   0  0  0  0  0  0  0  0  0  0  0  0
   25.2356  -21.1471   -8.8720 O   0  0  0  0  0  0  0  0  0  0  0  0
   25.8919  -22.3452  -10.6834 O   0  0  0  0  0  0  0  0  0  0  0  0
  2  9  1  0
  2  1  1  6
  3  2  1  0
  4  3  1  0
  5  4  2  0
  6  7  1  0
  6  5  1  0
  7  8  2  0
  8  4  1  0
  9 10  2  0
 12 14  1  0
 12 11  1  1
 13 12  1  0
 14 15  1  6
 15  9  1  0
 16 14  1  0
 17 16  2  0
 19 18  1  6
 19 21  1  0
 20 19  1  0
 22 21  1  6
 22 23  1  0
 22 24  1  0
 23 16  1  0
 24 25  1  0
 26 24  2  0
M  END
$$$$
