HVL.pdb
     RDKit          3D

 26 26  0  0  1  0  0  0  0  0999 V2000
   25.7819  -17.7954  -16.4685 N   0  0  0  0  0  0  0  0  0  0  0  0
   26.2298  -17.5967  -15.1034 C   0  0  1  0  0  0  0  0  0  0  0  0
   25.8450  -16.1830  -14.7176 C   0  0  0  0  0  0  0  0  0  0  0  0
   26.6373  -15.1830  -15.4738 C   0  0  0  0  0  0  0  0  0  0  0  0
   27.5536  -15.4598  -16.4628 C   0  0  0  0  0  0  0  0  0  0  0  0
   28.0736  -14.3066  -16.9195 N   0  0  0  0  0  0  0  0  0  0  0  0
   27.4995  -13.3024  -16.2335 C   0  0  0  0  0  0  0  0  0  0  0  0
   26.6310  -13.8419  -15.3601 N   0  0  0  0  0  0  0  0  0  0  0  0
   25.5623  -18.6005  -14.2493 C   0  0  0  0  0  0  0  0  0  0  0  0
   24.2956  -18.6168  -14.1553 O   0  0  0  0  0  0  0  0  0  0  0  0
   25.1884  -23.0191  -12.4851 C   0  0  0  0  0  0  0  0  0  0  0  0
   25.8935  -21.9919  -13.3098 C   0  0  1  0  0  0  0  0  0  0  0  0
   25.4998  -21.9983  -14.7571 C   0  0  0  0  0  0  0  0  0  0  0  0
   25.6290  -20.6191  -12.7425 C   0  0  2  0  0  0  0  0  0  0  0  0
   26.2744  -19.5762  -13.5060 N   0  0  0  0  0  0  0  0  0  0  0  0
   25.9717  -20.5390  -11.2982 C   0  0  0  0  0  0  0  0  0  0  0  0
   27.1389  -20.2074  -10.9686 O   0  0  0  0  0  0  0  0  0  0  0  0
   27.8341  -18.2730   -7.1191 C   0  0  0  0  0  0  0  0  0  0  0  0
   27.4883  -19.2946   -8.1556 C   0  0  1  0  0  0  0  0  0  0  0  0
   28.0965  -20.6117   -7.6744 C   0  0  0  0  0  0  0  0  0  0  0  0
   26.0960  -19.4191   -8.5798 C   0  0  0  0  0  0  0  0  0  0  0  0
   25.4405  -20.7102   -8.8190 C   0  0  2  0  0  0  0  0  0  0  0  0
   25.0611  -20.8143  -10.2589 N   0  0  0  0  0  0  0  0  0  0  0  0
   24.3379  -21.1487   -7.9806 C   0  0  0  0  0  0  0  0  0  0  0  0
   24.4281  -21.7199   -6.7397 O   0  0  0  0  0  0  0  0  0  0  0  0
   23.1483  -20.9859   -8.4633 O   0  0  0  0  0  0  0  0  0  0  0  0
  2  9  1  0
  2  1  1  6
  3  2  1  0
  4  3  1  0
  5  4  2  0
  6  7  1  0
  6  5  1  0
  7  8  2  0
  8  4  1  0
  9 10  2  0
 12 14  1  0
 12 11  1  1
 13 12  1  0
 14 15  1  6
 15  9  1  0
 16 14  1  0
 17 16  2  0
 19 18  1  1
 19 21  1  0
 20 19  1  0
 22 21  1  1
 22 23  1  0
 22 24  1  0
 23 16  1  0
 24 25  1  0
 26 24  2  0
M  END
$$$$
