HVL.pdb
     RDKit          3D

 26 26  0  0  1  0  0  0  0  0999 V2000
   16.5699  -13.3646  -17.2183 N   0  0  0  0  0  0  0  0  0  0  0  0
   17.4028  -12.7784  -16.1856 C   0  0  1  0  0  0  0  0  0  0  0  0
   18.7408  -13.4864  -16.2478 C   0  0  0  0  0  0  0  0  0  0  0  0
   18.6180  -14.9081  -15.8437 C   0  0  0  0  0  0  0  0  0  0  0  0
   18.2028  -15.3645  -14.6133 C   0  0  0  0  0  0  0  0  0  0  0  0
   18.2168  -16.7094  -14.6125 N   0  0  0  0  0  0  0  0  0  0  0  0
   18.6352  -17.1119  -15.8256 C   0  0  0  0  0  0  0  0  0  0  0  0
   18.8759  -16.0147  -16.5649 N   0  0  0  0  0  0  0  0  0  0  0  0
   17.5323  -11.3332  -16.4641 C   0  0  0  0  0  0  0  0  0  0  0  0
   17.7663  -10.9299  -17.6456 O   0  0  0  0  0  0  0  0  0  0  0  0
   16.5736   -6.6920  -15.4301 C   0  0  0  0  0  0  0  0  0  0  0  0
   16.2868   -8.1581  -15.4018 C   0  0  1  0  0  0  0  0  0  0  0  0
   15.2096   -8.5862  -16.3538 C   0  0  0  0  0  0  0  0  0  0  0  0
   17.5461   -8.9261  -15.7192 C   0  0  2  0  0  0  0  0  0  0  0  0
   17.4067  -10.3403  -15.4591 N   0  0  0  0  0  0  0  0  0  0  0  0
   18.7343   -8.3530  -15.0339 C   0  0  0  0  0  0  0  0  0  0  0  0
   18.8946   -8.5774  -13.8071 O   0  0  0  0  0  0  0  0  0  0  0  0
   24.6149   -8.0581  -15.9344 C   0  0  0  0  0  0  0  0  0  0  0  0
   23.4921   -7.3382  -15.2572 C   0  0  1  0  0  0  0  0  0  0  0  0
   23.8450   -5.8520  -15.3122 C   0  0  0  0  0  0  0  0  0  0  0  0
   22.1221   -7.6251  -15.6754 C   0  0  0  0  0  0  0  0  0  0  0  0
   20.9420   -7.0955  -14.9822 C   0  0  2  0  0  0  0  0  0  0  0  0
   19.7071   -7.5632  -15.6780 N   0  0  0  0  0  0  0  0  0  0  0  0
   20.8351   -5.6793  -14.6760 C   0  0  0  0  0  0  0  0  0  0  0  0
   21.3772   -5.0298  -13.5996 O   0  0  0  0  0  0  0  0  0  0  0  0
   20.1504   -4.9613  -15.5069 O   0  0  0  0  0  0  0  0  0  0  0  0
  2  9  1  0
  2  1  1  6
  3  2  1  0
  4  3  1  0
  5  4  2  0
  6  7  1  0
  6  5  1  0
  7  8  2  0
  8  4  1  0
  9 10  2  0
 12 14  1  0
 12 11  1  6
 13 12  1  0
 14 15  1  1
 15  9  1  0
 16 14  1  0
 17 16  2  0
 19 18  1  6
 19 21  1  0
 20 19  1  0
 22 21  1  6
 22 23  1  0
 22 24  1  0
 23 16  1  0
 24 25  1  0
 26 24  2  0
M  END
$$$$
