HVL.pdb
     RDKit          3D

 26 26  0  0  1  0  0  0  0  0999 V2000
   17.7717  -12.6469  -15.6247 N   0  0  0  0  0  0  0  0  0  0  0  0
   16.6752  -11.9432  -14.9873 C   0  0  1  0  0  0  0  0  0  0  0  0
   16.1216  -12.8677  -13.9224 C   0  0  0  0  0  0  0  0  0  0  0  0
   15.3469  -13.9803  -14.5236 C   0  0  0  0  0  0  0  0  0  0  0  0
   13.9960  -13.9731  -14.7871 C   0  0  0  0  0  0  0  0  0  0  0  0
   13.6451  -15.1519  -15.3314 N   0  0  0  0  0  0  0  0  0  0  0  0
   14.7552  -15.9063  -15.4166 C   0  0  0  0  0  0  0  0  0  0  0  0
   15.7811  -15.1892  -14.9253 N   0  0  0  0  0  0  0  0  0  0  0  0
   17.2063  -10.6924  -14.4074 C   0  0  0  0  0  0  0  0  0  0  0  0
   18.3130  -10.6981  -13.7840 O   0  0  0  0  0  0  0  0  0  0  0  0
   16.4648   -7.0870  -16.0240 C   0  0  0  0  0  0  0  0  0  0  0  0
   17.5111   -7.2464  -14.9693 C   0  0  1  0  0  0  0  0  0  0  0  0
   17.8895   -5.9645  -14.2886 C   0  0  0  0  0  0  0  0  0  0  0  0
   17.0324   -8.2253  -13.9257 C   0  0  2  0  0  0  0  0  0  0  0  0
   16.5324   -9.4486  -14.5091 N   0  0  0  0  0  0  0  0  0  0  0  0
   16.0453   -7.6114  -12.9991 C   0  0  0  0  0  0  0  0  0  0  0  0
   14.8606   -7.4553  -13.3906 O   0  0  0  0  0  0  0  0  0  0  0  0
   13.1093   -7.1407   -8.2603 C   0  0  0  0  0  0  0  0  0  0  0  0
   14.4987   -6.6069   -8.4098 C   0  0  1  0  0  0  0  0  0  0  0  0
   15.1596   -6.7512   -7.0391 C   0  0  0  0  0  0  0  0  0  0  0  0
   15.3255   -7.1022   -9.5076 C   0  0  0  0  0  0  0  0  0  0  0  0
   15.3658   -6.4713  -10.8320 C   0  0  2  0  0  0  0  0  0  0  0  0
   16.3543   -7.1866  -11.6918 N   0  0  0  0  0  0  0  0  0  0  0  0
   15.5383   -5.0347  -10.9642 C   0  0  0  0  0  0  0  0  0  0  0  0
   14.5483   -4.0988  -11.0984 O   0  0  0  0  0  0  0  0  0  0  0  0
   16.7569   -4.5990  -10.9599 O   0  0  0  0  0  0  0  0  0  0  0  0
  2  9  1  0
  2  1  1  1
  3  2  1  0
  4  3  1  0
  5  4  2  0
  6  7  1  0
  6  5  1  0
  7  8  2  0
  8  4  1  0
  9 10  2  0
 12 14  1  0
 12 11  1  6
 13 12  1  0
 14 15  1  6
 15  9  1  0
 16 14  1  0
 17 16  2  0
 19 18  1  1
 19 21  1  0
 20 19  1  0
 22 21  1  1
 22 23  1  0
 22 24  1  0
 23 16  1  0
 24 25  1  0
 26 24  2  0
M  END
$$$$
