HVL.pdb
     RDKit          3D

 26 26  0  0  1  0  0  0  0  0999 V2000
   23.1525  -31.9845    3.9525 N   0  0  0  0  0  0  0  0  0  0  0  0
   23.8230  -32.1648    5.2259 C   0  0  1  0  0  0  0  0  0  0  0  0
   23.8340  -33.6533    5.5081 C   0  0  0  0  0  0  0  0  0  0  0  0
   22.5111  -34.1211    5.9882 C   0  0  0  0  0  0  0  0  0  0  0  0
   21.9134  -35.3187    5.6674 C   0  0  0  0  0  0  0  0  0  0  0  0
   20.7219  -35.3982    6.2861 N   0  0  0  0  0  0  0  0  0  0  0  0
   20.5560  -34.2673    6.9947 C   0  0  0  0  0  0  0  0  0  0  0  0
   21.6441  -33.4995    6.8087 N   0  0  0  0  0  0  0  0  0  0  0  0
   25.1902  -31.6176    5.1077 C   0  0  0  0  0  0  0  0  0  0  0  0
   25.8599  -31.7990    4.0436 O   0  0  0  0  0  0  0  0  0  0  0  0
   28.7130  -28.5450    6.6126 C   0  0  0  0  0  0  0  0  0  0  0  0
   27.2788  -28.9639    6.6066 C   0  0  1  0  0  0  0  0  0  0  0  0
   26.3820  -28.0535    5.8213 C   0  0  0  0  0  0  0  0  0  0  0  0
   27.1618  -30.3598    6.0458 C   0  0  2  0  0  0  0  0  0  0  0  0
   25.8174  -30.8796    6.1438 N   0  0  0  0  0  0  0  0  0  0  0  0
   28.1572  -31.2856    6.6473 C   0  0  0  0  0  0  0  0  0  0  0  0
   27.9828  -31.6807    7.8283 O   0  0  0  0  0  0  0  0  0  0  0  0
   29.7863  -36.1264    5.0528 C   0  0  0  0  0  0  0  0  0  0  0  0
   29.5613  -34.9459    5.9435 C   0  0  1  0  0  0  0  0  0  0  0  0
   29.3475  -35.5078    7.3487 C   0  0  0  0  0  0  0  0  0  0  0  0
   30.5172  -33.8421    5.8991 C   0  0  0  0  0  0  0  0  0  0  0  0
   30.3371  -32.5917    6.6459 C   0  0  2  0  0  0  0  0  0  0  0  0
   29.3001  -31.7565    5.9714 N   0  0  0  0  0  0  0  0  0  0  0  0
   31.4810  -31.7712    7.0053 C   0  0  0  0  0  0  0  0  0  0  0  0
   31.7100  -30.4744    6.6310 O   0  0  0  0  0  0  0  0  0  0  0  0
   32.3776  -32.3301    7.7526 O   0  0  0  0  0  0  0  0  0  0  0  0
  2  9  1  0
  2  1  1  6
  3  2  1  0
  4  3  1  0
  5  4  2  0
  6  7  1  0
  6  5  1  0
  7  8  2  0
  8  4  1  0
  9 10  2  0
 12 14  1  0
 12 11  1  6
 13 12  1  0
 14 15  1  1
 15  9  1  0
 16 14  1  0
 17 16  2  0
 19 18  1  6
 19 21  1  0
 20 19  1  0
 22 21  1  6
 22 23  1  0
 22 24  1  0
 23 16  1  0
 24 25  1  0
 26 24  2  0
M  END
$$$$
