HVL.pdb
     RDKit          3D

 26 26  0  0  1  0  0  0  0  0999 V2000
   22.5524  -19.2846  -17.3231 N   0  0  0  0  0  0  0  0  0  0  0  0
   22.9924  -18.5510  -16.1518 C   0  0  1  0  0  0  0  0  0  0  0  0
   21.7635  -18.3097  -15.2992 C   0  0  0  0  0  0  0  0  0  0  0  0
   20.8944  -17.2630  -15.8896 C   0  0  0  0  0  0  0  0  0  0  0  0
   21.0680  -15.9036  -15.7624 C   0  0  0  0  0  0  0  0  0  0  0  0
   20.0889  -15.2681  -16.4306 N   0  0  0  0  0  0  0  0  0  0  0  0
   19.2970  -16.2061  -16.9797 C   0  0  0  0  0  0  0  0  0  0  0  0
   19.7920  -17.4114  -16.6472 N   0  0  0  0  0  0  0  0  0  0  0  0
   23.9986  -19.3711  -15.4462 C   0  0  0  0  0  0  0  0  0  0  0  0
   23.7446  -20.5813  -15.1553 O   0  0  0  0  0  0  0  0  0  0  0  0
   28.6507  -20.1414  -14.0540 C   0  0  0  0  0  0  0  0  0  0  0  0
   27.6650  -19.3605  -14.8610 C   0  0  1  0  0  0  0  0  0  0  0  0
   27.7434  -19.6213  -16.3360 C   0  0  0  0  0  0  0  0  0  0  0  0
   26.2660  -19.6703  -14.3886 C   0  0  2  0  0  0  0  0  0  0  0  0
   25.2694  -18.8712  -15.0633 N   0  0  0  0  0  0  0  0  0  0  0  0
   26.1441  -19.5726  -12.9103 C   0  0  0  0  0  0  0  0  0  0  0  0
   26.0308  -18.4362  -12.3842 O   0  0  0  0  0  0  0  0  0  0  0  0
   22.7477  -20.9225   -8.4712 C   0  0  0  0  0  0  0  0  0  0  0  0
   24.1593  -20.5529   -8.8007 C   0  0  1  0  0  0  0  0  0  0  0  0
   25.0289  -21.1831   -7.7131 C   0  0  0  0  0  0  0  0  0  0  0  0
   24.6513  -20.8012  -10.1536 C   0  0  0  0  0  0  0  0  0  0  0  0
   26.0366  -20.5455  -10.5651 C   0  0  2  0  0  0  0  0  0  0  0  0
   26.1473  -20.6860  -12.0470 N   0  0  0  0  0  0  0  0  0  0  0  0
   27.1415  -21.2302   -9.9160 C   0  0  0  0  0  0  0  0  0  0  0  0
   27.6028  -22.4889  -10.1935 O   0  0  0  0  0  0  0  0  0  0  0  0
   27.7463  -20.5813   -8.9737 O   0  0  0  0  0  0  0  0  0  0  0  0
  2  9  1  0
  2  1  1  6
  3  2  1  0
  4  3  1  0
  5  4  2  0
  6  7  1  0
  6  5  1  0
  7  8  2  0
  8  4  1  0
  9 10  2  0
 12 14  1  0
 12 11  1  1
 13 12  1  0
 14 15  1  6
 15  9  1  0
 16 14  1  0
 17 16  2  0
 19 18  1  6
 19 21  1  0
 20 19  1  0
 22 21  1  1
 22 23  1  0
 22 24  1  0
 23 16  1  0
 24 25  1  0
 26 24  2  0
M  END
$$$$
