HVL.pdb
     RDKit          3D

 26 26  0  0  1  0  0  0  0  0999 V2000
   27.4470  -20.5609  -16.5526 N   0  0  0  0  0  0  0  0  0  0  0  0
   26.8683  -19.6830  -15.5535 C   0  0  1  0  0  0  0  0  0  0  0  0
   26.1672  -18.5686  -16.3031 C   0  0  0  0  0  0  0  0  0  0  0  0
   27.1422  -17.6474  -16.9356 C   0  0  0  0  0  0  0  0  0  0  0  0
   28.5110  -17.7921  -16.9289 C   0  0  0  0  0  0  0  0  0  0  0  0
   29.0674  -16.7679  -17.6000 N   0  0  0  0  0  0  0  0  0  0  0  0
   28.0702  -15.9759  -18.0321 C   0  0  0  0  0  0  0  0  0  0  0  0
   26.9077  -16.5158  -17.6254 N   0  0  0  0  0  0  0  0  0  0  0  0
   25.9252  -20.4742  -14.7366 C   0  0  0  0  0  0  0  0  0  0  0  0
   25.3799  -21.5145  -15.2203 O   0  0  0  0  0  0  0  0  0  0  0  0
   26.6584  -21.7842  -11.3939 C   0  0  0  0  0  0  0  0  0  0  0  0
   25.2836  -21.2229  -11.2282 C   0  0  1  0  0  0  0  0  0  0  0  0
   25.2307  -19.9792  -10.3915 C   0  0  0  0  0  0  0  0  0  0  0  0
   24.6942  -20.9197  -12.5836 C   0  0  2  0  0  0  0  0  0  0  0  0
   25.5828  -20.1297  -13.4040 N   0  0  0  0  0  0  0  0  0  0  0  0
   23.3456  -20.3033  -12.4779 C   0  0  0  0  0  0  0  0  0  0  0  0
   23.2581  -19.0699  -12.2494 O   0  0  0  0  0  0  0  0  0  0  0  0
   19.6454  -17.1206  -13.4535 C   0  0  0  0  0  0  0  0  0  0  0  0
   19.8620  -18.4001  -14.1975 C   0  0  1  0  0  0  0  0  0  0  0  0
   19.8908  -18.0304  -15.6803 C   0  0  0  0  0  0  0  0  0  0  0  0
   20.9663  -19.2671  -13.7941 C   0  0  0  0  0  0  0  0  0  0  0  0
   20.8256  -20.3403  -12.8030 C   0  0  2  0  0  0  0  0  0  0  0  0
   22.1413  -21.0207  -12.6191 N   0  0  0  0  0  0  0  0  0  0  0  0
   19.7669  -21.3278  -12.9246 C   0  0  0  0  0  0  0  0  0  0  0  0
   18.4733  -21.2004  -12.4949 O   0  0  0  0  0  0  0  0  0  0  0  0
   20.0856  -22.4455  -13.4939 O   0  0  0  0  0  0  0  0  0  0  0  0
  2  9  1  0
  2  1  1  6
  3  2  1  0
  4  3  1  0
  5  4  2  0
  6  7  1  0
  6  5  1  0
  7  8  2  0
  8  4  1  0
  9 10  2  0
 12 14  1  0
 12 11  1  6
 13 12  1  0
 14 15  1  1
 15  9  1  0
 16 14  1  0
 17 16  2  0
 19 18  1  1
 19 21  1  0
 20 19  1  0
 22 21  1  6
 22 23  1  0
 22 24  1  0
 23 16  1  0
 24 25  1  0
 26 24  2  0
M  END
$$$$
