HVL.pdb
     RDKit          3D

 26 26  0  0  1  0  0  0  0  0999 V2000
   24.7002  -21.0835  -16.9542 N   0  0  0  0  0  0  0  0  0  0  0  0
   25.4398  -22.0128  -16.1215 C   0  0  1  0  0  0  0  0  0  0  0  0
   24.4284  -22.9775  -15.5370 C   0  0  0  0  0  0  0  0  0  0  0  0
   23.4794  -22.2823  -14.6338 C   0  0  0  0  0  0  0  0  0  0  0  0
   23.7957  -21.6891  -13.4327 C   0  0  0  0  0  0  0  0  0  0  0  0
   22.6828  -21.1598  -12.8941 N   0  0  0  0  0  0  0  0  0  0  0  0
   21.6653  -21.4093  -13.7372 C   0  0  0  0  0  0  0  0  0  0  0  0
   22.1564  -22.0895  -14.7881 N   0  0  0  0  0  0  0  0  0  0  0  0
   26.4311  -22.7038  -16.9716 C   0  0  0  0  0  0  0  0  0  0  0  0
   26.0712  -23.2345  -18.0682 O   0  0  0  0  0  0  0  0  0  0  0  0
   31.0707  -23.5176  -18.3217 C   0  0  0  0  0  0  0  0  0  0  0  0
   30.0692  -22.7149  -17.5567 C   0  0  1  0  0  0  0  0  0  0  0  0
   29.7772  -21.3725  -18.1586 C   0  0  0  0  0  0  0  0  0  0  0  0
   28.7779  -23.4877  -17.4482 C   0  0  2  0  0  0  0  0  0  0  0  0
   27.8019  -22.8126  -16.6244 N   0  0  0  0  0  0  0  0  0  0  0  0
   29.0037  -24.8877  -17.0021 C   0  0  0  0  0  0  0  0  0  0  0  0
   28.5979  -25.2351  -15.8638 O   0  0  0  0  0  0  0  0  0  0  0  0
   28.4328  -29.6186  -15.4083 C   0  0  0  0  0  0  0  0  0  0  0  0
   27.8708  -29.0514  -16.6733 C   0  0  1  0  0  0  0  0  0  0  0  0
   26.3589  -29.2631  -16.5996 C   0  0  0  0  0  0  0  0  0  0  0  0
   28.2486  -27.6948  -17.0616 C   0  0  0  0  0  0  0  0  0  0  0  0
   29.6170  -27.3159  -17.4325 C   0  0  2  0  0  0  0  0  0  0  0  0
   29.6522  -25.8653  -17.7824 N   0  0  0  0  0  0  0  0  0  0  0  0
   30.3578  -28.0841  -18.4184 C   0  0  0  0  0  0  0  0  0  0  0  0
   31.2253  -29.1142  -18.1725 O   0  0  0  0  0  0  0  0  0  0  0  0
   30.1805  -27.7531  -19.6569 O   0  0  0  0  0  0  0  0  0  0  0  0
  2  9  1  0
  2  1  1  6
  3  2  1  0
  4  3  1  0
  5  4  2  0
  6  7  1  0
  6  5  1  0
  7  8  2  0
  8  4  1  0
  9 10  2  0
 12 14  1  0
 12 11  1  6
 13 12  1  0
 14 15  1  1
 15  9  1  0
 16 14  1  0
 17 16  2  0
 19 18  1  1
 19 21  1  0
 20 19  1  0
 22 21  1  6
 22 23  1  0
 22 24  1  0
 23 16  1  0
 24 25  1  0
 26 24  2  0
M  END
$$$$
