NMD.pdb
     RDKit          3D

 25 24  0  0  1  0  0  0  0  0999 V2000
   21.4152  -18.5055  -16.7643 N   0  0  0  0  0  0  0  0  0  0  0  0
   21.5241  -18.2693  -15.3872 C   0  0  0  0  0  0  0  0  0  0  0  0
   21.3021  -19.1840  -14.5531 O   0  0  0  0  0  0  0  0  0  0  0  0
   21.9005  -16.9445  -14.8846 C   0  0  0  0  0  0  0  0  0  0  0  0
   21.9759  -15.9757  -16.0419 C   0  0  2  0  0  0  0  0  0  0  0  0
   22.8624  -16.4384  -17.0808 N   0  0  0  0  0  0  0  0  0  0  0  0
   22.4015  -14.6221  -15.5753 C   0  0  0  0  0  0  0  0  0  0  0  0
   21.8452  -14.0519  -14.6034 O   0  0  0  0  0  0  0  0  0  0  0  0
   28.3646  -11.9758  -15.8149 C   0  0  0  0  0  0  0  0  0  0  0  0
   27.9481  -13.6965  -15.3911 S   0  0  0  0  0  0  0  0  0  0  0  0
   26.1288  -13.6929  -15.0692 C   0  0  0  0  0  0  0  0  0  0  0  0
   25.4621  -12.6305  -15.8707 C   0  0  0  0  0  0  0  0  0  0  0  0
   23.9756  -12.7009  -15.7079 C   0  0  2  0  0  0  0  0  0  0  0  0
   23.4497  -13.9574  -16.2306 N   0  0  0  0  0  0  0  0  0  0  0  0
   23.2228  -11.5617  -16.2754 C   0  0  0  0  0  0  0  0  0  0  0  0
   22.9485  -11.4096  -17.4863 O   0  0  0  0  0  0  0  0  0  0  0  0
   22.7678  -10.5484  -15.3787 N   0  0  0  0  0  0  0  0  0  0  0  0
   22.0030   -9.4027  -15.8153 C   0  0  1  0  0  0  0  0  0  0  0  0
   21.2819   -8.8317  -14.6249 C   0  0  0  0  0  0  0  0  0  0  0  0
   20.5322   -7.6188  -15.0117 C   0  0  0  0  0  0  0  0  0  0  0  0
   20.2462   -7.3840  -16.2059 O   0  0  0  0  0  0  0  0  0  0  0  0
   22.9653   -8.4140  -16.3906 C   0  0  0  0  0  0  0  0  0  0  0  0
   22.6594   -7.6758  -17.5229 O   0  0  0  0  0  0  0  0  0  0  0  0
   20.1328   -6.7120  -14.0214 O   0  0  0  0  0  0  0  0  0  0  0  0
   24.0766   -8.2445  -15.8400 O   0  0  0  0  0  0  0  0  0  0  0  0
  2  1  1  0
  2  3  2  0
  4  5  1  0
  4  2  1  0
  5  6  1  6
  7  5  1  0
  7  8  2  0
  9 10  1  0
 11 10  1  0
 12 11  1  0
 13 12  1  6
 13 14  1  0
 14  7  1  0
 15 17  1  0
 15 13  1  0
 16 15  2  0
 18 17  1  0
 18 22  1  0
 19 20  1  0
 18 19  1  1
 20 24  1  0
 21 20  2  0
 22 23  1  0
 25 22  2  0
M  END
$$$$
