NMD.pdb
     RDKit          3D

 25 24  0  0  1  0  0  0  0  0999 V2000
   26.7356  -11.3034  -21.6814 N   0  0  0  0  0  0  0  0  0  0  0  0
   26.0634  -10.0846  -21.8455 C   0  0  0  0  0  0  0  0  0  0  0  0
   26.4586   -9.2342  -22.6835 O   0  0  0  0  0  0  0  0  0  0  0  0
   24.8790   -9.7711  -21.0404 C   0  0  0  0  0  0  0  0  0  0  0  0
   24.6694  -10.8628  -20.0168 C   0  0  2  0  0  0  0  0  0  0  0  0
   24.2237  -12.0947  -20.6197 N   0  0  0  0  0  0  0  0  0  0  0  0
   23.6981  -10.4291  -18.9681 C   0  0  0  0  0  0  0  0  0  0  0  0
   22.4623  -10.6205  -19.0909 O   0  0  0  0  0  0  0  0  0  0  0  0
   23.3311  -14.3131  -14.5176 C   0  0  0  0  0  0  0  0  0  0  0  0
   23.6839  -12.5698  -14.1304 S   0  0  0  0  0  0  0  0  0  0  0  0
   23.2896  -11.6374  -15.6760 C   0  0  0  0  0  0  0  0  0  0  0  0
   23.5461  -10.1836  -15.4847 C   0  0  0  0  0  0  0  0  0  0  0  0
   23.2423   -9.4246  -16.7388 C   0  0  2  0  0  0  0  0  0  0  0  0
   24.1644   -9.7894  -17.8090 N   0  0  0  0  0  0  0  0  0  0  0  0
   23.1938   -7.9540  -16.5917 C   0  0  0  0  0  0  0  0  0  0  0  0
   24.1678   -7.1821  -16.7334 O   0  0  0  0  0  0  0  0  0  0  0  0
   21.9399   -7.3567  -16.2614 N   0  0  0  0  0  0  0  0  0  0  0  0
   21.7576   -5.9271  -16.1561 C   0  0  1  0  0  0  0  0  0  0  0  0
   20.3100   -5.6127  -16.4182 C   0  0  0  0  0  0  0  0  0  0  0  0
   19.9824   -5.8488  -17.8394 C   0  0  0  0  0  0  0  0  0  0  0  0
   20.7391   -5.4588  -18.7549 O   0  0  0  0  0  0  0  0  0  0  0  0
   22.1570   -5.5249  -14.7729 C   0  0  0  0  0  0  0  0  0  0  0  0
   22.4118   -4.2026  -14.4452 O   0  0  0  0  0  0  0  0  0  0  0  0
   18.7998   -6.5234  -18.1698 O   0  0  0  0  0  0  0  0  0  0  0  0
   22.2654   -6.3999  -13.8844 O   0  0  0  0  0  0  0  0  0  0  0  0
  2  1  1  0
  2  3  2  0
  4  5  1  0
  4  2  1  0
  5  6  1  6
  7  5  1  0
  7  8  2  0
  9 10  1  0
 11 10  1  0
 12 11  1  0
 13 12  1  1
 13 14  1  0
 14  7  1  0
 15 17  1  0
 15 13  1  0
 16 15  2  0
 18 17  1  0
 18 22  1  0
 19 20  1  0
 18 19  1  1
 20 24  1  0
 21 20  2  0
 22 23  1  0
 25 22  2  0
M  END
$$$$
