NMD.pdb
     RDKit          3D

 25 24  0  0  1  0  0  0  0  0999 V2000
   28.5861  -17.7119  -16.2584 N   0  0  0  0  0  0  0  0  0  0  0  0
   27.2230  -17.4245  -16.4120 C   0  0  0  0  0  0  0  0  0  0  0  0
   26.8432  -16.3640  -16.9711 O   0  0  0  0  0  0  0  0  0  0  0  0
   26.2037  -18.3573  -15.9218 C   0  0  0  0  0  0  0  0  0  0  0  0
   26.8827  -19.5449  -15.2799 C   0  0  2  0  0  0  0  0  0  0  0  0
   27.5337  -20.3889  -16.2512 N   0  0  0  0  0  0  0  0  0  0  0  0
   25.9082  -20.3468  -14.4808 C   0  0  0  0  0  0  0  0  0  0  0  0
   25.1771  -21.2200  -15.0116 O   0  0  0  0  0  0  0  0  0  0  0  0
   25.4222  -20.8753   -7.9463 C   0  0  0  0  0  0  0  0  0  0  0  0
   26.9536  -21.2266   -8.8656 S   0  0  0  0  0  0  0  0  0  0  0  0
   26.4258  -21.4637  -10.6202 C   0  0  0  0  0  0  0  0  0  0  0  0
   25.1114  -20.8074  -10.8599 C   0  0  0  0  0  0  0  0  0  0  0  0
   24.7737  -20.8190  -12.3183 C   0  0  2  0  0  0  0  0  0  0  0  0
   25.7956  -20.1296  -13.0987 N   0  0  0  0  0  0  0  0  0  0  0  0
   23.4346  -20.2940  -12.6614 C   0  0  0  0  0  0  0  0  0  0  0  0
   23.0217  -19.1430  -12.3983 O   0  0  0  0  0  0  0  0  0  0  0  0
   22.5325  -21.1619  -13.3478 N   0  0  0  0  0  0  0  0  0  0  0  0
   21.1964  -20.7617  -13.7258 C   0  0  1  0  0  0  0  0  0  0  0  0
   21.1548  -20.5985  -15.2206 C   0  0  0  0  0  0  0  0  0  0  0  0
   19.8168  -20.1426  -15.6504 C   0  0  0  0  0  0  0  0  0  0  0  0
   18.9618  -19.7620  -14.8215 O   0  0  0  0  0  0  0  0  0  0  0  0
   20.2614  -21.8362  -13.2723 C   0  0  0  0  0  0  0  0  0  0  0  0
   19.0552  -21.5389  -12.6581 O   0  0  0  0  0  0  0  0  0  0  0  0
   19.4977  -20.1361  -17.0146 O   0  0  0  0  0  0  0  0  0  0  0  0
   20.5704  -23.0362  -13.4493 O   0  0  0  0  0  0  0  0  0  0  0  0
  2  1  1  0
  2  3  2  0
  4  5  1  0
  4  2  1  0
  5  6  1  6
  7  5  1  0
  7  8  2  0
  9 10  1  0
 11 10  1  0
 12 11  1  0
 13 12  1  1
 13 14  1  0
 14  7  1  0
 15 17  1  0
 15 13  1  0
 16 15  2  0
 18 17  1  0
 18 22  1  0
 19 20  1  0
 18 19  1  6
 20 24  1  0
 21 20  2  0
 22 23  1  0
 25 22  2  0
M  END
$$$$
