NMD.pdb
     RDKit          3D

 25 24  0  0  1  0  0  0  0  0999 V2000
   18.2455  -14.4119  -17.7179 N   0  0  0  0  0  0  0  0  0  0  0  0
   19.3065  -13.5579  -18.0483 C   0  0  0  0  0  0  0  0  0  0  0  0
   19.8314  -13.5882  -19.1907 O   0  0  0  0  0  0  0  0  0  0  0  0
   19.8317  -12.6054  -17.0653 C   0  0  0  0  0  0  0  0  0  0  0  0
   21.3407  -12.5899  -17.1437 C   0  0  2  0  0  0  0  0  0  0  0  0
   21.9189  -13.8464  -16.7355 N   0  0  0  0  0  0  0  0  0  0  0  0
   21.9047  -11.4788  -16.3199 C   0  0  0  0  0  0  0  0  0  0  0  0
   21.4911  -11.2412  -15.1574 O   0  0  0  0  0  0  0  0  0  0  0  0
   27.8596  -12.4711  -14.7920 C   0  0  0  0  0  0  0  0  0  0  0  0
   27.3720  -10.8778  -15.5249 S   0  0  0  0  0  0  0  0  0  0  0  0
   25.5248  -10.8691  -15.4888 C   0  0  0  0  0  0  0  0  0  0  0  0
   24.9994   -9.6235  -16.1119 C   0  0  0  0  0  0  0  0  0  0  0  0
   23.5039   -9.5930  -16.0509 C   0  0  2  0  0  0  0  0  0  0  0  0
   22.9245  -10.6705  -16.8458 N   0  0  0  0  0  0  0  0  0  0  0  0
   22.8824   -8.3024  -16.4179 C   0  0  0  0  0  0  0  0  0  0  0  0
   22.6540   -7.9179  -17.5861 O   0  0  0  0  0  0  0  0  0  0  0  0
   22.5094   -7.4165  -15.3625 N   0  0  0  0  0  0  0  0  0  0  0  0
   22.0061   -6.0830  -15.6011 C   0  0  1  0  0  0  0  0  0  0  0  0
   21.1590   -5.6781  -14.4257 C   0  0  0  0  0  0  0  0  0  0  0  0
   20.6146   -4.3197  -14.6287 C   0  0  0  0  0  0  0  0  0  0  0  0
   21.2716   -3.3024  -14.3182 O   0  0  0  0  0  0  0  0  0  0  0  0
   23.1867   -5.1790  -15.7545 C   0  0  0  0  0  0  0  0  0  0  0  0
   24.4616   -5.5794  -15.3872 O   0  0  0  0  0  0  0  0  0  0  0  0
   19.3360   -4.1664  -15.1804 O   0  0  0  0  0  0  0  0  0  0  0  0
   23.0256   -4.0307  -16.2259 O   0  0  0  0  0  0  0  0  0  0  0  0
  2  1  1  0
  2  3  2  0
  4  5  1  0
  4  2  1  0
  5  6  1  1
  7  5  1  0
  7  8  2  0
  9 10  1  0
 11 10  1  0
 12 11  1  0
 13 12  1  6
 13 14  1  0
 14  7  1  0
 15 17  1  0
 15 13  1  0
 16 15  2  0
 18 17  1  0
 18 22  1  0
 19 20  1  0
 18 19  1  1
 20 24  1  0
 21 20  2  0
 22 23  1  0
 25 22  2  0
M  END
$$$$
