NMD.pdb
     RDKit          3D

 25 24  0  0  1  0  0  0  0  0999 V2000
   28.7069  -21.8398  -16.7747 N   0  0  0  0  0  0  0  0  0  0  0  0
   28.4951  -20.7770  -15.8861 C   0  0  0  0  0  0  0  0  0  0  0  0
   28.6105  -19.5831  -16.2642 O   0  0  0  0  0  0  0  0  0  0  0  0
   28.1331  -21.0333  -14.4887 C   0  0  0  0  0  0  0  0  0  0  0  0
   26.6550  -20.7798  -14.3026 C   0  0  2  0  0  0  0  0  0  0  0  0
   26.3196  -19.3855  -14.4543 N   0  0  0  0  0  0  0  0  0  0  0  0
   26.1950  -21.2717  -12.9693 C   0  0  0  0  0  0  0  0  0  0  0  0
   26.2265  -22.4908  -12.6668 O   0  0  0  0  0  0  0  0  0  0  0  0
   28.7896  -20.2069   -7.0961 C   0  0  0  0  0  0  0  0  0  0  0  0
   27.2583  -19.4369   -7.7091 S   0  0  0  0  0  0  0  0  0  0  0  0
   26.6336  -20.5736   -9.0249 C   0  0  0  0  0  0  0  0  0  0  0  0
   25.3832  -20.0340   -9.6260 C   0  0  0  0  0  0  0  0  0  0  0  0
   24.9956  -20.8247  -10.8366 C   0  0  2  0  0  0  0  0  0  0  0  0
   25.7121  -20.3586  -12.0190 N   0  0  0  0  0  0  0  0  0  0  0  0
   23.5445  -20.8846  -11.1147 C   0  0  0  0  0  0  0  0  0  0  0  0
   22.6632  -21.1998  -10.2849 O   0  0  0  0  0  0  0  0  0  0  0  0
   23.1029  -20.5589  -12.4325 N   0  0  0  0  0  0  0  0  0  0  0  0
   21.7136  -20.6089  -12.8272 C   0  0  1  0  0  0  0  0  0  0  0  0
   21.5091  -19.6489  -13.9671 C   0  0  0  0  0  0  0  0  0  0  0  0
   20.4857  -18.6434  -13.6144 C   0  0  0  0  0  0  0  0  0  0  0  0
   19.9749  -18.6074  -12.4739 O   0  0  0  0  0  0  0  0  0  0  0  0
   21.4159  -22.0137  -13.2426 C   0  0  0  0  0  0  0  0  0  0  0  0
   22.3060  -22.7495  -14.0088 O   0  0  0  0  0  0  0  0  0  0  0  0
   20.0779  -17.7103  -14.5765 O   0  0  0  0  0  0  0  0  0  0  0  0
   20.3374  -22.5438  -12.8924 O   0  0  0  0  0  0  0  0  0  0  0  0
  2  1  1  0
  2  3  2  0
  4  5  1  0
  4  2  1  0
  5  6  1  1
  7  5  1  0
  7  8  2  0
  9 10  1  0
 11 10  1  0
 12 11  1  0
 13 12  1  1
 13 14  1  0
 14  7  1  0
 15 17  1  0
 15 13  1  0
 16 15  2  0
 18 17  1  0
 18 22  1  0
 19 20  1  0
 18 19  1  6
 20 24  1  0
 21 20  2  0
 22 23  1  0
 25 22  2  0
M  END
$$$$
