NMD.pdb
     RDKit          3D

 25 24  0  0  1  0  0  0  0  0999 V2000
   17.1597  -12.9020  -19.0377 N   0  0  0  0  0  0  0  0  0  0  0  0
   16.7234  -11.8627  -18.2049 C   0  0  0  0  0  0  0  0  0  0  0  0
   15.5569  -11.4024  -18.2997 O   0  0  0  0  0  0  0  0  0  0  0  0
   17.6207  -11.2852  -17.1995 C   0  0  0  0  0  0  0  0  0  0  0  0
   18.9575  -11.9868  -17.2633 C   0  0  2  0  0  0  0  0  0  0  0  0
   18.9240  -13.2788  -16.6236 N   0  0  0  0  0  0  0  0  0  0  0  0
   20.0297  -11.1446  -16.6531 C   0  0  0  0  0  0  0  0  0  0  0  0
   20.0079  -10.8231  -15.4386 O   0  0  0  0  0  0  0  0  0  0  0  0
   27.0103  -10.4376  -14.8509 C   0  0  0  0  0  0  0  0  0  0  0  0
   25.7898  -11.3502  -15.8466 S   0  0  0  0  0  0  0  0  0  0  0  0
   24.6876  -10.0572  -16.5725 C   0  0  0  0  0  0  0  0  0  0  0  0
   23.5261  -10.6894  -17.2558 C   0  0  0  0  0  0  0  0  0  0  0  0
   22.2470  -10.0329  -16.8387 C   0  0  2  0  0  0  0  0  0  0  0  0
   21.0963  -10.6932  -17.4459 N   0  0  0  0  0  0  0  0  0  0  0  0
   22.1778   -8.5751  -17.0763 C   0  0  0  0  0  0  0  0  0  0  0  0
   22.0382   -8.0320  -18.1944 O   0  0  0  0  0  0  0  0  0  0  0  0
   22.2776   -7.7086  -15.9461 N   0  0  0  0  0  0  0  0  0  0  0  0
   22.2032   -6.2695  -16.0543 C   0  0  1  0  0  0  0  0  0  0  0  0
   21.9261   -5.7045  -14.6879 C   0  0  0  0  0  0  0  0  0  0  0  0
   21.7546   -4.2390  -14.7632 C   0  0  0  0  0  0  0  0  0  0  0  0
   21.8611   -3.6264  -15.8478 O   0  0  0  0  0  0  0  0  0  0  0  0
   23.5177   -5.7910  -16.5815 C   0  0  0  0  0  0  0  0  0  0  0  0
   24.7155   -6.1553  -15.9872 O   0  0  0  0  0  0  0  0  0  0  0  0
   21.4664   -3.5193  -13.5963 O   0  0  0  0  0  0  0  0  0  0  0  0
   23.5431   -5.0427  -17.5845 O   0  0  0  0  0  0  0  0  0  0  0  0
  2  1  1  0
  2  3  2  0
  4  5  1  0
  4  2  1  0
  5  6  1  1
  7  5  1  0
  7  8  2  0
  9 10  1  0
 11 10  1  0
 12 11  1  0
 13 12  1  6
 13 14  1  0
 14  7  1  0
 15 17  1  0
 15 13  1  0
 16 15  2  0
 18 17  1  0
 18 22  1  0
 19 20  1  0
 18 19  1  1
 20 24  1  0
 21 20  2  0
 22 23  1  0
 25 22  2  0
M  END
$$$$
