NMD.pdb
     RDKit          3D

 25 24  0  0  1  0  0  0  0  0999 V2000
   19.9815  -10.9430  -21.8392 N   0  0  0  0  0  0  0  0  0  0  0  0
   20.0002   -9.9637  -20.8368 C   0  0  0  0  0  0  0  0  0  0  0  0
   19.8375   -8.7481  -21.1151 O   0  0  0  0  0  0  0  0  0  0  0  0
   20.2112  -10.3351  -19.4343 C   0  0  0  0  0  0  0  0  0  0  0  0
   20.7430   -9.1403  -18.6772 C   0  0  2  0  0  0  0  0  0  0  0  0
   22.1260   -8.8730  -18.9861 N   0  0  0  0  0  0  0  0  0  0  0  0
   20.5776   -9.3274  -17.2045 C   0  0  0  0  0  0  0  0  0  0  0  0
   19.4591   -9.5814  -16.6913 O   0  0  0  0  0  0  0  0  0  0  0  0
   23.8599  -14.2487  -15.2583 C   0  0  0  0  0  0  0  0  0  0  0  0
   24.0348  -12.6480  -14.4093 S   0  0  0  0  0  0  0  0  0  0  0  0
   22.6102  -11.6273  -14.9941 C   0  0  0  0  0  0  0  0  0  0  0  0
   22.6587  -10.2705  -14.3838 C   0  0  0  0  0  0  0  0  0  0  0  0
   21.5562   -9.4110  -14.9194 C   0  0  2  0  0  0  0  0  0  0  0  0
   21.6929   -9.2194  -16.3593 N   0  0  0  0  0  0  0  0  0  0  0  0
   21.3906   -8.1039  -14.2481 C   0  0  0  0  0  0  0  0  0  0  0  0
   21.1761   -7.9422  -13.0264 O   0  0  0  0  0  0  0  0  0  0  0  0
   21.4804   -6.9255  -15.0488 N   0  0  0  0  0  0  0  0  0  0  0  0
   21.2938   -5.5974  -14.5107 C   0  0  1  0  0  0  0  0  0  0  0  0
   22.2804   -4.6743  -15.1721 C   0  0  0  0  0  0  0  0  0  0  0  0
   22.0832   -3.2883  -14.7000 C   0  0  0  0  0  0  0  0  0  0  0  0
   21.3505   -3.0330  -13.7197 O   0  0  0  0  0  0  0  0  0  0  0  0
   19.8869   -5.1876  -14.8063 C   0  0  0  0  0  0  0  0  0  0  0  0
   19.1000   -5.8869  -15.7076 O   0  0  0  0  0  0  0  0  0  0  0  0
   22.7298   -2.2372  -15.3631 O   0  0  0  0  0  0  0  0  0  0  0  0
   19.4022   -4.1889  -14.2280 O   0  0  0  0  0  0  0  0  0  0  0  0
  2  1  1  0
  2  3  2  0
  4  5  1  0
  4  2  1  0
  5  6  1  1
  7  5  1  0
  7  8  2  0
  9 10  1  0
 11 10  1  0
 12 11  1  0
 13 12  1  1
 13 14  1  0
 14  7  1  0
 15 17  1  0
 15 13  1  0
 16 15  2  0
 18 17  1  0
 18 22  1  0
 19 20  1  0
 18 19  1  6
 20 24  1  0
 21 20  2  0
 22 23  1  0
 25 22  2  0
M  END
$$$$
