NMD.pdb
     RDKit          3D

 25 24  0  0  1  0  0  0  0  0999 V2000
   28.5746  -20.2715  -16.4597 N   0  0  0  0  0  0  0  0  0  0  0  0
   28.5295  -21.6617  -16.2883 C   0  0  0  0  0  0  0  0  0  0  0  0
   29.3630  -22.4123  -16.8572 O   0  0  0  0  0  0  0  0  0  0  0  0
   27.5048  -22.2761  -15.4387 C   0  0  0  0  0  0  0  0  0  0  0  0
   26.6460  -21.1916  -14.8307 C   0  0  2  0  0  0  0  0  0  0  0  0
   27.2977  -19.9054  -14.8540 N   0  0  0  0  0  0  0  0  0  0  0  0
   26.2601  -21.5412  -13.4307 C   0  0  0  0  0  0  0  0  0  0  0  0
   25.6779  -22.6198  -13.1544 O   0  0  0  0  0  0  0  0  0  0  0  0
   26.5568  -20.4323   -5.7495 C   0  0  0  0  0  0  0  0  0  0  0  0
   27.4751  -20.2132   -7.3059 S   0  0  0  0  0  0  0  0  0  0  0  0
   26.2681  -20.6161   -8.6454 C   0  0  0  0  0  0  0  0  0  0  0  0
   26.9088  -20.4737   -9.9814 C   0  0  0  0  0  0  0  0  0  0  0  0
   25.9430  -20.8243  -11.0701 C   0  0  2  0  0  0  0  0  0  0  0  0
   26.5496  -20.6501  -12.3855 N   0  0  0  0  0  0  0  0  0  0  0  0
   24.6442  -20.1197  -11.0142 C   0  0  0  0  0  0  0  0  0  0  0  0
   24.4988  -18.8826  -10.8997 O   0  0  0  0  0  0  0  0  0  0  0  0
   23.4544  -20.9043  -11.0962 N   0  0  0  0  0  0  0  0  0  0  0  0
   22.2153  -20.3930  -11.6362 C   0  0  1  0  0  0  0  0  0  0  0  0
   22.4826  -19.8643  -13.0190 C   0  0  0  0  0  0  0  0  0  0  0  0
   21.2250  -19.4092  -13.6467 C   0  0  0  0  0  0  0  0  0  0  0  0
   20.4397  -18.6421  -13.0486 O   0  0  0  0  0  0  0  0  0  0  0  0
   21.2396  -21.5250  -11.6687 C   0  0  0  0  0  0  0  0  0  0  0  0
   19.9113  -21.3504  -11.3141 O   0  0  0  0  0  0  0  0  0  0  0  0
   20.9042  -19.8452  -14.9389 O   0  0  0  0  0  0  0  0  0  0  0  0
   21.6263  -22.6611  -12.0245 O   0  0  0  0  0  0  0  0  0  0  0  0
  2  1  1  0
  2  3  2  0
  4  5  1  0
  4  2  1  0
  5  6  1  1
  7  5  1  0
  7  8  2  0
  9 10  1  0
 11 10  1  0
 12 11  1  0
 13 12  1  1
 13 14  1  0
 14  7  1  0
 15 17  1  0
 15 13  1  0
 16 15  2  0
 18 17  1  0
 18 22  1  0
 19 20  1  0
 18 19  1  6
 20 24  1  0
 21 20  2  0
 22 23  1  0
 25 22  2  0
M  END
$$$$
