NMD.pdb
     RDKit          3D

 25 24  0  0  1  0  0  0  0  0999 V2000
   28.7575  -18.2827  -16.2411 N   0  0  0  0  0  0  0  0  0  0  0  0
   27.4752  -17.9100  -15.8158 C   0  0  0  0  0  0  0  0  0  0  0  0
   26.9349  -16.8543  -16.2344 O   0  0  0  0  0  0  0  0  0  0  0  0
   26.7308  -18.7454  -14.8686 C   0  0  0  0  0  0  0  0  0  0  0  0
   27.5932  -19.9136  -14.4502 C   0  0  2  0  0  0  0  0  0  0  0  0
   27.8393  -20.8251  -15.5403 N   0  0  0  0  0  0  0  0  0  0  0  0
   26.9765  -20.6462  -13.3038 C   0  0  0  0  0  0  0  0  0  0  0  0
   26.7427  -21.8797  -13.3556 O   0  0  0  0  0  0  0  0  0  0  0  0
   28.3711  -20.2827   -7.0385 C   0  0  0  0  0  0  0  0  0  0  0  0
   26.5559  -20.1750   -6.9548 S   0  0  0  0  0  0  0  0  0  0  0  0
   25.9519  -20.8634   -8.5594 C   0  0  0  0  0  0  0  0  0  0  0  0
   26.5447  -20.1147   -9.7013 C   0  0  0  0  0  0  0  0  0  0  0  0
   26.0302  -20.6440  -11.0036 C   0  0  2  0  0  0  0  0  0  0  0  0
   26.6442  -19.9506  -12.1309 N   0  0  0  0  0  0  0  0  0  0  0  0
   24.5587  -20.6432  -11.1493 C   0  0  0  0  0  0  0  0  0  0  0  0
   23.7556  -20.1001  -10.3588 O   0  0  0  0  0  0  0  0  0  0  0  0
   23.9988  -21.3131  -12.2787 N   0  0  0  0  0  0  0  0  0  0  0  0
   22.5979  -21.2292  -12.6234 C   0  0  1  0  0  0  0  0  0  0  0  0
   22.2597  -19.7874  -12.8876 C   0  0  0  0  0  0  0  0  0  0  0  0
   20.8256  -19.6479  -13.2147 C   0  0  0  0  0  0  0  0  0  0  0  0
   20.3477  -20.1310  -14.2641 O   0  0  0  0  0  0  0  0  0  0  0  0
   22.3852  -22.0674  -13.8427 C   0  0  0  0  0  0  0  0  0  0  0  0
   21.2345  -22.8199  -14.0161 O   0  0  0  0  0  0  0  0  0  0  0  0
   19.9825  -18.9606  -12.3319 O   0  0  0  0  0  0  0  0  0  0  0  0
   23.2650  -22.0938  -14.7327 O   0  0  0  0  0  0  0  0  0  0  0  0
  2  1  1  0
  2  3  2  0
  4  5  1  0
  4  2  1  0
  5  6  1  6
  7  5  1  0
  7  8  2  0
  9 10  1  0
 11 10  1  0
 12 11  1  0
 13 12  1  1
 13 14  1  0
 14  7  1  0
 15 17  1  0
 15 13  1  0
 16 15  2  0
 18 17  1  0
 18 22  1  0
 19 20  1  0
 18 19  1  6
 20 24  1  0
 21 20  2  0
 22 23  1  0
 25 22  2  0
M  END
$$$$
