MRK.pdb
     RDKit          3D

 29 28  0  0  1  0  0  0  0  0999 V2000
    5.4516  -11.3124   26.1790 C   0  0  0  0  0  0  0  0  0  0  0  0
    6.7302  -12.1736   27.1118 S   0  0  0  0  0  0  0  0  0  0  0  0
    6.2493  -13.8532   27.5537 C   0  0  0  0  0  0  0  0  0  0  0  0
    6.1396  -14.7692   26.3769 C   0  0  0  0  0  0  0  0  0  0  0  0
    7.4778  -15.1770   25.8120 C   0  0  2  0  0  0  0  0  0  0  0  0
    8.4861  -14.1771   26.1050 N   0  0  0  0  0  0  0  0  0  0  0  0
    7.4378  -15.4509   24.3721 C   0  0  0  0  0  0  0  0  0  0  0  0
    6.7671  -16.4208   23.9317 O   0  0  0  0  0  0  0  0  0  0  0  0
    7.4594  -14.3153   15.2789 N   0  0  0  0  0  0  0  0  0  0  0  0
    8.2470  -14.0918   16.4589 C   0  0  0  0  0  0  0  0  0  0  0  0
    9.4816  -14.4483   16.4280 N   0  0  0  0  0  0  0  0  0  0  0  0
    7.7037  -13.5036   17.6189 N   0  0  0  0  0  0  0  0  0  0  0  0
    8.5442  -13.2413   18.7526 C   0  0  0  0  0  0  0  0  0  0  0  0
    8.6338  -14.4614   19.6695 C   0  0  0  0  0  0  0  0  0  0  0  0
    8.3006  -13.9969   21.0706 C   0  0  0  0  0  0  0  0  0  0  0  0
    8.3532  -15.1353   22.0615 C   0  0  2  0  0  0  0  0  0  0  0  0
    8.1344  -14.6584   23.4261 N   0  0  0  0  0  0  0  0  0  0  0  0
    9.6772  -15.7963   21.9280 C   0  0  0  0  0  0  0  0  0  0  0  0
   10.7062  -15.2922   22.4415 O   0  0  0  0  0  0  0  0  0  0  0  0
   10.0566  -14.3999   17.2915 N   0  0  0  0  0  0  0  0  0  0  0  0
    9.7959  -17.0064   21.2178 C   0  0  2  0  0  0  0  0  0  0  0  0
   11.1485  -17.7083   21.1619 C   0  0  0  0  0  0  0  0  0  0  0  0
   11.0168  -18.9168   21.9864 C   0  0  0  0  0  0  0  0  0  0  0  0
   12.1318  -19.5377   22.6975 C   0  0  0  0  0  0  0  0  0  0  0  0
   11.9025  -20.7461   23.5047 C   0  0  0  0  0  0  0  0  0  0  0  0
   13.3102  -21.1997   24.0157 N   0  0  0  0  0  0  0  0  0  0  0  0
   13.0893  -22.3438   24.8807 C   0  0  0  0  0  0  0  0  0  0  0  0
   11.5051  -17.7627   19.7698 O   0  0  0  0  0  0  0  0  0  0  0  0
   10.6971  -17.6984   18.8343 O   0  0  0  0  0  0  0  0  0  0  0  0
  2  1  1  0
  3  2  1  0
  4  3  1  0
  4  5  1  0
  5  7  1  0
  5  6  1  6
  7  8  2  0
  9 10  1  0
 10 12  1  0
 11 10  2  0
 12 13  1  0
 13 14  1  0
 14 15  1  0
 16 15  1  6
 17 16  1  0
 17  7  1  0
 18 19  2  0
 18 16  1  0
 20 18  1  0
 21 27  1  0
 21 20  1  0
 21 22  1  6
 23 22  1  0
 24 23  1  0
 25 24  1  0
 26 25  1  0
 27 29  1  0
 28 27  2  0
M  END
$$$$
