MRK.pdb
     RDKit          3D

 29 28  0  0  1  0  0  0  0  0999 V2000
    6.0648  -10.5551   27.8773 C   0  0  0  0  0  0  0  0  0  0  0  0
    6.6724  -12.0847   27.1442 S   0  0  0  0  0  0  0  0  0  0  0  0
    5.3595  -13.2887   26.8717 C   0  0  0  0  0  0  0  0  0  0  0  0
    5.8073  -14.4940   26.1085 C   0  0  0  0  0  0  0  0  0  0  0  0
    7.3052  -14.5760   25.9487 C   0  0  2  0  0  0  0  0  0  0  0  0
    7.8767  -13.2553   25.7716 N   0  0  0  0  0  0  0  0  0  0  0  0
    7.7221  -15.4602   24.8557 C   0  0  0  0  0  0  0  0  0  0  0  0
    7.3552  -16.6643   24.8421 O   0  0  0  0  0  0  0  0  0  0  0  0
    8.1665  -12.6673   18.3722 N   0  0  0  0  0  0  0  0  0  0  0  0
    8.4450  -14.0471   18.0870 C   0  0  0  0  0  0  0  0  0  0  0  0
    9.1572  -14.3095   17.0496 N   0  0  0  0  0  0  0  0  0  0  0  0
    7.9635  -15.0902   18.9035 N   0  0  0  0  0  0  0  0  0  0  0  0
    7.0326  -14.8055   19.9585 C   0  0  0  0  0  0  0  0  0  0  0  0
    7.7578  -14.4129   21.2458 C   0  0  0  0  0  0  0  0  0  0  0  0
    8.9503  -15.3333   21.3894 C   0  0  0  0  0  0  0  0  0  0  0  0
    9.0149  -15.9498   22.7664 C   0  0  2  0  0  0  0  0  0  0  0  0
    8.5387  -15.0164   23.7860 N   0  0  0  0  0  0  0  0  0  0  0  0
   10.4223  -16.3529   23.0208 C   0  0  0  0  0  0  0  0  0  0  0  0
   11.3055  -15.4957   23.2692 O   0  0  0  0  0  0  0  0  0  0  0  0
    9.2774  -15.2932   16.7390 N   0  0  0  0  0  0  0  0  0  0  0  0
   10.7865  -17.7127   22.9861 C   0  0  2  0  0  0  0  0  0  0  0  0
   12.2150  -18.1111   23.3411 C   0  0  0  0  0  0  0  0  0  0  0  0
   12.1058  -19.2678   24.2397 C   0  0  0  0  0  0  0  0  0  0  0  0
   11.6861  -19.1720   25.6359 C   0  0  0  0  0  0  0  0  0  0  0  0
   11.4508  -20.3978   26.4147 C   0  0  0  0  0  0  0  0  0  0  0  0
   11.0815  -19.9284   27.8610 N   0  0  0  0  0  0  0  0  0  0  0  0
   10.8751  -21.1302   28.6478 C   0  0  0  0  0  0  0  0  0  0  0  0
   12.9271  -18.1717   22.0932 O   0  0  0  0  0  0  0  0  0  0  0  0
   12.3900  -18.2452   20.9804 O   0  0  0  0  0  0  0  0  0  0  0  0
  2  1  1  0
  3  2  1  0
  4  3  1  0
  4  5  1  0
  5  7  1  0
  5  6  1  6
  7  8  2  0
  9 10  1  0
 10 12  1  0
 11 10  2  0
 12 13  1  0
 13 14  1  0
 14 15  1  0
 16 15  1  6
 17 16  1  0
 17  7  1  0
 18 19  2  0
 18 16  1  0
 20 18  1  0
 21 27  1  0
 21 20  1  0
 21 22  1  1
 23 22  1  0
 24 23  1  0
 25 24  1  0
 26 25  1  0
 27 29  1  0
 28 27  2  0
M  END
$$$$
