MRK.pdb
     RDKit          3D

 29 28  0  0  1  0  0  0  0  0999 V2000
    6.8422  -10.6473   26.5034 C   0  0  0  0  0  0  0  0  0  0  0  0
    6.3936  -11.9888   27.6194 S   0  0  0  0  0  0  0  0  0  0  0  0
    5.8642  -13.4702   26.7403 C   0  0  0  0  0  0  0  0  0  0  0  0
    6.9697  -14.1451   25.9934 C   0  0  0  0  0  0  0  0  0  0  0  0
    6.4953  -15.2875   25.1297 C   0  0  2  0  0  0  0  0  0  0  0  0
    5.9128  -16.3384   25.9412 N   0  0  0  0  0  0  0  0  0  0  0  0
    7.5472  -15.8358   24.2678 C   0  0  0  0  0  0  0  0  0  0  0  0
    8.1952  -16.8523   24.6302 O   0  0  0  0  0  0  0  0  0  0  0  0
    6.7973  -13.4164   17.6494 N   0  0  0  0  0  0  0  0  0  0  0  0
    7.9464  -14.1994   17.2900 C   0  0  0  0  0  0  0  0  0  0  0  0
    8.7006  -13.7542   16.3492 N   0  0  0  0  0  0  0  0  0  0  0  0
    8.2529  -15.4149   17.9344 N   0  0  0  0  0  0  0  0  0  0  0  0
    7.5334  -15.8041   19.1140 C   0  0  0  0  0  0  0  0  0  0  0  0
    7.7330  -14.7930   20.2432 C   0  0  0  0  0  0  0  0  0  0  0  0
    9.0738  -15.0878   20.8796 C   0  0  0  0  0  0  0  0  0  0  0  0
    8.9200  -15.8532   22.1723 C   0  0  2  0  0  0  0  0  0  0  0  0
    7.8802  -15.2644   23.0145 N   0  0  0  0  0  0  0  0  0  0  0  0
   10.2359  -15.8532   22.8625 C   0  0  0  0  0  0  0  0  0  0  0  0
   10.6274  -14.8499   23.5080 O   0  0  0  0  0  0  0  0  0  0  0  0
    9.5326  -14.2994   16.0503 N   0  0  0  0  0  0  0  0  0  0  0  0
   11.0677  -16.9877   22.8007 C   0  0  2  0  0  0  0  0  0  0  0  0
   12.3373  -17.0281   23.6445 C   0  0  0  0  0  0  0  0  0  0  0  0
   12.2646  -18.2643   24.4342 C   0  0  0  0  0  0  0  0  0  0  0  0
   12.6688  -18.3555   25.8353 C   0  0  0  0  0  0  0  0  0  0  0  0
   12.5823  -19.6444   26.5392 C   0  0  0  0  0  0  0  0  0  0  0  0
   13.1874  -19.4029   27.9619 N   0  0  0  0  0  0  0  0  0  0  0  0
   12.9949  -20.6318   28.7093 C   0  0  0  0  0  0  0  0  0  0  0  0
   13.4200  -16.7580   22.7374 O   0  0  0  0  0  0  0  0  0  0  0  0
   14.5676  -16.4501   23.0847 O   0  0  0  0  0  0  0  0  0  0  0  0
  2  1  1  0
  3  2  1  0
  4  3  1  0
  4  5  1  0
  5  7  1  0
  5  6  1  1
  7  8  2  0
  9 10  1  0
 10 12  1  0
 11 10  2  0
 12 13  1  0
 13 14  1  0
 14 15  1  0
 16 15  1  6
 17 16  1  0
 17  7  1  0
 18 19  2  0
 18 16  1  0
 20 18  1  0
 21 27  1  0
 21 20  1  0
 21 22  1  1
 23 22  1  0
 24 23  1  0
 25 24  1  0
 26 25  1  0
 27 29  1  0
 28 27  2  0
M  END
$$$$
