MRK.pdb
     RDKit          3D

 29 28  0  0  1  0  0  0  0  0999 V2000
    5.0926  -12.1414   25.7376 C   0  0  0  0  0  0  0  0  0  0  0  0
    6.3125  -11.7510   27.0049 S   0  0  0  0  0  0  0  0  0  0  0  0
    7.3881  -13.1472   27.3810 C   0  0  0  0  0  0  0  0  0  0  0  0
    7.1154  -14.3517   26.5380 C   0  0  0  0  0  0  0  0  0  0  0  0
    8.3641  -15.1067   26.1552 C   0  0  2  0  0  0  0  0  0  0  0  0
    9.5085  -14.2177   26.1075 N   0  0  0  0  0  0  0  0  0  0  0  0
    8.2338  -15.8347   24.8890 C   0  0  0  0  0  0  0  0  0  0  0  0
    7.4460  -16.8125   24.8004 O   0  0  0  0  0  0  0  0  0  0  0  0
    8.3324  -11.9528   19.2438 N   0  0  0  0  0  0  0  0  0  0  0  0
    8.3744  -13.2820   18.7013 C   0  0  0  0  0  0  0  0  0  0  0  0
    9.1986  -13.5083   17.7413 N   0  0  0  0  0  0  0  0  0  0  0  0
    7.5494  -14.3146   19.1910 N   0  0  0  0  0  0  0  0  0  0  0  0
    6.8856  -14.1656   20.4550 C   0  0  0  0  0  0  0  0  0  0  0  0
    7.8440  -14.4249   21.6176 C   0  0  0  0  0  0  0  0  0  0  0  0
    8.5722  -15.7178   21.3209 C   0  0  0  0  0  0  0  0  0  0  0  0
    9.0473  -16.3918   22.5860 C   0  0  2  0  0  0  0  0  0  0  0  0
    8.9693  -15.4843   23.7295 N   0  0  0  0  0  0  0  0  0  0  0  0
   10.4410  -16.8554   22.3608 C   0  0  0  0  0  0  0  0  0  0  0  0
   11.4132  -16.2611   22.8882 O   0  0  0  0  0  0  0  0  0  0  0  0
    9.2012  -14.4327   17.2679 N   0  0  0  0  0  0  0  0  0  0  0  0
   10.6913  -17.9763   21.5460 C   0  0  2  0  0  0  0  0  0  0  0  0
   12.1172  -18.5015   21.4181 C   0  0  0  0  0  0  0  0  0  0  0  0
   12.0137  -19.9665   21.4019 C   0  0  0  0  0  0  0  0  0  0  0  0
   13.1470  -20.8560   21.1589 C   0  0  0  0  0  0  0  0  0  0  0  0
   12.9243  -22.3036   21.0206 C   0  0  0  0  0  0  0  0  0  0  0  0
   14.3254  -22.9308   20.7167 N   0  0  0  0  0  0  0  0  0  0  0  0
   14.1465  -24.3709   20.7255 C   0  0  0  0  0  0  0  0  0  0  0  0
   12.7128  -17.7609   20.3389 O   0  0  0  0  0  0  0  0  0  0  0  0
   12.0885  -17.2982   19.3754 O   0  0  0  0  0  0  0  0  0  0  0  0
  2  1  1  0
  3  2  1  0
  4  3  1  0
  4  5  1  0
  5  7  1  0
  5  6  1  6
  7  8  2  0
  9 10  1  0
 10 12  1  0
 11 10  2  0
 12 13  1  0
 13 14  1  0
 14 15  1  0
 16 15  1  6
 17 16  1  0
 17  7  1  0
 18 19  2  0
 18 16  1  0
 20 18  1  0
 21 27  1  0
 21 20  1  0
 21 22  1  6
 23 22  1  0
 24 23  1  0
 25 24  1  0
 26 25  1  0
 27 29  1  0
 28 27  2  0
M  END
$$$$
