MRK.pdb
     RDKit          3D

 29 28  0  0  1  0  0  0  0  0999 V2000
    8.0789  -11.2261   27.3576 C   0  0  0  0  0  0  0  0  0  0  0  0
    6.6280  -11.6968   26.3985 S   0  0  0  0  0  0  0  0  0  0  0  0
    6.0777  -13.3748   26.7578 C   0  0  0  0  0  0  0  0  0  0  0  0
    7.0542  -14.4244   26.3329 C   0  0  0  0  0  0  0  0  0  0  0  0
    6.6910  -15.0823   25.0248 C   0  0  2  0  0  0  0  0  0  0  0  0
    5.4271  -15.7842   25.1355 N   0  0  0  0  0  0  0  0  0  0  0  0
    7.7314  -15.9862   24.5241 C   0  0  0  0  0  0  0  0  0  0  0  0
    7.8768  -17.1272   25.0355 O   0  0  0  0  0  0  0  0  0  0  0  0
    7.1054  -14.7278   18.5782 N   0  0  0  0  0  0  0  0  0  0  0  0
    7.8480  -13.5718   18.9964 C   0  0  0  0  0  0  0  0  0  0  0  0
    7.1827  -12.5193   19.3154 N   0  0  0  0  0  0  0  0  0  0  0  0
    9.2560  -13.5721   19.0614 N   0  0  0  0  0  0  0  0  0  0  0  0
    9.9463  -14.6676   19.6809 C   0  0  0  0  0  0  0  0  0  0  0  0
    9.3061  -15.0404   21.0182 C   0  0  0  0  0  0  0  0  0  0  0  0
   10.1475  -16.1399   21.6291 C   0  0  0  0  0  0  0  0  0  0  0  0
    9.6088  -16.5718   22.9721 C   0  0  2  0  0  0  0  0  0  0  0  0
    8.6046  -15.6311   23.4660 N   0  0  0  0  0  0  0  0  0  0  0  0
   10.7553  -16.6777   23.9115 C   0  0  0  0  0  0  0  0  0  0  0  0
   11.2512  -15.6546   24.4442 O   0  0  0  0  0  0  0  0  0  0  0  0
    7.6836  -11.6635   19.6242 N   0  0  0  0  0  0  0  0  0  0  0  0
   11.3048  -17.9373   24.2186 C   0  0  1  0  0  0  0  0  0  0  0  0
   12.6136  -18.0096   24.9979 C   0  0  0  0  0  0  0  0  0  0  0  0
   12.6139  -19.3120   25.6771 C   0  0  0  0  0  0  0  0  0  0  0  0
   12.1189  -19.5168   27.0363 C   0  0  0  0  0  0  0  0  0  0  0  0
   10.9259  -20.3473   27.2629 C   0  0  0  0  0  0  0  0  0  0  0  0
   10.6663  -20.3215   28.8059 N   0  0  0  0  0  0  0  0  0  0  0  0
    9.4416  -21.0659   29.0335 C   0  0  0  0  0  0  0  0  0  0  0  0
   13.6439  -17.6259   24.0710 O   0  0  0  0  0  0  0  0  0  0  0  0
   13.5111  -17.6081   22.8404 O   0  0  0  0  0  0  0  0  0  0  0  0
  2  1  1  0
  3  2  1  0
  4  3  1  0
  4  5  1  0
  5  7  1  0
  5  6  1  1
  7  8  2  0
  9 10  1  0
 10 12  1  0
 11 10  2  0
 12 13  1  0
 13 14  1  0
 14 15  1  0
 16 15  1  6
 17 16  1  0
 17  7  1  0
 18 19  2  0
 18 16  1  0
 20 18  1  0
 21 27  1  0
 21 20  1  0
 21 22  1  1
 23 22  1  0
 24 23  1  0
 25 24  1  0
 26 25  1  0
 27 29  1  0
 28 27  2  0
M  END
$$$$
