TMP.pdb
     RDKit          3D

 23 23  0  0  1  0  0  0  0  0999 V2000
    7.2863  -16.4091   19.6593 C   0  0  0  0  0  0  0  0  0  0  0  0
    7.8175  -15.1718   18.9809 C   0  0  1  0  0  0  0  0  0  0  0  0
    7.5571  -15.1314   17.6253 O   0  0  0  0  0  0  0  0  0  0  0  0
    7.3860  -13.9113   19.6997 C   0  0  2  0  0  0  0  0  0  0  0  0
    7.7626  -12.7888   18.8611 N   0  0  0  0  0  0  0  0  0  0  0  0
    7.9564  -13.8128   21.0506 C   0  0  0  0  0  0  0  0  0  0  0  0
    9.1542  -13.4804   21.1900 O   0  0  0  0  0  0  0  0  0  0  0  0
    7.7812  -11.6705   28.0474 C   0  0  0  0  0  0  0  0  0  0  0  0
    7.3780  -11.7487   26.2947 S   0  0  0  0  0  0  0  0  0  0  0  0
    6.9163  -13.4641   25.8388 C   0  0  0  0  0  0  0  0  0  0  0  0
    6.6707  -13.4705   24.3724 C   0  0  0  0  0  0  0  0  0  0  0  0
    7.7933  -14.0421   23.5178 C   0  0  2  0  0  0  0  0  0  0  0  0
    7.1464  -14.0938   22.1687 N   0  0  0  0  0  0  0  0  0  0  0  0
    8.1413  -15.4308   23.8537 C   0  0  0  0  0  0  0  0  0  0  0  0
    7.2920  -16.3387   23.5286 O   0  0  0  0  0  0  0  0  0  0  0  0
    9.3097  -15.8573   24.4907 N   0  0  0  0  0  0  0  0  0  0  0  0
   10.2992  -14.9415   25.0941 C   0  0  0  0  0  0  0  0  0  0  0  0
   11.5048  -15.8028   25.4003 C   0  0  0  0  0  0  0  0  0  0  0  0
   11.2763  -16.9986   24.5010 C   0  0  0  0  0  0  0  0  0  0  0  0
    9.7651  -17.2046   24.7367 C   0  0  1  0  0  0  0  0  0  0  0  0
    9.6578  -17.5255   26.2116 C   0  0  0  0  0  0  0  0  0  0  0  0
    9.9441  -18.7830   26.7029 O   0  0  0  0  0  0  0  0  0  0  0  0
    9.3011  -16.6338   27.0117 O   0  0  0  0  0  0  0  0  0  0  0  0
  2  1  1  1
  3  2  1  0
  4  2  1  0
  4  6  1  0
  4  5  1  6
  6  7  2  0
  9 10  1  0
  9  8  1  0
 10 11  1  0
 12 11  1  1
 13 12  1  0
 13  6  1  0
 14 12  1  0
 14 15  2  0
 16 14  1  0
 17 16  1  0
 18 17  1  0
 18 19  1  0
 19 20  1  0
 20 16  1  0
 20 21  1  1
 21 22  1  0
 23 21  2  0
M  END
$$$$
