TMP.pdb
     RDKit          3D

 23 23  0  0  1  0  0  0  0  0999 V2000
    6.1734  -18.2381   19.2516 C   0  0  0  0  0  0  0  0  0  0  0  0
    7.0925  -17.7628   20.3483 C   0  0  1  0  0  0  0  0  0  0  0  0
    8.2195  -18.5462   20.5014 O   0  0  0  0  0  0  0  0  0  0  0  0
    7.4152  -16.2905   20.2082 C   0  0  2  0  0  0  0  0  0  0  0  0
    8.1457  -16.1276   18.9653 N   0  0  0  0  0  0  0  0  0  0  0  0
    8.1581  -15.7668   21.3632 C   0  0  0  0  0  0  0  0  0  0  0  0
    9.4088  -15.7682   21.3423 O   0  0  0  0  0  0  0  0  0  0  0  0
    6.8585  -11.3250   27.7010 C   0  0  0  0  0  0  0  0  0  0  0  0
    6.3367  -12.1983   26.2159 S   0  0  0  0  0  0  0  0  0  0  0  0
    7.6870  -13.2935   25.6318 C   0  0  0  0  0  0  0  0  0  0  0  0
    7.2668  -13.8308   24.3106 C   0  0  0  0  0  0  0  0  0  0  0  0
    8.2563  -14.7701   23.6354 C   0  0  2  0  0  0  0  0  0  0  0  0
    7.4515  -15.2707   22.4767 N   0  0  0  0  0  0  0  0  0  0  0  0
    8.5876  -15.9552   24.4407 C   0  0  0  0  0  0  0  0  0  0  0  0
    7.6679  -16.8421   24.5770 O   0  0  0  0  0  0  0  0  0  0  0  0
    9.8093  -16.2097   25.0696 N   0  0  0  0  0  0  0  0  0  0  0  0
   10.8968  -15.2171   25.1873 C   0  0  0  0  0  0  0  0  0  0  0  0
   12.0995  -15.9986   25.6686 C   0  0  0  0  0  0  0  0  0  0  0  0
   11.7209  -17.4182   25.3053 C   0  0  0  0  0  0  0  0  0  0  0  0
   10.2434  -17.4057   25.7511 C   0  0  1  0  0  0  0  0  0  0  0  0
   10.3058  -17.1573   27.2425 C   0  0  0  0  0  0  0  0  0  0  0  0
    9.8901  -15.9638   27.7969 O   0  0  0  0  0  0  0  0  0  0  0  0
   10.7443  -18.0513   27.9981 O   0  0  0  0  0  0  0  0  0  0  0  0
  2  1  1  6
  3  2  1  0
  4  2  1  0
  4  6  1  0
  4  5  1  6
  6  7  2  0
  9 10  1  0
  9  8  1  0
 10 11  1  0
 12 11  1  1
 13 12  1  0
 13  6  1  0
 14 12  1  0
 14 15  2  0
 16 14  1  0
 17 16  1  0
 18 17  1  0
 18 19  1  0
 19 20  1  0
 20 16  1  0
 20 21  1  1
 21 22  1  0
 23 21  2  0
M  END
$$$$
