TMP.pdb
     RDKit          3D

 23 23  0  0  1  0  0  0  0  0999 V2000
   10.3511  -18.5230   22.3680 C   0  0  0  0  0  0  0  0  0  0  0  0
   10.5905  -17.4686   21.3173 C   0  0  1  0  0  0  0  0  0  0  0  0
   10.7254  -17.9815   20.0421 O   0  0  0  0  0  0  0  0  0  0  0  0
    9.5666  -16.3566   21.3978 C   0  0  2  0  0  0  0  0  0  0  0  0
    9.7481  -15.5204   20.2261 N   0  0  0  0  0  0  0  0  0  0  0  0
    9.6668  -15.5913   22.6486 C   0  0  0  0  0  0  0  0  0  0  0  0
   10.6388  -14.8239   22.8242 O   0  0  0  0  0  0  0  0  0  0  0  0
    6.1918  -11.0574   26.2217 C   0  0  0  0  0  0  0  0  0  0  0  0
    5.7006  -12.7770   26.0164 S   0  0  0  0  0  0  0  0  0  0  0  0
    6.7102  -13.5591   24.7001 C   0  0  0  0  0  0  0  0  0  0  0  0
    7.3845  -14.7340   25.3131 C   0  0  0  0  0  0  0  0  0  0  0  0
    8.8328  -14.9539   24.8989 C   0  0  2  0  0  0  0  0  0  0  0  0
    8.6671  -15.7328   23.6313 N   0  0  0  0  0  0  0  0  0  0  0  0
    9.5820  -15.8263   25.8155 C   0  0  0  0  0  0  0  0  0  0  0  0
    9.9199  -16.9838   25.3716 O   0  0  0  0  0  0  0  0  0  0  0  0
    9.9641  -15.5146   27.1231 N   0  0  0  0  0  0  0  0  0  0  0  0
    9.3272  -14.4593   27.9370 C   0  0  0  0  0  0  0  0  0  0  0  0
   10.2289  -14.2843   29.1393 C   0  0  0  0  0  0  0  0  0  0  0  0
   11.5270  -14.8917   28.6525 C   0  0  0  0  0  0  0  0  0  0  0  0
   10.9683  -16.1449   27.9461 C   0  0  1  0  0  0  0  0  0  0  0  0
   10.3073  -16.9346   29.0548 C   0  0  0  0  0  0  0  0  0  0  0  0
   11.0454  -17.6571   29.9701 O   0  0  0  0  0  0  0  0  0  0  0  0
    9.0609  -16.9377   29.1503 O   0  0  0  0  0  0  0  0  0  0  0  0
  2  1  1  1
  3  2  1  0
  4  2  1  0
  4  6  1  0
  4  5  1  6
  6  7  2  0
  9 10  1  0
  9  8  1  0
 10 11  1  0
 12 11  1  1
 13 12  1  0
 13  6  1  0
 14 12  1  0
 14 15  2  0
 16 14  1  0
 17 16  1  0
 18 17  1  0
 18 19  1  0
 19 20  1  0
 20 16  1  0
 20 21  1  1
 21 22  1  0
 23 21  2  0
M  END
$$$$
