TMP.pdb
     RDKit          3D

 23 23  0  0  1  0  0  0  0  0999 V2000
    6.5433  -15.0078   18.0121 C   0  0  0  0  0  0  0  0  0  0  0  0
    7.3040  -14.9735   19.3134 C   0  0  1  0  0  0  0  0  0  0  0  0
    8.5429  -15.5799   19.2440 O   0  0  0  0  0  0  0  0  0  0  0  0
    7.3663  -13.5744   19.8878 C   0  0  2  0  0  0  0  0  0  0  0  0
    8.1647  -12.7727   18.9797 N   0  0  0  0  0  0  0  0  0  0  0  0
    7.8944  -13.5540   21.2592 C   0  0  0  0  0  0  0  0  0  0  0  0
    9.1169  -13.3649   21.4451 O   0  0  0  0  0  0  0  0  0  0  0  0
    7.7664  -12.2987   28.4904 C   0  0  0  0  0  0  0  0  0  0  0  0
    7.4876  -12.0832   26.7251 S   0  0  0  0  0  0  0  0  0  0  0  0
    6.6397  -13.5602   26.0446 C   0  0  0  0  0  0  0  0  0  0  0  0
    6.4823  -13.3336   24.5835 C   0  0  0  0  0  0  0  0  0  0  0  0
    7.6217  -13.8406   23.7107 C   0  0  2  0  0  0  0  0  0  0  0  0
    7.0169  -13.7476   22.3444 N   0  0  0  0  0  0  0  0  0  0  0  0
    7.9361  -15.2620   23.9187 C   0  0  0  0  0  0  0  0  0  0  0  0
    7.0373  -16.1134   23.5746 O   0  0  0  0  0  0  0  0  0  0  0  0
    9.1212  -15.7750   24.4527 N   0  0  0  0  0  0  0  0  0  0  0  0
   10.2419  -14.9364   24.9246 C   0  0  0  0  0  0  0  0  0  0  0  0
   11.3929  -15.8942   25.1410 C   0  0  0  0  0  0  0  0  0  0  0  0
   10.9726  -17.0874   24.3101 C   0  0  0  0  0  0  0  0  0  0  0  0
    9.4805  -17.1510   24.6993 C   0  0  1  0  0  0  0  0  0  0  0  0
    9.4945  -17.4230   26.1878 C   0  0  0  0  0  0  0  0  0  0  0  0
    9.2623  -16.4229   27.1100 O   0  0  0  0  0  0  0  0  0  0  0  0
    9.7218  -18.5809   26.6004 O   0  0  0  0  0  0  0  0  0  0  0  0
  2  1  1  6
  3  2  1  0
  4  2  1  0
  4  6  1  0
  4  5  1  6
  6  7  2  0
  9 10  1  0
  9  8  1  0
 10 11  1  0
 12 11  1  1
 13 12  1  0
 13  6  1  0
 14 12  1  0
 14 15  2  0
 16 14  1  0
 17 16  1  0
 18 17  1  0
 18 19  1  0
 19 20  1  0
 20 16  1  0
 20 21  1  1
 21 22  1  0
 23 21  2  0
M  END
$$$$
