TMP.pdb
     RDKit          3D

 23 23  0  0  1  0  0  0  0  0999 V2000
    6.0764  -21.8086   25.4609 C   0  0  0  0  0  0  0  0  0  0  0  0
    6.6394  -20.5865   24.7806 C   0  0  1  0  0  0  0  0  0  0  0  0
    7.5676  -20.8792   23.8008 O   0  0  0  0  0  0  0  0  0  0  0  0
    5.5433  -19.6627   24.2942 C   0  0  2  0  0  0  0  0  0  0  0  0
    4.8469  -20.3499   23.2228 N   0  0  0  0  0  0  0  0  0  0  0  0
    6.0597  -18.3530   23.8722 C   0  0  0  0  0  0  0  0  0  0  0  0
    6.4085  -18.1832   22.6829 O   0  0  0  0  0  0  0  0  0  0  0  0
    7.4187  -11.2250   26.9670 C   0  0  0  0  0  0  0  0  0  0  0  0
    6.6271  -12.8414   26.9332 S   0  0  0  0  0  0  0  0  0  0  0  0
    7.2714  -13.8198   25.5220 C   0  0  0  0  0  0  0  0  0  0  0  0
    6.5320  -15.1098   25.5170 C   0  0  0  0  0  0  0  0  0  0  0  0
    6.9002  -16.0770   24.4006 C   0  0  2  0  0  0  0  0  0  0  0  0
    6.1545  -17.3080   24.8125 N   0  0  0  0  0  0  0  0  0  0  0  0
    8.3227  -16.4498   24.3889 C   0  0  0  0  0  0  0  0  0  0  0  0
    8.7043  -17.3170   25.2569 O   0  0  0  0  0  0  0  0  0  0  0  0
    9.2985  -15.9524   23.5212 N   0  0  0  0  0  0  0  0  0  0  0  0
    9.1352  -14.7248   22.7160 C   0  0  0  0  0  0  0  0  0  0  0  0
   10.2892  -14.7332   21.7377 C   0  0  0  0  0  0  0  0  0  0  0  0
   10.7034  -16.1889   21.7490 C   0  0  0  0  0  0  0  0  0  0  0  0
   10.6253  -16.4601   23.2663 C   0  0  1  0  0  0  0  0  0  0  0  0
   11.6585  -15.5308   23.8651 C   0  0  0  0  0  0  0  0  0  0  0  0
   11.2980  -14.4577   24.6545 O   0  0  0  0  0  0  0  0  0  0  0  0
   12.8719  -15.7336   23.6432 O   0  0  0  0  0  0  0  0  0  0  0  0
  2  1  1  6
  3  2  1  0
  4  2  1  0
  4  6  1  0
  4  5  1  6
  6  7  2  0
  9 10  1  0
  9  8  1  0
 10 11  1  0
 12 11  1  1
 13 12  1  0
 13  6  1  0
 14 12  1  0
 14 15  2  0
 16 14  1  0
 17 16  1  0
 18 17  1  0
 18 19  1  0
 19 20  1  0
 20 16  1  0
 20 21  1  1
 21 22  1  0
 23 21  2  0
M  END
$$$$
