TMP.pdb
     RDKit          3D

 23 23  0  0  1  0  0  0  0  0999 V2000
    6.9882  -21.1822   23.9027 C   0  0  0  0  0  0  0  0  0  0  0  0
    7.0265  -19.7603   23.4030 C   0  0  1  0  0  0  0  0  0  0  0  0
    7.3260  -19.6560   22.0589 O   0  0  0  0  0  0  0  0  0  0  0  0
    5.7757  -18.9990   23.7868 C   0  0  2  0  0  0  0  0  0  0  0  0
    4.6579  -19.6519   23.1317 N   0  0  0  0  0  0  0  0  0  0  0  0
    5.8621  -17.5712   23.4490 C   0  0  0  0  0  0  0  0  0  0  0  0
    5.3023  -17.1491   22.4130 O   0  0  0  0  0  0  0  0  0  0  0  0
    6.8562  -13.2311   27.7346 C   0  0  0  0  0  0  0  0  0  0  0  0
    8.0499  -12.5377   26.5793 S   0  0  0  0  0  0  0  0  0  0  0  0
    7.7510  -13.2086   24.8988 C   0  0  0  0  0  0  0  0  0  0  0  0
    7.2513  -14.5984   25.0708 C   0  0  0  0  0  0  0  0  0  0  0  0
    6.8396  -15.3145   23.7921 C   0  0  2  0  0  0  0  0  0  0  0  0
    6.5737  -16.6988   24.2962 N   0  0  0  0  0  0  0  0  0  0  0  0
    7.9281  -15.4426   22.8116 C   0  0  0  0  0  0  0  0  0  0  0  0
    8.6103  -16.5312   22.8379 O   0  0  0  0  0  0  0  0  0  0  0  0
    8.2893  -14.4934   21.8517 N   0  0  0  0  0  0  0  0  0  0  0  0
    7.9030  -13.0692   21.9167 C   0  0  0  0  0  0  0  0  0  0  0  0
    8.2559  -12.4981   20.5608 C   0  0  0  0  0  0  0  0  0  0  0  0
    8.3440  -13.7438   19.7057 C   0  0  0  0  0  0  0  0  0  0  0  0
    9.1133  -14.6621   20.6788 C   0  0  1  0  0  0  0  0  0  0  0  0
   10.4425  -13.9665   20.8761 C   0  0  0  0  0  0  0  0  0  0  0  0
   11.4545  -14.0578   19.9422 O   0  0  0  0  0  0  0  0  0  0  0  0
   10.6366  -13.2902   21.9093 O   0  0  0  0  0  0  0  0  0  0  0  0
  2  1  1  6
  3  2  1  0
  4  2  1  0
  4  6  1  0
  4  5  1  6
  6  7  2  0
  9 10  1  0
  9  8  1  0
 10 11  1  0
 12 11  1  1
 13 12  1  0
 13  6  1  0
 14 12  1  0
 14 15  2  0
 16 14  1  0
 17 16  1  0
 18 17  1  0
 18 19  1  0
 19 20  1  0
 20 16  1  0
 20 21  1  1
 21 22  1  0
 23 21  2  0
M  END
$$$$
