TMP.pdb
     RDKit          3D

 23 23  0  0  1  0  0  0  0  0999 V2000
    6.5377  -20.0600   23.3076 C   0  0  0  0  0  0  0  0  0  0  0  0
    6.1500  -19.4532   21.9829 C   0  0  1  0  0  0  0  0  0  0  0  0
    5.2447  -20.2155   21.2711 O   0  0  0  0  0  0  0  0  0  0  0  0
    5.7129  -18.0119   22.1347 C   0  0  2  0  0  0  0  0  0  0  0  0
    5.2144  -17.5763   20.8437 N   0  0  0  0  0  0  0  0  0  0  0  0
    6.7917  -17.1483   22.6351 C   0  0  0  0  0  0  0  0  0  0  0  0
    7.7642  -16.8863   21.8932 O   0  0  0  0  0  0  0  0  0  0  0  0
    6.2093  -10.9804   26.2471 C   0  0  0  0  0  0  0  0  0  0  0  0
    6.6712  -12.6696   26.6640 S   0  0  0  0  0  0  0  0  0  0  0  0
    6.8676  -13.6570   25.1309 C   0  0  0  0  0  0  0  0  0  0  0  0
    7.2817  -15.0232   25.5467 C   0  0  0  0  0  0  0  0  0  0  0  0
    7.9072  -15.8831   24.4574 C   0  0  2  0  0  0  0  0  0  0  0  0
    6.7153  -16.6281   23.9422 N   0  0  0  0  0  0  0  0  0  0  0  0
    8.8324  -16.9043   24.9710 C   0  0  0  0  0  0  0  0  0  0  0  0
    8.3082  -17.9492   25.5045 O   0  0  0  0  0  0  0  0  0  0  0  0
   10.2281  -16.8474   24.9314 N   0  0  0  0  0  0  0  0  0  0  0  0
   10.9916  -15.6511   24.5220 C   0  0  0  0  0  0  0  0  0  0  0  0
   12.4184  -16.1262   24.3563 C   0  0  0  0  0  0  0  0  0  0  0  0
   12.2388  -17.6214   24.2045 C   0  0  0  0  0  0  0  0  0  0  0  0
   11.1852  -17.8605   25.3065 C   0  0  1  0  0  0  0  0  0  0  0  0
   11.8866  -17.4607   26.5863 C   0  0  0  0  0  0  0  0  0  0  0  0
   11.5744  -16.2915   27.2497 O   0  0  0  0  0  0  0  0  0  0  0  0
   12.7730  -18.2034   27.0610 O   0  0  0  0  0  0  0  0  0  0  0  0
  2  1  1  1
  3  2  1  0
  4  2  1  0
  4  6  1  0
  4  5  1  6
  6  7  2  0
  9 10  1  0
  9  8  1  0
 10 11  1  0
 12 11  1  1
 13 12  1  0
 13  6  1  0
 14 12  1  0
 14 15  2  0
 16 14  1  0
 17 16  1  0
 18 17  1  0
 18 19  1  0
 19 20  1  0
 20 16  1  0
 20 21  1  1
 21 22  1  0
 23 21  2  0
M  END
$$$$
