MQT.pdb
     RDKit          3D

 25 24  0  0  1  0  0  0  0  0999 V2000
   29.6614  -20.4954  -18.1488 C   0  0  0  0  0  0  0  0  0  0  0  0
   29.1207  -18.8010  -18.5144 S   0  0  0  0  0  0  0  0  0  0  0  0
   27.2834  -18.8344  -18.4805 C   0  0  0  0  0  0  0  0  0  0  0  0
   26.8426  -19.7326  -17.3813 C   0  0  0  0  0  0  0  0  0  0  0  0
   26.0990  -19.0682  -16.2790 C   0  0  2  0  0  0  0  0  0  0  0  0
   27.0247  -18.3708  -15.3679 N   0  0  0  0  0  0  0  0  0  0  0  0
   25.2929  -20.0619  -15.5276 C   0  0  0  0  0  0  0  0  0  0  0  0
   24.8322  -21.1047  -16.0601 O   0  0  0  0  0  0  0  0  0  0  0  0
   25.0036  -21.1935   -9.3793 N   0  0  0  0  0  0  0  0  0  0  0  0
   26.0905  -21.0579  -10.2809 C   0  0  0  0  0  0  0  0  0  0  0  0
   27.2788  -21.1031   -9.8311 O   0  0  0  0  0  0  0  0  0  0  0  0
   25.8533  -20.8630  -11.7487 C   0  0  0  0  0  0  0  0  0  0  0  0
   24.3425  -20.9120  -12.0124 C   0  0  0  0  0  0  0  0  0  0  0  0
   24.0647  -20.7499  -13.4860 C   0  0  2  0  0  0  0  0  0  0  0  0
   24.9903  -19.8919  -14.1474 N   0  0  0  0  0  0  0  0  0  0  0  0
   22.6527  -20.2993  -13.6164 C   0  0  0  0  0  0  0  0  0  0  0  0
   22.2511  -19.1749  -13.2815 O   0  0  0  0  0  0  0  0  0  0  0  0
   18.3453  -20.6017  -15.7128 C   0  0  0  0  0  0  0  0  0  0  0  0
   19.7910  -21.0574  -15.6741 C   0  0  1  0  0  0  0  0  0  0  0  0
   20.5125  -20.2464  -16.5487 O   0  0  0  0  0  0  0  0  0  0  0  0
   20.3125  -20.7948  -14.2884 C   0  0  2  0  0  0  0  0  0  0  0  0
   21.7124  -21.2156  -14.1578 N   0  0  0  0  0  0  0  0  0  0  0  0
   19.4912  -21.6038  -13.3372 C   0  0  0  0  0  0  0  0  0  0  0  0
   18.3600  -21.1319  -12.7316 O   0  0  0  0  0  0  0  0  0  0  0  0
   19.8322  -22.8024  -13.0506 O   0  0  0  0  0  0  0  0  0  0  0  0
  2  1  1  0
  3  2  1  0
  4  5  1  0
  4  3  1  0
  5  7  1  0
  5  6  1  1
  7  8  2  0
 10  9  1  0
 10 12  1  0
 11 10  2  0
 13 12  1  0
 14 13  1  1
 14 15  1  0
 15  7  1  0
 16 14  1  0
 17 16  2  0
 19 18  1  1
 19 21  1  0
 20 19  1  0
 21 22  1  6
 21 23  1  0
 22 16  1  0
 23 24  1  0
 25 23  2  0
M  END
$$$$
