MQT.pdb
     RDKit          3D

 25 24  0  0  1  0  0  0  0  0999 V2000
   21.5026  -20.2371   -8.0668 C   0  0  0  0  0  0  0  0  0  0  0  0
   22.5215  -21.3989   -7.1133 S   0  0  0  0  0  0  0  0  0  0  0  0
   24.2511  -21.1423   -7.6794 C   0  0  0  0  0  0  0  0  0  0  0  0
   24.2451  -20.9292   -9.1504 C   0  0  0  0  0  0  0  0  0  0  0  0
   25.5847  -20.7609   -9.7723 C   0  0  2  0  0  0  0  0  0  0  0  0
   26.3241  -19.6568   -9.1339 N   0  0  0  0  0  0  0  0  0  0  0  0
   25.4500  -20.5118  -11.2290 C   0  0  0  0  0  0  0  0  0  0  0  0
   25.2384  -19.3666  -11.7053 O   0  0  0  0  0  0  0  0  0  0  0  0
   28.7313  -22.3783  -15.4219 N   0  0  0  0  0  0  0  0  0  0  0  0
   27.7366  -21.8719  -16.2977 C   0  0  0  0  0  0  0  0  0  0  0  0
   28.0759  -21.4689  -17.4547 O   0  0  0  0  0  0  0  0  0  0  0  0
   26.2993  -21.8079  -15.8750 C   0  0  0  0  0  0  0  0  0  0  0  0
   26.1897  -22.3117  -14.4298 C   0  0  0  0  0  0  0  0  0  0  0  0
   25.4595  -21.3025  -13.5794 C   0  0  2  0  0  0  0  0  0  0  0  0
   25.5530  -21.5639  -12.1819 N   0  0  0  0  0  0  0  0  0  0  0  0
   24.0568  -21.2502  -14.0727 C   0  0  0  0  0  0  0  0  0  0  0  0
   23.1884  -22.0858  -13.7800 O   0  0  0  0  0  0  0  0  0  0  0  0
   22.7382  -17.6755  -15.8933 C   0  0  0  0  0  0  0  0  0  0  0  0
   21.8572  -18.5566  -15.0290 C   0  0  1  0  0  0  0  0  0  0  0  0
   20.5493  -18.4317  -15.4949 O   0  0  0  0  0  0  0  0  0  0  0  0
   22.2783  -19.9820  -15.2568 C   0  0  2  0  0  0  0  0  0  0  0  0
   23.6957  -20.1771  -14.9299 N   0  0  0  0  0  0  0  0  0  0  0  0
   22.0887  -20.2811  -16.7088 C   0  0  0  0  0  0  0  0  0  0  0  0
   20.8623  -20.4633  -17.2848 O   0  0  0  0  0  0  0  0  0  0  0  0
   23.1014  -20.3794  -17.4835 O   0  0  0  0  0  0  0  0  0  0  0  0
  2  1  1  0
  3  2  1  0
  4  5  1  0
  4  3  1  0
  5  7  1  0
  5  6  1  1
  7  8  2  0
 10  9  1  0
 10 12  1  0
 11 10  2  0
 13 12  1  0
 14 13  1  6
 14 15  1  0
 15  7  1  0
 16 14  1  0
 17 16  2  0
 19 18  1  6
 19 21  1  0
 20 19  1  0
 21 22  1  6
 21 23  1  0
 22 16  1  0
 23 24  1  0
 25 23  2  0
M  END
$$$$
