MQT.pdb
     RDKit          3D

 25 24  0  0  1  0  0  0  0  0999 V2000
   27.5701  -16.3382  -17.3690 C   0  0  0  0  0  0  0  0  0  0  0  0
   29.1925  -17.1127  -17.1141 S   0  0  0  0  0  0  0  0  0  0  0  0
   28.9067  -18.9271  -17.1821 C   0  0  0  0  0  0  0  0  0  0  0  0
   28.5234  -19.4009  -15.8264 C   0  0  0  0  0  0  0  0  0  0  0  0
   27.1356  -19.9192  -15.7046 C   0  0  2  0  0  0  0  0  0  0  0  0
   26.1529  -18.8399  -15.9112 N   0  0  0  0  0  0  0  0  0  0  0  0
   26.9339  -20.5476  -14.3755 C   0  0  0  0  0  0  0  0  0  0  0  0
   27.4471  -21.6529  -14.0622 O   0  0  0  0  0  0  0  0  0  0  0  0
   26.4949  -19.4467   -8.3795 N   0  0  0  0  0  0  0  0  0  0  0  0
   25.7521  -20.6472   -8.5207 C   0  0  0  0  0  0  0  0  0  0  0  0
   25.4616  -21.3224   -7.4834 O   0  0  0  0  0  0  0  0  0  0  0  0
   25.3096  -21.1241   -9.8718 C   0  0  0  0  0  0  0  0  0  0  0  0
   25.9216  -20.2084  -10.9402 C   0  0  0  0  0  0  0  0  0  0  0  0
   25.5565  -20.6990  -12.3189 C   0  0  2  0  0  0  0  0  0  0  0  0
   26.1402  -19.9312  -13.3678 N   0  0  0  0  0  0  0  0  0  0  0  0
   24.0709  -20.7468  -12.3854 C   0  0  0  0  0  0  0  0  0  0  0  0
   23.3424  -21.0034  -11.4152 O   0  0  0  0  0  0  0  0  0  0  0  0
   21.8045  -18.1042  -14.2747 C   0  0  0  0  0  0  0  0  0  0  0  0
   21.5070  -19.5078  -14.7654 C   0  0  1  0  0  0  0  0  0  0  0  0
   22.2739  -19.7265  -15.9087 O   0  0  0  0  0  0  0  0  0  0  0  0
   21.9895  -20.4679  -13.7134 C   0  0  2  0  0  0  0  0  0  0  0  0
   23.4551  -20.4818  -13.6374 N   0  0  0  0  0  0  0  0  0  0  0  0
   21.5294  -21.8346  -14.1059 C   0  0  0  0  0  0  0  0  0  0  0  0
   22.3787  -22.8255  -14.5132 O   0  0  0  0  0  0  0  0  0  0  0  0
   20.2856  -22.1296  -14.0720 O   0  0  0  0  0  0  0  0  0  0  0  0
  2  1  1  0
  3  2  1  0
  4  5  1  0
  4  3  1  0
  5  7  1  0
  5  6  1  1
  7  8  2  0
 10  9  1  0
 10 12  1  0
 11 10  2  0
 13 12  1  0
 14 13  1  1
 14 15  1  0
 15  7  1  0
 16 14  1  0
 17 16  2  0
 19 18  1  1
 19 21  1  0
 20 19  1  0
 21 22  1  6
 21 23  1  0
 22 16  1  0
 23 24  1  0
 25 23  2  0
M  END
$$$$
