MQT.pdb
     RDKit          3D

 25 24  0  0  1  0  0  0  0  0999 V2000
   25.7359  -19.3802   -8.4366 C   0  0  0  0  0  0  0  0  0  0  0  0
   27.0322  -20.5324   -7.8987 S   0  0  0  0  0  0  0  0  0  0  0  0
   28.2844  -20.5538   -9.2438 C   0  0  0  0  0  0  0  0  0  0  0  0
   27.5887  -20.3835  -10.5462 C   0  0  0  0  0  0  0  0  0  0  0  0
   26.6904  -21.5016  -10.9364 C   0  0  2  0  0  0  0  0  0  0  0  0
   27.4469  -22.7599  -11.0694 N   0  0  0  0  0  0  0  0  0  0  0  0
   25.9952  -21.1854  -12.2087 C   0  0  0  0  0  0  0  0  0  0  0  0
   26.4359  -21.5455  -13.3309 O   0  0  0  0  0  0  0  0  0  0  0  0
   19.8435  -19.9678  -12.9856 N   0  0  0  0  0  0  0  0  0  0  0  0
   20.4507  -21.1680  -12.5343 C   0  0  0  0  0  0  0  0  0  0  0  0
   19.7191  -22.0922  -12.0580 O   0  0  0  0  0  0  0  0  0  0  0  0
   21.9364  -21.3557  -12.6131 C   0  0  0  0  0  0  0  0  0  0  0  0
   22.5594  -20.0913  -13.2193 C   0  0  0  0  0  0  0  0  0  0  0  0
   24.0374  -20.2933  -13.4421 C   0  0  2  0  0  0  0  0  0  0  0  0
   24.7776  -20.4490  -12.2345 N   0  0  0  0  0  0  0  0  0  0  0  0
   24.5117  -19.1568  -14.2770 C   0  0  0  0  0  0  0  0  0  0  0  0
   24.4002  -17.9652  -13.9521 O   0  0  0  0  0  0  0  0  0  0  0  0
   27.9280  -18.5124  -15.6549 C   0  0  0  0  0  0  0  0  0  0  0  0
   27.0011  -18.6021  -16.8515 C   0  0  1  0  0  0  0  0  0  0  0  0
   27.0482  -19.9126  -17.3244 O   0  0  0  0  0  0  0  0  0  0  0  0
   25.6014  -18.3544  -16.3608 C   0  0  2  0  0  0  0  0  0  0  0  0
   25.1287  -19.4602  -15.5197 N   0  0  0  0  0  0  0  0  0  0  0  0
   24.7129  -18.2665  -17.5593 C   0  0  0  0  0  0  0  0  0  0  0  0
   23.6808  -19.1316  -17.7948 O   0  0  0  0  0  0  0  0  0  0  0  0
   24.8964  -17.3490  -18.4309 O   0  0  0  0  0  0  0  0  0  0  0  0
  2  1  1  0
  3  2  1  0
  4  5  1  0
  4  3  1  0
  5  7  1  0
  5  6  1  6
  7  8  2  0
 10  9  1  0
 10 12  1  0
 11 10  2  0
 13 12  1  0
 14 13  1  1
 14 15  1  0
 15  7  1  0
 16 14  1  0
 17 16  2  0
 19 18  1  1
 19 21  1  0
 20 19  1  0
 21 22  1  1
 21 23  1  0
 22 16  1  0
 23 24  1  0
 25 23  2  0
M  END
$$$$
