MQT.pdb
     RDKit          3D

 25 24  0  0  1  0  0  0  0  0999 V2000
   26.9924  -17.0443  -17.2591 C   0  0  0  0  0  0  0  0  0  0  0  0
   28.4170  -17.7447  -18.1405 S   0  0  0  0  0  0  0  0  0  0  0  0
   28.7195  -19.3946  -17.3892 C   0  0  0  0  0  0  0  0  0  0  0  0
   27.5021  -19.8103  -16.6446 C   0  0  0  0  0  0  0  0  0  0  0  0
   27.6202  -21.0918  -15.9009 C   0  0  2  0  0  0  0  0  0  0  0  0
   27.8787  -22.2118  -16.8240 N   0  0  0  0  0  0  0  0  0  0  0  0
   26.3871  -21.3492  -15.1166 C   0  0  0  0  0  0  0  0  0  0  0  0
   25.4895  -22.1417  -15.5033 O   0  0  0  0  0  0  0  0  0  0  0  0
   25.3128  -20.4562   -8.9238 N   0  0  0  0  0  0  0  0  0  0  0  0
   24.1088  -21.0308   -9.4066 C   0  0  0  0  0  0  0  0  0  0  0  0
   23.2057  -21.3666   -8.5772 O   0  0  0  0  0  0  0  0  0  0  0  0
   23.8927  -21.2445  -10.8750 C   0  0  0  0  0  0  0  0  0  0  0  0
   25.1552  -20.8022  -11.6264 C   0  0  0  0  0  0  0  0  0  0  0  0
   24.9722  -20.9928  -13.1114 C   0  0  2  0  0  0  0  0  0  0  0  0
   26.1449  -20.7084  -13.8691 N   0  0  0  0  0  0  0  0  0  0  0  0
   23.8003  -20.1699  -13.5154 C   0  0  0  0  0  0  0  0  0  0  0  0
   23.6684  -18.9688  -13.2361 O   0  0  0  0  0  0  0  0  0  0  0  0
   22.4488  -19.2942  -16.7740 C   0  0  0  0  0  0  0  0  0  0  0  0
   21.3262  -20.0601  -16.1014 C   0  0  1  0  0  0  0  0  0  0  0  0
   21.4202  -21.3902  -16.5080 O   0  0  0  0  0  0  0  0  0  0  0  0
   21.5790  -20.0272  -14.6194 C   0  0  2  0  0  0  0  0  0  0  0  0
   22.7738  -20.8024  -14.2658 N   0  0  0  0  0  0  0  0  0  0  0  0
   20.4002  -20.6538  -13.9475 C   0  0  0  0  0  0  0  0  0  0  0  0
   19.1427  -20.1184  -13.9824 O   0  0  0  0  0  0  0  0  0  0  0  0
   20.5355  -21.7465  -13.2972 O   0  0  0  0  0  0  0  0  0  0  0  0
  2  1  1  0
  3  2  1  0
  4  5  1  0
  4  3  1  0
  5  7  1  0
  5  6  1  6
  7  8  2  0
 10  9  1  0
 10 12  1  0
 11 10  2  0
 13 12  1  0
 14 13  1  1
 14 15  1  0
 15  7  1  0
 16 14  1  0
 17 16  2  0
 19 18  1  6
 19 21  1  0
 20 19  1  0
 21 22  1  6
 21 23  1  0
 22 16  1  0
 23 24  1  0
 25 23  2  0
M  END
$$$$
