MQT.pdb
     RDKit          3D

 25 24  0  0  1  0  0  0  0  0999 V2000
   27.7809  -16.8972  -15.0798 C   0  0  0  0  0  0  0  0  0  0  0  0
   26.3214  -15.8542  -15.3608 S   0  0  0  0  0  0  0  0  0  0  0  0
   26.8240  -14.6002  -16.6069 C   0  0  0  0  0  0  0  0  0  0  0  0
   25.6877  -13.6687  -16.8317 C   0  0  0  0  0  0  0  0  0  0  0  0
   24.3874  -14.3181  -17.1430 C   0  0  2  0  0  0  0  0  0  0  0  0
   24.4705  -15.0810  -18.4017 N   0  0  0  0  0  0  0  0  0  0  0  0
   23.3104  -13.3011  -17.2310 C   0  0  0  0  0  0  0  0  0  0  0  0
   23.0147  -12.7165  -18.3053 O   0  0  0  0  0  0  0  0  0  0  0  0
   17.6533  -13.3635  -15.0002 N   0  0  0  0  0  0  0  0  0  0  0  0
   17.7020  -12.1732  -15.7708 C   0  0  0  0  0  0  0  0  0  0  0  0
   16.6142  -11.6140  -16.1176 O   0  0  0  0  0  0  0  0  0  0  0  0
   19.0145  -11.5726  -16.1771 C   0  0  0  0  0  0  0  0  0  0  0  0
   20.1398  -12.5366  -15.7786 C   0  0  0  0  0  0  0  0  0  0  0  0
   21.4763  -11.9836  -16.2062 C   0  0  2  0  0  0  0  0  0  0  0  0
   22.5416  -12.9234  -16.0945 N   0  0  0  0  0  0  0  0  0  0  0  0
   21.7062  -10.7419  -15.4195 C   0  0  0  0  0  0  0  0  0  0  0  0
   22.1214  -10.7295  -14.2510 O   0  0  0  0  0  0  0  0  0  0  0  0
   23.3236   -7.4076  -16.9206 C   0  0  0  0  0  0  0  0  0  0  0  0
   21.9954   -7.1197  -16.2482 C   0  0  1  0  0  0  0  0  0  0  0  0
   21.0111   -7.1335  -17.2352 O   0  0  0  0  0  0  0  0  0  0  0  0
   21.7046   -8.2596  -15.3115 C   0  0  2  0  0  0  0  0  0  0  0  0
   21.4325   -9.4987  -16.0492 N   0  0  0  0  0  0  0  0  0  0  0  0
   20.4804   -7.9014  -14.5326 C   0  0  0  0  0  0  0  0  0  0  0  0
   20.4408   -6.8840  -13.6204 O   0  0  0  0  0  0  0  0  0  0  0  0
   19.3956   -8.5574  -14.7007 O   0  0  0  0  0  0  0  0  0  0  0  0
  2  1  1  0
  3  2  1  0
  4  5  1  0
  4  3  1  0
  5  7  1  0
  5  6  1  6
  7  8  2  0
 10  9  1  0
 10 12  1  0
 11 10  2  0
 13 12  1  0
 14 13  1  1
 14 15  1  0
 15  7  1  0
 16 14  1  0
 17 16  2  0
 19 18  1  6
 19 21  1  0
 20 19  1  0
 21 22  1  6
 21 23  1  0
 22 16  1  0
 23 24  1  0
 25 23  2  0
M  END
$$$$
