MQT.pdb
     RDKit          3D

 25 24  0  0  1  0  0  0  0  0999 V2000
   26.0983  -15.6492  -15.1783 C   0  0  0  0  0  0  0  0  0  0  0  0
   24.8355  -14.3917  -15.5260 S   0  0  0  0  0  0  0  0  0  0  0  0
   25.5081  -13.3579  -16.8887 C   0  0  0  0  0  0  0  0  0  0  0  0
   24.6033  -12.1976  -17.0988 C   0  0  0  0  0  0  0  0  0  0  0  0
   23.1507  -12.5056  -17.0311 C   0  0  2  0  0  0  0  0  0  0  0  0
   22.7245  -13.2843  -18.2081 N   0  0  0  0  0  0  0  0  0  0  0  0
   22.3612  -11.2530  -16.9328 C   0  0  0  0  0  0  0  0  0  0  0  0
   22.0816  -10.5463  -17.9356 O   0  0  0  0  0  0  0  0  0  0  0  0
   17.4239  -10.1170  -13.5925 N   0  0  0  0  0  0  0  0  0  0  0  0
   17.4785  -10.5020  -14.9570 C   0  0  0  0  0  0  0  0  0  0  0  0
   16.4512  -11.0216  -15.4963 O   0  0  0  0  0  0  0  0  0  0  0  0
   18.7271  -10.3034  -15.7633 C   0  0  0  0  0  0  0  0  0  0  0  0
   19.8154   -9.7259  -14.8488 C   0  0  0  0  0  0  0  0  0  0  0  0
   21.1083   -9.5708  -15.6099 C   0  0  2  0  0  0  0  0  0  0  0  0
   21.8697  -10.7727  -15.6865 N   0  0  0  0  0  0  0  0  0  0  0  0
   21.8518   -8.4457  -14.9815 C   0  0  0  0  0  0  0  0  0  0  0  0
   22.5535   -8.5614  -13.9655 O   0  0  0  0  0  0  0  0  0  0  0  0
   24.2816   -5.8805  -16.5394 C   0  0  0  0  0  0  0  0  0  0  0  0
   23.0785   -5.1426  -15.9851 C   0  0  1  0  0  0  0  0  0  0  0  0
   22.1639   -4.9855  -17.0252 O   0  0  0  0  0  0  0  0  0  0  0  0
   22.4361   -6.0309  -14.9557 C   0  0  2  0  0  0  0  0  0  0  0  0
   21.7487   -7.1644  -15.5852 N   0  0  0  0  0  0  0  0  0  0  0  0
   21.4184   -5.2136  -14.2276 C   0  0  0  0  0  0  0  0  0  0  0  0
   20.0712   -5.4167  -14.3399 O   0  0  0  0  0  0  0  0  0  0  0  0
   21.7884   -4.2674  -13.4511 O   0  0  0  0  0  0  0  0  0  0  0  0
  2  1  1  0
  3  2  1  0
  4  5  1  0
  4  3  1  0
  5  7  1  0
  5  6  1  6
  7  8  2  0
 10  9  1  0
 10 12  1  0
 11 10  2  0
 13 12  1  0
 14 13  1  1
 14 15  1  0
 15  7  1  0
 16 14  1  0
 17 16  2  0
 19 18  1  6
 19 21  1  0
 20 19  1  0
 21 22  1  6
 21 23  1  0
 22 16  1  0
 23 24  1  0
 25 23  2  0
M  END
$$$$
