LAE.pdb
     RDKit          3D

 23 22  0  0  1  0  0  0  0  0999 V2000
    9.4931  -12.8202   19.1105 C   0  0  0  0  0  0  0  0  0  0  0  0
    8.2571  -13.6926   19.3671 C   0  0  2  0  0  0  0  0  0  0  0  0
    7.0597  -12.7694   19.1406 C   0  0  0  0  0  0  0  0  0  0  0  0
    8.2865  -14.0616   20.8246 C   0  0  0  0  0  0  0  0  0  0  0  0
    7.6141  -15.3479   21.1668 C   0  0  2  0  0  0  0  0  0  0  0  0
    6.1919  -15.0628   21.3222 N   0  0  0  0  0  0  0  0  0  0  0  0
    8.0858  -15.9694   22.4256 C   0  0  0  0  0  0  0  0  0  0  0  0
    7.8553  -15.4903   23.5612 O   0  0  0  0  0  0  0  0  0  0  0  0
    8.6022  -19.0921   23.9138 C   0  0  0  0  0  0  0  0  0  0  0  0
    9.3508  -17.8261   23.5843 C   0  0  2  0  0  0  0  0  0  0  0  0
    8.8503  -17.1822   22.3904 N   0  0  0  0  0  0  0  0  0  0  0  0
   10.7875  -18.2090   23.3344 C   0  0  0  0  0  0  0  0  0  0  0  0
   10.9970  -19.2040   22.5724 O   0  0  0  0  0  0  0  0  0  0  0  0
   11.8817  -17.5183   23.9021 N   0  0  0  0  0  0  0  0  0  0  0  0
   13.2673  -17.9344   23.6167 C   0  0  1  0  0  0  0  0  0  0  0  0
   14.0233  -16.7885   23.0503 C   0  0  0  0  0  0  0  0  0  0  0  0
   15.4970  -16.9503   22.9245 C   0  0  0  0  0  0  0  0  0  0  0  0
   16.1699  -15.7572   22.3930 C   0  0  0  0  0  0  0  0  0  0  0  0
   15.5483  -14.6734   22.3101 O   0  0  0  0  0  0  0  0  0  0  0  0
   13.8828  -18.4774   24.8625 C   0  0  0  0  0  0  0  0  0  0  0  0
   14.9710  -19.0898   24.8045 O   0  0  0  0  0  0  0  0  0  0  0  0
   17.4953  -15.7815   21.9691 O   0  0  0  0  0  0  0  0  0  0  0  0
   13.2533  -18.3030   26.0686 O   0  0  0  0  0  0  0  0  0  0  0  0
  2  1  1  1
  2  3  1  0
  4  2  1  0
  5  7  1  0
  5  4  1  0
  5  6  1  1
  7 11  1  0
  7  8  2  0
 10  9  1  6
 11 10  1  0
 12 14  1  0
 12 10  1  0
 13 12  2  0
 15 20  1  0
 15 14  1  0
 15 16  1  1
 16 17  1  0
 18 17  1  0
 18 19  2  0
 20 23  1  0
 21 20  2  0
 22 18  1  0
M  END
$$$$
