LAE.pdb
     RDKit          3D

 23 22  0  0  1  0  0  0  0  0999 V2000
    6.6155  -17.1222   14.4397 C   0  0  0  0  0  0  0  0  0  0  0  0
    8.1285  -17.3780   14.4531 C   0  0  2  0  0  0  0  0  0  0  0  0
    8.2784  -18.8978   14.5249 C   0  0  0  0  0  0  0  0  0  0  0  0
    8.6507  -16.8011   15.7399 C   0  0  0  0  0  0  0  0  0  0  0  0
    8.5348  -15.3195   15.8637 C   0  0  2  0  0  0  0  0  0  0  0  0
    9.3523  -14.7335   14.8071 N   0  0  0  0  0  0  0  0  0  0  0  0
    9.0137  -14.7737   17.1545 C   0  0  0  0  0  0  0  0  0  0  0  0
   10.2264  -14.6941   17.4634 O   0  0  0  0  0  0  0  0  0  0  0  0
    7.3298  -13.1357   20.1598 C   0  0  0  0  0  0  0  0  0  0  0  0
    8.4851  -13.7285   19.3945 C   0  0  2  0  0  0  0  0  0  0  0  0
    8.0763  -14.3016   18.1317 N   0  0  0  0  0  0  0  0  0  0  0  0
    9.0590  -14.8370   20.2402 C   0  0  0  0  0  0  0  0  0  0  0  0
    8.9582  -16.0205   19.7891 O   0  0  0  0  0  0  0  0  0  0  0  0
    9.6898  -14.6125   21.4845 N   0  0  0  0  0  0  0  0  0  0  0  0
   10.6447  -15.5925   22.0345 C   0  0  1  0  0  0  0  0  0  0  0  0
   11.9955  -15.3396   21.4715 C   0  0  0  0  0  0  0  0  0  0  0  0
   13.0894  -16.2464   21.9125 C   0  0  0  0  0  0  0  0  0  0  0  0
   14.3895  -15.9268   21.3073 C   0  0  0  0  0  0  0  0  0  0  0  0
   15.0846  -14.9957   21.7740 O   0  0  0  0  0  0  0  0  0  0  0  0
   10.6143  -15.5240   23.5245 C   0  0  0  0  0  0  0  0  0  0  0  0
   10.0753  -14.5499   24.0929 O   0  0  0  0  0  0  0  0  0  0  0  0
   14.8908  -16.6291   20.2152 O   0  0  0  0  0  0  0  0  0  0  0  0
   11.1776  -16.5304   24.2671 O   0  0  0  0  0  0  0  0  0  0  0  0
  2  1  1  1
  2  3  1  0
  4  2  1  0
  5  7  1  0
  5  4  1  0
  5  6  1  6
  7 11  1  0
  7  8  2  0
 10  9  1  1
 11 10  1  0
 12 14  1  0
 12 10  1  0
 13 12  2  0
 15 20  1  0
 15 14  1  0
 15 16  1  6
 16 17  1  0
 18 17  1  0
 18 19  2  0
 20 23  1  0
 21 20  2  0
 22 18  1  0
M  END
$$$$
