LAE.pdb
     RDKit          3D

 23 22  0  0  1  0  0  0  0  0999 V2000
    8.7887  -12.8618   19.4146 C   0  0  0  0  0  0  0  0  0  0  0  0
    7.6286  -13.5869   20.1098 C   0  0  2  0  0  0  0  0  0  0  0  0
    6.9549  -12.5253   20.9796 C   0  0  0  0  0  0  0  0  0  0  0  0
    8.2465  -14.6087   21.0239 C   0  0  0  0  0  0  0  0  0  0  0  0
    8.8886  -15.7669   20.3383 C   0  0  2  0  0  0  0  0  0  0  0  0
    7.8212  -16.5534   19.7299 N   0  0  0  0  0  0  0  0  0  0  0  0
    9.6496  -16.6652   21.2369 C   0  0  0  0  0  0  0  0  0  0  0  0
    9.1169  -17.5712   21.9207 O   0  0  0  0  0  0  0  0  0  0  0  0
   13.3469  -17.1245   22.0655 C   0  0  0  0  0  0  0  0  0  0  0  0
   11.8692  -17.3847   22.2091 C   0  0  2  0  0  0  0  0  0  0  0  0
   11.0714  -16.5260   21.3628 N   0  0  0  0  0  0  0  0  0  0  0  0
   11.5015  -17.0916   23.6417 C   0  0  0  0  0  0  0  0  0  0  0  0
   11.7099  -15.9110   24.0627 O   0  0  0  0  0  0  0  0  0  0  0  0
   10.9467  -18.0579   24.5106 N   0  0  0  0  0  0  0  0  0  0  0  0
   10.7680  -17.7687   25.9456 C   0  0  1  0  0  0  0  0  0  0  0  0
    9.3614  -18.0419   26.3358 C   0  0  0  0  0  0  0  0  0  0  0  0
    8.2986  -17.4970   25.4486 C   0  0  0  0  0  0  0  0  0  0  0  0
    6.9560  -17.9976   25.7738 C   0  0  0  0  0  0  0  0  0  0  0  0
    6.8095  -18.8547   26.6748 O   0  0  0  0  0  0  0  0  0  0  0  0
   11.7542  -18.5646   26.7328 C   0  0  0  0  0  0  0  0  0  0  0  0
   11.8606  -18.3826   27.9650 O   0  0  0  0  0  0  0  0  0  0  0  0
    5.8178  -17.5507   25.1092 O   0  0  0  0  0  0  0  0  0  0  0  0
   12.5414  -19.4946   26.1027 O   0  0  0  0  0  0  0  0  0  0  0  0
  2  1  1  1
  2  3  1  0
  4  2  1  0
  5  7  1  0
  5  4  1  0
  5  6  1  1
  7 11  1  0
  7  8  2  0
 10  9  1  1
 11 10  1  0
 12 14  1  0
 12 10  1  0
 13 12  2  0
 15 20  1  0
 15 14  1  0
 15 16  1  1
 16 17  1  0
 18 17  1  0
 18 19  2  0
 20 23  1  0
 21 20  2  0
 22 18  1  0
M  END
$$$$
