LAE.pdb
     RDKit          3D

 23 22  0  0  1  0  0  0  0  0999 V2000
    5.2012  -12.2814   25.6860 C   0  0  0  0  0  0  0  0  0  0  0  0
    6.2533  -12.6978   26.7225 C   0  0  2  0  0  0  0  0  0  0  0  0
    6.9971  -11.4106   27.0794 C   0  0  0  0  0  0  0  0  0  0  0  0
    7.2185  -13.6074   26.0137 C   0  0  0  0  0  0  0  0  0  0  0  0
    6.6016  -14.7877   25.3429 C   0  0  2  0  0  0  0  0  0  0  0  0
    6.1690  -15.7030   26.3933 N   0  0  0  0  0  0  0  0  0  0  0  0
    7.5184  -15.5330   24.4499 C   0  0  0  0  0  0  0  0  0  0  0  0
    8.2890  -16.4374   24.8504 O   0  0  0  0  0  0  0  0  0  0  0  0
    8.3298  -15.4047   20.7215 C   0  0  0  0  0  0  0  0  0  0  0  0
    8.3921  -15.9680   22.1182 C   0  0  2  0  0  0  0  0  0  0  0  0
    7.5605  -15.2365   23.0474 N   0  0  0  0  0  0  0  0  0  0  0  0
    9.8210  -15.8482   22.5845 C   0  0  0  0  0  0  0  0  0  0  0  0
   10.2459  -14.6814   22.8538 O   0  0  0  0  0  0  0  0  0  0  0  0
   10.6824  -16.9588   22.7299 N   0  0  0  0  0  0  0  0  0  0  0  0
   12.0308  -16.7981   23.3050 C   0  0  1  0  0  0  0  0  0  0  0  0
   12.2846  -17.8833   24.2864 C   0  0  0  0  0  0  0  0  0  0  0  0
   11.3689  -17.9608   25.4565 C   0  0  0  0  0  0  0  0  0  0  0  0
   11.7329  -19.0166   26.4112 C   0  0  0  0  0  0  0  0  0  0  0  0
   11.0086  -20.0313   26.5276 O   0  0  0  0  0  0  0  0  0  0  0  0
   13.0342  -16.7666   22.2014 C   0  0  0  0  0  0  0  0  0  0  0  0
   12.6952  -17.0860   21.0413 O   0  0  0  0  0  0  0  0  0  0  0  0
   12.8712  -18.9345   27.2078 O   0  0  0  0  0  0  0  0  0  0  0  0
   14.3261  -16.3869   22.4622 O   0  0  0  0  0  0  0  0  0  0  0  0
  2  1  1  6
  2  3  1  0
  4  2  1  0
  5  7  1  0
  5  4  1  0
  5  6  1  1
  7 11  1  0
  7  8  2  0
 10  9  1  6
 11 10  1  0
 12 14  1  0
 12 10  1  0
 13 12  2  0
 15 20  1  0
 15 14  1  0
 15 16  1  1
 16 17  1  0
 18 17  1  0
 18 19  2  0
 20 23  1  0
 21 20  2  0
 22 18  1  0
M  END
$$$$
