LAE.pdb
     RDKit          3D

 23 22  0  0  1  0  0  0  0  0999 V2000
    9.3035  -12.3354   19.5491 C   0  0  0  0  0  0  0  0  0  0  0  0
    8.2760  -13.4209   19.2017 C   0  0  2  0  0  0  0  0  0  0  0  0
    6.9188  -12.7184   19.2461 C   0  0  0  0  0  0  0  0  0  0  0  0
    8.3140  -14.4231   20.3222 C   0  0  0  0  0  0  0  0  0  0  0  0
    9.6619  -14.9846   20.6253 C   0  0  2  0  0  0  0  0  0  0  0  0
   10.1115  -15.6936   19.4322 N   0  0  0  0  0  0  0  0  0  0  0  0
    9.6856  -15.9454   21.7521 C   0  0  0  0  0  0  0  0  0  0  0  0
    9.1285  -15.7308   22.8547 O   0  0  0  0  0  0  0  0  0  0  0  0
   11.2013  -19.4079   22.2951 C   0  0  0  0  0  0  0  0  0  0  0  0
   10.3678  -18.2052   22.6564 C   0  0  2  0  0  0  0  0  0  0  0  0
   10.3710  -17.1981   21.6191 N   0  0  0  0  0  0  0  0  0  0  0  0
   10.9767  -17.5953   23.8936 C   0  0  0  0  0  0  0  0  0  0  0  0
   12.0953  -17.0080   23.7587 O   0  0  0  0  0  0  0  0  0  0  0  0
   10.3633  -17.6513   25.1652 N   0  0  0  0  0  0  0  0  0  0  0  0
   10.9589  -16.9570   26.3219 C   0  0  1  0  0  0  0  0  0  0  0  0
   10.1190  -15.7874   26.6854 C   0  0  0  0  0  0  0  0  0  0  0  0
   10.5369  -15.0031   27.8786 C   0  0  0  0  0  0  0  0  0  0  0  0
    9.6126  -13.9099   28.2093 C   0  0  0  0  0  0  0  0  0  0  0  0
    8.4326  -13.9410   27.7917 O   0  0  0  0  0  0  0  0  0  0  0  0
   11.1226  -17.9258   27.4445 C   0  0  0  0  0  0  0  0  0  0  0  0
   11.7861  -17.6041   28.4539 O   0  0  0  0  0  0  0  0  0  0  0  0
   10.0012  -12.8196   28.9820 O   0  0  0  0  0  0  0  0  0  0  0  0
   10.5442  -19.1671   27.3666 O   0  0  0  0  0  0  0  0  0  0  0  0
  2  1  1  1
  2  3  1  0
  4  2  1  0
  5  7  1  0
  5  4  1  0
  5  6  1  6
  7 11  1  0
  7  8  2  0
 10  9  1  6
 11 10  1  0
 12 14  1  0
 12 10  1  0
 13 12  2  0
 15 20  1  0
 15 14  1  0
 15 16  1  1
 16 17  1  0
 18 17  1  0
 18 19  2  0
 20 23  1  0
 21 20  2  0
 22 18  1  0
M  END
$$$$
