LAE.pdb
     RDKit          3D

 23 22  0  0  1  0  0  0  0  0999 V2000
    7.5937  -11.7956   26.5594 C   0  0  0  0  0  0  0  0  0  0  0  0
    6.4073  -12.1422   25.6501 C   0  0  2  0  0  0  0  0  0  0  0  0
    5.2197  -11.3721   26.2281 C   0  0  0  0  0  0  0  0  0  0  0  0
    6.1392  -13.6104   25.8339 C   0  0  0  0  0  0  0  0  0  0  0  0
    7.2617  -14.5131   25.4483 C   0  0  2  0  0  0  0  0  0  0  0  0
    7.6547  -14.1558   24.0896 N   0  0  0  0  0  0  0  0  0  0  0  0
    6.9174  -15.9535   25.4502 C   0  0  0  0  0  0  0  0  0  0  0  0
    6.3893  -16.5362   26.4268 O   0  0  0  0  0  0  0  0  0  0  0  0
    6.6837  -18.6675   22.8313 C   0  0  0  0  0  0  0  0  0  0  0  0
    6.8776  -18.1735   24.2420 C   0  0  2  0  0  0  0  0  0  0  0  0
    7.1856  -16.7620   24.2965 N   0  0  0  0  0  0  0  0  0  0  0  0
    8.0501  -18.9244   24.8208 C   0  0  0  0  0  0  0  0  0  0  0  0
    7.9453  -20.1881   24.9011 O   0  0  0  0  0  0  0  0  0  0  0  0
    9.2316  -18.2894   25.2651 N   0  0  0  0  0  0  0  0  0  0  0  0
   10.3621  -19.0788   25.7879 C   0  0  1  0  0  0  0  0  0  0  0  0
   11.5691  -18.8262   24.9603 C   0  0  0  0  0  0  0  0  0  0  0  0
   12.1617  -17.4634   25.0324 C   0  0  0  0  0  0  0  0  0  0  0  0
   13.3500  -17.3001   24.1837 C   0  0  0  0  0  0  0  0  0  0  0  0
   14.1275  -18.2650   24.0042 O   0  0  0  0  0  0  0  0  0  0  0  0
   10.5661  -18.7488   27.2285 C   0  0  0  0  0  0  0  0  0  0  0  0
   11.3378  -19.4441   27.9240 O   0  0  0  0  0  0  0  0  0  0  0  0
   13.6539  -16.0942   23.5590 O   0  0  0  0  0  0  0  0  0  0  0  0
    9.9068  -17.6830   27.7860 O   0  0  0  0  0  0  0  0  0  0  0  0
  2  1  1  1
  2  3  1  0
  4  2  1  0
  5  7  1  0
  5  4  1  0
  5  6  1  6
  7 11  1  0
  7  8  2  0
 10  9  1  6
 11 10  1  0
 12 14  1  0
 12 10  1  0
 13 12  2  0
 15 20  1  0
 15 14  1  0
 15 16  1  6
 16 17  1  0
 18 17  1  0
 18 19  2  0
 20 23  1  0
 21 20  2  0
 22 18  1  0
M  END
$$$$
