LAE.pdb
     RDKit          3D

 23 22  0  0  1  0  0  0  0  0999 V2000
    7.4400  -11.8093   26.9908 C   0  0  0  0  0  0  0  0  0  0  0  0
    6.2764  -12.1902   26.0657 C   0  0  2  0  0  0  0  0  0  0  0  0
    5.0226  -11.6504   26.7541 C   0  0  0  0  0  0  0  0  0  0  0  0
    6.1963  -13.6918   26.0716 C   0  0  0  0  0  0  0  0  0  0  0  0
    7.4320  -14.3945   25.6210 C   0  0  2  0  0  0  0  0  0  0  0  0
    7.7731  -13.8653   24.3051 N   0  0  0  0  0  0  0  0  0  0  0  0
    7.2879  -15.8626   25.4891 C   0  0  0  0  0  0  0  0  0  0  0  0
    6.7937  -16.5912   26.3819 O   0  0  0  0  0  0  0  0  0  0  0  0
    7.4781  -18.3612   22.6815 C   0  0  0  0  0  0  0  0  0  0  0  0
    7.6450  -17.9605   24.1249 C   0  0  2  0  0  0  0  0  0  0  0  0
    7.7243  -16.5270   24.2954 N   0  0  0  0  0  0  0  0  0  0  0  0
    8.9444  -18.5551   24.6060 C   0  0  0  0  0  0  0  0  0  0  0  0
    9.0294  -19.8227   24.6232 O   0  0  0  0  0  0  0  0  0  0  0  0
   10.0433  -17.7731   25.0270 N   0  0  0  0  0  0  0  0  0  0  0  0
   11.2729  -18.4101   25.5340 C   0  0  1  0  0  0  0  0  0  0  0  0
   12.4571  -17.6433   25.0699 C   0  0  0  0  0  0  0  0  0  0  0  0
   12.6784  -17.5704   23.6005 C   0  0  0  0  0  0  0  0  0  0  0  0
   13.7229  -16.6110   23.2164 C   0  0  0  0  0  0  0  0  0  0  0  0
   14.5764  -16.2461   24.0567 O   0  0  0  0  0  0  0  0  0  0  0  0
   11.1944  -18.5142   27.0202 C   0  0  0  0  0  0  0  0  0  0  0  0
   12.0530  -19.1737   27.6451 O   0  0  0  0  0  0  0  0  0  0  0  0
   13.8049  -16.0801   21.9325 O   0  0  0  0  0  0  0  0  0  0  0  0
   10.1805  -17.8857   27.6973 O   0  0  0  0  0  0  0  0  0  0  0  0
  2  1  1  1
  2  3  1  0
  4  2  1  0
  5  7  1  0
  5  4  1  0
  5  6  1  6
  7 11  1  0
  7  8  2  0
 10  9  1  6
 11 10  1  0
 12 14  1  0
 12 10  1  0
 13 12  2  0
 15 20  1  0
 15 14  1  0
 15 16  1  1
 16 17  1  0
 18 17  1  0
 18 19  2  0
 20 23  1  0
 21 20  2  0
 22 18  1  0
M  END
$$$$
