LAE.pdb
     RDKit          3D

 23 22  0  0  1  0  0  0  0  0999 V2000
    7.5107  -12.4333   20.1936 C   0  0  0  0  0  0  0  0  0  0  0  0
    8.6543  -13.2760   19.6134 C   0  0  2  0  0  0  0  0  0  0  0  0
    9.6737  -12.2638   19.0901 C   0  0  0  0  0  0  0  0  0  0  0  0
    8.0880  -14.0139   18.4318 C   0  0  0  0  0  0  0  0  0  0  0  0
    9.0165  -14.9862   17.7869 C   0  0  2  0  0  0  0  0  0  0  0  0
    8.2506  -15.7088   16.7772 N   0  0  0  0  0  0  0  0  0  0  0  0
    9.5934  -15.9882   18.7125 C   0  0  0  0  0  0  0  0  0  0  0  0
    8.8987  -16.7445   19.4320 O   0  0  0  0  0  0  0  0  0  0  0  0
   12.9033  -17.7005   18.9390 C   0  0  0  0  0  0  0  0  0  0  0  0
   11.6355  -17.1984   19.5813 C   0  0  2  0  0  0  0  0  0  0  0  0
   11.0157  -16.1340   18.8242 N   0  0  0  0  0  0  0  0  0  0  0  0
   12.0087  -16.6461   20.9337 C   0  0  0  0  0  0  0  0  0  0  0  0
   12.4469  -15.4540   20.9711 O   0  0  0  0  0  0  0  0  0  0  0  0
   11.8909  -17.3874   22.1308 N   0  0  0  0  0  0  0  0  0  0  0  0
   12.3148  -16.8112   23.4204 C   0  0  1  0  0  0  0  0  0  0  0  0
   11.7028  -17.5809   24.5333 C   0  0  0  0  0  0  0  0  0  0  0  0
   12.1113  -17.2078   25.9145 C   0  0  0  0  0  0  0  0  0  0  0  0
   12.3365  -18.3676   26.7879 C   0  0  0  0  0  0  0  0  0  0  0  0
   12.1612  -19.5262   26.3465 O   0  0  0  0  0  0  0  0  0  0  0  0
   13.8052  -16.7880   23.4810 C   0  0  0  0  0  0  0  0  0  0  0  0
   14.3898  -15.8714   24.0981 O   0  0  0  0  0  0  0  0  0  0  0  0
   12.7442  -18.2300   28.1115 O   0  0  0  0  0  0  0  0  0  0  0  0
   14.5305  -17.7726   22.8598 O   0  0  0  0  0  0  0  0  0  0  0  0
  2  1  1  6
  2  3  1  0
  4  2  1  0
  5  7  1  0
  5  4  1  0
  5  6  1  6
  7 11  1  0
  7  8  2  0
 10  9  1  6
 11 10  1  0
 12 14  1  0
 12 10  1  0
 13 12  2  0
 15 20  1  0
 15 14  1  0
 15 16  1  1
 16 17  1  0
 18 17  1  0
 18 19  2  0
 20 23  1  0
 21 20  2  0
 22 18  1  0
M  END
$$$$
