VFG.pdb
     RDKit          3D

 23 23  0  0  1  0  0  0  0  0999 V2000
    8.6339  -15.3929   19.6950 C   0  0  0  0  0  0  0  0  0  0  0  0
    7.4056  -14.5851   20.1208 C   0  0  2  0  0  0  0  0  0  0  0  0
    6.7238  -14.1002   18.8683 C   0  0  0  0  0  0  0  0  0  0  0  0
    7.9261  -13.4422   20.9648 C   0  0  2  0  0  0  0  0  0  0  0  0
    8.8309  -12.6693   20.1276 N   0  0  0  0  0  0  0  0  0  0  0  0
    8.6109  -13.9124   22.1892 C   0  0  0  0  0  0  0  0  0  0  0  0
    9.8361  -13.7424   22.3156 O   0  0  0  0  0  0  0  0  0  0  0  0
    7.8812  -14.5414   23.1907 N   0  0  0  0  0  0  0  0  0  0  0  0
    8.4328  -15.0193   24.4491 C   0  0  1  0  0  0  0  0  0  0  0  0
    7.3387  -14.9597   25.4543 C   0  0  0  0  0  0  0  0  0  0  0  0
    7.1023  -13.5857   25.9701 C   0  0  0  0  0  0  0  0  0  0  0  0
    8.1004  -12.7091   26.3119 C   0  0  0  0  0  0  0  0  0  0  0  0
    7.8261  -11.4431   26.7863 C   0  0  0  0  0  0  0  0  0  0  0  0
    6.5259  -11.0099   26.9351 C   0  0  0  0  0  0  0  0  0  0  0  0
    5.5068  -11.8637   26.6017 C   0  0  0  0  0  0  0  0  0  0  0  0
    5.7951  -13.1124   26.1340 C   0  0  0  0  0  0  0  0  0  0  0  0
    9.1408  -16.2806   24.3270 C   0  0  0  0  0  0  0  0  0  0  0  0
    9.5979  -16.8340   25.3626 O   0  0  0  0  0  0  0  0  0  0  0  0
    9.3696  -16.9662   23.1000 N   0  0  0  0  0  0  0  0  0  0  0  0
    9.9874  -18.2618   23.0438 C   0  0  0  0  0  0  0  0  0  0  0  0
   11.4433  -18.1572   23.2851 C   0  0  0  0  0  0  0  0  0  0  0  0
   12.0245  -16.9291   23.5648 O   0  0  0  0  0  0  0  0  0  0  0  0
   12.1951  -19.1640   23.2457 O   0  0  0  0  0  0  0  0  0  0  0  0
  2  1  1  6
  2  3  1  0
  4  6  1  0
  4  2  1  0
  4  5  1  6
  6  7  2  0
  8  6  1  0
  8  9  1  0
  9 17  1  0
 10 11  1  0
  9 10  1  1
 11 16  2  0
 11 12  1  0
 12 13  2  0
 13 14  1  0
 15 14  2  0
 16 15  1  0
 17 18  2  0
 17 19  1  0
 19 20  1  0
 20 21  1  0
 21 22  1  0
 23 21  2  0
M  END
$$$$
