VFG.pdb
     RDKit          3D

 23 23  0  0  1  0  0  0  0  0999 V2000
    7.7353  -14.3596   17.7230 C   0  0  0  0  0  0  0  0  0  0  0  0
    7.7483  -13.8702   19.1731 C   0  0  2  0  0  0  0  0  0  0  0  0
    8.2775  -12.4601   19.1723 C   0  0  0  0  0  0  0  0  0  0  0  0
    8.6541  -14.8181   19.9285 C   0  0  2  0  0  0  0  0  0  0  0  0
    7.9847  -16.1093   19.9684 N   0  0  0  0  0  0  0  0  0  0  0  0
    8.9581  -14.3381   21.2947 C   0  0  0  0  0  0  0  0  0  0  0  0
    9.9067  -13.5554   21.4776 O   0  0  0  0  0  0  0  0  0  0  0  0
    8.1819  -14.7648   22.3656 N   0  0  0  0  0  0  0  0  0  0  0  0
    8.2935  -14.2652   23.7272 C   0  0  1  0  0  0  0  0  0  0  0  0
    6.9092  -14.0827   24.2386 C   0  0  0  0  0  0  0  0  0  0  0  0
    6.8579  -13.2948   25.4982 C   0  0  0  0  0  0  0  0  0  0  0  0
    6.6818  -13.8433   26.7430 C   0  0  0  0  0  0  0  0  0  0  0  0
    6.6418  -13.0657   27.8818 C   0  0  0  0  0  0  0  0  0  0  0  0
    6.7788  -11.6960   27.8080 C   0  0  0  0  0  0  0  0  0  0  0  0
    6.9562  -11.1188   26.5776 C   0  0  0  0  0  0  0  0  0  0  0  0
    6.9934  -11.9020   25.4612 C   0  0  0  0  0  0  0  0  0  0  0  0
    9.1993  -15.0414   24.5544 C   0  0  0  0  0  0  0  0  0  0  0  0
    9.3543  -14.7247   25.7641 O   0  0  0  0  0  0  0  0  0  0  0  0
    9.9498  -16.1637   24.1017 N   0  0  0  0  0  0  0  0  0  0  0  0
   10.7882  -16.9349   24.9769 C   0  0  0  0  0  0  0  0  0  0  0  0
   11.4284  -18.0473   24.2410 C   0  0  0  0  0  0  0  0  0  0  0  0
   11.2172  -18.2046   22.8791 O   0  0  0  0  0  0  0  0  0  0  0  0
   12.1764  -18.8780   24.8161 O   0  0  0  0  0  0  0  0  0  0  0  0
  2  1  1  6
  2  3  1  0
  4  6  1  0
  4  2  1  0
  4  5  1  1
  6  7  2  0
  8  6  1  0
  8  9  1  0
  9 17  1  0
 10 11  1  0
  9 10  1  1
 11 16  2  0
 11 12  1  0
 12 13  2  0
 13 14  1  0
 15 14  2  0
 16 15  1  0
 17 18  2  0
 17 19  1  0
 19 20  1  0
 20 21  1  0
 21 22  1  0
 23 21  2  0
M  END
$$$$
