VFG.pdb
     RDKit          3D

 23 23  0  0  1  0  0  0  0  0999 V2000
    6.8963  -13.8820   19.6171 C   0  0  0  0  0  0  0  0  0  0  0  0
    7.4805  -13.6305   21.0092 C   0  0  2  0  0  0  0  0  0  0  0  0
    8.4333  -12.4692   20.8995 C   0  0  0  0  0  0  0  0  0  0  0  0
    8.1848  -14.9095   21.4067 C   0  0  2  0  0  0  0  0  0  0  0  0
    7.1748  -15.9555   21.4603 N   0  0  0  0  0  0  0  0  0  0  0  0
    8.8872  -14.7863   22.7031 C   0  0  0  0  0  0  0  0  0  0  0  0
    9.8690  -14.0301   22.8042 O   0  0  0  0  0  0  0  0  0  0  0  0
    8.4459  -15.5163   23.8001 N   0  0  0  0  0  0  0  0  0  0  0  0
    9.1189  -15.5738   25.0885 C   0  0  1  0  0  0  0  0  0  0  0  0
    8.0736  -15.4090   26.1332 C   0  0  0  0  0  0  0  0  0  0  0  0
    7.5665  -14.0148   26.2281 C   0  0  0  0  0  0  0  0  0  0  0  0
    8.2978  -12.9607   26.7132 C   0  0  0  0  0  0  0  0  0  0  0  0
    7.7789  -11.6843   26.7796 C   0  0  0  0  0  0  0  0  0  0  0  0
    6.4937  -11.4204   26.3563 C   0  0  0  0  0  0  0  0  0  0  0  0
    5.7383  -12.4539   25.8664 C   0  0  0  0  0  0  0  0  0  0  0  0
    6.2665  -13.7103   25.8076 C   0  0  0  0  0  0  0  0  0  0  0  0
   10.0065  -16.7141   25.2257 C   0  0  0  0  0  0  0  0  0  0  0  0
   10.5450  -16.9458   26.3410 O   0  0  0  0  0  0  0  0  0  0  0  0
   10.3302  -17.6202   24.1759 N   0  0  0  0  0  0  0  0  0  0  0  0
   11.1623  -18.7731   24.3810 C   0  0  0  0  0  0  0  0  0  0  0  0
   12.5845  -18.4390   24.1475 C   0  0  0  0  0  0  0  0  0  0  0  0
   13.3078  -19.0899   23.1589 O   0  0  0  0  0  0  0  0  0  0  0  0
   13.1798  -17.5653   24.8276 O   0  0  0  0  0  0  0  0  0  0  0  0
  2  1  1  6
  2  3  1  0
  4  6  1  0
  4  2  1  0
  4  5  1  1
  6  7  2  0
  8  6  1  0
  8  9  1  0
  9 17  1  0
 10 11  1  0
  9 10  1  1
 11 16  2  0
 11 12  1  0
 12 13  2  0
 13 14  1  0
 15 14  2  0
 16 15  1  0
 17 18  2  0
 17 19  1  0
 19 20  1  0
 20 21  1  0
 21 22  1  0
 23 21  2  0
M  END
$$$$
