VFG.pdb
     RDKit          3D

 23 23  0  0  1  0  0  0  0  0999 V2000
    7.2955  -14.2833   18.4396 C   0  0  0  0  0  0  0  0  0  0  0  0
    8.0555  -14.7251   19.6926 C   0  0  2  0  0  0  0  0  0  0  0  0
    7.5219  -16.0746   20.0958 C   0  0  0  0  0  0  0  0  0  0  0  0
    7.7854  -13.6691   20.7421 C   0  0  2  0  0  0  0  0  0  0  0  0
    8.1955  -12.3915   20.1794 N   0  0  0  0  0  0  0  0  0  0  0  0
    8.4970  -13.9406   22.0106 C   0  0  0  0  0  0  0  0  0  0  0  0
    9.6433  -13.4913   22.1841 O   0  0  0  0  0  0  0  0  0  0  0  0
    7.8804  -14.6960   23.0007 N   0  0  0  0  0  0  0  0  0  0  0  0
    8.4599  -14.9992   24.3001 C   0  0  1  0  0  0  0  0  0  0  0  0
    7.3367  -15.0675   25.2722 C   0  0  0  0  0  0  0  0  0  0  0  0
    6.9976  -13.7436   25.8571 C   0  0  0  0  0  0  0  0  0  0  0  0
    5.7216  -13.2512   25.9599 C   0  0  0  0  0  0  0  0  0  0  0  0
    5.4612  -12.0142   26.5122 C   0  0  0  0  0  0  0  0  0  0  0  0
    6.4849  -11.2211   26.9851 C   0  0  0  0  0  0  0  0  0  0  0  0
    7.7711  -11.6863   26.8959 C   0  0  0  0  0  0  0  0  0  0  0  0
    8.0114  -12.9119   26.3470 C   0  0  0  0  0  0  0  0  0  0  0  0
    9.3732  -16.1272   24.2758 C   0  0  0  0  0  0  0  0  0  0  0  0
    9.7416  -16.6460   25.3634 O   0  0  0  0  0  0  0  0  0  0  0  0
    9.9042  -16.7148   23.0923 N   0  0  0  0  0  0  0  0  0  0  0  0
   10.7545  -17.8723   23.1203 C   0  0  0  0  0  0  0  0  0  0  0  0
   11.0036  -18.3707   21.7498 C   0  0  0  0  0  0  0  0  0  0  0  0
   12.0153  -17.8236   20.9743 O   0  0  0  0  0  0  0  0  0  0  0  0
   10.3165  -19.2952   21.2463 O   0  0  0  0  0  0  0  0  0  0  0  0
  2  1  1  6
  2  3  1  0
  4  6  1  0
  4  2  1  0
  4  5  1  6
  6  7  2  0
  8  6  1  0
  8  9  1  0
  9 17  1  0
 10 11  1  0
  9 10  1  1
 11 16  2  0
 11 12  1  0
 12 13  2  0
 13 14  1  0
 15 14  2  0
 16 15  1  0
 17 18  2  0
 17 19  1  0
 19 20  1  0
 20 21  1  0
 21 22  1  0
 23 21  2  0
M  END
$$$$
