VFG.pdb
     RDKit          3D

 23 23  0  0  1  0  0  0  0  0999 V2000
    7.3610  -14.6105   18.3497 C   0  0  0  0  0  0  0  0  0  0  0  0
    8.1343  -14.9134   19.6353 C   0  0  2  0  0  0  0  0  0  0  0  0
    7.6791  -16.2601   20.1332 C   0  0  0  0  0  0  0  0  0  0  0  0
    7.7913  -13.8025   20.6038 C   0  0  2  0  0  0  0  0  0  0  0  0
    8.1064  -12.5455   19.9422 N   0  0  0  0  0  0  0  0  0  0  0  0
    8.5242  -13.9243   21.8833 C   0  0  0  0  0  0  0  0  0  0  0  0
    9.6432  -13.3967   22.0069 O   0  0  0  0  0  0  0  0  0  0  0  0
    7.9578  -14.6276   22.9396 N   0  0  0  0  0  0  0  0  0  0  0  0
    8.5570  -14.7793   24.2565 C   0  0  1  0  0  0  0  0  0  0  0  0
    7.4406  -14.8808   25.2335 C   0  0  0  0  0  0  0  0  0  0  0  0
    7.0863  -13.5724   25.8438 C   0  0  0  0  0  0  0  0  0  0  0  0
    8.0014  -12.6114   26.1905 C   0  0  0  0  0  0  0  0  0  0  0  0
    7.6189  -11.4121   26.7546 C   0  0  0  0  0  0  0  0  0  0  0  0
    6.2897  -11.1343   26.9923 C   0  0  0  0  0  0  0  0  0  0  0  0
    5.3516  -12.0756   26.6564 C   0  0  0  0  0  0  0  0  0  0  0  0
    5.7467  -13.2565   26.0992 C   0  0  0  0  0  0  0  0  0  0  0  0
    9.5717  -15.8158   24.3130 C   0  0  0  0  0  0  0  0  0  0  0  0
   10.1269  -16.0760   25.4138 O   0  0  0  0  0  0  0  0  0  0  0  0
   10.0061  -16.5865   23.1972 N   0  0  0  0  0  0  0  0  0  0  0  0
   10.9502  -17.6619   23.3229 C   0  0  0  0  0  0  0  0  0  0  0  0
   11.0721  -18.4018   22.0476 C   0  0  0  0  0  0  0  0  0  0  0  0
   12.1862  -18.2326   21.2388 O   0  0  0  0  0  0  0  0  0  0  0  0
   10.1823  -19.1994   21.6572 O   0  0  0  0  0  0  0  0  0  0  0  0
  2  1  1  6
  2  3  1  0
  4  6  1  0
  4  2  1  0
  4  5  1  6
  6  7  2  0
  8  6  1  0
  8  9  1  0
  9 17  1  0
 10 11  1  0
  9 10  1  1
 11 16  2  0
 11 12  1  0
 12 13  2  0
 13 14  1  0
 15 14  2  0
 16 15  1  0
 17 18  2  0
 17 19  1  0
 19 20  1  0
 20 21  1  0
 21 22  1  0
 23 21  2  0
M  END
$$$$
