VFG.pdb
     RDKit          3D

 23 23  0  0  1  0  0  0  0  0999 V2000
    7.2096  -14.2432   18.5686 C   0  0  0  0  0  0  0  0  0  0  0  0
    7.9938  -14.6904   19.8046 C   0  0  2  0  0  0  0  0  0  0  0  0
    7.4412  -16.0235   20.2358 C   0  0  0  0  0  0  0  0  0  0  0  0
    7.7765  -13.6186   20.8505 C   0  0  2  0  0  0  0  0  0  0  0  0
    8.1791  -12.3529   20.2564 N   0  0  0  0  0  0  0  0  0  0  0  0
    8.5336  -13.8832   22.0939 C   0  0  0  0  0  0  0  0  0  0  0  0
    9.6997  -13.4671   22.2074 O   0  0  0  0  0  0  0  0  0  0  0  0
    7.9372  -14.5951   23.1277 N   0  0  0  0  0  0  0  0  0  0  0  0
    8.5860  -14.9441   24.3820 C   0  0  1  0  0  0  0  0  0  0  0  0
    7.5293  -14.9624   25.4281 C   0  0  0  0  0  0  0  0  0  0  0  0
    7.2389  -13.6128   25.9796 C   0  0  0  0  0  0  0  0  0  0  0  0
    8.1890  -12.6461   26.1899 C   0  0  0  0  0  0  0  0  0  0  0  0
    7.8656  -11.4079   26.7048 C   0  0  0  0  0  0  0  0  0  0  0  0
    6.5628  -11.0951   27.0293 C   0  0  0  0  0  0  0  0  0  0  0  0
    5.5910  -12.0410   26.8302 C   0  0  0  0  0  0  0  0  0  0  0  0
    5.9276  -13.2607   26.3202 C   0  0  0  0  0  0  0  0  0  0  0  0
    9.4322  -16.1197   24.2867 C   0  0  0  0  0  0  0  0  0  0  0  0
   10.0014  -16.5555   25.3229 O   0  0  0  0  0  0  0  0  0  0  0  0
    9.6814  -16.8438   23.0862 N   0  0  0  0  0  0  0  0  0  0  0  0
   10.3863  -18.0954   23.0723 C   0  0  0  0  0  0  0  0  0  0  0  0
   11.8428  -17.8762   23.2109 C   0  0  0  0  0  0  0  0  0  0  0  0
   12.7364  -18.9108   22.9756 O   0  0  0  0  0  0  0  0  0  0  0  0
   12.3158  -16.7597   23.5424 O   0  0  0  0  0  0  0  0  0  0  0  0
  2  1  1  6
  2  3  1  0
  4  6  1  0
  4  2  1  0
  4  5  1  6
  6  7  2  0
  8  6  1  0
  8  9  1  0
  9 17  1  0
 10 11  1  0
  9 10  1  1
 11 16  2  0
 11 12  1  0
 12 13  2  0
 13 14  1  0
 15 14  2  0
 16 15  1  0
 17 18  2  0
 17 19  1  0
 19 20  1  0
 20 21  1  0
 21 22  1  0
 23 21  2  0
M  END
$$$$
