LPC.pdb
     RDKit          3D

 22 22  0  0  1  0  0  0  0  0999 V2000
   16.1940  -14.1835  -18.4467 C   0  0  0  0  0  0  0  0  0  0  0  0
   16.4615  -14.3690  -16.9626 C   0  0  2  0  0  0  0  0  0  0  0  0
   15.1381  -14.2657  -16.2231 C   0  0  0  0  0  0  0  0  0  0  0  0
   17.4534  -13.3529  -16.4511 C   0  0  0  0  0  0  0  0  0  0  0  0
   18.7822  -13.6364  -17.1548 C   0  0  2  0  0  0  0  0  0  0  0  0
   19.2411  -14.9104  -16.7449 N   0  0  0  0  0  0  0  0  0  0  0  0
   19.6965  -12.5009  -16.9455 C   0  0  0  0  0  0  0  0  0  0  0  0
   20.6605  -12.7130  -16.1212 O   0  0  0  0  0  0  0  0  0  0  0  0
   19.6363  -11.2275  -17.5357 N   0  0  0  0  0  0  0  0  0  0  0  0
   18.7191  -10.7024  -18.4967 C   0  0  0  0  0  0  0  0  0  0  0  0
   19.6335   -9.8193  -19.3621 C   0  0  0  0  0  0  0  0  0  0  0  0
   20.9020   -9.6324  -18.5968 C   0  0  0  0  0  0  0  0  0  0  0  0
   20.5636  -10.1565  -17.2384 C   0  0  1  0  0  0  0  0  0  0  0  0
   19.9785   -9.1387  -16.3258 C   0  0  0  0  0  0  0  0  0  0  0  0
   18.7637   -8.8679  -16.4370 O   0  0  0  0  0  0  0  0  0  0  0  0
   20.7205   -8.4624  -15.3416 N   0  0  0  0  0  0  0  0  0  0  0  0
   20.1471   -7.4951  -14.4254 C   0  0  1  0  0  0  0  0  0  0  0  0
   20.7993   -7.7508  -13.0716 C   0  0  0  0  0  0  0  0  0  0  0  0
   19.9148   -9.0473  -12.1656 S   0  0  0  0  0  0  0  0  0  0  0  0
   20.5681   -6.1278  -14.8416 C   0  0  0  0  0  0  0  0  0  0  0  0
   19.9313   -4.9866  -14.3794 O   0  0  0  0  0  0  0  0  0  0  0  0
   21.5336   -5.9547  -15.6418 O   0  0  0  0  0  0  0  0  0  0  0  0
  2  1  1  6
  2  4  1  0
  2  3  1  0
  5  7  1  0
  5  4  1  0
  5  6  1  1
  7  8  2  0
  9 13  1  0
  9  7  1  0
 10  9  1  0
 11 10  1  0
 11 12  1  0
 12 13  1  0
 13 14  1  1
 14 15  2  0
 16 14  1  0
 17 16  1  0
 17 20  1  0
 17 18  1  1
 19 18  1  0
 20 22  2  0
 20 21  1  0
M  END
$$$$
