LPC.pdb
     RDKit          3D

 22 22  0  0  1  0  0  0  0  0999 V2000
   23.8654  -19.1515  -14.4317 C   0  0  0  0  0  0  0  0  0  0  0  0
   23.0680  -20.0591  -13.5104 C   0  0  2  0  0  0  0  0  0  0  0  0
   21.7618  -19.3622  -13.1681 C   0  0  0  0  0  0  0  0  0  0  0  0
   23.8477  -20.4000  -12.2639 C   0  0  0  0  0  0  0  0  0  0  0  0
   24.9526  -21.3718  -12.6833 C   0  0  2  0  0  0  0  0  0  0  0  0
   24.3506  -22.4883  -13.3099 N   0  0  0  0  0  0  0  0  0  0  0  0
   25.8242  -21.6468  -11.5283 C   0  0  0  0  0  0  0  0  0  0  0  0
   25.4479  -22.6159  -10.7713 O   0  0  0  0  0  0  0  0  0  0  0  0
   27.0048  -20.9790  -11.1628 N   0  0  0  0  0  0  0  0  0  0  0  0
   27.6662  -19.8753  -11.7834 C   0  0  0  0  0  0  0  0  0  0  0  0
   29.1475  -20.2371  -11.5839 C   0  0  0  0  0  0  0  0  0  0  0  0
   29.1925  -21.3158  -10.5523 C   0  0  0  0  0  0  0  0  0  0  0  0
   27.8016  -21.3254  -10.0050 C   0  0  1  0  0  0  0  0  0  0  0  0
   27.5909  -20.3860   -8.8718 C   0  0  0  0  0  0  0  0  0  0  0  0
   27.1040  -19.2610   -9.1140 O   0  0  0  0  0  0  0  0  0  0  0  0
   27.9109  -20.6961   -7.5383 N   0  0  0  0  0  0  0  0  0  0  0  0
   27.7072  -19.7836   -6.4294 C   0  0  1  0  0  0  0  0  0  0  0  0
   27.1027  -20.6113   -5.3011 C   0  0  0  0  0  0  0  0  0  0  0  0
   27.1137  -19.6832   -3.7447 S   0  0  0  0  0  0  0  0  0  0  0  0
   29.0342  -19.3146   -5.9405 C   0  0  0  0  0  0  0  0  0  0  0  0
   29.1958  -18.0975   -5.2970 O   0  0  0  0  0  0  0  0  0  0  0  0
   30.0755  -20.0174   -6.0958 O   0  0  0  0  0  0  0  0  0  0  0  0
  2  1  1  6
  2  4  1  0
  2  3  1  0
  5  7  1  0
  5  4  1  0
  5  6  1  1
  7  8  2  0
  9 13  1  0
  9  7  1  0
 10  9  1  0
 11 10  1  0
 11 12  1  0
 12 13  1  0
 13 14  1  1
 14 15  2  0
 16 14  1  0
 17 16  1  0
 17 20  1  0
 17 18  1  1
 19 18  1  0
 20 22  2  0
 20 21  1  0
M  END
$$$$
