LPC.pdb
     RDKit          3D

 22 22  0  0  1  0  0  0  0  0999 V2000
   24.0731  -30.5261  -18.6061 C   0  0  0  0  0  0  0  0  0  0  0  0
   22.7777  -30.8910  -17.9008 C   0  0  2  0  0  0  0  0  0  0  0  0
   21.9691  -29.6201  -17.7014 C   0  0  0  0  0  0  0  0  0  0  0  0
   23.0431  -31.5812  -16.5851 C   0  0  0  0  0  0  0  0  0  0  0  0
   23.7479  -32.8999  -16.9098 C   0  0  2  0  0  0  0  0  0  0  0  0
   22.8491  -33.7202  -17.6314 N   0  0  0  0  0  0  0  0  0  0  0  0
   24.3189  -33.4642  -15.6750 C   0  0  0  0  0  0  0  0  0  0  0  0
   23.6687  -34.4505  -15.1667 O   0  0  0  0  0  0  0  0  0  0  0  0
   25.4782  -33.0527  -14.9966 N   0  0  0  0  0  0  0  0  0  0  0  0
   26.3167  -31.9171  -15.2151 C   0  0  0  0  0  0  0  0  0  0  0  0
   27.7138  -32.4907  -14.9253 C   0  0  0  0  0  0  0  0  0  0  0  0
   27.5081  -33.7879  -14.2147 C   0  0  0  0  0  0  0  0  0  0  0  0
   26.0524  -33.7664  -13.8757 C   0  0  1  0  0  0  0  0  0  0  0  0
   25.7440  -33.1172  -12.5740 C   0  0  0  0  0  0  0  0  0  0  0  0
   25.7478  -31.8690  -12.5158 O   0  0  0  0  0  0  0  0  0  0  0  0
   25.4475  -33.8340  -11.4014 N   0  0  0  0  0  0  0  0  0  0  0  0
   25.1064  -33.2057  -10.1393 C   0  0  1  0  0  0  0  0  0  0  0  0
   24.3085  -34.2377   -9.3507 C   0  0  0  0  0  0  0  0  0  0  0  0
   24.0747  -33.6980   -7.6368 S   0  0  0  0  0  0  0  0  0  0  0  0
   26.3574  -32.9639   -9.3670 C   0  0  0  0  0  0  0  0  0  0  0  0
   26.4971  -31.8860   -8.5067 O   0  0  0  0  0  0  0  0  0  0  0  0
   27.3508  -33.7420   -9.4684 O   0  0  0  0  0  0  0  0  0  0  0  0
  2  1  1  1
  2  4  1  0
  2  3  1  0
  5  7  1  0
  5  4  1  0
  5  6  1  1
  7  8  2  0
  9 13  1  0
  9  7  1  0
 10  9  1  0
 11 10  1  0
 11 12  1  0
 12 13  1  0
 13 14  1  1
 14 15  2  0
 16 14  1  0
 17 16  1  0
 17 20  1  0
 17 18  1  1
 19 18  1  0
 20 22  2  0
 20 21  1  0
M  END
$$$$
