LPC.pdb
     RDKit          3D

 22 22  0  0  1  0  0  0  0  0999 V2000
   17.6124  -14.2510  -20.3569 C   0  0  0  0  0  0  0  0  0  0  0  0
   16.8845  -14.0686  -19.0357 C   0  0  2  0  0  0  0  0  0  0  0  0
   15.5007  -13.5125  -19.3266 C   0  0  0  0  0  0  0  0  0  0  0  0
   17.6525  -13.1622  -18.1049 C   0  0  0  0  0  0  0  0  0  0  0  0
   18.9630  -13.8774  -17.7701 C   0  0  2  0  0  0  0  0  0  0  0  0
   18.6545  -15.0778  -17.0877 N   0  0  0  0  0  0  0  0  0  0  0  0
   19.8701  -12.9386  -17.0880 C   0  0  0  0  0  0  0  0  0  0  0  0
   19.9640  -13.0887  -15.8143 O   0  0  0  0  0  0  0  0  0  0  0  0
   20.6347  -11.9096  -17.6627 N   0  0  0  0  0  0  0  0  0  0  0  0
   20.6852  -11.4467  -19.0131 C   0  0  0  0  0  0  0  0  0  0  0  0
   22.1770  -11.1133  -19.1811 C   0  0  0  0  0  0  0  0  0  0  0  0
   22.7652  -11.0661  -17.8093 C   0  0  0  0  0  0  0  0  0  0  0  0
   21.5638  -11.0847  -16.9201 C   0  0  1  0  0  0  0  0  0  0  0  0
   21.0105   -9.7369  -16.6226 C   0  0  0  0  0  0  0  0  0  0  0  0
   20.2629   -9.2006  -17.4681 O   0  0  0  0  0  0  0  0  0  0  0  0
   21.2839   -9.0312  -15.4378 N   0  0  0  0  0  0  0  0  0  0  0  0
   20.7007   -7.7425  -15.1165 C   0  0  1  0  0  0  0  0  0  0  0  0
   20.8202   -7.5848  -13.6051 C   0  0  0  0  0  0  0  0  0  0  0  0
   19.6740   -8.6972  -12.7492 S   0  0  0  0  0  0  0  0  0  0  0  0
   21.5411   -6.6691  -15.7176 C   0  0  0  0  0  0  0  0  0  0  0  0
   22.7125   -6.9465  -16.4048 O   0  0  0  0  0  0  0  0  0  0  0  0
   21.2136   -5.4500  -15.6225 O   0  0  0  0  0  0  0  0  0  0  0  0
  2  1  1  6
  2  4  1  0
  2  3  1  0
  5  7  1  0
  5  4  1  0
  5  6  1  1
  7  8  2  0
  9 13  1  0
  9  7  1  0
 10  9  1  0
 11 10  1  0
 11 12  1  0
 12 13  1  0
 13 14  1  6
 14 15  2  0
 16 14  1  0
 17 16  1  0
 17 20  1  0
 17 18  1  1
 19 18  1  0
 20 22  2  0
 20 21  1  0
M  END
$$$$
