LPC.pdb
     RDKit          3D

 22 22  0  0  1  0  0  0  0  0999 V2000
   21.8113   -9.6755  -20.1339 C   0  0  0  0  0  0  0  0  0  0  0  0
   20.3443   -9.5627  -19.7549 C   0  0  2  0  0  0  0  0  0  0  0  0
   19.5348   -9.3884  -21.0289 C   0  0  0  0  0  0  0  0  0  0  0  0
   20.1096   -8.4193  -18.7982 C   0  0  0  0  0  0  0  0  0  0  0  0
   20.8923   -8.7395  -17.5231 C   0  0  2  0  0  0  0  0  0  0  0  0
   20.2875   -9.8545  -16.8965 N   0  0  0  0  0  0  0  0  0  0  0  0
   21.0295   -7.5157  -16.7151 C   0  0  0  0  0  0  0  0  0  0  0  0
   20.1652   -7.3764  -15.7731 O   0  0  0  0  0  0  0  0  0  0  0  0
   21.9846   -6.4949  -16.8547 N   0  0  0  0  0  0  0  0  0  0  0  0
   23.0702   -6.3717  -17.7748 C   0  0  0  0  0  0  0  0  0  0  0  0
   24.1564   -5.7206  -16.9024 C   0  0  0  0  0  0  0  0  0  0  0  0
   23.4730   -5.1986  -15.6816 C   0  0  0  0  0  0  0  0  0  0  0  0
   22.0228   -5.3081  -16.0268 C   0  0  1  0  0  0  0  0  0  0  0  0
   21.4751   -4.1143  -16.7240 C   0  0  0  0  0  0  0  0  0  0  0  0
   21.6151   -4.0324  -17.9630 O   0  0  0  0  0  0  0  0  0  0  0  0
   20.8062   -3.0696  -16.0625 N   0  0  0  0  0  0  0  0  0  0  0  0
   20.2684   -1.9041  -16.7381 C   0  0  1  0  0  0  0  0  0  0  0  0
   18.8682   -1.6922  -16.1741 C   0  0  0  0  0  0  0  0  0  0  0  0
   18.1296   -0.1762  -16.8375 S   0  0  0  0  0  0  0  0  0  0  0  0
   21.0643   -0.7078  -16.3439 C   0  0  0  0  0  0  0  0  0  0  0  0
   21.2772    0.3548  -17.2082 O   0  0  0  0  0  0  0  0  0  0  0  0
   21.5818   -0.6155  -15.1923 O   0  0  0  0  0  0  0  0  0  0  0  0
  2  1  1  6
  2  4  1  0
  2  3  1  0
  5  7  1  0
  5  4  1  0
  5  6  1  1
  7  8  2  0
  9 13  1  0
  9  7  1  0
 10  9  1  0
 11 10  1  0
 11 12  1  0
 12 13  1  0
 13 14  1  6
 14 15  2  0
 16 14  1  0
 17 16  1  0
 17 20  1  0
 17 18  1  1
 19 18  1  0
 20 22  2  0
 20 21  1  0
M  END
$$$$
