LPC.pdb
     RDKit          3D

 22 22  0  0  1  0  0  0  0  0999 V2000
   22.9477  -13.0868  -14.5819 C   0  0  0  0  0  0  0  0  0  0  0  0
   23.2195  -12.2771  -15.8385 C   0  0  2  0  0  0  0  0  0  0  0  0
   24.7150  -12.3007  -16.1066 C   0  0  0  0  0  0  0  0  0  0  0  0
   22.7117  -10.8625  -15.7021 C   0  0  0  0  0  0  0  0  0  0  0  0
   21.1854  -10.9287  -15.7872 C   0  0  2  0  0  0  0  0  0  0  0  0
   20.8321  -11.4899  -17.0369 N   0  0  0  0  0  0  0  0  0  0  0  0
   20.6216   -9.6057  -15.4687 C   0  0  0  0  0  0  0  0  0  0  0  0
   20.2347   -8.9125  -16.4804 O   0  0  0  0  0  0  0  0  0  0  0  0
   20.4610   -9.0212  -14.2014 N   0  0  0  0  0  0  0  0  0  0  0  0
   20.7754   -9.5345  -12.9060 C   0  0  0  0  0  0  0  0  0  0  0  0
   19.6140   -8.9919  -12.0566 C   0  0  0  0  0  0  0  0  0  0  0  0
   18.9537   -7.9223  -12.8626 C   0  0  0  0  0  0  0  0  0  0  0  0
   19.9125   -7.6988  -13.9873 C   0  0  1  0  0  0  0  0  0  0  0  0
   20.9652   -6.6906  -13.6934 C   0  0  0  0  0  0  0  0  0  0  0  0
   22.0869   -7.0935  -13.3180 O   0  0  0  0  0  0  0  0  0  0  0  0
   20.7662   -5.3042  -13.8153 N   0  0  0  0  0  0  0  0  0  0  0  0
   21.8333   -4.3591  -14.0839 C   0  0  1  0  0  0  0  0  0  0  0  0
   22.2348   -4.5708  -15.5390 C   0  0  0  0  0  0  0  0  0  0  0  0
   23.5340   -5.8270  -15.6722 S   0  0  0  0  0  0  0  0  0  0  0  0
   21.2861   -2.9760  -13.9971 C   0  0  0  0  0  0  0  0  0  0  0  0
   22.0584   -1.9011  -13.5855 O   0  0  0  0  0  0  0  0  0  0  0  0
   20.0821   -2.7276  -14.2993 O   0  0  0  0  0  0  0  0  0  0  0  0
  2  1  1  1
  2  4  1  0
  2  3  1  0
  5  7  1  0
  5  4  1  0
  5  6  1  6
  7  8  2  0
  9 13  1  0
  9  7  1  0
 10  9  1  0
 11 10  1  0
 11 12  1  0
 12 13  1  0
 13 14  1  1
 14 15  2  0
 16 14  1  0
 17 16  1  0
 17 20  1  0
 17 18  1  6
 19 18  1  0
 20 22  2  0
 20 21  1  0
M  END
$$$$
