RNK.pdb
     RDKit          3D

 29 28  0  0  1  0  0  0  0  0999 V2000
   28.4651  -21.3795  -15.2399 N   0  0  0  0  0  0  0  0  0  0  0  0
   28.1647  -22.1241  -16.4076 C   0  0  0  0  0  0  0  0  0  0  0  0
   29.0575  -22.5710  -17.2213 N   0  0  0  0  0  0  0  0  0  0  0  0
   26.8031  -22.3953  -16.7010 N   0  0  0  0  0  0  0  0  0  0  0  0
   25.7567  -22.0970  -15.7266 C   0  0  0  0  0  0  0  0  0  0  0  0
   25.3797  -20.6394  -15.7496 C   0  0  0  0  0  0  0  0  0  0  0  0
   24.2028  -20.4156  -14.8153 C   0  0  0  0  0  0  0  0  0  0  0  0
   23.3395  -21.6688  -14.7384 C   0  0  2  0  0  0  0  0  0  0  0  0
   22.5861  -21.8848  -15.9435 N   0  0  0  0  0  0  0  0  0  0  0  0
   22.4092  -21.5265  -13.5731 C   0  0  0  0  0  0  0  0  0  0  0  0
   22.7170  -20.8060  -12.5805 O   0  0  0  0  0  0  0  0  0  0  0  0
   28.7455  -23.0988  -18.0600 N   0  0  0  0  0  0  0  0  0  0  0  0
   18.5307  -21.2955  -14.6363 C   0  0  0  0  0  0  0  0  0  0  0  0
   18.6989  -20.4276  -13.5581 O   0  0  0  0  0  0  0  0  0  0  0  0
   18.0515  -19.3386  -13.5658 C   0  0  0  0  0  0  0  0  0  0  0  0
   19.5742  -20.6588  -12.3870 C   0  0  1  0  0  0  0  0  0  0  0  0
   20.2541  -21.9977  -12.4220 N   0  0  0  0  0  0  0  0  0  0  0  0
   21.1526  -22.1757  -13.5091 C   0  0  0  0  0  0  0  0  0  0  0  0
   19.3005  -23.1237  -12.3216 O   0  0  0  0  0  0  0  0  0  0  0  0
   18.9707  -23.7269  -13.3667 N   0  0  0  0  0  0  0  0  0  0  0  0
   18.7443  -23.5483  -11.0910 C   0  0  1  0  0  0  0  0  0  0  0  0
   17.8346  -24.6704  -10.9789 C   0  0  0  0  0  0  0  0  0  0  0  0
   18.2384  -25.5116   -9.7878 C   0  0  0  0  0  0  0  0  0  0  0  0
   17.4055  -26.7627   -9.6768 C   0  0  0  0  0  0  0  0  0  0  0  0
   17.7460  -27.5649   -8.4444 C   0  0  0  0  0  0  0  0  0  0  0  0
   16.9473  -28.8411   -8.3285 N   0  0  0  0  0  0  0  0  0  0  0  0
   17.2049  -29.5260   -7.0821 C   0  0  0  0  0  0  0  0  0  0  0  0
   16.4331  -24.2156  -10.9088 O   0  0  0  0  0  0  0  0  0  0  0  0
   16.2109  -23.0252  -10.5658 O   0  0  0  0  0  0  0  0  0  0  0  0
  1  2  1  0
  2  3  2  0
  4  5  1  0
  4  2  1  0
  6  7  1  0
  6  5  1  0
  8  9  1  6
  8  7  1  0
 10 11  2  0
 10  8  1  0
 12 13  1  0
 13 15  1  0
 13 14  2  0
 16 15  1  1
 16 18  1  0
 16 17  1  0
 17 10  1  0
 18 20  1  0
 19 18  2  0
 20 21  1  0
 21 27  1  0
 21 22  1  6
 23 22  1  0
 24 25  1  0
 24 23  1  0
 26 25  1  0
 27 28  2  0
 27 29  1  0
M  END
$$$$
