RNK.pdb
     RDKit          3D

 29 28  0  0  1  0  0  0  0  0999 V2000
   22.1080  -28.1114  -11.3932 N   0  0  0  0  0  0  0  0  0  0  0  0
   20.8072  -27.5600  -11.2839 C   0  0  0  0  0  0  0  0  0  0  0  0
   20.1094  -27.5801  -10.2015 N   0  0  0  0  0  0  0  0  0  0  0  0
   20.2366  -26.9493  -12.4308 N   0  0  0  0  0  0  0  0  0  0  0  0
   21.0869  -26.3896  -13.4782 C   0  0  0  0  0  0  0  0  0  0  0  0
   22.3814  -25.8640  -12.9168 C   0  0  0  0  0  0  0  0  0  0  0  0
   22.3801  -24.3470  -13.0005 C   0  0  0  0  0  0  0  0  0  0  0  0
   22.1429  -23.8942  -14.4359 C   0  0  2  0  0  0  0  0  0  0  0  0
   22.9975  -24.5761  -15.3694 N   0  0  0  0  0  0  0  0  0  0  0  0
   22.3836  -22.4175  -14.5076 C   0  0  0  0  0  0  0  0  0  0  0  0
   21.7346  -21.6173  -13.7745 O   0  0  0  0  0  0  0  0  0  0  0  0
   19.1565  -27.1665  -10.2169 N   0  0  0  0  0  0  0  0  0  0  0  0
   24.0136  -17.5927  -15.7357 C   0  0  0  0  0  0  0  0  0  0  0  0
   24.9545  -18.5292  -16.1621 O   0  0  0  0  0  0  0  0  0  0  0  0
   26.0525  -18.0990  -16.6252 C   0  0  0  0  0  0  0  0  0  0  0  0
   24.7924  -20.0000  -16.1256 C   0  0  2  0  0  0  0  0  0  0  0  0
   23.4892  -20.4284  -15.5139 N   0  0  0  0  0  0  0  0  0  0  0  0
   23.3328  -21.8351  -15.3820 C   0  0  0  0  0  0  0  0  0  0  0  0
   22.3188  -19.8165  -16.1798 O   0  0  0  0  0  0  0  0  0  0  0  0
   21.8371  -20.3813  -17.1866 N   0  0  0  0  0  0  0  0  0  0  0  0
   21.7201  -18.6170  -15.7252 C   0  0  1  0  0  0  0  0  0  0  0  0
   20.2879  -18.4532  -15.5795 C   0  0  0  0  0  0  0  0  0  0  0  0
   19.6771  -19.7873  -15.2097 C   0  0  0  0  0  0  0  0  0  0  0  0
   18.1784  -19.7004  -15.0774 C   0  0  0  0  0  0  0  0  0  0  0  0
   17.5652  -21.0210  -14.6798 C   0  0  0  0  0  0  0  0  0  0  0  0
   16.0630  -20.9590  -14.5407 N   0  0  0  0  0  0  0  0  0  0  0  0
   15.5216  -22.1843  -13.9980 C   0  0  0  0  0  0  0  0  0  0  0  0
   19.9689  -17.3896  -14.6084 O   0  0  0  0  0  0  0  0  0  0  0  0
   20.7185  -17.2553  -13.6063 O   0  0  0  0  0  0  0  0  0  0  0  0
  1  2  1  0
  2  3  2  0
  4  5  1  0
  4  2  1  0
  6  7  1  0
  6  5  1  0
  8  9  1  6
  8  7  1  0
 10 11  2  0
 10  8  1  0
 12 13  1  0
 13 15  1  0
 13 14  2  0
 16 15  1  1
 16 18  1  0
 16 17  1  0
 17 10  1  0
 18 20  1  0
 19 18  2  0
 20 21  1  0
 21 27  1  0
 21 22  1  6
 23 22  1  0
 24 25  1  0
 24 23  1  0
 26 25  1  0
 27 28  2  0
 27 29  1  0
M  END
$$$$
