RNK.pdb
     RDKit          3D

 29 28  0  0  1  0  0  0  0  0999 V2000
   20.4094  -22.7427  -10.6495 N   0  0  0  0  0  0  0  0  0  0  0  0
   21.3251  -21.7770  -11.1364 C   0  0  0  0  0  0  0  0  0  0  0  0
   21.4500  -20.5947  -10.6410 N   0  0  0  0  0  0  0  0  0  0  0  0
   22.1544  -22.1288  -12.2330 N   0  0  0  0  0  0  0  0  0  0  0  0
   23.2448  -21.2531  -12.6540 C   0  0  0  0  0  0  0  0  0  0  0  0
   24.4504  -21.4054  -11.7648 C   0  0  0  0  0  0  0  0  0  0  0  0
   25.6019  -20.6033  -12.3467 C   0  0  0  0  0  0  0  0  0  0  0  0
   25.8749  -21.0310  -13.7835 C   0  0  2  0  0  0  0  0  0  0  0  0
   26.6574  -22.2349  -13.8531 N   0  0  0  0  0  0  0  0  0  0  0  0
   26.5930  -19.9142  -14.4769 C   0  0  0  0  0  0  0  0  0  0  0  0
   27.7680  -19.5897  -14.1403 O   0  0  0  0  0  0  0  0  0  0  0  0
   22.0957  -19.9268  -11.1061 N   0  0  0  0  0  0  0  0  0  0  0  0
   29.4481  -17.6711  -18.2516 C   0  0  0  0  0  0  0  0  0  0  0  0
   28.8505  -18.9037  -17.9918 O   0  0  0  0  0  0  0  0  0  0  0  0
   28.9005  -19.7900  -18.8957 C   0  0  0  0  0  0  0  0  0  0  0  0
   28.1525  -19.2832  -16.7428 C   0  0  1  0  0  0  0  0  0  0  0  0
   26.6971  -18.9118  -16.7518 N   0  0  0  0  0  0  0  0  0  0  0  0
   26.0151  -19.1661  -15.5309 C   0  0  0  0  0  0  0  0  0  0  0  0
   25.9698  -19.4856  -17.9047 O   0  0  0  0  0  0  0  0  0  0  0  0
   26.1181  -20.7003  -18.1644 N   0  0  0  0  0  0  0  0  0  0  0  0
   25.1118  -18.7174  -18.7278 C   0  0  1  0  0  0  0  0  0  0  0  0
   23.6679  -18.8306  -18.6894 C   0  0  0  0  0  0  0  0  0  0  0  0
   23.2891  -19.9510  -17.7456 C   0  0  0  0  0  0  0  0  0  0  0  0
   21.7958  -20.1386  -17.6685 C   0  0  0  0  0  0  0  0  0  0  0  0
   21.4111  -21.2614  -16.7361 C   0  0  0  0  0  0  0  0  0  0  0  0
   19.9175  -21.4073  -16.5686 N   0  0  0  0  0  0  0  0  0  0  0  0
   19.5825  -22.3371  -15.5140 C   0  0  0  0  0  0  0  0  0  0  0  0
   23.0414  -17.5444  -18.3303 O   0  0  0  0  0  0  0  0  0  0  0  0
   22.5353  -16.8520  -19.2515 O   0  0  0  0  0  0  0  0  0  0  0  0
  1  2  1  0
  2  3  2  0
  4  5  1  0
  4  2  1  0
  6  7  1  0
  6  5  1  0
  8  9  1  1
  8  7  1  0
 10 11  2  0
 10  8  1  0
 12 13  1  0
 13 15  1  0
 13 14  2  0
 16 15  1  1
 16 18  1  0
 16 17  1  0
 17 10  1  0
 18 20  1  0
 19 18  2  0
 20 21  1  0
 21 27  1  0
 21 22  1  6
 23 22  1  0
 24 25  1  0
 24 23  1  0
 26 25  1  0
 27 28  2  0
 27 29  1  0
M  END
$$$$
