RNK.pdb
     RDKit          3D

 29 28  0  0  1  0  0  0  0  0999 V2000
   28.3882  -28.4721  -16.5890 N   0  0  0  0  0  0  0  0  0  0  0  0
   28.7670  -28.1984  -17.9268 C   0  0  0  0  0  0  0  0  0  0  0  0
   28.7606  -29.0784  -18.8672 N   0  0  0  0  0  0  0  0  0  0  0  0
   29.1777  -26.8799  -18.2536 N   0  0  0  0  0  0  0  0  0  0  0  0
   28.9642  -25.7791  -17.3177 C   0  0  0  0  0  0  0  0  0  0  0  0
   27.5452  -25.7487  -16.8150 C   0  0  0  0  0  0  0  0  0  0  0  0
   27.3665  -24.5470  -15.9028 C   0  0  0  0  0  0  0  0  0  0  0  0
   27.6113  -23.2548  -16.6722 C   0  0  2  0  0  0  0  0  0  0  0  0
   28.9539  -22.7687  -16.5056 N   0  0  0  0  0  0  0  0  0  0  0  0
   26.6329  -22.2287  -16.1888 C   0  0  0  0  0  0  0  0  0  0  0  0
   26.8946  -21.5033  -15.1866 O   0  0  0  0  0  0  0  0  0  0  0  0
   29.0902  -28.7985  -19.8119 N   0  0  0  0  0  0  0  0  0  0  0  0
   22.7558  -17.9004  -17.3819 C   0  0  0  0  0  0  0  0  0  0  0  0
   23.6050  -18.6949  -16.6127 O   0  0  0  0  0  0  0  0  0  0  0  0
   23.5883  -18.5377  -15.3557 C   0  0  0  0  0  0  0  0  0  0  0  0
   24.5387  -19.7203  -17.1304 C   0  0  2  0  0  0  0  0  0  0  0  0
   24.4701  -21.0112  -16.3654 N   0  0  0  0  0  0  0  0  0  0  0  0
   25.3793  -22.0097  -16.8092 C   0  0  0  0  0  0  0  0  0  0  0  0
   23.0933  -21.5422  -16.2661 O   0  0  0  0  0  0  0  0  0  0  0  0
   22.5600  -22.0242  -17.2898 N   0  0  0  0  0  0  0  0  0  0  0  0
   22.3526  -21.5280  -15.0599 C   0  0  1  0  0  0  0  0  0  0  0  0
   20.9614  -21.9249  -14.9808 C   0  0  0  0  0  0  0  0  0  0  0  0
   20.6593  -22.3735  -13.5676 C   0  0  0  0  0  0  0  0  0  0  0  0
   19.2653  -22.9321  -13.4426 C   0  0  0  0  0  0  0  0  0  0  0  0
   18.9608  -23.3917  -12.0375 C   0  0  0  0  0  0  0  0  0  0  0  0
   17.5839  -23.9953  -11.8966 N   0  0  0  0  0  0  0  0  0  0  0  0
   17.3798  -24.5704  -10.5864 C   0  0  0  0  0  0  0  0  0  0  0  0
   20.0710  -20.8420  -15.4394 O   0  0  0  0  0  0  0  0  0  0  0  0
   18.9329  -21.1536  -15.8774 O   0  0  0  0  0  0  0  0  0  0  0  0
  1  2  1  0
  2  3  2  0
  4  5  1  0
  4  2  1  0
  6  7  1  0
  6  5  1  0
  8  9  1  1
  8  7  1  0
 10 11  2  0
 10  8  1  0
 12 13  1  0
 13 15  1  0
 13 14  2  0
 16 15  1  1
 16 18  1  0
 16 17  1  0
 17 10  1  0
 18 20  1  0
 19 18  2  0
 20 21  1  0
 21 27  1  0
 21 22  1  6
 23 22  1  0
 24 25  1  0
 24 23  1  0
 26 25  1  0
 27 28  2  0
 27 29  1  0
M  END
$$$$
