RNK.pdb
     RDKit          3D

 29 28  0  0  1  0  0  0  0  0999 V2000
   27.0304  -13.4826  -15.5767 N   0  0  0  0  0  0  0  0  0  0  0  0
   27.1026  -14.0468  -16.8746 C   0  0  0  0  0  0  0  0  0  0  0  0
   27.0296  -13.3575  -17.9602 N   0  0  0  0  0  0  0  0  0  0  0  0
   27.2646  -15.4519  -16.9895 N   0  0  0  0  0  0  0  0  0  0  0  0
   27.5609  -16.2668  -15.8141 C   0  0  0  0  0  0  0  0  0  0  0  0
   26.3096  -16.6093  -15.0497 C   0  0  0  0  0  0  0  0  0  0  0  0
   25.8663  -18.0131  -15.4251 C   0  0  0  0  0  0  0  0  0  0  0  0
   26.7513  -19.0498  -14.7439 C   0  0  2  0  0  0  0  0  0  0  0  0
   27.6083  -19.7300  -15.6762 N   0  0  0  0  0  0  0  0  0  0  0  0
   25.8659  -20.0382  -14.0490 C   0  0  0  0  0  0  0  0  0  0  0  0
   25.5147  -21.1099  -14.6209 O   0  0  0  0  0  0  0  0  0  0  0  0
   27.1376  -13.8491  -18.8690 N   0  0  0  0  0  0  0  0  0  0  0  0
   26.9835  -20.5069   -9.5761 C   0  0  0  0  0  0  0  0  0  0  0  0
   26.0014  -21.2932  -10.1771 O   0  0  0  0  0  0  0  0  0  0  0  0
   26.2645  -22.5148  -10.3863 C   0  0  0  0  0  0  0  0  0  0  0  0
   24.6603  -20.8321  -10.6010 C   0  0  2  0  0  0  0  0  0  0  0  0
   24.5103  -20.7680  -12.0942 N   0  0  0  0  0  0  0  0  0  0  0  0
   25.3759  -19.8405  -12.7354 C   0  0  0  0  0  0  0  0  0  0  0  0
   23.1064  -20.5764  -12.5182 O   0  0  0  0  0  0  0  0  0  0  0  0
   22.6073  -19.4317  -12.4441 N   0  0  0  0  0  0  0  0  0  0  0  0
   22.3025  -21.6351  -13.0048 C   0  0  1  0  0  0  0  0  0  0  0  0
   20.9444  -21.4467  -13.4730 C   0  0  0  0  0  0  0  0  0  0  0  0
   20.5681  -22.6091  -14.3657 C   0  0  0  0  0  0  0  0  0  0  0  0
   19.1520  -22.4944  -14.8685 C   0  0  0  0  0  0  0  0  0  0  0  0
   18.7374  -23.6982  -15.6792 C   0  0  0  0  0  0  0  0  0  0  0  0
   17.3301  -23.5944  -16.2168 N   0  0  0  0  0  0  0  0  0  0  0  0
   16.9490  -24.7748  -16.9587 C   0  0  0  0  0  0  0  0  0  0  0  0
   20.0114  -21.2671  -12.3446 O   0  0  0  0  0  0  0  0  0  0  0  0
   20.1394  -22.0175  -11.3423 O   0  0  0  0  0  0  0  0  0  0  0  0
  1  2  1  0
  2  3  2  0
  4  5  1  0
  4  2  1  0
  6  7  1  0
  6  5  1  0
  8  9  1  6
  8  7  1  0
 10 11  2  0
 10  8  1  0
 12 13  1  0
 13 15  1  0
 13 14  2  0
 16 15  1  6
 16 18  1  0
 16 17  1  0
 17 10  1  0
 18 20  1  0
 19 18  2  0
 20 21  1  0
 21 27  1  0
 21 22  1  1
 23 22  1  0
 24 25  1  0
 24 23  1  0
 26 25  1  0
 27 28  2  0
 27 29  1  0
M  END
$$$$
