RNK.pdb
     RDKit          3D

 29 28  0  0  1  0  0  0  0  0999 V2000
   30.4694  -22.7028  -18.0669 N   0  0  0  0  0  0  0  0  0  0  0  0
   30.2785  -23.6942  -19.0613 C   0  0  0  0  0  0  0  0  0  0  0  0
   31.2424  -24.3151  -19.6479 N   0  0  0  0  0  0  0  0  0  0  0  0
   28.9501  -24.0251  -19.4352 N   0  0  0  0  0  0  0  0  0  0  0  0
   27.8178  -23.6048  -18.6140 C   0  0  0  0  0  0  0  0  0  0  0  0
   27.9601  -24.0796  -17.1921 C   0  0  0  0  0  0  0  0  0  0  0  0
   26.6872  -23.7539  -16.4295 C   0  0  0  0  0  0  0  0  0  0  0  0
   26.6739  -22.2862  -16.0201 C   0  0  2  0  0  0  0  0  0  0  0  0
   27.9937  -21.7853  -15.7487 N   0  0  0  0  0  0  0  0  0  0  0  0
   25.8143  -22.1472  -14.8013 C   0  0  0  0  0  0  0  0  0  0  0  0
   24.6291  -22.5879  -14.7887 O   0  0  0  0  0  0  0  0  0  0  0  0
   31.0122  -24.9855  -20.4074 N   0  0  0  0  0  0  0  0  0  0  0  0
   23.9169  -21.1730  -10.0229 C   0  0  0  0  0  0  0  0  0  0  0  0
   25.2380  -20.7317  -10.0836 O   0  0  0  0  0  0  0  0  0  0  0  0
   25.7649  -20.2870   -9.0208 C   0  0  0  0  0  0  0  0  0  0  0  0
   26.0982  -20.7324  -11.2883 C   0  0  2  0  0  0  0  0  0  0  0  0
   25.4104  -21.3022  -12.4960 N   0  0  0  0  0  0  0  0  0  0  0  0
   26.2636  -21.5268  -13.6105 C   0  0  0  0  0  0  0  0  0  0  0  0
   24.2091  -20.5316  -12.8840 O   0  0  0  0  0  0  0  0  0  0  0  0
   24.3460  -19.3348  -13.2213 N   0  0  0  0  0  0  0  0  0  0  0  0
   22.9092  -21.0920  -12.8898 C   0  0  1  0  0  0  0  0  0  0  0  0
   21.7218  -20.3332  -13.2270 C   0  0  0  0  0  0  0  0  0  0  0  0
   21.1224  -20.8991  -14.4958 C   0  0  0  0  0  0  0  0  0  0  0  0
   19.8889  -20.1436  -14.9188 C   0  0  0  0  0  0  0  0  0  0  0  0
   19.2962  -20.6913  -16.1943 C   0  0  0  0  0  0  0  0  0  0  0  0
   18.1011  -19.9051  -16.6778 N   0  0  0  0  0  0  0  0  0  0  0  0
   17.6439  -20.3615  -17.9707 C   0  0  0  0  0  0  0  0  0  0  0  0
   20.7661  -20.3113  -12.1036 O   0  0  0  0  0  0  0  0  0  0  0  0
   19.9531  -19.3529  -12.0334 O   0  0  0  0  0  0  0  0  0  0  0  0
  1  2  1  0
  2  3  2  0
  4  5  1  0
  4  2  1  0
  6  7  1  0
  6  5  1  0
  8  9  1  1
  8  7  1  0
 10 11  2  0
 10  8  1  0
 12 13  1  0
 13 15  1  0
 13 14  2  0
 16 15  1  1
 16 18  1  0
 16 17  1  0
 17 10  1  0
 18 20  1  0
 19 18  2  0
 20 21  1  0
 21 27  1  0
 21 22  1  1
 23 22  1  0
 24 25  1  0
 24 23  1  0
 26 25  1  0
 27 28  2  0
 27 29  1  0
M  END
$$$$
