RNK.pdb
     RDKit          3D

 29 28  0  0  1  0  0  0  0  0999 V2000
   24.7084  -13.3141  -17.9190 N   0  0  0  0  0  0  0  0  0  0  0  0
   25.5630  -14.0853  -17.0925 C   0  0  0  0  0  0  0  0  0  0  0  0
   26.7903  -14.3498  -17.3804 N   0  0  0  0  0  0  0  0  0  0  0  0
   25.0407  -14.5976  -15.8765 N   0  0  0  0  0  0  0  0  0  0  0  0
   25.8981  -15.3258  -14.9450 C   0  0  0  0  0  0  0  0  0  0  0  0
   26.0067  -16.7810  -15.3164 C   0  0  0  0  0  0  0  0  0  0  0  0
   26.9093  -17.4833  -14.3163 C   0  0  0  0  0  0  0  0  0  0  0  0
   27.1103  -18.9405  -14.7138 C   0  0  2  0  0  0  0  0  0  0  0  0
   27.2162  -19.1060  -16.1379 N   0  0  0  0  0  0  0  0  0  0  0  0
   25.9512  -19.7330  -14.1923 C   0  0  0  0  0  0  0  0  0  0  0  0
   25.2869  -20.4913  -14.9556 O   0  0  0  0  0  0  0  0  0  0  0  0
   27.3173  -14.9971  -16.7619 N   0  0  0  0  0  0  0  0  0  0  0  0
   26.9001  -21.2938   -9.6191 C   0  0  0  0  0  0  0  0  0  0  0  0
   25.9616  -21.6232  -10.5962 O   0  0  0  0  0  0  0  0  0  0  0  0
   26.1935  -22.6326  -11.3259 C   0  0  0  0  0  0  0  0  0  0  0  0
   24.7009  -20.8966  -10.8679 C   0  0  2  0  0  0  0  0  0  0  0  0
   24.5303  -20.5464  -12.3186 N   0  0  0  0  0  0  0  0  0  0  0  0
   25.5336  -19.6852  -12.8402 C   0  0  0  0  0  0  0  0  0  0  0  0
   23.1744  -20.0428  -12.6274 O   0  0  0  0  0  0  0  0  0  0  0  0
   22.8523  -18.9014  -12.2294 N   0  0  0  0  0  0  0  0  0  0  0  0
   22.2245  -20.7988  -13.3554 C   0  0  1  0  0  0  0  0  0  0  0  0
   20.9055  -20.3012  -13.6900 C   0  0  0  0  0  0  0  0  0  0  0  0
   20.5309  -20.7951  -15.0702 C   0  0  0  0  0  0  0  0  0  0  0  0
   21.2498  -20.0322  -16.1530 C   0  0  0  0  0  0  0  0  0  0  0  0
   20.9876  -20.6074  -17.5236 C   0  0  0  0  0  0  0  0  0  0  0  0
   21.6505  -19.8245  -18.6316 N   0  0  0  0  0  0  0  0  0  0  0  0
   21.5146  -20.4824  -19.9113 C   0  0  0  0  0  0  0  0  0  0  0  0
   19.9173  -20.6761  -12.6610 O   0  0  0  0  0  0  0  0  0  0  0  0
   20.0305  -21.8023  -12.1104 O   0  0  0  0  0  0  0  0  0  0  0  0
  1  2  1  0
  2  3  2  0
  4  5  1  0
  4  2  1  0
  6  7  1  0
  6  5  1  0
  8  9  1  6
  8  7  1  0
 10 11  2  0
 10  8  1  0
 12 13  1  0
 13 15  1  0
 13 14  2  0
 16 15  1  6
 16 18  1  0
 16 17  1  0
 17 10  1  0
 18 20  1  0
 19 18  2  0
 20 21  1  0
 21 27  1  0
 21 22  1  1
 23 22  1  0
 24 25  1  0
 24 23  1  0
 26 25  1  0
 27 28  2  0
 27 29  1  0
M  END
$$$$
