RNK.pdb
     RDKit          3D

 29 28  0  0  1  0  0  0  0  0999 V2000
   14.2268  -14.7848  -12.6335 N   0  0  0  0  0  0  0  0  0  0  0  0
   12.9012  -14.7986  -13.1342 C   0  0  0  0  0  0  0  0  0  0  0  0
   12.2605  -15.8746  -13.4352 N   0  0  0  0  0  0  0  0  0  0  0  0
   12.2377  -13.5575  -13.3162 N   0  0  0  0  0  0  0  0  0  0  0  0
   12.9559  -12.2967  -13.1495 C   0  0  0  0  0  0  0  0  0  0  0  0
   12.8217  -11.7657  -11.7469 C   0  0  0  0  0  0  0  0  0  0  0  0
   13.5319  -10.4260  -11.6524 C   0  0  0  0  0  0  0  0  0  0  0  0
   15.0425  -10.6212  -11.6934 C   0  0  2  0  0  0  0  0  0  0  0  0
   15.4329  -11.9352  -11.2603 N   0  0  0  0  0  0  0  0  0  0  0  0
   15.6733   -9.5853  -10.8144 C   0  0  0  0  0  0  0  0  0  0  0  0
   15.4243   -9.5461   -9.5752 O   0  0  0  0  0  0  0  0  0  0  0  0
   11.3037  -15.7889  -13.8309 N   0  0  0  0  0  0  0  0  0  0  0  0
   18.4854   -5.7513   -8.7116 C   0  0  0  0  0  0  0  0  0  0  0  0
   19.0676   -6.1624   -9.9099 O   0  0  0  0  0  0  0  0  0  0  0  0
   20.2098   -5.6999  -10.2044 C   0  0  0  0  0  0  0  0  0  0  0  0
   18.4715   -7.1014  -10.8866 C   0  0  2  0  0  0  0  0  0  0  0  0
   17.1075   -7.5800  -10.4782 N   0  0  0  0  0  0  0  0  0  0  0  0
   16.5694   -8.6044  -11.3038 C   0  0  0  0  0  0  0  0  0  0  0  0
   16.1449   -6.4716  -10.2988 O   0  0  0  0  0  0  0  0  0  0  0  0
   15.5995   -5.9796  -11.3114 N   0  0  0  0  0  0  0  0  0  0  0  0
   15.8141   -5.9433   -9.0278 C   0  0  1  0  0  0  0  0  0  0  0  0
   14.7716   -4.9573   -8.8275 C   0  0  0  0  0  0  0  0  0  0  0  0
   14.1752   -5.1474   -7.4500 C   0  0  0  0  0  0  0  0  0  0  0  0
   13.1060   -4.1268   -7.1560 C   0  0  0  0  0  0  0  0  0  0  0  0
   12.5671   -4.2561   -5.7521 C   0  0  0  0  0  0  0  0  0  0  0  0
   11.4240   -3.3118   -5.4668 N   0  0  0  0  0  0  0  0  0  0  0  0
   10.9426   -3.4437   -4.1104 C   0  0  0  0  0  0  0  0  0  0  0  0
   15.2813   -3.5904   -9.0461 O   0  0  0  0  0  0  0  0  0  0  0  0
   16.5054   -3.3739   -8.8489 O   0  0  0  0  0  0  0  0  0  0  0  0
  1  2  1  0
  2  3  2  0
  4  5  1  0
  4  2  1  0
  6  7  1  0
  6  5  1  0
  8  9  1  1
  8  7  1  0
 10 11  2  0
 10  8  1  0
 12 13  1  0
 13 15  1  0
 13 14  2  0
 16 15  1  1
 16 18  1  0
 16 17  1  0
 17 10  1  0
 18 20  1  0
 19 18  2  0
 20 21  1  0
 21 27  1  0
 21 22  1  6
 23 22  1  0
 24 25  1  0
 24 23  1  0
 26 25  1  0
 27 28  2  0
 27 29  1  0
M  END
$$$$
