TCG.pdb
     RDKit          3D

 18 17  0  0  1  0  0  0  0  0999 V2000
    7.0133  -14.8961   17.7320 C   0  0  0  0  0  0  0  0  0  0  0  0
    7.8993  -15.1102   18.9378 C   0  0  1  0  0  0  0  0  0  0  0  0
    9.1849  -15.4593   18.6110 O   0  0  0  0  0  0  0  0  0  0  0  0
    7.9107  -13.8341   19.7459 C   0  0  2  0  0  0  0  0  0  0  0  0
    8.4477  -12.7973   18.8477 N   0  0  0  0  0  0  0  0  0  0  0  0
    8.7014  -13.9072   20.9804 C   0  0  0  0  0  0  0  0  0  0  0  0
    9.9326  -13.6177   21.0399 O   0  0  0  0  0  0  0  0  0  0  0  0
    8.0812  -14.3205   22.1887 N   0  0  0  0  0  0  0  0  0  0  0  0
    8.8572  -14.6072   23.3871 C   0  0  1  0  0  0  0  0  0  0  0  0
    7.9223  -14.6453   24.6024 C   0  0  0  0  0  0  0  0  0  0  0  0
    7.1202  -13.0298   24.7694 S   0  0  0  0  0  0  0  0  0  0  0  0
    9.6142  -15.8650   23.2664 C   0  0  0  0  0  0  0  0  0  0  0  0
    9.0902  -16.9906   23.0494 O   0  0  0  0  0  0  0  0  0  0  0  0
   11.0270  -15.8264   23.4004 N   0  0  0  0  0  0  0  0  0  0  0  0
   11.8586  -17.0100   23.2722 C   0  0  0  0  0  0  0  0  0  0  0  0
   13.2726  -16.6736   23.5008 C   0  0  0  0  0  0  0  0  0  0  0  0
   13.6701  -15.3577   23.6848 O   0  0  0  0  0  0  0  0  0  0  0  0
   14.1523  -17.5650   23.5351 O   0  0  0  0  0  0  0  0  0  0  0  0
  2  3  1  0
  2  1  1  6
  4  5  1  6
  4  2  1  0
  6  4  1  0
  7  6  2  0
  8  6  1  0
  9  8  1  0
  9 12  1  0
  9 10  1  1
 11 10  1  0
 12 14  1  0
 13 12  2  0
 14 15  1  0
 16 17  1  0
 16 15  1  0
 18 16  2  0
M  END
$$$$
