TCG.pdb
     RDKit          3D

 18 17  0  0  1  0  0  0  0  0999 V2000
    6.2005  -13.5970   19.2319 C   0  0  0  0  0  0  0  0  0  0  0  0
    6.8144  -14.1525   20.4965 C   0  0  1  0  0  0  0  0  0  0  0  0
    7.5195  -15.3114   20.2933 O   0  0  0  0  0  0  0  0  0  0  0  0
    7.7278  -13.0993   21.0781 C   0  0  2  0  0  0  0  0  0  0  0  0
    8.7549  -12.8503   20.0518 N   0  0  0  0  0  0  0  0  0  0  0  0
    8.3520  -13.4767   22.3518 C   0  0  0  0  0  0  0  0  0  0  0  0
    9.5173  -13.9634   22.4418 O   0  0  0  0  0  0  0  0  0  0  0  0
    7.6366  -13.2982   23.5650 N   0  0  0  0  0  0  0  0  0  0  0  0
    8.1523  -13.7882   24.8357 C   0  0  1  0  0  0  0  0  0  0  0  0
    7.5446  -12.9698   25.9817 C   0  0  0  0  0  0  0  0  0  0  0  0
    8.4654  -13.3241   27.5008 S   0  0  0  0  0  0  0  0  0  0  0  0
    7.8905  -15.2260   25.0199 C   0  0  0  0  0  0  0  0  0  0  0  0
    6.7825  -15.7047   25.3832 O   0  0  0  0  0  0  0  0  0  0  0  0
    8.9427  -16.1475   24.7771 N   0  0  0  0  0  0  0  0  0  0  0  0
   10.1575  -16.1766   25.5722 C   0  0  0  0  0  0  0  0  0  0  0  0
   10.0869  -17.2441   26.5823 C   0  0  0  0  0  0  0  0  0  0  0  0
   11.0252  -18.2651   26.6051 O   0  0  0  0  0  0  0  0  0  0  0  0
    9.1795  -17.2586   27.4460 O   0  0  0  0  0  0  0  0  0  0  0  0
  2  3  1  0
  2  1  1  6
  4  5  1  6
  4  2  1  0
  6  4  1  0
  7  6  2  0
  8  6  1  0
  9  8  1  0
  9 12  1  0
  9 10  1  1
 11 10  1  0
 12 14  1  0
 13 12  2  0
 14 15  1  0
 16 17  1  0
 16 15  1  0
 18 16  2  0
M  END
$$$$
