TCG.pdb
     RDKit          3D

 18 17  0  0  1  0  0  0  0  0999 V2000
    5.1888  -20.2346   23.6134 C   0  0  0  0  0  0  0  0  0  0  0  0
    6.2303  -19.1427   23.7011 C   0  0  1  0  0  0  0  0  0  0  0  0
    7.4503  -19.5152   23.1967 O   0  0  0  0  0  0  0  0  0  0  0  0
    5.7159  -17.9398   22.9460 C   0  0  2  0  0  0  0  0  0  0  0  0
    5.4720  -18.4063   21.5701 N   0  0  0  0  0  0  0  0  0  0  0  0
    6.6280  -16.7898   22.9469 C   0  0  0  0  0  0  0  0  0  0  0  0
    7.3286  -16.4528   21.9476 O   0  0  0  0  0  0  0  0  0  0  0  0
    6.7530  -15.9930   24.1152 N   0  0  0  0  0  0  0  0  0  0  0  0
    7.7518  -14.9383   24.2179 C   0  0  1  0  0  0  0  0  0  0  0  0
    7.1506  -13.7379   24.9595 C   0  0  0  0  0  0  0  0  0  0  0  0
    6.0508  -14.3508   26.2618 S   0  0  0  0  0  0  0  0  0  0  0  0
    8.9808  -15.4051   24.8821 C   0  0  0  0  0  0  0  0  0  0  0  0
    9.0462  -15.7496   26.0928 O   0  0  0  0  0  0  0  0  0  0  0  0
   10.1797  -15.4782   24.1252 N   0  0  0  0  0  0  0  0  0  0  0  0
   11.4418  -15.9125   24.6972 C   0  0  0  0  0  0  0  0  0  0  0  0
   12.5085  -15.8692   23.6847 C   0  0  0  0  0  0  0  0  0  0  0  0
   13.8137  -15.5622   24.0390 O   0  0  0  0  0  0  0  0  0  0  0  0
   12.2661  -16.1080   22.4789 O   0  0  0  0  0  0  0  0  0  0  0  0
  2  3  1  0
  2  1  1  6
  4  5  1  6
  4  2  1  0
  6  4  1  0
  7  6  2  0
  8  6  1  0
  9  8  1  0
  9 12  1  0
  9 10  1  1
 11 10  1  0
 12 14  1  0
 13 12  2  0
 14 15  1  0
 16 17  1  0
 16 15  1  0
 18 16  2  0
M  END
$$$$
