TCG.pdb
     RDKit          3D

 18 17  0  0  1  0  0  0  0  0999 V2000
    6.8653  -16.2052   20.5823 C   0  0  0  0  0  0  0  0  0  0  0  0
    7.6251  -15.1398   19.8259 C   0  0  1  0  0  0  0  0  0  0  0  0
    7.2588  -15.0452   18.5073 O   0  0  0  0  0  0  0  0  0  0  0  0
    7.3890  -13.8156   20.5134 C   0  0  2  0  0  0  0  0  0  0  0  0
    7.8264  -12.7849   19.5560 N   0  0  0  0  0  0  0  0  0  0  0  0
    8.0933  -13.6642   21.7922 C   0  0  0  0  0  0  0  0  0  0  0  0
    9.3133  -13.3382   21.8838 O   0  0  0  0  0  0  0  0  0  0  0  0
    7.3967  -13.8879   23.0089 N   0  0  0  0  0  0  0  0  0  0  0  0
    8.0967  -14.0015   24.2807 C   0  0  1  0  0  0  0  0  0  0  0  0
    7.5269  -12.9764   25.2691 C   0  0  0  0  0  0  0  0  0  0  0  0
    5.7900  -13.3798   25.5880 S   0  0  0  0  0  0  0  0  0  0  0  0
    8.0189  -15.3645   24.8336 C   0  0  0  0  0  0  0  0  0  0  0  0
    6.9762  -16.0727   24.8315 O   0  0  0  0  0  0  0  0  0  0  0  0
    9.1843  -15.9342   25.4105 N   0  0  0  0  0  0  0  0  0  0  0  0
    9.2020  -17.2674   25.9858 C   0  0  0  0  0  0  0  0  0  0  0  0
   10.5131  -17.5506   26.5903 C   0  0  0  0  0  0  0  0  0  0  0  0
   10.7518  -18.7514   27.2418 O   0  0  0  0  0  0  0  0  0  0  0  0
   11.4460  -16.7163   26.5323 O   0  0  0  0  0  0  0  0  0  0  0  0
  2  3  1  0
  2  1  1  1
  4  5  1  6
  4  2  1  0
  6  4  1  0
  7  6  2  0
  8  6  1  0
  9  8  1  0
  9 12  1  0
  9 10  1  1
 11 10  1  0
 12 14  1  0
 13 12  2  0
 14 15  1  0
 16 17  1  0
 16 15  1  0
 18 16  2  0
M  END
$$$$
