TCG.pdb
     RDKit          3D

 18 17  0  0  1  0  0  0  0  0999 V2000
    8.1083  -20.6723   24.7152 C   0  0  0  0  0  0  0  0  0  0  0  0
    6.8769  -20.9757   23.8929 C   0  0  1  0  0  0  0  0  0  0  0  0
    6.2411  -22.1299   24.2740 O   0  0  0  0  0  0  0  0  0  0  0  0
    5.9267  -19.8083   24.0202 C   0  0  2  0  0  0  0  0  0  0  0  0
    4.7950  -20.1154   23.1284 N   0  0  0  0  0  0  0  0  0  0  0  0
    6.5162  -18.5086   23.6769 C   0  0  0  0  0  0  0  0  0  0  0  0
    6.8506  -18.1819   22.5003 O   0  0  0  0  0  0  0  0  0  0  0  0
    6.7351  -17.5451   24.6963 N   0  0  0  0  0  0  0  0  0  0  0  0
    7.5114  -16.3374   24.4526 C   0  0  1  0  0  0  0  0  0  0  0  0
    7.1687  -15.2881   25.5174 C   0  0  0  0  0  0  0  0  0  0  0  0
    8.1711  -13.8090   25.2195 S   0  0  0  0  0  0  0  0  0  0  0  0
    8.9591  -16.6077   24.4275 C   0  0  0  0  0  0  0  0  0  0  0  0
    9.5632  -17.3179   25.2757 O   0  0  0  0  0  0  0  0  0  0  0  0
    9.7412  -16.0398   23.3877 N   0  0  0  0  0  0  0  0  0  0  0  0
   11.0382  -16.5689   23.0048 C   0  0  0  0  0  0  0  0  0  0  0  0
   12.0790  -16.1057   23.9358 C   0  0  0  0  0  0  0  0  0  0  0  0
   13.4087  -16.0494   23.5456 O   0  0  0  0  0  0  0  0  0  0  0  0
   11.7920  -15.7509   25.1026 O   0  0  0  0  0  0  0  0  0  0  0  0
  2  3  1  0
  2  1  1  1
  4  5  1  6
  4  2  1  0
  6  4  1  0
  7  6  2  0
  8  6  1  0
  9  8  1  0
  9 12  1  0
  9 10  1  1
 11 10  1  0
 12 14  1  0
 13 12  2  0
 14 15  1  0
 16 17  1  0
 16 15  1  0
 18 16  2  0
M  END
$$$$
