TCG.pdb
     RDKit          3D

 18 17  0  0  1  0  0  0  0  0999 V2000
    6.5214  -13.8297   19.0737 C   0  0  0  0  0  0  0  0  0  0  0  0
    7.0630  -14.2796   20.4113 C   0  0  1  0  0  0  0  0  0  0  0  0
    7.9564  -15.3159   20.3137 O   0  0  0  0  0  0  0  0  0  0  0  0
    7.7303  -13.0959   21.0710 C   0  0  2  0  0  0  0  0  0  0  0  0
    8.7995  -12.6751   20.1491 N   0  0  0  0  0  0  0  0  0  0  0  0
    8.2785  -13.3760   22.4035 C   0  0  0  0  0  0  0  0  0  0  0  0
    9.4797  -13.7209   22.6066 O   0  0  0  0  0  0  0  0  0  0  0  0
    7.4426  -13.2624   23.5454 N   0  0  0  0  0  0  0  0  0  0  0  0
    7.8791  -13.7115   24.8600 C   0  0  1  0  0  0  0  0  0  0  0  0
    7.2393  -12.8284   25.9384 C   0  0  0  0  0  0  0  0  0  0  0  0
    5.4377  -12.9562   25.8009 S   0  0  0  0  0  0  0  0  0  0  0  0
    7.5658  -15.1323   25.0898 C   0  0  0  0  0  0  0  0  0  0  0  0
    6.4642  -15.6719   24.8002 O   0  0  0  0  0  0  0  0  0  0  0  0
    8.5570  -15.9635   25.6748 N   0  0  0  0  0  0  0  0  0  0  0  0
    8.3410  -17.3757   25.9353 C   0  0  0  0  0  0  0  0  0  0  0  0
    9.5229  -17.9672   26.5817 C   0  0  0  0  0  0  0  0  0  0  0  0
    9.5444  -19.3083   26.9346 O   0  0  0  0  0  0  0  0  0  0  0  0
   10.5384  -17.2765   26.8297 O   0  0  0  0  0  0  0  0  0  0  0  0
  2  3  1  0
  2  1  1  6
  4  5  1  6
  4  2  1  0
  6  4  1  0
  7  6  2  0
  8  6  1  0
  9  8  1  0
  9 12  1  0
  9 10  1  1
 11 10  1  0
 12 14  1  0
 13 12  2  0
 14 15  1  0
 16 17  1  0
 16 15  1  0
 18 16  2  0
M  END
$$$$
