TCG.pdb
     RDKit          3D

 18 17  0  0  1  0  0  0  0  0999 V2000
    6.4758  -14.3205   18.5200 C   0  0  0  0  0  0  0  0  0  0  0  0
    7.1964  -14.6876   19.7969 C   0  0  1  0  0  0  0  0  0  0  0  0
    8.3337  -15.4248   19.5852 O   0  0  0  0  0  0  0  0  0  0  0  0
    7.5486  -13.4103   20.5224 C   0  0  2  0  0  0  0  0  0  0  0  0
    8.4351  -12.6652   19.6118 N   0  0  0  0  0  0  0  0  0  0  0  0
    8.1977  -13.6130   21.8232 C   0  0  0  0  0  0  0  0  0  0  0  0
    9.4533  -13.6111   21.9855 O   0  0  0  0  0  0  0  0  0  0  0  0
    7.4023  -13.8244   22.9800 N   0  0  0  0  0  0  0  0  0  0  0  0
    7.9943  -14.1987   24.2567 C   0  0  1  0  0  0  0  0  0  0  0  0
    6.9698  -13.9800   25.3769 C   0  0  0  0  0  0  0  0  0  0  0  0
    6.5823  -12.2132   25.4733 S   0  0  0  0  0  0  0  0  0  0  0  0
    8.4806  -15.5891   24.2529 C   0  0  0  0  0  0  0  0  0  0  0  0
    7.7440  -16.5980   24.0843 O   0  0  0  0  0  0  0  0  0  0  0  0
    9.8660  -15.8278   24.4505 N   0  0  0  0  0  0  0  0  0  0  0  0
   10.4615  -17.1450   24.3116 C   0  0  0  0  0  0  0  0  0  0  0  0
   11.8914  -17.1030   24.6554 C   0  0  0  0  0  0  0  0  0  0  0  0
   12.5122  -18.1907   25.2512 O   0  0  0  0  0  0  0  0  0  0  0  0
   12.5840  -16.0859   24.4195 O   0  0  0  0  0  0  0  0  0  0  0  0
  2  3  1  0
  2  1  1  6
  4  5  1  6
  4  2  1  0
  6  4  1  0
  7  6  2  0
  8  6  1  0
  9  8  1  0
  9 12  1  0
  9 10  1  1
 11 10  1  0
 12 14  1  0
 13 12  2  0
 14 15  1  0
 16 17  1  0
 16 15  1  0
 18 16  2  0
M  END
$$$$
