TCG.pdb
     RDKit          3D

 18 17  0  0  1  0  0  0  0  0999 V2000
    7.4242  -16.3769   19.1542 C   0  0  0  0  0  0  0  0  0  0  0  0
    8.0641  -15.1553   18.5354 C   0  0  1  0  0  0  0  0  0  0  0  0
    7.6424  -14.9132   17.2527 O   0  0  0  0  0  0  0  0  0  0  0  0
    7.7441  -13.9639   19.4071 C   0  0  2  0  0  0  0  0  0  0  0  0
    8.1293  -12.7789   18.6211 N   0  0  0  0  0  0  0  0  0  0  0  0
    8.4262  -13.9650   20.7068 C   0  0  0  0  0  0  0  0  0  0  0  0
    9.6716  -13.7821   20.8426 O   0  0  0  0  0  0  0  0  0  0  0  0
    7.6768  -14.1792   21.8935 N   0  0  0  0  0  0  0  0  0  0  0  0
    8.3261  -14.4151   23.1754 C   0  0  1  0  0  0  0  0  0  0  0  0
    7.2954  -14.2729   24.3022 C   0  0  0  0  0  0  0  0  0  0  0  0
    6.7202  -12.5560   24.3506 S   0  0  0  0  0  0  0  0  0  0  0  0
    8.9833  -15.7323   23.2270 C   0  0  0  0  0  0  0  0  0  0  0  0
    8.3759  -16.8326   23.1307 O   0  0  0  0  0  0  0  0  0  0  0  0
   10.3919  -15.7858   23.3956 N   0  0  0  0  0  0  0  0  0  0  0  0
   11.1224  -17.0372   23.4909 C   0  0  0  0  0  0  0  0  0  0  0  0
   12.5722  -16.7876   23.5090 C   0  0  0  0  0  0  0  0  0  0  0  0
   13.4615  -17.7860   23.8774 O   0  0  0  0  0  0  0  0  0  0  0  0
   13.0402  -15.6692   23.1928 O   0  0  0  0  0  0  0  0  0  0  0  0
  2  3  1  0
  2  1  1  1
  4  5  1  6
  4  2  1  0
  6  4  1  0
  7  6  2  0
  8  6  1  0
  9  8  1  0
  9 12  1  0
  9 10  1  1
 11 10  1  0
 12 14  1  0
 13 12  2  0
 14 15  1  0
 16 17  1  0
 16 15  1  0
 18 16  2  0
M  END
$$$$
