TCG.pdb
     RDKit          3D

 18 17  0  0  1  0  0  0  0  0999 V2000
    7.7611  -17.0624   17.6230 C   0  0  0  0  0  0  0  0  0  0  0  0
    8.2764  -15.8746   16.8430 C   0  0  1  0  0  0  0  0  0  0  0  0
    7.8564  -15.8597   15.5373 O   0  0  0  0  0  0  0  0  0  0  0  0
    7.8117  -14.6171   17.5390 C   0  0  2  0  0  0  0  0  0  0  0  0
    8.1309  -13.5107   16.6201 N   0  0  0  0  0  0  0  0  0  0  0  0
    8.4263  -14.3905   18.8525 C   0  0  0  0  0  0  0  0  0  0  0  0
    9.6499  -14.1066   19.0119 O   0  0  0  0  0  0  0  0  0  0  0  0
    7.6328  -14.4873   20.0258 N   0  0  0  0  0  0  0  0  0  0  0  0
    8.2244  -14.4332   21.3553 C   0  0  1  0  0  0  0  0  0  0  0  0
    7.1867  -13.9049   22.3535 C   0  0  0  0  0  0  0  0  0  0  0  0
    7.8434  -14.0966   24.0307 S   0  0  0  0  0  0  0  0  0  0  0  0
    8.7444  -15.7437   21.7816 C   0  0  0  0  0  0  0  0  0  0  0  0
    8.0980  -16.8230   21.7041 O   0  0  0  0  0  0  0  0  0  0  0  0
   10.0573  -15.8153   22.3171 N   0  0  0  0  0  0  0  0  0  0  0  0
   10.6403  -17.0551   22.7985 C   0  0  0  0  0  0  0  0  0  0  0  0
   12.0074  -16.8245   23.2911 C   0  0  0  0  0  0  0  0  0  0  0  0
   12.7360  -17.8505   23.8741 O   0  0  0  0  0  0  0  0  0  0  0  0
   12.5477  -15.6981   23.1970 O   0  0  0  0  0  0  0  0  0  0  0  0
  2  3  1  0
  2  1  1  1
  4  5  1  6
  4  2  1  0
  6  4  1  0
  7  6  2  0
  8  6  1  0
  9  8  1  0
  9 12  1  0
  9 10  1  1
 11 10  1  0
 12 14  1  0
 13 12  2  0
 14 15  1  0
 16 17  1  0
 16 15  1  0
 18 16  2  0
M  END
$$$$
