HQQ.pdb
     RDKit          3D

 29 29  0  0  1  0  0  0  0  0999 V2000
   23.4421  -20.8412  -16.0203 N   0  0  0  0  0  0  0  0  0  0  0  0
   23.6577  -19.9518  -14.9421 C   0  0  1  0  0  0  0  0  0  0  0  0
   23.9766  -18.5396  -15.3504 C   0  0  0  0  0  0  0  0  0  0  0  0
   25.0778  -18.4185  -16.3279 C   0  0  0  0  0  0  0  0  0  0  0  0
   25.8460  -19.3839  -16.9256 C   0  0  0  0  0  0  0  0  0  0  0  0
   26.7370  -18.8128  -17.7759 N   0  0  0  0  0  0  0  0  0  0  0  0
   26.5144  -17.4915  -17.6992 C   0  0  0  0  0  0  0  0  0  0  0  0
   25.5241  -17.2254  -16.8375 N   0  0  0  0  0  0  0  0  0  0  0  0
   22.5643  -19.8617  -13.9402 C   0  0  0  0  0  0  0  0  0  0  0  0
   22.7440  -19.0323  -13.0266 O   0  0  0  0  0  0  0  0  0  0  0  0
   17.0547  -17.9779  -12.9792 N   0  0  0  0  0  0  0  0  0  0  0  0
   18.3203  -17.3685  -13.0330 C   0  0  0  0  0  0  0  0  0  0  0  0
   18.4122  -16.1277  -13.0437 O   0  0  0  0  0  0  0  0  0  0  0  0
   19.5410  -18.1964  -13.0735 C   0  0  0  0  0  0  0  0  0  0  0  0
   19.1898  -19.6828  -13.0570 C   0  0  0  0  0  0  0  0  0  0  0  0
   20.3344  -20.6016  -13.0071 C   0  0  2  0  0  0  0  0  0  0  0  0
   21.3808  -20.6057  -13.9290 N   0  0  0  0  0  0  0  0  0  0  0  0
   19.9507  -21.9377  -12.5502 C   0  0  0  0  0  0  0  0  0  0  0  0
   19.9359  -22.8752  -13.3990 O   0  0  0  0  0  0  0  0  0  0  0  0
   19.3556  -24.6235   -6.6798 N   0  0  0  0  0  0  0  0  0  0  0  0
   18.7315  -25.5794   -7.5625 C   0  0  0  0  0  0  0  0  0  0  0  0
   18.3717  -26.6642   -7.0765 O   0  0  0  0  0  0  0  0  0  0  0  0
   18.5453  -25.2348   -8.9968 C   0  0  0  0  0  0  0  0  0  0  0  0
   19.1008  -23.9283   -9.4339 C   0  0  0  0  0  0  0  0  0  0  0  0
   19.1000  -23.6333  -10.8769 C   0  0  2  0  0  0  0  0  0  0  0  0
   19.5802  -22.3160  -11.2305 N   0  0  0  0  0  0  0  0  0  0  0  0
   17.6795  -23.8121  -11.3479 C   0  0  0  0  0  0  0  0  0  0  0  0
   17.2085  -24.9515  -11.9445 O   0  0  0  0  0  0  0  0  0  0  0  0
   16.8910  -22.8320  -11.1695 O   0  0  0  0  0  0  0  0  0  0  0  0
  2  1  1  6
  2  3  1  0
  3  4  1  0
  4  8  1  0
  4  5  2  0
  5  6  1  0
  7  6  1  0
  8  7  2  0
  9  2  1  0
 10  9  2  0
 11 12  1  0
 12 13  2  0
 14 12  1  0
 14 15  1  0
 16 15  1  6
 16 17  1  0
 17  9  1  0
 18 26  1  0
 18 16  1  0
 19 18  2  0
 21 20  1  0
 22 21  2  0
 23 21  1  0
 24 23  1  0
 25 24  1  1
 25 26  1  0
 27 25  1  0
 28 27  1  0
 29 27  2  0
M  END
$$$$
