HQQ.pdb
     RDKit          3D

 29 29  0  0  1  0  0  0  0  0999 V2000
   21.2632  -14.3202  -17.0678 N   0  0  0  0  0  0  0  0  0  0  0  0
   20.7022  -13.0604  -16.7540 C   0  0  1  0  0  0  0  0  0  0  0  0
   19.4353  -13.1237  -15.9455 C   0  0  0  0  0  0  0  0  0  0  0  0
   18.4067  -14.0343  -16.4892 C   0  0  0  0  0  0  0  0  0  0  0  0
   18.1189  -15.3379  -16.1773 C   0  0  0  0  0  0  0  0  0  0  0  0
   17.0727  -15.7773  -16.9225 N   0  0  0  0  0  0  0  0  0  0  0  0
   16.7176  -14.7389  -17.6950 C   0  0  0  0  0  0  0  0  0  0  0  0
   17.5010  -13.6790  -17.4567 N   0  0  0  0  0  0  0  0  0  0  0  0
   21.5973  -12.1016  -16.0563 C   0  0  0  0  0  0  0  0  0  0  0  0
   22.1120  -12.5222  -15.0013 O   0  0  0  0  0  0  0  0  0  0  0  0
   26.8278  -10.5546  -15.0586 N   0  0  0  0  0  0  0  0  0  0  0  0
   26.3351  -11.1542  -16.2307 C   0  0  0  0  0  0  0  0  0  0  0  0
   27.0996  -11.8087  -16.9622 O   0  0  0  0  0  0  0  0  0  0  0  0
   24.9121  -11.0121  -16.5946 C   0  0  0  0  0  0  0  0  0  0  0  0
   24.1838  -10.1127  -15.5979 C   0  0  0  0  0  0  0  0  0  0  0  0
   22.7657   -9.8661  -15.8889 C   0  0  2  0  0  0  0  0  0  0  0  0
   21.9066  -10.8012  -16.4655 N   0  0  0  0  0  0  0  0  0  0  0  0
   22.5241   -8.4941  -16.3364 C   0  0  0  0  0  0  0  0  0  0  0  0
   22.5444   -8.2616  -17.5795 O   0  0  0  0  0  0  0  0  0  0  0  0
   17.4577   -6.9945  -17.1974 N   0  0  0  0  0  0  0  0  0  0  0  0
   17.9387   -5.6371  -17.2901 C   0  0  0  0  0  0  0  0  0  0  0  0
   17.1480   -4.7717  -17.7005 O   0  0  0  0  0  0  0  0  0  0  0  0
   19.3394   -5.3309  -16.8968 C   0  0  0  0  0  0  0  0  0  0  0  0
   20.1380   -6.4710  -16.3778 C   0  0  0  0  0  0  0  0  0  0  0  0
   21.5246   -6.2009  -15.9611 C   0  0  2  0  0  0  0  0  0  0  0  0
   22.2651   -7.3609  -15.5173 N   0  0  0  0  0  0  0  0  0  0  0  0
   21.4462   -5.1803  -14.8548 C   0  0  0  0  0  0  0  0  0  0  0  0
   21.7683   -5.4403  -13.5492 O   0  0  0  0  0  0  0  0  0  0  0  0
   21.0547   -4.0158  -15.1787 O   0  0  0  0  0  0  0  0  0  0  0  0
  2  1  1  1
  2  3  1  0
  3  4  1  0
  4  8  1  0
  4  5  2  0
  5  6  1  0
  7  6  1  0
  8  7  2  0
  9  2  1  0
 10  9  2  0
 11 12  1  0
 12 13  2  0
 14 12  1  0
 14 15  1  0
 16 15  1  6
 16 17  1  0
 17  9  1  0
 18 26  1  0
 18 16  1  0
 19 18  2  0
 21 20  1  0
 22 21  2  0
 23 21  1  0
 24 23  1  0
 25 24  1  1
 25 26  1  0
 27 25  1  0
 28 27  1  0
 29 27  2  0
M  END
$$$$
