HQQ.pdb
     RDKit          3D

 29 29  0  0  1  0  0  0  0  0999 V2000
   26.8301  -20.2609  -15.3580 N   0  0  0  0  0  0  0  0  0  0  0  0
   25.6910  -21.0912  -15.4737 C   0  0  1  0  0  0  0  0  0  0  0  0
   25.8998  -22.5074  -15.0119 C   0  0  0  0  0  0  0  0  0  0  0  0
   27.0542  -23.1899  -15.6320 C   0  0  0  0  0  0  0  0  0  0  0  0
   27.1266  -24.3848  -16.3002 C   0  0  0  0  0  0  0  0  0  0  0  0
   28.3988  -24.6121  -16.7157 N   0  0  0  0  0  0  0  0  0  0  0  0
   29.1098  -23.5523  -16.3003 C   0  0  0  0  0  0  0  0  0  0  0  0
   28.3288  -22.6824  -15.6467 N   0  0  0  0  0  0  0  0  0  0  0  0
   24.4585  -20.6078  -14.7995 C   0  0  0  0  0  0  0  0  0  0  0  0
   24.5508  -20.4516  -13.5658 O   0  0  0  0  0  0  0  0  0  0  0  0
   20.8306  -15.8533  -14.7270 N   0  0  0  0  0  0  0  0  0  0  0  0
   19.9748  -16.7645  -14.0840 C   0  0  0  0  0  0  0  0  0  0  0  0
   18.9436  -16.3563  -13.5200 O   0  0  0  0  0  0  0  0  0  0  0  0
   20.2945  -18.2050  -14.0786 C   0  0  0  0  0  0  0  0  0  0  0  0
   21.6083  -18.4725  -14.8102 C   0  0  0  0  0  0  0  0  0  0  0  0
   22.0392  -19.8761  -14.8419 C   0  0  2  0  0  0  0  0  0  0  0  0
   23.2336  -20.3200  -15.4086 N   0  0  0  0  0  0  0  0  0  0  0  0
   20.9175  -20.7936  -15.0450 C   0  0  0  0  0  0  0  0  0  0  0  0
   20.4448  -20.9060  -16.2127 O   0  0  0  0  0  0  0  0  0  0  0  0
   19.9580  -26.6031  -13.1301 N   0  0  0  0  0  0  0  0  0  0  0  0
   19.6382  -25.6398  -12.1044 C   0  0  0  0  0  0  0  0  0  0  0  0
   19.5526  -26.0491  -10.9350 O   0  0  0  0  0  0  0  0  0  0  0  0
   19.4273  -24.2168  -12.4802 C   0  0  0  0  0  0  0  0  0  0  0  0
   19.4612  -23.9113  -13.9336 C   0  0  0  0  0  0  0  0  0  0  0  0
   19.2064  -22.5206  -14.3460 C   0  0  2  0  0  0  0  0  0  0  0  0
   20.2777  -21.5930  -14.0582 N   0  0  0  0  0  0  0  0  0  0  0  0
   17.9446  -22.0914  -13.6423 C   0  0  0  0  0  0  0  0  0  0  0  0
   16.7071  -22.6189  -13.8999 O   0  0  0  0  0  0  0  0  0  0  0  0
   18.0625  -21.1836  -12.7613 O   0  0  0  0  0  0  0  0  0  0  0  0
  2  1  1  1
  2  3  1  0
  3  4  1  0
  4  8  1  0
  4  5  2  0
  5  6  1  0
  7  6  1  0
  8  7  2  0
  9  2  1  0
 10  9  2  0
 11 12  1  0
 12 13  2  0
 14 12  1  0
 14 15  1  0
 16 15  1  6
 16 17  1  0
 17  9  1  0
 18 26  1  0
 18 16  1  0
 19 18  2  0
 21 20  1  0
 22 21  2  0
 23 21  1  0
 24 23  1  0
 25 24  1  1
 25 26  1  0
 27 25  1  0
 28 27  1  0
 29 27  2  0
M  END
$$$$
