HQQ.pdb
     RDKit          3D

 29 29  0  0  1  0  0  0  0  0999 V2000
   19.7657  -15.4125  -16.3477 N   0  0  0  0  0  0  0  0  0  0  0  0
   20.0604  -14.2478  -17.0939 C   0  0  1  0  0  0  0  0  0  0  0  0
   18.8528  -13.4859  -17.5671 C   0  0  0  0  0  0  0  0  0  0  0  0
   17.8837  -14.2916  -18.3382 C   0  0  0  0  0  0  0  0  0  0  0  0
   18.0800  -15.1606  -19.3802 C   0  0  0  0  0  0  0  0  0  0  0  0
   16.8954  -15.6941  -19.7739 N   0  0  0  0  0  0  0  0  0  0  0  0
   15.9686  -15.1499  -18.9700 C   0  0  0  0  0  0  0  0  0  0  0  0
   16.5329  -14.3039  -18.0984 N   0  0  0  0  0  0  0  0  0  0  0  0
   20.9496  -13.2567  -16.4349 C   0  0  0  0  0  0  0  0  0  0  0  0
   20.6145  -12.9225  -15.2812 O   0  0  0  0  0  0  0  0  0  0  0  0
   27.1727  -12.1679  -16.5338 N   0  0  0  0  0  0  0  0  0  0  0  0
   26.6881  -11.0679  -15.8049 C   0  0  0  0  0  0  0  0  0  0  0  0
   27.4859  -10.2787  -15.2676 O   0  0  0  0  0  0  0  0  0  0  0  0
   25.2351  -10.8446  -15.6778 C   0  0  0  0  0  0  0  0  0  0  0  0
   24.4521  -11.9409  -16.3974 C   0  0  0  0  0  0  0  0  0  0  0  0
   22.9937  -11.7694  -16.4122 C   0  0  2  0  0  0  0  0  0  0  0  0
   22.1002  -12.6781  -16.9787 N   0  0  0  0  0  0  0  0  0  0  0  0
   22.6038  -10.3712  -16.5973 C   0  0  0  0  0  0  0  0  0  0  0  0
   22.5458   -9.9211  -17.7778 O   0  0  0  0  0  0  0  0  0  0  0  0
   17.9579   -8.0068  -17.9052 N   0  0  0  0  0  0  0  0  0  0  0  0
   18.4992   -6.7580  -17.4259 C   0  0  0  0  0  0  0  0  0  0  0  0
   17.8363   -5.7271  -17.6265 O   0  0  0  0  0  0  0  0  0  0  0  0
   19.8082   -6.7528  -16.7209 C   0  0  0  0  0  0  0  0  0  0  0  0
   20.4388   -8.0798  -16.5010 C   0  0  0  0  0  0  0  0  0  0  0  0
   21.7565   -8.1100  -15.8437 C   0  0  2  0  0  0  0  0  0  0  0  0
   22.2763   -9.4334  -15.5799 N   0  0  0  0  0  0  0  0  0  0  0  0
   21.6076   -7.3438  -14.5544 C   0  0  0  0  0  0  0  0  0  0  0  0
   21.4228   -5.9884  -14.4864 O   0  0  0  0  0  0  0  0  0  0  0  0
   21.6607   -8.0189  -13.4794 O   0  0  0  0  0  0  0  0  0  0  0  0
  2  1  1  1
  2  3  1  0
  3  4  1  0
  4  8  1  0
  4  5  2  0
  5  6  1  0
  7  6  1  0
  8  7  2  0
  9  2  1  0
 10  9  2  0
 11 12  1  0
 12 13  2  0
 14 12  1  0
 14 15  1  0
 16 15  1  6
 16 17  1  0
 17  9  1  0
 18 26  1  0
 18 16  1  0
 19 18  2  0
 21 20  1  0
 22 21  2  0
 23 21  1  0
 24 23  1  0
 25 24  1  1
 25 26  1  0
 27 25  1  0
 28 27  1  0
 29 27  2  0
M  END
$$$$
