HQQ.pdb
     RDKit          3D

 29 29  0  0  1  0  0  0  0  0999 V2000
   17.7489  -13.4822  -17.9857 N   0  0  0  0  0  0  0  0  0  0  0  0
   17.5340  -12.4232  -17.0734 C   0  0  1  0  0  0  0  0  0  0  0  0
   18.0425  -12.6834  -15.6818 C   0  0  0  0  0  0  0  0  0  0  0  0
   17.5594  -13.9427  -15.0788 C   0  0  0  0  0  0  0  0  0  0  0  0
   16.3628  -14.2396  -14.4795 C   0  0  0  0  0  0  0  0  0  0  0  0
   16.3485  -15.5371  -14.0805 N   0  0  0  0  0  0  0  0  0  0  0  0
   17.5417  -16.0381  -14.4364 C   0  0  0  0  0  0  0  0  0  0  0  0
   18.2896  -15.1036  -15.0375 N   0  0  0  0  0  0  0  0  0  0  0  0
   18.0692  -11.0964  -17.4740 C   0  0  0  0  0  0  0  0  0  0  0  0
   19.2026  -11.1125  -17.9939 O   0  0  0  0  0  0  0  0  0  0  0  0
   15.5691   -6.5687  -20.7656 N   0  0  0  0  0  0  0  0  0  0  0  0
   15.5281   -7.9719  -20.8396 C   0  0  0  0  0  0  0  0  0  0  0  0
   14.8470   -8.5278  -21.7199 O   0  0  0  0  0  0  0  0  0  0  0  0
   16.2936   -8.7878  -19.8775 C   0  0  0  0  0  0  0  0  0  0  0  0
   17.0242   -7.8996  -18.8725 C   0  0  0  0  0  0  0  0  0  0  0  0
   17.7812   -8.6109  -17.8344 C   0  0  2  0  0  0  0  0  0  0  0  0
   17.4327   -9.8609  -17.3236 N   0  0  0  0  0  0  0  0  0  0  0  0
   18.3313   -7.7000  -16.8300 C   0  0  0  0  0  0  0  0  0  0  0  0
   17.6061   -7.4002  -15.8381 O   0  0  0  0  0  0  0  0  0  0  0  0
   22.4004   -9.0186  -16.1056 N   0  0  0  0  0  0  0  0  0  0  0  0
   21.8339   -8.9837  -14.7790 C   0  0  0  0  0  0  0  0  0  0  0  0
   21.8027  -10.0464  -14.1369 O   0  0  0  0  0  0  0  0  0  0  0  0
   21.3179   -7.6979  -14.2395 C   0  0  0  0  0  0  0  0  0  0  0  0
   21.3406   -6.5408  -15.1708 C   0  0  0  0  0  0  0  0  0  0  0  0
   20.0766   -6.1673  -15.8281 C   0  0  2  0  0  0  0  0  0  0  0  0
   19.6177   -7.0940  -16.8389 N   0  0  0  0  0  0  0  0  0  0  0  0
   20.2972   -4.8051  -16.4340 C   0  0  0  0  0  0  0  0  0  0  0  0
   20.5410   -3.6727  -15.7032 O   0  0  0  0  0  0  0  0  0  0  0  0
   20.2488   -4.7290  -17.7013 O   0  0  0  0  0  0  0  0  0  0  0  0
  2  1  1  6
  2  3  1  0
  3  4  1  0
  4  8  1  0
  4  5  2  0
  5  6  1  0
  7  6  1  0
  8  7  2  0
  9  2  1  0
 10  9  2  0
 11 12  1  0
 12 13  2  0
 14 12  1  0
 14 15  1  0
 16 15  1  1
 16 17  1  0
 17  9  1  0
 18 26  1  0
 18 16  1  0
 19 18  2  0
 21 20  1  0
 22 21  2  0
 23 21  1  0
 24 23  1  0
 25 24  1  6
 25 26  1  0
 27 25  1  0
 28 27  1  0
 29 27  2  0
M  END
$$$$
