HQQ.pdb
     RDKit          3D

 29 29  0  0  1  0  0  0  0  0999 V2000
   22.6823  -11.0059  -16.8637 N   0  0  0  0  0  0  0  0  0  0  0  0
   22.9629  -10.4345  -15.6008 C   0  0  1  0  0  0  0  0  0  0  0  0
   24.3705   -9.9286  -15.4421 C   0  0  0  0  0  0  0  0  0  0  0  0
   25.4174  -10.9335  -15.7196 C   0  0  0  0  0  0  0  0  0  0  0  0
   25.7816  -12.0545  -15.0196 C   0  0  0  0  0  0  0  0  0  0  0  0
   26.7930  -12.6968  -15.6579 N   0  0  0  0  0  0  0  0  0  0  0  0
   27.0505  -11.9664  -16.7540 C   0  0  0  0  0  0  0  0  0  0  0  0
   26.2402  -10.9018  -16.8171 N   0  0  0  0  0  0  0  0  0  0  0  0
   22.0690   -9.3286  -15.1704 C   0  0  0  0  0  0  0  0  0  0  0  0
   21.7336   -8.5322  -16.0695 O   0  0  0  0  0  0  0  0  0  0  0  0
   17.8392   -8.8570  -10.3987 N   0  0  0  0  0  0  0  0  0  0  0  0
   17.8231   -7.5681  -10.9595 C   0  0  0  0  0  0  0  0  0  0  0  0
   16.9966   -6.7278  -10.5613 O   0  0  0  0  0  0  0  0  0  0  0  0
   18.7864   -7.2077  -12.0176 C   0  0  0  0  0  0  0  0  0  0  0  0
   19.6491   -8.4091  -12.3987 C   0  0  0  0  0  0  0  0  0  0  0  0
   20.6700   -8.1538  -13.4231 C   0  0  2  0  0  0  0  0  0  0  0  0
   21.5822   -9.1050  -13.8792 N   0  0  0  0  0  0  0  0  0  0  0  0
   21.2307   -6.8061  -13.3203 C   0  0  0  0  0  0  0  0  0  0  0  0
   22.1151   -6.5953  -12.4411 O   0  0  0  0  0  0  0  0  0  0  0  0
   24.5373   -3.5796  -17.0386 N   0  0  0  0  0  0  0  0  0  0  0  0
   23.1631   -3.7007  -17.4622 C   0  0  0  0  0  0  0  0  0  0  0  0
   22.9186   -3.5671  -18.6724 O   0  0  0  0  0  0  0  0  0  0  0  0
   22.1094   -3.9771  -16.4503 C   0  0  0  0  0  0  0  0  0  0  0  0
   22.5749   -4.1489  -15.0501 C   0  0  0  0  0  0  0  0  0  0  0  0
   21.5556   -4.3959  -14.0162 C   0  0  2  0  0  0  0  0  0  0  0  0
   20.8880   -5.6752  -14.1111 N   0  0  0  0  0  0  0  0  0  0  0  0
   20.5525   -3.2769  -14.1301 C   0  0  0  0  0  0  0  0  0  0  0  0
   20.8160   -1.9755  -13.7939 O   0  0  0  0  0  0  0  0  0  0  0  0
   19.3999   -3.5851  -14.5669 O   0  0  0  0  0  0  0  0  0  0  0  0
  2  1  1  6
  2  3  1  0
  3  4  1  0
  4  8  1  0
  4  5  2  0
  5  6  1  0
  7  6  1  0
  8  7  2  0
  9  2  1  0
 10  9  2  0
 11 12  1  0
 12 13  2  0
 14 12  1  0
 14 15  1  0
 16 15  1  1
 16 17  1  0
 17  9  1  0
 18 26  1  0
 18 16  1  0
 19 18  2  0
 21 20  1  0
 22 21  2  0
 23 21  1  0
 24 23  1  0
 25 24  1  6
 25 26  1  0
 27 25  1  0
 28 27  1  0
 29 27  2  0
M  END
$$$$
