HQQ.pdb
     RDKit          3D

 29 29  0  0  1  0  0  0  0  0999 V2000
   27.9833   -8.6372  -17.3651 N   0  0  0  0  0  0  0  0  0  0  0  0
   26.8212   -9.0185  -18.0752 C   0  0  1  0  0  0  0  0  0  0  0  0
   26.8870  -10.3884  -18.6930 C   0  0  0  0  0  0  0  0  0  0  0  0
   28.0104  -10.5832  -19.6325 C   0  0  0  0  0  0  0  0  0  0  0  0
   29.3306  -10.2298  -19.5251 C   0  0  0  0  0  0  0  0  0  0  0  0
   30.0120  -10.6240  -20.6311 N   0  0  0  0  0  0  0  0  0  0  0  0
   29.1057  -11.2215  -21.4204 C   0  0  0  0  0  0  0  0  0  0  0  0
   27.8955  -11.2116  -20.8468 N   0  0  0  0  0  0  0  0  0  0  0  0
   25.5442   -8.9609  -17.3182 C   0  0  0  0  0  0  0  0  0  0  0  0
   25.5545   -9.5309  -16.2091 O   0  0  0  0  0  0  0  0  0  0  0  0
   21.5499   -4.5019  -15.8936 N   0  0  0  0  0  0  0  0  0  0  0  0
   22.7800   -4.8463  -15.3067 C   0  0  0  0  0  0  0  0  0  0  0  0
   23.3198   -4.0721  -14.4960 O   0  0  0  0  0  0  0  0  0  0  0  0
   23.4316   -6.1257  -15.6470 C   0  0  0  0  0  0  0  0  0  0  0  0
   22.5719   -6.9314  -16.6189 C   0  0  0  0  0  0  0  0  0  0  0  0
   23.1442   -8.2111  -17.0566 C   0  0  2  0  0  0  0  0  0  0  0  0
   24.3599   -8.3410  -17.7275 N   0  0  0  0  0  0  0  0  0  0  0  0
   22.1176   -9.1463  -17.5178 C   0  0  0  0  0  0  0  0  0  0  0  0
   22.0307   -9.3694  -18.7597 O   0  0  0  0  0  0  0  0  0  0  0  0
   17.6573  -12.6501  -14.2960 N   0  0  0  0  0  0  0  0  0  0  0  0
   17.4188  -12.9543  -15.6862 C   0  0  0  0  0  0  0  0  0  0  0  0
   16.5355  -13.7861  -15.9514 O   0  0  0  0  0  0  0  0  0  0  0  0
   18.2260  -12.2713  -16.7315 C   0  0  0  0  0  0  0  0  0  0  0  0
   19.3111  -11.3816  -16.2437 C   0  0  0  0  0  0  0  0  0  0  0  0
   20.1136  -10.6667  -17.2507 C   0  0  2  0  0  0  0  0  0  0  0  0
   21.1797   -9.8505  -16.7137 N   0  0  0  0  0  0  0  0  0  0  0  0
   19.1509   -9.8132  -18.0357 C   0  0  0  0  0  0  0  0  0  0  0  0
   18.5453  -10.2130  -19.1973 O   0  0  0  0  0  0  0  0  0  0  0  0
   18.9029   -8.6570  -17.5711 O   0  0  0  0  0  0  0  0  0  0  0  0
  2  1  1  1
  2  3  1  0
  3  4  1  0
  4  8  1  0
  4  5  2  0
  5  6  1  0
  7  6  1  0
  8  7  2  0
  9  2  1  0
 10  9  2  0
 11 12  1  0
 12 13  2  0
 14 12  1  0
 14 15  1  0
 16 15  1  6
 16 17  1  0
 17  9  1  0
 18 26  1  0
 18 16  1  0
 19 18  2  0
 21 20  1  0
 22 21  2  0
 23 21  1  0
 24 23  1  0
 25 24  1  1
 25 26  1  0
 27 25  1  0
 28 27  1  0
 29 27  2  0
M  END
$$$$
