HQQ.pdb
     RDKit          3D

 29 29  0  0  1  0  0  0  0  0999 V2000
   26.1080  -18.8426  -20.3195 N   0  0  0  0  0  0  0  0  0  0  0  0
   25.6882  -17.9701  -19.2887 C   0  0  1  0  0  0  0  0  0  0  0  0
   26.2697  -16.5850  -19.3660 C   0  0  0  0  0  0  0  0  0  0  0  0
   27.7458  -16.5423  -19.4122 C   0  0  0  0  0  0  0  0  0  0  0  0
   28.5896  -15.8139  -20.2103 C   0  0  0  0  0  0  0  0  0  0  0  0
   29.8819  -16.0817  -19.8922 N   0  0  0  0  0  0  0  0  0  0  0  0
   29.8305  -16.9784  -18.8949 C   0  0  0  0  0  0  0  0  0  0  0  0
   28.5612  -17.2737  -18.5859 N   0  0  0  0  0  0  0  0  0  0  0  0
   24.2204  -17.8004  -19.1331 C   0  0  0  0  0  0  0  0  0  0  0  0
   23.6386  -17.2701  -20.1002 O   0  0  0  0  0  0  0  0  0  0  0  0
   22.2947  -21.6564  -16.5143 N   0  0  0  0  0  0  0  0  0  0  0  0
   21.4664  -20.8957  -15.6709 C   0  0  0  0  0  0  0  0  0  0  0  0
   21.2146  -21.2975  -14.5206 O   0  0  0  0  0  0  0  0  0  0  0  0
   20.8970  -19.6197  -16.1450 C   0  0  0  0  0  0  0  0  0  0  0  0
   21.2613  -19.3725  -17.6075 C   0  0  0  0  0  0  0  0  0  0  0  0
   22.0661  -18.1711  -17.8635 C   0  0  2  0  0  0  0  0  0  0  0  0
   23.4511  -18.1718  -18.0266 N   0  0  0  0  0  0  0  0  0  0  0  0
   21.5618  -17.0038  -17.1393 C   0  0  0  0  0  0  0  0  0  0  0  0
   22.1915  -16.6246  -16.1101 O   0  0  0  0  0  0  0  0  0  0  0  0
   18.0885  -12.1070  -19.3354 N   0  0  0  0  0  0  0  0  0  0  0  0
   17.2953  -13.1825  -18.7911 C   0  0  0  0  0  0  0  0  0  0  0  0
   16.0931  -13.2260  -19.0996 O   0  0  0  0  0  0  0  0  0  0  0  0
   17.9369  -14.1819  -17.8965 C   0  0  0  0  0  0  0  0  0  0  0  0
   19.3890  -13.9973  -17.6433 C   0  0  0  0  0  0  0  0  0  0  0  0
   20.0670  -14.9924  -16.7952 C   0  0  2  0  0  0  0  0  0  0  0  0
   20.4159  -16.2266  -17.4630 N   0  0  0  0  0  0  0  0  0  0  0  0
   19.1399  -15.2708  -15.6400 C   0  0  0  0  0  0  0  0  0  0  0  0
   18.7549  -14.3289  -14.7232 O   0  0  0  0  0  0  0  0  0  0  0  0
   18.7029  -16.4589  -15.5319 O   0  0  0  0  0  0  0  0  0  0  0  0
  2  1  1  6
  2  3  1  0
  3  4  1  0
  4  8  1  0
  4  5  2  0
  5  6  1  0
  7  6  1  0
  8  7  2  0
  9  2  1  0
 10  9  2  0
 11 12  1  0
 12 13  2  0
 14 12  1  0
 14 15  1  0
 16 15  1  1
 16 17  1  0
 17  9  1  0
 18 26  1  0
 18 16  1  0
 19 18  2  0
 21 20  1  0
 22 21  2  0
 23 21  1  0
 24 23  1  0
 25 24  1  6
 25 26  1  0
 27 25  1  0
 28 27  1  0
 29 27  2  0
M  END
$$$$
