WPQ.pdb
     RDKit          3D

 31 33  0  0  1  0  0  0  0  0999 V2000
    6.1511  -17.8293   24.4220 N   0  0  0  0  0  0  0  0  0  0  0  0
    6.7384  -16.6669   23.8550 C   0  0  1  0  0  0  0  0  0  0  0  0
    7.6933  -15.9601   24.7962 C   0  0  0  0  0  0  0  0  0  0  0  0
    7.0005  -14.9583   25.6471 C   0  0  0  0  0  0  0  0  0  0  0  0
    5.8999  -15.2014   26.4633 C   0  0  0  0  0  0  0  0  0  0  0  0
    5.5441  -14.0648   27.0832 N   0  0  0  0  0  0  0  0  0  0  0  0
    6.3619  -13.0475   26.7218 C   0  0  0  0  0  0  0  0  0  0  0  0
    6.4221  -11.7171   27.0630 C   0  0  0  0  0  0  0  0  0  0  0  0
    7.3894  -10.9092   26.5197 C   0  0  0  0  0  0  0  0  0  0  0  0
    8.2881  -11.4699   25.6307 C   0  0  0  0  0  0  0  0  0  0  0  0
    8.2271  -12.8032   25.2893 C   0  0  0  0  0  0  0  0  0  0  0  0
    7.2683  -13.6165   25.8243 C   0  0  0  0  0  0  0  0  0  0  0  0
    7.4629  -16.8579   22.5864 C   0  0  0  0  0  0  0  0  0  0  0  0
    7.7193  -18.0816   22.2974 O   0  0  0  0  0  0  0  0  0  0  0  0
    7.8880  -15.8722   21.6889 N   0  0  0  0  0  0  0  0  0  0  0  0
    7.6600  -14.4325   21.9167 C   0  0  0  0  0  0  0  0  0  0  0  0
    7.0665  -14.0462   20.5693 C   0  0  0  0  0  0  0  0  0  0  0  0
    7.9341  -14.8387   19.6243 C   0  0  0  0  0  0  0  0  0  0  0  0
    8.5869  -15.9375   20.4271 C   0  0  1  0  0  0  0  0  0  0  0  0
   10.0206  -15.6868   20.6928 C   0  0  0  0  0  0  0  0  0  0  0  0
   10.3622  -14.6273   21.2775 O   0  0  0  0  0  0  0  0  0  0  0  0
   12.3296  -17.6636   25.1198 N   0  0  0  0  0  0  0  0  0  0  0  0
   11.8059  -18.6411   24.2360 C   0  0  0  0  0  0  0  0  0  0  0  0
   11.4773  -19.7347   24.7153 O   0  0  0  0  0  0  0  0  0  0  0  0
   11.6863  -18.2936   22.8006 C   0  0  0  0  0  0  0  0  0  0  0  0
   12.0826  -16.8904   22.4710 C   0  0  0  0  0  0  0  0  0  0  0  0
   12.3186  -16.5988   21.0303 C   0  0  2  0  0  0  0  0  0  0  0  0
   11.0325  -16.6132   20.3048 N   0  0  0  0  0  0  0  0  0  0  0  0
   13.2201  -17.6168   20.4554 C   0  0  0  0  0  0  0  0  0  0  0  0
   12.7189  -18.5190   19.5391 O   0  0  0  0  0  0  0  0  0  0  0  0
   14.4170  -17.6709   20.7846 O   0  0  0  0  0  0  0  0  0  0  0  0
  2  1  1  1
  3  4  1  0
  3  2  1  0
  4  5  2  0
  6  5  1  0
  7  6  1  0
  8  7  2  0
  9  8  1  0
 10  9  2  0
 10 11  1  0
 11 12  2  0
 12  7  1  0
 12  4  1  0
 13 14  2  0
 13  2  1  0
 15 13  1  0
 16 17  1  0
 16 15  1  0
 18 19  1  0
 18 17  1  0
 19 15  1  0
 19 20  1  1
 21 20  2  0
 23 22  1  0
 24 23  2  0
 25 23  1  0
 27 26  1  1
 26 25  1  0
 27 28  1  0
 28 20  1  0
 29 30  1  0
 29 27  1  0
 31 29  2  0
M  END
$$$$
