WPQ.pdb
     RDKit          3D

 31 33  0  0  1  0  0  0  0  0999 V2000
    6.1276  -18.4347   25.0754 N   0  0  0  0  0  0  0  0  0  0  0  0
    6.6606  -17.1913   24.6422 C   0  0  1  0  0  0  0  0  0  0  0  0
    7.4215  -16.4567   25.7280 C   0  0  0  0  0  0  0  0  0  0  0  0
    6.7469  -15.1945   26.1272 C   0  0  0  0  0  0  0  0  0  0  0  0
    5.3742  -15.0088   26.2596 C   0  0  0  0  0  0  0  0  0  0  0  0
    5.1292  -13.7434   26.6359 N   0  0  0  0  0  0  0  0  0  0  0  0
    6.2862  -13.0517   26.7671 C   0  0  0  0  0  0  0  0  0  0  0  0
    6.5768  -11.7554   27.1213 C   0  0  0  0  0  0  0  0  0  0  0  0
    7.8805  -11.3293   27.1679 C   0  0  0  0  0  0  0  0  0  0  0  0
    8.8774  -12.2341   26.8514 C   0  0  0  0  0  0  0  0  0  0  0  0
    8.5853  -13.5329   26.4966 C   0  0  0  0  0  0  0  0  0  0  0  0
    7.2908  -13.9676   26.4470 C   0  0  0  0  0  0  0  0  0  0  0  0
    7.5470  -17.2388   23.4663 C   0  0  0  0  0  0  0  0  0  0  0  0
    7.8470  -18.4225   23.0717 O   0  0  0  0  0  0  0  0  0  0  0  0
    8.0802  -16.1585   22.7546 N   0  0  0  0  0  0  0  0  0  0  0  0
    8.0113  -14.7681   23.2429 C   0  0  0  0  0  0  0  0  0  0  0  0
    7.4673  -14.0814   21.9982 C   0  0  0  0  0  0  0  0  0  0  0  0
    8.2449  -14.7784   20.9104 C   0  0  0  0  0  0  0  0  0  0  0  0
    8.7709  -16.0690   21.4898 C   0  0  1  0  0  0  0  0  0  0  0  0
   10.2228  -16.0278   21.7714 C   0  0  0  0  0  0  0  0  0  0  0  0
   11.0095  -15.6028   20.8873 O   0  0  0  0  0  0  0  0  0  0  0  0
   11.5071  -15.1501   27.9868 N   0  0  0  0  0  0  0  0  0  0  0  0
   11.4079  -16.2562   27.1051 C   0  0  0  0  0  0  0  0  0  0  0  0
   11.5108  -17.3911   27.5901 O   0  0  0  0  0  0  0  0  0  0  0  0
   11.1889  -15.9851   25.6649 C   0  0  0  0  0  0  0  0  0  0  0  0
   12.3859  -16.2280   24.8031 C   0  0  0  0  0  0  0  0  0  0  0  0
   12.1656  -16.1263   23.3342 C   0  0  2  0  0  0  0  0  0  0  0  0
   10.7612  -16.4570   23.0199 N   0  0  0  0  0  0  0  0  0  0  0  0
   13.0622  -17.0629   22.6282 C   0  0  0  0  0  0  0  0  0  0  0  0
   14.4280  -16.8924   22.7295 O   0  0  0  0  0  0  0  0  0  0  0  0
   12.6049  -17.9968   21.9481 O   0  0  0  0  0  0  0  0  0  0  0  0
  2  1  1  1
  3  4  1  0
  3  2  1  0
  4  5  2  0
  6  5  1  0
  7  6  1  0
  8  7  2  0
  9  8  1  0
 10  9  2  0
 10 11  1  0
 11 12  2  0
 12  7  1  0
 12  4  1  0
 13 14  2  0
 13  2  1  0
 15 13  1  0
 16 17  1  0
 16 15  1  0
 18 19  1  0
 18 17  1  0
 19 15  1  0
 19 20  1  1
 21 20  2  0
 23 22  1  0
 24 23  2  0
 25 23  1  0
 27 26  1  1
 26 25  1  0
 27 28  1  0
 28 20  1  0
 29 30  1  0
 29 27  1  0
 31 29  2  0
M  END
$$$$
