WPQ.pdb
     RDKit          3D

 31 33  0  0  1  0  0  0  0  0999 V2000
    6.8272  -17.9834   24.9984 N   0  0  0  0  0  0  0  0  0  0  0  0
    7.0681  -16.8141   24.2288 C   0  0  1  0  0  0  0  0  0  0  0  0
    7.8333  -15.7473   24.9864 C   0  0  0  0  0  0  0  0  0  0  0  0
    6.9324  -14.8636   25.7706 C   0  0  0  0  0  0  0  0  0  0  0  0
    5.7572  -15.2527   26.4061 C   0  0  0  0  0  0  0  0  0  0  0  0
    5.2076  -14.1910   27.0171 N   0  0  0  0  0  0  0  0  0  0  0  0
    5.9641  -13.0843   26.8241 C   0  0  0  0  0  0  0  0  0  0  0  0
    5.8445  -11.7759   27.2288 C   0  0  0  0  0  0  0  0  0  0  0  0
    6.7945  -10.8533   26.8685 C   0  0  0  0  0  0  0  0  0  0  0  0
    7.8602  -11.2775   26.0961 C   0  0  0  0  0  0  0  0  0  0  0  0
    7.9794  -12.5889   25.6909 C   0  0  0  0  0  0  0  0  0  0  0  0
    7.0393  -13.5156   26.0440 C   0  0  0  0  0  0  0  0  0  0  0  0
    7.7751  -17.0113   22.9513 C   0  0  0  0  0  0  0  0  0  0  0  0
    8.0913  -18.2292   22.6990 O   0  0  0  0  0  0  0  0  0  0  0  0
    8.1272  -16.0370   22.0108 N   0  0  0  0  0  0  0  0  0  0  0  0
    7.9033  -14.5956   22.2317 C   0  0  0  0  0  0  0  0  0  0  0  0
    7.2128  -14.2357   20.9238 C   0  0  0  0  0  0  0  0  0  0  0  0
    8.0184  -15.0367   19.9322 C   0  0  0  0  0  0  0  0  0  0  0  0
    8.7358  -16.1174   20.7039 C   0  0  1  0  0  0  0  0  0  0  0  0
   10.1824  -15.8516   20.8636 C   0  0  0  0  0  0  0  0  0  0  0  0
   10.5572  -14.7474   21.3342 O   0  0  0  0  0  0  0  0  0  0  0  0
   13.3307  -18.4865   25.0232 N   0  0  0  0  0  0  0  0  0  0  0  0
   12.0558  -18.7158   24.4461 C   0  0  0  0  0  0  0  0  0  0  0  0
   11.1673  -19.1765   25.1756 O   0  0  0  0  0  0  0  0  0  0  0  0
   11.8685  -18.3915   23.0125 C   0  0  0  0  0  0  0  0  0  0  0  0
   12.3064  -17.0144   22.6298 C   0  0  0  0  0  0  0  0  0  0  0  0
   12.4836  -16.7658   21.1727 C   0  0  2  0  0  0  0  0  0  0  0  0
   11.1704  -16.8128   20.4989 N   0  0  0  0  0  0  0  0  0  0  0  0
   13.3710  -17.7942   20.5945 C   0  0  0  0  0  0  0  0  0  0  0  0
   14.7039  -17.8111   20.9521 O   0  0  0  0  0  0  0  0  0  0  0  0
   12.9351  -18.6394   19.7947 O   0  0  0  0  0  0  0  0  0  0  0  0
  2  1  1  1
  3  4  1  0
  3  2  1  0
  4  5  2  0
  6  5  1  0
  7  6  1  0
  8  7  2  0
  9  8  1  0
 10  9  2  0
 10 11  1  0
 11 12  2  0
 12  7  1  0
 12  4  1  0
 13 14  2  0
 13  2  1  0
 15 13  1  0
 16 17  1  0
 16 15  1  0
 18 19  1  0
 18 17  1  0
 19 15  1  0
 19 20  1  1
 21 20  2  0
 23 22  1  0
 24 23  2  0
 25 23  1  0
 27 26  1  1
 26 25  1  0
 27 28  1  0
 28 20  1  0
 29 30  1  0
 29 27  1  0
 31 29  2  0
M  END
$$$$
