WPQ.pdb
     RDKit          3D

 31 33  0  0  1  0  0  0  0  0999 V2000
    6.8107  -17.7148   25.6712 N   0  0  0  0  0  0  0  0  0  0  0  0
    6.5927  -17.0755   24.4217 C   0  0  1  0  0  0  0  0  0  0  0  0
    6.2316  -15.6095   24.5555 C   0  0  0  0  0  0  0  0  0  0  0  0
    7.0541  -14.9229   25.5849 C   0  0  0  0  0  0  0  0  0  0  0  0
    8.2403  -15.4000   26.1340 C   0  0  0  0  0  0  0  0  0  0  0  0
    8.7048  -14.5152   27.0307 N   0  0  0  0  0  0  0  0  0  0  0  0
    7.8789  -13.4453   27.1178 C   0  0  0  0  0  0  0  0  0  0  0  0
    7.9016  -12.2930   27.8674 C   0  0  0  0  0  0  0  0  0  0  0  0
    6.8985  -11.3656   27.7365 C   0  0  0  0  0  0  0  0  0  0  0  0
    5.8791  -11.6252   26.8387 C   0  0  0  0  0  0  0  0  0  0  0  0
    5.8571  -12.7802   26.0879 C   0  0  0  0  0  0  0  0  0  0  0  0
    6.8508  -13.7101   26.2104 C   0  0  0  0  0  0  0  0  0  0  0  0
    7.6999  -17.1490   23.4524 C   0  0  0  0  0  0  0  0  0  0  0  0
    8.3528  -18.2536   23.4710 O   0  0  0  0  0  0  0  0  0  0  0  0
    8.1020  -16.1681   22.5393 N   0  0  0  0  0  0  0  0  0  0  0  0
    7.5257  -14.8101   22.5201 C   0  0  0  0  0  0  0  0  0  0  0  0
    7.1938  -14.6887   21.0396 C   0  0  0  0  0  0  0  0  0  0  0  0
    8.4060  -15.3275   20.4100 C   0  0  0  0  0  0  0  0  0  0  0  0
    9.0727  -16.1694   21.4704 C   0  0  1  0  0  0  0  0  0  0  0  0
   10.3179  -15.5640   21.9921 C   0  0  0  0  0  0  0  0  0  0  0  0
   10.2474  -14.6968   22.8999 O   0  0  0  0  0  0  0  0  0  0  0  0
   11.3037  -19.4117   25.0233 N   0  0  0  0  0  0  0  0  0  0  0  0
   12.6304  -18.9588   25.2367 C   0  0  0  0  0  0  0  0  0  0  0  0
   13.2668  -19.4598   26.1736 O   0  0  0  0  0  0  0  0  0  0  0  0
   13.1686  -17.9183   24.3294 C   0  0  0  0  0  0  0  0  0  0  0  0
   12.1608  -17.3385   23.3899 C   0  0  0  0  0  0  0  0  0  0  0  0
   12.6598  -16.2842   22.4648 C   0  0  2  0  0  0  0  0  0  0  0  0
   11.6020  -15.9346   21.4955 N   0  0  0  0  0  0  0  0  0  0  0  0
   13.8484  -16.7763   21.7407 C   0  0  0  0  0  0  0  0  0  0  0  0
   15.0983  -16.3256   22.1142 O   0  0  0  0  0  0  0  0  0  0  0  0
   13.7379  -17.5862   20.8048 O   0  0  0  0  0  0  0  0  0  0  0  0
  2  1  1  1
  3  4  1  0
  3  2  1  0
  4  5  2  0
  6  5  1  0
  7  6  1  0
  8  7  2  0
  9  8  1  0
 10  9  2  0
 10 11  1  0
 11 12  2  0
 12  7  1  0
 12  4  1  0
 13 14  2  0
 13  2  1  0
 15 13  1  0
 16 17  1  0
 16 15  1  0
 18 19  1  0
 18 17  1  0
 19 15  1  0
 19 20  1  1
 21 20  2  0
 23 22  1  0
 24 23  2  0
 25 23  1  0
 27 26  1  1
 26 25  1  0
 27 28  1  0
 28 20  1  0
 29 30  1  0
 29 27  1  0
 31 29  2  0
M  END
$$$$
