WPQ.pdb
     RDKit          3D

 31 33  0  0  1  0  0  0  0  0999 V2000
    6.3969  -17.7514   25.5541 N   0  0  0  0  0  0  0  0  0  0  0  0
    6.3365  -17.0035   24.3480 C   0  0  1  0  0  0  0  0  0  0  0  0
    6.0820  -15.5263   24.5731 C   0  0  0  0  0  0  0  0  0  0  0  0
    6.9379  -14.9697   25.6526 C   0  0  0  0  0  0  0  0  0  0  0  0
    8.0234  -15.6078   26.2449 C   0  0  0  0  0  0  0  0  0  0  0  0
    8.5573  -14.8054   27.1797 N   0  0  0  0  0  0  0  0  0  0  0  0
    7.8765  -13.6368   27.2513 C   0  0  0  0  0  0  0  0  0  0  0  0
    8.0153  -12.5085   28.0245 C   0  0  0  0  0  0  0  0  0  0  0  0
    7.1506  -11.4544   27.8674 C   0  0  0  0  0  0  0  0  0  0  0  0
    6.1498  -11.5636   26.9193 C   0  0  0  0  0  0  0  0  0  0  0  0
    6.0114  -12.6945   26.1447 C   0  0  0  0  0  0  0  0  0  0  0  0
    6.8668  -13.7498   26.2930 C   0  0  0  0  0  0  0  0  0  0  0  0
    7.5124  -17.0977   23.4654 C   0  0  0  0  0  0  0  0  0  0  0  0
    8.1352  -18.2182   23.5243 O   0  0  0  0  0  0  0  0  0  0  0  0
    8.0067  -16.1209   22.5941 N   0  0  0  0  0  0  0  0  0  0  0  0
    7.5488  -14.7188   22.6233 C   0  0  0  0  0  0  0  0  0  0  0  0
    7.2445  -14.5132   21.1461 C   0  0  0  0  0  0  0  0  0  0  0  0
    8.4044  -15.2291   20.5013 C   0  0  0  0  0  0  0  0  0  0  0  0
    8.9853  -16.1649   21.5333 C   0  0  1  0  0  0  0  0  0  0  0  0
   10.2719  -15.6888   22.0873 C   0  0  0  0  0  0  0  0  0  0  0  0
   10.2750  -15.0323   23.1598 O   0  0  0  0  0  0  0  0  0  0  0  0
   11.7350  -19.6800   24.6327 N   0  0  0  0  0  0  0  0  0  0  0  0
   11.7387  -18.4351   25.3116 C   0  0  0  0  0  0  0  0  0  0  0  0
   11.4799  -18.4382   26.5228 O   0  0  0  0  0  0  0  0  0  0  0  0
   12.0500  -17.2142   24.5319 C   0  0  0  0  0  0  0  0  0  0  0  0
   12.4101  -17.4701   23.1037 C   0  0  0  0  0  0  0  0  0  0  0  0
   12.6923  -16.2662   22.2747 C   0  0  2  0  0  0  0  0  0  0  0  0
   11.5149  -15.9521   21.4405 N   0  0  0  0  0  0  0  0  0  0  0  0
   13.8584  -16.5199   21.4056 C   0  0  0  0  0  0  0  0  0  0  0  0
   15.1279  -16.3103   21.9047 O   0  0  0  0  0  0  0  0  0  0  0  0
   13.7115  -16.9172   20.2375 O   0  0  0  0  0  0  0  0  0  0  0  0
  2  1  1  1
  3  4  1  0
  3  2  1  0
  4  5  2  0
  6  5  1  0
  7  6  1  0
  8  7  2  0
  9  8  1  0
 10  9  2  0
 10 11  1  0
 11 12  2  0
 12  7  1  0
 12  4  1  0
 13 14  2  0
 13  2  1  0
 15 13  1  0
 16 17  1  0
 16 15  1  0
 18 19  1  0
 18 17  1  0
 19 15  1  0
 19 20  1  1
 21 20  2  0
 23 22  1  0
 24 23  2  0
 25 23  1  0
 27 26  1  6
 26 25  1  0
 27 28  1  0
 28 20  1  0
 29 30  1  0
 29 27  1  0
 31 29  2  0
M  END
$$$$
