WPQ.pdb
     RDKit          3D

 31 33  0  0  1  0  0  0  0  0999 V2000
    6.3612  -18.1360   24.5442 N   0  0  0  0  0  0  0  0  0  0  0  0
    6.8951  -16.9330   24.0099 C   0  0  1  0  0  0  0  0  0  0  0  0
    7.8181  -16.2104   24.9709 C   0  0  0  0  0  0  0  0  0  0  0  0
    7.1113  -15.1489   25.7333 C   0  0  0  0  0  0  0  0  0  0  0  0
    5.9086  -15.2978   26.4171 C   0  0  0  0  0  0  0  0  0  0  0  0
    5.5726  -14.1304   26.9888 N   0  0  0  0  0  0  0  0  0  0  0  0
    6.5028  -13.1828   26.7221 C   0  0  0  0  0  0  0  0  0  0  0  0
    6.6259  -11.8570   27.0647 C   0  0  0  0  0  0  0  0  0  0  0  0
    7.7089  -11.1318   26.6351 C   0  0  0  0  0  0  0  0  0  0  0  0
    8.6581  -11.7696   25.8575 C   0  0  0  0  0  0  0  0  0  0  0  0
    8.5340  -13.0982   25.5147 C   0  0  0  0  0  0  0  0  0  0  0  0
    7.4598  -13.8296   25.9370 C   0  0  0  0  0  0  0  0  0  0  0  0
    7.6265  -17.0560   22.7368 C   0  0  0  0  0  0  0  0  0  0  0  0
    7.9747  -18.2537   22.4351 O   0  0  0  0  0  0  0  0  0  0  0  0
    7.9708  -16.0322   21.8474 N   0  0  0  0  0  0  0  0  0  0  0  0
    7.6164  -14.6191   22.0800 C   0  0  0  0  0  0  0  0  0  0  0  0
    7.0016  -14.2789   20.7298 C   0  0  0  0  0  0  0  0  0  0  0  0
    7.9420  -14.9877   19.7880 C   0  0  0  0  0  0  0  0  0  0  0  0
    8.6821  -16.0296   20.5909 C   0  0  1  0  0  0  0  0  0  0  0  0
   10.0864  -15.6563   20.8691 C   0  0  0  0  0  0  0  0  0  0  0  0
   10.3606  -14.4638   21.1586 O   0  0  0  0  0  0  0  0  0  0  0  0
   11.7824  -15.9819   25.8151 N   0  0  0  0  0  0  0  0  0  0  0  0
   11.3555  -17.2090   25.2470 C   0  0  0  0  0  0  0  0  0  0  0  0
   10.9471  -18.0892   26.0165 O   0  0  0  0  0  0  0  0  0  0  0  0
   11.4254  -17.3598   23.7746 C   0  0  0  0  0  0  0  0  0  0  0  0
   11.9580  -16.1615   23.0569 C   0  0  0  0  0  0  0  0  0  0  0  0
   12.3508  -16.3711   21.6363 C   0  0  2  0  0  0  0  0  0  0  0  0
   11.1444  -16.6108   20.8190 N   0  0  0  0  0  0  0  0  0  0  0  0
   13.2543  -17.5342   21.5339 C   0  0  0  0  0  0  0  0  0  0  0  0
   12.8015  -18.6864   20.9239 O   0  0  0  0  0  0  0  0  0  0  0  0
   14.4101  -17.4885   21.9877 O   0  0  0  0  0  0  0  0  0  0  0  0
  2  1  1  1
  3  4  1  0
  3  2  1  0
  4  5  2  0
  6  5  1  0
  7  6  1  0
  8  7  2  0
  9  8  1  0
 10  9  2  0
 10 11  1  0
 11 12  2  0
 12  7  1  0
 12  4  1  0
 13 14  2  0
 13  2  1  0
 15 13  1  0
 16 17  1  0
 16 15  1  0
 18 19  1  0
 18 17  1  0
 19 15  1  0
 19 20  1  1
 21 20  2  0
 23 22  1  0
 24 23  2  0
 25 23  1  0
 27 26  1  1
 26 25  1  0
 27 28  1  0
 28 20  1  0
 29 30  1  0
 29 27  1  0
 31 29  2  0
M  END
$$$$
