WPQ.pdb
     RDKit          3D

 31 33  0  0  1  0  0  0  0  0999 V2000
    6.7014  -17.6426   25.5616 N   0  0  0  0  0  0  0  0  0  0  0  0
    6.4228  -16.9845   24.3340 C   0  0  1  0  0  0  0  0  0  0  0  0
    6.1953  -15.4944   24.4931 C   0  0  0  0  0  0  0  0  0  0  0  0
    6.9905  -14.9237   25.6110 C   0  0  0  0  0  0  0  0  0  0  0  0
    8.0411  -15.5538   26.2708 C   0  0  0  0  0  0  0  0  0  0  0  0
    8.5227  -14.7393   27.2232 N   0  0  0  0  0  0  0  0  0  0  0  0
    7.8398  -13.5699   27.2417 C   0  0  0  0  0  0  0  0  0  0  0  0
    7.9361  -12.4316   28.0068 C   0  0  0  0  0  0  0  0  0  0  0  0
    7.0820  -11.3798   27.7882 C   0  0  0  0  0  0  0  0  0  0  0  0
    6.1353  -11.5015   26.7876 C   0  0  0  0  0  0  0  0  0  0  0  0
    6.0394  -12.6424   26.0214 C   0  0  0  0  0  0  0  0  0  0  0  0
    6.8846  -13.6955   26.2305 C   0  0  0  0  0  0  0  0  0  0  0  0
    7.4274  -17.1450   23.2683 C   0  0  0  0  0  0  0  0  0  0  0  0
    7.9437  -18.3175   23.1940 O   0  0  0  0  0  0  0  0  0  0  0  0
    7.8644  -16.1799   22.3543 N   0  0  0  0  0  0  0  0  0  0  0  0
    7.4146  -14.7756   22.3990 C   0  0  0  0  0  0  0  0  0  0  0  0
    7.0106  -14.5848   20.9439 C   0  0  0  0  0  0  0  0  0  0  0  0
    8.1211  -15.3128   20.2294 C   0  0  0  0  0  0  0  0  0  0  0  0
    8.7679  -16.2397   21.2296 C   0  0  1  0  0  0  0  0  0  0  0  0
   10.0911  -15.7631   21.6890 C   0  0  0  0  0  0  0  0  0  0  0  0
   10.1548  -14.9570   22.6519 O   0  0  0  0  0  0  0  0  0  0  0  0
   11.2045  -19.7635   24.5131 N   0  0  0  0  0  0  0  0  0  0  0  0
   12.5701  -19.3893   24.5908 C   0  0  0  0  0  0  0  0  0  0  0  0
   13.2916  -20.0035   25.3883 O   0  0  0  0  0  0  0  0  0  0  0  0
   13.0450  -18.2910   23.7169 C   0  0  0  0  0  0  0  0  0  0  0  0
   11.9915  -17.7099   22.8297 C   0  0  0  0  0  0  0  0  0  0  0  0
   12.4280  -16.6032   21.9346 C   0  0  2  0  0  0  0  0  0  0  0  0
   11.3028  -16.1913   21.0714 N   0  0  0  0  0  0  0  0  0  0  0  0
   13.5542  -17.0550   21.0938 C   0  0  0  0  0  0  0  0  0  0  0  0
   13.3181  -17.3897   19.7758 O   0  0  0  0  0  0  0  0  0  0  0  0
   14.7048  -17.1372   21.5555 O   0  0  0  0  0  0  0  0  0  0  0  0
  2  1  1  1
  3  4  1  0
  3  2  1  0
  4  5  2  0
  6  5  1  0
  7  6  1  0
  8  7  2  0
  9  8  1  0
 10  9  2  0
 10 11  1  0
 11 12  2  0
 12  7  1  0
 12  4  1  0
 13 14  2  0
 13  2  1  0
 15 13  1  0
 16 17  1  0
 16 15  1  0
 18 19  1  0
 18 17  1  0
 19 15  1  0
 19 20  1  1
 21 20  2  0
 23 22  1  0
 24 23  2  0
 25 23  1  0
 27 26  1  1
 26 25  1  0
 27 28  1  0
 28 20  1  0
 29 30  1  0
 29 27  1  0
 31 29  2  0
M  END
$$$$
