WPQ.pdb
     RDKit          3D

 31 33  0  0  1  0  0  0  0  0999 V2000
    9.6379  -13.4744   16.7777 N   0  0  0  0  0  0  0  0  0  0  0  0
    9.6225  -14.6135   17.6261 C   0  0  1  0  0  0  0  0  0  0  0  0
   10.6745  -15.6428   17.2636 C   0  0  0  0  0  0  0  0  0  0  0  0
   12.0530  -15.1065   17.4037 C   0  0  0  0  0  0  0  0  0  0  0  0
   12.6829  -14.2328   16.5226 C   0  0  0  0  0  0  0  0  0  0  0  0
   13.9201  -13.9635   16.9691 N   0  0  0  0  0  0  0  0  0  0  0  0
   14.1637  -14.6218   18.1274 C   0  0  0  0  0  0  0  0  0  0  0  0
   15.2496  -14.6840   18.9684 C   0  0  0  0  0  0  0  0  0  0  0  0
   15.2014  -15.4584   20.1003 C   0  0  0  0  0  0  0  0  0  0  0  0
   14.0412  -16.1637   20.3629 C   0  0  0  0  0  0  0  0  0  0  0  0
   12.9535  -16.1009   19.5197 C   0  0  0  0  0  0  0  0  0  0  0  0
   12.9907  -15.3330   18.3900 C   0  0  0  0  0  0  0  0  0  0  0  0
    9.7703  -14.3514   19.0684 C   0  0  0  0  0  0  0  0  0  0  0  0
   10.8890  -13.8184   19.4019 O   0  0  0  0  0  0  0  0  0  0  0  0
    8.8441  -14.6149   20.0836 N   0  0  0  0  0  0  0  0  0  0  0  0
    7.5222  -15.2158   19.8227 C   0  0  0  0  0  0  0  0  0  0  0  0
    6.6374  -14.2406   20.5862 C   0  0  0  0  0  0  0  0  0  0  0  0
    7.4597  -14.0025   21.8275 C   0  0  0  0  0  0  0  0  0  0  0  0
    8.8783  -14.4105   21.5125 C   0  0  1  0  0  0  0  0  0  0  0  0
    9.2653  -15.6924   22.1418 C   0  0  0  0  0  0  0  0  0  0  0  0
    9.0470  -16.7691   21.5301 O   0  0  0  0  0  0  0  0  0  0  0  0
   14.5131  -14.5774   22.0788 N   0  0  0  0  0  0  0  0  0  0  0  0
   14.7631  -15.7722   22.8005 C   0  0  0  0  0  0  0  0  0  0  0  0
   15.9399  -16.1401   22.9163 O   0  0  0  0  0  0  0  0  0  0  0  0
   13.6049  -16.5023   23.3673 C   0  0  0  0  0  0  0  0  0  0  0  0
   12.2902  -15.8175   23.1739 C   0  0  0  0  0  0  0  0  0  0  0  0
   11.0857  -16.5831   23.5976 C   0  0  2  0  0  0  0  0  0  0  0  0
    9.8812  -15.7459   23.4265 N   0  0  0  0  0  0  0  0  0  0  0  0
   11.2158  -16.9753   25.0149 C   0  0  0  0  0  0  0  0  0  0  0  0
   10.3254  -16.4662   25.9385 O   0  0  0  0  0  0  0  0  0  0  0  0
   12.1116  -17.7533   25.3840 O   0  0  0  0  0  0  0  0  0  0  0  0
  2  1  1  6
  3  4  1  0
  3  2  1  0
  4  5  2  0
  6  5  1  0
  7  6  1  0
  8  7  2  0
  9  8  1  0
 10  9  2  0
 10 11  1  0
 11 12  2  0
 12  7  1  0
 12  4  1  0
 13 14  2  0
 13  2  1  0
 15 13  1  0
 16 17  1  0
 16 15  1  0
 18 19  1  0
 18 17  1  0
 19 15  1  0
 19 20  1  1
 21 20  2  0
 23 22  1  0
 24 23  2  0
 25 23  1  0
 27 26  1  1
 26 25  1  0
 27 28  1  0
 28 20  1  0
 29 30  1  0
 29 27  1  0
 31 29  2  0
M  END
$$$$
