WPQ.pdb
     RDKit          3D

 31 33  0  0  1  0  0  0  0  0999 V2000
    6.4460  -18.1081   24.5889 N   0  0  0  0  0  0  0  0  0  0  0  0
    6.9100  -16.8607   24.0926 C   0  0  1  0  0  0  0  0  0  0  0  0
    7.7538  -16.0962   25.0931 C   0  0  0  0  0  0  0  0  0  0  0  0
    6.9556  -15.0974   25.8500 C   0  0  0  0  0  0  0  0  0  0  0  0
    5.7565  -15.3426   26.5120 C   0  0  0  0  0  0  0  0  0  0  0  0
    5.3231  -14.2085   27.0853 N   0  0  0  0  0  0  0  0  0  0  0  0
    6.1827  -13.1909   26.8407 C   0  0  0  0  0  0  0  0  0  0  0  0
    6.1988  -11.8623   27.1938 C   0  0  0  0  0  0  0  0  0  0  0  0
    7.2304  -11.0535   26.7875 C   0  0  0  0  0  0  0  0  0  0  0  0
    8.2382  -11.6114   26.0224 C   0  0  0  0  0  0  0  0  0  0  0  0
    8.2214  -12.9429   25.6690 C   0  0  0  0  0  0  0  0  0  0  0  0
    7.1992  -13.7571   26.0681 C   0  0  0  0  0  0  0  0  0  0  0  0
    7.6830  -16.9072   22.8392 C   0  0  0  0  0  0  0  0  0  0  0  0
    8.0376  -18.0853   22.4744 O   0  0  0  0  0  0  0  0  0  0  0  0
    8.0598  -15.8313   22.0278 N   0  0  0  0  0  0  0  0  0  0  0  0
    7.7284  -14.4310   22.3531 C   0  0  0  0  0  0  0  0  0  0  0  0
    7.1405  -13.9862   21.0214 C   0  0  0  0  0  0  0  0  0  0  0  0
    8.0818  -14.6465   20.0457 C   0  0  0  0  0  0  0  0  0  0  0  0
    8.7900  -15.7558   20.7845 C   0  0  1  0  0  0  0  0  0  0  0  0
   10.1967  -15.4304   21.1073 C   0  0  0  0  0  0  0  0  0  0  0  0
   10.4654  -14.3253   21.6437 O   0  0  0  0  0  0  0  0  0  0  0  0
   12.0860  -17.1198   25.7973 N   0  0  0  0  0  0  0  0  0  0  0  0
   11.5994  -18.1243   24.9227 C   0  0  0  0  0  0  0  0  0  0  0  0
   11.2208  -19.1915   25.4244 O   0  0  0  0  0  0  0  0  0  0  0  0
   11.5754  -17.8348   23.4697 C   0  0  0  0  0  0  0  0  0  0  0  0
   12.0847  -16.4780   23.1032 C   0  0  0  0  0  0  0  0  0  0  0  0
   12.4698  -16.2873   21.6778 C   0  0  2  0  0  0  0  0  0  0  0  0
   11.2630  -16.3347   20.8280 N   0  0  0  0  0  0  0  0  0  0  0  0
   13.4048  -17.3529   21.2657 C   0  0  0  0  0  0  0  0  0  0  0  0
   12.9715  -18.3258   20.3879 O   0  0  0  0  0  0  0  0  0  0  0  0
   14.5696  -17.3842   21.6969 O   0  0  0  0  0  0  0  0  0  0  0  0
  2  1  1  1
  3  4  1  0
  3  2  1  0
  4  5  2  0
  6  5  1  0
  7  6  1  0
  8  7  2  0
  9  8  1  0
 10  9  2  0
 10 11  1  0
 11 12  2  0
 12  7  1  0
 12  4  1  0
 13 14  2  0
 13  2  1  0
 15 13  1  0
 16 17  1  0
 16 15  1  0
 18 19  1  0
 18 17  1  0
 19 15  1  0
 19 20  1  1
 21 20  2  0
 23 22  1  0
 24 23  2  0
 25 23  1  0
 27 26  1  1
 26 25  1  0
 27 28  1  0
 28 20  1  0
 29 30  1  0
 29 27  1  0
 31 29  2  0
M  END
$$$$
