WPQ.pdb
     RDKit          3D

 31 33  0  0  1  0  0  0  0  0999 V2000
    6.7381  -18.0827   24.7445 N   0  0  0  0  0  0  0  0  0  0  0  0
    7.0967  -16.8531   24.1304 C   0  0  1  0  0  0  0  0  0  0  0  0
    7.8792  -15.9335   25.0466 C   0  0  0  0  0  0  0  0  0  0  0  0
    7.0063  -14.9315   25.7113 C   0  0  0  0  0  0  0  0  0  0  0  0
    5.7573  -15.1806   26.2720 C   0  0  0  0  0  0  0  0  0  0  0  0
    5.2621  -14.0418   26.7824 N   0  0  0  0  0  0  0  0  0  0  0  0
    6.1272  -13.0173   26.5924 C   0  0  0  0  0  0  0  0  0  0  0  0
    6.0965  -11.6820   26.9185 C   0  0  0  0  0  0  0  0  0  0  0  0
    7.1495  -10.8669   26.5865 C   0  0  0  0  0  0  0  0  0  0  0  0
    8.2266  -11.4253   25.9228 C   0  0  0  0  0  0  0  0  0  0  0  0
    8.2567  -12.7635   25.5965 C   0  0  0  0  0  0  0  0  0  0  0  0
    7.2137  -13.5840   25.9222 C   0  0  0  0  0  0  0  0  0  0  0  0
    7.8661  -16.9527   22.8778 C   0  0  0  0  0  0  0  0  0  0  0  0
    8.2820  -18.1344   22.5996 O   0  0  0  0  0  0  0  0  0  0  0  0
    8.1813  -15.9225   21.9850 N   0  0  0  0  0  0  0  0  0  0  0  0
    7.7683  -14.5229   22.2022 C   0  0  0  0  0  0  0  0  0  0  0  0
    7.1582  -14.2170   20.8417 C   0  0  0  0  0  0  0  0  0  0  0  0
    8.1381  -14.8947   19.9174 C   0  0  0  0  0  0  0  0  0  0  0  0
    8.9082  -15.9008   20.7377 C   0  0  1  0  0  0  0  0  0  0  0  0
   10.2930  -15.4702   21.0309 C   0  0  0  0  0  0  0  0  0  0  0  0
   10.4832  -14.4284   21.7089 O   0  0  0  0  0  0  0  0  0  0  0  0
   11.9169  -20.1237   24.5009 N   0  0  0  0  0  0  0  0  0  0  0  0
   12.2141  -18.7516   24.6999 C   0  0  0  0  0  0  0  0  0  0  0  0
   11.9256  -18.2523   25.7959 O   0  0  0  0  0  0  0  0  0  0  0  0
   12.8479  -18.0049   23.5880 C   0  0  0  0  0  0  0  0  0  0  0  0
   11.8805  -17.3789   22.6357 C   0  0  0  0  0  0  0  0  0  0  0  0
   12.4755  -16.5687   21.5374 C   0  0  2  0  0  0  0  0  0  0  0  0
   11.4246  -16.2028   20.5666 N   0  0  0  0  0  0  0  0  0  0  0  0
   13.5272  -17.3480   20.8547 C   0  0  0  0  0  0  0  0  0  0  0  0
   13.1611  -18.3629   19.9941 O   0  0  0  0  0  0  0  0  0  0  0  0
   14.7304  -17.1028   21.0445 O   0  0  0  0  0  0  0  0  0  0  0  0
  2  1  1  1
  3  4  1  0
  3  2  1  0
  4  5  2  0
  6  5  1  0
  7  6  1  0
  8  7  2  0
  9  8  1  0
 10  9  2  0
 10 11  1  0
 11 12  2  0
 12  7  1  0
 12  4  1  0
 13 14  2  0
 13  2  1  0
 15 13  1  0
 16 17  1  0
 16 15  1  0
 18 19  1  0
 18 17  1  0
 19 15  1  0
 19 20  1  1
 21 20  2  0
 23 22  1  0
 24 23  2  0
 25 23  1  0
 27 26  1  1
 26 25  1  0
 27 28  1  0
 28 20  1  0
 29 30  1  0
 29 27  1  0
 31 29  2  0
M  END
$$$$
