CRP.pdb
     RDKit          3D

 25 25  0  0  1  0  0  0  0  0999 V2000
   25.8286  -20.8580   -9.2019 N   0  0  0  0  0  0  0  0  0  0  0  0
   25.1048  -20.9998  -10.4256 C   0  0  1  0  0  0  0  0  0  0  0  0
   23.7676  -20.2916  -10.4033 C   0  0  0  0  0  0  0  0  0  0  0  0
   22.7627  -20.8837  -11.7966 S   0  0  0  0  0  0  0  0  0  0  0  0
   25.8214  -20.5522  -11.6242 C   0  0  0  0  0  0  0  0  0  0  0  0
   26.4105  -19.4428  -11.5545 O   0  0  0  0  0  0  0  0  0  0  0  0
   30.8206  -23.7490  -17.9455 N   0  0  0  0  0  0  0  0  0  0  0  0
   30.5497  -23.9629  -16.5576 C   0  0  0  0  0  0  0  0  0  0  0  0
   31.3595  -24.6914  -15.8620 N   0  0  0  0  0  0  0  0  0  0  0  0
   29.4225  -23.4034  -15.9114 N   0  0  0  0  0  0  0  0  0  0  0  0
   28.4322  -22.6939  -16.6633 C   0  0  0  0  0  0  0  0  0  0  0  0
   28.0276  -21.3875  -15.9524 C   0  0  0  0  0  0  0  0  0  0  0  0
   27.3167  -21.8127  -14.7093 C   0  0  0  0  0  0  0  0  0  0  0  0
   26.6090  -20.7076  -13.9531 C   0  0  2  0  0  0  0  0  0  0  0  0
   25.9025  -21.2621  -12.8434 N   0  0  0  0  0  0  0  0  0  0  0  0
   25.8432  -19.7848  -14.8062 C   0  0  0  0  0  0  0  0  0  0  0  0
   24.6667  -20.1629  -15.2070 O   0  0  0  0  0  0  0  0  0  0  0  0
   31.1566  -24.8791  -14.8568 N   0  0  0  0  0  0  0  0  0  0  0  0
   26.2231  -18.5079  -15.2623 C   0  0  0  0  0  0  0  0  0  0  0  0
   27.5618  -17.9402  -15.0244 C   0  0  0  0  0  0  0  0  0  0  0  0
   27.5585  -16.5755  -15.6361 C   0  0  0  0  0  0  0  0  0  0  0  0
   26.1032  -16.1849  -15.6373 C   0  0  1  0  0  0  0  0  0  0  0  0
   25.4702  -17.5383  -15.9953 C   0  0  0  0  0  0  0  0  0  0  0  0
   25.6411  -17.6672  -17.4619 O   0  0  0  0  0  0  0  0  0  0  0  0
   26.5091  -18.5992  -17.9929 O   0  0  0  0  0  0  0  0  0  0  0  0
  2  5  1  0
  2  1  1  1
  3  2  1  0
  4  3  1  0
  5  6  2  0
  7  8  1  0
  8 10  1  0
  8  9  2  0
 10 11  1  0
 11 12  1  0
 14 13  1  6
 13 12  1  0
 15 14  1  0
 15  5  1  0
 16 17  2  0
 16 14  1  0
 18 16  1  0
 19 18  1  0
 20 21  1  0
 20 19  1  0
 21 22  1  0
 22 18  1  0
 22 23  1  6
 24 23  1  0
 25 23  2  0
M  END
$$$$
