CRP.pdb
     RDKit          3D

 25 25  0  0  1  0  0  0  0  0999 V2000
   25.8014  -14.7379  -15.4128 N   0  0  0  0  0  0  0  0  0  0  0  0
   25.3362  -16.0371  -15.0426 C   0  0  1  0  0  0  0  0  0  0  0  0
   24.0903  -16.4519  -15.7946 C   0  0  0  0  0  0  0  0  0  0  0  0
   22.6678  -15.5371  -15.1302 S   0  0  0  0  0  0  0  0  0  0  0  0
   26.3211  -17.1133  -15.1927 C   0  0  0  0  0  0  0  0  0  0  0  0
   27.0370  -17.0900  -16.2270 O   0  0  0  0  0  0  0  0  0  0  0  0
   24.9899  -20.4720   -9.1342 N   0  0  0  0  0  0  0  0  0  0  0  0
   24.5316  -20.8568  -10.4332 C   0  0  0  0  0  0  0  0  0  0  0  0
   23.2611  -20.9459  -10.6528 N   0  0  0  0  0  0  0  0  0  0  0  0
   25.4208  -21.1445  -11.4951 N   0  0  0  0  0  0  0  0  0  0  0  0
   26.8146  -20.8388  -11.3782 C   0  0  0  0  0  0  0  0  0  0  0  0
   27.1483  -19.5019  -12.0689 C   0  0  0  0  0  0  0  0  0  0  0  0
   27.9201  -19.8672  -13.2947 C   0  0  0  0  0  0  0  0  0  0  0  0
   27.4520  -19.2136  -14.5783 C   0  0  2  0  0  0  0  0  0  0  0  0
   26.5290  -18.1676  -14.2752 N   0  0  0  0  0  0  0  0  0  0  0  0
   27.0286  -20.1622  -15.6209 C   0  0  0  0  0  0  0  0  0  0  0  0
   25.7560  -20.3829  -15.7607 O   0  0  0  0  0  0  0  0  0  0  0  0
   22.9155  -21.2473  -11.5892 N   0  0  0  0  0  0  0  0  0  0  0  0
   27.8396  -20.8865  -16.5157 C   0  0  0  0  0  0  0  0  0  0  0  0
   29.3117  -20.8384  -16.4777 C   0  0  0  0  0  0  0  0  0  0  0  0
   29.7934  -21.7127  -17.5913 C   0  0  0  0  0  0  0  0  0  0  0  0
   28.6458  -21.7172  -18.5678 C   0  0  1  0  0  0  0  0  0  0  0  0
   27.4664  -21.7604  -17.5840 C   0  0  0  0  0  0  0  0  0  0  0  0
   27.3705  -23.1773  -17.1602 O   0  0  0  0  0  0  0  0  0  0  0  0
   26.8694  -24.1380  -18.0147 O   0  0  0  0  0  0  0  0  0  0  0  0
  2  5  1  0
  2  1  1  6
  3  2  1  0
  4  3  1  0
  5  6  2  0
  7  8  1  0
  8 10  1  0
  8  9  2  0
 10 11  1  0
 11 12  1  0
 14 13  1  1
 13 12  1  0
 15 14  1  0
 15  5  1  0
 16 17  2  0
 16 14  1  0
 18 16  1  0
 19 18  1  0
 20 21  1  0
 20 19  1  0
 21 22  1  0
 22 18  1  0
 22 23  1  1
 24 23  1  0
 25 23  2  0
M  END
$$$$
