CRP.pdb
     RDKit          3D

 25 25  0  0  1  0  0  0  0  0999 V2000
   29.3025  -22.1909  -18.5368 N   0  0  0  0  0  0  0  0  0  0  0  0
   28.7544  -20.9898  -17.9906 C   0  0  1  0  0  0  0  0  0  0  0  0
   28.1555  -20.0843  -19.0448 C   0  0  0  0  0  0  0  0  0  0  0  0
   29.4998  -19.2656  -19.9527 S   0  0  0  0  0  0  0  0  0  0  0  0
   27.7390  -21.1893  -16.9515 C   0  0  0  0  0  0  0  0  0  0  0  0
   26.9194  -22.1272  -17.1286 O   0  0  0  0  0  0  0  0  0  0  0  0
   25.7545  -20.5641   -8.9063 N   0  0  0  0  0  0  0  0  0  0  0  0
   24.5850  -20.9548   -9.6310 C   0  0  0  0  0  0  0  0  0  0  0  0
   23.4203  -20.7207   -9.1220 N   0  0  0  0  0  0  0  0  0  0  0  0
   24.6535  -21.5909  -10.8926 N   0  0  0  0  0  0  0  0  0  0  0  0
   25.8200  -21.4560  -11.7115 C   0  0  0  0  0  0  0  0  0  0  0  0
   25.7952  -20.1300  -12.4969 C   0  0  0  0  0  0  0  0  0  0  0  0
   26.9163  -20.2264  -13.4794 C   0  0  0  0  0  0  0  0  0  0  0  0
   26.5218  -20.6514  -14.8786 C   0  0  2  0  0  0  0  0  0  0  0  0
   27.6078  -20.4175  -15.7751 N   0  0  0  0  0  0  0  0  0  0  0  0
   25.2086  -20.1508  -15.3155 C   0  0  0  0  0  0  0  0  0  0  0  0
   25.1110  -18.8935  -15.6277 O   0  0  0  0  0  0  0  0  0  0  0  0
   22.5604  -20.9886   -9.6470 N   0  0  0  0  0  0  0  0  0  0  0  0
   24.0052  -20.8705  -15.4451 C   0  0  0  0  0  0  0  0  0  0  0  0
   23.9048  -22.3149  -15.1719 C   0  0  0  0  0  0  0  0  0  0  0  0
   22.4862  -22.7007  -15.4465 C   0  0  0  0  0  0  0  0  0  0  0  0
   22.0121  -21.6573  -16.4247 C   0  0  2  0  0  0  0  0  0  0  0  0
   22.7083  -20.4179  -15.8419 C   0  0  0  0  0  0  0  0  0  0  0  0
   21.8665  -20.0082  -14.6930 O   0  0  0  0  0  0  0  0  0  0  0  0
   22.3126  -20.1691  -13.3972 O   0  0  0  0  0  0  0  0  0  0  0  0
  2  5  1  0
  2  1  1  6
  3  2  1  0
  4  3  1  0
  5  6  2  0
  7  8  1  0
  8 10  1  0
  8  9  2  0
 10 11  1  0
 11 12  1  0
 14 13  1  1
 13 12  1  0
 15 14  1  0
 15  5  1  0
 16 17  2  0
 16 14  1  0
 18 16  1  0
 19 18  1  0
 20 21  1  0
 20 19  1  0
 21 22  1  0
 22 18  1  0
 22 23  1  1
 24 23  1  0
 25 23  2  0
M  END
$$$$
