CRP.pdb
     RDKit          3D

 25 25  0  0  1  0  0  0  0  0999 V2000
   29.5465  -19.2438  -19.2636 N   0  0  0  0  0  0  0  0  0  0  0  0
   28.5703  -18.5877  -18.4525 C   0  0  1  0  0  0  0  0  0  0  0  0
   27.6033  -17.7487  -19.2593 C   0  0  0  0  0  0  0  0  0  0  0  0
   26.4508  -16.9208  -18.1243 S   0  0  0  0  0  0  0  0  0  0  0  0
   27.7766  -19.4768  -17.5981 C   0  0  0  0  0  0  0  0  0  0  0  0
   27.0128  -20.2914  -18.1777 O   0  0  0  0  0  0  0  0  0  0  0  0
   25.9382  -19.1015  -10.2380 N   0  0  0  0  0  0  0  0  0  0  0  0
   25.7322  -20.4897   -9.9623 C   0  0  0  0  0  0  0  0  0  0  0  0
   24.8750  -20.8325   -9.0578 N   0  0  0  0  0  0  0  0  0  0  0  0
   26.4341  -21.5096  -10.6465 N   0  0  0  0  0  0  0  0  0  0  0  0
   27.2857  -21.1893  -11.7518 C   0  0  0  0  0  0  0  0  0  0  0  0
   26.4599  -20.8824  -13.0166 C   0  0  0  0  0  0  0  0  0  0  0  0
   27.4611  -20.6374  -14.0978 C   0  0  0  0  0  0  0  0  0  0  0  0
   26.8833  -20.3101  -15.4590 C   0  0  2  0  0  0  0  0  0  0  0  0
   27.8003  -19.4919  -16.1853 N   0  0  0  0  0  0  0  0  0  0  0  0
   25.4888  -19.8406  -15.4275 C   0  0  0  0  0  0  0  0  0  0  0  0
   25.2712  -18.6056  -15.0880 O   0  0  0  0  0  0  0  0  0  0  0  0
   24.7502  -21.8386   -8.8148 N   0  0  0  0  0  0  0  0  0  0  0  0
   24.3212  -20.5697  -15.7239 C   0  0  0  0  0  0  0  0  0  0  0  0
   24.3365  -22.0087  -16.0399 C   0  0  0  0  0  0  0  0  0  0  0  0
   22.9191  -22.3972  -16.3166 C   0  0  0  0  0  0  0  0  0  0  0  0
   22.2709  -21.1086  -16.7521 C   0  0  2  0  0  0  0  0  0  0  0  0
   22.9621  -20.1306  -15.7895 C   0  0  0  0  0  0  0  0  0  0  0  0
   22.2451  -20.2868  -14.5019 O   0  0  0  0  0  0  0  0  0  0  0  0
   20.9785  -19.7666  -14.3308 O   0  0  0  0  0  0  0  0  0  0  0  0
  2  5  1  0
  2  1  1  6
  3  2  1  0
  4  3  1  0
  5  6  2  0
  7  8  1  0
  8 10  1  0
  8  9  2  0
 10 11  1  0
 11 12  1  0
 14 13  1  1
 13 12  1  0
 15 14  1  0
 15  5  1  0
 16 17  2  0
 16 14  1  0
 18 16  1  0
 19 18  1  0
 20 21  1  0
 20 19  1  0
 21 22  1  0
 22 18  1  0
 22 23  1  1
 24 23  1  0
 25 23  2  0
M  END
$$$$
