CRP.pdb
     RDKit          3D

 25 25  0  0  1  0  0  0  0  0999 V2000
   20.3227  -20.9102  -12.9827 N   0  0  0  0  0  0  0  0  0  0  0  0
   21.2861  -21.0385  -14.0300 C   0  0  1  0  0  0  0  0  0  0  0  0
   20.6900  -20.8329  -15.4056 C   0  0  0  0  0  0  0  0  0  0  0  0
   19.6990  -22.2916  -15.8437 S   0  0  0  0  0  0  0  0  0  0  0  0
   22.4475  -20.1505  -13.9150 C   0  0  0  0  0  0  0  0  0  0  0  0
   22.2166  -18.9150  -13.8608 O   0  0  0  0  0  0  0  0  0  0  0  0
   29.5560  -21.5367   -9.9507 N   0  0  0  0  0  0  0  0  0  0  0  0
   29.1726  -21.6554  -11.3234 C   0  0  0  0  0  0  0  0  0  0  0  0
   30.0139  -22.1464  -12.1729 N   0  0  0  0  0  0  0  0  0  0  0  0
   27.8991  -21.2548  -11.7911 N   0  0  0  0  0  0  0  0  0  0  0  0
   26.9087  -20.7719  -10.8770 C   0  0  0  0  0  0  0  0  0  0  0  0
   25.5885  -20.4558  -11.6069 C   0  0  0  0  0  0  0  0  0  0  0  0
   25.9824  -20.0644  -12.9937 C   0  0  0  0  0  0  0  0  0  0  0  0
   24.8495  -19.6050  -13.8878 C   0  0  2  0  0  0  0  0  0  0  0  0
   23.7963  -20.5683  -13.8608 N   0  0  0  0  0  0  0  0  0  0  0  0
   25.2761  -19.1566  -15.2231 C   0  0  0  0  0  0  0  0  0  0  0  0
   25.0908  -19.9648  -16.2232 O   0  0  0  0  0  0  0  0  0  0  0  0
   29.7653  -22.1903  -13.1844 N   0  0  0  0  0  0  0  0  0  0  0  0
   25.8772  -17.9331  -15.5762 C   0  0  0  0  0  0  0  0  0  0  0  0
   26.2438  -16.9074  -14.5840 C   0  0  0  0  0  0  0  0  0  0  0  0
   26.8241  -15.7628  -15.3520 C   0  0  0  0  0  0  0  0  0  0  0  0
   26.2137  -15.9023  -16.7225 C   0  0  2  0  0  0  0  0  0  0  0  0
   26.2398  -17.4319  -16.8652 C   0  0  0  0  0  0  0  0  0  0  0  0
   27.6364  -17.7599  -17.2371 O   0  0  0  0  0  0  0  0  0  0  0  0
   28.1459  -17.3908  -18.4652 O   0  0  0  0  0  0  0  0  0  0  0  0
  2  5  1  0
  2  1  1  1
  3  2  1  0
  4  3  1  0
  5  6  2  0
  7  8  1  0
  8 10  1  0
  8  9  2  0
 10 11  1  0
 11 12  1  0
 14 13  1  6
 13 12  1  0
 15 14  1  0
 15  5  1  0
 16 17  2  0
 16 14  1  0
 18 16  1  0
 19 18  1  0
 20 21  1  0
 20 19  1  0
 21 22  1  0
 22 18  1  0
 22 23  1  6
 24 23  1  0
 25 23  2  0
M  END
$$$$
