CRP.pdb
     RDKit          3D

 25 25  0  0  1  0  0  0  0  0999 V2000
   27.9771  -15.0847  -16.6571 N   0  0  0  0  0  0  0  0  0  0  0  0
   26.9607  -15.5887  -15.7886 C   0  0  1  0  0  0  0  0  0  0  0  0
   25.6006  -14.9843  -16.0623 C   0  0  0  0  0  0  0  0  0  0  0  0
   24.4432  -15.5261  -14.7705 S   0  0  0  0  0  0  0  0  0  0  0  0
   26.8056  -17.0470  -15.7979 C   0  0  0  0  0  0  0  0  0  0  0  0
   26.6225  -17.5931  -16.9164 O   0  0  0  0  0  0  0  0  0  0  0  0
   26.4150  -20.2333   -8.5642 N   0  0  0  0  0  0  0  0  0  0  0  0
   25.2994  -20.6567   -9.3528 C   0  0  0  0  0  0  0  0  0  0  0  0
   24.1226  -20.6803   -8.8190 N   0  0  0  0  0  0  0  0  0  0  0  0
   25.4345  -21.0525  -10.7042 N   0  0  0  0  0  0  0  0  0  0  0  0
   26.6802  -20.8841  -11.3892 C   0  0  0  0  0  0  0  0  0  0  0  0
   26.6719  -19.6038  -12.2473 C   0  0  0  0  0  0  0  0  0  0  0  0
   27.0681  -20.0401  -13.6199 C   0  0  0  0  0  0  0  0  0  0  0  0
   26.4528  -19.2516  -14.7573 C   0  0  2  0  0  0  0  0  0  0  0  0
   26.8447  -17.8825  -14.6590 N   0  0  0  0  0  0  0  0  0  0  0  0
   25.0149  -19.4958  -14.9546 C   0  0  0  0  0  0  0  0  0  0  0  0
   24.1767  -18.6969  -14.3656 O   0  0  0  0  0  0  0  0  0  0  0  0
   23.3019  -20.9872   -9.3839 N   0  0  0  0  0  0  0  0  0  0  0  0
   24.4039  -20.5091  -15.7180 C   0  0  0  0  0  0  0  0  0  0  0  0
   25.1727  -21.5138  -16.4733 C   0  0  0  0  0  0  0  0  0  0  0  0
   24.1707  -22.3845  -17.1622 C   0  0  0  0  0  0  0  0  0  0  0  0
   22.9534  -21.5051  -17.2849 C   0  0  2  0  0  0  0  0  0  0  0  0
   23.0166  -20.7816  -15.9309 C   0  0  0  0  0  0  0  0  0  0  0  0
   22.4642  -21.7478  -14.9522 O   0  0  0  0  0  0  0  0  0  0  0  0
   21.1089  -22.0014  -14.8977 O   0  0  0  0  0  0  0  0  0  0  0  0
  2  5  1  0
  2  1  1  6
  3  2  1  0
  4  3  1  0
  5  6  2  0
  7  8  1  0
  8 10  1  0
  8  9  2  0
 10 11  1  0
 11 12  1  0
 14 13  1  1
 13 12  1  0
 15 14  1  0
 15  5  1  0
 16 17  2  0
 16 14  1  0
 18 16  1  0
 19 18  1  0
 20 21  1  0
 20 19  1  0
 21 22  1  0
 22 18  1  0
 22 23  1  1
 24 23  1  0
 25 23  2  0
M  END
$$$$
