YYS.pdb
     RDKit          3D

 31 32  0  0  1  0  0  0  0  0999 V2000
    9.7922  -22.4527   17.3069 O   0  0  0  0  0  0  0  0  0  0  0  0
    9.8531  -21.5197   18.3349 C   0  0  0  0  0  0  0  0  0  0  0  0
    8.7355  -20.8666   18.8082 C   0  0  0  0  0  0  0  0  0  0  0  0
    8.8591  -19.9510   19.8306 C   0  0  0  0  0  0  0  0  0  0  0  0
   10.0876  -19.6877   20.3778 C   0  0  0  0  0  0  0  0  0  0  0  0
   10.2295  -18.6925   21.4909 C   0  0  0  0  0  0  0  0  0  0  0  0
   10.0737  -17.2758   20.9464 C   0  0  2  0  0  0  0  0  0  0  0  0
   11.1769  -16.9756   20.0813 N   0  0  0  0  0  0  0  0  0  0  0  0
    9.8876  -16.2943   22.0241 C   0  0  0  0  0  0  0  0  0  0  0  0
   10.9039  -15.6615   22.4477 O   0  0  0  0  0  0  0  0  0  0  0  0
   11.1967  -20.3347   19.9092 C   0  0  0  0  0  0  0  0  0  0  0  0
   11.0861  -21.2501   18.8898 C   0  0  0  0  0  0  0  0  0  0  0  0
    6.2106  -11.0107   28.0963 O   0  0  0  0  0  0  0  0  0  0  0  0
    6.4202  -11.8509   27.0210 C   0  0  0  0  0  0  0  0  0  0  0  0
    5.8768  -13.1333   26.9761 C   0  0  0  0  0  0  0  0  0  0  0  0
    6.1341  -13.9216   25.8550 C   0  0  0  0  0  0  0  0  0  0  0  0
    6.8895  -13.4902   24.8116 C   0  0  0  0  0  0  0  0  0  0  0  0
    7.1509  -14.3268   23.6436 C   0  0  0  0  0  0  0  0  0  0  0  0
    8.4626  -15.0528   23.6908 C   0  0  2  0  0  0  0  0  0  0  0  0
    8.6618  -15.9893   22.6379 N   0  0  0  0  0  0  0  0  0  0  0  0
    8.7112  -15.6872   25.0084 C   0  0  0  0  0  0  0  0  0  0  0  0
    8.8127  -15.0313   26.0747 O   0  0  0  0  0  0  0  0  0  0  0  0
    7.4290  -12.2152   24.8578 C   0  0  0  0  0  0  0  0  0  0  0  0
    7.1888  -11.4024   25.9671 C   0  0  0  0  0  0  0  0  0  0  0  0
    9.4044  -19.6478   24.8211 O   0  0  0  0  0  0  0  0  0  0  0  0
    8.7424  -19.2939   26.0133 C   0  0  0  0  0  0  0  0  0  0  0  0
    9.0901  -17.8309   26.2940 C   0  0  2  0  0  0  0  0  0  0  0  0
    8.8432  -17.0933   25.0893 N   0  0  0  0  0  0  0  0  0  0  0  0
   10.5360  -17.7976   26.5969 C   0  0  0  0  0  0  0  0  0  0  0  0
   10.9988  -18.4340   27.7349 O   0  0  0  0  0  0  0  0  0  0  0  0
   11.3235  -17.1942   25.8204 O   0  0  0  0  0  0  0  0  0  0  0  0
  2 12  2  0
  2  1  1  0
  3  2  1  0
  4  5  1  0
  4  3  2  0
  5 11  2  0
  6  7  1  0
  6  5  1  0
  7  8  1  1
  9  7  1  0
  9 20  1  0
 10  9  2  0
 11 12  1  0
 13 14  1  0
 14 15  2  0
 15 16  1  0
 17 18  1  0
 17 16  2  0
 19 18  1  1
 19 20  1  0
 19 21  1  0
 21 28  1  0
 22 21  2  0
 23 17  1  0
 24 23  2  0
 24 14  1  0
 25 26  1  0
 27 26  1  6
 27 29  1  0
 28 27  1  0
 29 31  2  0
 29 30  1  0
M  END
$$$$
