YYS.pdb
     RDKit          3D

 31 32  0  0  1  0  0  0  0  0999 V2000
    7.0648  -22.8864   30.6811 O   0  0  0  0  0  0  0  0  0  0  0  0
    7.3371  -21.9373   29.7033 C   0  0  0  0  0  0  0  0  0  0  0  0
    8.6217  -21.6217   29.3161 C   0  0  0  0  0  0  0  0  0  0  0  0
    8.8287  -20.6711   28.3402 C   0  0  0  0  0  0  0  0  0  0  0  0
    7.7635  -20.0390   27.7540 C   0  0  0  0  0  0  0  0  0  0  0  0
    7.9814  -19.0035   26.6911 C   0  0  0  0  0  0  0  0  0  0  0  0
    7.2199  -19.3870   25.4259 C   0  0  2  0  0  0  0  0  0  0  0  0
    7.4274  -20.7785   25.1502 N   0  0  0  0  0  0  0  0  0  0  0  0
    7.5572  -18.5074   24.2981 C   0  0  0  0  0  0  0  0  0  0  0  0
    8.3003  -18.9652   23.3757 O   0  0  0  0  0  0  0  0  0  0  0  0
    6.4890  -20.3511   28.1372 C   0  0  0  0  0  0  0  0  0  0  0  0
    6.2698  -21.2976   29.1095 C   0  0  0  0  0  0  0  0  0  0  0  0
    8.2454  -11.7421   18.6966 O   0  0  0  0  0  0  0  0  0  0  0  0
    7.9090  -12.5301   19.7793 C   0  0  0  0  0  0  0  0  0  0  0  0
    8.6031  -12.4534   20.9852 C   0  0  0  0  0  0  0  0  0  0  0  0
    8.2026  -13.2825   22.0324 C   0  0  0  0  0  0  0  0  0  0  0  0
    7.1684  -14.1566   21.9229 C   0  0  0  0  0  0  0  0  0  0  0  0
    6.7599  -15.0191   23.0282 C   0  0  0  0  0  0  0  0  0  0  0  0
    7.6149  -16.2391   23.2020 C   0  0  2  0  0  0  0  0  0  0  0  0
    7.1217  -17.1806   24.1484 N   0  0  0  0  0  0  0  0  0  0  0  0
    9.0305  -15.9019   23.4893 C   0  0  0  0  0  0  0  0  0  0  0  0
    9.3801  -15.1945   24.4664 O   0  0  0  0  0  0  0  0  0  0  0  0
    6.4796  -14.2314   20.7234 C   0  0  0  0  0  0  0  0  0  0  0  0
    6.8572  -13.4140   19.6567 C   0  0  0  0  0  0  0  0  0  0  0  0
   11.5536  -18.4735   22.6471 O   0  0  0  0  0  0  0  0  0  0  0  0
   12.0992  -17.3829   23.3526 C   0  0  0  0  0  0  0  0  0  0  0  0
   11.4489  -16.1198   22.7852 C   0  0  2  0  0  0  0  0  0  0  0  0
   10.0483  -16.3892   22.6362 N   0  0  0  0  0  0  0  0  0  0  0  0
   12.0477  -15.9069   21.4512 C   0  0  0  0  0  0  0  0  0  0  0  0
   11.2450  -16.0151   20.3295 O   0  0  0  0  0  0  0  0  0  0  0  0
   13.2732  -15.6313   21.3529 O   0  0  0  0  0  0  0  0  0  0  0  0
  2 12  2  0
  2  1  1  0
  3  2  1  0
  4  5  1  0
  4  3  2  0
  5 11  2  0
  6  7  1  0
  6  5  1  0
  7  8  1  6
  9  7  1  0
  9 20  1  0
 10  9  2  0
 11 12  1  0
 13 14  1  0
 14 15  2  0
 15 16  1  0
 17 18  1  0
 17 16  2  0
 19 18  1  1
 19 20  1  0
 19 21  1  0
 21 28  1  0
 22 21  2  0
 23 17  1  0
 24 23  2  0
 24 14  1  0
 25 26  1  0
 27 26  1  6
 27 29  1  0
 28 27  1  0
 29 31  2  0
 29 30  1  0
M  END
$$$$
