YYS.pdb
     RDKit          3D

 31 32  0  0  1  0  0  0  0  0999 V2000
   13.6863  -33.4273   26.0105 O   0  0  0  0  0  0  0  0  0  0  0  0
   13.3982  -32.0799   25.8295 C   0  0  0  0  0  0  0  0  0  0  0  0
   14.3779  -31.1108   25.8047 C   0  0  0  0  0  0  0  0  0  0  0  0
   14.0301  -29.7901   25.6214 C   0  0  0  0  0  0  0  0  0  0  0  0
   12.7154  -29.4370   25.4639 C   0  0  0  0  0  0  0  0  0  0  0  0
   12.3296  -28.0015   25.2638 C   0  0  0  0  0  0  0  0  0  0  0  0
   12.7021  -27.1850   26.4976 C   0  0  2  0  0  0  0  0  0  0  0  0
   11.8620  -27.5705   27.5936 N   0  0  0  0  0  0  0  0  0  0  0  0
   12.6843  -25.7415   26.2226 C   0  0  0  0  0  0  0  0  0  0  0  0
   11.5611  -25.1533   26.1520 O   0  0  0  0  0  0  0  0  0  0  0  0
   11.7429  -30.3972   25.4883 C   0  0  0  0  0  0  0  0  0  0  0  0
   12.0774  -31.7180   25.6704 C   0  0  0  0  0  0  0  0  0  0  0  0
   11.4190  -22.5801   31.5970 O   0  0  0  0  0  0  0  0  0  0  0  0
   12.1759  -22.6380   30.4437 C   0  0  0  0  0  0  0  0  0  0  0  0
   13.1841  -23.5852   30.2757 C   0  0  0  0  0  0  0  0  0  0  0  0
   13.9046  -23.5793   29.0818 C   0  0  0  0  0  0  0  0  0  0  0  0
   13.6629  -22.6913   28.0825 C   0  0  0  0  0  0  0  0  0  0  0  0
   14.4256  -22.6967   26.8372 C   0  0  0  0  0  0  0  0  0  0  0  0
   13.8258  -23.5443   25.7548 C   0  0  2  0  0  0  0  0  0  0  0  0
   13.8217  -24.9410   26.0273 N   0  0  0  0  0  0  0  0  0  0  0  0
   14.4258  -23.2728   24.4256 C   0  0  0  0  0  0  0  0  0  0  0  0
   15.2837  -24.0224   23.8968 O   0  0  0  0  0  0  0  0  0  0  0  0
   12.6603  -21.7505   28.2512 C   0  0  0  0  0  0  0  0  0  0  0  0
   11.9217  -21.7314   29.4356 C   0  0  0  0  0  0  0  0  0  0  0  0
   12.2335  -21.6212   21.5423 O   0  0  0  0  0  0  0  0  0  0  0  0
   13.3901  -20.8537   21.7837 C   0  0  0  0  0  0  0  0  0  0  0  0
   14.4369  -21.8041   22.3678 C   0  0  2  0  0  0  0  0  0  0  0  0
   14.0273  -22.1229   23.7046 N   0  0  0  0  0  0  0  0  0  0  0  0
   15.7053  -21.0476   22.4153 C   0  0  0  0  0  0  0  0  0  0  0  0
   16.4108  -20.8448   21.2425 O   0  0  0  0  0  0  0  0  0  0  0  0
   16.1254  -20.6000   23.5156 O   0  0  0  0  0  0  0  0  0  0  0  0
  2 12  2  0
  2  1  1  0
  3  2  1  0
  4  5  1  0
  4  3  2  0
  5 11  2  0
  6  7  1  0
  6  5  1  0
  7  8  1  1
  9  7  1  0
  9 20  1  0
 10  9  2  0
 11 12  1  0
 13 14  1  0
 14 15  2  0
 15 16  1  0
 17 18  1  0
 17 16  2  0
 19 18  1  1
 19 20  1  0
 19 21  1  0
 21 28  1  0
 22 21  2  0
 23 17  1  0
 24 23  2  0
 24 14  1  0
 25 26  1  0
 27 26  1  1
 27 29  1  0
 28 27  1  0
 29 31  2  0
 29 30  1  0
M  END
$$$$
