YYS.pdb
     RDKit          3D

 31 32  0  0  1  0  0  0  0  0999 V2000
   -0.3230  -20.8880   21.6987 O   0  0  0  0  0  0  0  0  0  0  0  0
    0.8992  -20.3038   22.0086 C   0  0  0  0  0  0  0  0  0  0  0  0
    1.1649  -18.9728   21.7687 C   0  0  0  0  0  0  0  0  0  0  0  0
    2.3968  -18.4504   22.0979 C   0  0  0  0  0  0  0  0  0  0  0  0
    3.3574  -19.2481   22.6623 C   0  0  0  0  0  0  0  0  0  0  0  0
    4.7003  -18.6861   23.0234 C   0  0  0  0  0  0  0  0  0  0  0  0
    5.4006  -18.1648   21.7722 C   0  0  2  0  0  0  0  0  0  0  0  0
    5.4862  -19.2173   20.8025 N   0  0  0  0  0  0  0  0  0  0  0  0
    6.6973  -17.5500   22.0886 C   0  0  0  0  0  0  0  0  0  0  0  0
    7.7446  -18.2606   21.9852 O   0  0  0  0  0  0  0  0  0  0  0  0
    3.0951  -20.5683   22.9008 C   0  0  0  0  0  0  0  0  0  0  0  0
    1.8701  -21.1010   22.5767 C   0  0  0  0  0  0  0  0  0  0  0  0
    8.0675  -12.4792   17.2472 O   0  0  0  0  0  0  0  0  0  0  0  0
    8.1265  -12.8739   18.5690 C   0  0  0  0  0  0  0  0  0  0  0  0
    9.3202  -12.8519   19.2878 C   0  0  0  0  0  0  0  0  0  0  0  0
    9.2980  -13.2661   20.6191 C   0  0  0  0  0  0  0  0  0  0  0  0
    8.1647  -13.6875   21.2383 C   0  0  0  0  0  0  0  0  0  0  0  0
    8.1562  -14.1186   22.6335 C   0  0  0  0  0  0  0  0  0  0  0  0
    8.1285  -15.6073   22.8150 C   0  0  2  0  0  0  0  0  0  0  0  0
    6.8829  -16.2209   22.5029 N   0  0  0  0  0  0  0  0  0  0  0  0
    8.5927  -16.0221   24.1613 C   0  0  0  0  0  0  0  0  0  0  0  0
    7.8096  -16.2244   25.1222 O   0  0  0  0  0  0  0  0  0  0  0  0
    6.9790  -13.7087   20.5224 C   0  0  0  0  0  0  0  0  0  0  0  0
    6.9696  -13.2999   19.1876 C   0  0  0  0  0  0  0  0  0  0  0  0
    9.4201  -19.0217   26.1126 O   0  0  0  0  0  0  0  0  0  0  0  0
   10.1367  -18.5047   25.0153 C   0  0  0  0  0  0  0  0  0  0  0  0
   10.5387  -17.0755   25.3842 C   0  0  2  0  0  0  0  0  0  0  0  0
    9.9761  -16.2035   24.3945 N   0  0  0  0  0  0  0  0  0  0  0  0
   12.0128  -17.0224   25.2976 C   0  0  0  0  0  0  0  0  0  0  0  0
   12.7620  -17.2726   26.4335 O   0  0  0  0  0  0  0  0  0  0  0  0
   12.5650  -16.7518   24.1979 O   0  0  0  0  0  0  0  0  0  0  0  0
  2 12  2  0
  2  1  1  0
  3  2  1  0
  4  5  1  0
  4  3  2  0
  5 11  2  0
  6  7  1  0
  6  5  1  0
  7  8  1  6
  9  7  1  0
  9 20  1  0
 10  9  2  0
 11 12  1  0
 13 14  1  0
 14 15  2  0
 15 16  1  0
 17 18  1  0
 17 16  2  0
 19 18  1  1
 19 20  1  0
 19 21  1  0
 21 28  1  0
 22 21  2  0
 23 17  1  0
 24 23  2  0
 24 14  1  0
 25 26  1  0
 27 26  1  6
 27 29  1  0
 28 27  1  0
 29 31  2  0
 29 30  1  0
M  END
$$$$
