YYS.pdb
     RDKit          3D

 31 32  0  0  1  0  0  0  0  0999 V2000
    0.7597  -19.8597   19.8226 O   0  0  0  0  0  0  0  0  0  0  0  0
    2.0078  -19.5970   20.3743 C   0  0  0  0  0  0  0  0  0  0  0  0
    3.1781  -20.0547   19.8081 C   0  0  0  0  0  0  0  0  0  0  0  0
    4.3865  -19.7614   20.4019 C   0  0  0  0  0  0  0  0  0  0  0  0
    4.4290  -19.0173   21.5519 C   0  0  0  0  0  0  0  0  0  0  0  0
    5.7407  -18.6942   22.2034 C   0  0  0  0  0  0  0  0  0  0  0  0
    6.2981  -17.3925   21.6356 C   0  0  2  0  0  0  0  0  0  0  0  0
    6.6889  -17.5983   20.2716 N   0  0  0  0  0  0  0  0  0  0  0  0
    7.3700  -16.8443   22.4780 C   0  0  0  0  0  0  0  0  0  0  0  0
    8.5715  -17.1496   22.2025 O   0  0  0  0  0  0  0  0  0  0  0  0
    3.2691  -18.5628   22.1144 C   0  0  0  0  0  0  0  0  0  0  0  0
    2.0575  -18.8488   21.5313 C   0  0  0  0  0  0  0  0  0  0  0  0
   11.3106  -13.9773   29.8625 O   0  0  0  0  0  0  0  0  0  0  0  0
   10.4050  -14.1807   28.8404 C   0  0  0  0  0  0  0  0  0  0  0  0
    9.3664  -15.1028   28.9541 C   0  0  0  0  0  0  0  0  0  0  0  0
    8.4926  -15.2506   27.8775 C   0  0  0  0  0  0  0  0  0  0  0  0
    8.6141  -14.5347   26.7293 C   0  0  0  0  0  0  0  0  0  0  0  0
    7.6915  -14.7000   25.6096 C   0  0  0  0  0  0  0  0  0  0  0  0
    8.1404  -15.7026   24.5883 C   0  0  2  0  0  0  0  0  0  0  0  0
    7.1785  -15.9968   23.5815 N   0  0  0  0  0  0  0  0  0  0  0  0
    8.6485  -16.9515   25.2065 C   0  0  0  0  0  0  0  0  0  0  0  0
    7.9010  -17.7883   25.7708 O   0  0  0  0  0  0  0  0  0  0  0  0
    9.6470  -13.6185   26.6180 C   0  0  0  0  0  0  0  0  0  0  0  0
   10.5380  -13.4482   27.6791 C   0  0  0  0  0  0  0  0  0  0  0  0
   12.0066  -18.0294   23.7770 O   0  0  0  0  0  0  0  0  0  0  0  0
   11.3966  -19.0754   24.4972 C   0  0  0  0  0  0  0  0  0  0  0  0
   10.6478  -18.4297   25.6645 C   0  0  2  0  0  0  0  0  0  0  0  0
   10.0346  -17.2316   25.1697 N   0  0  0  0  0  0  0  0  0  0  0  0
   11.6711  -18.0732   26.6691 C   0  0  0  0  0  0  0  0  0  0  0  0
   12.3632  -19.0846   27.3111 O   0  0  0  0  0  0  0  0  0  0  0  0
   11.8987  -16.8610   26.9265 O   0  0  0  0  0  0  0  0  0  0  0  0
  2 12  2  0
  2  1  1  0
  3  2  1  0
  4  5  1  0
  4  3  2  0
  5 11  2  0
  6  7  1  0
  6  5  1  0
  7  8  1  6
  9  7  1  0
  9 20  1  0
 10  9  2  0
 11 12  1  0
 13 14  1  0
 14 15  2  0
 15 16  1  0
 17 18  1  0
 17 16  2  0
 19 18  1  1
 19 20  1  0
 19 21  1  0
 21 28  1  0
 22 21  2  0
 23 17  1  0
 24 23  2  0
 24 14  1  0
 25 26  1  0
 27 26  1  6
 27 29  1  0
 28 27  1  0
 29 31  2  0
 29 30  1  0
M  END
$$$$
