YYS.pdb
     RDKit          3D

 31 32  0  0  1  0  0  0  0  0999 V2000
    7.4225  -18.9034   27.7301 O   0  0  0  0  0  0  0  0  0  0  0  0
    7.3432  -19.1360   26.3624 C   0  0  0  0  0  0  0  0  0  0  0  0
    6.3800  -18.5529   25.5675 C   0  0  0  0  0  0  0  0  0  0  0  0
    6.3523  -18.8223   24.2163 C   0  0  0  0  0  0  0  0  0  0  0  0
    7.2776  -19.6667   23.6608 C   0  0  0  0  0  0  0  0  0  0  0  0
    7.2534  -19.9642   22.1909 C   0  0  0  0  0  0  0  0  0  0  0  0
    7.2361  -18.6623   21.3958 C   0  0  2  0  0  0  0  0  0  0  0  0
    7.0957  -18.9598   20.0004 N   0  0  0  0  0  0  0  0  0  0  0  0
    8.4001  -17.8196   21.7031 C   0  0  0  0  0  0  0  0  0  0  0  0
    9.5157  -18.1128   21.1721 O   0  0  0  0  0  0  0  0  0  0  0  0
    8.2333  -20.2456   24.4481 C   0  0  0  0  0  0  0  0  0  0  0  0
    8.2712  -19.9846   25.7971 C   0  0  0  0  0  0  0  0  0  0  0  0
    6.6632  -13.1947   17.4419 O   0  0  0  0  0  0  0  0  0  0  0  0
    7.2528  -13.4603   18.6618 C   0  0  0  0  0  0  0  0  0  0  0  0
    8.6367  -13.4485   18.8248 C   0  0  0  0  0  0  0  0  0  0  0  0
    9.1559  -13.7270   20.0887 C   0  0  0  0  0  0  0  0  0  0  0  0
    8.3695  -14.0077   21.1602 C   0  0  0  0  0  0  0  0  0  0  0  0
    8.9272  -14.2977   22.4783 C   0  0  0  0  0  0  0  0  0  0  0  0
    9.4058  -15.7095   22.6443 C   0  0  2  0  0  0  0  0  0  0  0  0
    8.3864  -16.6978   22.5481 N   0  0  0  0  0  0  0  0  0  0  0  0
   10.1993  -15.8960   23.8836 C   0  0  0  0  0  0  0  0  0  0  0  0
   11.1007  -15.0995   24.2447 O   0  0  0  0  0  0  0  0  0  0  0  0
    6.9941  -14.0190   20.9963 C   0  0  0  0  0  0  0  0  0  0  0  0
    6.4445  -13.7440   19.7429 C   0  0  0  0  0  0  0  0  0  0  0  0
    8.7401  -17.3383   26.9173 O   0  0  0  0  0  0  0  0  0  0  0  0
    9.9057  -18.1243   26.8258 C   0  0  0  0  0  0  0  0  0  0  0  0
   10.7979  -17.4699   25.7695 C   0  0  2  0  0  0  0  0  0  0  0  0
    9.9448  -17.0154   24.7102 N   0  0  0  0  0  0  0  0  0  0  0  0
   11.6850  -18.5345   25.2565 C   0  0  0  0  0  0  0  0  0  0  0  0
   11.5150  -18.9833   23.9588 O   0  0  0  0  0  0  0  0  0  0  0  0
   12.5787  -19.0168   26.0022 O   0  0  0  0  0  0  0  0  0  0  0  0
  2 12  2  0
  2  1  1  0
  3  2  1  0
  4  5  1  0
  4  3  2  0
  5 11  2  0
  6  7  1  0
  6  5  1  0
  7  8  1  6
  9  7  1  0
  9 20  1  0
 10  9  2  0
 11 12  1  0
 13 14  1  0
 14 15  2  0
 15 16  1  0
 17 18  1  0
 17 16  2  0
 19 18  1  1
 19 20  1  0
 19 21  1  0
 21 28  1  0
 22 21  2  0
 23 17  1  0
 24 23  2  0
 24 14  1  0
 25 26  1  0
 27 26  1  1
 27 29  1  0
 28 27  1  0
 29 31  2  0
 29 30  1  0
M  END
$$$$
