YYS.pdb
     RDKit          3D

 31 32  0  0  1  0  0  0  0  0999 V2000
    7.9180  -13.0717   22.2609 O   0  0  0  0  0  0  0  0  0  0  0  0
    8.1003  -13.4624   20.9399 C   0  0  0  0  0  0  0  0  0  0  0  0
    8.2758  -12.5548   19.9176 C   0  0  0  0  0  0  0  0  0  0  0  0
    8.4521  -13.0033   18.6265 C   0  0  0  0  0  0  0  0  0  0  0  0
    8.4536  -14.3466   18.3557 C   0  0  0  0  0  0  0  0  0  0  0  0
    8.6452  -14.8418   16.9529 C   0  0  0  0  0  0  0  0  0  0  0  0
   10.1224  -14.7820   16.5763 C   0  0  2  0  0  0  0  0  0  0  0  0
   10.2957  -15.2994   15.2504 N   0  0  0  0  0  0  0  0  0  0  0  0
   10.9687  -15.4418   17.5801 C   0  0  0  0  0  0  0  0  0  0  0  0
   11.0697  -16.7073   17.5483 O   0  0  0  0  0  0  0  0  0  0  0  0
    8.2797  -15.2477   19.3687 C   0  0  0  0  0  0  0  0  0  0  0  0
    8.1029  -14.8126   20.6605 C   0  0  0  0  0  0  0  0  0  0  0  0
   17.6219  -14.9873   15.5697 O   0  0  0  0  0  0  0  0  0  0  0  0
   16.7003  -14.9372   16.5966 C   0  0  0  0  0  0  0  0  0  0  0  0
   16.2592  -16.0907   17.2423 C   0  0  0  0  0  0  0  0  0  0  0  0
   15.3267  -15.9573   18.2704 C   0  0  0  0  0  0  0  0  0  0  0  0
   14.8348  -14.7538   18.6642 C   0  0  0  0  0  0  0  0  0  0  0  0
   13.8582  -14.6291   19.7427 C   0  0  0  0  0  0  0  0  0  0  0  0
   12.5877  -15.3918   19.5105 C   0  0  2  0  0  0  0  0  0  0  0  0
   11.6889  -14.7832   18.5902 N   0  0  0  0  0  0  0  0  0  0  0  0
   11.8911  -15.7295   20.7758 C   0  0  0  0  0  0  0  0  0  0  0  0
   11.4257  -14.8597   21.5532 O   0  0  0  0  0  0  0  0  0  0  0  0
   15.2742  -13.6083   18.0212 C   0  0  0  0  0  0  0  0  0  0  0  0
   16.2075  -13.7098   16.9881 C   0  0  0  0  0  0  0  0  0  0  0  0
   11.4690  -19.5950   21.2488 O   0  0  0  0  0  0  0  0  0  0  0  0
   10.6155  -18.9380   22.1569 C   0  0  0  0  0  0  0  0  0  0  0  0
   11.2088  -17.5480   22.3942 C   0  0  2  0  0  0  0  0  0  0  0  0
   11.7332  -17.0868   21.1418 N   0  0  0  0  0  0  0  0  0  0  0  0
   12.3209  -17.7280   23.3504 C   0  0  0  0  0  0  0  0  0  0  0  0
   12.0431  -18.1893   24.6248 O   0  0  0  0  0  0  0  0  0  0  0  0
   13.4999  -17.4609   22.9953 O   0  0  0  0  0  0  0  0  0  0  0  0
  2 12  2  0
  2  1  1  0
  3  2  1  0
  4  5  1  0
  4  3  2  0
  5 11  2  0
  6  7  1  0
  6  5  1  0
  7  8  1  6
  9  7  1  0
  9 20  1  0
 10  9  2  0
 11 12  1  0
 13 14  1  0
 14 15  2  0
 15 16  1  0
 17 18  1  0
 17 16  2  0
 19 18  1  1
 19 20  1  0
 19 21  1  0
 21 28  1  0
 22 21  2  0
 23 17  1  0
 24 23  2  0
 24 14  1  0
 25 26  1  0
 27 26  1  6
 27 29  1  0
 28 27  1  0
 29 31  2  0
 29 30  1  0
M  END
$$$$
