YYS.pdb
     RDKit          3D

 31 32  0  0  1  0  0  0  0  0999 V2000
    7.6715  -13.9651   15.9891 O   0  0  0  0  0  0  0  0  0  0  0  0
    8.0534  -13.9879   17.3250 C   0  0  0  0  0  0  0  0  0  0  0  0
    9.1175  -14.7380   17.7775 C   0  0  0  0  0  0  0  0  0  0  0  0
    9.4483  -14.7199   19.1151 C   0  0  0  0  0  0  0  0  0  0  0  0
    8.7242  -13.9600   19.9960 C   0  0  0  0  0  0  0  0  0  0  0  0
    9.0788  -13.9354   21.4531 C   0  0  0  0  0  0  0  0  0  0  0  0
    9.2912  -15.3580   21.9618 C   0  0  2  0  0  0  0  0  0  0  0  0
    8.2351  -16.1981   21.4777 N   0  0  0  0  0  0  0  0  0  0  0  0
    9.4513  -15.3973   23.4220 C   0  0  0  0  0  0  0  0  0  0  0  0
   10.3984  -14.7319   23.9445 O   0  0  0  0  0  0  0  0  0  0  0  0
    7.6687  -13.2157   19.5485 C   0  0  0  0  0  0  0  0  0  0  0  0
    7.3289  -13.2254   18.2166 C   0  0  0  0  0  0  0  0  0  0  0  0
    6.5739  -10.3122   27.0395 O   0  0  0  0  0  0  0  0  0  0  0  0
    6.7631  -11.6719   26.8917 C   0  0  0  0  0  0  0  0  0  0  0  0
    5.7134  -12.5260   26.5596 C   0  0  0  0  0  0  0  0  0  0  0  0
    5.9849  -13.8874   26.4286 C   0  0  0  0  0  0  0  0  0  0  0  0
    7.2257  -14.4098   26.6110 C   0  0  0  0  0  0  0  0  0  0  0  0
    7.4956  -15.8380   26.4705 C   0  0  0  0  0  0  0  0  0  0  0  0
    8.7577  -16.1528   25.7238 C   0  0  2  0  0  0  0  0  0  0  0  0
    8.6337  -16.1196   24.3064 N   0  0  0  0  0  0  0  0  0  0  0  0
    9.3732  -17.4283   26.1648 C   0  0  0  0  0  0  0  0  0  0  0  0
    9.5892  -17.7018   27.3715 O   0  0  0  0  0  0  0  0  0  0  0  0
    8.2680  -13.5593   26.9411 C   0  0  0  0  0  0  0  0  0  0  0  0
    8.0271  -12.1912   27.0794 C   0  0  0  0  0  0  0  0  0  0  0  0
   10.9830  -19.6360   23.2292 O   0  0  0  0  0  0  0  0  0  0  0  0
   10.3532  -20.4651   24.1783 C   0  0  0  0  0  0  0  0  0  0  0  0
   10.3063  -19.6789   25.4897 C   0  0  2  0  0  0  0  0  0  0  0  0
    9.7407  -18.3937   25.1984 N   0  0  0  0  0  0  0  0  0  0  0  0
   11.7087  -19.5064   25.9218 C   0  0  0  0  0  0  0  0  0  0  0  0
   12.2925  -18.2557   25.8249 O   0  0  0  0  0  0  0  0  0  0  0  0
   12.3507  -20.4935   26.3699 O   0  0  0  0  0  0  0  0  0  0  0  0
  2 12  2  0
  2  1  1  0
  3  2  1  0
  4  5  1  0
  4  3  2  0
  5 11  2  0
  6  7  1  0
  6  5  1  0
  7  8  1  1
  9  7  1  0
  9 20  1  0
 10  9  2  0
 11 12  1  0
 13 14  1  0
 14 15  2  0
 15 16  1  0
 17 18  1  0
 17 16  2  0
 19 18  1  1
 19 20  1  0
 19 21  1  0
 21 28  1  0
 22 21  2  0
 23 17  1  0
 24 23  2  0
 24 14  1  0
 25 26  1  0
 27 26  1  6
 27 29  1  0
 28 27  1  0
 29 31  2  0
 29 30  1  0
M  END
$$$$
