YYS.pdb
     RDKit          3D

 31 32  0  0  1  0  0  0  0  0999 V2000
    4.0814  -18.9838   16.5803 O   0  0  0  0  0  0  0  0  0  0  0  0
    5.0318  -18.5486   17.4959 C   0  0  0  0  0  0  0  0  0  0  0  0
    4.9736  -18.8744   18.8339 C   0  0  0  0  0  0  0  0  0  0  0  0
    5.9462  -18.4125   19.6940 C   0  0  0  0  0  0  0  0  0  0  0  0
    6.9698  -17.6316   19.2246 C   0  0  0  0  0  0  0  0  0  0  0  0
    8.0318  -17.1257   20.1550 C   0  0  0  0  0  0  0  0  0  0  0  0
    7.4829  -15.9785   20.9978 C   0  0  2  0  0  0  0  0  0  0  0  0
    7.1867  -14.8634   20.1467 N   0  0  0  0  0  0  0  0  0  0  0  0
    8.3782  -15.6444   22.1142 C   0  0  0  0  0  0  0  0  0  0  0  0
    9.3943  -14.9202   21.8784 O   0  0  0  0  0  0  0  0  0  0  0  0
    7.0286  -17.3079   17.8979 C   0  0  0  0  0  0  0  0  0  0  0  0
    6.0644  -17.7626   17.0301 C   0  0  0  0  0  0  0  0  0  0  0  0
    5.9442  -10.6004   26.4394 O   0  0  0  0  0  0  0  0  0  0  0  0
    6.5911  -11.8119   26.2978 C   0  0  0  0  0  0  0  0  0  0  0  0
    7.9814  -11.9058   26.3077 C   0  0  0  0  0  0  0  0  0  0  0  0
    8.5601  -13.1657   26.1590 C   0  0  0  0  0  0  0  0  0  0  0  0
    7.8253  -14.2980   26.0057 C   0  0  0  0  0  0  0  0  0  0  0  0
    8.4450  -15.6112   25.8508 C   0  0  0  0  0  0  0  0  0  0  0  0
    9.1041  -15.8249   24.5205 C   0  0  2  0  0  0  0  0  0  0  0  0
    8.2052  -16.0638   23.4434 N   0  0  0  0  0  0  0  0  0  0  0  0
   10.1512  -16.8744   24.5699 C   0  0  0  0  0  0  0  0  0  0  0  0
    9.8877  -18.1007   24.6330 O   0  0  0  0  0  0  0  0  0  0  0  0
    6.4434  -14.2028   25.9960 C   0  0  0  0  0  0  0  0  0  0  0  0
    5.8349  -12.9551   26.1428 C   0  0  0  0  0  0  0  0  0  0  0  0
   14.9558  -17.4977   24.1792 O   0  0  0  0  0  0  0  0  0  0  0  0
   13.8728  -16.5966   24.1770 C   0  0  0  0  0  0  0  0  0  0  0  0
   12.6217  -17.4088   24.5167 C   0  0  2  0  0  0  0  0  0  0  0  0
   11.5146  -16.4979   24.5458 N   0  0  0  0  0  0  0  0  0  0  0  0
   12.8366  -17.9566   25.8721 C   0  0  0  0  0  0  0  0  0  0  0  0
   13.7274  -19.0016   26.0410 O   0  0  0  0  0  0  0  0  0  0  0  0
   12.2101  -17.4683   26.8501 O   0  0  0  0  0  0  0  0  0  0  0  0
  2 12  2  0
  2  1  1  0
  3  2  1  0
  4  5  1  0
  4  3  2  0
  5 11  2  0
  6  7  1  0
  6  5  1  0
  7  8  1  6
  9  7  1  0
  9 20  1  0
 10  9  2  0
 11 12  1  0
 13 14  1  0
 14 15  2  0
 15 16  1  0
 17 18  1  0
 17 16  2  0
 19 18  1  1
 19 20  1  0
 19 21  1  0
 21 28  1  0
 22 21  2  0
 23 17  1  0
 24 23  2  0
 24 14  1  0
 25 26  1  0
 27 26  1  1
 27 29  1  0
 28 27  1  0
 29 31  2  0
 29 30  1  0
M  END
$$$$
