YYS.pdb
     RDKit          3D

 31 32  0  0  1  0  0  0  0  0999 V2000
    6.3150  -13.2865   16.0200 O   0  0  0  0  0  0  0  0  0  0  0  0
    6.8289  -13.8577   17.1778 C   0  0  0  0  0  0  0  0  0  0  0  0
    6.2443  -14.9465   17.7880 C   0  0  0  0  0  0  0  0  0  0  0  0
    6.8007  -15.4691   18.9353 C   0  0  0  0  0  0  0  0  0  0  0  0
    7.9317  -14.9110   19.4712 C   0  0  0  0  0  0  0  0  0  0  0  0
    8.5427  -15.4747   20.7195 C   0  0  0  0  0  0  0  0  0  0  0  0
    9.6983  -14.5910   21.1791 C   0  0  2  0  0  0  0  0  0  0  0  0
   10.7508  -14.6417   20.2068 N   0  0  0  0  0  0  0  0  0  0  0  0
   10.1378  -14.9308   22.5395 C   0  0  0  0  0  0  0  0  0  0  0  0
   11.1999  -15.6127   22.6791 O   0  0  0  0  0  0  0  0  0  0  0  0
    8.5124  -13.8311   18.8670 C   0  0  0  0  0  0  0  0  0  0  0  0
    7.9667  -13.3009   17.7222 C   0  0  0  0  0  0  0  0  0  0  0  0
   10.5807  -15.7756   31.3398 O   0  0  0  0  0  0  0  0  0  0  0  0
   10.2013  -15.4205   30.0606 C   0  0  0  0  0  0  0  0  0  0  0  0
    9.2811  -16.1732   29.3336 C   0  0  0  0  0  0  0  0  0  0  0  0
    8.9491  -15.7490   28.0474 C   0  0  0  0  0  0  0  0  0  0  0  0
    9.4848  -14.6372   27.4795 C   0  0  0  0  0  0  0  0  0  0  0  0
    9.1278  -14.2048   26.1312 C   0  0  0  0  0  0  0  0  0  0  0  0
    9.8265  -14.9604   25.0400 C   0  0  2  0  0  0  0  0  0  0  0  0
    9.4737  -14.5607   23.7205 N   0  0  0  0  0  0  0  0  0  0  0  0
    9.6935  -16.4296   25.1942 C   0  0  0  0  0  0  0  0  0  0  0  0
    8.5994  -17.0338   25.0702 O   0  0  0  0  0  0  0  0  0  0  0  0
   10.3993  -13.8902   28.2036 C   0  0  0  0  0  0  0  0  0  0  0  0
   10.7516  -14.2897   29.4940 C   0  0  0  0  0  0  0  0  0  0  0  0
   12.8564  -18.4404   24.5011 O   0  0  0  0  0  0  0  0  0  0  0  0
   11.7118  -19.2519   24.6289 C   0  0  0  0  0  0  0  0  0  0  0  0
   10.8419  -18.6204   25.7174 C   0  0  2  0  0  0  0  0  0  0  0  0
   10.8387  -17.2037   25.4947 N   0  0  0  0  0  0  0  0  0  0  0  0
   11.5099  -18.9089   27.0034 C   0  0  0  0  0  0  0  0  0  0  0  0
   11.6578  -20.2252   27.4032 O   0  0  0  0  0  0  0  0  0  0  0  0
   11.9334  -17.9591   27.7148 O   0  0  0  0  0  0  0  0  0  0  0  0
  2 12  2  0
  2  1  1  0
  3  2  1  0
  4  5  1  0
  4  3  2  0
  5 11  2  0
  6  7  1  0
  6  5  1  0
  7  8  1  6
  9  7  1  0
  9 20  1  0
 10  9  2  0
 11 12  1  0
 13 14  1  0
 14 15  2  0
 15 16  1  0
 17 18  1  0
 17 16  2  0
 19 18  1  1
 19 20  1  0
 19 21  1  0
 21 28  1  0
 22 21  2  0
 23 17  1  0
 24 23  2  0
 24 14  1  0
 25 26  1  0
 27 26  1  6
 27 29  1  0
 28 27  1  0
 29 31  2  0
 29 30  1  0
M  END
$$$$
