YYS.pdb
     RDKit          3D

 31 32  0  0  1  0  0  0  0  0999 V2000
    6.1045  -13.1486   14.7382 O   0  0  0  0  0  0  0  0  0  0  0  0
    6.9291  -13.8206   15.6324 C   0  0  0  0  0  0  0  0  0  0  0  0
    7.1442  -15.1801   15.5619 C   0  0  0  0  0  0  0  0  0  0  0  0
    7.9734  -15.7905   16.4778 C   0  0  0  0  0  0  0  0  0  0  0  0
    8.5841  -15.0518   17.4571 C   0  0  0  0  0  0  0  0  0  0  0  0
    9.4880  -15.7096   18.4571 C   0  0  0  0  0  0  0  0  0  0  0  0
   10.9356  -15.3043   18.1969 C   0  0  2  0  0  0  0  0  0  0  0  0
   11.2993  -15.6739   16.8603 N   0  0  0  0  0  0  0  0  0  0  0  0
   11.8441  -15.8366   19.2219 C   0  0  0  0  0  0  0  0  0  0  0  0
   12.3600  -16.9821   19.0365 O   0  0  0  0  0  0  0  0  0  0  0  0
    8.3716  -13.7034   17.5280 C   0  0  0  0  0  0  0  0  0  0  0  0
    7.5467  -13.0831   16.6202 C   0  0  0  0  0  0  0  0  0  0  0  0
   17.8437  -14.1391   17.2768 O   0  0  0  0  0  0  0  0  0  0  0  0
   16.9497  -14.2430   18.3238 C   0  0  0  0  0  0  0  0  0  0  0  0
   15.7994  -13.4588   18.3858 C   0  0  0  0  0  0  0  0  0  0  0  0
   14.9456  -13.6225   19.4760 C   0  0  0  0  0  0  0  0  0  0  0  0
   15.1905  -14.5114   20.4737 C   0  0  0  0  0  0  0  0  0  0  0  0
   14.2872  -14.6722   21.6098 C   0  0  0  0  0  0  0  0  0  0  0  0
   13.1557  -15.6254   21.3632 C   0  0  2  0  0  0  0  0  0  0  0  0
   12.1982  -15.1774   20.4104 N   0  0  0  0  0  0  0  0  0  0  0  0
   12.4866  -16.0463   22.6184 C   0  0  0  0  0  0  0  0  0  0  0  0
   11.9516  -15.2344   23.4134 O   0  0  0  0  0  0  0  0  0  0  0  0
   16.3343  -15.2901   20.4105 C   0  0  0  0  0  0  0  0  0  0  0  0
   17.2084  -15.1489   19.3313 C   0  0  0  0  0  0  0  0  0  0  0  0
   12.1485  -19.9414   22.8787 O   0  0  0  0  0  0  0  0  0  0  0  0
   11.2095  -19.3181   23.7242 C   0  0  0  0  0  0  0  0  0  0  0  0
   11.8004  -17.9630   24.1175 C   0  0  2  0  0  0  0  0  0  0  0  0
   12.4379  -17.4198   22.9535 N   0  0  0  0  0  0  0  0  0  0  0  0
   12.8228  -18.2381   25.1481 C   0  0  0  0  0  0  0  0  0  0  0  0
   12.4195  -18.7029   26.3873 O   0  0  0  0  0  0  0  0  0  0  0  0
   14.0406  -18.0473   24.8872 O   0  0  0  0  0  0  0  0  0  0  0  0
  2 12  2  0
  2  1  1  0
  3  2  1  0
  4  5  1  0
  4  3  2  0
  5 11  2  0
  6  7  1  0
  6  5  1  0
  7  8  1  6
  9  7  1  0
  9 20  1  0
 10  9  2  0
 11 12  1  0
 13 14  1  0
 14 15  2  0
 15 16  1  0
 17 18  1  0
 17 16  2  0
 19 18  1  1
 19 20  1  0
 19 21  1  0
 21 28  1  0
 22 21  2  0
 23 17  1  0
 24 23  2  0
 24 14  1  0
 25 26  1  0
 27 26  1  6
 27 29  1  0
 28 27  1  0
 29 31  2  0
 29 30  1  0
M  END
$$$$
