YYS.pdb
     RDKit          3D

 31 32  0  0  1  0  0  0  0  0999 V2000
    7.1934  -12.1505   27.1691 O   0  0  0  0  0  0  0  0  0  0  0  0
    7.2501  -12.6660   25.8799 C   0  0  0  0  0  0  0  0  0  0  0  0
    6.5833  -13.8150   25.5127 C   0  0  0  0  0  0  0  0  0  0  0  0
    6.6780  -14.2775   24.2180 C   0  0  0  0  0  0  0  0  0  0  0  0
    7.4316  -13.6002   23.2955 C   0  0  0  0  0  0  0  0  0  0  0  0
    7.5388  -14.0977   21.8846 C   0  0  0  0  0  0  0  0  0  0  0  0
    7.8761  -15.5856   21.8809 C   0  0  2  0  0  0  0  0  0  0  0  0
    6.7801  -16.3224   22.4390 N   0  0  0  0  0  0  0  0  0  0  0  0
    9.1619  -15.8555   22.5393 C   0  0  0  0  0  0  0  0  0  0  0  0
   10.1974  -15.2577   22.1114 O   0  0  0  0  0  0  0  0  0  0  0  0
    8.0933  -12.4606   23.6584 C   0  0  0  0  0  0  0  0  0  0  0  0
    8.0067  -11.9893   24.9468 C   0  0  0  0  0  0  0  0  0  0  0  0
    9.4790  -13.3955   29.3101 O   0  0  0  0  0  0  0  0  0  0  0  0
    9.7658  -14.3910   28.3973 C   0  0  0  0  0  0  0  0  0  0  0  0
   10.8939  -14.3341   27.5812 C   0  0  0  0  0  0  0  0  0  0  0  0
   11.1144  -15.3788   26.6844 C   0  0  0  0  0  0  0  0  0  0  0  0
   10.2772  -16.4432   26.5763 C   0  0  0  0  0  0  0  0  0  0  0  0
   10.5207  -17.5304   25.6323 C   0  0  0  0  0  0  0  0  0  0  0  0
   10.5980  -17.0925   24.1998 C   0  0  2  0  0  0  0  0  0  0  0  0
    9.3491  -16.7326   23.6201 N   0  0  0  0  0  0  0  0  0  0  0  0
   11.3071  -18.0757   23.3450 C   0  0  0  0  0  0  0  0  0  0  0  0
   10.8564  -19.2232   23.1047 O   0  0  0  0  0  0  0  0  0  0  0  0
    9.1563  -16.4981   27.3884 C   0  0  0  0  0  0  0  0  0  0  0  0
    8.9087  -15.4670   28.2963 C   0  0  0  0  0  0  0  0  0  0  0  0
   14.6472  -16.6263   21.6919 O   0  0  0  0  0  0  0  0  0  0  0  0
   14.0756  -17.6634   20.9286 C   0  0  0  0  0  0  0  0  0  0  0  0
   13.3266  -18.5704   21.9066 C   0  0  2  0  0  0  0  0  0  0  0  0
   12.5485  -17.7249   22.7646 N   0  0  0  0  0  0  0  0  0  0  0  0
   14.3586  -19.2595   22.7088 C   0  0  0  0  0  0  0  0  0  0  0  0
   14.4713  -18.9634   24.0556 O   0  0  0  0  0  0  0  0  0  0  0  0
   15.1176  -20.1021   22.1599 O   0  0  0  0  0  0  0  0  0  0  0  0
  2 12  2  0
  2  1  1  0
  3  2  1  0
  4  5  1  0
  4  3  2  0
  5 11  2  0
  6  7  1  0
  6  5  1  0
  7  8  1  1
  9  7  1  0
  9 20  1  0
 10  9  2  0
 11 12  1  0
 13 14  1  0
 14 15  2  0
 15 16  1  0
 17 18  1  0
 17 16  2  0
 19 18  1  1
 19 20  1  0
 19 21  1  0
 21 28  1  0
 22 21  2  0
 23 17  1  0
 24 23  2  0
 24 14  1  0
 25 26  1  0
 27 26  1  6
 27 29  1  0
 28 27  1  0
 29 31  2  0
 29 30  1  0
M  END
$$$$
