YYS.pdb
     RDKit          3D

 31 32  0  0  1  0  0  0  0  0999 V2000
    7.8743  -13.5393   16.0458 O   0  0  0  0  0  0  0  0  0  0  0  0
    8.1251  -13.6228   17.4100 C   0  0  0  0  0  0  0  0  0  0  0  0
    9.4024  -13.6489   17.9271 C   0  0  0  0  0  0  0  0  0  0  0  0
    9.5878  -13.7326   19.2900 C   0  0  0  0  0  0  0  0  0  0  0  0
    8.5082  -13.7899   20.1322 C   0  0  0  0  0  0  0  0  0  0  0  0
    8.7026  -13.8809   21.6166 C   0  0  0  0  0  0  0  0  0  0  0  0
    9.0308  -15.3173   22.0121 C   0  0  2  0  0  0  0  0  0  0  0  0
    8.0266  -16.1957   21.4873 N   0  0  0  0  0  0  0  0  0  0  0  0
    9.2307  -15.4522   23.4617 C   0  0  0  0  0  0  0  0  0  0  0  0
   10.1782  -14.8038   24.0043 O   0  0  0  0  0  0  0  0  0  0  0  0
    7.2410  -13.7640   19.6205 C   0  0  0  0  0  0  0  0  0  0  0  0
    7.0432  -13.6807   18.2628 C   0  0  0  0  0  0  0  0  0  0  0  0
    6.2337  -10.5312   26.4123 O   0  0  0  0  0  0  0  0  0  0  0  0
    6.5701  -11.8691   26.4688 C   0  0  0  0  0  0  0  0  0  0  0  0
    7.7304  -12.3068   27.1043 C   0  0  0  0  0  0  0  0  0  0  0  0
    8.0005  -13.6748   27.1188 C   0  0  0  0  0  0  0  0  0  0  0  0
    7.1810  -14.5913   26.5408 C   0  0  0  0  0  0  0  0  0  0  0  0
    7.4766  -16.0213   26.5636 C   0  0  0  0  0  0  0  0  0  0  0  0
    8.6474  -16.4189   25.7145 C   0  0  2  0  0  0  0  0  0  0  0  0
    8.4512  -16.2501   24.3151 N   0  0  0  0  0  0  0  0  0  0  0  0
    9.1233  -17.7915   26.0138 C   0  0  0  0  0  0  0  0  0  0  0  0
    8.3796  -18.8018   25.9512 O   0  0  0  0  0  0  0  0  0  0  0  0
    6.0280  -14.1545   25.9095 C   0  0  0  0  0  0  0  0  0  0  0  0
    5.7307  -12.7909   25.8786 C   0  0  0  0  0  0  0  0  0  0  0  0
   12.6338  -19.0143   25.1726 O   0  0  0  0  0  0  0  0  0  0  0  0
   12.5132  -19.2230   26.5607 C   0  0  0  0  0  0  0  0  0  0  0  0
   11.0168  -19.2263   26.8784 C   0  0  2  0  0  0  0  0  0  0  0  0
   10.4723  -17.9935   26.3885 N   0  0  0  0  0  0  0  0  0  0  0  0
   10.9043  -19.2562   28.3515 C   0  0  0  0  0  0  0  0  0  0  0  0
   11.3451  -20.3746   29.0364 O   0  0  0  0  0  0  0  0  0  0  0  0
   10.4118  -18.2695   28.9609 O   0  0  0  0  0  0  0  0  0  0  0  0
  2 12  2  0
  2  1  1  0
  3  2  1  0
  4  5  1  0
  4  3  2  0
  5 11  2  0
  6  7  1  0
  6  5  1  0
  7  8  1  1
  9  7  1  0
  9 20  1  0
 10  9  2  0
 11 12  1  0
 13 14  1  0
 14 15  2  0
 15 16  1  0
 17 18  1  0
 17 16  2  0
 19 18  1  1
 19 20  1  0
 19 21  1  0
 21 28  1  0
 22 21  2  0
 23 17  1  0
 24 23  2  0
 24 14  1  0
 25 26  1  0
 27 26  1  1
 27 29  1  0
 28 27  1  0
 29 31  2  0
 29 30  1  0
M  END
$$$$
