AAR.pdb
     RDKit          3D

 22 21  0  0  1  0  0  0  0  0999 V2000
    7.5324  -16.3863   14.9618 C   0  0  0  0  0  0  0  0  0  0  0  0
    7.9547  -14.9159   15.0380 C   0  0  2  0  0  0  0  0  0  0  0  0
    8.9206  -14.5772   14.0426 N   0  0  0  0  0  0  0  0  0  0  0  0
    8.4878  -14.6854   16.4286 C   0  0  0  0  0  0  0  0  0  0  0  0
    9.6225  -15.1313   16.7375 O   0  0  0  0  0  0  0  0  0  0  0  0
    7.3294  -12.9120   19.5108 C   0  0  0  0  0  0  0  0  0  0  0  0
    8.3018  -13.7901   18.7106 C   0  0  2  0  0  0  0  0  0  0  0  0
    7.7436  -13.9754   17.4084 N   0  0  0  0  0  0  0  0  0  0  0  0
    8.4343  -15.0477   19.4765 C   0  0  0  0  0  0  0  0  0  0  0  0
    7.6610  -16.0205   19.2914 O   0  0  0  0  0  0  0  0  0  0  0  0
   13.1832  -16.9087   17.2812 N   0  0  0  0  0  0  0  0  0  0  0  0
   13.2368  -18.3120   17.4620 C   0  0  0  0  0  0  0  0  0  0  0  0
   13.5151  -19.0789   16.4713 N   0  0  0  0  0  0  0  0  0  0  0  0
   12.9858  -18.9009   18.7348 N   0  0  0  0  0  0  0  0  0  0  0  0
   12.7292  -18.1351   19.9167 C   0  0  0  0  0  0  0  0  0  0  0  0
   11.3273  -17.5740   19.8760 C   0  0  0  0  0  0  0  0  0  0  0  0
   11.0428  -16.7781   21.1133 C   0  0  0  0  0  0  0  0  0  0  0  0
    9.6134  -16.3608   21.2787 C   0  0  2  0  0  0  0  0  0  0  0  0
    9.4539  -15.1580   20.4387 N   0  0  0  0  0  0  0  0  0  0  0  0
    9.4033  -15.8964   22.6678 C   0  0  0  0  0  0  0  0  0  0  0  0
    9.4743  -14.6670   22.9045 O   0  0  0  0  0  0  0  0  0  0  0  0
    9.1318  -16.7320   23.7317 O   0  0  0  0  0  0  0  0  0  0  0  0
  2  1  1  1
  2  4  1  0
  2  3  1  0
  4  5  2  0
  7  6  1  1
  7  9  1  0
  8  4  1  0
  8  7  1  0
  9 19  1  0
 10  9  2  0
 12 11  1  0
 12 13  2  0
 14 12  1  0
 15 14  1  0
 16 15  1  0
 17 16  1  0
 18 17  1  1
 19 18  1  0
 20 18  1  0
 21 20  2  0
 22 20  1  0
M  END
$$$$
