AAR.pdb
     RDKit          3D

 22 21  0  0  1  0  0  0  0  0999 V2000
    8.3341  -14.7896   17.6630 C   0  0  0  0  0  0  0  0  0  0  0  0
    7.9821  -13.5717   18.5229 C   0  0  2  0  0  0  0  0  0  0  0  0
    8.4421  -12.3496   17.9455 N   0  0  0  0  0  0  0  0  0  0  0  0
    8.5895  -13.8058   19.8820 C   0  0  0  0  0  0  0  0  0  0  0  0
    9.7976  -13.5159   20.0776 O   0  0  0  0  0  0  0  0  0  0  0  0
    7.4267  -15.1627   23.1685 C   0  0  0  0  0  0  0  0  0  0  0  0
    8.4901  -14.6393   22.1927 C   0  0  2  0  0  0  0  0  0  0  0  0
    7.8349  -14.3474   20.9569 N   0  0  0  0  0  0  0  0  0  0  0  0
    9.5001  -15.7132   22.0819 C   0  0  0  0  0  0  0  0  0  0  0  0
    9.5343  -16.4912   21.0959 O   0  0  0  0  0  0  0  0  0  0  0  0
   14.6786  -16.6210   18.6195 N   0  0  0  0  0  0  0  0  0  0  0  0
   14.3099  -15.2897   18.3087 C   0  0  0  0  0  0  0  0  0  0  0  0
   14.3268  -14.8841   17.0912 N   0  0  0  0  0  0  0  0  0  0  0  0
   13.9151  -14.3773   19.3293 N   0  0  0  0  0  0  0  0  0  0  0  0
   13.9346  -14.7028   20.7232 C   0  0  0  0  0  0  0  0  0  0  0  0
   12.7650  -15.5965   21.0626 C   0  0  0  0  0  0  0  0  0  0  0  0
   12.7439  -15.9015   22.5295 C   0  0  0  0  0  0  0  0  0  0  0  0
   11.6084  -16.7710   22.9756 C   0  0  2  0  0  0  0  0  0  0  0  0
   10.4488  -15.8681   23.1085 N   0  0  0  0  0  0  0  0  0  0  0  0
   11.8820  -17.2578   24.3459 C   0  0  0  0  0  0  0  0  0  0  0  0
   11.5001  -16.5605   25.3155 O   0  0  0  0  0  0  0  0  0  0  0  0
   12.5352  -18.4388   24.6328 O   0  0  0  0  0  0  0  0  0  0  0  0
  2  1  1  6
  2  4  1  0
  2  3  1  0
  4  5  2  0
  7  6  1  1
  7  9  1  0
  8  4  1  0
  8  7  1  0
  9 19  1  0
 10  9  2  0
 12 11  1  0
 12 13  2  0
 14 12  1  0
 15 14  1  0
 16 15  1  0
 17 16  1  0
 18 17  1  1
 19 18  1  0
 20 18  1  0
 21 20  2  0
 22 20  1  0
M  END
$$$$
