AAR.pdb
     RDKit          3D

 22 21  0  0  1  0  0  0  0  0999 V2000
    6.2232  -14.9995   21.4640 C   0  0  0  0  0  0  0  0  0  0  0  0
    7.0172  -13.6975   21.6079 C   0  0  2  0  0  0  0  0  0  0  0  0
    7.9508  -13.5117   20.5438 N   0  0  0  0  0  0  0  0  0  0  0  0
    7.7065  -13.7514   22.9469 C   0  0  0  0  0  0  0  0  0  0  0  0
    8.7658  -14.4180   23.0706 O   0  0  0  0  0  0  0  0  0  0  0  0
    7.2446  -12.1216   26.2783 C   0  0  0  0  0  0  0  0  0  0  0  0
    7.9417  -13.0770   25.2993 C   0  0  2  0  0  0  0  0  0  0  0  0
    7.1937  -13.0681   24.0819 N   0  0  0  0  0  0  0  0  0  0  0  0
    7.9608  -14.3960   25.9666 C   0  0  0  0  0  0  0  0  0  0  0  0
    6.9204  -15.0887   26.0945 O   0  0  0  0  0  0  0  0  0  0  0  0
   12.5624  -17.7917   21.7053 N   0  0  0  0  0  0  0  0  0  0  0  0
   11.1559  -17.9101   21.5942 C   0  0  0  0  0  0  0  0  0  0  0  0
   10.5815  -17.7275   20.4610 N   0  0  0  0  0  0  0  0  0  0  0  0
   10.3518  -18.2315   22.7257 N   0  0  0  0  0  0  0  0  0  0  0  0
   10.7885  -18.0467   24.0764 C   0  0  0  0  0  0  0  0  0  0  0  0
    9.7600  -17.2552   24.8494 C   0  0  0  0  0  0  0  0  0  0  0  0
   10.2376  -16.9933   26.2453 C   0  0  0  0  0  0  0  0  0  0  0  0
    9.2834  -16.2190   27.1024 C   0  0  2  0  0  0  0  0  0  0  0  0
    9.1771  -14.8890   26.4721 N   0  0  0  0  0  0  0  0  0  0  0  0
    9.9072  -15.9760   28.4220 C   0  0  0  0  0  0  0  0  0  0  0  0
   10.3378  -14.8263   28.6771 O   0  0  0  0  0  0  0  0  0  0  0  0
   10.0489  -16.9377   29.4012 O   0  0  0  0  0  0  0  0  0  0  0  0
  2  1  1  6
  2  4  1  0
  2  3  1  0
  4  5  2  0
  7  6  1  1
  7  9  1  0
  8  4  1  0
  8  7  1  0
  9 19  1  0
 10  9  2  0
 12 11  1  0
 12 13  2  0
 14 12  1  0
 15 14  1  0
 16 15  1  0
 17 16  1  0
 18 17  1  6
 19 18  1  0
 20 18  1  0
 21 20  2  0
 22 20  1  0
M  END
$$$$
