AAR.pdb
     RDKit          3D

 22 21  0  0  1  0  0  0  0  0999 V2000
    8.4854  -12.2951   19.6268 C   0  0  0  0  0  0  0  0  0  0  0  0
    8.5412  -13.5546   18.7568 C   0  0  2  0  0  0  0  0  0  0  0  0
    7.3288  -13.7678   18.0335 N   0  0  0  0  0  0  0  0  0  0  0  0
    8.8480  -14.7082   19.6766 C   0  0  0  0  0  0  0  0  0  0  0  0
    7.9488  -15.1480   20.4380 O   0  0  0  0  0  0  0  0  0  0  0  0
   11.7591  -16.9595   20.3255 C   0  0  0  0  0  0  0  0  0  0  0  0
   10.3786  -16.3696   20.6468 C   0  0  2  0  0  0  0  0  0  0  0  0
   10.1302  -15.3188   19.7108 N   0  0  0  0  0  0  0  0  0  0  0  0
   10.4551  -15.9019   22.0471 C   0  0  0  0  0  0  0  0  0  0  0  0
   10.9753  -14.7989   22.3496 O   0  0  0  0  0  0  0  0  0  0  0  0
    6.9880  -13.1425   27.9262 N   0  0  0  0  0  0  0  0  0  0  0  0
    6.5714  -12.3757   26.8112 C   0  0  0  0  0  0  0  0  0  0  0  0
    6.4032  -11.1086   26.9274 N   0  0  0  0  0  0  0  0  0  0  0  0
    6.3313  -12.9853   25.5461 N   0  0  0  0  0  0  0  0  0  0  0  0
    6.6157  -14.3612   25.2716 C   0  0  0  0  0  0  0  0  0  0  0  0
    8.1052  -14.5618   25.1198 C   0  0  0  0  0  0  0  0  0  0  0  0
    8.4083  -15.9747   24.7234 C   0  0  0  0  0  0  0  0  0  0  0  0
    9.8571  -16.2609   24.4712 C   0  0  2  0  0  0  0  0  0  0  0  0
    9.9313  -16.7141   23.0688 N   0  0  0  0  0  0  0  0  0  0  0  0
   10.2668  -17.4299   25.2805 C   0  0  0  0  0  0  0  0  0  0  0  0
   10.1246  -18.5755   24.7909 O   0  0  0  0  0  0  0  0  0  0  0  0
   10.8001  -17.3450   26.5502 O   0  0  0  0  0  0  0  0  0  0  0  0
  2  1  1  1
  2  4  1  0
  2  3  1  0
  4  5  2  0
  7  6  1  6
  7  9  1  0
  8  4  1  0
  8  7  1  0
  9 19  1  0
 10  9  2  0
 12 11  1  0
 12 13  2  0
 14 12  1  0
 15 14  1  0
 16 15  1  0
 17 16  1  0
 18 17  1  1
 19 18  1  0
 20 18  1  0
 21 20  2  0
 22 20  1  0
M  END
$$$$
