AAR.pdb
     RDKit          3D

 22 21  0  0  1  0  0  0  0  0999 V2000
    9.0167  -12.3555   18.9284 C   0  0  0  0  0  0  0  0  0  0  0  0
    8.7131  -13.6846   18.2301 C   0  0  2  0  0  0  0  0  0  0  0  0
    7.4434  -13.6760   17.5771 N   0  0  0  0  0  0  0  0  0  0  0  0
    8.7870  -14.7592   19.2839 C   0  0  0  0  0  0  0  0  0  0  0  0
    7.8194  -14.9212   20.0709 O   0  0  0  0  0  0  0  0  0  0  0  0
   11.1028  -17.5487   20.1514 C   0  0  0  0  0  0  0  0  0  0  0  0
    9.9454  -16.5859   20.4525 C   0  0  2  0  0  0  0  0  0  0  0  0
    9.9235  -15.6012   19.4173 N   0  0  0  0  0  0  0  0  0  0  0  0
   10.2251  -16.0240   21.7909 C   0  0  0  0  0  0  0  0  0  0  0  0
   11.0993  -15.1391   21.9684 O   0  0  0  0  0  0  0  0  0  0  0  0
    6.1381  -12.2236   28.0966 N   0  0  0  0  0  0  0  0  0  0  0  0
    6.1450  -11.8724   26.7250 C   0  0  0  0  0  0  0  0  0  0  0  0
    5.9252  -10.6588   26.3697 N   0  0  0  0  0  0  0  0  0  0  0  0
    6.3936  -12.8472   25.7161 N   0  0  0  0  0  0  0  0  0  0  0  0
    6.5440  -14.2434   25.9942 C   0  0  0  0  0  0  0  0  0  0  0  0
    7.9843  -14.6571   25.8038 C   0  0  0  0  0  0  0  0  0  0  0  0
    8.1594  -15.3672   24.4960 C   0  0  0  0  0  0  0  0  0  0  0  0
    9.5548  -15.8347   24.2153 C   0  0  2  0  0  0  0  0  0  0  0  0
    9.4925  -16.4929   22.8960 N   0  0  0  0  0  0  0  0  0  0  0  0
    9.9059  -16.9090   25.1703 C   0  0  0  0  0  0  0  0  0  0  0  0
    9.6842  -18.0982   24.8405 O   0  0  0  0  0  0  0  0  0  0  0  0
   10.4664  -16.6895   26.4119 O   0  0  0  0  0  0  0  0  0  0  0  0
  2  1  1  1
  2  4  1  0
  2  3  1  0
  4  5  2  0
  7  6  1  6
  7  9  1  0
  8  4  1  0
  8  7  1  0
  9 19  1  0
 10  9  2  0
 12 11  1  0
 12 13  2  0
 14 12  1  0
 15 14  1  0
 16 15  1  0
 17 16  1  0
 18 17  1  1
 19 18  1  0
 20 18  1  0
 21 20  2  0
 22 20  1  0
M  END
$$$$
