AAR.pdb
     RDKit          3D

 22 21  0  0  1  0  0  0  0  0999 V2000
    6.9444  -14.1317   19.4207 C   0  0  0  0  0  0  0  0  0  0  0  0
    7.0974  -12.8593   20.2596 C   0  0  2  0  0  0  0  0  0  0  0  0
    7.8544  -11.8537   19.5856 N   0  0  0  0  0  0  0  0  0  0  0  0
    7.7477  -13.2662   21.5567 C   0  0  0  0  0  0  0  0  0  0  0  0
    8.7625  -14.0086   21.5334 O   0  0  0  0  0  0  0  0  0  0  0  0
    7.0680  -12.7649   25.1985 C   0  0  0  0  0  0  0  0  0  0  0  0
    7.9112  -13.2474   24.0097 C   0  0  2  0  0  0  0  0  0  0  0  0
    7.2467  -12.8343   22.8140 N   0  0  0  0  0  0  0  0  0  0  0  0
    8.0058  -14.7159   24.1510 C   0  0  0  0  0  0  0  0  0  0  0  0
    7.0649  -15.4760   23.8109 O   0  0  0  0  0  0  0  0  0  0  0  0
   14.5617  -19.8250   23.1392 N   0  0  0  0  0  0  0  0  0  0  0  0
   13.4746  -20.6582   22.7802 C   0  0  0  0  0  0  0  0  0  0  0  0
   13.6430  -21.9260   22.6722 N   0  0  0  0  0  0  0  0  0  0  0  0
   12.1808  -20.1155   22.5326 N   0  0  0  0  0  0  0  0  0  0  0  0
   11.8836  -18.7188   22.6330 C   0  0  0  0  0  0  0  0  0  0  0  0
   10.9067  -18.4768   23.7595 C   0  0  0  0  0  0  0  0  0  0  0  0
   10.4031  -17.0660   23.7256 C   0  0  0  0  0  0  0  0  0  0  0  0
    9.3821  -16.7366   24.7714 C   0  0  2  0  0  0  0  0  0  0  0  0
    9.1812  -15.2775   24.6808 N   0  0  0  0  0  0  0  0  0  0  0  0
    9.9698  -16.9665   26.1098 C   0  0  0  0  0  0  0  0  0  0  0  0
   10.4479  -15.9866   26.7292 O   0  0  0  0  0  0  0  0  0  0  0  0
   10.0283  -18.1979   26.7294 O   0  0  0  0  0  0  0  0  0  0  0  0
  2  1  1  6
  2  4  1  0
  2  3  1  0
  4  5  2  0
  7  6  1  1
  7  9  1  0
  8  4  1  0
  8  7  1  0
  9 19  1  0
 10  9  2  0
 12 11  1  0
 12 13  2  0
 14 12  1  0
 15 14  1  0
 16 15  1  0
 17 16  1  0
 18 17  1  6
 19 18  1  0
 20 18  1  0
 21 20  2  0
 22 20  1  0
M  END
$$$$
