AAR.pdb
     RDKit          3D

 22 21  0  0  1  0  0  0  0  0999 V2000
    6.6822  -14.7753   20.0836 C   0  0  0  0  0  0  0  0  0  0  0  0
    7.2822  -13.4412   20.5380 C   0  0  2  0  0  0  0  0  0  0  0  0
    8.2202  -12.9200   19.5962 N   0  0  0  0  0  0  0  0  0  0  0  0
    7.9217  -13.6841   21.8807 C   0  0  0  0  0  0  0  0  0  0  0  0
    9.0958  -14.1318   21.9345 O   0  0  0  0  0  0  0  0  0  0  0  0
    7.0713  -12.9957   25.4447 C   0  0  0  0  0  0  0  0  0  0  0  0
    7.8948  -13.6713   24.3390 C   0  0  2  0  0  0  0  0  0  0  0  0
    7.2352  -13.4214   23.0964 N   0  0  0  0  0  0  0  0  0  0  0  0
    7.9507  -15.1049   24.6957 C   0  0  0  0  0  0  0  0  0  0  0  0
    6.9651  -15.8669   24.5326 O   0  0  0  0  0  0  0  0  0  0  0  0
   11.3603  -16.4464   20.3720 N   0  0  0  0  0  0  0  0  0  0  0  0
   10.9303  -17.7805   20.1720 C   0  0  0  0  0  0  0  0  0  0  0  0
   10.5103  -18.1560   19.0188 N   0  0  0  0  0  0  0  0  0  0  0  0
   10.9530  -18.7290   21.2349 N   0  0  0  0  0  0  0  0  0  0  0  0
   11.3022  -18.3904   22.5813 C   0  0  0  0  0  0  0  0  0  0  0  0
   10.0726  -17.9493   23.3399 C   0  0  0  0  0  0  0  0  0  0  0  0
   10.4320  -17.5511   24.7390 C   0  0  0  0  0  0  0  0  0  0  0  0
    9.2850  -17.0597   25.5681 C   0  0  2  0  0  0  0  0  0  0  0  0
    9.1398  -15.6300   25.2325 N   0  0  0  0  0  0  0  0  0  0  0  0
    9.6738  -17.0871   26.9955 C   0  0  0  0  0  0  0  0  0  0  0  0
   10.1315  -16.0396   27.5108 O   0  0  0  0  0  0  0  0  0  0  0  0
    9.5663  -18.1980   27.8068 O   0  0  0  0  0  0  0  0  0  0  0  0
  2  1  1  6
  2  4  1  0
  2  3  1  0
  4  5  2  0
  7  6  1  1
  7  9  1  0
  8  4  1  0
  8  7  1  0
  9 19  1  0
 10  9  2  0
 12 11  1  0
 12 13  2  0
 14 12  1  0
 15 14  1  0
 16 15  1  0
 17 16  1  0
 18 17  1  6
 19 18  1  0
 20 18  1  0
 21 20  2  0
 22 20  1  0
M  END
$$$$
