AAR.pdb
     RDKit          3D

 22 21  0  0  1  0  0  0  0  0999 V2000
    7.1615  -18.7618   17.4435 C   0  0  0  0  0  0  0  0  0  0  0  0
    6.5656  -19.7908   18.4090 C   0  0  2  0  0  0  0  0  0  0  0  0
    5.1381  -19.7627   18.4175 N   0  0  0  0  0  0  0  0  0  0  0  0
    7.1339  -19.4917   19.7723 C   0  0  0  0  0  0  0  0  0  0  0  0
    6.7261  -18.4841   20.4048 O   0  0  0  0  0  0  0  0  0  0  0  0
    9.4169  -21.1681   22.1935 C   0  0  0  0  0  0  0  0  0  0  0  0
    8.6709  -19.9474   21.6362 C   0  0  2  0  0  0  0  0  0  0  0  0
    8.1229  -20.3182   20.3697 N   0  0  0  0  0  0  0  0  0  0  0  0
    9.6752  -18.8663   21.5471 C   0  0  0  0  0  0  0  0  0  0  0  0
   10.4430  -18.7553   20.5587 O   0  0  0  0  0  0  0  0  0  0  0  0
    6.5137  -12.5184   18.7959 N   0  0  0  0  0  0  0  0  0  0  0  0
    7.4368  -12.8199   19.8263 C   0  0  0  0  0  0  0  0  0  0  0  0
    8.5654  -12.2109   19.8786 N   0  0  0  0  0  0  0  0  0  0  0  0
    7.1388  -13.7964   20.8200 N   0  0  0  0  0  0  0  0  0  0  0  0
    7.9910  -14.0624   21.9390 C   0  0  0  0  0  0  0  0  0  0  0  0
    9.0653  -15.0500   21.5486 C   0  0  0  0  0  0  0  0  0  0  0  0
    9.7649  -15.5751   22.7652 C   0  0  0  0  0  0  0  0  0  0  0  0
   10.6548  -16.7551   22.5196 C   0  0  2  0  0  0  0  0  0  0  0  0
    9.7740  -17.9365   22.5975 N   0  0  0  0  0  0  0  0  0  0  0  0
   11.5954  -16.8952   23.6533 C   0  0  0  0  0  0  0  0  0  0  0  0
   12.5348  -16.0710   23.7561 O   0  0  0  0  0  0  0  0  0  0  0  0
   11.5087  -17.8807   24.6151 O   0  0  0  0  0  0  0  0  0  0  0  0
  2  1  1  6
  2  4  1  0
  2  3  1  0
  4  5  2  0
  7  6  1  6
  7  9  1  0
  8  4  1  0
  8  7  1  0
  9 19  1  0
 10  9  2  0
 12 11  1  0
 12 13  2  0
 14 12  1  0
 15 14  1  0
 16 15  1  0
 17 16  1  0
 18 17  1  1
 19 18  1  0
 20 18  1  0
 21 20  2  0
 22 20  1  0
M  END
$$$$
