AAR.pdb
     RDKit          3D

 22 21  0  0  1  0  0  0  0  0999 V2000
    6.5817  -17.7943   18.5590 C   0  0  0  0  0  0  0  0  0  0  0  0
    7.4707  -16.7276   17.9123 C   0  0  2  0  0  0  0  0  0  0  0  0
    8.4222  -17.2902   17.0087 N   0  0  0  0  0  0  0  0  0  0  0  0
    8.1457  -15.9819   19.0345 C   0  0  0  0  0  0  0  0  0  0  0  0
    9.0712  -16.5391   19.6785 O   0  0  0  0  0  0  0  0  0  0  0  0
    7.7514  -12.6511   20.6894 C   0  0  0  0  0  0  0  0  0  0  0  0
    8.4301  -14.0118   20.4774 C   0  0  2  0  0  0  0  0  0  0  0  0
    7.7668  -14.6598   19.3903 N   0  0  0  0  0  0  0  0  0  0  0  0
    8.2967  -14.7340   21.7604 C   0  0  0  0  0  0  0  0  0  0  0  0
    7.2034  -15.2307   22.1304 O   0  0  0  0  0  0  0  0  0  0  0  0
   11.2336  -20.6644   26.9218 N   0  0  0  0  0  0  0  0  0  0  0  0
   11.0816  -21.0735   25.5748 C   0  0  0  0  0  0  0  0  0  0  0  0
   11.1989  -22.3124   25.2607 N   0  0  0  0  0  0  0  0  0  0  0  0
   10.7978  -20.1299   24.5458 N   0  0  0  0  0  0  0  0  0  0  0  0
   11.1083  -18.7365   24.6517 C   0  0  0  0  0  0  0  0  0  0  0  0
    9.8354  -17.9266   24.7272 C   0  0  0  0  0  0  0  0  0  0  0  0
    9.7204  -17.0153   23.5433 C   0  0  0  0  0  0  0  0  0  0  0  0
    9.3726  -15.5958   23.8728 C   0  0  2  0  0  0  0  0  0  0  0  0
    9.4245  -14.8688   22.5897 N   0  0  0  0  0  0  0  0  0  0  0  0
   10.4550  -15.0116   24.6955 C   0  0  0  0  0  0  0  0  0  0  0  0
   10.4181  -15.1781   25.9377 O   0  0  0  0  0  0  0  0  0  0  0  0
   11.5130  -14.2885   24.1840 O   0  0  0  0  0  0  0  0  0  0  0  0
  2  1  1  1
  2  4  1  0
  2  3  1  0
  4  5  2  0
  7  6  1  1
  7  9  1  0
  8  4  1  0
  8  7  1  0
  9 19  1  0
 10  9  2  0
 12 11  1  0
 12 13  2  0
 14 12  1  0
 15 14  1  0
 16 15  1  0
 17 16  1  0
 18 17  1  6
 19 18  1  0
 20 18  1  0
 21 20  2  0
 22 20  1  0
M  END
$$$$
