FLV.pdb
     RDKit          3D

 27 27  0  0  1  0  0  0  0  0999 V2000
    5.9495  -18.3039   24.2415 N   0  0  0  0  0  0  0  0  0  0  0  0
    6.2907  -16.9621   24.5871 C   0  0  1  0  0  0  0  0  0  0  0  0
    6.3198  -16.7096   26.0714 C   0  0  0  0  0  0  0  0  0  0  0  0
    6.3338  -15.2488   26.2941 C   0  0  0  0  0  0  0  0  0  0  0  0
    7.1144  -14.6970   27.2875 C   0  0  0  0  0  0  0  0  0  0  0  0
    7.1077  -13.3315   27.4724 C   0  0  0  0  0  0  0  0  0  0  0  0
    6.3387  -12.5032   26.6877 C   0  0  0  0  0  0  0  0  0  0  0  0
    5.5501  -13.0468   25.6862 C   0  0  0  0  0  0  0  0  0  0  0  0
    5.5654  -14.4177   25.5105 C   0  0  0  0  0  0  0  0  0  0  0  0
    7.6559  -16.6783   24.0668 C   0  0  0  0  0  0  0  0  0  0  0  0
    8.5442  -17.5644   24.0300 O   0  0  0  0  0  0  0  0  0  0  0  0
    8.1471  -14.3280   20.0046 C   0  0  0  0  0  0  0  0  0  0  0  0
    7.9056  -13.5981   21.2926 C   0  0  2  0  0  0  0  0  0  0  0  0
    7.8729  -12.0796   21.0024 C   0  0  0  0  0  0  0  0  0  0  0  0
    8.9622  -13.8212   22.2741 C   0  0  0  0  0  0  0  0  0  0  0  0
    9.2427  -15.1345   22.8774 C   0  0  2  0  0  0  0  0  0  0  0  0
    7.9490  -15.4037   23.6130 N   0  0  0  0  0  0  0  0  0  0  0  0
   10.2645  -15.2796   23.8987 C   0  0  0  0  0  0  0  0  0  0  0  0
   11.4632  -15.5588   23.5362 O   0  0  0  0  0  0  0  0  0  0  0  0
   11.3295  -12.9926   26.7431 C   0  0  0  0  0  0  0  0  0  0  0  0
   11.1702  -14.3641   27.3588 C   0  0  1  0  0  0  0  0  0  0  0  0
    9.8757  -14.4340   28.1297 C   0  0  0  0  0  0  0  0  0  0  0  0
   11.2121  -15.3766   26.2314 C   0  0  2  0  0  0  0  0  0  0  0  0
   10.1017  -15.1355   25.2962 N   0  0  0  0  0  0  0  0  0  0  0  0
   11.1291  -16.7278   26.7767 C   0  0  0  0  0  0  0  0  0  0  0  0
   10.0896  -17.5660   26.4102 O   0  0  0  0  0  0  0  0  0  0  0  0
   11.9736  -17.1623   27.5739 O   0  0  0  0  0  0  0  0  0  0  0  0
  2  1  1  1
  2  3  1  0
  3  4  1  0
  4  5  2  0
  5  6  1  0
  7  6  2  0
  8  7  1  0
  9  8  2  0
  9  4  1  0
 10 11  2  0
 10  2  1  0
 13 12  1  6
 14 13  1  0
 15 13  1  0
 16 15  1  1
 16 17  1  0
 17 10  1  0
 18 24  1  0
 18 16  1  0
 19 18  2  0
 21 20  1  6
 21 22  1  0
 23 21  1  0
 23 24  1  6
 25 26  1  0
 25 23  1  0
 27 25  2  0
M  END
$$$$
