FLV.pdb
     RDKit          3D

 27 27  0  0  1  0  0  0  0  0999 V2000
    5.8782  -18.8613   21.6742 N   0  0  0  0  0  0  0  0  0  0  0  0
    6.0636  -18.6759   23.0768 C   0  0  1  0  0  0  0  0  0  0  0  0
    6.6206  -19.8868   23.7776 C   0  0  0  0  0  0  0  0  0  0  0  0
    5.5788  -20.9347   23.7937 C   0  0  0  0  0  0  0  0  0  0  0  0
    4.5375  -20.8765   24.6954 C   0  0  0  0  0  0  0  0  0  0  0  0
    3.5802  -21.8677   24.6875 C   0  0  0  0  0  0  0  0  0  0  0  0
    3.6384  -22.9168   23.7992 C   0  0  0  0  0  0  0  0  0  0  0  0
    4.6806  -22.9855   22.8883 C   0  0  0  0  0  0  0  0  0  0  0  0
    5.6346  -21.9855   22.9060 C   0  0  0  0  0  0  0  0  0  0  0  0
    7.0359  -17.5669   23.2772 C   0  0  0  0  0  0  0  0  0  0  0  0
    7.8440  -17.2291   22.3781 O   0  0  0  0  0  0  0  0  0  0  0  0
    7.1530  -12.7235   24.7043 C   0  0  0  0  0  0  0  0  0  0  0  0
    6.4133  -13.8132   25.4222 C   0  0  2  0  0  0  0  0  0  0  0  0
    5.8999  -13.2576   26.7708 C   0  0  0  0  0  0  0  0  0  0  0  0
    7.2595  -14.9617   25.7295 C   0  0  0  0  0  0  0  0  0  0  0  0
    7.9858  -15.7296   24.7046 C   0  0  2  0  0  0  0  0  0  0  0  0
    7.0456  -16.8940   24.4869 N   0  0  0  0  0  0  0  0  0  0  0  0
    9.2585  -16.3579   25.0104 C   0  0  0  0  0  0  0  0  0  0  0  0
    9.2867  -17.3038   25.8768 O   0  0  0  0  0  0  0  0  0  0  0  0
   13.7944  -17.7093   23.6515 C   0  0  0  0  0  0  0  0  0  0  0  0
   12.6551  -16.7340   23.4616 C   0  0  1  0  0  0  0  0  0  0  0  0
   12.0208  -16.9420   22.1090 C   0  0  0  0  0  0  0  0  0  0  0  0
   11.6683  -16.9617   24.5897 C   0  0  2  0  0  0  0  0  0  0  0  0
   10.5184  -16.0549   24.4437 N   0  0  0  0  0  0  0  0  0  0  0  0
   12.3257  -16.7414   25.8739 C   0  0  0  0  0  0  0  0  0  0  0  0
   13.0745  -17.7497   26.4569 O   0  0  0  0  0  0  0  0  0  0  0  0
   12.2361  -15.6610   26.4755 O   0  0  0  0  0  0  0  0  0  0  0  0
  2  1  1  6
  2  3  1  0
  3  4  1  0
  4  5  2  0
  5  6  1  0
  7  6  2  0
  8  7  1  0
  9  8  2  0
  9  4  1  0
 10 11  2  0
 10  2  1  0
 13 12  1  1
 14 13  1  0
 15 13  1  0
 16 15  1  1
 16 17  1  0
 17 10  1  0
 18 24  1  0
 18 16  1  0
 19 18  2  0
 21 20  1  1
 21 22  1  0
 23 21  1  0
 23 24  1  6
 25 26  1  0
 25 23  1  0
 27 25  2  0
M  END
$$$$
