FLV.pdb
     RDKit          3D

 27 27  0  0  1  0  0  0  0  0999 V2000
    5.4006  -17.7309   24.3217 N   0  0  0  0  0  0  0  0  0  0  0  0
    5.9443  -16.4397   24.5926 C   0  0  1  0  0  0  0  0  0  0  0  0
    5.9246  -16.0703   26.0523 C   0  0  0  0  0  0  0  0  0  0  0  0
    6.2312  -14.6296   26.1713 C   0  0  0  0  0  0  0  0  0  0  0  0
    5.3002  -13.7534   26.6872 C   0  0  0  0  0  0  0  0  0  0  0  0
    5.6136  -12.4152   26.7864 C   0  0  0  0  0  0  0  0  0  0  0  0
    6.8363  -11.9309   26.3820 C   0  0  0  0  0  0  0  0  0  0  0  0
    7.7799  -12.8025   25.8619 C   0  0  0  0  0  0  0  0  0  0  0  0
    7.4538  -14.1423   25.7675 C   0  0  0  0  0  0  0  0  0  0  0  0
    7.3674  -16.4309   24.1567 C   0  0  0  0  0  0  0  0  0  0  0  0
    8.1075  -17.4339   24.3040 O   0  0  0  0  0  0  0  0  0  0  0  0
    8.3851  -14.8481   20.0144 C   0  0  0  0  0  0  0  0  0  0  0  0
    8.2881  -13.8335   21.1150 C   0  0  2  0  0  0  0  0  0  0  0  0
    8.5878  -12.4351   20.5270 C   0  0  0  0  0  0  0  0  0  0  0  0
    9.2574  -14.0635   22.1813 C   0  0  0  0  0  0  0  0  0  0  0  0
    9.2832  -15.2852   23.0024 C   0  0  2  0  0  0  0  0  0  0  0  0
    7.8834  -15.2857   23.5748 N   0  0  0  0  0  0  0  0  0  0  0  0
   10.1407  -15.3771   24.1705 C   0  0  0  0  0  0  0  0  0  0  0  0
   11.4125  -15.3966   24.0017 O   0  0  0  0  0  0  0  0  0  0  0  0
   11.0467  -14.6855   28.9606 C   0  0  0  0  0  0  0  0  0  0  0  0
   10.0199  -14.7384   27.8523 C   0  0  1  0  0  0  0  0  0  0  0  0
    9.4676  -13.3582   27.5973 C   0  0  0  0  0  0  0  0  0  0  0  0
   10.7035  -15.3093   26.6255 C   0  0  2  0  0  0  0  0  0  0  0  0
    9.7359  -15.4387   25.5242 N   0  0  0  0  0  0  0  0  0  0  0  0
   11.2844  -16.6099   26.9432 C   0  0  0  0  0  0  0  0  0  0  0  0
   10.5611  -17.7700   26.7237 O   0  0  0  0  0  0  0  0  0  0  0  0
   12.4268  -16.7165   27.4131 O   0  0  0  0  0  0  0  0  0  0  0  0
  2  1  1  1
  2  3  1  0
  3  4  1  0
  4  5  2  0
  5  6  1  0
  7  6  2  0
  8  7  1  0
  9  8  2  0
  9  4  1  0
 10 11  2  0
 10  2  1  0
 13 12  1  6
 14 13  1  0
 15 13  1  0
 16 15  1  1
 16 17  1  0
 17 10  1  0
 18 24  1  0
 18 16  1  0
 19 18  2  0
 21 20  1  1
 21 22  1  0
 23 21  1  0
 23 24  1  6
 25 26  1  0
 25 23  1  0
 27 25  2  0
M  END
$$$$
