FLV.pdb
     RDKit          3D

 27 27  0  0  1  0  0  0  0  0999 V2000
    5.7482  -18.6520   23.6378 N   0  0  0  0  0  0  0  0  0  0  0  0
    6.0201  -17.3934   24.2530 C   0  0  1  0  0  0  0  0  0  0  0  0
    6.1002  -17.4603   25.7552 C   0  0  0  0  0  0  0  0  0  0  0  0
    6.1703  -16.0802   26.2789 C   0  0  0  0  0  0  0  0  0  0  0  0
    7.0154  -15.7665   27.3220 C   0  0  0  0  0  0  0  0  0  0  0  0
    7.0599  -14.4711   27.7898 C   0  0  0  0  0  0  0  0  0  0  0  0
    6.2796  -13.4805   27.2397 C   0  0  0  0  0  0  0  0  0  0  0  0
    5.4265  -13.7842   26.1906 C   0  0  0  0  0  0  0  0  0  0  0  0
    5.3906  -15.0870   25.7302 C   0  0  0  0  0  0  0  0  0  0  0  0
    7.3400  -16.9097   23.7641 C   0  0  0  0  0  0  0  0  0  0  0  0
    8.3420  -17.6643   23.7178 O   0  0  0  0  0  0  0  0  0  0  0  0
    8.1996  -11.9807   20.5031 C   0  0  0  0  0  0  0  0  0  0  0  0
    8.6078  -13.3987   20.7727 C   0  0  2  0  0  0  0  0  0  0  0  0
    7.8187  -14.3299   19.8235 C   0  0  0  0  0  0  0  0  0  0  0  0
    8.3044  -13.8237   22.1353 C   0  0  0  0  0  0  0  0  0  0  0  0
    8.7370  -15.1143   22.6963 C   0  0  2  0  0  0  0  0  0  0  0  0
    7.4611  -15.5940   23.3512 N   0  0  0  0  0  0  0  0  0  0  0  0
    9.7212  -15.1682   23.7624 C   0  0  0  0  0  0  0  0  0  0  0  0
   10.9651  -15.2154   23.4514 O   0  0  0  0  0  0  0  0  0  0  0  0
   11.3554  -14.2722   28.2743 C   0  0  0  0  0  0  0  0  0  0  0  0
   10.2845  -14.1254   27.2174 C   0  0  1  0  0  0  0  0  0  0  0  0
   10.2854  -12.7172   26.6771 C   0  0  0  0  0  0  0  0  0  0  0  0
   10.5712  -15.1466   26.1343 C   0  0  2  0  0  0  0  0  0  0  0  0
    9.4730  -15.1637   25.1547 N   0  0  0  0  0  0  0  0  0  0  0  0
   10.7363  -16.4680   26.7315 C   0  0  0  0  0  0  0  0  0  0  0  0
   11.8259  -16.7364   27.5427 O   0  0  0  0  0  0  0  0  0  0  0  0
    9.9189  -17.3793   26.5345 O   0  0  0  0  0  0  0  0  0  0  0  0
  2  1  1  6
  2  3  1  0
  3  4  1  0
  4  5  2  0
  5  6  1  0
  7  6  2  0
  8  7  1  0
  9  8  2  0
  9  4  1  0
 10 11  2  0
 10  2  1  0
 13 12  1  1
 14 13  1  0
 15 13  1  0
 16 15  1  1
 16 17  1  0
 17 10  1  0
 18 24  1  0
 18 16  1  0
 19 18  2  0
 21 20  1  1
 21 22  1  0
 23 21  1  0
 23 24  1  6
 25 26  1  0
 25 23  1  0
 27 25  2  0
M  END
$$$$
