FLV.pdb
     RDKit          3D

 27 27  0  0  1  0  0  0  0  0999 V2000
    5.4725  -18.3971   24.6641 N   0  0  0  0  0  0  0  0  0  0  0  0
    5.8882  -17.0571   24.9248 C   0  0  1  0  0  0  0  0  0  0  0  0
    6.1080  -16.7664   26.3859 C   0  0  0  0  0  0  0  0  0  0  0  0
    6.2710  -15.3069   26.5501 C   0  0  0  0  0  0  0  0  0  0  0  0
    7.3952  -14.7894   27.1576 C   0  0  0  0  0  0  0  0  0  0  0  0
    7.5204  -13.4242   27.2970 C   0  0  0  0  0  0  0  0  0  0  0  0
    6.5482  -12.5627   26.8435 C   0  0  0  0  0  0  0  0  0  0  0  0
    5.4139  -13.0717   26.2312 C   0  0  0  0  0  0  0  0  0  0  0  0
    5.2998  -14.4426   26.0972 C   0  0  0  0  0  0  0  0  0  0  0  0
    7.1850  -16.8268   24.2316 C   0  0  0  0  0  0  0  0  0  0  0  0
    8.0624  -17.7216   24.1617 O   0  0  0  0  0  0  0  0  0  0  0  0
    8.6934  -12.1911   20.6298 C   0  0  0  0  0  0  0  0  0  0  0  0
    9.0284  -13.6168   20.9542 C   0  0  2  0  0  0  0  0  0  0  0  0
    8.5830  -14.5109   19.7739 C   0  0  0  0  0  0  0  0  0  0  0  0
    8.3341  -14.1031   22.1421 C   0  0  0  0  0  0  0  0  0  0  0  0
    8.6613  -15.3750   22.8074 C   0  0  2  0  0  0  0  0  0  0  0  0
    7.4251  -15.5934   23.6508 N   0  0  0  0  0  0  0  0  0  0  0  0
    9.7549  -15.4555   23.7591 C   0  0  0  0  0  0  0  0  0  0  0  0
   10.9594  -15.4299   23.3177 O   0  0  0  0  0  0  0  0  0  0  0  0
   10.1920  -13.2603   26.8350 C   0  0  0  0  0  0  0  0  0  0  0  0
   10.5284  -14.6666   27.2760 C   0  0  1  0  0  0  0  0  0  0  0  0
    9.3720  -15.2543   28.0455 C   0  0  0  0  0  0  0  0  0  0  0  0
   10.8455  -15.4705   26.0304 C   0  0  2  0  0  0  0  0  0  0  0  0
    9.6567  -15.5510   25.1667 N   0  0  0  0  0  0  0  0  0  0  0  0
   11.2893  -16.8093   26.4054 C   0  0  0  0  0  0  0  0  0  0  0  0
   12.4782  -16.9835   27.0936 O   0  0  0  0  0  0  0  0  0  0  0  0
   10.6265  -17.8187   26.1240 O   0  0  0  0  0  0  0  0  0  0  0  0
  2  1  1  1
  2  3  1  0
  3  4  1  0
  4  5  2  0
  5  6  1  0
  7  6  2  0
  8  7  1  0
  9  8  2  0
  9  4  1  0
 10 11  2  0
 10  2  1  0
 13 12  1  6
 14 13  1  0
 15 13  1  0
 16 15  1  1
 16 17  1  0
 17 10  1  0
 18 24  1  0
 18 16  1  0
 19 18  2  0
 21 20  1  6
 21 22  1  0
 23 21  1  0
 23 24  1  6
 25 26  1  0
 25 23  1  0
 27 25  2  0
M  END
$$$$
