FLV.pdb
     RDKit          3D

 27 27  0  0  1  0  0  0  0  0999 V2000
    5.6076  -18.8281   23.9788 N   0  0  0  0  0  0  0  0  0  0  0  0
    5.8848  -17.5192   24.4750 C   0  0  1  0  0  0  0  0  0  0  0  0
    6.0252  -17.4585   25.9730 C   0  0  0  0  0  0  0  0  0  0  0  0
    6.0752  -16.0381   26.3779 C   0  0  0  0  0  0  0  0  0  0  0  0
    5.1539  -15.1358   25.8905 C   0  0  0  0  0  0  0  0  0  0  0  0
    5.2246  -13.8174   26.2854 C   0  0  0  0  0  0  0  0  0  0  0  0
    6.1948  -13.3786   27.1566 C   0  0  0  0  0  0  0  0  0  0  0  0
    7.1261  -14.2769   27.6530 C   0  0  0  0  0  0  0  0  0  0  0  0
    7.0449  -15.5964   27.2496 C   0  0  0  0  0  0  0  0  0  0  0  0
    7.1770  -17.0632   23.8941 C   0  0  0  0  0  0  0  0  0  0  0  0
    8.1715  -17.8254   23.8205 O   0  0  0  0  0  0  0  0  0  0  0  0
    8.1707  -12.0440   20.6572 C   0  0  0  0  0  0  0  0  0  0  0  0
    8.7435  -13.3966   20.9610 C   0  0  2  0  0  0  0  0  0  0  0  0
    8.6292  -14.2781   19.6957 C   0  0  0  0  0  0  0  0  0  0  0  0
    8.0250  -14.0870   22.0270 C   0  0  0  0  0  0  0  0  0  0  0  0
    8.5080  -15.3262   22.6584 C   0  0  2  0  0  0  0  0  0  0  0  0
    7.2802  -15.7650   23.4245 N   0  0  0  0  0  0  0  0  0  0  0  0
    9.5548  -15.2884   23.6638 C   0  0  0  0  0  0  0  0  0  0  0  0
   10.7655  -15.0936   23.2863 O   0  0  0  0  0  0  0  0  0  0  0  0
   11.3050  -14.1854   28.0440 C   0  0  0  0  0  0  0  0  0  0  0  0
   10.1765  -14.2149   27.0385 C   0  0  1  0  0  0  0  0  0  0  0  0
    9.9857  -12.8436   26.4400 C   0  0  0  0  0  0  0  0  0  0  0  0
   10.5315  -15.2466   25.9861 C   0  0  2  0  0  0  0  0  0  0  0  0
    9.4013  -15.4334   25.0622 N   0  0  0  0  0  0  0  0  0  0  0  0
   10.8731  -16.5116   26.6289 C   0  0  0  0  0  0  0  0  0  0  0  0
   12.0299  -16.6221   27.3819 O   0  0  0  0  0  0  0  0  0  0  0  0
   10.1499  -17.5131   26.5229 O   0  0  0  0  0  0  0  0  0  0  0  0
  2  1  1  1
  2  3  1  0
  3  4  1  0
  4  5  2  0
  5  6  1  0
  7  6  2  0
  8  7  1  0
  9  8  2  0
  9  4  1  0
 10 11  2  0
 10  2  1  0
 13 12  1  6
 14 13  1  0
 15 13  1  0
 16 15  1  1
 16 17  1  0
 17 10  1  0
 18 24  1  0
 18 16  1  0
 19 18  2  0
 21 20  1  1
 21 22  1  0
 23 21  1  0
 23 24  1  6
 25 26  1  0
 25 23  1  0
 27 25  2  0
M  END
$$$$
