FLV.pdb
     RDKit          3D

 27 27  0  0  1  0  0  0  0  0999 V2000
    9.1264  -17.0246   26.1945 N   0  0  0  0  0  0  0  0  0  0  0  0
    7.7121  -17.0144   26.0048 C   0  0  1  0  0  0  0  0  0  0  0  0
    6.9897  -16.0429   26.9003 C   0  0  0  0  0  0  0  0  0  0  0  0
    7.9910  -15.1530   27.5242 C   0  0  0  0  0  0  0  0  0  0  0  0
    7.8836  -13.7835   27.4075 C   0  0  0  0  0  0  0  0  0  0  0  0
    8.8320  -12.9782   27.9997 C   0  0  0  0  0  0  0  0  0  0  0  0
    9.8864  -13.5089   28.7066 C   0  0  0  0  0  0  0  0  0  0  0  0
   10.0044  -14.8842   28.8305 C   0  0  0  0  0  0  0  0  0  0  0  0
    9.0470  -15.6814   28.2320 C   0  0  0  0  0  0  0  0  0  0  0  0
    7.4319  -16.6087   24.6005 C   0  0  0  0  0  0  0  0  0  0  0  0
    6.4266  -17.0335   23.9803 O   0  0  0  0  0  0  0  0  0  0  0  0
    8.2981  -12.2205   20.8288 C   0  0  0  0  0  0  0  0  0  0  0  0
    8.2134  -13.7181   20.8357 C   0  0  2  0  0  0  0  0  0  0  0  0
    6.8661  -14.1405   20.2053 C   0  0  0  0  0  0  0  0  0  0  0  0
    8.2477  -14.2789   22.1824 C   0  0  0  0  0  0  0  0  0  0  0  0
    8.3945  -15.7178   22.4568 C   0  0  2  0  0  0  0  0  0  0  0  0
    8.3044  -15.7411   23.9663 N   0  0  0  0  0  0  0  0  0  0  0  0
    9.6403  -16.4056   22.1685 C   0  0  0  0  0  0  0  0  0  0  0  0
    9.9632  -16.6087   20.9434 O   0  0  0  0  0  0  0  0  0  0  0  0
   14.2872  -17.4607   22.8479 C   0  0  0  0  0  0  0  0  0  0  0  0
   13.0214  -16.7769   23.3121 C   0  0  1  0  0  0  0  0  0  0  0  0
   13.0560  -15.3180   22.9305 C   0  0  0  0  0  0  0  0  0  0  0  0
   11.8526  -17.5008   22.6733 C   0  0  2  0  0  0  0  0  0  0  0  0
   10.5852  -16.8887   23.1033 N   0  0  0  0  0  0  0  0  0  0  0  0
   11.8832  -18.9123   23.0430 C   0  0  0  0  0  0  0  0  0  0  0  0
   12.6812  -19.8005   22.3419 O   0  0  0  0  0  0  0  0  0  0  0  0
   11.2057  -19.3552   23.9822 O   0  0  0  0  0  0  0  0  0  0  0  0
  2  1  1  1
  2  3  1  0
  3  4  1  0
  4  5  2  0
  5  6  1  0
  7  6  2  0
  8  7  1  0
  9  8  2  0
  9  4  1  0
 10 11  2  0
 10  2  1  0
 13 12  1  1
 14 13  1  0
 15 13  1  0
 16 15  1  1
 16 17  1  0
 17 10  1  0
 18 24  1  0
 18 16  1  0
 19 18  2  0
 21 20  1  6
 21 22  1  0
 23 21  1  0
 23 24  1  1
 25 26  1  0
 25 23  1  0
 27 25  2  0
M  END
$$$$
