FLV.pdb
     RDKit          3D

 27 27  0  0  1  0  0  0  0  0999 V2000
    5.5277  -19.0789   23.9808 N   0  0  0  0  0  0  0  0  0  0  0  0
    5.8028  -17.7629   24.4591 C   0  0  1  0  0  0  0  0  0  0  0  0
    5.9760  -17.6873   25.9531 C   0  0  0  0  0  0  0  0  0  0  0  0
    6.1922  -16.2735   26.3250 C   0  0  0  0  0  0  0  0  0  0  0  0
    5.3586  -15.2856   25.8457 C   0  0  0  0  0  0  0  0  0  0  0  0
    5.5841  -13.9756   26.2091 C   0  0  0  0  0  0  0  0  0  0  0  0
    6.6237  -13.6288   27.0409 C   0  0  0  0  0  0  0  0  0  0  0  0
    7.4680  -14.6136   27.5287 C   0  0  0  0  0  0  0  0  0  0  0  0
    7.2316  -15.9237   27.1571 C   0  0  0  0  0  0  0  0  0  0  0  0
    7.0772  -17.2995   23.8456 C   0  0  0  0  0  0  0  0  0  0  0  0
    8.0779  -18.0521   23.7581 O   0  0  0  0  0  0  0  0  0  0  0  0
    8.1813  -12.1808   20.7859 C   0  0  0  0  0  0  0  0  0  0  0  0
    8.7145  -13.5628   21.0220 C   0  0  2  0  0  0  0  0  0  0  0  0
    8.6626  -14.3475   19.6906 C   0  0  0  0  0  0  0  0  0  0  0  0
    7.9234  -14.3149   21.9905 C   0  0  0  0  0  0  0  0  0  0  0  0
    8.4138  -15.5243   22.6719 C   0  0  2  0  0  0  0  0  0  0  0  0
    7.1562  -16.0054   23.3605 N   0  0  0  0  0  0  0  0  0  0  0  0
    9.3876  -15.4292   23.7446 C   0  0  0  0  0  0  0  0  0  0  0  0
   10.6357  -15.4611   23.4489 O   0  0  0  0  0  0  0  0  0  0  0  0
   10.8518  -14.0953   28.2396 C   0  0  0  0  0  0  0  0  0  0  0  0
    9.7035  -14.2573   27.2698 C   0  0  1  0  0  0  0  0  0  0  0  0
    9.2080  -12.9025   26.8293 C   0  0  0  0  0  0  0  0  0  0  0  0
   10.2072  -15.0822   26.1018 C   0  0  2  0  0  0  0  0  0  0  0  0
    9.1242  -15.2889   25.1271 N   0  0  0  0  0  0  0  0  0  0  0  0
   10.7067  -16.3666   26.5823 C   0  0  0  0  0  0  0  0  0  0  0  0
   11.8588  -16.4253   27.3482 O   0  0  0  0  0  0  0  0  0  0  0  0
   10.1248  -17.4305   26.3239 O   0  0  0  0  0  0  0  0  0  0  0  0
  2  1  1  1
  2  3  1  0
  3  4  1  0
  4  5  2  0
  5  6  1  0
  7  6  2  0
  8  7  1  0
  9  8  2  0
  9  4  1  0
 10 11  2  0
 10  2  1  0
 13 12  1  6
 14 13  1  0
 15 13  1  0
 16 15  1  1
 16 17  1  0
 17 10  1  0
 18 24  1  0
 18 16  1  0
 19 18  2  0
 21 20  1  1
 21 22  1  0
 23 21  1  0
 23 24  1  6
 25 26  1  0
 25 23  1  0
 27 25  2  0
M  END
$$$$
