FLV.pdb
     RDKit          3D

 27 27  0  0  1  0  0  0  0  0999 V2000
    6.4431  -18.4507   26.8938 N   0  0  0  0  0  0  0  0  0  0  0  0
    7.3341  -17.3844   26.5692 C   0  0  1  0  0  0  0  0  0  0  0  0
    8.7031  -17.5347   27.1784 C   0  0  0  0  0  0  0  0  0  0  0  0
    9.2149  -16.1884   27.5094 C   0  0  0  0  0  0  0  0  0  0  0  0
    8.8931  -15.1019   26.7243 C   0  0  0  0  0  0  0  0  0  0  0  0
    9.3847  -13.8582   27.0570 C   0  0  0  0  0  0  0  0  0  0  0  0
   10.1910  -13.6741   28.1565 C   0  0  0  0  0  0  0  0  0  0  0  0
   10.5210  -14.7592   28.9529 C   0  0  0  0  0  0  0  0  0  0  0  0
   10.0218  -16.0014   28.6090 C   0  0  0  0  0  0  0  0  0  0  0  0
    7.5118  -17.3571   25.0918 C   0  0  0  0  0  0  0  0  0  0  0  0
    7.5932  -18.4134   24.4186 O   0  0  0  0  0  0  0  0  0  0  0  0
    7.6755  -12.5485   21.3892 C   0  0  0  0  0  0  0  0  0  0  0  0
    7.8204  -14.0413   21.3704 C   0  0  2  0  0  0  0  0  0  0  0  0
    6.7189  -14.6341   20.4614 C   0  0  0  0  0  0  0  0  0  0  0  0
    7.6518  -14.6411   22.6900 C   0  0  0  0  0  0  0  0  0  0  0  0
    7.8803  -16.0692   22.9655 C   0  0  2  0  0  0  0  0  0  0  0  0
    7.5888  -16.1340   24.4481 N   0  0  0  0  0  0  0  0  0  0  0  0
    9.2069  -16.6463   22.8425 C   0  0  0  0  0  0  0  0  0  0  0  0
    9.3747  -17.6435   22.0528 O   0  0  0  0  0  0  0  0  0  0  0  0
   14.0498  -16.4704   22.7200 C   0  0  0  0  0  0  0  0  0  0  0  0
   12.7246  -15.7754   22.9347 C   0  0  1  0  0  0  0  0  0  0  0  0
   12.3688  -14.9598   21.7168 C   0  0  0  0  0  0  0  0  0  0  0  0
   11.6901  -16.8462   23.2199 C   0  0  2  0  0  0  0  0  0  0  0  0
   10.3858  -16.2248   23.5002 N   0  0  0  0  0  0  0  0  0  0  0  0
   12.1178  -17.6573   24.3553 C   0  0  0  0  0  0  0  0  0  0  0  0
   11.3845  -17.6561   25.5299 O   0  0  0  0  0  0  0  0  0  0  0  0
   13.1363  -18.3627   24.3059 O   0  0  0  0  0  0  0  0  0  0  0  0
  2  1  1  6
  2  3  1  0
  3  4  1  0
  4  5  2  0
  5  6  1  0
  7  6  2  0
  8  7  1  0
  9  8  2  0
  9  4  1  0
 10 11  2  0
 10  2  1  0
 13 12  1  1
 14 13  1  0
 15 13  1  0
 16 15  1  1
 16 17  1  0
 17 10  1  0
 18 24  1  0
 18 16  1  0
 19 18  2  0
 21 20  1  6
 21 22  1  0
 23 21  1  0
 23 24  1  1
 25 26  1  0
 25 23  1  0
 27 25  2  0
M  END
$$$$
