PWQ.pdb
     RDKit          3D

 31 33  0  0  1  0  0  0  0  0999 V2000
   28.0822  -21.4309  -12.1431 N   0  0  0  0  0  0  0  0  0  0  0  0
   29.4815  -21.6336  -12.3621 C   0  0  0  0  0  0  0  0  0  0  0  0
   30.1338  -20.5586  -11.5290 C   0  0  0  0  0  0  0  0  0  0  0  0
   29.1948  -19.3726  -11.7856 C   0  0  0  0  0  0  0  0  0  0  0  0
   27.8652  -20.0603  -11.7640 C   0  0  1  0  0  0  0  0  0  0  0  0
   26.8650  -19.4677  -12.6826 C   0  0  0  0  0  0  0  0  0  0  0  0
   26.5635  -18.2468  -12.6714 O   0  0  0  0  0  0  0  0  0  0  0  0
   26.2281  -20.3284  -13.6101 N   0  0  0  0  0  0  0  0  0  0  0  0
   25.2298  -19.7987  -14.5579 C   0  0  1  0  0  0  0  0  0  0  0  0
   25.7465  -20.0107  -15.9656 C   0  0  0  0  0  0  0  0  0  0  0  0
   26.9167  -19.2154  -16.2998 C   0  0  0  0  0  0  0  0  0  0  0  0
   28.2364  -19.6749  -16.4327 C   0  0  0  0  0  0  0  0  0  0  0  0
   29.0345  -18.6440  -16.7269 N   0  0  0  0  0  0  0  0  0  0  0  0
   28.3263  -17.5042  -16.8017 C   0  0  0  0  0  0  0  0  0  0  0  0
   28.6415  -16.1785  -17.0682 C   0  0  0  0  0  0  0  0  0  0  0  0
   27.7046  -15.1826  -17.0835 C   0  0  0  0  0  0  0  0  0  0  0  0
   26.3806  -15.5169  -16.8202 C   0  0  0  0  0  0  0  0  0  0  0  0
   26.0755  -16.8430  -16.5552 C   0  0  0  0  0  0  0  0  0  0  0  0
   27.0039  -17.8467  -16.5373 C   0  0  0  0  0  0  0  0  0  0  0  0
   23.9690  -20.5205  -14.2874 C   0  0  0  0  0  0  0  0  0  0  0  0
   23.9862  -21.7528  -13.9376 O   0  0  0  0  0  0  0  0  0  0  0  0
   23.0952  -20.8045   -9.5467 N   0  0  0  0  0  0  0  0  0  0  0  0
   21.6878  -20.9870   -9.7376 C   0  0  0  0  0  0  0  0  0  0  0  0
   21.0228  -21.2772   -8.6871 O   0  0  0  0  0  0  0  0  0  0  0  0
   21.0391  -20.8449  -11.0533 C   0  0  0  0  0  0  0  0  0  0  0  0
   22.0241  -20.5035  -12.1117 C   0  0  0  0  0  0  0  0  0  0  0  0
   21.5605  -20.3918  -13.5084 C   0  0  2  0  0  0  0  0  0  0  0  0
   22.6679  -19.9524  -14.3793 N   0  0  0  0  0  0  0  0  0  0  0  0
   20.3267  -19.6989  -13.7896 C   0  0  0  0  0  0  0  0  0  0  0  0
   19.2408  -19.9036  -13.2090 O   0  0  0  0  0  0  0  0  0  0  0  0
   20.2917  -18.7088  -14.7850 O   0  0  0  0  0  0  0  0  0  0  0  0
  2  1  1  0
  3  4  1  0
  3  2  1  0
  4  5  1  0
  5  1  1  0
  5  6  1  6
  7  6  2  0
  8  6  1  0
  9 10  1  6
  9  8  1  0
 10 11  1  0
 11 19  1  0
 12 11  2  0
 12 13  1  0
 13 14  1  0
 14 15  2  0
 15 16  1  0
 17 16  2  0
 18 17  1  0
 19 18  2  0
 19 14  1  0
 20 21  2  0
 20  9  1  0
 22 23  1  0
 23 24  2  0
 25 26  1  0
 25 23  1  0
 27 26  1  1
 27 28  1  0
 28 20  1  0
 29 27  1  0
 29 31  1  0
 30 29  2  0
M  END
$$$$
