PWQ.pdb
     RDKit          3D

 31 33  0  0  1  0  0  0  0  0999 V2000
   27.3125  -19.1752  -13.6473 N   0  0  0  0  0  0  0  0  0  0  0  0
   28.2316  -18.1255  -13.9642 C   0  0  0  0  0  0  0  0  0  0  0  0
   29.3574  -18.8368  -14.6726 C   0  0  0  0  0  0  0  0  0  0  0  0
   29.4771  -20.1150  -13.8323 C   0  0  0  0  0  0  0  0  0  0  0  0
   28.0330  -20.4186  -13.5799 C   0  0  1  0  0  0  0  0  0  0  0  0
   27.7701  -21.0473  -12.2642 C   0  0  0  0  0  0  0  0  0  0  0  0
   28.3218  -22.1146  -11.8928 O   0  0  0  0  0  0  0  0  0  0  0  0
   26.8533  -20.4048  -11.3962 N   0  0  0  0  0  0  0  0  0  0  0  0
   26.0940  -21.1846  -10.4009 C   0  0  1  0  0  0  0  0  0  0  0  0
   26.9954  -21.4527   -9.2138 C   0  0  0  0  0  0  0  0  0  0  0  0
   27.0476  -20.3698   -8.2453 C   0  0  0  0  0  0  0  0  0  0  0  0
   26.3982  -19.1286   -8.3350 C   0  0  0  0  0  0  0  0  0  0  0  0
   26.7047  -18.3923   -7.2626 N   0  0  0  0  0  0  0  0  0  0  0  0
   27.5304  -19.0681   -6.4454 C   0  0  0  0  0  0  0  0  0  0  0  0
   28.1420  -18.7874   -5.2309 C   0  0  0  0  0  0  0  0  0  0  0  0
   28.9608  -19.6759   -4.5905 C   0  0  0  0  0  0  0  0  0  0  0  0
   29.1875  -20.9125   -5.1852 C   0  0  0  0  0  0  0  0  0  0  0  0
   28.5725  -21.1838   -6.3977 C   0  0  0  0  0  0  0  0  0  0  0  0
   27.7522  -20.3031   -7.0466 C   0  0  0  0  0  0  0  0  0  0  0  0
   24.9035  -20.3799  -10.0559 C   0  0  0  0  0  0  0  0  0  0  0  0
   25.0136  -19.1284   -9.8053 O   0  0  0  0  0  0  0  0  0  0  0  0
   22.8403  -21.4734  -15.1197 N   0  0  0  0  0  0  0  0  0  0  0  0
   21.7960  -20.8892  -14.3334 C   0  0  0  0  0  0  0  0  0  0  0  0
   20.6193  -21.3244  -14.5702 O   0  0  0  0  0  0  0  0  0  0  0  0
   22.0521  -19.8586  -13.3114 C   0  0  0  0  0  0  0  0  0  0  0  0
   22.9730  -20.3553  -12.2567 C   0  0  0  0  0  0  0  0  0  0  0  0
   22.4997  -20.3995  -10.8594 C   0  0  2  0  0  0  0  0  0  0  0  0
   23.5753  -20.8828   -9.9721 N   0  0  0  0  0  0  0  0  0  0  0  0
   21.2244  -21.0062  -10.5648 C   0  0  0  0  0  0  0  0  0  0  0  0
   21.0511  -22.2092  -10.2802 O   0  0  0  0  0  0  0  0  0  0  0  0
   20.0568  -20.2260  -10.5870 O   0  0  0  0  0  0  0  0  0  0  0  0
  2  1  1  0
  3  4  1  0
  3  2  1  0
  4  5  1  0
  5  1  1  0
  5  6  1  1
  7  6  2  0
  8  6  1  0
  9 10  1  1
  9  8  1  0
 10 11  1  0
 11 19  1  0
 12 11  2  0
 12 13  1  0
 13 14  1  0
 14 15  2  0
 15 16  1  0
 17 16  2  0
 18 17  1  0
 19 18  2  0
 19 14  1  0
 20 21  2  0
 20  9  1  0
 22 23  1  0
 23 24  2  0
 25 26  1  0
 25 23  1  0
 27 26  1  6
 27 28  1  0
 28 20  1  0
 29 27  1  0
 29 31  1  0
 30 29  2  0
M  END
$$$$
