PWQ.pdb
     RDKit          3D

 31 33  0  0  1  0  0  0  0  0999 V2000
   15.5727  -20.0143    4.7681 N   0  0  0  0  0  0  0  0  0  0  0  0
   16.2796  -18.7957    4.5187 C   0  0  0  0  0  0  0  0  0  0  0  0
   16.3115  -18.7016    3.0136 C   0  0  0  0  0  0  0  0  0  0  0  0
   16.5767  -20.1633    2.6297 C   0  0  0  0  0  0  0  0  0  0  0  0
   15.7100  -20.8736    3.6225 C   0  0  1  0  0  0  0  0  0  0  0  0
   16.2515  -22.1778    4.0712 C   0  0  0  0  0  0  0  0  0  0  0  0
   15.5863  -22.9965    4.7558 O   0  0  0  0  0  0  0  0  0  0  0  0
   17.5805  -22.5030    3.7041 N   0  0  0  0  0  0  0  0  0  0  0  0
   18.1405  -23.8300    4.0220 C   0  0  1  0  0  0  0  0  0  0  0  0
   19.1832  -24.1721    2.9783 C   0  0  0  0  0  0  0  0  0  0  0  0
   18.6455  -24.7776    1.7710 C   0  0  0  0  0  0  0  0  0  0  0  0
   17.2919  -24.8881    1.4160 C   0  0  0  0  0  0  0  0  0  0  0  0
   17.1939  -25.5234    0.2443 N   0  0  0  0  0  0  0  0  0  0  0  0
   18.4121  -25.8520   -0.2186 C   0  0  0  0  0  0  0  0  0  0  0  0
   18.8792  -26.5017   -1.3533 C   0  0  0  0  0  0  0  0  0  0  0  0
   20.2090  -26.7142   -1.5912 C   0  0  0  0  0  0  0  0  0  0  0  0
   21.1291  -26.2579   -0.6535 C   0  0  0  0  0  0  0  0  0  0  0  0
   20.6533  -25.6103    0.4762 C   0  0  0  0  0  0  0  0  0  0  0  0
   19.3264  -25.3926    0.7242 C   0  0  0  0  0  0  0  0  0  0  0  0
   18.6957  -23.7355    5.3882 C   0  0  0  0  0  0  0  0  0  0  0  0
   19.5008  -22.7891    5.7001 O   0  0  0  0  0  0  0  0  0  0  0  0
   16.0268  -25.2258   10.6721 N   0  0  0  0  0  0  0  0  0  0  0  0
   17.2322  -24.6110   11.1405 C   0  0  0  0  0  0  0  0  0  0  0  0
   17.3124  -24.4491   12.4044 O   0  0  0  0  0  0  0  0  0  0  0  0
   18.3169  -24.1954   10.2336 C   0  0  0  0  0  0  0  0  0  0  0  0
   17.9346  -24.3759    8.8094 C   0  0  0  0  0  0  0  0  0  0  0  0
   18.9994  -24.4783    7.7924 C   0  0  2  0  0  0  0  0  0  0  0  0
   18.4080  -24.6380    6.4498 N   0  0  0  0  0  0  0  0  0  0  0  0
   20.1085  -25.3727    8.0189 C   0  0  0  0  0  0  0  0  0  0  0  0
   20.9644  -25.2407    8.9178 O   0  0  0  0  0  0  0  0  0  0  0  0
   20.2834  -26.4936    7.1909 O   0  0  0  0  0  0  0  0  0  0  0  0
  2  1  1  0
  3  4  1  0
  3  2  1  0
  4  5  1  0
  5  1  1  0
  5  6  1  1
  7  6  2  0
  8  6  1  0
  9 10  1  6
  9  8  1  0
 10 11  1  0
 11 19  1  0
 12 11  2  0
 12 13  1  0
 13 14  1  0
 14 15  2  0
 15 16  1  0
 17 16  2  0
 18 17  1  0
 19 18  2  0
 19 14  1  0
 20 21  2  0
 20  9  1  0
 22 23  1  0
 23 24  2  0
 25 26  1  0
 25 23  1  0
 27 26  1  1
 27 28  1  0
 28 20  1  0
 29 27  1  0
 29 31  1  0
 30 29  2  0
M  END
$$$$
