PWQ.pdb
     RDKit          3D

 31 33  0  0  1  0  0  0  0  0999 V2000
   28.6165  -20.8110  -14.3731 N   0  0  0  0  0  0  0  0  0  0  0  0
   28.4369  -19.7865  -15.3555 C   0  0  0  0  0  0  0  0  0  0  0  0
   28.7066  -18.5112  -14.5966 C   0  0  0  0  0  0  0  0  0  0  0  0
   28.0189  -18.8105  -13.2580 C   0  0  0  0  0  0  0  0  0  0  0  0
   28.3920  -20.2479  -13.0685 C   0  0  1  0  0  0  0  0  0  0  0  0
   27.3581  -21.0529  -12.3769 C   0  0  0  0  0  0  0  0  0  0  0  0
   26.6709  -21.9307  -12.9589 O   0  0  0  0  0  0  0  0  0  0  0  0
   27.1458  -20.8113  -10.9972 N   0  0  0  0  0  0  0  0  0  0  0  0
   26.0362  -21.4719  -10.2847 C   0  0  1  0  0  0  0  0  0  0  0  0
   26.5055  -21.8228   -8.8882 C   0  0  0  0  0  0  0  0  0  0  0  0
   26.9936  -20.6903   -8.1185 C   0  0  0  0  0  0  0  0  0  0  0  0
   26.8221  -19.3304   -8.4214 C   0  0  0  0  0  0  0  0  0  0  0  0
   27.4307  -18.5910   -7.4891 N   0  0  0  0  0  0  0  0  0  0  0  0
   28.0089  -19.3774   -6.5652 C   0  0  0  0  0  0  0  0  0  0  0  0
   28.7491  -19.1435   -5.4140 C   0  0  0  0  0  0  0  0  0  0  0  0
   29.2353  -20.1514   -4.6280 C   0  0  0  0  0  0  0  0  0  0  0  0
   28.9746  -21.4653   -5.0020 C   0  0  0  0  0  0  0  0  0  0  0  0
   28.2347  -21.6889   -6.1529 C   0  0  0  0  0  0  0  0  0  0  0  0
   27.7438  -20.6891   -6.9460 C   0  0  0  0  0  0  0  0  0  0  0  0
   24.9049  -20.5212  -10.2952 C   0  0  0  0  0  0  0  0  0  0  0  0
   25.1113  -19.2647  -10.4355 O   0  0  0  0  0  0  0  0  0  0  0  0
   22.4328  -19.3972  -15.0305 N   0  0  0  0  0  0  0  0  0  0  0  0
   22.1629  -20.7628  -14.6947 C   0  0  0  0  0  0  0  0  0  0  0  0
   21.7690  -21.4996  -15.6601 O   0  0  0  0  0  0  0  0  0  0  0  0
   22.3319  -21.2943  -13.3305 C   0  0  0  0  0  0  0  0  0  0  0  0
   22.8964  -20.2705  -12.4137 C   0  0  0  0  0  0  0  0  0  0  0  0
   22.4819  -20.2753  -10.9972 C   0  0  2  0  0  0  0  0  0  0  0  0
   23.5352  -20.8815  -10.1601 N   0  0  0  0  0  0  0  0  0  0  0  0
   21.1616  -20.7413  -10.6494 C   0  0  0  0  0  0  0  0  0  0  0  0
   20.1081  -20.0885  -10.7987 O   0  0  0  0  0  0  0  0  0  0  0  0
   20.9948  -22.0214  -10.0963 O   0  0  0  0  0  0  0  0  0  0  0  0
  2  1  1  0
  3  4  1  0
  3  2  1  0
  4  5  1  0
  5  1  1  0
  5  6  1  6
  7  6  2  0
  8  6  1  0
  9 10  1  1
  9  8  1  0
 10 11  1  0
 11 19  1  0
 12 11  2  0
 12 13  1  0
 13 14  1  0
 14 15  2  0
 15 16  1  0
 17 16  2  0
 18 17  1  0
 19 18  2  0
 19 14  1  0
 20 21  2  0
 20  9  1  0
 22 23  1  0
 23 24  2  0
 25 26  1  0
 25 23  1  0
 27 26  1  6
 27 28  1  0
 28 20  1  0
 29 27  1  0
 29 31  1  0
 30 29  2  0
M  END
$$$$
