PWQ.pdb
     RDKit          3D

 31 33  0  0  1  0  0  0  0  0999 V2000
   26.9949  -18.8758  -15.3991 N   0  0  0  0  0  0  0  0  0  0  0  0
   28.0094  -17.9105  -15.1055 C   0  0  0  0  0  0  0  0  0  0  0  0
   29.2760  -18.5583  -15.6066 C   0  0  0  0  0  0  0  0  0  0  0  0
   29.0580  -20.0135  -15.1716 C   0  0  0  0  0  0  0  0  0  0  0  0
   27.6006  -20.1786  -15.4718 C   0  0  1  0  0  0  0  0  0  0  0  0
   26.8913  -21.0833  -14.5370 C   0  0  0  0  0  0  0  0  0  0  0  0
   27.2680  -22.2605  -14.3050 O   0  0  0  0  0  0  0  0  0  0  0  0
   25.7381  -20.5849  -13.8823 N   0  0  0  0  0  0  0  0  0  0  0  0
   24.8706  -21.4892  -13.1044 C   0  0  1  0  0  0  0  0  0  0  0  0
   25.5420  -21.7720  -11.7767 C   0  0  0  0  0  0  0  0  0  0  0  0
   25.9465  -20.5827  -11.0452 C   0  0  0  0  0  0  0  0  0  0  0  0
   26.2292  -19.3182  -11.5851 C   0  0  0  0  0  0  0  0  0  0  0  0
   26.5864  -18.4883  -10.6003 N   0  0  0  0  0  0  0  0  0  0  0  0
   26.5618  -19.1223   -9.4155 C   0  0  0  0  0  0  0  0  0  0  0  0
   26.8334  -18.7486   -8.1061 C   0  0  0  0  0  0  0  0  0  0  0  0
   26.7279  -19.6129   -7.0517 C   0  0  0  0  0  0  0  0  0  0  0  0
   26.3311  -20.9212   -7.3069 C   0  0  0  0  0  0  0  0  0  0  0  0
   26.0621  -21.2850   -8.6173 C   0  0  0  0  0  0  0  0  0  0  0  0
   26.1643  -20.4293   -9.6789 C   0  0  0  0  0  0  0  0  0  0  0  0
   23.5690  -20.8038  -12.9626 C   0  0  0  0  0  0  0  0  0  0  0  0
   23.5178  -19.5519  -12.6958 O   0  0  0  0  0  0  0  0  0  0  0  0
   18.8347  -20.3002  -16.5613 N   0  0  0  0  0  0  0  0  0  0  0  0
   19.4836  -21.5505  -16.3039 C   0  0  0  0  0  0  0  0  0  0  0  0
   19.3589  -22.4337  -17.2173 O   0  0  0  0  0  0  0  0  0  0  0  0
   20.2523  -21.8086  -15.0733 C   0  0  0  0  0  0  0  0  0  0  0  0
   20.3051  -20.6062  -14.2024 C   0  0  0  0  0  0  0  0  0  0  0  0
   21.0376  -20.6833  -12.9234 C   0  0  2  0  0  0  0  0  0  0  0  0
   22.2986  -21.4287  -13.1025 N   0  0  0  0  0  0  0  0  0  0  0  0
   20.3305  -21.0707  -11.7270 C   0  0  0  0  0  0  0  0  0  0  0  0
   20.5614  -22.0995  -11.0589 O   0  0  0  0  0  0  0  0  0  0  0  0
   19.2931  -20.2620  -11.2347 O   0  0  0  0  0  0  0  0  0  0  0  0
  2  1  1  0
  3  4  1  0
  3  2  1  0
  4  5  1  0
  5  1  1  0
  5  6  1  1
  7  6  2  0
  8  6  1  0
  9 10  1  1
  9  8  1  0
 10 11  1  0
 11 19  1  0
 12 11  2  0
 12 13  1  0
 13 14  1  0
 14 15  2  0
 15 16  1  0
 17 16  2  0
 18 17  1  0
 19 18  2  0
 19 14  1  0
 20 21  2  0
 20  9  1  0
 22 23  1  0
 23 24  2  0
 25 26  1  0
 25 23  1  0
 27 26  1  6
 27 28  1  0
 28 20  1  0
 29 27  1  0
 29 31  1  0
 30 29  2  0
M  END
$$$$
