PWQ.pdb
     RDKit          3D

 31 33  0  0  1  0  0  0  0  0999 V2000
   20.3651  -13.2732  -19.0704 N   0  0  0  0  0  0  0  0  0  0  0  0
   20.6289  -14.4748  -19.8008 C   0  0  0  0  0  0  0  0  0  0  0  0
   20.1984  -15.5697  -18.8569 C   0  0  0  0  0  0  0  0  0  0  0  0
   20.7101  -15.0252  -17.5167 C   0  0  0  0  0  0  0  0  0  0  0  0
   20.3825  -13.5718  -17.6633 C   0  0  1  0  0  0  0  0  0  0  0  0
   21.3489  -12.6661  -16.9991 C   0  0  0  0  0  0  0  0  0  0  0  0
   21.7197  -12.8157  -15.8068 O   0  0  0  0  0  0  0  0  0  0  0  0
   21.8702  -11.5871  -17.7548 N   0  0  0  0  0  0  0  0  0  0  0  0
   22.7937  -10.6180  -17.1355 C   0  0  1  0  0  0  0  0  0  0  0  0
   24.0879  -10.6201  -17.9220 C   0  0  0  0  0  0  0  0  0  0  0  0
   24.9803  -11.7225  -17.6030 C   0  0  0  0  0  0  0  0  0  0  0  0
   24.9739  -13.0034  -18.1770 C   0  0  0  0  0  0  0  0  0  0  0  0
   25.9304  -13.7451  -17.6103 N   0  0  0  0  0  0  0  0  0  0  0  0
   26.5895  -13.0352  -16.6787 C   0  0  0  0  0  0  0  0  0  0  0  0
   27.6415  -13.3050  -15.8137 C   0  0  0  0  0  0  0  0  0  0  0  0
   28.1377  -12.3787  -14.9386 C   0  0  0  0  0  0  0  0  0  0  0  0
   27.5606  -11.1135  -14.9181 C   0  0  0  0  0  0  0  0  0  0  0  0
   26.5107  -10.8535  -15.7854 C   0  0  0  0  0  0  0  0  0  0  0  0
   26.0068  -11.7719  -16.6641 C   0  0  0  0  0  0  0  0  0  0  0  0
   22.1052   -9.3106  -17.1540 C   0  0  0  0  0  0  0  0  0  0  0  0
   21.5044   -8.9057  -18.2105 O   0  0  0  0  0  0  0  0  0  0  0  0
   17.7428   -6.8275  -14.0000 N   0  0  0  0  0  0  0  0  0  0  0  0
   17.6665   -7.0321  -15.4152 C   0  0  0  0  0  0  0  0  0  0  0  0
   16.4883   -7.1582  -15.8905 O   0  0  0  0  0  0  0  0  0  0  0  0
   18.8616   -7.0879  -16.2758 C   0  0  0  0  0  0  0  0  0  0  0  0
   20.1117   -7.0621  -15.4735 C   0  0  0  0  0  0  0  0  0  0  0  0
   21.4101   -7.0784  -16.1751 C   0  0  2  0  0  0  0  0  0  0  0  0
   22.0372   -8.4089  -16.0556 N   0  0  0  0  0  0  0  0  0  0  0  0
   22.3461   -6.0032  -15.9531 C   0  0  0  0  0  0  0  0  0  0  0  0
   23.5341   -6.1482  -15.5988 O   0  0  0  0  0  0  0  0  0  0  0  0
   21.9382   -4.6717  -16.1359 O   0  0  0  0  0  0  0  0  0  0  0  0
  2  1  1  0
  3  4  1  0
  3  2  1  0
  4  5  1  0
  5  1  1  0
  5  6  1  1
  7  6  2  0
  8  6  1  0
  9 10  1  6
  9  8  1  0
 10 11  1  0
 11 19  1  0
 12 11  2  0
 12 13  1  0
 13 14  1  0
 14 15  2  0
 15 16  1  0
 17 16  2  0
 18 17  1  0
 19 18  2  0
 19 14  1  0
 20 21  2  0
 20  9  1  0
 22 23  1  0
 23 24  2  0
 25 26  1  0
 25 23  1  0
 27 26  1  1
 27 28  1  0
 28 20  1  0
 29 27  1  0
 29 31  1  0
 30 29  2  0
M  END
$$$$
