PWQ.pdb
     RDKit          3D

 31 33  0  0  1  0  0  0  0  0999 V2000
   26.5609  -18.6021  -14.6831 N   0  0  0  0  0  0  0  0  0  0  0  0
   27.2054  -17.5129  -14.0161 C   0  0  0  0  0  0  0  0  0  0  0  0
   28.6477  -17.6361  -14.4401 C   0  0  0  0  0  0  0  0  0  0  0  0
   28.8432  -19.1572  -14.3910 C   0  0  0  0  0  0  0  0  0  0  0  0
   27.5366  -19.6242  -14.9530 C   0  0  1  0  0  0  0  0  0  0  0  0
   27.0553  -20.9020  -14.3778 C   0  0  0  0  0  0  0  0  0  0  0  0
   27.7694  -21.9350  -14.3107 O   0  0  0  0  0  0  0  0  0  0  0  0
   25.7279  -20.9462  -13.8847 N   0  0  0  0  0  0  0  0  0  0  0  0
   25.2054  -22.1725  -13.2533 C   0  0  1  0  0  0  0  0  0  0  0  0
   26.0158  -22.4506  -12.0045 C   0  0  0  0  0  0  0  0  0  0  0  0
   25.8665  -21.4514  -10.9592 C   0  0  0  0  0  0  0  0  0  0  0  0
   24.7359  -20.6581  -10.7087 C   0  0  0  0  0  0  0  0  0  0  0  0
   24.9874  -19.8449   -9.6784 N   0  0  0  0  0  0  0  0  0  0  0  0
   26.2325  -20.0430   -9.2129 C   0  0  0  0  0  0  0  0  0  0  0  0
   26.9883  -19.4879   -8.1889 C   0  0  0  0  0  0  0  0  0  0  0  0
   28.2696  -19.8805   -7.9168 C   0  0  0  0  0  0  0  0  0  0  0  0
   28.8356  -20.8789   -8.7022 C   0  0  0  0  0  0  0  0  0  0  0  0
   28.0734  -21.4272   -9.7221 C   0  0  0  0  0  0  0  0  0  0  0  0
   26.7917  -21.0424  -10.0030 C   0  0  0  0  0  0  0  0  0  0  0  0
   23.7755  -21.9251  -12.9744 C   0  0  0  0  0  0  0  0  0  0  0  0
   23.3453  -20.7332  -12.7864 O   0  0  0  0  0  0  0  0  0  0  0  0
   20.2473  -23.7202   -8.7409 N   0  0  0  0  0  0  0  0  0  0  0  0
   19.2449  -23.1123   -9.5631 C   0  0  0  0  0  0  0  0  0  0  0  0
   18.1063  -22.9451   -9.0103 O   0  0  0  0  0  0  0  0  0  0  0  0
   19.5018  -22.6972  -10.9537 C   0  0  0  0  0  0  0  0  0  0  0  0
   20.9194  -22.9236  -11.3361 C   0  0  0  0  0  0  0  0  0  0  0  0
   21.3473  -22.6025  -12.7117 C   0  0  2  0  0  0  0  0  0  0  0  0
   22.7744  -22.9325  -12.8916 N   0  0  0  0  0  0  0  0  0  0  0  0
   20.9993  -21.3223  -13.2786 C   0  0  0  0  0  0  0  0  0  0  0  0
   21.2605  -20.2153  -12.7643 O   0  0  0  0  0  0  0  0  0  0  0  0
   20.3126  -21.2625  -14.5023 O   0  0  0  0  0  0  0  0  0  0  0  0
  2  1  1  0
  3  4  1  0
  3  2  1  0
  4  5  1  0
  5  1  1  0
  5  6  1  1
  7  6  2  0
  8  6  1  0
  9 10  1  1
  9  8  1  0
 10 11  1  0
 11 19  1  0
 12 11  2  0
 12 13  1  0
 13 14  1  0
 14 15  2  0
 15 16  1  0
 17 16  2  0
 18 17  1  0
 19 18  2  0
 19 14  1  0
 20 21  2  0
 20  9  1  0
 22 23  1  0
 23 24  2  0
 25 26  1  0
 25 23  1  0
 27 26  1  1
 27 28  1  0
 28 20  1  0
 29 27  1  0
 29 31  1  0
 30 29  2  0
M  END
$$$$
