PWQ.pdb
     RDKit          3D

 31 33  0  0  1  0  0  0  0  0999 V2000
   28.3998  -19.4015  -19.1006 N   0  0  0  0  0  0  0  0  0  0  0  0
   28.5716  -18.7653  -20.3705 C   0  0  0  0  0  0  0  0  0  0  0  0
   29.7008  -17.7936  -20.1345 C   0  0  0  0  0  0  0  0  0  0  0  0
   29.3512  -17.2649  -18.7372 C   0  0  0  0  0  0  0  0  0  0  0  0
   28.8878  -18.5230  -18.0712 C   0  0  1  0  0  0  0  0  0  0  0  0
   27.8105  -18.3163  -17.0752 C   0  0  0  0  0  0  0  0  0  0  0  0
   27.9225  -17.5329  -16.0979 O   0  0  0  0  0  0  0  0  0  0  0  0
   26.6053  -19.0413  -17.2454 N   0  0  0  0  0  0  0  0  0  0  0  0
   25.5114  -18.9137  -16.2643 C   0  0  1  0  0  0  0  0  0  0  0  0
   24.1963  -19.1345  -16.9823 C   0  0  0  0  0  0  0  0  0  0  0  0
   23.0267  -19.0742  -16.1212 C   0  0  0  0  0  0  0  0  0  0  0  0
   22.4900  -17.9304  -15.5097 C   0  0  0  0  0  0  0  0  0  0  0  0
   21.4268  -18.2790  -14.7788 N   0  0  0  0  0  0  0  0  0  0  0  0
   21.2105  -19.6029  -14.8606 C   0  0  0  0  0  0  0  0  0  0  0  0
   20.2719  -20.4708  -14.3187 C   0  0  0  0  0  0  0  0  0  0  0  0
   20.2747  -21.8153  -14.5681 C   0  0  0  0  0  0  0  0  0  0  0  0
   21.2621  -22.3308  -15.4010 C   0  0  0  0  0  0  0  0  0  0  0  0
   22.1948  -21.4565  -15.9374 C   0  0  0  0  0  0  0  0  0  0  0  0
   22.2014  -20.1109  -15.6948 C   0  0  0  0  0  0  0  0  0  0  0  0
   25.7730  -19.9160  -15.2105 C   0  0  0  0  0  0  0  0  0  0  0  0
   26.3211  -21.0372  -15.4996 O   0  0  0  0  0  0  0  0  0  0  0  0
   24.2893  -19.9317   -9.3627 N   0  0  0  0  0  0  0  0  0  0  0  0
   25.4415  -20.7745   -9.2512 C   0  0  0  0  0  0  0  0  0  0  0  0
   25.5597  -21.4020   -8.1456 O   0  0  0  0  0  0  0  0  0  0  0  0
   26.4277  -20.9205  -10.3366 C   0  0  0  0  0  0  0  0  0  0  0  0
   26.0696  -20.0865  -11.5128 C   0  0  0  0  0  0  0  0  0  0  0  0
   25.8596  -20.7451  -12.8169 C   0  0  2  0  0  0  0  0  0  0  0  0
   25.4622  -19.7504  -13.8320 N   0  0  0  0  0  0  0  0  0  0  0  0
   25.0663  -21.9485  -12.8805 C   0  0  0  0  0  0  0  0  0  0  0  0
   23.8428  -21.9889  -13.1243 O   0  0  0  0  0  0  0  0  0  0  0  0
   25.6701  -23.1969  -12.6581 O   0  0  0  0  0  0  0  0  0  0  0  0
  2  1  1  0
  3  4  1  0
  3  2  1  0
  4  5  1  0
  5  1  1  0
  5  6  1  1
  7  6  2  0
  8  6  1  0
  9 10  1  6
  9  8  1  0
 10 11  1  0
 11 19  1  0
 12 11  2  0
 12 13  1  0
 13 14  1  0
 14 15  2  0
 15 16  1  0
 17 16  2  0
 18 17  1  0
 19 18  2  0
 19 14  1  0
 20 21  2  0
 20  9  1  0
 22 23  1  0
 23 24  2  0
 25 26  1  0
 25 23  1  0
 27 26  1  1
 27 28  1  0
 28 20  1  0
 29 27  1  0
 29 31  1  0
 30 29  2  0
M  END
$$$$
