RMM.pdb
     RDKit          3D

 28 27  0  0  1  0  0  0  0  0999 V2000
   26.4104  -15.5842  -15.1038 N   0  0  0  0  0  0  0  0  0  0  0  0
   26.9355  -15.5763  -16.4215 C   0  0  0  0  0  0  0  0  0  0  0  0
   27.2626  -14.4565  -16.9552 N   0  0  0  0  0  0  0  0  0  0  0  0
   27.0872  -16.8221  -17.1201 N   0  0  0  0  0  0  0  0  0  0  0  0
   26.8798  -18.0686  -16.4664 C   0  0  0  0  0  0  0  0  0  0  0  0
   27.8806  -18.5334  -15.4858 C   0  0  0  0  0  0  0  0  0  0  0  0
   27.3855  -19.0137  -14.1773 C   0  0  0  0  0  0  0  0  0  0  0  0
   27.6822  -20.4378  -13.9090 C   0  0  2  0  0  0  0  0  0  0  0  0
   27.4655  -21.2930  -15.0650 N   0  0  0  0  0  0  0  0  0  0  0  0
   26.8394  -20.9597  -12.7565 C   0  0  0  0  0  0  0  0  0  0  0  0
   26.0001  -21.8296  -12.9908 O   0  0  0  0  0  0  0  0  0  0  0  0
   27.6123  -14.4438  -17.9186 C   0  0  0  0  0  0  0  0  0  0  0  0
   28.2434  -20.4893   -6.2035 S   0  0  0  0  0  0  0  0  0  0  0  0
   26.5974  -19.7461   -6.3978 C   0  0  0  0  0  0  0  0  0  0  0  0
   25.7606  -20.4482   -7.8718 C   0  0  0  0  0  0  0  0  0  0  0  0
   26.6130  -20.1331   -9.0546 C   0  0  2  0  0  0  0  0  0  0  0  0
   26.0856  -20.6018  -10.3521 N   0  0  0  0  0  0  0  0  0  0  0  0
   27.0071  -20.4664  -11.4443 C   0  0  0  0  0  0  0  0  0  0  0  0
   24.7124  -20.1559  -10.6929 O   0  0  0  0  0  0  0  0  0  0  0  0
   24.5735  -19.0765  -11.3057 C   0  0  0  0  0  0  0  0  0  0  0  0
   23.0661  -22.3919  -15.1687 S   0  0  0  0  0  0  0  0  0  0  0  0
   21.6560  -21.2586  -15.0941 C   0  0  0  0  0  0  0  0  0  0  0  0
   21.3374  -20.8225  -13.3959 C   0  0  0  0  0  0  0  0  0  0  0  0
   22.4639  -20.8820  -12.4517 C   0  0  1  0  0  0  0  0  0  0  0  0
   22.2514  -20.5325  -11.0281 N   0  0  0  0  0  0  0  0  0  0  0  0
   23.5533  -20.8651  -10.3732 C   0  0  0  0  0  0  0  0  0  0  0  0
   21.1683  -21.1895  -10.3116 O   0  0  0  0  0  0  0  0  0  0  0  0
   19.8932  -20.7020  -10.1667 O   0  0  0  0  0  0  0  0  0  0  0  0
  2  1  1  0
  3  2  2  0
  4  2  1  0
  5  4  1  0
  6  5  1  0
  7  6  1  0
  7  8  1  0
  8  9  1  6
 10  8  1  0
 10 17  1  0
 11 10  2  0
 12 13  1  0
 13 14  1  0
 16 15  1  1
 15 14  1  0
 16 17  1  0
 18 16  1  0
 19 18  2  0
 21 20  1  0
 21 22  1  0
 22 23  1  0
 24 23  1  6
 24 25  1  0
 24 26  1  0
 25 18  1  0
 26 27  1  0
 28 26  2  0
M  END
$$$$
