RMM.pdb
     RDKit          3D

 28 27  0  0  1  0  0  0  0  0999 V2000
   13.7539  -22.8302   -4.1463 N   0  0  0  0  0  0  0  0  0  0  0  0
   12.8193  -21.9777   -3.5045 C   0  0  0  0  0  0  0  0  0  0  0  0
   11.8805  -21.4470   -4.1993 N   0  0  0  0  0  0  0  0  0  0  0  0
   12.9498  -21.7339   -2.0949 N   0  0  0  0  0  0  0  0  0  0  0  0
   13.7988  -22.5334   -1.2799 C   0  0  0  0  0  0  0  0  0  0  0  0
   13.3088  -23.8458   -0.8142 C   0  0  0  0  0  0  0  0  0  0  0  0
   14.1732  -24.6103    0.1112 C   0  0  0  0  0  0  0  0  0  0  0  0
   15.4014  -25.1441   -0.5172 C   0  0  2  0  0  0  0  0  0  0  0  0
   15.1312  -25.9929   -1.6665 N   0  0  0  0  0  0  0  0  0  0  0  0
   16.2238  -25.9361    0.4863 C   0  0  0  0  0  0  0  0  0  0  0  0
   15.9814  -27.1351    0.6270 O   0  0  0  0  0  0  0  0  0  0  0  0
   11.1946  -20.8425   -3.7360 C   0  0  0  0  0  0  0  0  0  0  0  0
   21.5952  -23.2918    3.7509 S   0  0  0  0  0  0  0  0  0  0  0  0
   21.8509  -25.0654    3.4541 C   0  0  0  0  0  0  0  0  0  0  0  0
   20.2413  -25.9454    3.4778 C   0  0  0  0  0  0  0  0  0  0  0  0
   19.3796  -25.3163    2.4355 C   0  0  2  0  0  0  0  0  0  0  0  0
   18.0532  -25.9409    2.2558 N   0  0  0  0  0  0  0  0  0  0  0  0
   17.2447  -25.3220    1.2441 C   0  0  0  0  0  0  0  0  0  0  0  0
   17.3012  -26.2348    3.5002 O   0  0  0  0  0  0  0  0  0  0  0  0
   16.3117  -25.5251    3.7777 C   0  0  0  0  0  0  0  0  0  0  0  0
   11.6529  -29.1010    6.5816 S   0  0  0  0  0  0  0  0  0  0  0  0
   12.7617  -28.4684    5.2977 C   0  0  0  0  0  0  0  0  0  0  0  0
   14.3824  -28.2089    5.9917 C   0  0  0  0  0  0  0  0  0  0  0  0
   15.4293  -27.6787    5.1046 C   0  0  1  0  0  0  0  0  0  0  0  0
   16.8049  -27.4884    5.6198 N   0  0  0  0  0  0  0  0  0  0  0  0
   17.6254  -27.2591    4.3916 C   0  0  0  0  0  0  0  0  0  0  0  0
   17.4005  -28.5588    6.4059 O   0  0  0  0  0  0  0  0  0  0  0  0
   18.4280  -29.3734    5.9998 O   0  0  0  0  0  0  0  0  0  0  0  0
  2  1  1  0
  3  2  2  0
  4  2  1  0
  5  4  1  0
  6  5  1  0
  7  6  1  0
  7  8  1  0
  8  9  1  6
 10  8  1  0
 10 17  1  0
 11 10  2  0
 12 13  1  0
 13 14  1  0
 16 15  1  6
 15 14  1  0
 16 17  1  0
 18 16  1  0
 19 18  2  0
 21 20  1  0
 21 22  1  0
 22 23  1  0
 24 23  1  1
 24 25  1  0
 24 26  1  0
 25 18  1  0
 26 27  1  0
 28 26  2  0
M  END
$$$$
