RMM.pdb
     RDKit          3D

 28 27  0  0  1  0  0  0  0  0999 V2000
   28.0918  -25.1807  -16.3362 N   0  0  0  0  0  0  0  0  0  0  0  0
   28.1706  -25.0014  -17.7412 C   0  0  0  0  0  0  0  0  0  0  0  0
   27.5931  -25.8497  -18.5109 N   0  0  0  0  0  0  0  0  0  0  0  0
   28.8937  -23.8747  -18.2618 N   0  0  0  0  0  0  0  0  0  0  0  0
   29.1089  -22.7061  -17.4792 C   0  0  0  0  0  0  0  0  0  0  0  0
   28.0796  -21.6479  -17.4822 C   0  0  0  0  0  0  0  0  0  0  0  0
   27.9372  -20.8279  -16.2593 C   0  0  0  0  0  0  0  0  0  0  0  0
   27.6760  -21.6159  -15.0350 C   0  0  2  0  0  0  0  0  0  0  0  0
   26.8450  -22.7847  -15.2757 N   0  0  0  0  0  0  0  0  0  0  0  0
   27.0095  -20.7595  -13.9706 C   0  0  0  0  0  0  0  0  0  0  0  0
   27.4326  -19.6179  -13.7867 O   0  0  0  0  0  0  0  0  0  0  0  0
   27.7051  -25.7625  -19.5260 C   0  0  0  0  0  0  0  0  0  0  0  0
   20.9511  -19.7931  -12.0501 S   0  0  0  0  0  0  0  0  0  0  0  0
   21.6985  -19.1634  -13.5812 C   0  0  0  0  0  0  0  0  0  0  0  0
   23.5164  -19.4071  -13.5399 C   0  0  0  0  0  0  0  0  0  0  0  0
   23.8121  -20.3277  -12.4042 C   0  0  2  0  0  0  0  0  0  0  0  0
   25.2467  -20.5654  -12.1451 N   0  0  0  0  0  0  0  0  0  0  0  0
   25.9294  -21.2509  -13.2054 C   0  0  0  0  0  0  0  0  0  0  0  0
   25.5836  -21.0944  -10.8007 O   0  0  0  0  0  0  0  0  0  0  0  0
   25.6138  -22.3326  -10.6402 C   0  0  0  0  0  0  0  0  0  0  0  0
   29.1668  -18.2908   -6.4371 S   0  0  0  0  0  0  0  0  0  0  0  0
   28.0645  -19.0879   -5.2422 C   0  0  0  0  0  0  0  0  0  0  0  0
   26.9539  -20.1842   -6.1026 C   0  0  0  0  0  0  0  0  0  0  0  0
   26.7639  -19.9707   -7.5456 C   0  0  1  0  0  0  0  0  0  0  0  0
   25.8858  -20.8817   -8.3160 N   0  0  0  0  0  0  0  0  0  0  0  0
   25.8719  -20.2971   -9.6916 C   0  0  0  0  0  0  0  0  0  0  0  0
   24.5175  -21.0709   -7.8574 O   0  0  0  0  0  0  0  0  0  0  0  0
   24.1268  -21.8743   -6.8152 O   0  0  0  0  0  0  0  0  0  0  0  0
  2  1  1  0
  3  2  2  0
  4  2  1  0
  5  4  1  0
  6  5  1  0
  7  6  1  0
  7  8  1  0
  8  9  1  6
 10  8  1  0
 10 17  1  0
 11 10  2  0
 12 13  1  0
 13 14  1  0
 16 15  1  6
 15 14  1  0
 16 17  1  0
 18 16  1  0
 19 18  2  0
 21 20  1  0
 21 22  1  0
 22 23  1  0
 24 23  1  6
 24 25  1  0
 24 26  1  0
 25 18  1  0
 26 27  1  0
 28 26  2  0
M  END
$$$$
