RMM.pdb
     RDKit          3D

 28 27  0  0  1  0  0  0  0  0999 V2000
   32.2338  -21.9758   -8.2106 N   0  0  0  0  0  0  0  0  0  0  0  0
   31.9250  -22.0277   -9.5941 C   0  0  0  0  0  0  0  0  0  0  0  0
   32.7171  -22.6527  -10.3863 N   0  0  0  0  0  0  0  0  0  0  0  0
   30.7337  -21.3802  -10.0683 N   0  0  0  0  0  0  0  0  0  0  0  0
   29.5746  -21.2697   -9.2509 C   0  0  0  0  0  0  0  0  0  0  0  0
   28.4388  -20.4586   -9.7322 C   0  0  0  0  0  0  0  0  0  0  0  0
   27.9059  -20.7579  -11.0792 C   0  0  0  0  0  0  0  0  0  0  0  0
   26.4412  -20.5871  -11.1970 C   0  0  2  0  0  0  0  0  0  0  0  0
   25.6902  -21.5192  -10.3713 N   0  0  0  0  0  0  0  0  0  0  0  0
   25.9908  -20.7480  -12.6399 C   0  0  0  0  0  0  0  0  0  0  0  0
   26.8346  -20.6537  -13.5316 O   0  0  0  0  0  0  0  0  0  0  0  0
   32.5327  -22.6370  -11.3944 C   0  0  0  0  0  0  0  0  0  0  0  0
   27.1025  -24.7670  -16.5059 S   0  0  0  0  0  0  0  0  0  0  0  0
   25.5363  -25.2182  -15.7041 C   0  0  0  0  0  0  0  0  0  0  0  0
   24.4533  -23.7439  -15.5654 C   0  0  0  0  0  0  0  0  0  0  0  0
   24.8508  -23.0201  -14.3233 C   0  0  2  0  0  0  0  0  0  0  0  0
   24.1495  -21.7415  -14.0892 N   0  0  0  0  0  0  0  0  0  0  0  0
   24.6394  -21.0007  -12.9616 C   0  0  0  0  0  0  0  0  0  0  0  0
   22.6682  -21.7941  -14.1498 O   0  0  0  0  0  0  0  0  0  0  0  0
   22.0693  -22.5680  -13.3739 C   0  0  0  0  0  0  0  0  0  0  0  0
   19.5846  -17.0290  -12.1337 S   0  0  0  0  0  0  0  0  0  0  0  0
   18.7019  -17.2714  -13.6958 C   0  0  0  0  0  0  0  0  0  0  0  0
   18.8646  -18.9701  -14.2091 C   0  0  0  0  0  0  0  0  0  0  0  0
   20.2236  -19.4984  -14.4044 C   0  0  1  0  0  0  0  0  0  0  0  0
   20.4139  -20.9084  -14.8164 N   0  0  0  0  0  0  0  0  0  0  0  0
   21.8893  -21.0317  -15.0221 C   0  0  0  0  0  0  0  0  0  0  0  0
   19.7192  -21.3784  -16.0058 O   0  0  0  0  0  0  0  0  0  0  0  0
   18.3910  -21.7182  -16.0749 O   0  0  0  0  0  0  0  0  0  0  0  0
  2  1  1  0
  3  2  2  0
  4  2  1  0
  5  4  1  0
  6  5  1  0
  7  6  1  0
  7  8  1  0
  8  9  1  1
 10  8  1  0
 10 17  1  0
 11 10  2  0
 12 13  1  0
 13 14  1  0
 16 15  1  6
 15 14  1  0
 16 17  1  0
 18 16  1  0
 19 18  2  0
 21 20  1  0
 21 22  1  0
 22 23  1  0
 24 23  1  1
 24 25  1  0
 24 26  1  0
 25 18  1  0
 26 27  1  0
 28 26  2  0
M  END
$$$$
