RMM.pdb
     RDKit          3D

 28 27  0  0  1  0  0  0  0  0999 V2000
   16.5765  -23.3160  -11.8232 N   0  0  0  0  0  0  0  0  0  0  0  0
   17.3021  -24.3560  -12.4590 C   0  0  0  0  0  0  0  0  0  0  0  0
   17.0644  -25.5729  -12.1300 N   0  0  0  0  0  0  0  0  0  0  0  0
   18.2813  -24.0170  -13.4538 N   0  0  0  0  0  0  0  0  0  0  0  0
   19.2566  -23.0079  -13.2203 C   0  0  0  0  0  0  0  0  0  0  0  0
   18.9304  -21.9024  -12.2979 C   0  0  0  0  0  0  0  0  0  0  0  0
   19.9194  -20.8111  -12.1603 C   0  0  0  0  0  0  0  0  0  0  0  0
   20.6258  -20.4790  -13.4169 C   0  0  2  0  0  0  0  0  0  0  0  0
   20.8671  -21.6396  -14.2592 N   0  0  0  0  0  0  0  0  0  0  0  0
   21.9576  -19.8052  -13.1287 C   0  0  0  0  0  0  0  0  0  0  0  0
   22.0281  -19.0294  -12.1753 O   0  0  0  0  0  0  0  0  0  0  0  0
   17.6086  -26.3249  -12.5646 C   0  0  0  0  0  0  0  0  0  0  0  0
   24.9681  -20.3069   -8.9435 S   0  0  0  0  0  0  0  0  0  0  0  0
   25.9365  -21.4798   -9.9363 C   0  0  0  0  0  0  0  0  0  0  0  0
   26.0201  -20.9101  -11.6782 C   0  0  0  0  0  0  0  0  0  0  0  0
   24.6199  -20.8425  -12.1876 C   0  0  2  0  0  0  0  0  0  0  0  0
   24.4546  -20.1491  -13.4813 N   0  0  0  0  0  0  0  0  0  0  0  0
   23.0938  -20.0565  -13.9284 C   0  0  0  0  0  0  0  0  0  0  0  0
   25.3928  -20.5523  -14.5574 O   0  0  0  0  0  0  0  0  0  0  0  0
   25.3091  -21.7115  -15.0146 C   0  0  0  0  0  0  0  0  0  0  0  0
   27.5466  -16.0243  -15.6699 S   0  0  0  0  0  0  0  0  0  0  0  0
   26.4986  -16.4486  -17.0841 C   0  0  0  0  0  0  0  0  0  0  0  0
   26.9407  -18.0678  -17.6826 C   0  0  0  0  0  0  0  0  0  0  0  0
   27.7655  -18.9177  -16.8100 C   0  0  2  0  0  0  0  0  0  0  0  0
   27.2029  -20.1715  -16.2571 N   0  0  0  0  0  0  0  0  0  0  0  0
   26.3723  -19.7186  -15.0997 C   0  0  0  0  0  0  0  0  0  0  0  0
   28.1271  -21.2047  -15.8137 O   0  0  0  0  0  0  0  0  0  0  0  0
   28.7001  -22.1623  -16.6131 O   0  0  0  0  0  0  0  0  0  0  0  0
  2  1  1  0
  3  2  2  0
  4  2  1  0
  5  4  1  0
  6  5  1  0
  7  6  1  0
  7  8  1  0
  8  9  1  1
 10  8  1  0
 10 17  1  0
 11 10  2  0
 12 13  1  0
 13 14  1  0
 16 15  1  1
 15 14  1  0
 16 17  1  0
 18 16  1  0
 19 18  2  0
 21 20  1  0
 21 22  1  0
 22 23  1  0
 24 23  1  6
 24 25  1  0
 24 26  1  0
 25 18  1  0
 26 27  1  0
 28 26  2  0
M  END
$$$$
