RMM.pdb
     RDKit          3D

 28 27  0  0  1  0  0  0  0  0999 V2000
   23.6529  -20.7881  -17.5021 N   0  0  0  0  0  0  0  0  0  0  0  0
   23.7918  -19.3904  -17.3037 C   0  0  0  0  0  0  0  0  0  0  0  0
   23.1138  -18.5864  -18.0383 N   0  0  0  0  0  0  0  0  0  0  0  0
   24.6865  -18.9152  -16.2854 N   0  0  0  0  0  0  0  0  0  0  0  0
   24.7717  -19.5534  -15.0168 C   0  0  0  0  0  0  0  0  0  0  0  0
   23.6463  -19.4121  -14.0718 C   0  0  0  0  0  0  0  0  0  0  0  0
   23.7126  -20.1790  -12.8086 C   0  0  0  0  0  0  0  0  0  0  0  0
   25.0899  -20.4404  -12.3364 C   0  0  2  0  0  0  0  0  0  0  0  0
   25.8408  -21.3139  -13.2239 N   0  0  0  0  0  0  0  0  0  0  0  0
   25.0791  -21.0564  -10.9468 C   0  0  0  0  0  0  0  0  0  0  0  0
   24.8345  -22.2584  -10.8401 O   0  0  0  0  0  0  0  0  0  0  0  0
   23.2061  -17.5761  -17.8928 C   0  0  0  0  0  0  0  0  0  0  0  0
   28.2847  -18.4863   -6.2423 S   0  0  0  0  0  0  0  0  0  0  0  0
   27.4877  -19.7316   -5.1872 C   0  0  0  0  0  0  0  0  0  0  0  0
   26.1222  -20.5484   -6.1005 C   0  0  0  0  0  0  0  0  0  0  0  0
   26.2082  -20.0962   -7.5192 C   0  0  2  0  0  0  0  0  0  0  0  0
   25.2121  -20.6945   -8.4310 N   0  0  0  0  0  0  0  0  0  0  0  0
   25.3428  -20.2782   -9.7985 C   0  0  0  0  0  0  0  0  0  0  0  0
   23.8077  -20.6848   -7.9532 O   0  0  0  0  0  0  0  0  0  0  0  0
   23.1181  -19.6637   -8.1574 C   0  0  0  0  0  0  0  0  0  0  0  0
   19.9313  -25.5376   -8.5297 S   0  0  0  0  0  0  0  0  0  0  0  0
   19.2006  -24.9101   -6.9966 C   0  0  0  0  0  0  0  0  0  0  0  0
   19.8260  -23.2737   -6.6703 C   0  0  0  0  0  0  0  0  0  0  0  0
   21.2301  -22.9977   -7.0114 C   0  0  2  0  0  0  0  0  0  0  0  0
   21.7836  -21.6383   -6.8112 N   0  0  0  0  0  0  0  0  0  0  0  0
   23.1972  -21.7473   -7.2846 C   0  0  0  0  0  0  0  0  0  0  0  0
   21.7655  -21.0780   -5.4681 O   0  0  0  0  0  0  0  0  0  0  0  0
   20.7314  -20.3674   -4.9113 O   0  0  0  0  0  0  0  0  0  0  0  0
  2  1  1  0
  3  2  2  0
  4  2  1  0
  5  4  1  0
  6  5  1  0
  7  6  1  0
  7  8  1  0
  8  9  1  6
 10  8  1  0
 10 17  1  0
 11 10  2  0
 12 13  1  0
 13 14  1  0
 16 15  1  6
 15 14  1  0
 16 17  1  0
 18 16  1  0
 19 18  2  0
 21 20  1  0
 21 22  1  0
 22 23  1  0
 24 23  1  6
 24 25  1  0
 24 26  1  0
 25 18  1  0
 26 27  1  0
 28 26  2  0
M  END
$$$$
