LYL.pdb
     RDKit          3D

 29 29  0  0  1  0  0  0  0  0999 V2000
   25.4443  -20.4929  -18.9590 C   0  0  0  0  0  0  0  0  0  0  0  0
   24.3733  -19.5082  -18.5541 C   0  0  2  0  0  0  0  0  0  0  0  0
   23.9963  -18.5881  -19.6851 C   0  0  0  0  0  0  0  0  0  0  0  0
   24.7436  -18.6949  -17.3542 C   0  0  0  0  0  0  0  0  0  0  0  0
   25.6257  -19.3986  -16.3760 C   0  0  2  0  0  0  0  0  0  0  0  0
   25.6788  -20.8115  -16.7154 N   0  0  0  0  0  0  0  0  0  0  0  0
   25.0764  -19.1934  -15.0113 C   0  0  0  0  0  0  0  0  0  0  0  0
   24.8732  -18.0160  -14.6172 O   0  0  0  0  0  0  0  0  0  0  0  0
   18.4806  -18.7017  -15.7711 O   0  0  0  0  0  0  0  0  0  0  0  0
   19.5585  -19.2802  -15.1022 C   0  0  0  0  0  0  0  0  0  0  0  0
   19.6442  -19.2690  -13.7266 C   0  0  0  0  0  0  0  0  0  0  0  0
   20.7134  -19.8431  -13.0709 C   0  0  0  0  0  0  0  0  0  0  0  0
   21.7503  -20.4569  -13.7483 C   0  0  0  0  0  0  0  0  0  0  0  0
   22.8784  -21.0557  -13.0041 C   0  0  0  0  0  0  0  0  0  0  0  0
   24.1009  -20.1859  -12.9112 C   0  0  2  0  0  0  0  0  0  0  0  0
   24.7906  -20.3044  -14.1784 N   0  0  0  0  0  0  0  0  0  0  0  0
   25.0301  -20.6010  -11.8284 C   0  0  0  0  0  0  0  0  0  0  0  0
   25.7809  -21.5849  -12.0102 O   0  0  0  0  0  0  0  0  0  0  0  0
   21.6644  -20.4679  -15.1254 C   0  0  0  0  0  0  0  0  0  0  0  0
   20.5860  -19.8890  -15.7918 C   0  0  0  0  0  0  0  0  0  0  0  0
   28.1774  -18.2248   -7.3393 C   0  0  0  0  0  0  0  0  0  0  0  0
   27.5029  -19.4714   -7.7741 C   0  0  1  0  0  0  0  0  0  0  0  0
   26.7529  -20.1450   -6.6237 C   0  0  0  0  0  0  0  0  0  0  0  0
   26.6578  -19.3488   -8.9628 C   0  0  0  0  0  0  0  0  0  0  0  0
   25.8900  -20.4971   -9.4965 C   0  0  2  0  0  0  0  0  0  0  0  0
   25.0832  -19.9128  -10.6062 N   0  0  0  0  0  0  0  0  0  0  0  0
   24.9072  -21.1508   -8.6414 C   0  0  0  0  0  0  0  0  0  0  0  0
   25.2208  -22.2368   -7.8551 O   0  0  0  0  0  0  0  0  0  0  0  0
   23.6876  -20.7688   -8.5661 O   0  0  0  0  0  0  0  0  0  0  0  0
  2  1  1  6
  2  4  1  0
  3  2  1  0
  5  4  1  0
  5  6  1  6
  7  5  1  0
  7  8  2  0
  9 10  1  0
 10 20  2  0
 10 11  1  0
 11 12  2  0
 12 13  1  0
 13 14  1  0
 15 14  1  6
 15 16  1  0
 15 17  1  0
 16  7  1  0
 17 18  2  0
 19 13  2  0
 20 19  1  0
 22 21  1  1
 22 24  1  0
 23 22  1  0
 25 24  1  1
 25 27  1  0
 26 17  1  0
 26 25  1  0
 27 29  2  0
 27 28  1  0
M  END
$$$$
