LYL.pdb
     RDKit          3D

 29 29  0  0  1  0  0  0  0  0999 V2000
   26.9851  -13.5957  -15.4451 C   0  0  0  0  0  0  0  0  0  0  0  0
   27.4477  -12.7346  -16.5962 C   0  0  2  0  0  0  0  0  0  0  0  0
   28.6784  -11.9401  -16.2472 C   0  0  0  0  0  0  0  0  0  0  0  0
   26.3868  -11.8101  -17.1043 C   0  0  0  0  0  0  0  0  0  0  0  0
   25.0844  -12.4716  -17.4148 C   0  0  2  0  0  0  0  0  0  0  0  0
   25.2859  -13.4403  -18.4802 N   0  0  0  0  0  0  0  0  0  0  0  0
   24.1072  -11.4270  -17.8151 C   0  0  0  0  0  0  0  0  0  0  0  0
   24.3733  -10.7069  -18.8118 O   0  0  0  0  0  0  0  0  0  0  0  0
   16.0659   -8.0407  -19.2086 O   0  0  0  0  0  0  0  0  0  0  0  0
   17.1797   -8.7952  -18.8421 C   0  0  0  0  0  0  0  0  0  0  0  0
   18.2300   -9.0002  -19.7108 C   0  0  0  0  0  0  0  0  0  0  0  0
   19.3291   -9.7476  -19.3421 C   0  0  0  0  0  0  0  0  0  0  0  0
   19.4400  -10.3285  -18.0926 C   0  0  0  0  0  0  0  0  0  0  0  0
   20.6348  -11.1249  -17.7421 C   0  0  0  0  0  0  0  0  0  0  0  0
   21.8725  -10.3148  -17.4742 C   0  0  2  0  0  0  0  0  0  0  0  0
   22.9046  -11.2521  -17.0849 N   0  0  0  0  0  0  0  0  0  0  0  0
   21.6960   -9.3265  -16.3787 C   0  0  0  0  0  0  0  0  0  0  0  0
   21.7086   -9.7203  -15.1915 O   0  0  0  0  0  0  0  0  0  0  0  0
   18.3885  -10.1233  -17.2232 C   0  0  0  0  0  0  0  0  0  0  0  0
   17.2762   -9.3689  -17.5917 C   0  0  0  0  0  0  0  0  0  0  0  0
   21.9925   -4.7358  -13.5576 C   0  0  0  0  0  0  0  0  0  0  0  0
   21.7887   -4.5963  -15.0194 C   0  0  1  0  0  0  0  0  0  0  0  0
   22.6049   -3.4410  -15.6013 C   0  0  0  0  0  0  0  0  0  0  0  0
   21.9665   -5.8215  -15.8001 C   0  0  0  0  0  0  0  0  0  0  0  0
   21.1915   -7.0500  -15.5121 C   0  0  2  0  0  0  0  0  0  0  0  0
   21.5153   -7.9608  -16.6477 N   0  0  0  0  0  0  0  0  0  0  0  0
   19.7354   -6.9839  -15.5066 C   0  0  0  0  0  0  0  0  0  0  0  0
   19.0039   -6.7533  -16.6501 O   0  0  0  0  0  0  0  0  0  0  0  0
   19.0369   -7.1279  -14.4434 O   0  0  0  0  0  0  0  0  0  0  0  0
  2  1  1  1
  2  4  1  0
  3  2  1  0
  5  4  1  0
  5  6  1  6
  7  5  1  0
  7  8  2  0
  9 10  1  0
 10 20  2  0
 10 11  1  0
 11 12  2  0
 12 13  1  0
 13 14  1  0
 15 14  1  1
 15 16  1  0
 15 17  1  0
 16  7  1  0
 17 18  2  0
 19 13  2  0
 20 19  1  0
 22 21  1  1
 22 24  1  0
 23 22  1  0
 25 24  1  6
 25 27  1  0
 26 17  1  0
 26 25  1  0
 27 29  2  0
 27 28  1  0
M  END
$$$$
