LYL.pdb
     RDKit          3D

 29 29  0  0  1  0  0  0  0  0999 V2000
   27.2023  -23.0363  -20.8659 C   0  0  0  0  0  0  0  0  0  0  0  0
   27.1326  -24.4974  -20.4905 C   0  0  2  0  0  0  0  0  0  0  0  0
   26.2284  -25.2738  -21.4110 C   0  0  0  0  0  0  0  0  0  0  0  0
   26.7101  -24.7222  -19.0729 C   0  0  0  0  0  0  0  0  0  0  0  0
   27.3827  -23.8355  -18.0771 C   0  0  2  0  0  0  0  0  0  0  0  0
   28.6947  -24.3798  -17.7664 N   0  0  0  0  0  0  0  0  0  0  0  0
   26.5312  -23.7572  -16.8627 C   0  0  0  0  0  0  0  0  0  0  0  0
   26.0709  -24.8252  -16.3828 O   0  0  0  0  0  0  0  0  0  0  0  0
   23.7083  -20.3640   -9.1538 O   0  0  0  0  0  0  0  0  0  0  0  0
   24.3351  -20.6370  -10.3690 C   0  0  0  0  0  0  0  0  0  0  0  0
   24.0385  -19.9233  -11.5103 C   0  0  0  0  0  0  0  0  0  0  0  0
   24.6622  -20.1983  -12.7094 C   0  0  0  0  0  0  0  0  0  0  0  0
   25.6113  -21.1954  -12.8350 C   0  0  0  0  0  0  0  0  0  0  0  0
   26.2512  -21.4580  -14.1413 C   0  0  0  0  0  0  0  0  0  0  0  0
   25.4699  -22.3635  -15.0520 C   0  0  2  0  0  0  0  0  0  0  0  0
   26.2486  -22.5034  -16.2643 N   0  0  0  0  0  0  0  0  0  0  0  0
   24.1347  -21.8184  -15.4099 C   0  0  0  0  0  0  0  0  0  0  0  0
   24.0612  -20.8395  -16.1852 O   0  0  0  0  0  0  0  0  0  0  0  0
   25.9080  -21.9099  -11.6925 C   0  0  0  0  0  0  0  0  0  0  0  0
   25.2802  -21.6353  -10.4790 C   0  0  0  0  0  0  0  0  0  0  0  0
   20.1710  -23.5032  -18.1031 C   0  0  0  0  0  0  0  0  0  0  0  0
   21.0355  -22.5402  -17.3798 C   0  0  1  0  0  0  0  0  0  0  0  0
   20.9679  -21.1408  -17.9936 C   0  0  0  0  0  0  0  0  0  0  0  0
   20.8520  -22.4957  -15.9284 C   0  0  0  0  0  0  0  0  0  0  0  0
   21.6791  -21.6236  -15.0635 C   0  0  2  0  0  0  0  0  0  0  0  0
   22.9544  -22.3784  -14.8966 N   0  0  0  0  0  0  0  0  0  0  0  0
   21.2382  -21.3546  -13.7004 C   0  0  0  0  0  0  0  0  0  0  0  0
   20.5342  -20.2202  -13.3639 O   0  0  0  0  0  0  0  0  0  0  0  0
   21.4786  -22.1459  -12.7231 O   0  0  0  0  0  0  0  0  0  0  0  0
  2  1  1  6
  2  4  1  0
  3  2  1  0
  5  4  1  0
  5  6  1  1
  7  5  1  0
  7  8  2  0
  9 10  1  0
 10 20  2  0
 10 11  1  0
 11 12  2  0
 12 13  1  0
 13 14  1  0
 15 14  1  1
 15 16  1  0
 15 17  1  0
 16  7  1  0
 17 18  2  0
 19 13  2  0
 20 19  1  0
 22 21  1  6
 22 24  1  0
 23 22  1  0
 25 24  1  1
 25 27  1  0
 26 17  1  0
 26 25  1  0
 27 29  2  0
 27 28  1  0
M  END
$$$$
