LYL.pdb
     RDKit          3D

 29 29  0  0  1  0  0  0  0  0999 V2000
   23.7160  -19.1018  -19.2320 C   0  0  0  0  0  0  0  0  0  0  0  0
   23.2933  -20.4708  -18.7550 C   0  0  2  0  0  0  0  0  0  0  0  0
   21.8709  -20.7864  -19.1355 C   0  0  0  0  0  0  0  0  0  0  0  0
   23.4675  -20.6613  -17.2812 C   0  0  0  0  0  0  0  0  0  0  0  0
   24.8185  -20.2916  -16.7634 C   0  0  2  0  0  0  0  0  0  0  0  0
   25.8333  -20.9320  -17.5844 N   0  0  0  0  0  0  0  0  0  0  0  0
   24.9177  -20.7282  -15.3471 C   0  0  0  0  0  0  0  0  0  0  0  0
   24.1263  -21.6155  -14.9361 O   0  0  0  0  0  0  0  0  0  0  0  0
   28.0700  -20.3090   -6.9483 O   0  0  0  0  0  0  0  0  0  0  0  0
   27.8549  -20.1715   -8.3191 C   0  0  0  0  0  0  0  0  0  0  0  0
   28.3433  -21.0913   -9.2220 C   0  0  0  0  0  0  0  0  0  0  0  0
   28.1268  -20.9494  -10.5769 C   0  0  0  0  0  0  0  0  0  0  0  0
   27.4149  -19.8875  -11.1025 C   0  0  0  0  0  0  0  0  0  0  0  0
   27.2109  -19.7737  -12.5620 C   0  0  0  0  0  0  0  0  0  0  0  0
   26.0058  -20.5037  -13.0860 C   0  0  2  0  0  0  0  0  0  0  0  0
   25.8851  -20.1528  -14.4852 N   0  0  0  0  0  0  0  0  0  0  0  0
   24.7473  -20.1219  -12.3942 C   0  0  0  0  0  0  0  0  0  0  0  0
   24.1687  -19.0612  -12.7180 O   0  0  0  0  0  0  0  0  0  0  0  0
   26.9262  -18.9668  -10.1984 C   0  0  0  0  0  0  0  0  0  0  0  0
   27.1425  -19.1063   -8.8288 C   0  0  0  0  0  0  0  0  0  0  0  0
   20.1295  -21.3840  -13.2090 C   0  0  0  0  0  0  0  0  0  0  0  0
   21.1252  -20.5250  -12.5244 C   0  0  1  0  0  0  0  0  0  0  0  0
   20.5210  -19.1901  -12.0857 C   0  0  0  0  0  0  0  0  0  0  0  0
   21.8617  -21.1621  -11.4318 C   0  0  0  0  0  0  0  0  0  0  0  0
   22.9483  -20.4614  -10.7100 C   0  0  2  0  0  0  0  0  0  0  0  0
   24.1942  -20.9259  -11.3853 N   0  0  0  0  0  0  0  0  0  0  0  0
   23.1695  -20.7595   -9.3004 C   0  0  0  0  0  0  0  0  0  0  0  0
   22.3498  -20.2730   -8.3068 O   0  0  0  0  0  0  0  0  0  0  0  0
   24.1401  -21.4849   -8.8872 O   0  0  0  0  0  0  0  0  0  0  0  0
  2  1  1  1
  2  4  1  0
  3  2  1  0
  5  4  1  0
  5  6  1  6
  7  5  1  0
  7  8  2  0
  9 10  1  0
 10 20  2  0
 10 11  1  0
 11 12  2  0
 12 13  1  0
 13 14  1  0
 15 14  1  1
 15 16  1  0
 15 17  1  0
 16  7  1  0
 17 18  2  0
 19 13  2  0
 20 19  1  0
 22 21  1  1
 22 24  1  0
 23 22  1  0
 25 24  1  6
 25 27  1  0
 26 17  1  0
 26 25  1  0
 27 29  2  0
 27 28  1  0
M  END
$$$$
