LYL.pdb
     RDKit          3D

 29 29  0  0  1  0  0  0  0  0999 V2000
   29.1508  -18.1328  -16.4662 C   0  0  0  0  0  0  0  0  0  0  0  0
   27.6548  -18.1356  -16.6718 C   0  0  2  0  0  0  0  0  0  0  0  0
   27.1722  -16.8651  -17.3204 C   0  0  0  0  0  0  0  0  0  0  0  0
   26.8868  -18.3721  -15.4097 C   0  0  0  0  0  0  0  0  0  0  0  0
   27.4611  -19.4274  -14.5227 C   0  0  2  0  0  0  0  0  0  0  0  0
   27.2484  -20.7292  -15.1344 N   0  0  0  0  0  0  0  0  0  0  0  0
   26.7988  -19.3416  -13.1959 C   0  0  0  0  0  0  0  0  0  0  0  0
   26.5860  -18.2033  -12.7042 O   0  0  0  0  0  0  0  0  0  0  0  0
   20.4754  -19.2031  -15.2831 O   0  0  0  0  0  0  0  0  0  0  0  0
   21.4241  -19.7466  -14.4179 C   0  0  0  0  0  0  0  0  0  0  0  0
   22.4208  -20.5828  -14.8732 C   0  0  0  0  0  0  0  0  0  0  0  0
   23.3563  -21.1172  -14.0120 C   0  0  0  0  0  0  0  0  0  0  0  0
   23.3489  -20.8480  -12.6562 C   0  0  0  0  0  0  0  0  0  0  0  0
   24.3693  -21.4463  -11.7697 C   0  0  0  0  0  0  0  0  0  0  0  0
   25.4932  -20.5217  -11.3933 C   0  0  2  0  0  0  0  0  0  0  0  0
   26.4187  -20.5205  -12.5063 N   0  0  0  0  0  0  0  0  0  0  0  0
   26.2227  -20.9579  -10.1744 C   0  0  0  0  0  0  0  0  0  0  0  0
   26.7161  -22.1067  -10.1348 O   0  0  0  0  0  0  0  0  0  0  0  0
   22.3510  -20.0110  -12.2005 C   0  0  0  0  0  0  0  0  0  0  0  0
   21.4039  -19.4689  -13.0672 C   0  0  0  0  0  0  0  0  0  0  0  0
   29.2916  -20.6742   -5.6980 C   0  0  0  0  0  0  0  0  0  0  0  0
   28.1256  -19.7613   -5.7678 C   0  0  1  0  0  0  0  0  0  0  0  0
   28.4207  -18.4087   -5.1175 C   0  0  0  0  0  0  0  0  0  0  0  0
   27.5329  -19.5968   -7.0960 C   0  0  0  0  0  0  0  0  0  0  0  0
   26.8130  -20.7003   -7.7716 C   0  0  2  0  0  0  0  0  0  0  0  0
   26.3698  -20.1085   -9.0666 N   0  0  0  0  0  0  0  0  0  0  0  0
   25.5886  -21.2180   -7.1738 C   0  0  0  0  0  0  0  0  0  0  0  0
   25.5889  -22.2751   -6.2916 O   0  0  0  0  0  0  0  0  0  0  0  0
   24.4313  -20.7342   -7.4302 O   0  0  0  0  0  0  0  0  0  0  0  0
  2  1  1  1
  2  4  1  0
  3  2  1  0
  5  4  1  0
  5  6  1  6
  7  5  1  0
  7  8  2  0
  9 10  1  0
 10 20  2  0
 10 11  1  0
 11 12  2  0
 12 13  1  0
 13 14  1  0
 15 14  1  6
 15 16  1  0
 15 17  1  0
 16  7  1  0
 17 18  2  0
 19 13  2  0
 20 19  1  0
 22 21  1  6
 22 24  1  0
 23 22  1  0
 25 24  1  1
 25 27  1  0
 26 17  1  0
 26 25  1  0
 27 29  2  0
 27 28  1  0
M  END
$$$$
