LYL.pdb
     RDKit          3D

 29 29  0  0  1  0  0  0  0  0999 V2000
   27.7745  -12.2627  -18.9131 C   0  0  0  0  0  0  0  0  0  0  0  0
   26.5964  -13.2012  -19.0214 C   0  0  2  0  0  0  0  0  0  0  0  0
   26.5966  -13.9590  -20.3227 C   0  0  0  0  0  0  0  0  0  0  0  0
   25.2784  -12.5153  -18.8459 C   0  0  0  0  0  0  0  0  0  0  0  0
   25.1045  -11.8334  -17.5287 C   0  0  2  0  0  0  0  0  0  0  0  0
   25.3089  -12.8007  -16.4626 N   0  0  0  0  0  0  0  0  0  0  0  0
   23.7386  -11.2525  -17.4736 C   0  0  0  0  0  0  0  0  0  0  0  0
   22.9865  -11.3925  -18.4723 O   0  0  0  0  0  0  0  0  0  0  0  0
   15.6715   -9.5709  -14.7785 O   0  0  0  0  0  0  0  0  0  0  0  0
   17.0076   -9.9315  -14.9484 C   0  0  0  0  0  0  0  0  0  0  0  0
   17.5564  -10.0977  -16.2018 C   0  0  0  0  0  0  0  0  0  0  0  0
   18.8790  -10.4545  -16.3630 C   0  0  0  0  0  0  0  0  0  0  0  0
   19.7223  -10.6641  -15.2880 C   0  0  0  0  0  0  0  0  0  0  0  0
   21.1322  -11.0494  -15.5081 C   0  0  0  0  0  0  0  0  0  0  0  0
   21.9704  -10.0021  -16.1864 C   0  0  2  0  0  0  0  0  0  0  0  0
   23.3006  -10.5577  -16.3181 N   0  0  0  0  0  0  0  0  0  0  0  0
   22.0625   -8.7377  -15.4112 C   0  0  0  0  0  0  0  0  0  0  0  0
   22.7535   -8.7080  -14.3690 O   0  0  0  0  0  0  0  0  0  0  0  0
   19.1727  -10.4978  -14.0333 C   0  0  0  0  0  0  0  0  0  0  0  0
   17.8370  -10.1373  -13.8660 C   0  0  0  0  0  0  0  0  0  0  0  0
   22.8159   -3.6278  -14.2432 C   0  0  0  0  0  0  0  0  0  0  0  0
   22.0357   -3.9004  -15.4740 C   0  0  1  0  0  0  0  0  0  0  0  0
   22.4697   -3.0037  -16.6346 C   0  0  0  0  0  0  0  0  0  0  0  0
   21.9703   -5.3050  -15.8803 C   0  0  0  0  0  0  0  0  0  0  0  0
   21.4811   -6.3606  -14.9644 C   0  0  2  0  0  0  0  0  0  0  0  0
   21.3906   -7.5763  -15.8234 N   0  0  0  0  0  0  0  0  0  0  0  0
   20.1518   -6.2316  -14.3806 C   0  0  0  0  0  0  0  0  0  0  0  0
   19.0068   -6.2422  -15.1454 O   0  0  0  0  0  0  0  0  0  0  0  0
   19.9551   -6.0931  -13.1232 O   0  0  0  0  0  0  0  0  0  0  0  0
  2  1  1  6
  2  4  1  0
  3  2  1  0
  5  4  1  0
  5  6  1  1
  7  5  1  0
  7  8  2  0
  9 10  1  0
 10 20  2  0
 10 11  1  0
 11 12  2  0
 12 13  1  0
 13 14  1  0
 15 14  1  1
 15 16  1  0
 15 17  1  0
 16  7  1  0
 17 18  2  0
 19 13  2  0
 20 19  1  0
 22 21  1  1
 22 24  1  0
 23 22  1  0
 25 24  1  6
 25 27  1  0
 26 17  1  0
 26 25  1  0
 27 29  2  0
 27 28  1  0
M  END
$$$$
