LYL.pdb
     RDKit          3D

 29 29  0  0  1  0  0  0  0  0999 V2000
   29.6473  -33.8151  -16.6748 C   0  0  0  0  0  0  0  0  0  0  0  0
   29.2456  -32.3616  -16.7550 C   0  0  2  0  0  0  0  0  0  0  0  0
   30.2568  -31.4599  -16.0977 C   0  0  0  0  0  0  0  0  0  0  0  0
   27.8911  -32.0919  -16.1797 C   0  0  0  0  0  0  0  0  0  0  0  0
   26.7918  -32.9126  -16.7698 C   0  0  2  0  0  0  0  0  0  0  0  0
   26.5765  -32.4982  -18.1468 N   0  0  0  0  0  0  0  0  0  0  0  0
   25.5669  -32.7203  -15.9521 C   0  0  0  0  0  0  0  0  0  0  0  0
   24.6261  -32.0370  -16.4325 O   0  0  0  0  0  0  0  0  0  0  0  0
   18.0582  -34.3863  -12.3122 O   0  0  0  0  0  0  0  0  0  0  0  0
   19.3137  -34.2798  -12.9092 C   0  0  0  0  0  0  0  0  0  0  0  0
   19.7720  -33.0832  -13.4170 C   0  0  0  0  0  0  0  0  0  0  0  0
   21.0152  -32.9844  -14.0064 C   0  0  0  0  0  0  0  0  0  0  0  0
   21.8650  -34.0687  -14.1208 C   0  0  0  0  0  0  0  0  0  0  0  0
   23.1873  -33.9174  -14.7639 C   0  0  0  0  0  0  0  0  0  0  0  0
   24.2440  -33.3033  -13.8888 C   0  0  2  0  0  0  0  0  0  0  0  0
   25.4686  -33.2970  -14.6607 N   0  0  0  0  0  0  0  0  0  0  0  0
   24.4802  -34.0680  -12.6368 C   0  0  0  0  0  0  0  0  0  0  0  0
   25.1356  -35.1324  -12.6844 O   0  0  0  0  0  0  0  0  0  0  0  0
   21.4059  -35.2665  -13.6126 C   0  0  0  0  0  0  0  0  0  0  0  0
   20.1507  -35.3706  -13.0163 C   0  0  0  0  0  0  0  0  0  0  0  0
   25.6037  -31.4013   -8.0689 C   0  0  0  0  0  0  0  0  0  0  0  0
   25.6578  -32.4829   -9.0814 C   0  0  1  0  0  0  0  0  0  0  0  0
   26.9562  -33.2861   -8.9890 C   0  0  0  0  0  0  0  0  0  0  0  0
   24.4885  -33.3621   -9.1272 C   0  0  0  0  0  0  0  0  0  0  0  0
   24.3297  -34.3958  -10.1755 C   0  0  2  0  0  0  0  0  0  0  0  0
   23.9835  -33.6217  -11.4022 N   0  0  0  0  0  0  0  0  0  0  0  0
   23.2550  -35.3725  -10.0501 C   0  0  0  0  0  0  0  0  0  0  0  0
   21.9932  -35.1487  -10.5537 O   0  0  0  0  0  0  0  0  0  0  0  0
   23.4046  -36.4988   -9.4601 O   0  0  0  0  0  0  0  0  0  0  0  0
  2  1  1  1
  2  4  1  0
  3  2  1  0
  5  4  1  0
  5  6  1  6
  7  5  1  0
  7  8  2  0
  9 10  1  0
 10 20  2  0
 10 11  1  0
 11 12  2  0
 12 13  1  0
 13 14  1  0
 15 14  1  6
 15 16  1  0
 15 17  1  0
 16  7  1  0
 17 18  2  0
 19 13  2  0
 20 19  1  0
 22 21  1  1
 22 24  1  0
 23 22  1  0
 25 24  1  1
 25 27  1  0
 26 17  1  0
 26 25  1  0
 27 29  2  0
 27 28  1  0
M  END
$$$$
