KNS.pdb
     RDKit          3D

 24 23  0  0  1  0  0  0  0  0999 V2000
   18.2200  -12.5468  -17.6676 N   0  0  0  0  0  0  0  0  0  0  0  0
   17.7327  -11.3443  -17.0724 C   0  0  1  0  0  0  0  0  0  0  0  0
   17.2772  -11.6327  -15.6608 C   0  0  0  0  0  0  0  0  0  0  0  0
   16.1045  -12.5842  -15.6485 C   0  0  0  0  0  0  0  0  0  0  0  0
   15.5432  -12.8318  -14.2876 C   0  0  0  0  0  0  0  0  0  0  0  0
   14.3371  -13.7370  -14.4462 C   0  0  0  0  0  0  0  0  0  0  0  0
   13.6506  -13.9251  -13.1958 N   0  0  0  0  0  0  0  0  0  0  0  0
   18.7354  -10.2870  -17.1485 C   0  0  0  0  0  0  0  0  0  0  0  0
   19.9803  -10.4732  -17.1383 O   0  0  0  0  0  0  0  0  0  0  0  0
   20.7632   -5.4904  -19.3148 N   0  0  0  0  0  0  0  0  0  0  0  0
   19.7803   -5.6018  -18.2835 C   0  0  0  0  0  0  0  0  0  0  0  0
   19.6826   -4.7276  -17.3862 O   0  0  0  0  0  0  0  0  0  0  0  0
   18.8602   -6.7599  -18.2645 C   0  0  0  0  0  0  0  0  0  0  0  0
   19.2833   -7.8490  -17.3159 C   0  0  2  0  0  0  0  0  0  0  0  0
   18.3071   -8.9244  -17.2428 N   0  0  0  0  0  0  0  0  0  0  0  0
   19.4717   -7.3354  -15.9319 C   0  0  0  0  0  0  0  0  0  0  0  0
   18.4950   -7.1097  -15.1543 O   0  0  0  0  0  0  0  0  0  0  0  0
   22.7214   -8.1865  -13.8056 O   0  0  0  0  0  0  0  0  0  0  0  0
   21.4921   -7.8463  -13.2518 C   0  0  0  0  0  0  0  0  0  0  0  0
   20.9573   -6.6472  -14.0047 C   0  0  2  0  0  0  0  0  0  0  0  0
   20.7633   -7.0646  -15.3928 N   0  0  0  0  0  0  0  0  0  0  0  0
   21.8841   -5.4925  -13.9210 C   0  0  0  0  0  0  0  0  0  0  0  0
   22.5249   -5.0357  -14.8856 O   0  0  0  0  0  0  0  0  0  0  0  0
   22.0368   -4.8930  -12.6816 O   0  0  0  0  0  0  0  0  0  0  0  0
  2  8  1  0
  2  1  1  1
  3  2  1  0
  4  3  1  0
  5  4  1  0
  6  7  1  0
  6  5  1  0
  8  9  2  0
 11 10  1  0
 11 12  2  0
 13 11  1  0
 14 13  1  6
 15 14  1  0
 15  8  1  0
 16 14  1  0
 17 16  2  0
 18 19  1  0
 20 19  1  1
 20 21  1  0
 21 16  1  0
 22 24  1  0
 22 20  1  0
 23 22  2  0
M  END
$$$$
