KNS.pdb
     RDKit          3D

 24 23  0  0  1  0  0  0  0  0999 V2000
   20.3830  -12.7321  -16.5923 N   0  0  0  0  0  0  0  0  0  0  0  0
   19.9237  -11.3832  -16.6771 C   0  0  1  0  0  0  0  0  0  0  0  0
   18.4374  -11.3420  -16.4085 C   0  0  0  0  0  0  0  0  0  0  0  0
   17.7049  -12.3775  -17.2283 C   0  0  0  0  0  0  0  0  0  0  0  0
   16.2271  -12.3789  -17.0169 C   0  0  0  0  0  0  0  0  0  0  0  0
   15.6400  -13.4724  -17.8878 C   0  0  0  0  0  0  0  0  0  0  0  0
   14.2273  -13.6256  -17.6614 N   0  0  0  0  0  0  0  0  0  0  0  0
   20.6930  -10.5187  -15.7883 C   0  0  0  0  0  0  0  0  0  0  0  0
   20.5029  -10.4084  -14.5488 O   0  0  0  0  0  0  0  0  0  0  0  0
   23.5068  -11.4477  -14.6000 N   0  0  0  0  0  0  0  0  0  0  0  0
   24.4789  -10.5718  -15.1743 C   0  0  0  0  0  0  0  0  0  0  0  0
   25.6850  -10.9134  -15.2626 O   0  0  0  0  0  0  0  0  0  0  0  0
   24.0682   -9.2418  -15.6746 C   0  0  0  0  0  0  0  0  0  0  0  0
   22.6097   -8.9411  -15.4569 C   0  0  2  0  0  0  0  0  0  0  0  0
   21.7505   -9.7223  -16.3325 N   0  0  0  0  0  0  0  0  0  0  0  0
   22.2970   -7.5073  -15.7039 C   0  0  0  0  0  0  0  0  0  0  0  0
   21.8243   -7.0975  -16.8076 O   0  0  0  0  0  0  0  0  0  0  0  0
   20.0366   -3.9119  -15.1271 O   0  0  0  0  0  0  0  0  0  0  0  0
   20.5354   -5.2098  -15.1086 C   0  0  0  0  0  0  0  0  0  0  0  0
   22.0294   -5.1319  -14.8789 C   0  0  2  0  0  0  0  0  0  0  0  0
   22.5095   -6.5035  -14.7143 N   0  0  0  0  0  0  0  0  0  0  0  0
   22.3565   -4.3076  -13.6903 C   0  0  0  0  0  0  0  0  0  0  0  0
   22.5790   -4.7692  -12.5558 O   0  0  0  0  0  0  0  0  0  0  0  0
   22.4149   -2.9352  -13.8695 O   0  0  0  0  0  0  0  0  0  0  0  0
  2  8  1  0
  2  1  1  1
  3  2  1  0
  4  3  1  0
  5  4  1  0
  6  7  1  0
  6  5  1  0
  8  9  2  0
 11 10  1  0
 11 12  2  0
 13 11  1  0
 14 13  1  6
 15 14  1  0
 15  8  1  0
 16 14  1  0
 17 16  2  0
 18 19  1  0
 20 19  1  1
 20 21  1  0
 21 16  1  0
 22 24  1  0
 22 20  1  0
 23 22  2  0
M  END
$$$$
