KNS.pdb
     RDKit          3D

 24 23  0  0  1  0  0  0  0  0999 V2000
   15.5105  -11.2865  -16.5825 N   0  0  0  0  0  0  0  0  0  0  0  0
   16.7618  -11.0295  -15.9454 C   0  0  1  0  0  0  0  0  0  0  0  0
   17.8316  -11.8899  -16.5767 C   0  0  0  0  0  0  0  0  0  0  0  0
   17.4925  -13.3569  -16.4601 C   0  0  0  0  0  0  0  0  0  0  0  0
   17.8604  -13.9580  -15.1441 C   0  0  0  0  0  0  0  0  0  0  0  0
   17.5657  -15.4434  -15.2195 C   0  0  0  0  0  0  0  0  0  0  0  0
   17.7934  -16.0913  -13.9551 N   0  0  0  0  0  0  0  0  0  0  0  0
   17.0755   -9.6049  -15.9787 C   0  0  0  0  0  0  0  0  0  0  0  0
   17.0855   -8.8938  -17.0174 O   0  0  0  0  0  0  0  0  0  0  0  0
   15.1921   -7.0156  -15.8719 N   0  0  0  0  0  0  0  0  0  0  0  0
   15.4249   -6.5267  -14.5495 C   0  0  0  0  0  0  0  0  0  0  0  0
   14.5207   -5.9312  -13.9117 O   0  0  0  0  0  0  0  0  0  0  0  0
   16.7468   -6.7203  -13.9144 C   0  0  0  0  0  0  0  0  0  0  0  0
   17.7094   -7.5120  -14.7580 C   0  0  2  0  0  0  0  0  0  0  0  0
   17.4009   -8.9332  -14.7573 N   0  0  0  0  0  0  0  0  0  0  0  0
   19.1115   -7.3692  -14.2798 C   0  0  0  0  0  0  0  0  0  0  0  0
   19.5394   -7.9694  -13.2473 O   0  0  0  0  0  0  0  0  0  0  0  0
   23.6298   -6.4707  -15.4858 O   0  0  0  0  0  0  0  0  0  0  0  0
   22.2883   -6.5944  -15.8303 C   0  0  0  0  0  0  0  0  0  0  0  0
   21.4703   -6.5021  -14.5603 C   0  0  2  0  0  0  0  0  0  0  0  0
   20.0624   -6.5480  -14.9533 N   0  0  0  0  0  0  0  0  0  0  0  0
   21.7717   -5.2613  -13.8060 C   0  0  0  0  0  0  0  0  0  0  0  0
   22.6435   -5.1719  -12.9218 O   0  0  0  0  0  0  0  0  0  0  0  0
   21.0261   -4.1359  -14.1164 O   0  0  0  0  0  0  0  0  0  0  0  0
  2  8  1  0
  2  1  1  6
  3  2  1  0
  4  3  1  0
  5  4  1  0
  6  7  1  0
  6  5  1  0
  8  9  2  0
 11 10  1  0
 11 12  2  0
 13 11  1  0
 14 13  1  1
 15 14  1  0
 15  8  1  0
 16 14  1  0
 17 16  2  0
 18 19  1  0
 20 19  1  6
 20 21  1  0
 21 16  1  0
 22 24  1  0
 22 20  1  0
 23 22  2  0
M  END
$$$$
