KNS.pdb
     RDKit          3D

 24 23  0  0  1  0  0  0  0  0999 V2000
   17.8583  -14.5699  -18.0835 N   0  0  0  0  0  0  0  0  0  0  0  0
   17.3424  -13.3488  -17.5538 C   0  0  1  0  0  0  0  0  0  0  0  0
   16.8348  -13.5862  -16.1505 C   0  0  0  0  0  0  0  0  0  0  0  0
   16.6031  -15.0565  -15.8945 C   0  0  0  0  0  0  0  0  0  0  0  0
   15.4998  -15.3336  -14.9279 C   0  0  0  0  0  0  0  0  0  0  0  0
   15.3848  -16.8384  -14.7817 C   0  0  0  0  0  0  0  0  0  0  0  0
   14.4272  -17.1985  -13.7699 N   0  0  0  0  0  0  0  0  0  0  0  0
   18.3417  -12.2886  -17.6323 C   0  0  0  0  0  0  0  0  0  0  0  0
   19.5861  -12.4735  -17.6727 O   0  0  0  0  0  0  0  0  0  0  0  0
   18.9037   -6.3843  -19.2653 N   0  0  0  0  0  0  0  0  0  0  0  0
   19.3812   -7.7051  -19.0017 C   0  0  0  0  0  0  0  0  0  0  0  0
   20.6124   -7.9440  -18.9232 O   0  0  0  0  0  0  0  0  0  0  0  0
   18.4189   -8.8134  -18.8173 C   0  0  0  0  0  0  0  0  0  0  0  0
   18.8776   -9.8499  -17.8272 C   0  0  2  0  0  0  0  0  0  0  0  0
   17.9103  -10.9242  -17.6679 N   0  0  0  0  0  0  0  0  0  0  0  0
   19.1059   -9.2643  -16.4782 C   0  0  0  0  0  0  0  0  0  0  0  0
   18.1500   -8.9119  -15.7222 O   0  0  0  0  0  0  0  0  0  0  0  0
   22.8468   -9.2966  -14.7191 O   0  0  0  0  0  0  0  0  0  0  0  0
   21.6915   -9.3457  -13.9467 C   0  0  0  0  0  0  0  0  0  0  0  0
   20.6414   -8.4914  -14.6236 C   0  0  2  0  0  0  0  0  0  0  0  0
   20.4148   -9.0625  -15.9508 N   0  0  0  0  0  0  0  0  0  0  0  0
   21.0696   -7.0748  -14.7203 C   0  0  0  0  0  0  0  0  0  0  0  0
   21.3169   -6.4879  -15.7900 O   0  0  0  0  0  0  0  0  0  0  0  0
   21.1986   -6.3711  -13.5342 O   0  0  0  0  0  0  0  0  0  0  0  0
  2  8  1  0
  2  1  1  1
  3  2  1  0
  4  3  1  0
  5  4  1  0
  6  7  1  0
  6  5  1  0
  8  9  2  0
 11 10  1  0
 11 12  2  0
 13 11  1  0
 14 13  1  6
 15 14  1  0
 15  8  1  0
 16 14  1  0
 17 16  2  0
 18 19  1  0
 20 19  1  6
 20 21  1  0
 21 16  1  0
 22 24  1  0
 22 20  1  0
 23 22  2  0
M  END
$$$$
