KNS.pdb
     RDKit          3D

 24 23  0  0  1  0  0  0  0  0999 V2000
   21.6041  -22.8909  -12.6093 N   0  0  0  0  0  0  0  0  0  0  0  0
   21.4062  -21.5695  -12.1068 C   0  0  1  0  0  0  0  0  0  0  0  0
   21.1974  -21.6280  -10.6114 C   0  0  0  0  0  0  0  0  0  0  0  0
   20.1608  -22.6631  -10.2443 C   0  0  0  0  0  0  0  0  0  0  0  0
   19.7640  -22.6351   -8.8055 C   0  0  0  0  0  0  0  0  0  0  0  0
   18.7341  -23.7274   -8.5921 C   0  0  0  0  0  0  0  0  0  0  0  0
   18.7006  -24.1601   -7.2202 N   0  0  0  0  0  0  0  0  0  0  0  0
   22.5075  -20.6969  -12.5001 C   0  0  0  0  0  0  0  0  0  0  0  0
   23.4306  -20.3131  -11.7352 O   0  0  0  0  0  0  0  0  0  0  0  0
   26.9249  -20.9451  -13.5188 N   0  0  0  0  0  0  0  0  0  0  0  0
   25.6004  -21.4637  -13.3813 C   0  0  0  0  0  0  0  0  0  0  0  0
   25.2270  -22.0081  -12.3121 O   0  0  0  0  0  0  0  0  0  0  0  0
   24.6486  -21.3624  -14.5091 C   0  0  0  0  0  0  0  0  0  0  0  0
   23.8590  -20.0812  -14.5167 C   0  0  2  0  0  0  0  0  0  0  0  0
   22.5748  -20.2228  -13.8491 N   0  0  0  0  0  0  0  0  0  0  0  0
   23.5820  -19.6098  -15.9008 C   0  0  0  0  0  0  0  0  0  0  0  0
   22.9965  -20.3371  -16.7596 O   0  0  0  0  0  0  0  0  0  0  0  0
   24.1724  -15.7195  -16.8251 O   0  0  0  0  0  0  0  0  0  0  0  0
   23.2350  -16.3992  -17.5952 C   0  0  0  0  0  0  0  0  0  0  0  0
   23.6801  -17.8415  -17.7059 C   0  0  2  0  0  0  0  0  0  0  0  0
   23.9578  -18.3096  -16.3484 N   0  0  0  0  0  0  0  0  0  0  0  0
   24.8769  -17.9785  -18.5710 C   0  0  0  0  0  0  0  0  0  0  0  0
   24.9011  -17.7014  -19.7844 O   0  0  0  0  0  0  0  0  0  0  0  0
   26.0368  -18.4466  -17.9758 O   0  0  0  0  0  0  0  0  0  0  0  0
  2  8  1  0
  2  1  1  1
  3  2  1  0
  4  3  1  0
  5  4  1  0
  6  7  1  0
  6  5  1  0
  8  9  2  0
 11 10  1  0
 11 12  2  0
 13 11  1  0
 14 13  1  6
 15 14  1  0
 15  8  1  0
 16 14  1  0
 17 16  2  0
 18 19  1  0
 20 19  1  1
 20 21  1  0
 21 16  1  0
 22 24  1  0
 22 20  1  0
 23 22  2  0
M  END
$$$$
