KNS.pdb
     RDKit          3D

 24 23  0  0  1  0  0  0  0  0999 V2000
   29.3792  -25.8765  -16.5203 N   0  0  0  0  0  0  0  0  0  0  0  0
   28.2085  -25.2228  -17.0102 C   0  0  1  0  0  0  0  0  0  0  0  0
   27.0281  -26.1596  -16.8997 C   0  0  0  0  0  0  0  0  0  0  0  0
   27.1861  -27.3486  -17.8174 C   0  0  0  0  0  0  0  0  0  0  0  0
   25.9862  -28.2352  -17.8674 C   0  0  0  0  0  0  0  0  0  0  0  0
   26.2977  -29.3760  -18.8166 C   0  0  0  0  0  0  0  0  0  0  0  0
   25.2292  -30.3390  -18.8526 N   0  0  0  0  0  0  0  0  0  0  0  0
   28.0007  -23.9523  -16.3236 C   0  0  0  0  0  0  0  0  0  0  0  0
   28.7274  -23.5072  -15.3971 O   0  0  0  0  0  0  0  0  0  0  0  0
   27.8050  -18.9019  -15.0763 N   0  0  0  0  0  0  0  0  0  0  0  0
   27.1045  -19.3811  -16.2259 C   0  0  0  0  0  0  0  0  0  0  0  0
   26.2270  -18.6787  -16.7878 O   0  0  0  0  0  0  0  0  0  0  0  0
   27.4105  -20.7226  -16.7691 C   0  0  0  0  0  0  0  0  0  0  0  0
   26.6852  -21.8370  -16.0641 C   0  0  2  0  0  0  0  0  0  0  0  0
   26.8977  -23.1243  -16.7066 N   0  0  0  0  0  0  0  0  0  0  0  0
   25.2157  -21.6048  -16.0267 C   0  0  0  0  0  0  0  0  0  0  0  0
   24.5290  -21.4400  -17.0806 O   0  0  0  0  0  0  0  0  0  0  0  0
   23.3595  -20.5213  -12.5631 O   0  0  0  0  0  0  0  0  0  0  0  0
   22.6156  -21.4221  -13.3171 C   0  0  0  0  0  0  0  0  0  0  0  0
   23.0489  -21.2909  -14.7613 C   0  0  2  0  0  0  0  0  0  0  0  0
   24.4872  -21.5531  -14.8025 N   0  0  0  0  0  0  0  0  0  0  0  0
   22.7376  -19.9465  -15.3045 C   0  0  0  0  0  0  0  0  0  0  0  0
   23.5933  -19.0839  -15.5759 O   0  0  0  0  0  0  0  0  0  0  0  0
   21.4027  -19.6449  -15.5188 O   0  0  0  0  0  0  0  0  0  0  0  0
  2  8  1  0
  2  1  1  1
  3  2  1  0
  4  3  1  0
  5  4  1  0
  6  7  1  0
  6  5  1  0
  8  9  2  0
 11 10  1  0
 11 12  2  0
 13 11  1  0
 14 13  1  6
 15 14  1  0
 15  8  1  0
 16 14  1  0
 17 16  2  0
 18 19  1  0
 20 19  1  1
 20 21  1  0
 21 16  1  0
 22 24  1  0
 22 20  1  0
 23 22  2  0
M  END
$$$$
