KNS.pdb
     RDKit          3D

 24 23  0  0  1  0  0  0  0  0999 V2000
   20.1131  -11.9189  -16.4403 N   0  0  0  0  0  0  0  0  0  0  0  0
   21.4275  -12.2953  -16.8506 C   0  0  1  0  0  0  0  0  0  0  0  0
   21.3332  -13.3467  -17.9318 C   0  0  0  0  0  0  0  0  0  0  0  0
   20.0493  -14.1338  -17.8182 C   0  0  0  0  0  0  0  0  0  0  0  0
   20.2278  -15.4980  -17.2388 C   0  0  0  0  0  0  0  0  0  0  0  0
   18.8976  -16.2184  -17.3429 C   0  0  0  0  0  0  0  0  0  0  0  0
   18.9947  -17.5755  -16.8745 N   0  0  0  0  0  0  0  0  0  0  0  0
   22.1983  -11.1237  -17.2533 C   0  0  0  0  0  0  0  0  0  0  0  0
   23.3204  -11.1608  -17.8227 O   0  0  0  0  0  0  0  0  0  0  0  0
   24.1488   -6.5908  -18.1899 N   0  0  0  0  0  0  0  0  0  0  0  0
   23.4383   -7.3097  -19.2001 C   0  0  0  0  0  0  0  0  0  0  0  0
   23.5762   -7.0230  -20.4158 O   0  0  0  0  0  0  0  0  0  0  0  0
   22.5251   -8.4089  -18.8180 C   0  0  0  0  0  0  0  0  0  0  0  0
   22.4412   -8.6323  -17.3321 C   0  0  2  0  0  0  0  0  0  0  0  0
   21.6694   -9.8185  -16.9971 N   0  0  0  0  0  0  0  0  0  0  0  0
   21.8016   -7.4838  -16.6347 C   0  0  0  0  0  0  0  0  0  0  0  0
   20.5641   -7.2275  -16.7463 O   0  0  0  0  0  0  0  0  0  0  0  0
   22.3789   -3.8754  -13.4357 O   0  0  0  0  0  0  0  0  0  0  0  0
   22.9817   -4.8483  -14.2254 C   0  0  0  0  0  0  0  0  0  0  0  0
   21.9001   -5.5216  -15.0426 C   0  0  2  0  0  0  0  0  0  0  0  0
   22.5407   -6.5987  -15.7965 N   0  0  0  0  0  0  0  0  0  0  0  0
   21.2270   -4.5630  -15.9523 C   0  0  0  0  0  0  0  0  0  0  0  0
   21.7183   -4.1415  -17.0157 O   0  0  0  0  0  0  0  0  0  0  0  0
   19.9695   -4.1159  -15.5813 O   0  0  0  0  0  0  0  0  0  0  0  0
  2  8  1  0
  2  1  1  6
  3  2  1  0
  4  3  1  0
  5  4  1  0
  6  7  1  0
  6  5  1  0
  8  9  2  0
 11 10  1  0
 11 12  2  0
 13 11  1  0
 14 13  1  6
 15 14  1  0
 15  8  1  0
 16 14  1  0
 17 16  2  0
 18 19  1  0
 20 19  1  6
 20 21  1  0
 21 16  1  0
 22 24  1  0
 22 20  1  0
 23 22  2  0
M  END
$$$$
