KNS.pdb
     RDKit          3D

 24 23  0  0  1  0  0  0  0  0999 V2000
   17.6767  -11.9830  -14.7617 N   0  0  0  0  0  0  0  0  0  0  0  0
   17.6646  -10.5811  -15.0309 C   0  0  1  0  0  0  0  0  0  0  0  0
   16.2575  -10.1482  -15.3711 C   0  0  0  0  0  0  0  0  0  0  0  0
   15.7047  -10.9463  -16.5279 C   0  0  0  0  0  0  0  0  0  0  0  0
   14.3316  -10.5336  -16.9435 C   0  0  0  0  0  0  0  0  0  0  0  0
   13.9520  -11.3591  -18.1575 C   0  0  0  0  0  0  0  0  0  0  0  0
   12.5974  -11.1006  -18.5685 N   0  0  0  0  0  0  0  0  0  0  0  0
   18.2423   -9.8362  -13.9172 C   0  0  0  0  0  0  0  0  0  0  0  0
   18.0695  -10.1103  -12.7008 O   0  0  0  0  0  0  0  0  0  0  0  0
   20.7669   -6.2753  -11.1450 N   0  0  0  0  0  0  0  0  0  0  0  0
   21.4078   -6.3115  -12.4217 C   0  0  0  0  0  0  0  0  0  0  0  0
   22.4472   -5.6407  -12.6426 O   0  0  0  0  0  0  0  0  0  0  0  0
   20.8463   -7.1481  -13.5047 C   0  0  0  0  0  0  0  0  0  0  0  0
   19.6062   -7.9001  -13.1026 C   0  0  2  0  0  0  0  0  0  0  0  0
   19.0727   -8.7030  -14.1915 N   0  0  0  0  0  0  0  0  0  0  0  0
   18.5200   -6.9824  -12.6638 C   0  0  0  0  0  0  0  0  0  0  0  0
   17.7853   -6.3590  -13.4891 O   0  0  0  0  0  0  0  0  0  0  0  0
   15.7599   -7.7153  -10.4495 O   0  0  0  0  0  0  0  0  0  0  0  0
   15.8528   -6.5551  -11.2103 C   0  0  0  0  0  0  0  0  0  0  0  0
   17.1523   -5.8662  -10.8532 C   0  0  2  0  0  0  0  0  0  0  0  0
   18.2369   -6.7463  -11.2867 N   0  0  0  0  0  0  0  0  0  0  0  0
   17.2414   -5.5889   -9.3991 C   0  0  0  0  0  0  0  0  0  0  0  0
   16.4213   -4.9000   -8.7645 O   0  0  0  0  0  0  0  0  0  0  0  0
   18.3129   -6.1393   -8.7151 O   0  0  0  0  0  0  0  0  0  0  0  0
  2  8  1  0
  2  1  1  1
  3  2  1  0
  4  3  1  0
  5  4  1  0
  6  7  1  0
  6  5  1  0
  8  9  2  0
 11 10  1  0
 11 12  2  0
 13 11  1  0
 14 13  1  6
 15 14  1  0
 15  8  1  0
 16 14  1  0
 17 16  2  0
 18 19  1  0
 20 19  1  1
 20 21  1  0
 21 16  1  0
 22 24  1  0
 22 20  1  0
 23 22  2  0
M  END
$$$$
