KNS.pdb
     RDKit          3D

 24 23  0  0  1  0  0  0  0  0999 V2000
   18.1207  -14.2431  -17.9301 N   0  0  0  0  0  0  0  0  0  0  0  0
   19.1746  -13.6355  -17.1832 C   0  0  1  0  0  0  0  0  0  0  0  0
   20.2831  -14.6404  -16.9721 C   0  0  0  0  0  0  0  0  0  0  0  0
   19.7862  -15.8527  -16.2210 C   0  0  0  0  0  0  0  0  0  0  0  0
   20.8280  -16.9013  -16.0120 C   0  0  0  0  0  0  0  0  0  0  0  0
   20.1924  -18.0287  -15.2220 C   0  0  0  0  0  0  0  0  0  0  0  0
   21.1316  -19.0883  -14.9660 N   0  0  0  0  0  0  0  0  0  0  0  0
   19.6261  -12.4086  -17.8311 C   0  0  0  0  0  0  0  0  0  0  0  0
   19.9853  -12.3198  -19.0343 O   0  0  0  0  0  0  0  0  0  0  0  0
   19.6745   -8.1266  -20.9504 N   0  0  0  0  0  0  0  0  0  0  0  0
   19.9240   -8.3615  -19.5630 C   0  0  0  0  0  0  0  0  0  0  0  0
   20.5560   -7.5259  -18.8692 O   0  0  0  0  0  0  0  0  0  0  0  0
   19.4346   -9.6037  -18.9263 C   0  0  0  0  0  0  0  0  0  0  0  0
   20.1812   -9.9716  -17.6724 C   0  0  2  0  0  0  0  0  0  0  0  0
   19.6772  -11.1963  -17.0716 N   0  0  0  0  0  0  0  0  0  0  0  0
   20.0850   -8.9060  -16.6379 C   0  0  0  0  0  0  0  0  0  0  0  0
   18.9779   -8.5563  -16.1267 O   0  0  0  0  0  0  0  0  0  0  0  0
   21.4526   -6.9844  -12.7706 O   0  0  0  0  0  0  0  0  0  0  0  0
   21.6014   -7.8919  -13.8136 C   0  0  0  0  0  0  0  0  0  0  0  0
   21.1501   -7.2142  -15.0894 C   0  0  2  0  0  0  0  0  0  0  0  0
   21.2327   -8.2110  -16.1564 N   0  0  0  0  0  0  0  0  0  0  0  0
   21.9851   -6.0293  -15.4028 C   0  0  0  0  0  0  0  0  0  0  0  0
   22.8507   -5.9974  -16.2969 O   0  0  0  0  0  0  0  0  0  0  0  0
   21.7769   -4.8903  -14.6423 O   0  0  0  0  0  0  0  0  0  0  0  0
  2  8  1  0
  2  1  1  6
  3  2  1  0
  4  3  1  0
  5  4  1  0
  6  7  1  0
  6  5  1  0
  8  9  2  0
 11 10  1  0
 11 12  2  0
 13 11  1  0
 14 13  1  6
 15 14  1  0
 15  8  1  0
 16 14  1  0
 17 16  2  0
 18 19  1  0
 20 19  1  1
 20 21  1  0
 21 16  1  0
 22 24  1  0
 22 20  1  0
 23 22  2  0
M  END
$$$$
