VAS.pdb
     RDKit          3D

 19 18  0  0  1  0  0  0  0  0999 V2000
    6.7761  -12.4116   27.5568 C   0  0  0  0  0  0  0  0  0  0  0  0
    7.3914  -13.0504   26.3304 C   0  0  2  0  0  0  0  0  0  0  0  0
    7.5781  -12.0183   25.2393 C   0  0  0  0  0  0  0  0  0  0  0  0
    6.5559  -14.2217   25.8447 C   0  0  2  0  0  0  0  0  0  0  0  0
    6.4482  -15.2526   26.8511 N   0  0  0  0  0  0  0  0  0  0  0  0
    7.2031  -14.7493   24.6240 C   0  0  0  0  0  0  0  0  0  0  0  0
    8.3911  -15.1762   24.7270 O   0  0  0  0  0  0  0  0  0  0  0  0
    8.0505  -13.7473   21.7939 C   0  0  0  0  0  0  0  0  0  0  0  0
    7.3273  -15.0256   22.1835 C   0  0  2  0  0  0  0  0  0  0  0  0
    6.5528  -14.7947   23.3600 N   0  0  0  0  0  0  0  0  0  0  0  0
    8.3740  -16.0642   22.3749 C   0  0  0  0  0  0  0  0  0  0  0  0
    8.1944  -17.2835   22.2315 O   0  0  0  0  0  0  0  0  0  0  0  0
   11.9609  -15.7809   21.0068 O   0  0  0  0  0  0  0  0  0  0  0  0
   12.0177  -15.7600   22.3985 C   0  0  0  0  0  0  0  0  0  0  0  0
   10.7909  -16.4978   22.9441 C   0  0  2  0  0  0  0  0  0  0  0  0
    9.6688  -15.6102   22.7491 N   0  0  0  0  0  0  0  0  0  0  0  0
   10.9984  -16.6925   24.3921 C   0  0  0  0  0  0  0  0  0  0  0  0
   10.2621  -16.1475   25.2513 O   0  0  0  0  0  0  0  0  0  0  0  0
   12.0343  -17.4990   24.8212 O   0  0  0  0  0  0  0  0  0  0  0  0
  2  4  1  0
  2  1  1  1
  3  2  1  0
  4  5  1  1
  6  4  1  0
  7  6  2  0
  9  8  1  1
  9 11  1  0
  9 10  1  0
 10  6  1  0
 11 12  2  0
 14 13  1  0
 15 14  1  1
 16 11  1  0
 16 15  1  0
 17 19  1  0
 17 15  1  0
 18 17  2  0
M  END
$$$$
