VAS.pdb
     RDKit          3D

 19 18  0  0  1  0  0  0  0  0999 V2000
    7.8709  -18.1394   20.7011 C   0  0  0  0  0  0  0  0  0  0  0  0
    6.9228  -16.9878   20.4449 C   0  0  2  0  0  0  0  0  0  0  0  0
    6.0934  -17.2568   19.2078 C   0  0  0  0  0  0  0  0  0  0  0  0
    7.6748  -15.6736   20.3299 C   0  0  2  0  0  0  0  0  0  0  0  0
    8.6058  -15.6876   19.2254 N   0  0  0  0  0  0  0  0  0  0  0  0
    8.3853  -15.4584   21.6090 C   0  0  0  0  0  0  0  0  0  0  0  0
    9.6042  -15.7979   21.6681 O   0  0  0  0  0  0  0  0  0  0  0  0
    7.6611  -14.0937   25.0238 C   0  0  0  0  0  0  0  0  0  0  0  0
    8.4786  -14.8498   23.9900 C   0  0  2  0  0  0  0  0  0  0  0  0
    7.7622  -14.8940   22.7562 N   0  0  0  0  0  0  0  0  0  0  0  0
    8.7369  -16.1997   24.5573 C   0  0  0  0  0  0  0  0  0  0  0  0
    7.9405  -17.1500   24.5111 O   0  0  0  0  0  0  0  0  0  0  0  0
   12.2600  -19.1634   25.6256 O   0  0  0  0  0  0  0  0  0  0  0  0
   11.7963  -17.9491   25.1248 C   0  0  0  0  0  0  0  0  0  0  0  0
   10.4144  -17.6737   25.7262 C   0  0  2  0  0  0  0  0  0  0  0  0
    9.9921  -16.3990   25.1955 N   0  0  0  0  0  0  0  0  0  0  0  0
   10.5835  -17.5492   27.1869 C   0  0  0  0  0  0  0  0  0  0  0  0
   10.4900  -16.4452   27.7782 O   0  0  0  0  0  0  0  0  0  0  0  0
   10.8534  -18.6804   27.9321 O   0  0  0  0  0  0  0  0  0  0  0  0
  2  4  1  0
  2  1  1  6
  3  2  1  0
  4  5  1  6
  6  4  1  0
  7  6  2  0
  9  8  1  1
  9 11  1  0
  9 10  1  0
 10  6  1  0
 11 12  2  0
 14 13  1  0
 15 14  1  6
 16 11  1  0
 16 15  1  0
 17 19  1  0
 17 15  1  0
 18 17  2  0
M  END
$$$$
