VAS.pdb
     RDKit          3D

 19 18  0  0  1  0  0  0  0  0999 V2000
    8.0844  -12.9676   26.9046 C   0  0  0  0  0  0  0  0  0  0  0  0
    7.0993  -12.4481   25.8797 C   0  0  2  0  0  0  0  0  0  0  0  0
    6.3528  -11.2518   26.4293 C   0  0  0  0  0  0  0  0  0  0  0  0
    6.1417  -13.5402   25.4368 C   0  0  2  0  0  0  0  0  0  0  0  0
    5.4797  -14.1570   26.5631 N   0  0  0  0  0  0  0  0  0  0  0  0
    6.9298  -14.5393   24.6832 C   0  0  0  0  0  0  0  0  0  0  0  0
    7.4210  -15.5102   25.3316 O   0  0  0  0  0  0  0  0  0  0  0  0
    8.0696  -15.1203   21.1583 C   0  0  0  0  0  0  0  0  0  0  0  0
    7.9728  -15.4312   22.6425 C   0  0  2  0  0  0  0  0  0  0  0  0
    7.1533  -14.4527   23.2813 N   0  0  0  0  0  0  0  0  0  0  0  0
    9.3650  -15.4493   23.1642 C   0  0  0  0  0  0  0  0  0  0  0  0
   10.1284  -14.4712   23.1753 O   0  0  0  0  0  0  0  0  0  0  0  0
   10.1377  -18.8358   24.9950 O   0  0  0  0  0  0  0  0  0  0  0  0
   11.0829  -17.8697   25.3321 C   0  0  0  0  0  0  0  0  0  0  0  0
   11.1852  -16.8689   24.1766 C   0  0  2  0  0  0  0  0  0  0  0  0
    9.8402  -16.6846   23.6845 N   0  0  0  0  0  0  0  0  0  0  0  0
   11.9982  -17.4968   23.1171 C   0  0  0  0  0  0  0  0  0  0  0  0
   11.5244  -17.7734   21.9873 O   0  0  0  0  0  0  0  0  0  0  0  0
   13.3234  -17.7918   23.3713 O   0  0  0  0  0  0  0  0  0  0  0  0
  2  4  1  0
  2  1  1  1
  3  2  1  0
  4  5  1  1
  6  4  1  0
  7  6  2  0
  9  8  1  6
  9 11  1  0
  9 10  1  0
 10  6  1  0
 11 12  2  0
 14 13  1  0
 15 14  1  1
 16 11  1  0
 16 15  1  0
 17 19  1  0
 17 15  1  0
 18 17  2  0
M  END
$$$$
