VAS.pdb
     RDKit          3D

 19 18  0  0  1  0  0  0  0  0999 V2000
    9.4137  -20.3038   18.3743 C   0  0  0  0  0  0  0  0  0  0  0  0
   10.3149  -19.4058   19.1941 C   0  0  2  0  0  0  0  0  0  0  0  0
   10.5858  -20.0287   20.5466 C   0  0  0  0  0  0  0  0  0  0  0  0
    9.7213  -18.0153   19.3360 C   0  0  2  0  0  0  0  0  0  0  0  0
    9.5737  -17.3660   18.0539 N   0  0  0  0  0  0  0  0  0  0  0  0
   10.6225  -17.2382   20.2141 C   0  0  0  0  0  0  0  0  0  0  0  0
   11.7858  -16.9827   19.7832 O   0  0  0  0  0  0  0  0  0  0  0  0
   10.4810  -15.5027   23.5316 C   0  0  0  0  0  0  0  0  0  0  0  0
   11.1693  -16.0221   22.2806 C   0  0  2  0  0  0  0  0  0  0  0  0
   10.2387  -16.7747   21.5028 N   0  0  0  0  0  0  0  0  0  0  0  0
   12.3284  -16.8327   22.7391 C   0  0  0  0  0  0  0  0  0  0  0  0
   12.2426  -17.9477   23.2766 O   0  0  0  0  0  0  0  0  0  0  0  0
   15.9520  -15.3660   21.5185 O   0  0  0  0  0  0  0  0  0  0  0  0
   15.7950  -16.7395   21.6893 C   0  0  0  0  0  0  0  0  0  0  0  0
   14.8418  -16.9750   22.8654 C   0  0  2  0  0  0  0  0  0  0  0  0
   13.6214  -16.2752   22.5397 N   0  0  0  0  0  0  0  0  0  0  0  0
   15.4459  -16.3496   24.0577 C   0  0  0  0  0  0  0  0  0  0  0  0
   16.5058  -16.7824   24.5741 O   0  0  0  0  0  0  0  0  0  0  0  0
   14.8296  -15.2528   24.6277 O   0  0  0  0  0  0  0  0  0  0  0  0
  2  4  1  0
  2  1  1  1
  3  2  1  0
  4  5  1  6
  6  4  1  0
  7  6  2  0
  9  8  1  1
  9 11  1  0
  9 10  1  0
 10  6  1  0
 11 12  2  0
 14 13  1  0
 15 14  1  6
 16 11  1  0
 16 15  1  0
 17 19  1  0
 17 15  1  0
 18 17  2  0
M  END
$$$$
