VAS.pdb
     RDKit          3D

 19 18  0  0  1  0  0  0  0  0999 V2000
    7.1453  -14.5027   18.2667 C   0  0  0  0  0  0  0  0  0  0  0  0
    7.6675  -14.6823   19.6759 C   0  0  2  0  0  0  0  0  0  0  0  0
    6.8561  -15.7305   20.4062 C   0  0  0  0  0  0  0  0  0  0  0  0
    7.6736  -13.3645   20.4305 C   0  0  2  0  0  0  0  0  0  0  0  0
    8.4708  -12.3673   19.7544 N   0  0  0  0  0  0  0  0  0  0  0  0
    8.2096  -13.6327   21.7825 C   0  0  0  0  0  0  0  0  0  0  0  0
    9.4420  -13.9075   21.8818 O   0  0  0  0  0  0  0  0  0  0  0  0
    7.0431  -13.5683   25.3350 C   0  0  0  0  0  0  0  0  0  0  0  0
    7.9817  -13.9664   24.2084 C   0  0  2  0  0  0  0  0  0  0  0  0
    7.4069  -13.5944   22.9560 N   0  0  0  0  0  0  0  0  0  0  0  0
    8.1971  -15.4323   24.3331 C   0  0  0  0  0  0  0  0  0  0  0  0
    7.3707  -16.2983   24.0068 O   0  0  0  0  0  0  0  0  0  0  0  0
   10.9022  -17.3049   23.0499 O   0  0  0  0  0  0  0  0  0  0  0  0
   11.0878  -17.5169   24.4141 C   0  0  0  0  0  0  0  0  0  0  0  0
    9.7631  -17.2386   25.1317 C   0  0  2  0  0  0  0  0  0  0  0  0
    9.4457  -15.8551   24.8668 N   0  0  0  0  0  0  0  0  0  0  0  0
    9.9997  -17.4044   26.5789 C   0  0  0  0  0  0  0  0  0  0  0  0
    9.9651  -16.4348   27.3765 O   0  0  0  0  0  0  0  0  0  0  0  0
   10.2682  -18.6643   27.0771 O   0  0  0  0  0  0  0  0  0  0  0  0
  2  4  1  0
  2  1  1  6
  3  2  1  0
  4  5  1  6
  6  4  1  0
  7  6  2  0
  9  8  1  1
  9 11  1  0
  9 10  1  0
 10  6  1  0
 11 12  2  0
 14 13  1  0
 15 14  1  6
 16 11  1  0
 16 15  1  0
 17 19  1  0
 17 15  1  0
 18 17  2  0
M  END
$$$$
