YQA.pdb
     RDKit          3D

 27 27  0  0  1  0  0  0  0  0999 V2000
    7.5003  -12.0001   16.8783 O   0  0  0  0  0  0  0  0  0  0  0  0
    7.6399  -12.7315   18.0683 C   0  0  0  0  0  0  0  0  0  0  0  0
    8.8477  -12.6674   18.6981 C   0  0  0  0  0  0  0  0  0  0  0  0
    9.0187  -13.3835   19.8840 C   0  0  0  0  0  0  0  0  0  0  0  0
    8.0120  -14.1410   20.4239 C   0  0  0  0  0  0  0  0  0  0  0  0
    8.2412  -14.8747   21.6715 C   0  0  0  0  0  0  0  0  0  0  0  0
    9.0969  -16.1280   21.4441 C   0  0  2  0  0  0  0  0  0  0  0  0
    8.4537  -17.0504   20.5647 N   0  0  0  0  0  0  0  0  0  0  0  0
    9.3405  -16.6923   22.7956 C   0  0  0  0  0  0  0  0  0  0  0  0
    8.4401  -17.4230   23.2741 O   0  0  0  0  0  0  0  0  0  0  0  0
    6.8050  -14.1925   19.7755 C   0  0  0  0  0  0  0  0  0  0  0  0
    6.6142  -13.4804   18.5839 C   0  0  0  0  0  0  0  0  0  0  0  0
   14.4659  -19.9172   24.5090 N   0  0  0  0  0  0  0  0  0  0  0  0
   13.3937  -19.4826   23.6837 C   0  0  0  0  0  0  0  0  0  0  0  0
   13.5718  -19.4285   22.4585 O   0  0  0  0  0  0  0  0  0  0  0  0
   12.1182  -19.1103   24.2965 C   0  0  0  0  0  0  0  0  0  0  0  0
   12.0325  -17.8083   24.9825 C   0  0  0  0  0  0  0  0  0  0  0  0
   10.8069  -16.9917   24.8232 C   0  0  2  0  0  0  0  0  0  0  0  0
   10.5223  -16.4417   23.5446 N   0  0  0  0  0  0  0  0  0  0  0  0
   10.8894  -15.8690   25.8129 C   0  0  0  0  0  0  0  0  0  0  0  0
   11.8872  -15.1117   25.7075 O   0  0  0  0  0  0  0  0  0  0  0  0
    8.8705  -13.7095   27.9126 C   0  0  0  0  0  0  0  0  0  0  0  0
   10.1165  -14.5515   27.7566 C   0  0  2  0  0  0  0  0  0  0  0  0
    9.9488  -15.6208   26.8182 N   0  0  0  0  0  0  0  0  0  0  0  0
   10.4607  -15.0716   29.1055 C   0  0  0  0  0  0  0  0  0  0  0  0
   10.7986  -14.2577   30.1513 O   0  0  0  0  0  0  0  0  0  0  0  0
   10.4406  -16.3087   29.2935 O   0  0  0  0  0  0  0  0  0  0  0  0
  2  3  2  0
  2  1  1  0
  4  3  1  0
  5  4  2  0
  6  5  1  0
  7  9  1  0
  7  6  1  0
  7  8  1  6
  9 10  2  0
 11  5  1  0
 11 12  2  0
 12  2  1  0
 14 15  2  0
 14 13  1  0
 16 14  1  0
 17 16  1  0
 18 17  1  6
 19  9  1  0
 19 18  1  0
 20 24  1  0
 20 18  1  0
 21 20  2  0
 23 22  1  1
 23 24  1  0
 25 23  1  0
 25 26  1  0
 27 25  2  0
M  END
$$$$
