YQA.pdb
     RDKit          3D

 27 27  0  0  1  0  0  0  0  0999 V2000
    7.9035  -12.1895   16.7117 O   0  0  0  0  0  0  0  0  0  0  0  0
    7.9368  -12.8105   17.9702 C   0  0  0  0  0  0  0  0  0  0  0  0
    6.7900  -13.4135   18.3953 C   0  0  0  0  0  0  0  0  0  0  0  0
    6.7904  -14.0400   19.6426 C   0  0  0  0  0  0  0  0  0  0  0  0
    7.9044  -14.0629   20.4409 C   0  0  0  0  0  0  0  0  0  0  0  0
    7.8542  -14.7340   21.7426 C   0  0  0  0  0  0  0  0  0  0  0  0
    8.5309  -16.1106   21.6980 C   0  0  2  0  0  0  0  0  0  0  0  0
    7.7884  -17.0351   20.9029 N   0  0  0  0  0  0  0  0  0  0  0  0
    8.6557  -16.5371   23.1147 C   0  0  0  0  0  0  0  0  0  0  0  0
    7.5880  -16.6912   23.7550 O   0  0  0  0  0  0  0  0  0  0  0  0
    9.0475  -13.4509   19.9956 C   0  0  0  0  0  0  0  0  0  0  0  0
    9.0666  -12.8167   18.7462 C   0  0  0  0  0  0  0  0  0  0  0  0
   12.5559  -19.8745   28.5333 N   0  0  0  0  0  0  0  0  0  0  0  0
   12.4035  -19.4183   27.1960 C   0  0  0  0  0  0  0  0  0  0  0  0
   13.1862  -19.8393   26.3323 O   0  0  0  0  0  0  0  0  0  0  0  0
   11.3373  -18.4687   26.8760 C   0  0  0  0  0  0  0  0  0  0  0  0
   11.1557  -18.0794   25.4658 C   0  0  0  0  0  0  0  0  0  0  0  0
   10.0653  -17.1404   25.1146 C   0  0  2  0  0  0  0  0  0  0  0  0
    9.9043  -16.7701   23.7525 N   0  0  0  0  0  0  0  0  0  0  0  0
   10.2748  -15.8945   25.9213 C   0  0  0  0  0  0  0  0  0  0  0  0
   11.3254  -15.2486   25.6777 O   0  0  0  0  0  0  0  0  0  0  0  0
    8.4876  -13.3662   27.8838 C   0  0  0  0  0  0  0  0  0  0  0  0
    9.6935  -14.2545   27.6773 C   0  0  2  0  0  0  0  0  0  0  0  0
    9.3959  -15.4212   26.9013 N   0  0  0  0  0  0  0  0  0  0  0  0
   10.1979  -14.6224   29.0260 C   0  0  0  0  0  0  0  0  0  0  0  0
   10.7035  -13.7052   29.9055 O   0  0  0  0  0  0  0  0  0  0  0  0
   10.1585  -15.8242   29.3728 O   0  0  0  0  0  0  0  0  0  0  0  0
  2  3  2  0
  2  1  1  0
  4  3  1  0
  5  4  2  0
  6  5  1  0
  7  9  1  0
  7  6  1  0
  7  8  1  6
  9 10  2  0
 11  5  1  0
 11 12  2  0
 12  2  1  0
 14 15  2  0
 14 13  1  0
 16 14  1  0
 17 16  1  0
 18 17  1  6
 19  9  1  0
 19 18  1  0
 20 24  1  0
 20 18  1  0
 21 20  2  0
 23 22  1  1
 23 24  1  0
 25 23  1  0
 25 26  1  0
 27 25  2  0
M  END
$$$$
