YQA.pdb
     RDKit          3D

 27 27  0  0  1  0  0  0  0  0999 V2000
    7.7544  -13.2420   15.6926 O   0  0  0  0  0  0  0  0  0  0  0  0
    7.5252  -13.4872   17.0556 C   0  0  0  0  0  0  0  0  0  0  0  0
    8.0664  -12.6058   17.9443 C   0  0  0  0  0  0  0  0  0  0  0  0
    7.8567  -12.8216   19.3074 C   0  0  0  0  0  0  0  0  0  0  0  0
    7.1276  -13.8871   19.7679 C   0  0  0  0  0  0  0  0  0  0  0  0
    6.9357  -14.0701   21.2090 C   0  0  0  0  0  0  0  0  0  0  0  0
    8.1936  -14.6356   21.8819 C   0  0  2  0  0  0  0  0  0  0  0  0
    8.7313  -15.7365   21.1489 N   0  0  0  0  0  0  0  0  0  0  0  0
    7.7747  -15.0067   23.2571 C   0  0  0  0  0  0  0  0  0  0  0  0
    7.2042  -14.1177   23.9338 O   0  0  0  0  0  0  0  0  0  0  0  0
    6.5918  -14.7620   18.8583 C   0  0  0  0  0  0  0  0  0  0  0  0
    6.7914  -14.5620   17.4859 C   0  0  0  0  0  0  0  0  0  0  0  0
    7.5793  -20.8704   26.1848 N   0  0  0  0  0  0  0  0  0  0  0  0
    7.2863  -19.9217   27.2016 C   0  0  0  0  0  0  0  0  0  0  0  0
    7.0165  -20.3343   28.3386 O   0  0  0  0  0  0  0  0  0  0  0  0
    7.3071  -18.4939   26.8822 C   0  0  0  0  0  0  0  0  0  0  0  0
    7.5745  -18.0993   25.4873 C   0  0  0  0  0  0  0  0  0  0  0  0
    7.6890  -16.6598   25.1573 C   0  0  2  0  0  0  0  0  0  0  0  0
    7.9905  -16.2949   23.8179 N   0  0  0  0  0  0  0  0  0  0  0  0
    8.7422  -16.0811   26.0532 C   0  0  0  0  0  0  0  0  0  0  0  0
    9.9091  -16.5185   25.8884 O   0  0  0  0  0  0  0  0  0  0  0  0
    9.2039  -13.3367   28.5784 C   0  0  0  0  0  0  0  0  0  0  0  0
    9.5642  -14.6251   27.8741 C   0  0  2  0  0  0  0  0  0  0  0  0
    8.5105  -15.1108   27.0339 N   0  0  0  0  0  0  0  0  0  0  0  0
    9.9081  -15.6146   28.9283 C   0  0  0  0  0  0  0  0  0  0  0  0
    9.2585  -16.8104   29.0648 O   0  0  0  0  0  0  0  0  0  0  0  0
   10.8327  -15.3424   29.7266 O   0  0  0  0  0  0  0  0  0  0  0  0
  2  3  2  0
  2  1  1  0
  4  3  1  0
  5  4  2  0
  6  5  1  0
  7  9  1  0
  7  6  1  0
  7  8  1  6
  9 10  2  0
 11  5  1  0
 11 12  2  0
 12  2  1  0
 14 15  2  0
 14 13  1  0
 16 14  1  0
 17 16  1  0
 18 17  1  6
 19  9  1  0
 19 18  1  0
 20 24  1  0
 20 18  1  0
 21 20  2  0
 23 22  1  1
 23 24  1  0
 25 23  1  0
 25 26  1  0
 27 25  2  0
M  END
$$$$
