YQA.pdb
     RDKit          3D

 27 27  0  0  1  0  0  0  0  0999 V2000
   10.2650  -23.1966   13.0035 O   0  0  0  0  0  0  0  0  0  0  0  0
   10.6096  -22.1415   13.8628 C   0  0  0  0  0  0  0  0  0  0  0  0
    9.5848  -21.4451   14.4324 C   0  0  0  0  0  0  0  0  0  0  0  0
    9.8942  -20.3897   15.2920 C   0  0  0  0  0  0  0  0  0  0  0  0
   11.1897  -20.0412   15.5734 C   0  0  0  0  0  0  0  0  0  0  0  0
   11.4626  -18.9250   16.4828 C   0  0  0  0  0  0  0  0  0  0  0  0
   11.4092  -17.5745   15.7559 C   0  0  2  0  0  0  0  0  0  0  0  0
   12.4379  -17.4669   14.7719 N   0  0  0  0  0  0  0  0  0  0  0  0
   11.5192  -16.5463   16.8214 C   0  0  0  0  0  0  0  0  0  0  0  0
   12.6248  -15.9646   16.9340 O   0  0  0  0  0  0  0  0  0  0  0  0
   12.2058  -20.7537   14.9907 C   0  0  0  0  0  0  0  0  0  0  0  0
   11.9151  -21.8165   14.1250 C   0  0  0  0  0  0  0  0  0  0  0  0
    6.9027  -12.7839   19.2657 N   0  0  0  0  0  0  0  0  0  0  0  0
    8.0049  -12.5801   20.1394 C   0  0  0  0  0  0  0  0  0  0  0  0
    7.8975  -11.7407   21.0447 O   0  0  0  0  0  0  0  0  0  0  0  0
    9.2295  -13.3578   19.9476 C   0  0  0  0  0  0  0  0  0  0  0  0
    9.2248  -14.4168   18.9222 C   0  0  0  0  0  0  0  0  0  0  0  0
   10.4785  -15.1566   18.6480 C   0  0  2  0  0  0  0  0  0  0  0  0
   10.4483  -16.2076   17.6926 N   0  0  0  0  0  0  0  0  0  0  0  0
   10.9576  -15.7179   19.9528 C   0  0  0  0  0  0  0  0  0  0  0  0
   11.5281  -14.9079   20.7264 O   0  0  0  0  0  0  0  0  0  0  0  0
   12.8523  -17.4747   21.6419 C   0  0  0  0  0  0  0  0  0  0  0  0
   11.3422  -17.5281   21.5918 C   0  0  2  0  0  0  0  0  0  0  0  0
   10.8118  -17.0514   20.3494 N   0  0  0  0  0  0  0  0  0  0  0  0
   10.8410  -16.7195   22.7336 C   0  0  0  0  0  0  0  0  0  0  0  0
    9.9309  -15.7095   22.5855 O   0  0  0  0  0  0  0  0  0  0  0  0
   11.2703  -16.9734   23.8815 O   0  0  0  0  0  0  0  0  0  0  0  0
  2  3  2  0
  2  1  1  0
  4  3  1  0
  5  4  2  0
  6  5  1  0
  7  9  1  0
  7  6  1  0
  7  8  1  6
  9 10  2  0
 11  5  1  0
 11 12  2  0
 12  2  1  0
 14 15  2  0
 14 13  1  0
 16 14  1  0
 17 16  1  0
 18 17  1  1
 19  9  1  0
 19 18  1  0
 20 24  1  0
 20 18  1  0
 21 20  2  0
 23 22  1  6
 23 24  1  0
 25 23  1  0
 25 26  1  0
 27 25  2  0
M  END
$$$$
