YQA.pdb
     RDKit          3D

 27 27  0  0  1  0  0  0  0  0999 V2000
    7.8461  -12.2935   16.7314 O   0  0  0  0  0  0  0  0  0  0  0  0
    7.8047  -12.8372   18.0249 C   0  0  0  0  0  0  0  0  0  0  0  0
    8.9927  -13.2149   18.5777 C   0  0  0  0  0  0  0  0  0  0  0  0
    8.9855  -13.7593   19.8630 C   0  0  0  0  0  0  0  0  0  0  0  0
    7.8249  -13.9209   20.5743 C   0  0  0  0  0  0  0  0  0  0  0  0
    7.8700  -14.4973   21.9208 C   0  0  0  0  0  0  0  0  0  0  0  0
    8.0431  -16.0216   21.8803 C   0  0  2  0  0  0  0  0  0  0  0  0
    6.8858  -16.6674   21.3496 N   0  0  0  0  0  0  0  0  0  0  0  0
    8.3393  -16.4241   23.2784 C   0  0  0  0  0  0  0  0  0  0  0  0
    7.3605  -16.5302   24.0558 O   0  0  0  0  0  0  0  0  0  0  0  0
    6.6409  -13.5349   20.0010 C   0  0  0  0  0  0  0  0  0  0  0  0
    6.6278  -12.9864   18.7116 C   0  0  0  0  0  0  0  0  0  0  0  0
   12.1717  -20.8201   22.8737 N   0  0  0  0  0  0  0  0  0  0  0  0
   12.0255  -20.3160   24.1944 C   0  0  0  0  0  0  0  0  0  0  0  0
   12.9133  -20.5586   25.0242 O   0  0  0  0  0  0  0  0  0  0  0  0
   10.8386  -19.5326   24.5390 C   0  0  0  0  0  0  0  0  0  0  0  0
   11.0369  -18.2102   25.1597 C   0  0  0  0  0  0  0  0  0  0  0  0
    9.9656  -17.1940   25.0428 C   0  0  2  0  0  0  0  0  0  0  0  0
    9.6531  -16.6859   23.7535 N   0  0  0  0  0  0  0  0  0  0  0  0
   10.3468  -16.0432   25.9245 C   0  0  0  0  0  0  0  0  0  0  0  0
   11.3028  -15.3326   25.5229 O   0  0  0  0  0  0  0  0  0  0  0  0
    9.1100  -13.6408   28.2775 C   0  0  0  0  0  0  0  0  0  0  0  0
   10.1889  -14.6518   27.9617 C   0  0  2  0  0  0  0  0  0  0  0  0
    9.7199  -15.7221   27.1331 N   0  0  0  0  0  0  0  0  0  0  0  0
   10.6981  -15.1635   29.2607 C   0  0  0  0  0  0  0  0  0  0  0  0
   10.6695  -16.4881   29.5997 O   0  0  0  0  0  0  0  0  0  0  0  0
   11.1740  -14.3469   30.0811 O   0  0  0  0  0  0  0  0  0  0  0  0
  2  3  2  0
  2  1  1  0
  4  3  1  0
  5  4  2  0
  6  5  1  0
  7  9  1  0
  7  6  1  0
  7  8  1  1
  9 10  2  0
 11  5  1  0
 11 12  2  0
 12  2  1  0
 14 15  2  0
 14 13  1  0
 16 14  1  0
 17 16  1  0
 18 17  1  6
 19  9  1  0
 19 18  1  0
 20 24  1  0
 20 18  1  0
 21 20  2  0
 23 22  1  1
 23 24  1  0
 25 23  1  0
 25 26  1  0
 27 25  2  0
M  END
$$$$
