YQA.pdb
     RDKit          3D

 27 27  0  0  1  0  0  0  0  0999 V2000
    8.4533  -12.7676   16.4582 O   0  0  0  0  0  0  0  0  0  0  0  0
    8.2084  -13.1778   17.7781 C   0  0  0  0  0  0  0  0  0  0  0  0
    9.0835  -14.0705   18.3230 C   0  0  0  0  0  0  0  0  0  0  0  0
    8.8677  -14.4983   19.6341 C   0  0  0  0  0  0  0  0  0  0  0  0
    7.8086  -14.0468   20.3779 C   0  0  0  0  0  0  0  0  0  0  0  0
    7.6255  -14.5261   21.7505 C   0  0  0  0  0  0  0  0  0  0  0  0
    7.5140  -16.0556   21.8076 C   0  0  2  0  0  0  0  0  0  0  0  0
    6.3225  -16.5192   21.1723 N   0  0  0  0  0  0  0  0  0  0  0  0
    7.5727  -16.4037   23.2498 C   0  0  0  0  0  0  0  0  0  0  0  0
    6.4883  -16.3872   23.8801 O   0  0  0  0  0  0  0  0  0  0  0  0
    6.9401  -13.1495   19.8120 C   0  0  0  0  0  0  0  0  0  0  0  0
    7.1401  -12.7083   18.4972 C   0  0  0  0  0  0  0  0  0  0  0  0
   10.7194  -20.9116   26.2551 N   0  0  0  0  0  0  0  0  0  0  0  0
   11.3743  -20.0598   25.3250 C   0  0  0  0  0  0  0  0  0  0  0  0
   12.4517  -20.4300   24.8374 O   0  0  0  0  0  0  0  0  0  0  0  0
   10.7664  -18.7764   24.9718 C   0  0  0  0  0  0  0  0  0  0  0  0
    9.5074  -18.3986   25.6391 C   0  0  0  0  0  0  0  0  0  0  0  0
    8.8702  -17.1071   25.2924 C   0  0  2  0  0  0  0  0  0  0  0  0
    8.7778  -16.7451   23.9218 N   0  0  0  0  0  0  0  0  0  0  0  0
    9.6237  -16.0317   26.0154 C   0  0  0  0  0  0  0  0  0  0  0  0
   10.6871  -15.6406   25.4709 O   0  0  0  0  0  0  0  0  0  0  0  0
    9.3008  -13.2996   28.3946 C   0  0  0  0  0  0  0  0  0  0  0  0
   10.0584  -14.5197   27.9223 C   0  0  2  0  0  0  0  0  0  0  0  0
    9.2253  -15.4539   27.2255 N   0  0  0  0  0  0  0  0  0  0  0  0
   10.6721  -15.1420   29.1243 C   0  0  0  0  0  0  0  0  0  0  0  0
   10.4374  -16.4385   29.4911 O   0  0  0  0  0  0  0  0  0  0  0  0
   11.4374  -14.4499   29.8325 O   0  0  0  0  0  0  0  0  0  0  0  0
  2  3  2  0
  2  1  1  0
  4  3  1  0
  5  4  2  0
  6  5  1  0
  7  9  1  0
  7  6  1  0
  7  8  1  1
  9 10  2  0
 11  5  1  0
 11 12  2  0
 12  2  1  0
 14 15  2  0
 14 13  1  0
 16 14  1  0
 17 16  1  0
 18 17  1  6
 19  9  1  0
 19 18  1  0
 20 24  1  0
 20 18  1  0
 21 20  2  0
 23 22  1  1
 23 24  1  0
 25 23  1  0
 25 26  1  0
 27 25  2  0
M  END
$$$$
