YQA.pdb
     RDKit          3D

 27 27  0  0  1  0  0  0  0  0999 V2000
    7.2435  -11.5218   27.7365 O   0  0  0  0  0  0  0  0  0  0  0  0
    7.1685  -12.3128   26.5793 C   0  0  0  0  0  0  0  0  0  0  0  0
    8.3418  -12.5990   25.9461 C   0  0  0  0  0  0  0  0  0  0  0  0
    8.3012  -13.3836   24.7923 C   0  0  0  0  0  0  0  0  0  0  0  0
    7.1225  -13.8674   24.2869 C   0  0  0  0  0  0  0  0  0  0  0  0
    7.1325  -14.6871   23.0723 C   0  0  0  0  0  0  0  0  0  0  0  0
    7.0066  -16.1820   23.3952 C   0  0  2  0  0  0  0  0  0  0  0  0
    5.8313  -16.4573   24.1574 N   0  0  0  0  0  0  0  0  0  0  0  0
    8.2569  -16.5393   24.1119 C   0  0  0  0  0  0  0  0  0  0  0  0
    8.1419  -16.8816   25.3133 O   0  0  0  0  0  0  0  0  0  0  0  0
    5.9536  -13.5684   24.9381 C   0  0  0  0  0  0  0  0  0  0  0  0
    5.9741  -12.7823   26.0979 C   0  0  0  0  0  0  0  0  0  0  0  0
   14.1379  -18.2526   21.5037 N   0  0  0  0  0  0  0  0  0  0  0  0
   12.8893  -17.8572   20.9522 C   0  0  0  0  0  0  0  0  0  0  0  0
   12.8303  -17.5976   19.7419 O   0  0  0  0  0  0  0  0  0  0  0  0
   11.7153  -17.7642   21.8207 C   0  0  0  0  0  0  0  0  0  0  0  0
   11.9028  -17.2418   23.1864 C   0  0  0  0  0  0  0  0  0  0  0  0
   10.7187  -17.0754   24.0607 C   0  0  2  0  0  0  0  0  0  0  0  0
    9.5412  -16.5084   23.5037 N   0  0  0  0  0  0  0  0  0  0  0  0
   11.1422  -16.2342   25.2268 C   0  0  0  0  0  0  0  0  0  0  0  0
   12.0821  -15.4271   25.0136 O   0  0  0  0  0  0  0  0  0  0  0  0
   10.2102  -14.5486   28.1885 C   0  0  0  0  0  0  0  0  0  0  0  0
   11.1409  -15.5925   27.6142 C   0  0  2  0  0  0  0  0  0  0  0  0
   10.5701  -16.2922   26.5021 N   0  0  0  0  0  0  0  0  0  0  0  0
   11.4793  -16.5274   28.7188 C   0  0  0  0  0  0  0  0  0  0  0  0
   11.2412  -17.8725   28.6525 O   0  0  0  0  0  0  0  0  0  0  0  0
   12.0053  -16.0641   29.7556 O   0  0  0  0  0  0  0  0  0  0  0  0
  2  3  2  0
  2  1  1  0
  4  3  1  0
  5  4  2  0
  6  5  1  0
  7  9  1  0
  7  6  1  0
  7  8  1  1
  9 10  2  0
 11  5  1  0
 11 12  2  0
 12  2  1  0
 14 15  2  0
 14 13  1  0
 16 14  1  0
 17 16  1  0
 18 17  1  6
 19  9  1  0
 19 18  1  0
 20 24  1  0
 20 18  1  0
 21 20  2  0
 23 22  1  1
 23 24  1  0
 25 23  1  0
 25 26  1  0
 27 25  2  0
M  END
$$$$
