YQA.pdb
     RDKit          3D

 27 27  0  0  1  0  0  0  0  0999 V2000
    0.7092  -19.9446   20.0634 O   0  0  0  0  0  0  0  0  0  0  0  0
    1.9934  -19.5423   20.4628 C   0  0  0  0  0  0  0  0  0  0  0  0
    2.0805  -18.7609   21.5769 C   0  0  0  0  0  0  0  0  0  0  0  0
    3.3436  -18.3440   22.0003 C   0  0  0  0  0  0  0  0  0  0  0  0
    4.4853  -18.6979   21.3296 C   0  0  0  0  0  0  0  0  0  0  0  0
    5.7883  -18.2347   21.8143 C   0  0  0  0  0  0  0  0  0  0  0  0
    6.1917  -16.9010   21.1715 C   0  0  2  0  0  0  0  0  0  0  0  0
    6.7593  -17.0931   19.8757 N   0  0  0  0  0  0  0  0  0  0  0  0
    7.1357  -16.2695   22.1278 C   0  0  0  0  0  0  0  0  0  0  0  0
    8.3529  -16.3024   21.8260 O   0  0  0  0  0  0  0  0  0  0  0  0
    4.3766  -19.4841   20.2116 C   0  0  0  0  0  0  0  0  0  0  0  0
    3.1173  -19.9125   19.7710 C   0  0  0  0  0  0  0  0  0  0  0  0
    7.9157  -12.1651   28.4093 N   0  0  0  0  0  0  0  0  0  0  0  0
    7.2130  -12.5307   27.2293 C   0  0  0  0  0  0  0  0  0  0  0  0
    6.0971  -12.0322   27.0243 O   0  0  0  0  0  0  0  0  0  0  0  0
    7.8184  -13.4809   26.2957 C   0  0  0  0  0  0  0  0  0  0  0  0
    6.9653  -14.0538   25.2388 C   0  0  0  0  0  0  0  0  0  0  0  0
    7.5786  -14.9386   24.2215 C   0  0  2  0  0  0  0  0  0  0  0  0
    6.7221  -15.6475   23.3371 N   0  0  0  0  0  0  0  0  0  0  0  0
    8.4301  -15.9324   24.9523 C   0  0  0  0  0  0  0  0  0  0  0  0
    7.8151  -16.7987   25.6242 O   0  0  0  0  0  0  0  0  0  0  0  0
   11.9573  -17.1702   24.9285 C   0  0  0  0  0  0  0  0  0  0  0  0
   10.5734  -17.0258   25.5199 C   0  0  2  0  0  0  0  0  0  0  0  0
    9.8287  -15.9525   24.9318 N   0  0  0  0  0  0  0  0  0  0  0  0
   10.7452  -16.8206   26.9818 C   0  0  0  0  0  0  0  0  0  0  0  0
   11.3497  -17.7393   27.7947 O   0  0  0  0  0  0  0  0  0  0  0  0
   10.3182  -15.7606   27.4921 O   0  0  0  0  0  0  0  0  0  0  0  0
  2  3  2  0
  2  1  1  0
  4  3  1  0
  5  4  2  0
  6  5  1  0
  7  9  1  0
  7  6  1  0
  7  8  1  6
  9 10  2  0
 11  5  1  0
 11 12  2  0
 12  2  1  0
 14 15  2  0
 14 13  1  0
 16 14  1  0
 17 16  1  0
 18 17  1  1
 19  9  1  0
 19 18  1  0
 20 24  1  0
 20 18  1  0
 21 20  2  0
 23 22  1  6
 23 24  1  0
 25 23  1  0
 25 26  1  0
 27 25  2  0
M  END
$$$$
