YQA.pdb
     RDKit          3D

 27 27  0  0  1  0  0  0  0  0999 V2000
    6.0072  -11.0054   28.7439 O   0  0  0  0  0  0  0  0  0  0  0  0
    6.4511  -11.9765   27.8327 C   0  0  0  0  0  0  0  0  0  0  0  0
    7.4774  -12.7802   28.2332 C   0  0  0  0  0  0  0  0  0  0  0  0
    7.9420  -13.7562   27.3500 C   0  0  0  0  0  0  0  0  0  0  0  0
    7.3966  -13.9234   26.1036 C   0  0  0  0  0  0  0  0  0  0  0  0
    7.9197  -14.9628   25.2130 C   0  0  0  0  0  0  0  0  0  0  0  0
    6.7949  -15.6765   24.4512 C   0  0  2  0  0  0  0  0  0  0  0  0
    6.3195  -16.8178   25.1651 N   0  0  0  0  0  0  0  0  0  0  0  0
    7.3702  -16.0219   23.1268 C   0  0  0  0  0  0  0  0  0  0  0  0
    7.4419  -17.2415   22.8420 O   0  0  0  0  0  0  0  0  0  0  0  0
    6.3655  -13.1053   25.7198 C   0  0  0  0  0  0  0  0  0  0  0  0
    5.8854  -12.1198   26.5925 C   0  0  0  0  0  0  0  0  0  0  0  0
    7.7567  -12.7913   17.4627 N   0  0  0  0  0  0  0  0  0  0  0  0
    8.3798  -14.0682   17.4303 C   0  0  0  0  0  0  0  0  0  0  0  0
    8.2986  -14.7423   16.3936 O   0  0  0  0  0  0  0  0  0  0  0  0
    9.0928  -14.5519   18.6129 C   0  0  0  0  0  0  0  0  0  0  0  0
    8.5201  -14.2534   19.9381 C   0  0  0  0  0  0  0  0  0  0  0  0
    8.4172  -15.3416   20.9378 C   0  0  2  0  0  0  0  0  0  0  0  0
    7.8291  -15.0492   22.1975 N   0  0  0  0  0  0  0  0  0  0  0  0
    9.8033  -15.8616   21.1728 C   0  0  0  0  0  0  0  0  0  0  0  0
   10.3930  -16.3361   20.1691 O   0  0  0  0  0  0  0  0  0  0  0  0
   12.5475  -15.6859   23.6853 C   0  0  0  0  0  0  0  0  0  0  0  0
   11.7972  -16.3468   22.5513 C   0  0  2  0  0  0  0  0  0  0  0  0
   10.4611  -15.8505   22.4073 N   0  0  0  0  0  0  0  0  0  0  0  0
   11.7996  -17.8080   22.8224 C   0  0  0  0  0  0  0  0  0  0  0  0
   12.9458  -18.5525   22.8704 O   0  0  0  0  0  0  0  0  0  0  0  0
   10.7050  -18.3832   23.0154 O   0  0  0  0  0  0  0  0  0  0  0  0
  2  3  2  0
  2  1  1  0
  4  3  1  0
  5  4  2  0
  6  5  1  0
  7  9  1  0
  7  6  1  0
  7  8  1  1
  9 10  2  0
 11  5  1  0
 11 12  2  0
 12  2  1  0
 14 15  2  0
 14 13  1  0
 16 14  1  0
 17 16  1  0
 18 17  1  6
 19  9  1  0
 19 18  1  0
 20 24  1  0
 20 18  1  0
 21 20  2  0
 23 22  1  1
 23 24  1  0
 25 23  1  0
 25 26  1  0
 27 25  2  0
M  END
$$$$
