SYG.pdb
     RDKit          3D

 23 23  0  0  1  0  0  0  0  0999 V2000
    8.1742  -19.2367   23.2693 O   0  0  0  0  0  0  0  0  0  0  0  0
    7.0829  -19.3567   24.0994 C   0  0  0  0  0  0  0  0  0  0  0  0
    6.0670  -18.3109   23.7204 C   0  0  2  0  0  0  0  0  0  0  0  0
    5.5538  -18.5858   22.3759 N   0  0  0  0  0  0  0  0  0  0  0  0
    6.5828  -16.9401   23.7153 C   0  0  0  0  0  0  0  0  0  0  0  0
    6.6510  -16.2490   22.6385 O   0  0  0  0  0  0  0  0  0  0  0  0
   10.9553  -15.5515   30.2208 O   0  0  0  0  0  0  0  0  0  0  0  0
   10.0268  -15.2589   29.2180 C   0  0  0  0  0  0  0  0  0  0  0  0
   10.0190  -14.0157   28.6383 C   0  0  0  0  0  0  0  0  0  0  0  0
    9.0949  -13.7365   27.6458 C   0  0  0  0  0  0  0  0  0  0  0  0
    8.1737  -14.6648   27.2123 C   0  0  0  0  0  0  0  0  0  0  0  0
    7.2311  -14.2788   26.1626 C   0  0  0  0  0  0  0  0  0  0  0  0
    7.5151  -14.8652   24.8018 C   0  0  2  0  0  0  0  0  0  0  0  0
    7.0522  -16.2386   24.8685 N   0  0  0  0  0  0  0  0  0  0  0  0
    8.9721  -14.8856   24.5511 C   0  0  0  0  0  0  0  0  0  0  0  0
    9.5807  -13.7608   24.5343 O   0  0  0  0  0  0  0  0  0  0  0  0
    8.2069  -15.9047   27.8141 C   0  0  0  0  0  0  0  0  0  0  0  0
    9.1163  -16.2037   28.8019 C   0  0  0  0  0  0  0  0  0  0  0  0
    9.7219  -16.0741   24.3307 N   0  0  0  0  0  0  0  0  0  0  0  0
   11.1294  -15.9407   24.0837 C   0  0  0  0  0  0  0  0  0  0  0  0
   11.8307  -17.2232   23.9656 C   0  0  0  0  0  0  0  0  0  0  0  0
   12.3505  -17.5727   22.7275 O   0  0  0  0  0  0  0  0  0  0  0  0
   11.9725  -17.9955   24.9234 O   0  0  0  0  0  0  0  0  0  0  0  0
  2  1  1  0
  3  2  1  0
  3  4  1  6
  5  3  1  0
  5  6  2  0
  7  8  1  0
  8 18  2  0
  9 10  2  0
  9  8  1  0
 10 11  1  0
 11 12  1  0
 11 17  2  0
 13 12  1  1
 13 14  1  0
 14  5  1  0
 15 13  1  0
 16 15  2  0
 18 17  1  0
 19 15  1  0
 20 19  1  0
 21 20  1  0
 22 21  1  0
 23 21  2  0
M  END
$$$$
