SYG.pdb
     RDKit          3D

 23 23  0  0  1  0  0  0  0  0999 V2000
   10.4555  -19.5292   20.0993 O   0  0  0  0  0  0  0  0  0  0  0  0
    9.3060  -19.0461   20.6818 C   0  0  0  0  0  0  0  0  0  0  0  0
    8.9703  -17.7144   20.0627 C   0  0  2  0  0  0  0  0  0  0  0  0
    9.8972  -17.4336   18.9635 N   0  0  0  0  0  0  0  0  0  0  0  0
    9.0405  -16.5818   20.9887 C   0  0  0  0  0  0  0  0  0  0  0  0
    9.7810  -15.5629   20.7534 O   0  0  0  0  0  0  0  0  0  0  0  0
    6.4954  -11.0255   27.5065 O   0  0  0  0  0  0  0  0  0  0  0  0
    6.6354  -12.0404   26.5559 C   0  0  0  0  0  0  0  0  0  0  0  0
    6.5036  -13.3521   26.9350 C   0  0  0  0  0  0  0  0  0  0  0  0
    6.6443  -14.3494   25.9850 C   0  0  0  0  0  0  0  0  0  0  0  0
    6.9142  -14.0762   24.6618 C   0  0  0  0  0  0  0  0  0  0  0  0
    7.0526  -15.1949   23.7297 C   0  0  0  0  0  0  0  0  0  0  0  0
    8.4066  -15.3172   23.0753 C   0  0  2  0  0  0  0  0  0  0  0  0
    8.3173  -16.4838   22.2174 N   0  0  0  0  0  0  0  0  0  0  0  0
    9.4431  -15.5793   24.0966 C   0  0  0  0  0  0  0  0  0  0  0  0
    9.7839  -14.6040   24.8507 O   0  0  0  0  0  0  0  0  0  0  0  0
    7.0408  -12.7487   24.3122 C   0  0  0  0  0  0  0  0  0  0  0  0
    6.9049  -11.7418   25.2395 C   0  0  0  0  0  0  0  0  0  0  0  0
   10.0720  -16.8415   24.2819 N   0  0  0  0  0  0  0  0  0  0  0  0
   11.0372  -16.9592   25.3376 C   0  0  0  0  0  0  0  0  0  0  0  0
   10.4693  -17.4301   26.6049 C   0  0  0  0  0  0  0  0  0  0  0  0
   11.3229  -17.5796   27.6886 O   0  0  0  0  0  0  0  0  0  0  0  0
    9.2669  -17.6955   26.7382 O   0  0  0  0  0  0  0  0  0  0  0  0
  2  1  1  0
  3  2  1  0
  3  4  1  6
  5  3  1  0
  5  6  2  0
  7  8  1  0
  8 18  2  0
  9 10  2  0
  9  8  1  0
 10 11  1  0
 11 12  1  0
 11 17  2  0
 13 12  1  1
 13 14  1  0
 14  5  1  0
 15 13  1  0
 16 15  2  0
 18 17  1  0
 19 15  1  0
 20 19  1  0
 21 20  1  0
 22 21  1  0
 23 21  2  0
M  END
$$$$
