SYG.pdb
     RDKit          3D

 23 23  0  0  1  0  0  0  0  0999 V2000
    8.5504  -16.1872   19.3141 O   0  0  0  0  0  0  0  0  0  0  0  0
    7.2404  -15.8722   19.5954 C   0  0  0  0  0  0  0  0  0  0  0  0
    7.1946  -14.5065   20.2296 C   0  0  2  0  0  0  0  0  0  0  0  0
    7.5246  -13.4871   19.2303 N   0  0  0  0  0  0  0  0  0  0  0  0
    8.1194  -14.3289   21.3513 C   0  0  0  0  0  0  0  0  0  0  0  0
    9.1107  -13.5197   21.2868 O   0  0  0  0  0  0  0  0  0  0  0  0
    5.7121  -10.4614   27.2058 O   0  0  0  0  0  0  0  0  0  0  0  0
    6.3163  -11.5818   26.6285 C   0  0  0  0  0  0  0  0  0  0  0  0
    7.1191  -12.3917   27.3909 C   0  0  0  0  0  0  0  0  0  0  0  0
    7.7125  -13.4989   26.8089 C   0  0  0  0  0  0  0  0  0  0  0  0
    7.5285  -13.8240   25.4828 C   0  0  0  0  0  0  0  0  0  0  0  0
    8.2009  -15.0096   24.9523 C   0  0  0  0  0  0  0  0  0  0  0  0
    8.9764  -14.7874   23.6773 C   0  0  2  0  0  0  0  0  0  0  0  0
    8.0271  -15.0118   22.6034 N   0  0  0  0  0  0  0  0  0  0  0  0
   10.0520  -15.7945   23.5544 C   0  0  0  0  0  0  0  0  0  0  0  0
   11.0454  -15.6929   24.3537 O   0  0  0  0  0  0  0  0  0  0  0  0
    6.7164  -12.9908   24.7432 C   0  0  0  0  0  0  0  0  0  0  0  0
    6.1167  -11.8856   25.3010 C   0  0  0  0  0  0  0  0  0  0  0  0
   10.0399  -16.8556   22.6072 N   0  0  0  0  0  0  0  0  0  0  0  0
   11.1828  -17.7223   22.5592 C   0  0  0  0  0  0  0  0  0  0  0  0
   11.1843  -18.7531   23.6022 C   0  0  0  0  0  0  0  0  0  0  0  0
   12.2357  -19.6584   23.6254 O   0  0  0  0  0  0  0  0  0  0  0  0
   10.2886  -18.8412   24.4530 O   0  0  0  0  0  0  0  0  0  0  0  0
  2  1  1  0
  3  2  1  0
  3  4  1  6
  5  3  1  0
  5  6  2  0
  7  8  1  0
  8 18  2  0
  9 10  2  0
  9  8  1  0
 10 11  1  0
 11 12  1  0
 11 17  2  0
 13 12  1  1
 13 14  1  0
 14  5  1  0
 15 13  1  0
 16 15  2  0
 18 17  1  0
 19 15  1  0
 20 19  1  0
 21 20  1  0
 22 21  1  0
 23 21  2  0
M  END
$$$$
