SYG.pdb
     RDKit          3D

 23 23  0  0  1  0  0  0  0  0999 V2000
    8.2743  -15.8272   19.5558 O   0  0  0  0  0  0  0  0  0  0  0  0
    7.0210  -15.4954   20.0174 C   0  0  0  0  0  0  0  0  0  0  0  0
    7.1145  -14.2077   20.7938 C   0  0  2  0  0  0  0  0  0  0  0  0
    7.4960  -13.1159   19.8945 N   0  0  0  0  0  0  0  0  0  0  0  0
    8.0892  -14.2296   21.8867 C   0  0  0  0  0  0  0  0  0  0  0  0
    9.2388  -13.6746   21.7765 O   0  0  0  0  0  0  0  0  0  0  0  0
   11.2141  -15.0355   30.2084 O   0  0  0  0  0  0  0  0  0  0  0  0
   10.4411  -15.0348   29.0440 C   0  0  0  0  0  0  0  0  0  0  0  0
   10.0779  -13.8441   28.4679 C   0  0  0  0  0  0  0  0  0  0  0  0
    9.3120  -13.8551   27.3145 C   0  0  0  0  0  0  0  0  0  0  0  0
    8.8954  -15.0239   26.7158 C   0  0  0  0  0  0  0  0  0  0  0  0
    8.0834  -14.9385   25.5022 C   0  0  0  0  0  0  0  0  0  0  0  0
    8.8644  -14.7832   24.2207 C   0  0  2  0  0  0  0  0  0  0  0  0
    7.8795  -14.8491   23.1574 N   0  0  0  0  0  0  0  0  0  0  0  0
    9.7957  -15.9192   24.0521 C   0  0  0  0  0  0  0  0  0  0  0  0
    9.2828  -17.0748   23.8581 O   0  0  0  0  0  0  0  0  0  0  0  0
    9.2766  -16.2038   27.3184 C   0  0  0  0  0  0  0  0  0  0  0  0
   10.0374  -16.2163   28.4644 C   0  0  0  0  0  0  0  0  0  0  0  0
   11.2121  -15.7959   24.0937 N   0  0  0  0  0  0  0  0  0  0  0  0
   11.9932  -16.9791   23.8708 C   0  0  0  0  0  0  0  0  0  0  0  0
   12.8396  -17.3492   25.0097 C   0  0  0  0  0  0  0  0  0  0  0  0
   13.6795  -18.4451   24.8714 O   0  0  0  0  0  0  0  0  0  0  0  0
   12.8294  -16.7232   26.0783 O   0  0  0  0  0  0  0  0  0  0  0  0
  2  1  1  0
  3  2  1  0
  3  4  1  6
  5  3  1  0
  5  6  2  0
  7  8  1  0
  8 18  2  0
  9 10  2  0
  9  8  1  0
 10 11  1  0
 11 12  1  0
 11 17  2  0
 13 12  1  1
 13 14  1  0
 14  5  1  0
 15 13  1  0
 16 15  2  0
 18 17  1  0
 19 15  1  0
 20 19  1  0
 21 20  1  0
 22 21  1  0
 23 21  2  0
M  END
$$$$
