SYG.pdb
     RDKit          3D

 23 23  0  0  1  0  0  0  0  0999 V2000
    9.4144  -15.7351   18.5370 O   0  0  0  0  0  0  0  0  0  0  0  0
    8.1344  -15.4338   18.1308 C   0  0  0  0  0  0  0  0  0  0  0  0
    7.8042  -14.0300   18.5664 C   0  0  2  0  0  0  0  0  0  0  0  0
    8.5017  -13.0698   17.7073 N   0  0  0  0  0  0  0  0  0  0  0  0
    8.1750  -13.7227   19.9496 C   0  0  0  0  0  0  0  0  0  0  0  0
    9.2181  -13.0341   20.2314 O   0  0  0  0  0  0  0  0  0  0  0  0
    7.2974  -12.2397   28.6691 O   0  0  0  0  0  0  0  0  0  0  0  0
    7.1225  -12.6271   27.3377 C   0  0  0  0  0  0  0  0  0  0  0  0
    7.1092  -11.6775   26.3479 C   0  0  0  0  0  0  0  0  0  0  0  0
    6.9352  -12.0725   25.0323 C   0  0  0  0  0  0  0  0  0  0  0  0
    6.7731  -13.3926   24.6728 C   0  0  0  0  0  0  0  0  0  0  0  0
    6.5891  -13.7158   23.2582 C   0  0  0  0  0  0  0  0  0  0  0  0
    7.8607  -13.7927   22.4498 C   0  0  2  0  0  0  0  0  0  0  0  0
    7.4430  -14.1391   21.1043 N   0  0  0  0  0  0  0  0  0  0  0  0
    8.7201  -14.8839   22.9567 C   0  0  0  0  0  0  0  0  0  0  0  0
    9.1804  -14.7652   24.1442 O   0  0  0  0  0  0  0  0  0  0  0  0
    6.7912  -14.3229   25.6901 C   0  0  0  0  0  0  0  0  0  0  0  0
    6.9628  -13.9529   27.0038 C   0  0  0  0  0  0  0  0  0  0  0  0
    9.0569  -16.0426   22.2035 N   0  0  0  0  0  0  0  0  0  0  0  0
    9.8433  -17.0547   22.8493 C   0  0  0  0  0  0  0  0  0  0  0  0
   11.2894  -16.8559   22.7086 C   0  0  0  0  0  0  0  0  0  0  0  0
   12.0785  -16.9688   23.8443 O   0  0  0  0  0  0  0  0  0  0  0  0
   11.8231  -16.5936   21.6222 O   0  0  0  0  0  0  0  0  0  0  0  0
  2  1  1  0
  3  2  1  0
  3  4  1  6
  5  3  1  0
  5  6  2  0
  7  8  1  0
  8 18  2  0
  9 10  2  0
  9  8  1  0
 10 11  1  0
 11 12  1  0
 11 17  2  0
 13 12  1  1
 13 14  1  0
 14  5  1  0
 15 13  1  0
 16 15  2  0
 18 17  1  0
 19 15  1  0
 20 19  1  0
 21 20  1  0
 22 21  1  0
 23 21  2  0
M  END
$$$$
