SYG.pdb
     RDKit          3D

 23 23  0  0  1  0  0  0  0  0999 V2000
    8.2007  -15.3770   18.9441 O   0  0  0  0  0  0  0  0  0  0  0  0
    7.0811  -14.6672   19.3143 C   0  0  0  0  0  0  0  0  0  0  0  0
    7.5103  -13.4681   20.1189 C   0  0  2  0  0  0  0  0  0  0  0  0
    8.2709  -12.5495   19.2680 N   0  0  0  0  0  0  0  0  0  0  0  0
    8.3517  -13.7848   21.2751 C   0  0  0  0  0  0  0  0  0  0  0  0
    9.5492  -13.3411   21.3797 O   0  0  0  0  0  0  0  0  0  0  0  0
    6.0702  -10.4918   27.5003 O   0  0  0  0  0  0  0  0  0  0  0  0
    6.4840  -11.6260   26.7962 C   0  0  0  0  0  0  0  0  0  0  0  0
    7.7689  -12.0849   26.9380 C   0  0  0  0  0  0  0  0  0  0  0  0
    8.1683  -13.2094   26.2358 C   0  0  0  0  0  0  0  0  0  0  0  0
    7.3203  -13.8930   25.3920 C   0  0  0  0  0  0  0  0  0  0  0  0
    7.8315  -15.0675   24.6860 C   0  0  0  0  0  0  0  0  0  0  0  0
    8.7848  -14.7684   23.5554 C   0  0  2  0  0  0  0  0  0  0  0  0
    7.9500  -14.5953   22.3815 N   0  0  0  0  0  0  0  0  0  0  0  0
    9.6720  -15.9272   23.3185 C   0  0  0  0  0  0  0  0  0  0  0  0
   10.4340  -16.2893   24.2799 O   0  0  0  0  0  0  0  0  0  0  0  0
    6.0357  -13.4073   25.2709 C   0  0  0  0  0  0  0  0  0  0  0  0
    5.6177  -12.2920   25.9592 C   0  0  0  0  0  0  0  0  0  0  0  0
    9.7216  -16.6504   22.0947 N   0  0  0  0  0  0  0  0  0  0  0  0
   10.5716  -17.8052   22.0343 C   0  0  0  0  0  0  0  0  0  0  0  0
   10.5392  -18.4932   20.7396 C   0  0  0  0  0  0  0  0  0  0  0  0
   11.6897  -18.4819   19.9641 O   0  0  0  0  0  0  0  0  0  0  0  0
    9.5305  -19.0771   20.3207 O   0  0  0  0  0  0  0  0  0  0  0  0
  2  1  1  0
  3  2  1  0
  3  4  1  6
  5  3  1  0
  5  6  2  0
  7  8  1  0
  8 18  2  0
  9 10  2  0
  9  8  1  0
 10 11  1  0
 11 12  1  0
 11 17  2  0
 13 12  1  1
 13 14  1  0
 14  5  1  0
 15 13  1  0
 16 15  2  0
 18 17  1  0
 19 15  1  0
 20 19  1  0
 21 20  1  0
 22 21  1  0
 23 21  2  0
M  END
$$$$
