SYG.pdb
     RDKit          3D

 23 23  0  0  1  0  0  0  0  0999 V2000
    9.0196  -20.3904   22.0861 O   0  0  0  0  0  0  0  0  0  0  0  0
    7.7189  -20.0502   21.7920 C   0  0  0  0  0  0  0  0  0  0  0  0
    7.7244  -18.9846   20.7272 C   0  0  2  0  0  0  0  0  0  0  0  0
    7.8961  -19.6036   19.4105 N   0  0  0  0  0  0  0  0  0  0  0  0
    8.7839  -17.9846   20.8774 C   0  0  0  0  0  0  0  0  0  0  0  0
    9.8219  -17.9835   20.1261 O   0  0  0  0  0  0  0  0  0  0  0  0
    6.7628  -12.5135   17.4084 O   0  0  0  0  0  0  0  0  0  0  0  0
    7.3240  -13.0350   18.5774 C   0  0  0  0  0  0  0  0  0  0  0  0
    8.6879  -13.1037   18.7067 C   0  0  0  0  0  0  0  0  0  0  0  0
    9.2331  -13.6221   19.8690 C   0  0  0  0  0  0  0  0  0  0  0  0
    8.4548  -14.0764   20.9112 C   0  0  0  0  0  0  0  0  0  0  0  0
    9.1185  -14.6139   22.0986 C   0  0  0  0  0  0  0  0  0  0  0  0
    9.8305  -15.9281   21.8925 C   0  0  2  0  0  0  0  0  0  0  0  0
    8.7836  -16.9314   21.8434 N   0  0  0  0  0  0  0  0  0  0  0  0
   10.6946  -16.2258   23.0547 C   0  0  0  0  0  0  0  0  0  0  0  0
   10.1155  -16.5070   24.1600 O   0  0  0  0  0  0  0  0  0  0  0  0
    7.0880  -13.9939   20.7511 C   0  0  0  0  0  0  0  0  0  0  0  0
    6.5249  -13.4824   19.6050 C   0  0  0  0  0  0  0  0  0  0  0  0
   12.1163  -16.2161   23.0087 N   0  0  0  0  0  0  0  0  0  0  0  0
   12.8265  -16.5802   24.2015 C   0  0  0  0  0  0  0  0  0  0  0  0
   14.2834  -16.4695   24.0763 C   0  0  0  0  0  0  0  0  0  0  0  0
   15.0600  -16.7726   25.1855 O   0  0  0  0  0  0  0  0  0  0  0  0
   14.8369  -16.1184   23.0254 O   0  0  0  0  0  0  0  0  0  0  0  0
  2  1  1  0
  3  2  1  0
  3  4  1  6
  5  3  1  0
  5  6  2  0
  7  8  1  0
  8 18  2  0
  9 10  2  0
  9  8  1  0
 10 11  1  0
 11 12  1  0
 11 17  2  0
 13 12  1  1
 13 14  1  0
 14  5  1  0
 15 13  1  0
 16 15  2  0
 18 17  1  0
 19 15  1  0
 20 19  1  0
 21 20  1  0
 22 21  1  0
 23 21  2  0
M  END
$$$$
