SYG.pdb
     RDKit          3D

 23 23  0  0  1  0  0  0  0  0999 V2000
    8.2369  -16.2072   19.6629 O   0  0  0  0  0  0  0  0  0  0  0  0
    7.0354  -15.5990   19.9471 C   0  0  0  0  0  0  0  0  0  0  0  0
    7.3063  -14.2820   20.6265 C   0  0  2  0  0  0  0  0  0  0  0  0
    7.8921  -13.3429   19.6667 N   0  0  0  0  0  0  0  0  0  0  0  0
    8.2235  -14.3661   21.7653 C   0  0  0  0  0  0  0  0  0  0  0  0
    9.3794  -13.8135   21.7428 O   0  0  0  0  0  0  0  0  0  0  0  0
    5.9350  -10.4653   27.5637 O   0  0  0  0  0  0  0  0  0  0  0  0
    6.4763  -11.6265   27.0052 C   0  0  0  0  0  0  0  0  0  0  0  0
    5.7747  -12.8036   27.0677 C   0  0  0  0  0  0  0  0  0  0  0  0
    6.3203  -13.9480   26.5112 C   0  0  0  0  0  0  0  0  0  0  0  0
    7.5509  -13.9535   25.8915 C   0  0  0  0  0  0  0  0  0  0  0  0
    8.0506  -15.2115   25.3375 C   0  0  0  0  0  0  0  0  0  0  0  0
    8.8903  -15.0720   24.0917 C   0  0  2  0  0  0  0  0  0  0  0  0
    7.9464  -15.0484   22.9901 N   0  0  0  0  0  0  0  0  0  0  0  0
    9.7558  -16.2593   23.9265 C   0  0  0  0  0  0  0  0  0  0  0  0
   10.5943  -16.5089   24.8596 O   0  0  0  0  0  0  0  0  0  0  0  0
    8.2311  -12.7553   25.8449 C   0  0  0  0  0  0  0  0  0  0  0  0
    7.7080  -11.6063   26.3911 C   0  0  0  0  0  0  0  0  0  0  0  0
    9.7055  -17.1264   22.8000 N   0  0  0  0  0  0  0  0  0  0  0  0
   10.5148  -18.3112   22.8315 C   0  0  0  0  0  0  0  0  0  0  0  0
   11.8571  -18.1225   22.2720 C   0  0  0  0  0  0  0  0  0  0  0  0
   12.1647  -18.7625   21.0798 O   0  0  0  0  0  0  0  0  0  0  0  0
   12.7152  -17.4190   22.8222 O   0  0  0  0  0  0  0  0  0  0  0  0
  2  1  1  0
  3  2  1  0
  3  4  1  6
  5  3  1  0
  5  6  2  0
  7  8  1  0
  8 18  2  0
  9 10  2  0
  9  8  1  0
 10 11  1  0
 11 12  1  0
 11 17  2  0
 13 12  1  1
 13 14  1  0
 14  5  1  0
 15 13  1  0
 16 15  2  0
 18 17  1  0
 19 15  1  0
 20 19  1  0
 21 20  1  0
 22 21  1  0
 23 21  2  0
M  END
$$$$
