SYG.pdb
     RDKit          3D

 23 23  0  0  1  0  0  0  0  0999 V2000
    8.3851  -15.4262   18.9949 O   0  0  0  0  0  0  0  0  0  0  0  0
    7.1498  -14.9508   19.3720 C   0  0  0  0  0  0  0  0  0  0  0  0
    7.3422  -13.7539   20.2664 C   0  0  2  0  0  0  0  0  0  0  0  0
    7.8897  -12.6396   19.4886 N   0  0  0  0  0  0  0  0  0  0  0  0
    8.2481  -13.9812   21.3946 C   0  0  0  0  0  0  0  0  0  0  0  0
    9.4252  -13.4761   21.4269 O   0  0  0  0  0  0  0  0  0  0  0  0
    6.0759  -10.5735   27.4212 O   0  0  0  0  0  0  0  0  0  0  0  0
    6.5886  -11.7120   26.7931 C   0  0  0  0  0  0  0  0  0  0  0  0
    5.7408  -12.5698   26.1396 C   0  0  0  0  0  0  0  0  0  0  0  0
    6.2594  -13.6946   25.5209 C   0  0  0  0  0  0  0  0  0  0  0  0
    7.6048  -13.9910   25.5348 C   0  0  0  0  0  0  0  0  0  0  0  0
    8.0616  -15.2053   24.8594 C   0  0  0  0  0  0  0  0  0  0  0  0
    8.8915  -14.9736   23.6208 C   0  0  2  0  0  0  0  0  0  0  0  0
    7.9362  -14.7634   22.5493 N   0  0  0  0  0  0  0  0  0  0  0  0
    9.6772  -16.1847   23.3015 C   0  0  0  0  0  0  0  0  0  0  0  0
    9.0758  -17.3111   23.3760 O   0  0  0  0  0  0  0  0  0  0  0  0
    8.4308  -13.1097   26.1994 C   0  0  0  0  0  0  0  0  0  0  0  0
    7.9372  -11.9862   26.8209 C   0  0  0  0  0  0  0  0  0  0  0  0
   11.0477  -16.1631   22.9213 N   0  0  0  0  0  0  0  0  0  0  0  0
   11.6850  -17.4190   22.6449 C   0  0  0  0  0  0  0  0  0  0  0  0
   12.6306  -17.8406   23.6834 C   0  0  0  0  0  0  0  0  0  0  0  0
   13.9787  -17.5780   23.4859 O   0  0  0  0  0  0  0  0  0  0  0  0
   12.2696  -18.4165   24.7188 O   0  0  0  0  0  0  0  0  0  0  0  0
  2  1  1  0
  3  2  1  0
  3  4  1  6
  5  3  1  0
  5  6  2  0
  7  8  1  0
  8 18  2  0
  9 10  2  0
  9  8  1  0
 10 11  1  0
 11 12  1  0
 11 17  2  0
 13 12  1  1
 13 14  1  0
 14  5  1  0
 15 13  1  0
 16 15  2  0
 18 17  1  0
 19 15  1  0
 20 19  1  0
 21 20  1  0
 22 21  1  0
 23 21  2  0
M  END
$$$$
