SYG.pdb
     RDKit          3D

 23 23  0  0  1  0  0  0  0  0999 V2000
    9.9101  -19.0955   21.8886 O   0  0  0  0  0  0  0  0  0  0  0  0
   10.5573  -18.6430   20.7615 C   0  0  0  0  0  0  0  0  0  0  0  0
    9.9518  -17.3266   20.3492 C   0  0  2  0  0  0  0  0  0  0  0  0
   10.7221  -16.7543   19.2422 N   0  0  0  0  0  0  0  0  0  0  0  0
    9.9090  -16.3207   21.4129 C   0  0  0  0  0  0  0  0  0  0  0  0
   10.8981  -15.5393   21.6426 O   0  0  0  0  0  0  0  0  0  0  0  0
    6.2939  -10.9256   27.5844 O   0  0  0  0  0  0  0  0  0  0  0  0
    6.5647  -11.8584   26.5793 C   0  0  0  0  0  0  0  0  0  0  0  0
    6.0722  -13.1344   26.6833 C   0  0  0  0  0  0  0  0  0  0  0  0
    6.3465  -14.0503   25.6819 C   0  0  0  0  0  0  0  0  0  0  0  0
    7.1012  -13.7300   24.5746 C   0  0  0  0  0  0  0  0  0  0  0  0
    7.3451  -14.7647   23.5699 C   0  0  0  0  0  0  0  0  0  0  0  0
    8.7994  -15.0479   23.2846 C   0  0  2  0  0  0  0  0  0  0  0  0
    8.7995  -16.1006   22.2863 N   0  0  0  0  0  0  0  0  0  0  0  0
    9.4634  -15.5691   24.4985 C   0  0  0  0  0  0  0  0  0  0  0  0
    9.5958  -14.7665   25.4856 O   0  0  0  0  0  0  0  0  0  0  0  0
    7.5817  -12.4400   24.4991 C   0  0  0  0  0  0  0  0  0  0  0  0
    7.3213  -11.5139   25.4823 C   0  0  0  0  0  0  0  0  0  0  0  0
    9.9556  -16.8977   24.6243 N   0  0  0  0  0  0  0  0  0  0  0  0
   10.5605  -17.2715   25.8710 C   0  0  0  0  0  0  0  0  0  0  0  0
   10.9665  -18.6794   25.9297 C   0  0  0  0  0  0  0  0  0  0  0  0
   11.5457  -19.1446   27.1016 O   0  0  0  0  0  0  0  0  0  0  0  0
   10.8113  -19.4576   24.9788 O   0  0  0  0  0  0  0  0  0  0  0  0
  2  1  1  0
  3  2  1  0
  3  4  1  6
  5  3  1  0
  5  6  2  0
  7  8  1  0
  8 18  2  0
  9 10  2  0
  9  8  1  0
 10 11  1  0
 11 12  1  0
 11 17  2  0
 13 12  1  1
 13 14  1  0
 14  5  1  0
 15 13  1  0
 16 15  2  0
 18 17  1  0
 19 15  1  0
 20 19  1  0
 21 20  1  0
 22 21  1  0
 23 21  2  0
M  END
$$$$
