SYG.pdb
     RDKit          3D

 23 23  0  0  1  0  0  0  0  0999 V2000
    8.4272  -20.8464   20.5098 O   0  0  0  0  0  0  0  0  0  0  0  0
    8.5767  -19.9578   21.5501 C   0  0  0  0  0  0  0  0  0  0  0  0
    8.7354  -18.5705   20.9849 C   0  0  2  0  0  0  0  0  0  0  0  0
    9.8713  -18.5413   20.0600 N   0  0  0  0  0  0  0  0  0  0  0  0
    8.9682  -17.5307   21.9898 C   0  0  0  0  0  0  0  0  0  0  0  0
   10.1476  -17.1169   22.2717 O   0  0  0  0  0  0  0  0  0  0  0  0
    7.6705  -12.4201   18.3463 O   0  0  0  0  0  0  0  0  0  0  0  0
    7.6029  -12.9843   19.6232 C   0  0  0  0  0  0  0  0  0  0  0  0
    6.5306  -13.7681   19.9659 C   0  0  0  0  0  0  0  0  0  0  0  0
    6.4737  -14.3221   21.2335 C   0  0  0  0  0  0  0  0  0  0  0  0
    7.4591  -14.1163   22.1743 C   0  0  0  0  0  0  0  0  0  0  0  0
    7.3115  -14.7367   23.4906 C   0  0  0  0  0  0  0  0  0  0  0  0
    8.2463  -15.8895   23.7619 C   0  0  2  0  0  0  0  0  0  0  0  0
    7.9445  -16.8794   22.7452 N   0  0  0  0  0  0  0  0  0  0  0  0
    7.9491  -16.4851   25.0822 C   0  0  0  0  0  0  0  0  0  0  0  0
    8.0901  -15.7359   26.1092 O   0  0  0  0  0  0  0  0  0  0  0  0
    8.5235  -13.3243   21.7997 C   0  0  0  0  0  0  0  0  0  0  0  0
    8.6005  -12.7640   20.5457 C   0  0  0  0  0  0  0  0  0  0  0  0
    7.5205  -17.8287   25.2673 N   0  0  0  0  0  0  0  0  0  0  0  0
    7.1642  -18.2401   26.5953 C   0  0  0  0  0  0  0  0  0  0  0  0
    8.2515  -18.9101   27.3159 C   0  0  0  0  0  0  0  0  0  0  0  0
    7.9785  -19.4341   28.5714 O   0  0  0  0  0  0  0  0  0  0  0  0
    9.3920  -19.0221   26.8462 O   0  0  0  0  0  0  0  0  0  0  0  0
  2  1  1  0
  3  2  1  0
  3  4  1  6
  5  3  1  0
  5  6  2  0
  7  8  1  0
  8 18  2  0
  9 10  2  0
  9  8  1  0
 10 11  1  0
 11 12  1  0
 11 17  2  0
 13 12  1  6
 13 14  1  0
 14  5  1  0
 15 13  1  0
 16 15  2  0
 18 17  1  0
 19 15  1  0
 20 19  1  0
 21 20  1  0
 22 21  1  0
 23 21  2  0
M  END
$$$$
