SYG.pdb
     RDKit          3D

 23 23  0  0  1  0  0  0  0  0999 V2000
    8.3481  -15.7215   19.3610 O   0  0  0  0  0  0  0  0  0  0  0  0
    7.1132  -15.2609   19.7573 C   0  0  0  0  0  0  0  0  0  0  0  0
    7.2900  -13.9402   20.4601 C   0  0  2  0  0  0  0  0  0  0  0  0
    7.7517  -12.9305   19.5042 N   0  0  0  0  0  0  0  0  0  0  0  0
    8.2538  -13.9658   21.5627 C   0  0  0  0  0  0  0  0  0  0  0  0
    9.3535  -13.3101   21.5127 O   0  0  0  0  0  0  0  0  0  0  0  0
    5.6850  -10.4359   27.3024 O   0  0  0  0  0  0  0  0  0  0  0  0
    6.3593  -11.5342   26.7617 C   0  0  0  0  0  0  0  0  0  0  0  0
    5.6507  -12.6362   26.3552 C   0  0  0  0  0  0  0  0  0  0  0  0
    6.3288  -13.7186   25.8209 C   0  0  0  0  0  0  0  0  0  0  0  0
    7.6992  -13.7349   25.6795 C   0  0  0  0  0  0  0  0  0  0  0  0
    8.3305  -14.9252   25.1103 C   0  0  0  0  0  0  0  0  0  0  0  0
    9.0894  -14.6940   23.8268 C   0  0  2  0  0  0  0  0  0  0  0  0
    8.0862  -14.6976   22.7787 N   0  0  0  0  0  0  0  0  0  0  0  0
   10.0172  -15.8174   23.5754 C   0  0  0  0  0  0  0  0  0  0  0  0
   10.9959  -15.9630   24.3858 O   0  0  0  0  0  0  0  0  0  0  0  0
    8.3828  -12.6129   26.0969 C   0  0  0  0  0  0  0  0  0  0  0  0
    7.7295  -11.5262   26.6305 C   0  0  0  0  0  0  0  0  0  0  0  0
    9.8802  -16.7318   22.4945 N   0  0  0  0  0  0  0  0  0  0  0  0
   10.8778  -17.7538   22.3527 C   0  0  0  0  0  0  0  0  0  0  0  0
   10.8062  -18.7938   23.3842 C   0  0  0  0  0  0  0  0  0  0  0  0
   11.9899  -19.2088   23.9775 O   0  0  0  0  0  0  0  0  0  0  0  0
    9.7366  -19.3076   23.7388 O   0  0  0  0  0  0  0  0  0  0  0  0
  2  1  1  0
  3  2  1  0
  3  4  1  6
  5  3  1  0
  5  6  2  0
  7  8  1  0
  8 18  2  0
  9 10  2  0
  9  8  1  0
 10 11  1  0
 11 12  1  0
 11 17  2  0
 13 12  1  1
 13 14  1  0
 14  5  1  0
 15 13  1  0
 16 15  2  0
 18 17  1  0
 19 15  1  0
 20 19  1  0
 21 20  1  0
 22 21  1  0
 23 21  2  0
M  END
$$$$
