HKF.pdb
     RDKit          3D

 31 32  0  0  1  0  0  0  0  0999 V2000
    9.6177  -15.5605   18.0890 N   0  0  0  0  0  0  0  0  0  0  0  0
    8.7640  -14.5881   18.8407 C   0  0  1  0  0  0  0  0  0  0  0  0
    7.6562  -14.2734   17.8624 C   0  0  0  0  0  0  0  0  0  0  0  0
    8.0432  -14.2308   16.4472 C   0  0  0  0  0  0  0  0  0  0  0  0
    9.3198  -14.4757   15.9354 C   0  0  0  0  0  0  0  0  0  0  0  0
    9.2693  -14.3411   14.6065 N   0  0  0  0  0  0  0  0  0  0  0  0
    8.0014  -14.0178   14.2512 C   0  0  0  0  0  0  0  0  0  0  0  0
    7.2826  -13.9579   15.3818 N   0  0  0  0  0  0  0  0  0  0  0  0
    8.2079  -15.3858   19.9446 C   0  0  0  0  0  0  0  0  0  0  0  0
    7.3136  -14.8280   20.6716 O   0  0  0  0  0  0  0  0  0  0  0  0
    8.5868  -16.7342   20.2635 N   0  0  0  0  0  0  0  0  0  0  0  0
    8.0276  -17.3449   21.4353 C   0  0  1  0  0  0  0  0  0  0  0  0
    8.2535  -18.7932   21.5770 C   0  0  0  0  0  0  0  0  0  0  0  0
    7.7957  -19.5577   22.7311 C   0  0  0  0  0  0  0  0  0  0  0  0
    8.0747  -21.0336   22.7666 C   0  0  0  0  0  0  0  0  0  0  0  0
    7.4579  -21.6365   24.0591 C   0  0  0  0  0  0  0  0  0  0  0  0
    6.0803  -21.9869   23.8508 N   0  0  0  0  0  0  0  0  0  0  0  0
    8.3425  -16.5654   22.6690 C   0  0  0  0  0  0  0  0  0  0  0  0
    9.5230  -16.3487   23.0236 O   0  0  0  0  0  0  0  0  0  0  0  0
    7.3158  -16.0436   23.4819 N   0  0  0  0  0  0  0  0  0  0  0  0
    7.6511  -15.0306   24.4960 C   0  0  1  0  0  0  0  0  0  0  0  0
    6.4837  -14.1074   24.7055 C   0  0  0  0  0  0  0  0  0  0  0  0
    6.7906  -13.1164   25.7441 C   0  0  0  0  0  0  0  0  0  0  0  0
    6.1157  -13.1454   26.9722 C   0  0  0  0  0  0  0  0  0  0  0  0
    6.3892  -12.2537   27.9755 C   0  0  0  0  0  0  0  0  0  0  0  0
    7.3477  -11.2808   27.8206 C   0  0  0  0  0  0  0  0  0  0  0  0
    8.0298  -11.2214   26.6314 C   0  0  0  0  0  0  0  0  0  0  0  0
    7.7503  -12.1189   25.6302 C   0  0  0  0  0  0  0  0  0  0  0  0
    7.9447  -15.7514   25.7400 C   0  0  0  0  0  0  0  0  0  0  0  0
    7.2635  -16.9070   26.0617 O   0  0  0  0  0  0  0  0  0  0  0  0
    8.8156  -15.3323   26.5295 O   0  0  0  0  0  0  0  0  0  0  0  0
  2  1  1  6
  3  4  1  0
  3  2  1  0
  4  5  2  0
  5  6  1  0
  7  6  1  0
  8  4  1  0
  8  7  2  0
  9  2  1  0
  9 10  2  0
 11  9  1  0
 12 11  1  0
 12 13  1  1
 14 13  1  0
 14 15  1  0
 15 16  1  0
 17 16  1  0
 18 12  1  0
 19 18  2  0
 20 18  1  0
 21 29  1  0
 21 20  1  0
 22 23  1  0
 21 22  1  1
 23 28  1  0
 24 23  2  0
 24 25  1  0
 25 26  2  0
 26 27  1  0
 28 27  2  0
 29 30  1  0
 31 29  2  0
M  END
$$$$
