HKF.pdb
     RDKit          3D

 31 32  0  0  1  0  0  0  0  0999 V2000
    7.5315  -17.5404   17.9055 N   0  0  0  0  0  0  0  0  0  0  0  0
    8.6493  -16.6689   18.3856 C   0  0  1  0  0  0  0  0  0  0  0  0
    8.0644  -15.2784   18.2989 C   0  0  0  0  0  0  0  0  0  0  0  0
    8.1744  -14.6164   16.9935 C   0  0  0  0  0  0  0  0  0  0  0  0
    7.6321  -13.3750   16.6521 C   0  0  0  0  0  0  0  0  0  0  0  0
    7.9474  -13.1181   15.3787 N   0  0  0  0  0  0  0  0  0  0  0  0
    8.6741  -14.1552   14.8942 C   0  0  0  0  0  0  0  0  0  0  0  0
    8.7959  -15.0451   15.8899 N   0  0  0  0  0  0  0  0  0  0  0  0
    8.7971  -17.0325   19.8033 C   0  0  0  0  0  0  0  0  0  0  0  0
    7.7228  -17.2759   20.4559 O   0  0  0  0  0  0  0  0  0  0  0  0
   10.0465  -17.1382   20.5043 N   0  0  0  0  0  0  0  0  0  0  0  0
   10.0263  -17.5103   21.8900 C   0  0  1  0  0  0  0  0  0  0  0  0
   11.1098  -18.4040   22.3328 C   0  0  0  0  0  0  0  0  0  0  0  0
   11.5748  -19.5378   21.5427 C   0  0  0  0  0  0  0  0  0  0  0  0
   12.7023  -20.3707   22.0834 C   0  0  0  0  0  0  0  0  0  0  0  0
   12.6995  -21.7526   21.3728 C   0  0  0  0  0  0  0  0  0  0  0  0
   12.8927  -21.5981   19.9575 N   0  0  0  0  0  0  0  0  0  0  0  0
    9.8247  -16.3268   22.7775 C   0  0  0  0  0  0  0  0  0  0  0  0
   10.5959  -15.3418   22.7412 O   0  0  0  0  0  0  0  0  0  0  0  0
    8.7532  -16.2773   23.6920 N   0  0  0  0  0  0  0  0  0  0  0  0
    8.6508  -15.1335   24.6131 C   0  0  1  0  0  0  0  0  0  0  0  0
    7.2097  -14.7466   24.7935 C   0  0  0  0  0  0  0  0  0  0  0  0
    7.0889  -13.6437   25.7547 C   0  0  0  0  0  0  0  0  0  0  0  0
    7.1302  -13.8974   27.1326 C   0  0  0  0  0  0  0  0  0  0  0  0
    7.0446  -12.8940   28.0614 C   0  0  0  0  0  0  0  0  0  0  0  0
    6.9131  -11.5803   27.6791 C   0  0  0  0  0  0  0  0  0  0  0  0
    6.8692  -11.2930   26.3380 C   0  0  0  0  0  0  0  0  0  0  0  0
    6.9558  -12.3041   25.4127 C   0  0  0  0  0  0  0  0  0  0  0  0
    9.2141  -15.5663   25.8971 C   0  0  0  0  0  0  0  0  0  0  0  0
    9.9606  -14.6984   26.6667 O   0  0  0  0  0  0  0  0  0  0  0  0
    9.0282  -16.7271   26.3161 O   0  0  0  0  0  0  0  0  0  0  0  0
  2  1  1  6
  3  4  1  0
  3  2  1  0
  4  5  2  0
  5  6  1  0
  7  6  1  0
  8  4  1  0
  8  7  2  0
  9  2  1  0
  9 10  2  0
 11  9  1  0
 12 11  1  0
 12 13  1  1
 14 13  1  0
 14 15  1  0
 15 16  1  0
 17 16  1  0
 18 12  1  0
 19 18  2  0
 20 18  1  0
 21 29  1  0
 21 20  1  0
 22 23  1  0
 21 22  1  1
 23 28  1  0
 24 23  2  0
 24 25  1  0
 25 26  2  0
 26 27  1  0
 28 27  2  0
 29 30  1  0
 31 29  2  0
M  END
$$$$
