HKF.pdb
     RDKit          3D

 31 32  0  0  1  0  0  0  0  0999 V2000
    9.0681  -16.1459   20.0237 N   0  0  0  0  0  0  0  0  0  0  0  0
    8.6945  -15.0134   20.9278 C   0  0  1  0  0  0  0  0  0  0  0  0
    7.4753  -14.4243   20.2572 C   0  0  0  0  0  0  0  0  0  0  0  0
    7.6440  -14.0264   18.8545 C   0  0  0  0  0  0  0  0  0  0  0  0
    8.1249  -12.7959   18.4003 C   0  0  0  0  0  0  0  0  0  0  0  0
    8.1306  -12.8179   17.0638 N   0  0  0  0  0  0  0  0  0  0  0  0
    7.6688  -14.0230   16.6480 C   0  0  0  0  0  0  0  0  0  0  0  0
    7.3826  -14.7324   17.7494 N   0  0  0  0  0  0  0  0  0  0  0  0
    8.2759  -15.6775   22.1718 C   0  0  0  0  0  0  0  0  0  0  0  0
    7.5946  -14.9803   23.0020 O   0  0  0  0  0  0  0  0  0  0  0  0
    8.5680  -17.0400   22.5210 N   0  0  0  0  0  0  0  0  0  0  0  0
    8.2453  -17.4934   23.8435 C   0  0  1  0  0  0  0  0  0  0  0  0
    8.1757  -18.9532   24.0248 C   0  0  0  0  0  0  0  0  0  0  0  0
    7.8342  -19.5786   25.2969 C   0  0  0  0  0  0  0  0  0  0  0  0
    7.7300  -21.0765   25.3513 C   0  0  0  0  0  0  0  0  0  0  0  0
    7.2313  -21.5004   26.7606 C   0  0  0  0  0  0  0  0  0  0  0  0
    7.0505  -22.9239   26.8303 N   0  0  0  0  0  0  0  0  0  0  0  0
    9.0632  -16.7987   24.8813 C   0  0  0  0  0  0  0  0  0  0  0  0
   10.2348  -16.4242   24.6498 O   0  0  0  0  0  0  0  0  0  0  0  0
    8.5419  -16.5388   26.1650 N   0  0  0  0  0  0  0  0  0  0  0  0
    9.3331  -15.7328   27.1090 C   0  0  1  0  0  0  0  0  0  0  0  0
    8.4189  -14.9212   27.9834 C   0  0  0  0  0  0  0  0  0  0  0  0
    7.6787  -13.9383   27.1827 C   0  0  0  0  0  0  0  0  0  0  0  0
    6.3033  -14.0950   26.9633 C   0  0  0  0  0  0  0  0  0  0  0  0
    5.5722  -13.1883   26.2421 C   0  0  0  0  0  0  0  0  0  0  0  0
    6.1614  -12.0730   25.6961 C   0  0  0  0  0  0  0  0  0  0  0  0
    7.5069  -11.8855   25.8901 C   0  0  0  0  0  0  0  0  0  0  0  0
    8.2332  -12.7987   26.6144 C   0  0  0  0  0  0  0  0  0  0  0  0
   10.1042  -16.6718   27.9318 C   0  0  0  0  0  0  0  0  0  0  0  0
    9.9458  -18.0338   27.7812 O   0  0  0  0  0  0  0  0  0  0  0  0
   10.9169  -16.2556   28.7825 O   0  0  0  0  0  0  0  0  0  0  0  0
  2  1  1  6
  3  4  1  0
  3  2  1  0
  4  5  2  0
  5  6  1  0
  7  6  1  0
  8  4  1  0
  8  7  2  0
  9  2  1  0
  9 10  2  0
 11  9  1  0
 12 11  1  0
 12 13  1  6
 14 13  1  0
 14 15  1  0
 15 16  1  0
 17 16  1  0
 18 12  1  0
 19 18  2  0
 20 18  1  0
 21 29  1  0
 21 20  1  0
 22 23  1  0
 21 22  1  1
 23 28  1  0
 24 23  2  0
 24 25  1  0
 25 26  2  0
 26 27  1  0
 28 27  2  0
 29 30  1  0
 31 29  2  0
M  END
$$$$
