HKF.pdb
     RDKit          3D

 31 32  0  0  1  0  0  0  0  0999 V2000
    7.9361  -16.8699   19.9111 N   0  0  0  0  0  0  0  0  0  0  0  0
    8.7201  -15.8251   20.6414 C   0  0  1  0  0  0  0  0  0  0  0  0
    7.8706  -14.5851   20.4862 C   0  0  0  0  0  0  0  0  0  0  0  0
    7.9232  -13.9316   19.1730 C   0  0  0  0  0  0  0  0  0  0  0  0
    8.4040  -12.6462   18.9121 C   0  0  0  0  0  0  0  0  0  0  0  0
    8.2854  -12.4145   17.6010 N   0  0  0  0  0  0  0  0  0  0  0  0
    7.7441  -13.5105   17.0142 C   0  0  0  0  0  0  0  0  0  0  0  0
    7.5356  -14.4105   17.9862 N   0  0  0  0  0  0  0  0  0  0  0  0
    8.6685  -16.2613   22.0453 C   0  0  0  0  0  0  0  0  0  0  0  0
    7.5155  -16.5462   22.5234 O   0  0  0  0  0  0  0  0  0  0  0  0
    9.8060  -16.3945   22.9124 N   0  0  0  0  0  0  0  0  0  0  0  0
    9.6331  -17.0562   24.1738 C   0  0  1  0  0  0  0  0  0  0  0  0
   10.0670  -18.4624   24.2284 C   0  0  0  0  0  0  0  0  0  0  0  0
   10.5369  -19.1929   23.0572 C   0  0  0  0  0  0  0  0  0  0  0  0
   10.9664  -20.6221   23.2316 C   0  0  0  0  0  0  0  0  0  0  0  0
   11.3817  -21.2001   21.8504 C   0  0  0  0  0  0  0  0  0  0  0  0
   11.8798  -22.5407   21.9879 N   0  0  0  0  0  0  0  0  0  0  0  0
   10.1411  -16.2276   25.3071 C   0  0  0  0  0  0  0  0  0  0  0  0
   11.2356  -15.6245   25.2387 O   0  0  0  0  0  0  0  0  0  0  0  0
    9.4019  -16.0949   26.5000 N   0  0  0  0  0  0  0  0  0  0  0  0
    9.9388  -15.2578   27.5853 C   0  0  1  0  0  0  0  0  0  0  0  0
    8.8239  -14.4983   28.2479 C   0  0  0  0  0  0  0  0  0  0  0  0
    8.1534  -13.6198   27.2816 C   0  0  0  0  0  0  0  0  0  0  0  0
    8.6961  -12.3658   26.9692 C   0  0  0  0  0  0  0  0  0  0  0  0
    8.1142  -11.5268   26.0559 C   0  0  0  0  0  0  0  0  0  0  0  0
    6.9604  -11.8814   25.3985 C   0  0  0  0  0  0  0  0  0  0  0  0
    6.3998  -13.1023   25.6782 C   0  0  0  0  0  0  0  0  0  0  0  0
    6.9890  -13.9382   26.5948 C   0  0  0  0  0  0  0  0  0  0  0  0
   10.5677  -16.1636   28.5533 C   0  0  0  0  0  0  0  0  0  0  0  0
   11.2657  -15.6650   29.6336 O   0  0  0  0  0  0  0  0  0  0  0  0
   10.4827  -17.4013   28.4171 O   0  0  0  0  0  0  0  0  0  0  0  0
  2  1  1  6
  3  4  1  0
  3  2  1  0
  4  5  2  0
  5  6  1  0
  7  6  1  0
  8  4  1  0
  8  7  2  0
  9  2  1  0
  9 10  2  0
 11  9  1  0
 12 11  1  0
 12 13  1  6
 14 13  1  0
 14 15  1  0
 15 16  1  0
 17 16  1  0
 18 12  1  0
 19 18  2  0
 20 18  1  0
 21 29  1  0
 21 20  1  0
 22 23  1  0
 21 22  1  1
 23 28  1  0
 24 23  2  0
 24 25  1  0
 25 26  2  0
 26 27  1  0
 28 27  2  0
 29 30  1  0
 31 29  2  0
M  END
$$$$
