HKF.pdb
     RDKit          3D

 31 32  0  0  1  0  0  0  0  0999 V2000
    8.6619  -16.3899   18.8035 N   0  0  0  0  0  0  0  0  0  0  0  0
    8.6639  -15.0907   19.5461 C   0  0  1  0  0  0  0  0  0  0  0  0
    7.5448  -14.3162   18.8895 C   0  0  0  0  0  0  0  0  0  0  0  0
    7.7566  -13.9504   17.4839 C   0  0  0  0  0  0  0  0  0  0  0  0
    6.7730  -13.8818   16.4943 C   0  0  0  0  0  0  0  0  0  0  0  0
    7.3577  -13.5149   15.3496 N   0  0  0  0  0  0  0  0  0  0  0  0
    8.6841  -13.3466   15.5748 C   0  0  0  0  0  0  0  0  0  0  0  0
    8.8970  -13.6159   16.8711 N   0  0  0  0  0  0  0  0  0  0  0  0
    8.2475  -15.4612   20.9075 C   0  0  0  0  0  0  0  0  0  0  0  0
    7.8654  -14.5118   21.6770 O   0  0  0  0  0  0  0  0  0  0  0  0
    8.2337  -16.7979   21.4334 N   0  0  0  0  0  0  0  0  0  0  0  0
    7.9115  -16.9866   22.8188 C   0  0  1  0  0  0  0  0  0  0  0  0
    7.1934  -18.2291   23.1496 C   0  0  0  0  0  0  0  0  0  0  0  0
    6.4152  -18.9793   22.1712 C   0  0  0  0  0  0  0  0  0  0  0  0
    7.0987  -20.0747   21.4029 C   0  0  0  0  0  0  0  0  0  0  0  0
    6.0508  -20.8051   20.5180 C   0  0  0  0  0  0  0  0  0  0  0  0
    6.6748  -21.8350   19.7344 N   0  0  0  0  0  0  0  0  0  0  0  0
    9.0860  -16.7199   23.7010 C   0  0  0  0  0  0  0  0  0  0  0  0
   10.0222  -17.5430   23.8123 O   0  0  0  0  0  0  0  0  0  0  0  0
    9.1821  -15.5253   24.4433 N   0  0  0  0  0  0  0  0  0  0  0  0
    9.3072  -15.6010   25.9080 C   0  0  1  0  0  0  0  0  0  0  0  0
    7.9511  -15.4870   26.5460 C   0  0  0  0  0  0  0  0  0  0  0  0
    7.4760  -14.0988   26.5017 C   0  0  0  0  0  0  0  0  0  0  0  0
    8.3633  -13.0558   26.2028 C   0  0  0  0  0  0  0  0  0  0  0  0
    7.9550  -11.7502   26.1285 C   0  0  0  0  0  0  0  0  0  0  0  0
    6.6434  -11.4017   26.3460 C   0  0  0  0  0  0  0  0  0  0  0  0
    5.7451  -12.3962   26.6410 C   0  0  0  0  0  0  0  0  0  0  0  0
    6.1617  -13.7028   26.7136 C   0  0  0  0  0  0  0  0  0  0  0  0
    9.8955  -16.9086   26.2203 C   0  0  0  0  0  0  0  0  0  0  0  0
   10.1549  -17.8211   25.2188 O   0  0  0  0  0  0  0  0  0  0  0  0
   10.1718  -17.2189   27.3971 O   0  0  0  0  0  0  0  0  0  0  0  0
  2  1  1  6
  3  4  1  0
  3  2  1  0
  4  5  2  0
  5  6  1  0
  7  6  1  0
  8  4  1  0
  8  7  2  0
  9  2  1  0
  9 10  2  0
 11  9  1  0
 12 11  1  0
 12 13  1  6
 14 13  1  0
 14 15  1  0
 15 16  1  0
 17 16  1  0
 18 12  1  0
 19 18  2  0
 20 18  1  0
 21 29  1  0
 21 20  1  0
 22 23  1  0
 21 22  1  1
 23 28  1  0
 24 23  2  0
 24 25  1  0
 25 26  2  0
 26 27  1  0
 28 27  2  0
 29 30  1  0
 31 29  2  0
M  END
$$$$
