HKF.pdb
     RDKit          3D

 31 32  0  0  1  0  0  0  0  0999 V2000
    7.1121  -20.5152   21.7976 N   0  0  0  0  0  0  0  0  0  0  0  0
    6.4214  -19.4688   22.6145 C   0  0  1  0  0  0  0  0  0  0  0  0
    6.7301  -19.8807   24.0352 C   0  0  0  0  0  0  0  0  0  0  0  0
    5.9755  -21.0306   24.5480 C   0  0  0  0  0  0  0  0  0  0  0  0
    4.9918  -21.7432   23.8581 C   0  0  0  0  0  0  0  0  0  0  0  0
    4.5421  -22.7149   24.6582 N   0  0  0  0  0  0  0  0  0  0  0  0
    5.2066  -22.6472   25.8382 C   0  0  0  0  0  0  0  0  0  0  0  0
    6.0655  -21.6217   25.7440 N   0  0  0  0  0  0  0  0  0  0  0  0
    7.1620  -18.2353   22.3080 C   0  0  0  0  0  0  0  0  0  0  0  0
    8.4036  -18.3589   22.0210 O   0  0  0  0  0  0  0  0  0  0  0  0
    6.6005  -16.9130   22.3027 N   0  0  0  0  0  0  0  0  0  0  0  0
    7.4701  -15.7996   22.0519 C   0  0  1  0  0  0  0  0  0  0  0  0
    6.8290  -14.5924   21.5037 C   0  0  0  0  0  0  0  0  0  0  0  0
    7.5771  -13.5248   20.8506 C   0  0  0  0  0  0  0  0  0  0  0  0
    7.7999  -13.6127   19.3673 C   0  0  0  0  0  0  0  0  0  0  0  0
    8.7468  -12.4623   18.9265 C   0  0  0  0  0  0  0  0  0  0  0  0
    8.9396  -12.4783   17.5029 N   0  0  0  0  0  0  0  0  0  0  0  0
    8.3682  -15.5269   23.2130 C   0  0  0  0  0  0  0  0  0  0  0  0
    9.3822  -14.8020   23.1008 O   0  0  0  0  0  0  0  0  0  0  0  0
    8.1039  -16.0791   24.4827 N   0  0  0  0  0  0  0  0  0  0  0  0
    8.9434  -15.6817   25.6247 C   0  0  1  0  0  0  0  0  0  0  0  0
    8.0799  -15.3862   26.8189 C   0  0  0  0  0  0  0  0  0  0  0  0
    7.3646  -14.1173   26.6360 C   0  0  0  0  0  0  0  0  0  0  0  0
    8.0716  -12.9089   26.5702 C   0  0  0  0  0  0  0  0  0  0  0  0
    7.4438  -11.7067   26.3769 C   0  0  0  0  0  0  0  0  0  0  0  0
    6.0785  -11.6316   26.2376 C   0  0  0  0  0  0  0  0  0  0  0  0
    5.3524  -12.7945   26.2963 C   0  0  0  0  0  0  0  0  0  0  0  0
    5.9887  -13.9960   26.4901 C   0  0  0  0  0  0  0  0  0  0  0  0
    9.8292  -16.8139   25.9193 C   0  0  0  0  0  0  0  0  0  0  0  0
   10.8406  -16.6930   26.8495 O   0  0  0  0  0  0  0  0  0  0  0  0
    9.6837  -17.9064   25.3340 O   0  0  0  0  0  0  0  0  0  0  0  0
  2  1  1  6
  3  4  1  0
  3  2  1  0
  4  5  2  0
  5  6  1  0
  7  6  1  0
  8  4  1  0
  8  7  2  0
  9  2  1  0
  9 10  2  0
 11  9  1  0
 12 11  1  0
 12 13  1  1
 14 13  1  0
 14 15  1  0
 15 16  1  0
 17 16  1  0
 18 12  1  0
 19 18  2  0
 20 18  1  0
 21 29  1  0
 21 20  1  0
 22 23  1  0
 21 22  1  1
 23 28  1  0
 24 23  2  0
 24 25  1  0
 25 26  2  0
 26 27  1  0
 28 27  2  0
 29 30  1  0
 31 29  2  0
M  END
$$$$
