CMW.pdb
     RDKit          3D

 29 30  0  0  1  0  0  0  0  0999 V2000
   29.5709  -22.4906  -17.5730 N   0  0  0  0  0  0  0  0  0  0  0  0
   28.1941  -22.0770  -17.4353 C   0  0  1  0  0  0  0  0  0  0  0  0
   27.3286  -23.3290  -17.3852 C   0  0  0  0  0  0  0  0  0  0  0  0
   27.1167  -24.0784  -19.0104 S   0  0  0  0  0  0  0  0  0  0  0  0
   28.0225  -21.4098  -16.1116 C   0  0  0  0  0  0  0  0  0  0  0  0
   28.7633  -21.7991  -15.1815 O   0  0  0  0  0  0  0  0  0  0  0  0
   26.0476  -15.1428  -15.1786 C   0  0  0  0  0  0  0  0  0  0  0  0
   27.4548  -15.8228  -16.0212 S   0  0  0  0  0  0  0  0  0  0  0  0
   27.8950  -17.4928  -15.6106 C   0  0  0  0  0  0  0  0  0  0  0  0
   26.7915  -18.2599  -14.9523 C   0  0  0  0  0  0  0  0  0  0  0  0
   27.1051  -19.6366  -14.6075 C   0  0  2  0  0  0  0  0  0  0  0  0
   27.0675  -20.3831  -15.9104 N   0  0  0  0  0  0  0  0  0  0  0  0
   26.2326  -20.4184  -13.7460 C   0  0  0  0  0  0  0  0  0  0  0  0
   25.1867  -20.9439  -14.3051 O   0  0  0  0  0  0  0  0  0  0  0  0
   26.3239  -20.7136  -12.3780 N   0  0  0  0  0  0  0  0  0  0  0  0
   25.3026  -21.4862  -11.6416 C   0  0  1  0  0  0  0  0  0  0  0  0
   25.8950  -22.1167  -10.4403 C   0  0  0  0  0  0  0  0  0  0  0  0
   26.3291  -21.1442   -9.4313 C   0  0  0  0  0  0  0  0  0  0  0  0
   25.5784  -20.0798   -8.9328 C   0  0  0  0  0  0  0  0  0  0  0  0
   26.2920  -19.3642   -8.0522 N   0  0  0  0  0  0  0  0  0  0  0  0
   27.4960  -19.9362   -7.9602 C   0  0  0  0  0  0  0  0  0  0  0  0
   28.5704  -19.5495   -7.1484 C   0  0  0  0  0  0  0  0  0  0  0  0
   29.7010  -20.3284   -7.2230 C   0  0  0  0  0  0  0  0  0  0  0  0
   29.7801  -21.4268   -8.0458 C   0  0  0  0  0  0  0  0  0  0  0  0
   28.7205  -21.7888   -8.8325 C   0  0  0  0  0  0  0  0  0  0  0  0
   27.5667  -21.0340   -8.7889 C   0  0  0  0  0  0  0  0  0  0  0  0
   24.1140  -20.6960  -11.3275 C   0  0  0  0  0  0  0  0  0  0  0  0
   24.1700  -19.4388  -11.3897 O   0  0  0  0  0  0  0  0  0  0  0  0
   22.9382  -21.2938  -10.9738 O   0  0  0  0  0  0  0  0  0  0  0  0
  2  1  1  1
  3  4  1  0
  3  2  1  0
  5  2  1  0
  6  5  2  0
  7  8  1  0
  8  9  1  0
  9 10  1  0
 11 12  1  0
 11 10  1  6
 12  5  1  0
 13 11  1  0
 14 13  2  0
 15 13  1  0
 16 17  1  1
 16 15  1  0
 17 18  1  0
 18 19  2  0
 19 20  1  0
 21 22  2  0
 21 20  1  0
 23 22  1  0
 24 23  2  0
 25 24  1  0
 25 26  2  0
 26 18  1  0
 26 21  1  0
 27 29  1  0
 27 16  1  0
 28 27  2  0
M  END
$$$$
