CMW.pdb
     RDKit          3D

 29 30  0  0  1  0  0  0  0  0999 V2000
   23.7490  -14.6046  -17.1989 N   0  0  0  0  0  0  0  0  0  0  0  0
   25.1253  -14.5220  -16.7693 C   0  0  1  0  0  0  0  0  0  0  0  0
   25.1420  -14.4743  -15.2473 C   0  0  0  0  0  0  0  0  0  0  0  0
   24.5460  -16.0067  -14.5094 S   0  0  0  0  0  0  0  0  0  0  0  0
   25.8230  -15.7865  -17.1450 C   0  0  0  0  0  0  0  0  0  0  0  0
   25.1017  -16.7533  -17.4776 O   0  0  0  0  0  0  0  0  0  0  0  0
   31.6462  -14.9061  -19.3602 C   0  0  0  0  0  0  0  0  0  0  0  0
   30.4113  -15.5970  -20.4327 S   0  0  0  0  0  0  0  0  0  0  0  0
   28.8887  -16.0986  -19.6702 C   0  0  0  0  0  0  0  0  0  0  0  0
   29.0703  -16.7309  -18.3261 C   0  0  0  0  0  0  0  0  0  0  0  0
   27.8483  -17.1564  -17.6641 C   0  0  2  0  0  0  0  0  0  0  0  0
   27.2352  -15.8943  -17.1281 N   0  0  0  0  0  0  0  0  0  0  0  0
   27.8819  -18.0334  -16.5046 C   0  0  0  0  0  0  0  0  0  0  0  0
   28.7837  -17.7744  -15.6088 O   0  0  0  0  0  0  0  0  0  0  0  0
   27.0892  -19.1419  -16.1732 N   0  0  0  0  0  0  0  0  0  0  0  0
   27.2532  -19.9170  -14.9263 C   0  0  1  0  0  0  0  0  0  0  0  0
   27.1677  -19.0266  -13.7467 C   0  0  0  0  0  0  0  0  0  0  0  0
   27.1372  -19.7547  -12.4736 C   0  0  0  0  0  0  0  0  0  0  0  0
   28.2246  -20.3530  -11.8374 C   0  0  0  0  0  0  0  0  0  0  0  0
   27.8384  -20.9688  -10.7112 N   0  0  0  0  0  0  0  0  0  0  0  0
   26.5200  -20.7872  -10.5926 C   0  0  0  0  0  0  0  0  0  0  0  0
   25.6812  -21.2329   -9.5626 C   0  0  0  0  0  0  0  0  0  0  0  0
   24.3541  -20.8886   -9.6661 C   0  0  0  0  0  0  0  0  0  0  0  0
   23.8701  -20.1482  -10.7185 C   0  0  0  0  0  0  0  0  0  0  0  0
   24.7045  -19.7223  -11.7160 C   0  0  0  0  0  0  0  0  0  0  0  0
   26.0436  -20.0467  -11.6516 C   0  0  0  0  0  0  0  0  0  0  0  0
   26.3319  -21.0480  -14.8388 C   0  0  0  0  0  0  0  0  0  0  0  0
   25.1349  -20.9035  -15.2043 O   0  0  0  0  0  0  0  0  0  0  0  0
   26.7444  -22.2643  -14.3743 O   0  0  0  0  0  0  0  0  0  0  0  0
  2  1  1  1
  3  4  1  0
  3  2  1  0
  5  2  1  0
  6  5  2  0
  7  8  1  0
  8  9  1  0
  9 10  1  0
 11 12  1  0
 11 10  1  1
 12  5  1  0
 13 11  1  0
 14 13  2  0
 15 13  1  0
 16 17  1  1
 16 15  1  0
 17 18  1  0
 18 19  2  0
 19 20  1  0
 21 22  2  0
 21 20  1  0
 23 22  1  0
 24 23  2  0
 25 24  1  0
 25 26  2  0
 26 18  1  0
 26 21  1  0
 27 29  1  0
 27 16  1  0
 28 27  2  0
M  END
$$$$
