CMW.pdb
     RDKit          3D

 29 30  0  0  1  0  0  0  0  0999 V2000
   25.2090  -19.5059  -15.5466 N   0  0  0  0  0  0  0  0  0  0  0  0
   25.1398  -19.1995  -14.1370 C   0  0  1  0  0  0  0  0  0  0  0  0
   23.7286  -19.5097  -13.6560 C   0  0  0  0  0  0  0  0  0  0  0  0
   22.7589  -18.0168  -13.3755 S   0  0  0  0  0  0  0  0  0  0  0  0
   26.0372  -20.1343  -13.3970 C   0  0  0  0  0  0  0  0  0  0  0  0
   25.9810  -21.3431  -13.7150 O   0  0  0  0  0  0  0  0  0  0  0  0
   31.5326  -21.4383   -9.6419 C   0  0  0  0  0  0  0  0  0  0  0  0
   31.0023  -22.0236  -11.2321 S   0  0  0  0  0  0  0  0  0  0  0  0
   30.1870  -20.8453  -12.2800 C   0  0  0  0  0  0  0  0  0  0  0  0
   29.0859  -20.0961  -11.5977 C   0  0  0  0  0  0  0  0  0  0  0  0
   27.7680  -20.7027  -11.6855 C   0  0  2  0  0  0  0  0  0  0  0  0
   26.9141  -19.6813  -12.3811 N   0  0  0  0  0  0  0  0  0  0  0  0
   27.0025  -21.0251  -10.4919 C   0  0  0  0  0  0  0  0  0  0  0  0
   27.3645  -22.0876   -9.8415 O   0  0  0  0  0  0  0  0  0  0  0  0
   25.9104  -20.3724   -9.9019 N   0  0  0  0  0  0  0  0  0  0  0  0
   25.0780  -20.9745   -8.8403 C   0  0  1  0  0  0  0  0  0  0  0  0
   25.1061  -20.1361   -7.6205 C   0  0  0  0  0  0  0  0  0  0  0  0
   26.4473  -19.6437   -7.2880 C   0  0  0  0  0  0  0  0  0  0  0  0
   27.2072  -18.7456   -8.0370 C   0  0  0  0  0  0  0  0  0  0  0  0
   28.4029  -18.5413   -7.4666 N   0  0  0  0  0  0  0  0  0  0  0  0
   28.4451  -19.2853   -6.3576 C   0  0  0  0  0  0  0  0  0  0  0  0
   29.4877  -19.3801   -5.4265 C   0  0  0  0  0  0  0  0  0  0  0  0
   29.2685  -20.2054   -4.3489 C   0  0  0  0  0  0  0  0  0  0  0  0
   28.0943  -20.9018   -4.1873 C   0  0  0  0  0  0  0  0  0  0  0  0
   27.0872  -20.7974   -5.1079 C   0  0  0  0  0  0  0  0  0  0  0  0
   27.2661  -19.9805   -6.2049 C   0  0  0  0  0  0  0  0  0  0  0  0
   23.7167  -21.2646   -9.2859 C   0  0  0  0  0  0  0  0  0  0  0  0
   23.3721  -20.9695  -10.4613 O   0  0  0  0  0  0  0  0  0  0  0  0
   22.8097  -21.8574   -8.4547 O   0  0  0  0  0  0  0  0  0  0  0  0
  2  1  1  6
  3  4  1  0
  3  2  1  0
  5  2  1  0
  6  5  2  0
  7  8  1  0
  8  9  1  0
  9 10  1  0
 11 12  1  0
 11 10  1  1
 12  5  1  0
 13 11  1  0
 14 13  2  0
 15 13  1  0
 16 17  1  1
 16 15  1  0
 17 18  1  0
 18 19  2  0
 19 20  1  0
 21 22  2  0
 21 20  1  0
 23 22  1  0
 24 23  2  0
 25 24  1  0
 25 26  2  0
 26 18  1  0
 26 21  1  0
 27 29  1  0
 27 16  1  0
 28 27  2  0
M  END
$$$$
