CMW.pdb
     RDKit          3D

 29 30  0  0  1  0  0  0  0  0999 V2000
   28.2988  -21.5207  -18.3628 N   0  0  0  0  0  0  0  0  0  0  0  0
   28.9523  -22.2827  -17.3246 C   0  0  1  0  0  0  0  0  0  0  0  0
   27.8879  -23.0837  -16.5867 C   0  0  0  0  0  0  0  0  0  0  0  0
   27.0639  -22.1126  -15.3116 S   0  0  0  0  0  0  0  0  0  0  0  0
   29.8516  -23.2894  -17.9608 C   0  0  0  0  0  0  0  0  0  0  0  0
   29.4320  -23.8466  -18.9994 O   0  0  0  0  0  0  0  0  0  0  0  0
   35.7735  -25.8923  -21.0708 C   0  0  0  0  0  0  0  0  0  0  0  0
   34.5030  -24.9326  -20.2851 S   0  0  0  0  0  0  0  0  0  0  0  0
   34.3997  -25.0491  -18.5167 C   0  0  0  0  0  0  0  0  0  0  0  0
   33.3418  -24.1759  -17.9184 C   0  0  0  0  0  0  0  0  0  0  0  0
   31.9719  -24.5984  -18.1582 C   0  0  2  0  0  0  0  0  0  0  0  0
   31.1222  -23.6042  -17.4195 N   0  0  0  0  0  0  0  0  0  0  0  0
   31.4813  -25.8814  -17.6808 C   0  0  0  0  0  0  0  0  0  0  0  0
   31.1673  -25.9499  -16.4241 O   0  0  0  0  0  0  0  0  0  0  0  0
   31.2817  -27.0933  -18.3578 N   0  0  0  0  0  0  0  0  0  0  0  0
   30.8355  -28.3343  -17.6920 C   0  0  1  0  0  0  0  0  0  0  0  0
   29.5600  -28.1088  -16.9750 C   0  0  0  0  0  0  0  0  0  0  0  0
   28.4113  -27.9517  -17.8738 C   0  0  0  0  0  0  0  0  0  0  0  0
   28.4429  -27.9800  -19.2679 C   0  0  0  0  0  0  0  0  0  0  0  0
   27.2218  -27.7640  -19.7769 N   0  0  0  0  0  0  0  0  0  0  0  0
   26.3875  -27.5952  -18.7470 C   0  0  0  0  0  0  0  0  0  0  0  0
   25.0065  -27.3630  -18.7899 C   0  0  0  0  0  0  0  0  0  0  0  0
   24.3702  -27.2491  -17.5764 C   0  0  0  0  0  0  0  0  0  0  0  0
   25.0449  -27.3561  -16.3834 C   0  0  0  0  0  0  0  0  0  0  0  0
   26.3944  -27.5822  -16.3611 C   0  0  0  0  0  0  0  0  0  0  0  0
   27.0720  -27.7020  -17.5567 C   0  0  0  0  0  0  0  0  0  0  0  0
   30.7674  -29.4727  -18.6058 C   0  0  0  0  0  0  0  0  0  0  0  0
   30.8942  -29.2827  -19.8449 O   0  0  0  0  0  0  0  0  0  0  0  0
   30.5758  -30.7432  -18.1429 O   0  0  0  0  0  0  0  0  0  0  0  0
  2  1  1  6
  3  4  1  0
  3  2  1  0
  5  2  1  0
  6  5  2  0
  7  8  1  0
  8  9  1  0
  9 10  1  0
 11 12  1  0
 11 10  1  1
 12  5  1  0
 13 11  1  0
 14 13  2  0
 15 13  1  0
 16 17  1  6
 16 15  1  0
 17 18  1  0
 18 19  2  0
 19 20  1  0
 21 22  2  0
 21 20  1  0
 23 22  1  0
 24 23  2  0
 25 24  1  0
 25 26  2  0
 26 18  1  0
 26 21  1  0
 27 29  1  0
 27 16  1  0
 28 27  2  0
M  END
$$$$
