CMW.pdb
     RDKit          3D

 29 30  0  0  1  0  0  0  0  0999 V2000
   28.5920  -19.4156  -18.2347 N   0  0  0  0  0  0  0  0  0  0  0  0
   27.8246  -19.8534  -17.0923 C   0  0  1  0  0  0  0  0  0  0  0  0
   26.5834  -18.9766  -16.9943 C   0  0  0  0  0  0  0  0  0  0  0  0
   26.9827  -17.2735  -16.5608 S   0  0  0  0  0  0  0  0  0  0  0  0
   27.3271  -21.2367  -17.3489 C   0  0  0  0  0  0  0  0  0  0  0  0
   27.0098  -21.5145  -18.5268 O   0  0  0  0  0  0  0  0  0  0  0  0
   27.1005  -27.6511  -17.4146 C   0  0  0  0  0  0  0  0  0  0  0  0
   28.0600  -26.2448  -17.9187 S   0  0  0  0  0  0  0  0  0  0  0  0
   28.6492  -25.1812  -16.6252 C   0  0  0  0  0  0  0  0  0  0  0  0
   27.5572  -24.4764  -15.8835 C   0  0  0  0  0  0  0  0  0  0  0  0
   26.7425  -23.5727  -16.6786 C   0  0  2  0  0  0  0  0  0  0  0  0
   27.2167  -22.1954  -16.3120 N   0  0  0  0  0  0  0  0  0  0  0  0
   25.3022  -23.4930  -16.4952 C   0  0  0  0  0  0  0  0  0  0  0  0
   24.8884  -23.0027  -15.3677 O   0  0  0  0  0  0  0  0  0  0  0  0
   24.2502  -23.8631  -17.3457 N   0  0  0  0  0  0  0  0  0  0  0  0
   22.8242  -23.7023  -16.9949 C   0  0  1  0  0  0  0  0  0  0  0  0
   22.3218  -22.3876  -17.4539 C   0  0  0  0  0  0  0  0  0  0  0  0
   22.1942  -21.4069  -16.3704 C   0  0  0  0  0  0  0  0  0  0  0  0
   22.0846  -21.6891  -15.0090 C   0  0  0  0  0  0  0  0  0  0  0  0
   21.9435  -20.5615  -14.2982 N   0  0  0  0  0  0  0  0  0  0  0  0
   21.9592  -19.5433  -15.1633 C   0  0  0  0  0  0  0  0  0  0  0  0
   21.8632  -18.1746  -14.8801 C   0  0  0  0  0  0  0  0  0  0  0  0
   21.9312  -17.3236  -15.9579 C   0  0  0  0  0  0  0  0  0  0  0  0
   22.0849  -17.7829  -17.2445 C   0  0  0  0  0  0  0  0  0  0  0  0
   22.1760  -19.1238  -17.5019 C   0  0  0  0  0  0  0  0  0  0  0  0
   22.1115  -20.0127  -16.4491 C   0  0  0  0  0  0  0  0  0  0  0  0
   21.9975  -24.8108  -17.4680 C   0  0  0  0  0  0  0  0  0  0  0  0
   22.2606  -25.3535  -18.5742 O   0  0  0  0  0  0  0  0  0  0  0  0
   20.9470  -25.2770  -16.7304 O   0  0  0  0  0  0  0  0  0  0  0  0
  2  1  1  6
  3  4  1  0
  3  2  1  0
  5  2  1  0
  6  5  2  0
  7  8  1  0
  8  9  1  0
  9 10  1  0
 11 12  1  0
 11 10  1  1
 12  5  1  0
 13 11  1  0
 14 13  2  0
 15 13  1  0
 16 17  1  6
 16 15  1  0
 17 18  1  0
 18 19  2  0
 19 20  1  0
 21 22  2  0
 21 20  1  0
 23 22  1  0
 24 23  2  0
 25 24  1  0
 25 26  2  0
 26 18  1  0
 26 21  1  0
 27 29  1  0
 27 16  1  0
 28 27  2  0
M  END
$$$$
