CMW.pdb
     RDKit          3D

 29 30  0  0  1  0  0  0  0  0999 V2000
   28.2263  -21.1795  -14.8703 N   0  0  0  0  0  0  0  0  0  0  0  0
   27.8163  -20.1530  -13.9409 C   0  0  1  0  0  0  0  0  0  0  0  0
   27.1536  -19.0355  -14.7352 C   0  0  0  0  0  0  0  0  0  0  0  0
   28.3240  -18.1598  -15.7893 S   0  0  0  0  0  0  0  0  0  0  0  0
   26.7534  -20.7064  -13.0516 C   0  0  0  0  0  0  0  0  0  0  0  0
   26.1035  -21.6831  -13.4866 O   0  0  0  0  0  0  0  0  0  0  0  0
   28.5003  -20.3060   -6.4353 C   0  0  0  0  0  0  0  0  0  0  0  0
   26.9889  -19.9510   -7.2968 S   0  0  0  0  0  0  0  0  0  0  0  0
   26.8186  -20.6477   -8.9206 C   0  0  0  0  0  0  0  0  0  0  0  0
   25.5605  -20.2389   -9.6202 C   0  0  0  0  0  0  0  0  0  0  0  0
   25.3866  -20.7752  -10.9599 C   0  0  2  0  0  0  0  0  0  0  0  0
   26.4872  -20.1567  -11.7736 N   0  0  0  0  0  0  0  0  0  0  0  0
   24.1918  -20.4920  -11.7390 C   0  0  0  0  0  0  0  0  0  0  0  0
   24.1496  -19.3414  -12.3366 O   0  0  0  0  0  0  0  0  0  0  0  0
   23.0434  -21.2645  -11.9655 N   0  0  0  0  0  0  0  0  0  0  0  0
   21.9659  -20.8688  -12.8954 C   0  0  1  0  0  0  0  0  0  0  0  0
   22.5206  -20.5681  -14.2346 C   0  0  0  0  0  0  0  0  0  0  0  0
   21.4952  -20.1941  -15.2147 C   0  0  0  0  0  0  0  0  0  0  0  0
   20.6105  -19.1204  -15.1162 C   0  0  0  0  0  0  0  0  0  0  0  0
   19.7787  -19.0902  -16.1669 N   0  0  0  0  0  0  0  0  0  0  0  0
   20.0983  -20.1207  -16.9550 C   0  0  0  0  0  0  0  0  0  0  0  0
   19.5151  -20.4800  -18.1771 C   0  0  0  0  0  0  0  0  0  0  0  0
   20.0498  -21.5790  -18.8071 C   0  0  0  0  0  0  0  0  0  0  0  0
   21.0982  -22.2904  -18.2736 C   0  0  0  0  0  0  0  0  0  0  0  0
   21.6545  -21.9249  -17.0780 C   0  0  0  0  0  0  0  0  0  0  0  0
   21.1476  -20.8284  -16.4120 C   0  0  0  0  0  0  0  0  0  0  0  0
   20.8790  -21.8443  -12.9487 C   0  0  0  0  0  0  0  0  0  0  0  0
   21.1501  -23.0734  -13.0052 O   0  0  0  0  0  0  0  0  0  0  0  0
   19.5714  -21.4507  -12.9310 O   0  0  0  0  0  0  0  0  0  0  0  0
  2  1  1  6
  3  4  1  0
  3  2  1  0
  5  2  1  0
  6  5  2  0
  7  8  1  0
  8  9  1  0
  9 10  1  0
 11 12  1  0
 11 10  1  1
 12  5  1  0
 13 11  1  0
 14 13  2  0
 15 13  1  0
 16 17  1  6
 16 15  1  0
 17 18  1  0
 18 19  2  0
 19 20  1  0
 21 22  2  0
 21 20  1  0
 23 22  1  0
 24 23  2  0
 25 24  1  0
 25 26  2  0
 26 18  1  0
 26 21  1  0
 27 29  1  0
 27 16  1  0
 28 27  2  0
M  END
$$$$
