CMW.pdb
     RDKit          3D

 29 30  0  0  1  0  0  0  0  0999 V2000
   26.8476  -21.6031  -17.1656 N   0  0  0  0  0  0  0  0  0  0  0  0
   27.3092  -21.8616  -15.8219 C   0  0  1  0  0  0  0  0  0  0  0  0
   28.7743  -21.4542  -15.7402 C   0  0  0  0  0  0  0  0  0  0  0  0
   29.8820  -22.7842  -16.2422 S   0  0  0  0  0  0  0  0  0  0  0  0
   26.5824  -20.9590  -14.8818 C   0  0  0  0  0  0  0  0  0  0  0  0
   26.6264  -19.7328  -15.1269 O   0  0  0  0  0  0  0  0  0  0  0  0
   20.7014  -21.0425  -14.2998 C   0  0  0  0  0  0  0  0  0  0  0  0
   21.7538  -19.9325  -15.2014 S   0  0  0  0  0  0  0  0  0  0  0  0
   23.4592  -19.8818  -14.7111 C   0  0  0  0  0  0  0  0  0  0  0  0
   23.7310  -20.5725  -13.4116 C   0  0  0  0  0  0  0  0  0  0  0  0
   25.0985  -20.4809  -12.9279 C   0  0  2  0  0  0  0  0  0  0  0  0
   25.8738  -21.4601  -13.7623 N   0  0  0  0  0  0  0  0  0  0  0  0
   25.4453  -20.8508  -11.5650 C   0  0  0  0  0  0  0  0  0  0  0  0
   26.5978  -21.4216  -11.3956 O   0  0  0  0  0  0  0  0  0  0  0  0
   24.7341  -20.6957  -10.3662 N   0  0  0  0  0  0  0  0  0  0  0  0
   25.2352  -21.1590   -9.0560 C   0  0  1  0  0  0  0  0  0  0  0  0
   26.5126  -20.4890   -8.7226 C   0  0  0  0  0  0  0  0  0  0  0  0
   26.9960  -20.8041   -7.3739 C   0  0  0  0  0  0  0  0  0  0  0  0
   26.7337  -21.9689   -6.6531 C   0  0  0  0  0  0  0  0  0  0  0  0
   27.2960  -21.9142   -5.4376 N   0  0  0  0  0  0  0  0  0  0  0  0
   27.9236  -20.7384   -5.3440 C   0  0  0  0  0  0  0  0  0  0  0  0
   28.6683  -20.2462   -4.2641 C   0  0  0  0  0  0  0  0  0  0  0  0
   29.2380  -19.0062   -4.4322 C   0  0  0  0  0  0  0  0  0  0  0  0
   29.0896  -18.2838   -5.5923 C   0  0  0  0  0  0  0  0  0  0  0  0
   28.3575  -18.7804   -6.6364 C   0  0  0  0  0  0  0  0  0  0  0  0
   27.7680  -20.0210   -6.5093 C   0  0  0  0  0  0  0  0  0  0  0  0
   24.2421  -21.0262   -7.9922 C   0  0  0  0  0  0  0  0  0  0  0  0
   23.2466  -20.2730   -8.1626 O   0  0  0  0  0  0  0  0  0  0  0  0
   24.3671  -21.7094   -6.8163 O   0  0  0  0  0  0  0  0  0  0  0  0
  2  1  1  6
  3  4  1  0
  3  2  1  0
  5  2  1  0
  6  5  2  0
  7  8  1  0
  8  9  1  0
  9 10  1  0
 11 12  1  0
 11 10  1  1
 12  5  1  0
 13 11  1  0
 14 13  2  0
 15 13  1  0
 16 17  1  1
 16 15  1  0
 17 18  1  0
 18 19  2  0
 19 20  1  0
 21 22  2  0
 21 20  1  0
 23 22  1  0
 24 23  2  0
 25 24  1  0
 25 26  2  0
 26 18  1  0
 26 21  1  0
 27 29  1  0
 27 16  1  0
 28 27  2  0
M  END
$$$$
