CMW.pdb
     RDKit          3D

 29 30  0  0  1  0  0  0  0  0999 V2000
   27.9579  -21.7471  -16.1960 N   0  0  0  0  0  0  0  0  0  0  0  0
   27.5572  -20.6208  -15.3858 C   0  0  1  0  0  0  0  0  0  0  0  0
   26.4609  -19.8707  -16.1306 C   0  0  0  0  0  0  0  0  0  0  0  0
   27.0009  -19.3082  -17.7554 S   0  0  0  0  0  0  0  0  0  0  0  0
   26.9243  -21.1299  -14.1340 C   0  0  0  0  0  0  0  0  0  0  0  0
   26.4011  -22.2653  -14.1858 O   0  0  0  0  0  0  0  0  0  0  0  0
   25.8898  -19.8907   -6.5626 C   0  0  0  0  0  0  0  0  0  0  0  0
   26.0984  -19.6155   -8.3042 S   0  0  0  0  0  0  0  0  0  0  0  0
   26.7629  -20.9651   -9.2469 C   0  0  0  0  0  0  0  0  0  0  0  0
   27.2078  -20.5754  -10.6215 C   0  0  0  0  0  0  0  0  0  0  0  0
   26.3427  -21.0090  -11.7060 C   0  0  2  0  0  0  0  0  0  0  0  0
   26.9126  -20.3688  -12.9394 N   0  0  0  0  0  0  0  0  0  0  0  0
   24.9384  -20.6337  -11.7498 C   0  0  0  0  0  0  0  0  0  0  0  0
   24.6436  -19.4440  -11.3251 O   0  0  0  0  0  0  0  0  0  0  0  0
   23.8134  -21.3508  -12.1824 N   0  0  0  0  0  0  0  0  0  0  0  0
   22.7539  -20.7691  -13.0319 C   0  0  1  0  0  0  0  0  0  0  0  0
   23.3479  -20.0206  -14.1626 C   0  0  0  0  0  0  0  0  0  0  0  0
   22.3477  -19.3563  -15.0054 C   0  0  0  0  0  0  0  0  0  0  0  0
   21.5948  -18.2328  -14.6647 C   0  0  0  0  0  0  0  0  0  0  0  0
   20.7457  -17.9110  -15.6507 N   0  0  0  0  0  0  0  0  0  0  0  0
   20.9250  -18.7986  -16.6333 C   0  0  0  0  0  0  0  0  0  0  0  0
   20.2738  -18.8505  -17.8727 C   0  0  0  0  0  0  0  0  0  0  0  0
   20.6627  -19.8584  -18.7231 C   0  0  0  0  0  0  0  0  0  0  0  0
   21.6358  -20.7681  -18.3831 C   0  0  0  0  0  0  0  0  0  0  0  0
   22.2604  -20.7022  -17.1673 C   0  0  0  0  0  0  0  0  0  0  0  0
   21.8995  -19.7066  -16.2834 C   0  0  0  0  0  0  0  0  0  0  0  0
   21.7753  -21.7608  -13.4729 C   0  0  0  0  0  0  0  0  0  0  0  0
   22.1735  -22.8424  -13.9819 O   0  0  0  0  0  0  0  0  0  0  0  0
   20.4340  -21.5422  -13.3378 O   0  0  0  0  0  0  0  0  0  0  0  0
  2  1  1  6
  3  4  1  0
  3  2  1  0
  5  2  1  0
  6  5  2  0
  7  8  1  0
  8  9  1  0
  9 10  1  0
 11 12  1  0
 11 10  1  1
 12  5  1  0
 13 11  1  0
 14 13  2  0
 15 13  1  0
 16 17  1  6
 16 15  1  0
 17 18  1  0
 18 19  2  0
 19 20  1  0
 21 22  2  0
 21 20  1  0
 23 22  1  0
 24 23  2  0
 25 24  1  0
 25 26  2  0
 26 18  1  0
 26 21  1  0
 27 29  1  0
 27 16  1  0
 28 27  2  0
M  END
$$$$
