DDW.pdb
     RDKit          3D

 31 32  0  0  1  0  0  0  0  0999 V2000
    7.5782  -19.8970   22.4005 N   0  0  0  0  0  0  0  0  0  0  0  0
    8.1807  -19.7734   23.7227 C   0  0  1  0  0  0  0  0  0  0  0  0
    8.3710  -21.1124   24.3165 C   0  0  0  0  0  0  0  0  0  0  0  0
    7.3399  -22.0549   23.8417 C   0  0  0  0  0  0  0  0  0  0  0  0
    6.1285  -21.6456   23.8145 O   0  0  0  0  0  0  0  0  0  0  0  0
    9.4153  -18.9594   23.5715 C   0  0  0  0  0  0  0  0  0  0  0  0
   10.5199  -19.5434   23.6508 O   0  0  0  0  0  0  0  0  0  0  0  0
    7.6049  -23.3444   23.4283 O   0  0  0  0  0  0  0  0  0  0  0  0
    9.4225  -17.5727   23.3500 N   0  0  0  0  0  0  0  0  0  0  0  0
   10.6747  -16.8684   23.1951 C   0  0  1  0  0  0  0  0  0  0  0  0
   10.6945  -15.9056   22.0662 C   0  0  0  0  0  0  0  0  0  0  0  0
    9.3765  -15.5063   21.5532 C   0  0  0  0  0  0  0  0  0  0  0  0
    8.8907  -14.3970   21.8384 O   0  0  0  0  0  0  0  0  0  0  0  0
   10.9647  -16.1961   24.5144 C   0  0  0  0  0  0  0  0  0  0  0  0
   11.9731  -15.4680   24.6886 O   0  0  0  0  0  0  0  0  0  0  0  0
    8.6325  -16.3616   20.7316 O   0  0  0  0  0  0  0  0  0  0  0  0
   10.0887  -16.3700   25.6189 N   0  0  0  0  0  0  0  0  0  0  0  0
   10.5475  -16.2106   27.0141 C   0  0  1  0  0  0  0  0  0  0  0  0
    9.8763  -14.9432   27.4789 C   0  0  0  0  0  0  0  0  0  0  0  0
    8.5824  -14.6713   26.8295 C   0  0  0  0  0  0  0  0  0  0  0  0
    7.6392  -15.6281   26.4213 C   0  0  0  0  0  0  0  0  0  0  0  0
    6.5578  -15.0216   25.9170 N   0  0  0  0  0  0  0  0  0  0  0  0
    6.7765  -13.6904   25.9869 C   0  0  0  0  0  0  0  0  0  0  0  0
    5.9666  -12.6527   25.5842 C   0  0  0  0  0  0  0  0  0  0  0  0
    6.4327  -11.3706   25.7528 C   0  0  0  0  0  0  0  0  0  0  0  0
    7.6666  -11.1252   26.3053 C   0  0  0  0  0  0  0  0  0  0  0  0
    8.4924  -12.1465   26.7157 C   0  0  0  0  0  0  0  0  0  0  0  0
    8.0289  -13.4534   26.5501 C   0  0  0  0  0  0  0  0  0  0  0  0
   10.2945  -17.4127   27.7908 C   0  0  0  0  0  0  0  0  0  0  0  0
    9.6577  -18.5466   27.2831 O   0  0  0  0  0  0  0  0  0  0  0  0
   10.6474  -17.4935   28.9944 O   0  0  0  0  0  0  0  0  0  0  0  0
  2  3  1  0
  2  1  1  6
  3  4  1  0
  4  8  1  0
  4  5  2  0
  6  2  1  0
  7  6  2  0
  9  6  1  0
 10  9  1  0
 10 11  1  6
 12 11  1  0
 12 13  2  0
 14 10  1  0
 14 17  1  0
 15 14  2  0
 16 12  1  0
 18 17  1  0
 18 19  1  1
 18 29  1  0
 20 21  2  0
 20 19  1  0
 22 21  1  0
 23 28  2  0
 23 22  1  0
 24 23  1  0
 25 26  1  0
 25 24  2  0
 26 27  2  0
 27 28  1  0
 28 20  1  0
 29 30  1  0
 31 29  2  0
M  END
$$$$
