DDW.pdb
     RDKit          3D

 31 32  0  0  1  0  0  0  0  0999 V2000
   13.1186  -17.8093   20.3774 N   0  0  0  0  0  0  0  0  0  0  0  0
   12.3693  -18.2212   21.5587 C   0  0  1  0  0  0  0  0  0  0  0  0
   13.2886  -18.4002   22.7009 C   0  0  0  0  0  0  0  0  0  0  0  0
   14.1427  -17.2115   22.8862 C   0  0  0  0  0  0  0  0  0  0  0  0
   13.9621  -16.2216   22.0967 O   0  0  0  0  0  0  0  0  0  0  0  0
   11.2829  -17.2273   21.7617 C   0  0  0  0  0  0  0  0  0  0  0  0
   11.4820  -16.0505   21.3832 O   0  0  0  0  0  0  0  0  0  0  0  0
   15.1193  -17.1065   23.8554 O   0  0  0  0  0  0  0  0  0  0  0  0
   10.0459  -17.5228   22.3572 N   0  0  0  0  0  0  0  0  0  0  0  0
    9.0616  -16.4811   22.5426 C   0  0  1  0  0  0  0  0  0  0  0  0
    7.6616  -16.9229   22.3268 C   0  0  0  0  0  0  0  0  0  0  0  0
    7.2596  -18.1302   23.0620 C   0  0  0  0  0  0  0  0  0  0  0  0
    8.0462  -18.6904   23.8466 O   0  0  0  0  0  0  0  0  0  0  0  0
    9.2696  -15.9245   23.9295 C   0  0  0  0  0  0  0  0  0  0  0  0
    8.8511  -14.7892   24.2661 O   0  0  0  0  0  0  0  0  0  0  0  0
    5.9834  -18.6825   22.8999 O   0  0  0  0  0  0  0  0  0  0  0  0
    9.9576  -16.6828   24.9139 N   0  0  0  0  0  0  0  0  0  0  0  0
   10.2893  -16.1248   26.2410 C   0  0  1  0  0  0  0  0  0  0  0  0
    9.0103  -16.2620   27.0273 C   0  0  0  0  0  0  0  0  0  0  0  0
    7.9002  -15.4344   26.5248 C   0  0  0  0  0  0  0  0  0  0  0  0
    6.7432  -15.8982   25.8782 C   0  0  0  0  0  0  0  0  0  0  0  0
    5.9258  -14.8736   25.6074 N   0  0  0  0  0  0  0  0  0  0  0  0
    6.5256  -13.7520   26.0626 C   0  0  0  0  0  0  0  0  0  0  0  0
    6.0885  -12.4478   26.0089 C   0  0  0  0  0  0  0  0  0  0  0  0
    6.9031  -11.4744   26.5368 C   0  0  0  0  0  0  0  0  0  0  0  0
    8.1161  -11.7863   27.1019 C   0  0  0  0  0  0  0  0  0  0  0  0
    8.5727  -13.0827   27.1673 C   0  0  0  0  0  0  0  0  0  0  0  0
    7.7531  -14.0801   26.6349 C   0  0  0  0  0  0  0  0  0  0  0  0
   11.4743  -16.7577   26.7956 C   0  0  0  0  0  0  0  0  0  0  0  0
   12.0701  -16.3734   27.9983 O   0  0  0  0  0  0  0  0  0  0  0  0
   12.0382  -17.7114   26.2023 O   0  0  0  0  0  0  0  0  0  0  0  0
  2  3  1  0
  2  1  1  6
  3  4  1  0
  4  8  1  0
  4  5  2  0
  6  2  1  0
  7  6  2  0
  9  6  1  0
 10  9  1  0
 10 11  1  1
 12 11  1  0
 12 13  2  0
 14 10  1  0
 14 17  1  0
 15 14  2  0
 16 12  1  0
 18 17  1  0
 18 19  1  1
 18 29  1  0
 20 21  2  0
 20 19  1  0
 22 21  1  0
 23 28  2  0
 23 22  1  0
 24 23  1  0
 25 26  1  0
 25 24  2  0
 26 27  2  0
 27 28  1  0
 28 20  1  0
 29 30  1  0
 31 29  2  0
M  END
$$$$
