DDW.pdb
     RDKit          3D

 31 32  0  0  1  0  0  0  0  0999 V2000
   10.9680  -17.1541   17.8610 N   0  0  0  0  0  0  0  0  0  0  0  0
   11.6837  -17.7388   18.9891 C   0  0  1  0  0  0  0  0  0  0  0  0
   12.9147  -16.9682   19.2584 C   0  0  0  0  0  0  0  0  0  0  0  0
   14.0166  -17.4037   18.3792 C   0  0  0  0  0  0  0  0  0  0  0  0
   14.2844  -18.6536   18.3375 O   0  0  0  0  0  0  0  0  0  0  0  0
   10.7252  -17.8295   20.1216 C   0  0  0  0  0  0  0  0  0  0  0  0
    9.5827  -17.3410   19.9677 O   0  0  0  0  0  0  0  0  0  0  0  0
   14.7705  -16.5462   17.6044 O   0  0  0  0  0  0  0  0  0  0  0  0
   11.0213  -18.4248   21.3585 N   0  0  0  0  0  0  0  0  0  0  0  0
   10.0132  -18.4927   22.3918 C   0  0  1  0  0  0  0  0  0  0  0  0
    9.4501  -19.8492   22.6027 C   0  0  0  0  0  0  0  0  0  0  0  0
    8.5582  -19.9897   23.7622 C   0  0  0  0  0  0  0  0  0  0  0  0
    8.8266  -20.7854   24.6802 O   0  0  0  0  0  0  0  0  0  0  0  0
   10.6377  -17.9398   23.6492 C   0  0  0  0  0  0  0  0  0  0  0  0
   11.7786  -18.2893   24.0408 O   0  0  0  0  0  0  0  0  0  0  0  0
    7.3841  -19.2342   23.8653 O   0  0  0  0  0  0  0  0  0  0  0  0
    9.9402  -16.9895   24.4416 N   0  0  0  0  0  0  0  0  0  0  0  0
   10.4439  -16.5483   25.7585 C   0  0  1  0  0  0  0  0  0  0  0  0
   10.1146  -15.0779   25.8040 C   0  0  0  0  0  0  0  0  0  0  0  0
    8.6733  -14.7792   25.7484 C   0  0  0  0  0  0  0  0  0  0  0  0
    7.6285  -15.7173   25.7560 C   0  0  0  0  0  0  0  0  0  0  0  0
    6.4466  -15.0892   25.7483 N   0  0  0  0  0  0  0  0  0  0  0  0
    6.6987  -13.7621   25.7346 C   0  0  0  0  0  0  0  0  0  0  0  0
    5.8138  -12.7080   25.7117 C   0  0  0  0  0  0  0  0  0  0  0  0
    6.3313  -11.4347   25.6855 C   0  0  0  0  0  0  0  0  0  0  0  0
    7.6875  -11.2139   25.6826 C   0  0  0  0  0  0  0  0  0  0  0  0
    8.5903  -12.2520   25.7062 C   0  0  0  0  0  0  0  0  0  0  0  0
    8.0761  -13.5501   25.7337 C   0  0  0  0  0  0  0  0  0  0  0  0
    9.9117  -17.3757   26.8284 C   0  0  0  0  0  0  0  0  0  0  0  0
   10.4109  -17.3764   28.1322 O   0  0  0  0  0  0  0  0  0  0  0  0
    8.9462  -18.1547   26.6269 O   0  0  0  0  0  0  0  0  0  0  0  0
  2  3  1  0
  2  1  1  6
  3  4  1  0
  4  8  1  0
  4  5  2  0
  6  2  1  0
  7  6  2  0
  9  6  1  0
 10  9  1  0
 10 11  1  1
 12 11  1  0
 12 13  2  0
 14 10  1  0
 14 17  1  0
 15 14  2  0
 16 12  1  0
 18 17  1  0
 18 19  1  1
 18 29  1  0
 20 21  2  0
 20 19  1  0
 22 21  1  0
 23 28  2  0
 23 22  1  0
 24 23  1  0
 25 26  1  0
 25 24  2  0
 26 27  2  0
 27 28  1  0
 28 20  1  0
 29 30  1  0
 31 29  2  0
M  END
$$$$
