DDW.pdb
     RDKit          3D

 31 32  0  0  1  0  0  0  0  0999 V2000
    6.9383  -16.3380   19.7221 N   0  0  0  0  0  0  0  0  0  0  0  0
    8.3235  -15.9242   19.9132 C   0  0  1  0  0  0  0  0  0  0  0  0
    8.4047  -14.4506   19.9760 C   0  0  0  0  0  0  0  0  0  0  0  0
    8.3115  -13.8560   18.6289 C   0  0  0  0  0  0  0  0  0  0  0  0
    8.7946  -14.5233   17.6506 O   0  0  0  0  0  0  0  0  0  0  0  0
    8.8395  -16.6446   21.1066 C   0  0  0  0  0  0  0  0  0  0  0  0
    8.0117  -17.0512   21.9534 O   0  0  0  0  0  0  0  0  0  0  0  0
    7.7375  -12.6293   18.3650 O   0  0  0  0  0  0  0  0  0  0  0  0
   10.1999  -16.8947   21.3488 N   0  0  0  0  0  0  0  0  0  0  0  0
   10.5998  -17.7089   22.4737 C   0  0  1  0  0  0  0  0  0  0  0  0
   11.6548  -18.7037   22.1589 C   0  0  0  0  0  0  0  0  0  0  0  0
   12.0981  -19.5333   23.2880 C   0  0  0  0  0  0  0  0  0  0  0  0
   13.2924  -19.5504   23.6363 O   0  0  0  0  0  0  0  0  0  0  0  0
   11.0260  -16.7628   23.5691 C   0  0  0  0  0  0  0  0  0  0  0  0
   12.1706  -16.2469   23.6018 O   0  0  0  0  0  0  0  0  0  0  0  0
   11.1909  -20.3261   24.0010 O   0  0  0  0  0  0  0  0  0  0  0  0
   10.1278  -16.4211   24.6150 N   0  0  0  0  0  0  0  0  0  0  0  0
   10.6003  -16.0881   25.9746 C   0  0  1  0  0  0  0  0  0  0  0  0
    9.9231  -14.7782   26.2883 C   0  0  0  0  0  0  0  0  0  0  0  0
    8.4682  -14.7796   26.0582 C   0  0  0  0  0  0  0  0  0  0  0  0
    7.6525  -15.9113   25.8974 C   0  0  0  0  0  0  0  0  0  0  0  0
    6.3738  -15.5405   25.7601 N   0  0  0  0  0  0  0  0  0  0  0  0
    6.3388  -14.1917   25.8268 C   0  0  0  0  0  0  0  0  0  0  0  0
    5.2597  -13.3429   25.7280 C   0  0  0  0  0  0  0  0  0  0  0  0
    5.4949  -11.9912   25.8146 C   0  0  0  0  0  0  0  0  0  0  0  0
    6.7641  -11.4964   25.9944 C   0  0  0  0  0  0  0  0  0  0  0  0
    7.8571  -12.3259   26.0967 C   0  0  0  0  0  0  0  0  0  0  0  0
    7.6301  -13.7012   26.0111 C   0  0  0  0  0  0  0  0  0  0  0  0
   10.3663  -17.1876   26.8959 C   0  0  0  0  0  0  0  0  0  0  0  0
    9.7944  -18.4055   26.5236 O   0  0  0  0  0  0  0  0  0  0  0  0
   10.6770  -17.0937   28.1101 O   0  0  0  0  0  0  0  0  0  0  0  0
  2  3  1  0
  2  1  1  1
  3  4  1  0
  4  8  1  0
  4  5  2  0
  6  2  1  0
  7  6  2  0
  9  6  1  0
 10  9  1  0
 10 11  1  6
 12 11  1  0
 12 13  2  0
 14 10  1  0
 14 17  1  0
 15 14  2  0
 16 12  1  0
 18 17  1  0
 18 19  1  1
 18 29  1  0
 20 21  2  0
 20 19  1  0
 22 21  1  0
 23 28  2  0
 23 22  1  0
 24 23  1  0
 25 26  1  0
 25 24  2  0
 26 27  2  0
 27 28  1  0
 28 20  1  0
 29 30  1  0
 31 29  2  0
M  END
$$$$
