DDW.pdb
     RDKit          3D

 31 32  0  0  1  0  0  0  0  0999 V2000
    9.5548  -15.9284   19.9559 N   0  0  0  0  0  0  0  0  0  0  0  0
    8.4455  -16.4711   20.7314 C   0  0  1  0  0  0  0  0  0  0  0  0
    7.6431  -17.3838   19.8917 C   0  0  0  0  0  0  0  0  0  0  0  0
    7.6354  -16.9411   18.4843 C   0  0  0  0  0  0  0  0  0  0  0  0
    8.7436  -16.9701   17.8466 O   0  0  0  0  0  0  0  0  0  0  0  0
    9.0201  -17.0739   21.9627 C   0  0  0  0  0  0  0  0  0  0  0  0
    8.2564  -17.7230   22.7131 O   0  0  0  0  0  0  0  0  0  0  0  0
    6.5090  -16.5001   17.8204 O   0  0  0  0  0  0  0  0  0  0  0  0
   10.3671  -16.9573   22.3423 N   0  0  0  0  0  0  0  0  0  0  0  0
   10.8476  -17.6259   23.5299 C   0  0  1  0  0  0  0  0  0  0  0  0
   12.2551  -18.0868   23.4400 C   0  0  0  0  0  0  0  0  0  0  0  0
   13.1827  -17.1591   22.7778 C   0  0  0  0  0  0  0  0  0  0  0  0
   13.9812  -16.4738   23.4416 O   0  0  0  0  0  0  0  0  0  0  0  0
   10.6383  -16.6748   24.6824 C   0  0  0  0  0  0  0  0  0  0  0  0
   11.1449  -15.5258   24.7039 O   0  0  0  0  0  0  0  0  0  0  0  0
   13.1930  -17.0207   21.3847 O   0  0  0  0  0  0  0  0  0  0  0  0
    9.8469  -17.0584   25.7978 N   0  0  0  0  0  0  0  0  0  0  0  0
    9.9426  -16.3671   27.0999 C   0  0  1  0  0  0  0  0  0  0  0  0
    8.5075  -16.1315   27.4971 C   0  0  0  0  0  0  0  0  0  0  0  0
    7.7026  -15.4421   26.4740 C   0  0  0  0  0  0  0  0  0  0  0  0
    6.9275  -16.0526   25.4748 C   0  0  0  0  0  0  0  0  0  0  0  0
    6.2894  -15.1218   24.7552 N   0  0  0  0  0  0  0  0  0  0  0  0
    6.6327  -13.9181   25.2632 C   0  0  0  0  0  0  0  0  0  0  0  0
    6.2463  -12.6602   24.8591 C   0  0  0  0  0  0  0  0  0  0  0  0
    6.7556  -11.5810   25.5414 C   0  0  0  0  0  0  0  0  0  0  0  0
    7.6230  -11.7452   26.5944 C   0  0  0  0  0  0  0  0  0  0  0  0
    8.0221  -12.9927   27.0161 C   0  0  0  0  0  0  0  0  0  0  0  0
    7.5104  -14.0967   26.3309 C   0  0  0  0  0  0  0  0  0  0  0  0
   10.7696  -17.1152   28.0321 C   0  0  0  0  0  0  0  0  0  0  0  0
   11.2271  -16.6044   29.2481 O   0  0  0  0  0  0  0  0  0  0  0  0
   11.1241  -18.2948   27.7823 O   0  0  0  0  0  0  0  0  0  0  0  0
  2  3  1  0
  2  1  1  6
  3  4  1  0
  4  8  1  0
  4  5  2  0
  6  2  1  0
  7  6  2  0
  9  6  1  0
 10  9  1  0
 10 11  1  6
 12 11  1  0
 12 13  2  0
 14 10  1  0
 14 17  1  0
 15 14  2  0
 16 12  1  0
 18 17  1  0
 18 19  1  1
 18 29  1  0
 20 21  2  0
 20 19  1  0
 22 21  1  0
 23 28  2  0
 23 22  1  0
 24 23  1  0
 25 26  1  0
 25 24  2  0
 26 27  2  0
 27 28  1  0
 28 20  1  0
 29 30  1  0
 31 29  2  0
M  END
$$$$
