DDW.pdb
     RDKit          3D

 31 32  0  0  1  0  0  0  0  0999 V2000
    9.2621  -17.5047   20.2459 N   0  0  0  0  0  0  0  0  0  0  0  0
    9.8432  -16.5165   21.1473 C   0  0  1  0  0  0  0  0  0  0  0  0
    9.1706  -15.2138   20.9673 C   0  0  0  0  0  0  0  0  0  0  0  0
    9.4729  -14.6390   19.6425 C   0  0  0  0  0  0  0  0  0  0  0  0
   10.3132  -15.2589   18.9040 O   0  0  0  0  0  0  0  0  0  0  0  0
    9.7844  -17.0824   22.5206 C   0  0  0  0  0  0  0  0  0  0  0  0
    8.6585  -17.3350   23.0065 O   0  0  0  0  0  0  0  0  0  0  0  0
    8.9055  -13.4786   19.1572 O   0  0  0  0  0  0  0  0  0  0  0  0
   10.9134  -17.3477   23.3123 N   0  0  0  0  0  0  0  0  0  0  0  0
   10.7579  -17.9139   24.6328 C   0  0  1  0  0  0  0  0  0  0  0  0
   11.6658  -19.0528   24.9161 C   0  0  0  0  0  0  0  0  0  0  0  0
   11.6129  -19.5768   26.2880 C   0  0  0  0  0  0  0  0  0  0  0  0
   10.5391  -19.9672   26.7804 O   0  0  0  0  0  0  0  0  0  0  0  0
   10.9444  -16.7858   25.6173 C   0  0  0  0  0  0  0  0  0  0  0  0
   11.9542  -16.0394   25.5983 O   0  0  0  0  0  0  0  0  0  0  0  0
   12.7668  -19.6507   27.0774 O   0  0  0  0  0  0  0  0  0  0  0  0
    9.9644  -16.5299   26.6131 N   0  0  0  0  0  0  0  0  0  0  0  0
   10.2594  -15.7166   27.8106 C   0  0  1  0  0  0  0  0  0  0  0  0
    8.9202  -15.1505   28.2093 C   0  0  0  0  0  0  0  0  0  0  0  0
    8.0251  -14.8604   27.0760 C   0  0  0  0  0  0  0  0  0  0  0  0
    7.2681  -15.7963   26.3530 C   0  0  0  0  0  0  0  0  0  0  0  0
    6.5299  -15.1733   25.4266 N   0  0  0  0  0  0  0  0  0  0  0  0
    6.7903  -13.8518   25.5296 C   0  0  0  0  0  0  0  0  0  0  0  0
    6.2869  -12.8051   24.7908 C   0  0  0  0  0  0  0  0  0  0  0  0
    6.7292  -11.5377   25.0872 C   0  0  0  0  0  0  0  0  0  0  0  0
    7.6441  -11.3154   26.0880 C   0  0  0  0  0  0  0  0  0  0  0  0
    8.1599  -12.3461   26.8396 C   0  0  0  0  0  0  0  0  0  0  0  0
    7.7172  -13.6381   26.5480 C   0  0  0  0  0  0  0  0  0  0  0  0
   10.9699  -16.4945   28.8118 C   0  0  0  0  0  0  0  0  0  0  0  0
   11.2359  -17.8597   28.6908 O   0  0  0  0  0  0  0  0  0  0  0  0
   11.3933  -15.9606   29.8678 O   0  0  0  0  0  0  0  0  0  0  0  0
  2  3  1  0
  2  1  1  6
  3  4  1  0
  4  8  1  0
  4  5  2  0
  6  2  1  0
  7  6  2  0
  9  6  1  0
 10  9  1  0
 10 11  1  1
 12 11  1  0
 12 13  2  0
 14 10  1  0
 14 17  1  0
 15 14  2  0
 16 12  1  0
 18 17  1  0
 18 19  1  1
 18 29  1  0
 20 21  2  0
 20 19  1  0
 22 21  1  0
 23 28  2  0
 23 22  1  0
 24 23  1  0
 25 26  1  0
 25 24  2  0
 26 27  2  0
 27 28  1  0
 28 20  1  0
 29 30  1  0
 31 29  2  0
M  END
$$$$
