DDW.pdb
     RDKit          3D

 31 32  0  0  1  0  0  0  0  0999 V2000
    8.4378  -18.6697   20.1623 N   0  0  0  0  0  0  0  0  0  0  0  0
    8.2708  -17.8521   21.3583 C   0  0  1  0  0  0  0  0  0  0  0  0
    6.9353  -18.0847   21.9448 C   0  0  0  0  0  0  0  0  0  0  0  0
    5.9650  -18.4919   20.9107 C   0  0  0  0  0  0  0  0  0  0  0  0
    4.7212  -18.3963   21.1928 O   0  0  0  0  0  0  0  0  0  0  0  0
    9.4217  -18.1392   22.2541 C   0  0  0  0  0  0  0  0  0  0  0  0
    9.6116  -19.3250   22.6086 O   0  0  0  0  0  0  0  0  0  0  0  0
    6.3193  -18.9673   19.6647 O   0  0  0  0  0  0  0  0  0  0  0  0
   10.3093  -17.1626   22.7341 N   0  0  0  0  0  0  0  0  0  0  0  0
   11.3467  -17.5226   23.6736 C   0  0  1  0  0  0  0  0  0  0  0  0
   12.7247  -17.3654   23.1465 C   0  0  0  0  0  0  0  0  0  0  0  0
   12.9131  -16.2678   22.1876 C   0  0  0  0  0  0  0  0  0  0  0  0
   12.1489  -16.1327   21.2151 O   0  0  0  0  0  0  0  0  0  0  0  0
   11.1198  -16.6945   24.9144 C   0  0  0  0  0  0  0  0  0  0  0  0
   11.9102  -15.7843   25.2668 O   0  0  0  0  0  0  0  0  0  0  0  0
   13.9556  -15.3461   22.3413 O   0  0  0  0  0  0  0  0  0  0  0  0
    9.9838  -16.9241   25.7355 N   0  0  0  0  0  0  0  0  0  0  0  0
    9.9160  -16.4417   27.1302 C   0  0  1  0  0  0  0  0  0  0  0  0
    8.4390  -16.3097   27.4018 C   0  0  0  0  0  0  0  0  0  0  0  0
    7.7370  -15.3883   26.4918 C   0  0  0  0  0  0  0  0  0  0  0  0
    6.9731  -15.7484   25.3699 C   0  0  0  0  0  0  0  0  0  0  0  0
    6.4387  -14.6574   24.8082 N   0  0  0  0  0  0  0  0  0  0  0  0
    6.8388  -13.5941   25.5392 C   0  0  0  0  0  0  0  0  0  0  0  0
    6.5619  -12.2581   25.3564 C   0  0  0  0  0  0  0  0  0  0  0  0
    7.1099  -11.3609   26.2422 C   0  0  0  0  0  0  0  0  0  0  0  0
    7.9091  -11.7775   27.2794 C   0  0  0  0  0  0  0  0  0  0  0  0
    8.1984  -13.1074   27.4818 C   0  0  0  0  0  0  0  0  0  0  0  0
    7.6465  -14.0281   26.5886 C   0  0  0  0  0  0  0  0  0  0  0  0
   10.6750  -17.3030   28.0214 C   0  0  0  0  0  0  0  0  0  0  0  0
   10.9978  -18.6300   27.7317 O   0  0  0  0  0  0  0  0  0  0  0  0
   11.0913  -16.8832   29.1305 O   0  0  0  0  0  0  0  0  0  0  0  0
  2  3  1  0
  2  1  1  6
  3  4  1  0
  4  8  1  0
  4  5  2  0
  6  2  1  0
  7  6  2  0
  9  6  1  0
 10  9  1  0
 10 11  1  6
 12 11  1  0
 12 13  2  0
 14 10  1  0
 14 17  1  0
 15 14  2  0
 16 12  1  0
 18 17  1  0
 18 19  1  1
 18 29  1  0
 20 21  2  0
 20 19  1  0
 22 21  1  0
 23 28  2  0
 23 22  1  0
 24 23  1  0
 25 26  1  0
 25 24  2  0
 26 27  2  0
 27 28  1  0
 28 20  1  0
 29 30  1  0
 31 29  2  0
M  END
$$$$
