DDW.pdb
     RDKit          3D

 31 32  0  0  1  0  0  0  0  0999 V2000
   13.0733  -17.1055   19.2030 N   0  0  0  0  0  0  0  0  0  0  0  0
   12.8023  -15.8662   19.9222 C   0  0  1  0  0  0  0  0  0  0  0  0
   12.7405  -14.7363   18.9728 C   0  0  0  0  0  0  0  0  0  0  0  0
   14.0405  -14.5317   18.3059 C   0  0  0  0  0  0  0  0  0  0  0  0
   14.1017  -14.7447   17.0462 O   0  0  0  0  0  0  0  0  0  0  0  0
   11.5778  -16.0860   20.7356 C   0  0  0  0  0  0  0  0  0  0  0  0
   11.0250  -15.0876   21.2507 O   0  0  0  0  0  0  0  0  0  0  0  0
   15.1870  -14.1268   18.9582 O   0  0  0  0  0  0  0  0  0  0  0  0
   11.0022  -17.3456   20.9686 N   0  0  0  0  0  0  0  0  0  0  0  0
    9.9393  -17.4906   21.9368 C   0  0  1  0  0  0  0  0  0  0  0  0
    9.2640  -18.8115   21.9041 C   0  0  0  0  0  0  0  0  0  0  0  0
    8.8969  -19.3005   20.5678 C   0  0  0  0  0  0  0  0  0  0  0  0
    7.9182  -18.8275   19.9625 O   0  0  0  0  0  0  0  0  0  0  0  0
   10.5375  -17.1968   23.2905 C   0  0  0  0  0  0  0  0  0  0  0  0
   11.6902  -17.5786   23.6114 O   0  0  0  0  0  0  0  0  0  0  0  0
    9.6365  -20.3102   19.9405 O   0  0  0  0  0  0  0  0  0  0  0  0
    9.8006  -16.4654   24.2599 N   0  0  0  0  0  0  0  0  0  0  0  0
   10.3788  -16.0981   25.5688 C   0  0  1  0  0  0  0  0  0  0  0  0
    9.8862  -14.6933   25.8068 C   0  0  0  0  0  0  0  0  0  0  0  0
    8.4371  -14.5942   26.0516 C   0  0  0  0  0  0  0  0  0  0  0  0
    7.5465  -15.6668   26.2191 C   0  0  0  0  0  0  0  0  0  0  0  0
    6.3160  -15.2069   26.4758 N   0  0  0  0  0  0  0  0  0  0  0  0
    6.3854  -13.8578   26.4780 C   0  0  0  0  0  0  0  0  0  0  0  0
    5.3848  -12.9349   26.6822 C   0  0  0  0  0  0  0  0  0  0  0  0
    5.7161  -11.6023   26.6172 C   0  0  0  0  0  0  0  0  0  0  0  0
    7.0032  -11.1974   26.3575 C   0  0  0  0  0  0  0  0  0  0  0  0
    8.0193  -12.1020   26.1512 C   0  0  0  0  0  0  0  0  0  0  0  0
    7.6946  -13.4587   26.2157 C   0  0  0  0  0  0  0  0  0  0  0  0
   10.0568  -17.0892   26.5819 C   0  0  0  0  0  0  0  0  0  0  0  0
   10.6278  -17.1127   27.8556 O   0  0  0  0  0  0  0  0  0  0  0  0
    9.2228  -18.0016   26.3548 O   0  0  0  0  0  0  0  0  0  0  0  0
  2  3  1  0
  2  1  1  6
  3  4  1  0
  4  8  1  0
  4  5  2  0
  6  2  1  0
  7  6  2  0
  9  6  1  0
 10  9  1  0
 10 11  1  1
 12 11  1  0
 12 13  2  0
 14 10  1  0
 14 17  1  0
 15 14  2  0
 16 12  1  0
 18 17  1  0
 18 19  1  1
 18 29  1  0
 20 21  2  0
 20 19  1  0
 22 21  1  0
 23 28  2  0
 23 22  1  0
 24 23  1  0
 25 26  1  0
 25 24  2  0
 26 27  2  0
 27 28  1  0
 28 20  1  0
 29 30  1  0
 31 29  2  0
M  END
$$$$
