DDW.pdb
     RDKit          3D

 31 32  0  0  1  0  0  0  0  0999 V2000
    8.8712  -13.1471   20.4533 N   0  0  0  0  0  0  0  0  0  0  0  0
    7.5859  -13.8300   20.3623 C   0  0  1  0  0  0  0  0  0  0  0  0
    7.0096  -13.6412   19.0155 C   0  0  0  0  0  0  0  0  0  0  0  0
    8.0112  -13.9127   17.9667 C   0  0  0  0  0  0  0  0  0  0  0  0
    8.8569  -14.8479   18.1812 O   0  0  0  0  0  0  0  0  0  0  0  0
    7.8056  -15.2419   20.7719 C   0  0  0  0  0  0  0  0  0  0  0  0
    6.8166  -16.0094   20.7968 O   0  0  0  0  0  0  0  0  0  0  0  0
    8.0882  -13.2204   16.7756 O   0  0  0  0  0  0  0  0  0  0  0  0
    9.0537  -15.7708   21.1387 N   0  0  0  0  0  0  0  0  0  0  0  0
    9.1565  -17.1355   21.6027 C   0  0  1  0  0  0  0  0  0  0  0  0
   10.0197  -18.0000   20.7605 C   0  0  0  0  0  0  0  0  0  0  0  0
   10.1656  -19.3878   21.2214 C   0  0  0  0  0  0  0  0  0  0  0  0
    9.1857  -20.1535   21.2588 O   0  0  0  0  0  0  0  0  0  0  0  0
    9.6396  -17.0768   23.0309 C   0  0  0  0  0  0  0  0  0  0  0  0
    9.8368  -18.1115   23.7150 O   0  0  0  0  0  0  0  0  0  0  0  0
   11.4085  -19.8853   21.6308 O   0  0  0  0  0  0  0  0  0  0  0  0
    9.8907  -15.8260   23.6552 N   0  0  0  0  0  0  0  0  0  0  0  0
   10.2581  -15.7235   25.0825 C   0  0  1  0  0  0  0  0  0  0  0  0
    9.0204  -16.1774   25.8138 C   0  0  0  0  0  0  0  0  0  0  0  0
    7.8586  -15.2876   25.6460 C   0  0  0  0  0  0  0  0  0  0  0  0
    6.5782  -15.6645   25.2100 C   0  0  0  0  0  0  0  0  0  0  0  0
    5.7571  -14.6077   25.2272 N   0  0  0  0  0  0  0  0  0  0  0  0
    6.4751  -13.5500   25.6640 C   0  0  0  0  0  0  0  0  0  0  0  0
    6.0801  -12.2435   25.8425 C   0  0  0  0  0  0  0  0  0  0  0  0
    7.0183  -11.3435   26.2891 C   0  0  0  0  0  0  0  0  0  0  0  0
    8.3109  -11.7289   26.5514 C   0  0  0  0  0  0  0  0  0  0  0  0
    8.7276  -13.0292   26.3810 C   0  0  0  0  0  0  0  0  0  0  0  0
    7.7828  -13.9526   25.9284 C   0  0  0  0  0  0  0  0  0  0  0  0
   11.4891  -16.4442   25.3611 C   0  0  0  0  0  0  0  0  0  0  0  0
   12.2205  -16.3061   26.5421 O   0  0  0  0  0  0  0  0  0  0  0  0
   11.9705  -17.2522   24.5274 O   0  0  0  0  0  0  0  0  0  0  0  0
  2  3  1  0
  2  1  1  6
  3  4  1  0
  4  8  1  0
  4  5  2  0
  6  2  1  0
  7  6  2  0
  9  6  1  0
 10  9  1  0
 10 11  1  6
 12 11  1  0
 12 13  2  0
 14 10  1  0
 14 17  1  0
 15 14  2  0
 16 12  1  0
 18 17  1  0
 18 19  1  1
 18 29  1  0
 20 21  2  0
 20 19  1  0
 22 21  1  0
 23 28  2  0
 23 22  1  0
 24 23  1  0
 25 26  1  0
 25 24  2  0
 26 27  2  0
 27 28  1  0
 28 20  1  0
 29 30  1  0
 31 29  2  0
M  END
$$$$
