NER.pdb
     RDKit          3D

 29 28  0  0  1  0  0  0  0  0999 V2000
   29.0549  -33.2490   -4.2671 N   0  0  0  0  0  0  0  0  0  0  0  0
   28.7083  -34.5622   -3.8420 C   0  0  0  0  0  0  0  0  0  0  0  0
   29.3607  -35.1401   -2.9503 O   0  0  0  0  0  0  0  0  0  0  0  0
   27.5446  -35.2030   -4.5051 C   0  0  0  0  0  0  0  0  0  0  0  0
   27.0136  -34.2454   -5.5405 C   0  0  2  0  0  0  0  0  0  0  0  0
   27.2011  -32.8695   -5.1347 N   0  0  0  0  0  0  0  0  0  0  0  0
   25.5652  -34.4610   -5.7808 C   0  0  0  0  0  0  0  0  0  0  0  0
   25.1561  -35.2644   -6.6733 O   0  0  0  0  0  0  0  0  0  0  0  0
   24.5818  -33.7818   -5.0276 N   0  0  0  0  0  0  0  0  0  0  0  0
   23.1784  -34.0601   -5.2207 C   0  0  1  0  0  0  0  0  0  0  0  0
   22.4435  -33.3268   -4.1200 C   0  0  0  0  0  0  0  0  0  0  0  0
   20.9670  -33.5770   -4.1442 C   0  0  0  0  0  0  0  0  0  0  0  0
   20.1903  -32.8562   -3.1402 C   0  0  0  0  0  0  0  0  0  0  0  0
   19.8008  -31.6934   -3.2919 O   0  0  0  0  0  0  0  0  0  0  0  0
   22.7874  -33.5610   -6.5617 C   0  0  0  0  0  0  0  0  0  0  0  0
   23.5014  -32.6875   -7.1077 O   0  0  0  0  0  0  0  0  0  0  0  0
   19.8585  -33.4855   -1.9453 O   0  0  0  0  0  0  0  0  0  0  0  0
   25.4700  -34.2566  -13.6124 N   0  0  0  0  0  0  0  0  0  0  0  0
   25.5895  -33.3774  -12.5185 C   0  0  0  0  0  0  0  0  0  0  0  0
   26.7220  -32.7566  -12.3210 N   0  0  0  0  0  0  0  0  0  0  0  0
   24.5141  -33.1391  -11.6150 N   0  0  0  0  0  0  0  0  0  0  0  0
   23.2641  -33.7700  -11.8961 C   0  0  0  0  0  0  0  0  0  0  0  0
   22.1838  -33.4969  -10.9025 C   0  0  0  0  0  0  0  0  0  0  0  0
   22.5357  -33.8418   -9.4942 C   0  0  0  0  0  0  0  0  0  0  0  0
   21.3293  -33.5781   -8.5839 C   0  0  2  0  0  0  0  0  0  0  0  0
   21.6354  -34.0376   -7.2464 N   0  0  0  0  0  0  0  0  0  0  0  0
   20.1270  -34.2829   -9.0855 C   0  0  0  0  0  0  0  0  0  0  0  0
   19.5126  -35.2171   -8.2697 O   0  0  0  0  0  0  0  0  0  0  0  0
   19.6309  -34.0781  -10.2182 O   0  0  0  0  0  0  0  0  0  0  0  0
  1  2  1  0
  2  3  2  0
  4  5  1  0
  4  2  1  0
  5  6  1  1
  7  8  2  0
  7  5  1  0
  9  7  1  0
 10  9  1  0
 11 12  1  0
 10 11  1  1
 12 13  1  0
 13 14  2  0
 15 16  2  0
 15 10  1  0
 17 13  1  0
 19 18  1  0
 20 19  2  0
 21 19  1  0
 22 21  1  0
 23 22  1  0
 23 24  1  0
 25 24  1  6
 25 26  1  0
 26 15  1  0
 27 25  1  0
 28 27  1  0
 29 27  2  0
M  END
$$$$
