NER.pdb
     RDKit          3D

 29 28  0  0  1  0  0  0  0  0999 V2000
   17.6874  -10.2894  -17.8915 N   0  0  0  0  0  0  0  0  0  0  0  0
   16.6125  -10.5259  -16.9893 C   0  0  0  0  0  0  0  0  0  0  0  0
   15.4778  -10.8270  -17.4093 O   0  0  0  0  0  0  0  0  0  0  0  0
   16.9056  -10.3979  -15.5393 C   0  0  0  0  0  0  0  0  0  0  0  0
   18.3433   -9.9712  -15.3911 C   0  0  2  0  0  0  0  0  0  0  0  0
   19.2519  -11.0442  -15.7318 N   0  0  0  0  0  0  0  0  0  0  0  0
   18.6374   -9.5430  -14.0010 C   0  0  0  0  0  0  0  0  0  0  0  0
   18.1814  -10.1800  -13.0031 O   0  0  0  0  0  0  0  0  0  0  0  0
   19.4359   -8.4096  -13.7300 N   0  0  0  0  0  0  0  0  0  0  0  0
   19.7598   -8.0399  -12.3725 C   0  0  1  0  0  0  0  0  0  0  0  0
   20.9760   -7.1434  -12.4540 C   0  0  0  0  0  0  0  0  0  0  0  0
   20.6800   -5.8246  -13.0993 C   0  0  0  0  0  0  0  0  0  0  0  0
   21.8377   -4.9696  -13.3429 C   0  0  0  0  0  0  0  0  0  0  0  0
   22.5831   -4.5666  -12.4436 O   0  0  0  0  0  0  0  0  0  0  0  0
   18.5948   -7.3248  -11.7966 C   0  0  0  0  0  0  0  0  0  0  0  0
   17.9103   -6.5915  -12.5481 O   0  0  0  0  0  0  0  0  0  0  0  0
   22.1395   -4.5743  -14.6417 O   0  0  0  0  0  0  0  0  0  0  0  0
   11.9704  -10.0754   -7.7846 N   0  0  0  0  0  0  0  0  0  0  0  0
   11.7134   -8.6907   -7.8134 C   0  0  0  0  0  0  0  0  0  0  0  0
   10.4851   -8.2679   -7.6739 N   0  0  0  0  0  0  0  0  0  0  0  0
   12.7501   -7.7297   -7.9896 N   0  0  0  0  0  0  0  0  0  0  0  0
   14.0747   -8.2195   -8.2024 C   0  0  0  0  0  0  0  0  0  0  0  0
   15.1139   -7.1637   -8.3869 C   0  0  0  0  0  0  0  0  0  0  0  0
   16.4572   -7.6789   -8.7823 C   0  0  0  0  0  0  0  0  0  0  0  0
   17.0145   -6.8307   -9.9327 C   0  0  2  0  0  0  0  0  0  0  0  0
   18.2291   -7.4422  -10.4271 N   0  0  0  0  0  0  0  0  0  0  0  0
   17.3054   -5.4516   -9.4774 C   0  0  0  0  0  0  0  0  0  0  0  0
   16.3432   -4.4731   -9.6568 O   0  0  0  0  0  0  0  0  0  0  0  0
   18.3847   -5.1189   -8.9338 O   0  0  0  0  0  0  0  0  0  0  0  0
  1  2  1  0
  2  3  2  0
  4  5  1  0
  4  2  1  0
  5  6  1  1
  7  8  2  0
  7  5  1  0
  9  7  1  0
 10  9  1  0
 11 12  1  0
 10 11  1  6
 12 13  1  0
 13 14  2  0
 15 16  2  0
 15 10  1  0
 17 13  1  0
 19 18  1  0
 20 19  2  0
 21 19  1  0
 22 21  1  0
 23 22  1  0
 23 24  1  0
 25 24  1  1
 25 26  1  0
 26 15  1  0
 27 25  1  0
 28 27  1  0
 29 27  2  0
M  END
$$$$
