NER.pdb
     RDKit          3D

 29 28  0  0  1  0  0  0  0  0999 V2000
   24.8787  -32.6486   -7.5320 N   0  0  0  0  0  0  0  0  0  0  0  0
   24.2756  -33.8362   -7.0309 C   0  0  0  0  0  0  0  0  0  0  0  0
   24.6103  -34.9567   -7.4637 O   0  0  0  0  0  0  0  0  0  0  0  0
   23.2398  -33.6772   -5.9790 C   0  0  0  0  0  0  0  0  0  0  0  0
   23.0711  -32.2038   -5.7112 C   0  0  2  0  0  0  0  0  0  0  0  0
   24.0060  -31.7370   -4.7108 N   0  0  0  0  0  0  0  0  0  0  0  0
   21.6987  -31.8963   -5.2377 C   0  0  0  0  0  0  0  0  0  0  0  0
   20.6910  -32.0394   -5.9950 O   0  0  0  0  0  0  0  0  0  0  0  0
   21.4563  -31.4317   -3.9258 N   0  0  0  0  0  0  0  0  0  0  0  0
   20.1148  -31.1361   -3.4814 C   0  0  1  0  0  0  0  0  0  0  0  0
   19.9108  -31.9117   -2.1983 C   0  0  0  0  0  0  0  0  0  0  0  0
   18.5796  -31.6441   -1.5663 C   0  0  0  0  0  0  0  0  0  0  0  0
   18.4922  -31.9314   -0.1378 C   0  0  0  0  0  0  0  0  0  0  0  0
   17.6293  -31.4430    0.5995 O   0  0  0  0  0  0  0  0  0  0  0  0
   20.0136  -29.6737   -3.2547 C   0  0  0  0  0  0  0  0  0  0  0  0
   20.8571  -29.1230   -2.5090 O   0  0  0  0  0  0  0  0  0  0  0  0
   19.4127  -32.7937    0.4477 O   0  0  0  0  0  0  0  0  0  0  0  0
   16.8004  -24.5064   -9.0719 N   0  0  0  0  0  0  0  0  0  0  0  0
   18.1455  -24.9193   -9.1375 C   0  0  0  0  0  0  0  0  0  0  0  0
   18.7971  -24.7908  -10.2626 N   0  0  0  0  0  0  0  0  0  0  0  0
   18.8248  -25.4746   -8.0151 N   0  0  0  0  0  0  0  0  0  0  0  0
   18.0416  -25.8070   -6.8680 C   0  0  0  0  0  0  0  0  0  0  0  0
   18.7841  -26.5131   -5.7822 C   0  0  0  0  0  0  0  0  0  0  0  0
   17.9768  -26.7898   -4.5584 C   0  0  0  0  0  0  0  0  0  0  0  0
   18.8565  -27.4800   -3.5079 C   0  0  2  0  0  0  0  0  0  0  0  0
   18.9969  -28.8783   -3.8521 N   0  0  0  0  0  0  0  0  0  0  0  0
   18.2571  -27.3610   -2.1586 C   0  0  0  0  0  0  0  0  0  0  0  0
   18.7116  -26.3644   -1.3125 O   0  0  0  0  0  0  0  0  0  0  0  0
   17.3531  -28.1199   -1.7371 O   0  0  0  0  0  0  0  0  0  0  0  0
  1  2  1  0
  2  3  2  0
  4  5  1  0
  4  2  1  0
  5  6  1  1
  7  8  2  0
  7  5  1  0
  9  7  1  0
 10  9  1  0
 11 12  1  0
 10 11  1  1
 12 13  1  0
 13 14  2  0
 15 16  2  0
 15 10  1  0
 17 13  1  0
 19 18  1  0
 20 19  2  0
 21 19  1  0
 22 21  1  0
 23 22  1  0
 23 24  1  0
 25 24  1  6
 25 26  1  0
 26 15  1  0
 27 25  1  0
 28 27  1  0
 29 27  2  0
M  END
$$$$
