NER.pdb
     RDKit          3D

 29 28  0  0  1  0  0  0  0  0999 V2000
   28.5919  -18.7538  -17.0836 N   0  0  0  0  0  0  0  0  0  0  0  0
   27.1987  -18.5816  -17.3173 C   0  0  0  0  0  0  0  0  0  0  0  0
   26.7870  -17.7590  -18.1591 O   0  0  0  0  0  0  0  0  0  0  0  0
   26.2698  -19.4204  -16.5184 C   0  0  0  0  0  0  0  0  0  0  0  0
   27.0941  -20.2599  -15.5767 C   0  0  2  0  0  0  0  0  0  0  0  0
   27.8150  -21.2958  -16.2839 N   0  0  0  0  0  0  0  0  0  0  0  0
   26.2429  -20.9105  -14.5498 C   0  0  0  0  0  0  0  0  0  0  0  0
   25.7290  -22.0538  -14.7455 O   0  0  0  0  0  0  0  0  0  0  0  0
   25.9687  -20.2855  -13.3130 N   0  0  0  0  0  0  0  0  0  0  0  0
   25.2551  -20.9861  -12.2717 C   0  0  1  0  0  0  0  0  0  0  0  0
   25.7457  -20.4137  -10.9599 C   0  0  0  0  0  0  0  0  0  0  0  0
   25.0776  -21.0348   -9.7720 C   0  0  0  0  0  0  0  0  0  0  0  0
   25.5414  -20.5625   -8.4710 C   0  0  0  0  0  0  0  0  0  0  0  0
   26.3926  -19.6770   -8.3362 O   0  0  0  0  0  0  0  0  0  0  0  0
   23.8039  -20.7447  -12.4615 C   0  0  0  0  0  0  0  0  0  0  0  0
   23.4261  -19.5980  -12.7981 O   0  0  0  0  0  0  0  0  0  0  0  0
   25.0160  -21.1194   -7.3101 O   0  0  0  0  0  0  0  0  0  0  0  0
   15.7009  -23.7850  -10.0180 N   0  0  0  0  0  0  0  0  0  0  0  0
   16.4930  -24.4702  -10.9599 C   0  0  0  0  0  0  0  0  0  0  0  0
   15.9801  -25.4824  -11.6075 N   0  0  0  0  0  0  0  0  0  0  0  0
   17.8404  -24.0970  -11.2337 N   0  0  0  0  0  0  0  0  0  0  0  0
   18.3627  -22.9597  -10.5458 C   0  0  0  0  0  0  0  0  0  0  0  0
   19.2142  -22.0580  -11.3769 C   0  0  0  0  0  0  0  0  0  0  0  0
   20.6620  -22.4180  -11.3971 C   0  0  0  0  0  0  0  0  0  0  0  0
   21.4182  -21.4546  -12.3209 C   0  0  2  0  0  0  0  0  0  0  0  0
   22.8306  -21.7652  -12.2757 N   0  0  0  0  0  0  0  0  0  0  0  0
   21.2075  -20.0494  -11.9026 C   0  0  0  0  0  0  0  0  0  0  0  0
   21.8291  -19.5957  -10.7521 O   0  0  0  0  0  0  0  0  0  0  0  0
   20.4909  -19.2413  -12.5385 O   0  0  0  0  0  0  0  0  0  0  0  0
  1  2  1  0
  2  3  2  0
  4  5  1  0
  4  2  1  0
  5  6  1  6
  7  8  2  0
  7  5  1  0
  9  7  1  0
 10  9  1  0
 11 12  1  0
 10 11  1  1
 12 13  1  0
 13 14  2  0
 15 16  2  0
 15 10  1  0
 17 13  1  0
 19 18  1  0
 20 19  2  0
 21 19  1  0
 22 21  1  0
 23 22  1  0
 23 24  1  0
 25 24  1  1
 25 26  1  0
 26 15  1  0
 27 25  1  0
 28 27  1  0
 29 27  2  0
M  END
$$$$
