NER.pdb
     RDKit          3D

 29 28  0  0  1  0  0  0  0  0999 V2000
   15.7807  -10.8554  -17.0282 N   0  0  0  0  0  0  0  0  0  0  0  0
   14.7293  -10.5791  -16.1097 C   0  0  0  0  0  0  0  0  0  0  0  0
   13.5423  -10.5343  -16.4890 O   0  0  0  0  0  0  0  0  0  0  0  0
   15.1111  -10.3494  -14.6933 C   0  0  0  0  0  0  0  0  0  0  0  0
   16.6082  -10.4861  -14.5870 C   0  0  2  0  0  0  0  0  0  0  0  0
   17.0068  -11.8725  -14.4772 N   0  0  0  0  0  0  0  0  0  0  0  0
   17.1323   -9.7614  -13.4028 C   0  0  0  0  0  0  0  0  0  0  0  0
   16.7711  -10.0697  -12.2264 O   0  0  0  0  0  0  0  0  0  0  0  0
   18.0540   -8.6990  -13.5348 N   0  0  0  0  0  0  0  0  0  0  0  0
   18.6481   -8.0857  -12.3706 C   0  0  1  0  0  0  0  0  0  0  0  0
   19.8238   -7.2745  -12.8698 C   0  0  0  0  0  0  0  0  0  0  0  0
   20.5157   -6.5241  -11.7738 C   0  0  0  0  0  0  0  0  0  0  0  0
   21.7082   -5.7835  -12.1740 C   0  0  0  0  0  0  0  0  0  0  0  0
   21.7095   -4.5663  -12.3868 O   0  0  0  0  0  0  0  0  0  0  0  0
   17.6260   -7.2234  -11.7288 C   0  0  0  0  0  0  0  0  0  0  0  0
   16.8853   -6.5256  -12.4606 O   0  0  0  0  0  0  0  0  0  0  0  0
   22.9152   -6.4562  -12.3307 O   0  0  0  0  0  0  0  0  0  0  0  0
   11.2004   -8.3600   -6.4343 N   0  0  0  0  0  0  0  0  0  0  0  0
   11.7952   -8.8128   -7.6282 C   0  0  0  0  0  0  0  0  0  0  0  0
   11.3843   -9.9334   -8.1594 N   0  0  0  0  0  0  0  0  0  0  0  0
   12.8339   -8.0886   -8.2811 N   0  0  0  0  0  0  0  0  0  0  0  0
   13.3172   -6.9069   -7.6411 C   0  0  0  0  0  0  0  0  0  0  0  0
   14.4164   -6.2034   -8.3661 C   0  0  0  0  0  0  0  0  0  0  0  0
   15.4478   -7.1067   -8.9547 C   0  0  0  0  0  0  0  0  0  0  0  0
   16.4775   -6.2745   -9.7297 C   0  0  2  0  0  0  0  0  0  0  0  0
   17.4579   -7.1614  -10.3177 N   0  0  0  0  0  0  0  0  0  0  0  0
   17.1576   -5.3106   -8.8339 C   0  0  0  0  0  0  0  0  0  0  0  0
   16.4994   -4.1435   -8.4871 O   0  0  0  0  0  0  0  0  0  0  0  0
   18.3067   -5.4953   -8.3685 O   0  0  0  0  0  0  0  0  0  0  0  0
  1  2  1  0
  2  3  2  0
  4  5  1  0
  4  2  1  0
  5  6  1  1
  7  8  2  0
  7  5  1  0
  9  7  1  0
 10  9  1  0
 11 12  1  0
 10 11  1  6
 12 13  1  0
 13 14  2  0
 15 16  2  0
 15 10  1  0
 17 13  1  0
 19 18  1  0
 20 19  2  0
 21 19  1  0
 22 21  1  0
 23 22  1  0
 23 24  1  0
 25 24  1  1
 25 26  1  0
 26 15  1  0
 27 25  1  0
 28 27  1  0
 29 27  2  0
M  END
$$$$
