NER.pdb
     RDKit          3D

 29 28  0  0  1  0  0  0  0  0999 V2000
   27.3087  -21.9032   -9.8455 N   0  0  0  0  0  0  0  0  0  0  0  0
   26.4332  -20.8191   -9.5565 C   0  0  0  0  0  0  0  0  0  0  0  0
   26.3767  -20.3289   -8.4114 O   0  0  0  0  0  0  0  0  0  0  0  0
   25.5998  -20.3062  -10.6732 C   0  0  0  0  0  0  0  0  0  0  0  0
   25.8592  -21.1686  -11.8815 C   0  0  2  0  0  0  0  0  0  0  0  0
   27.2422  -21.0928  -12.2991 N   0  0  0  0  0  0  0  0  0  0  0  0
   25.0094  -20.7598  -13.0273 C   0  0  0  0  0  0  0  0  0  0  0  0
   25.4005  -19.8880  -13.8619 O   0  0  0  0  0  0  0  0  0  0  0  0
   23.7308  -21.3226  -13.2370 N   0  0  0  0  0  0  0  0  0  0  0  0
   22.9040  -20.8914  -14.3393 C   0  0  1  0  0  0  0  0  0  0  0  0
   22.7061  -22.1037  -15.2228 C   0  0  0  0  0  0  0  0  0  0  0  0
   21.8364  -21.8193  -16.4085 C   0  0  0  0  0  0  0  0  0  0  0  0
   22.3317  -20.7927  -17.3202 C   0  0  0  0  0  0  0  0  0  0  0  0
   23.5329  -20.6077  -17.5434 O   0  0  0  0  0  0  0  0  0  0  0  0
   21.6159  -20.4036  -13.7890 C   0  0  0  0  0  0  0  0  0  0  0  0
   21.0985  -21.0265  -12.8322 O   0  0  0  0  0  0  0  0  0  0  0  0
   21.4290  -19.9684  -17.9834 O   0  0  0  0  0  0  0  0  0  0  0  0
   17.3547  -14.5732  -18.1668 N   0  0  0  0  0  0  0  0  0  0  0  0
   17.1604  -14.6971  -16.7772 C   0  0  0  0  0  0  0  0  0  0  0  0
   16.4330  -13.8085  -16.1541 N   0  0  0  0  0  0  0  0  0  0  0  0
   17.7311  -15.7622  -16.0228 N   0  0  0  0  0  0  0  0  0  0  0  0
   18.5715  -16.6855  -16.7162 C   0  0  0  0  0  0  0  0  0  0  0  0
   19.0522  -17.8370  -15.8964 C   0  0  0  0  0  0  0  0  0  0  0  0
   19.2517  -17.5276  -14.4505 C   0  0  0  0  0  0  0  0  0  0  0  0
   19.7161  -18.7908  -13.7142 C   0  0  2  0  0  0  0  0  0  0  0  0
   20.9505  -19.2581  -14.3071 N   0  0  0  0  0  0  0  0  0  0  0  0
   18.6918  -19.8572  -13.8004 C   0  0  0  0  0  0  0  0  0  0  0  0
   18.8328  -20.8413  -14.7634 O   0  0  0  0  0  0  0  0  0  0  0  0
   17.6953  -19.9181  -13.0425 O   0  0  0  0  0  0  0  0  0  0  0  0
  1  2  1  0
  2  3  2  0
  4  5  1  0
  4  2  1  0
  5  6  1  6
  7  8  2  0
  7  5  1  0
  9  7  1  0
 10  9  1  0
 11 12  1  0
 10 11  1  6
 12 13  1  0
 13 14  2  0
 15 16  2  0
 15 10  1  0
 17 13  1  0
 19 18  1  0
 20 19  2  0
 21 19  1  0
 22 21  1  0
 23 22  1  0
 23 24  1  0
 25 24  1  6
 25 26  1  0
 26 15  1  0
 27 25  1  0
 28 27  1  0
 29 27  2  0
M  END
$$$$
