NER.pdb
     RDKit          3D

 29 28  0  0  1  0  0  0  0  0999 V2000
   20.7797  -12.8245  -17.5351 N   0  0  0  0  0  0  0  0  0  0  0  0
   21.6996  -12.9682  -16.4588 C   0  0  0  0  0  0  0  0  0  0  0  0
   22.4109  -13.9871  -16.3555 O   0  0  0  0  0  0  0  0  0  0  0  0
   21.7700  -11.8575  -15.4760 C   0  0  0  0  0  0  0  0  0  0  0  0
   20.7773  -10.8032  -15.8934 C   0  0  2  0  0  0  0  0  0  0  0  0
   21.1319  -10.2170  -17.1676 N   0  0  0  0  0  0  0  0  0  0  0  0
   20.6972   -9.7119  -14.8911 C   0  0  0  0  0  0  0  0  0  0  0  0
   20.3529   -9.9405  -13.6917 O   0  0  0  0  0  0  0  0  0  0  0  0
   21.0003   -8.3742  -15.2291 N   0  0  0  0  0  0  0  0  0  0  0  0
   20.8923   -7.3202  -14.2484 C   0  0  1  0  0  0  0  0  0  0  0  0
   21.4583   -6.0757  -14.8966 C   0  0  0  0  0  0  0  0  0  0  0  0
   21.3371   -4.8637  -14.0252 C   0  0  0  0  0  0  0  0  0  0  0  0
   21.8956   -3.6333  -14.5775 C   0  0  0  0  0  0  0  0  0  0  0  0
   21.7202   -2.5215  -14.0677 O   0  0  0  0  0  0  0  0  0  0  0  0
   19.4589   -7.1511  -13.9061 C   0  0  0  0  0  0  0  0  0  0  0  0
   18.6124   -7.2008  -14.8291 O   0  0  0  0  0  0  0  0  0  0  0  0
   22.6669   -3.6866  -15.7335 O   0  0  0  0  0  0  0  0  0  0  0  0
   14.5323   -7.2792   -6.4754 N   0  0  0  0  0  0  0  0  0  0  0  0
   13.6267   -7.1517   -7.5467 C   0  0  0  0  0  0  0  0  0  0  0  0
   12.3436   -7.1999   -7.3054 N   0  0  0  0  0  0  0  0  0  0  0  0
   14.0618   -6.9705   -8.8911 N   0  0  0  0  0  0  0  0  0  0  0  0
   15.4395   -7.2150   -9.1773 C   0  0  0  0  0  0  0  0  0  0  0  0
   15.8481   -6.9387  -10.5864 C   0  0  0  0  0  0  0  0  0  0  0  0
   17.3076   -7.1000  -10.8512 C   0  0  0  0  0  0  0  0  0  0  0  0
   17.6178   -6.6777  -12.2930 C   0  0  2  0  0  0  0  0  0  0  0  0
   19.0139   -6.9356  -12.5724 N   0  0  0  0  0  0  0  0  0  0  0  0
   17.3315   -5.2383  -12.4935 C   0  0  0  0  0  0  0  0  0  0  0  0
   16.0792   -4.8646  -12.9492 O   0  0  0  0  0  0  0  0  0  0  0  0
   18.1684   -4.3320  -12.2713 O   0  0  0  0  0  0  0  0  0  0  0  0
  1  2  1  0
  2  3  2  0
  4  5  1  0
  4  2  1  0
  5  6  1  6
  7  8  2  0
  7  5  1  0
  9  7  1  0
 10  9  1  0
 11 12  1  0
 10 11  1  6
 12 13  1  0
 13 14  2  0
 15 16  2  0
 15 10  1  0
 17 13  1  0
 19 18  1  0
 20 19  2  0
 21 19  1  0
 22 21  1  0
 23 22  1  0
 23 24  1  0
 25 24  1  1
 25 26  1  0
 26 15  1  0
 27 25  1  0
 28 27  1  0
 29 27  2  0
M  END
$$$$
