NER.pdb
     RDKit          3D

 29 28  0  0  1  0  0  0  0  0999 V2000
   26.8884  -13.7181  -15.8215 N   0  0  0  0  0  0  0  0  0  0  0  0
   25.5043  -13.5881  -16.1261 C   0  0  0  0  0  0  0  0  0  0  0  0
   25.0304  -12.4973  -16.5008 O   0  0  0  0  0  0  0  0  0  0  0  0
   24.6618  -14.8017  -15.9775 C   0  0  0  0  0  0  0  0  0  0  0  0
   25.5458  -15.9266  -15.5038 C   0  0  2  0  0  0  0  0  0  0  0  0
   26.8424  -15.8866  -16.1443 N   0  0  0  0  0  0  0  0  0  0  0  0
   24.9333  -17.2483  -15.7866 C   0  0  0  0  0  0  0  0  0  0  0  0
   24.1466  -17.4155  -16.7677 O   0  0  0  0  0  0  0  0  0  0  0  0
   25.1995  -18.3747  -14.9767 N   0  0  0  0  0  0  0  0  0  0  0  0
   24.6040  -19.6562  -15.2723 C   0  0  1  0  0  0  0  0  0  0  0  0
   25.6759  -20.6931  -15.0168 C   0  0  0  0  0  0  0  0  0  0  0  0
   26.7991  -20.6193  -16.0048 C   0  0  0  0  0  0  0  0  0  0  0  0
   27.8439  -21.6261  -15.8459 C   0  0  0  0  0  0  0  0  0  0  0  0
   28.8419  -21.6866  -16.5720 O   0  0  0  0  0  0  0  0  0  0  0  0
   23.4399  -19.8446  -14.3726 C   0  0  0  0  0  0  0  0  0  0  0  0
   23.1582  -18.9343  -13.5583 O   0  0  0  0  0  0  0  0  0  0  0  0
   27.7358  -22.5758  -14.8357 O   0  0  0  0  0  0  0  0  0  0  0  0
   16.2221  -17.3855  -16.1675 N   0  0  0  0  0  0  0  0  0  0  0  0
   15.8670  -18.1654  -15.0497 C   0  0  0  0  0  0  0  0  0  0  0  0
   14.6613  -18.0611  -14.5574 N   0  0  0  0  0  0  0  0  0  0  0  0
   16.7798  -19.0691  -14.4335 N   0  0  0  0  0  0  0  0  0  0  0  0
   18.1442  -19.0163  -14.8520 C   0  0  0  0  0  0  0  0  0  0  0  0
   19.0333  -20.0418  -14.2300 C   0  0  0  0  0  0  0  0  0  0  0  0
   20.4600  -19.9677  -14.6601 C   0  0  0  0  0  0  0  0  0  0  0  0
   21.2857  -20.9995  -13.8811 C   0  0  2  0  0  0  0  0  0  0  0  0
   22.6355  -21.0174  -14.4020 N   0  0  0  0  0  0  0  0  0  0  0  0
   20.6911  -22.3506  -14.0031 C   0  0  0  0  0  0  0  0  0  0  0  0
   19.8225  -22.7885  -13.0185 O   0  0  0  0  0  0  0  0  0  0  0  0
   20.9334  -23.1263  -14.9574 O   0  0  0  0  0  0  0  0  0  0  0  0
  1  2  1  0
  2  3  2  0
  4  5  1  0
  4  2  1  0
  5  6  1  6
  7  8  2  0
  7  5  1  0
  9  7  1  0
 10  9  1  0
 11 12  1  0
 10 11  1  1
 12 13  1  0
 13 14  2  0
 15 16  2  0
 15 10  1  0
 17 13  1  0
 19 18  1  0
 20 19  2  0
 21 19  1  0
 22 21  1  0
 23 22  1  0
 23 24  1  0
 25 24  1  6
 25 26  1  0
 26 15  1  0
 27 25  1  0
 28 27  1  0
 29 27  2  0
M  END
$$$$
