NER.pdb
     RDKit          3D

 29 28  0  0  1  0  0  0  0  0999 V2000
   27.5366  -23.7252  -16.7379 N   0  0  0  0  0  0  0  0  0  0  0  0
   28.0876  -22.7236  -15.8902 C   0  0  0  0  0  0  0  0  0  0  0  0
   29.3205  -22.5509  -15.8199 O   0  0  0  0  0  0  0  0  0  0  0  0
   27.1328  -21.9035  -15.1025 C   0  0  0  0  0  0  0  0  0  0  0  0
   25.7446  -22.4307  -15.3594 C   0  0  2  0  0  0  0  0  0  0  0  0
   25.4813  -22.5609  -16.7760 N   0  0  0  0  0  0  0  0  0  0  0  0
   24.7127  -21.5353  -14.7799 C   0  0  0  0  0  0  0  0  0  0  0  0
   24.5579  -21.4311  -13.5251 O   0  0  0  0  0  0  0  0  0  0  0  0
   23.8603  -20.7624  -15.5994 N   0  0  0  0  0  0  0  0  0  0  0  0
   22.7947  -19.9758  -15.0249 C   0  0  1  0  0  0  0  0  0  0  0  0
   22.5190  -18.8540  -16.0021 C   0  0  0  0  0  0  0  0  0  0  0  0
   21.3981  -17.9644  -15.5601 C   0  0  0  0  0  0  0  0  0  0  0  0
   21.1021  -16.8398  -16.4424 C   0  0  0  0  0  0  0  0  0  0  0  0
   21.9687  -16.0734  -16.8764 O   0  0  0  0  0  0  0  0  0  0  0  0
   21.6106  -20.8530  -14.8560 C   0  0  0  0  0  0  0  0  0  0  0  0
   21.4499  -21.8038  -15.6568 O   0  0  0  0  0  0  0  0  0  0  0  0
   19.7886  -16.5964  -16.8291 O   0  0  0  0  0  0  0  0  0  0  0  0
   18.5663  -25.5762   -8.7326 N   0  0  0  0  0  0  0  0  0  0  0  0
   19.0632  -26.2750   -9.8502 C   0  0  0  0  0  0  0  0  0  0  0  0
   19.4241  -27.5230   -9.7122 N   0  0  0  0  0  0  0  0  0  0  0  0
   19.1867  -25.6667  -11.1325 N   0  0  0  0  0  0  0  0  0  0  0  0
   18.7238  -24.3230  -11.2726 C   0  0  0  0  0  0  0  0  0  0  0  0
   18.9047  -23.7337  -12.6324 C   0  0  0  0  0  0  0  0  0  0  0  0
   19.9957  -22.7205  -12.7284 C   0  0  0  0  0  0  0  0  0  0  0  0
   19.5529  -21.5743  -13.6470 C   0  0  2  0  0  0  0  0  0  0  0  0
   20.6554  -20.6536  -13.8210 N   0  0  0  0  0  0  0  0  0  0  0  0
   18.3942  -20.8544  -13.0700 C   0  0  0  0  0  0  0  0  0  0  0  0
   18.4960  -19.4910  -12.8547 O   0  0  0  0  0  0  0  0  0  0  0  0
   17.3170  -21.4169  -12.7631 O   0  0  0  0  0  0  0  0  0  0  0  0
  1  2  1  0
  2  3  2  0
  4  5  1  0
  4  2  1  0
  5  6  1  6
  7  8  2  0
  7  5  1  0
  9  7  1  0
 10  9  1  0
 11 12  1  0
 10 11  1  6
 12 13  1  0
 13 14  2  0
 15 16  2  0
 15 10  1  0
 17 13  1  0
 19 18  1  0
 20 19  2  0
 21 19  1  0
 22 21  1  0
 23 22  1  0
 23 24  1  0
 25 24  1  1
 25 26  1  0
 26 15  1  0
 27 25  1  0
 28 27  1  0
 29 27  2  0
M  END
$$$$
