VMF.pdb
     RDKit          3D

 27 27  0  0  1  0  0  0  0  0999 V2000
   11.8798  -18.7848   20.3337 C   0  0  0  0  0  0  0  0  0  0  0  0
   11.0741  -18.2232   19.1814 C   0  0  1  0  0  0  0  0  0  0  0  0
   11.5033  -18.9586   17.9287 C   0  0  0  0  0  0  0  0  0  0  0  0
    9.5936  -18.4490   19.3472 C   0  0  2  0  0  0  0  0  0  0  0  0
    8.9495  -18.0517   18.1191 N   0  0  0  0  0  0  0  0  0  0  0  0
    9.0431  -17.7228   20.5274 C   0  0  0  0  0  0  0  0  0  0  0  0
    9.1048  -16.4713   20.5317 O   0  0  0  0  0  0  0  0  0  0  0  0
    5.5195  -20.4961   25.9396 C   0  0  0  0  0  0  0  0  0  0  0  0
    5.4985  -20.9337   24.1690 S   0  0  0  0  0  0  0  0  0  0  0  0
    6.8918  -20.1128   23.3534 C   0  0  0  0  0  0  0  0  0  0  0  0
    6.6927  -18.6192   23.3598 C   0  0  0  0  0  0  0  0  0  0  0  0
    7.8887  -17.8625   22.7986 C   0  0  2  0  0  0  0  0  0  0  0  0
    8.4627  -18.3984   21.6242 N   0  0  0  0  0  0  0  0  0  0  0  0
    8.7727  -17.4763   23.8854 C   0  0  0  0  0  0  0  0  0  0  0  0
    9.6877  -18.3291   24.1748 O   0  0  0  0  0  0  0  0  0  0  0  0
    8.6964  -16.2801   24.6118 N   0  0  0  0  0  0  0  0  0  0  0  0
    9.6366  -15.9718   25.6636 C   0  0  1  0  0  0  0  0  0  0  0  0
    9.5718  -14.4881   25.9025 C   0  0  0  0  0  0  0  0  0  0  0  0
    8.2109  -13.9542   26.1057 C   0  0  0  0  0  0  0  0  0  0  0  0
    7.3371  -13.6361   25.0668 C   0  0  0  0  0  0  0  0  0  0  0  0
    6.0818  -13.1435   25.3425 C   0  0  0  0  0  0  0  0  0  0  0  0
    5.6889  -12.9647   26.6483 C   0  0  0  0  0  0  0  0  0  0  0  0
    6.5388  -13.2730   27.7125 C   0  0  0  0  0  0  0  0  0  0  0  0
    7.7779  -13.7599   27.4130 C   0  0  0  0  0  0  0  0  0  0  0  0
    9.3680  -16.7051   26.9055 C   0  0  0  0  0  0  0  0  0  0  0  0
   10.3266  -16.7129   27.9076 O   0  0  0  0  0  0  0  0  0  0  0  0
    8.3149  -17.3545   27.1618 O   0  0  0  0  0  0  0  0  0  0  0  0
  2  4  1  0
  2  1  1  1
  3  2  1  0
  4  5  1  6
  6  4  1  0
  7  6  2  0
  9  8  1  0
 10  9  1  0
 10 11  1  0
 12 11  1  1
 12 13  1  0
 13  6  1  0
 14 16  1  0
 14 12  1  0
 15 14  2  0
 17 18  1  1
 17 16  1  0
 18 19  1  0
 19 24  2  0
 20 19  1  0
 20 21  2  0
 21 22  1  0
 22 23  2  0
 24 23  1  0
 25 17  1  0
 25 26  1  0
 27 25  2  0
M  END
$$$$
