VMF.pdb
     RDKit          3D

 27 27  0  0  1  0  0  0  0  0999 V2000
    7.4599  -20.6463   23.1464 C   0  0  0  0  0  0  0  0  0  0  0  0
    8.2433  -20.9970   21.8991 C   0  0  1  0  0  0  0  0  0  0  0  0
    7.6522  -22.2738   21.3380 C   0  0  0  0  0  0  0  0  0  0  0  0
    8.1279  -19.9429   20.8287 C   0  0  2  0  0  0  0  0  0  0  0  0
    8.7656  -20.4538   19.6400 N   0  0  0  0  0  0  0  0  0  0  0  0
    8.7096  -18.6392   21.2589 C   0  0  0  0  0  0  0  0  0  0  0  0
    9.9501  -18.5719   21.4226 O   0  0  0  0  0  0  0  0  0  0  0  0
    7.9113  -11.9939   19.5887 C   0  0  0  0  0  0  0  0  0  0  0  0
    7.2427  -12.3394   21.2502 S   0  0  0  0  0  0  0  0  0  0  0  0
    8.1504  -13.7366   21.9603 C   0  0  0  0  0  0  0  0  0  0  0  0
    7.5225  -15.0376   21.5317 C   0  0  0  0  0  0  0  0  0  0  0  0
    8.2722  -16.2549   22.0553 C   0  0  2  0  0  0  0  0  0  0  0  0
    7.9113  -17.4953   21.4833 N   0  0  0  0  0  0  0  0  0  0  0  0
    8.3887  -16.1688   23.5012 C   0  0  0  0  0  0  0  0  0  0  0  0
    7.4612  -16.7631   24.1605 O   0  0  0  0  0  0  0  0  0  0  0  0
    9.4077  -15.5053   24.1984 N   0  0  0  0  0  0  0  0  0  0  0  0
    9.5557  -15.6364   25.6288 C   0  0  1  0  0  0  0  0  0  0  0  0
    8.1854  -15.5058   26.2353 C   0  0  0  0  0  0  0  0  0  0  0  0
    7.5864  -14.1615   26.1241 C   0  0  0  0  0  0  0  0  0  0  0  0
    8.2920  -12.9764   26.3284 C   0  0  0  0  0  0  0  0  0  0  0  0
    7.6578  -11.7612   26.2035 C   0  0  0  0  0  0  0  0  0  0  0  0
    6.3228  -11.7170   25.8760 C   0  0  0  0  0  0  0  0  0  0  0  0
    5.5865  -12.8844   25.6647 C   0  0  0  0  0  0  0  0  0  0  0  0
    6.2379  -14.0764   25.7944 C   0  0  0  0  0  0  0  0  0  0  0  0
   10.1759  -16.9048   26.0270 C   0  0  0  0  0  0  0  0  0  0  0  0
    9.4732  -18.0870   25.8484 O   0  0  0  0  0  0  0  0  0  0  0  0
   11.3253  -17.0325   26.5358 O   0  0  0  0  0  0  0  0  0  0  0  0
  2  4  1  0
  2  1  1  1
  3  2  1  0
  4  5  1  6
  6  4  1  0
  7  6  2  0
  9  8  1  0
 10  9  1  0
 10 11  1  0
 12 11  1  1
 12 13  1  0
 13  6  1  0
 14 16  1  0
 14 12  1  0
 15 14  2  0
 17 18  1  1
 17 16  1  0
 18 19  1  0
 19 24  2  0
 20 19  1  0
 20 21  2  0
 21 22  1  0
 22 23  2  0
 24 23  1  0
 25 17  1  0
 25 26  1  0
 27 25  2  0
M  END
$$$$
