VMF.pdb
     RDKit          3D

 27 27  0  0  1  0  0  0  0  0999 V2000
   10.4235  -18.2569   18.8960 C   0  0  0  0  0  0  0  0  0  0  0  0
    9.5421  -17.0922   19.2948 C   0  0  1  0  0  0  0  0  0  0  0  0
    8.7658  -16.6706   18.0644 C   0  0  0  0  0  0  0  0  0  0  0  0
    8.5358  -17.4646   20.3525 C   0  0  2  0  0  0  0  0  0  0  0  0
    7.7999  -18.6091   19.8735 N   0  0  0  0  0  0  0  0  0  0  0  0
    7.6366  -16.3266   20.6982 C   0  0  0  0  0  0  0  0  0  0  0  0
    7.5434  -15.3795   19.8831 O   0  0  0  0  0  0  0  0  0  0  0  0
    6.2422  -21.4899   22.2199 C   0  0  0  0  0  0  0  0  0  0  0  0
    7.0483  -21.1337   23.8169 S   0  0  0  0  0  0  0  0  0  0  0  0
    6.9324  -19.3553   24.1397 C   0  0  0  0  0  0  0  0  0  0  0  0
    7.0635  -18.5827   22.8527 C   0  0  0  0  0  0  0  0  0  0  0  0
    7.0499  -17.0753   23.0659 C   0  0  2  0  0  0  0  0  0  0  0  0
    6.8982  -16.2886   21.9022 N   0  0  0  0  0  0  0  0  0  0  0  0
    8.0864  -16.7097   24.0165 C   0  0  0  0  0  0  0  0  0  0  0  0
    9.2901  -16.8992   23.6123 O   0  0  0  0  0  0  0  0  0  0  0  0
    7.8685  -16.1838   25.2973 N   0  0  0  0  0  0  0  0  0  0  0  0
    8.9616  -15.9177   26.2025 C   0  0  1  0  0  0  0  0  0  0  0  0
    8.5655  -14.7400   27.0503 C   0  0  0  0  0  0  0  0  0  0  0  0
    7.9677  -13.6155   26.3043 C   0  0  0  0  0  0  0  0  0  0  0  0
    8.6072  -12.9466   25.2614 C   0  0  0  0  0  0  0  0  0  0  0  0
    7.9781  -11.9068   24.6152 C   0  0  0  0  0  0  0  0  0  0  0  0
    6.7139  -11.5268   25.0007 C   0  0  0  0  0  0  0  0  0  0  0  0
    6.0449  -12.1749   26.0410 C   0  0  0  0  0  0  0  0  0  0  0  0
    6.6897  -13.2026   26.6656 C   0  0  0  0  0  0  0  0  0  0  0  0
    9.2998  -17.0688   27.0468 C   0  0  0  0  0  0  0  0  0  0  0  0
   10.4079  -16.9963   27.8775 O   0  0  0  0  0  0  0  0  0  0  0  0
    8.6617  -18.1583   27.0931 O   0  0  0  0  0  0  0  0  0  0  0  0
  2  4  1  0
  2  1  1  6
  3  2  1  0
  4  5  1  6
  6  4  1  0
  7  6  2  0
  9  8  1  0
 10  9  1  0
 10 11  1  0
 12 11  1  6
 12 13  1  0
 13  6  1  0
 14 16  1  0
 14 12  1  0
 15 14  2  0
 17 18  1  1
 17 16  1  0
 18 19  1  0
 19 24  2  0
 20 19  1  0
 20 21  2  0
 21 22  1  0
 22 23  2  0
 24 23  1  0
 25 17  1  0
 25 26  1  0
 27 25  2  0
M  END
$$$$
