VMF.pdb
     RDKit          3D

 27 27  0  0  1  0  0  0  0  0999 V2000
   -4.0058  -29.2713   26.2318 C   0  0  0  0  0  0  0  0  0  0  0  0
   -4.2203  -28.6789   24.8550 C   0  0  1  0  0  0  0  0  0  0  0  0
   -4.0185  -29.7918   23.8475 C   0  0  0  0  0  0  0  0  0  0  0  0
   -5.6187  -28.1515   24.6643 C   0  0  2  0  0  0  0  0  0  0  0  0
   -5.7190  -27.6538   23.3140 N   0  0  0  0  0  0  0  0  0  0  0  0
   -5.9685  -27.1093   25.6716 C   0  0  0  0  0  0  0  0  0  0  0  0
   -5.5935  -25.9330   25.4582 O   0  0  0  0  0  0  0  0  0  0  0  0
  -12.1636  -24.7170   26.8441 C   0  0  0  0  0  0  0  0  0  0  0  0
  -11.1740  -25.8081   27.9198 S   0  0  0  0  0  0  0  0  0  0  0  0
   -9.4257  -25.6162   27.4873 C   0  0  0  0  0  0  0  0  0  0  0  0
   -8.5879  -26.6075   28.2528 C   0  0  0  0  0  0  0  0  0  0  0  0
   -7.1129  -26.5444   27.8810 C   0  0  2  0  0  0  0  0  0  0  0  0
   -6.7005  -27.4087   26.8424 N   0  0  0  0  0  0  0  0  0  0  0  0
   -6.3093  -26.4850   29.0903 C   0  0  0  0  0  0  0  0  0  0  0  0
   -6.0675  -27.6188   29.6420 O   0  0  0  0  0  0  0  0  0  0  0  0
   -5.7993  -25.3168   29.6731 N   0  0  0  0  0  0  0  0  0  0  0  0
   -5.0029  -25.3567   30.8770 C   0  0  1  0  0  0  0  0  0  0  0  0
   -3.6956  -24.6777   30.5728 C   0  0  0  0  0  0  0  0  0  0  0  0
   -3.8164  -23.2731   30.1360 C   0  0  0  0  0  0  0  0  0  0  0  0
   -3.7833  -22.1830   31.0048 C   0  0  0  0  0  0  0  0  0  0  0  0
   -3.9014  -20.9019   30.5151 C   0  0  0  0  0  0  0  0  0  0  0  0
   -4.0527  -20.6977   29.1636 C   0  0  0  0  0  0  0  0  0  0  0  0
   -4.0900  -21.7666   28.2659 C   0  0  0  0  0  0  0  0  0  0  0  0
   -3.9707  -23.0266   28.7760 C   0  0  0  0  0  0  0  0  0  0  0  0
   -5.6612  -24.7165   32.0211 C   0  0  0  0  0  0  0  0  0  0  0  0
   -5.0467  -24.7549   33.2638 O   0  0  0  0  0  0  0  0  0  0  0  0
   -6.7715  -24.1144   31.9871 O   0  0  0  0  0  0  0  0  0  0  0  0
  2  4  1  0
  2  1  1  1
  3  2  1  0
  4  5  1  6
  6  4  1  0
  7  6  2  0
  9  8  1  0
 10  9  1  0
 10 11  1  0
 12 11  1  1
 12 13  1  0
 13  6  1  0
 14 16  1  0
 14 12  1  0
 15 14  2  0
 17 18  1  6
 17 16  1  0
 18 19  1  0
 19 24  2  0
 20 19  1  0
 20 21  2  0
 21 22  1  0
 22 23  2  0
 24 23  1  0
 25 17  1  0
 25 26  1  0
 27 25  2  0
M  END
$$$$
