VMF.pdb
     RDKit          3D

 27 27  0  0  1  0  0  0  0  0999 V2000
    8.0091  -18.9768   20.4284 C   0  0  0  0  0  0  0  0  0  0  0  0
    9.0032  -18.3638   19.4648 C   0  0  1  0  0  0  0  0  0  0  0  0
    8.6179  -18.8136   18.0707 C   0  0  0  0  0  0  0  0  0  0  0  0
    8.9645  -16.8576   19.4752 C   0  0  2  0  0  0  0  0  0  0  0  0
    9.8369  -16.3897   18.4259 N   0  0  0  0  0  0  0  0  0  0  0  0
    9.3375  -16.2950   20.8047 C   0  0  0  0  0  0  0  0  0  0  0  0
   10.5491  -16.2888   21.1239 O   0  0  0  0  0  0  0  0  0  0  0  0
    6.8005  -12.0278   27.0372 C   0  0  0  0  0  0  0  0  0  0  0  0
    6.3035  -12.8643   25.4944 S   0  0  0  0  0  0  0  0  0  0  0  0
    7.6588  -13.9383   24.9560 C   0  0  0  0  0  0  0  0  0  0  0  0
    7.3896  -14.4609   23.5685 C   0  0  0  0  0  0  0  0  0  0  0  0
    8.5580  -15.2544   23.0001 C   0  0  2  0  0  0  0  0  0  0  0  0
    8.3754  -15.7768   21.7003 N   0  0  0  0  0  0  0  0  0  0  0  0
    9.0958  -16.1303   24.0274 C   0  0  0  0  0  0  0  0  0  0  0  0
    8.3857  -17.1678   24.2875 O   0  0  0  0  0  0  0  0  0  0  0  0
   10.2930  -15.9263   24.7271 N   0  0  0  0  0  0  0  0  0  0  0  0
   10.8670  -16.9556   25.5615 C   0  0  1  0  0  0  0  0  0  0  0  0
   11.9017  -16.3001   26.4346 C   0  0  0  0  0  0  0  0  0  0  0  0
   11.3604  -15.3534   27.4291 C   0  0  0  0  0  0  0  0  0  0  0  0
   11.0062  -14.0368   27.1370 C   0  0  0  0  0  0  0  0  0  0  0  0
   10.5061  -13.2178   28.1239 C   0  0  0  0  0  0  0  0  0  0  0  0
   10.3559  -13.7011   29.4027 C   0  0  0  0  0  0  0  0  0  0  0  0
   10.7008  -15.0141   29.7295 C   0  0  0  0  0  0  0  0  0  0  0  0
   11.1941  -15.8060   28.7336 C   0  0  0  0  0  0  0  0  0  0  0  0
    9.8690  -17.6521   26.3808 C   0  0  0  0  0  0  0  0  0  0  0  0
   10.2410  -18.7932   27.0756 O   0  0  0  0  0  0  0  0  0  0  0  0
    8.6619  -17.3056   26.5200 O   0  0  0  0  0  0  0  0  0  0  0  0
  2  4  1  0
  2  1  1  1
  3  2  1  0
  4  5  1  6
  6  4  1  0
  7  6  2  0
  9  8  1  0
 10  9  1  0
 10 11  1  0
 12 11  1  1
 12 13  1  0
 13  6  1  0
 14 16  1  0
 14 12  1  0
 15 14  2  0
 17 18  1  1
 17 16  1  0
 18 19  1  0
 19 24  2  0
 20 19  1  0
 20 21  2  0
 21 22  1  0
 22 23  2  0
 24 23  1  0
 25 17  1  0
 25 26  1  0
 27 25  2  0
M  END
$$$$
