VMF.pdb
     RDKit          3D

 27 27  0  0  1  0  0  0  0  0999 V2000
    6.1141  -19.2599   24.2219 C   0  0  0  0  0  0  0  0  0  0  0  0
    6.6979  -19.9617   23.0139 C   0  0  1  0  0  0  0  0  0  0  0  0
    5.8097  -21.1499   22.7083 C   0  0  0  0  0  0  0  0  0  0  0  0
    6.7113  -19.0864   21.7876 C   0  0  2  0  0  0  0  0  0  0  0  0
    7.0354  -19.9215   20.6569 N   0  0  0  0  0  0  0  0  0  0  0  0
    7.6554  -17.9407   21.9253 C   0  0  0  0  0  0  0  0  0  0  0  0
    8.8732  -18.1514   21.7187 O   0  0  0  0  0  0  0  0  0  0  0  0
    8.3024  -11.5839   20.7436 C   0  0  0  0  0  0  0  0  0  0  0  0
    7.0464  -12.5792   19.8725 S   0  0  0  0  0  0  0  0  0  0  0  0
    7.0100  -14.2351   20.6053 C   0  0  0  0  0  0  0  0  0  0  0  0
    7.4230  -14.1732   22.0531 C   0  0  0  0  0  0  0  0  0  0  0  0
    7.9876  -15.4923   22.5622 C   0  0  2  0  0  0  0  0  0  0  0  0
    7.2198  -16.6435   22.2772 N   0  0  0  0  0  0  0  0  0  0  0  0
    8.4919  -15.3155   23.9135 C   0  0  0  0  0  0  0  0  0  0  0  0
    8.4746  -14.1082   24.3497 O   0  0  0  0  0  0  0  0  0  0  0  0
    8.9777  -16.3365   24.7419 N   0  0  0  0  0  0  0  0  0  0  0  0
    9.2776  -16.1028   26.1350 C   0  0  1  0  0  0  0  0  0  0  0  0
    7.9862  -15.7439   26.8177 C   0  0  0  0  0  0  0  0  0  0  0  0
    7.5921  -14.3275   26.6881 C   0  0  0  0  0  0  0  0  0  0  0  0
    6.3213  -13.9064   26.2984 C   0  0  0  0  0  0  0  0  0  0  0  0
    6.0344  -12.5635   26.2036 C   0  0  0  0  0  0  0  0  0  0  0  0
    7.0057  -11.6344   26.4946 C   0  0  0  0  0  0  0  0  0  0  0  0
    8.2884  -12.0216   26.8876 C   0  0  0  0  0  0  0  0  0  0  0  0
    8.5479  -13.3585   26.9741 C   0  0  0  0  0  0  0  0  0  0  0  0
    9.9013  -17.2586   26.7887 C   0  0  0  0  0  0  0  0  0  0  0  0
   10.0958  -18.4236   26.0620 O   0  0  0  0  0  0  0  0  0  0  0  0
   10.2908  -17.3011   27.9899 O   0  0  0  0  0  0  0  0  0  0  0  0
  2  4  1  0
  2  1  1  1
  3  2  1  0
  4  5  1  6
  6  4  1  0
  7  6  2  0
  9  8  1  0
 10  9  1  0
 10 11  1  0
 12 11  1  1
 12 13  1  0
 13  6  1  0
 14 16  1  0
 14 12  1  0
 15 14  2  0
 17 18  1  1
 17 16  1  0
 18 19  1  0
 19 24  2  0
 20 19  1  0
 20 21  2  0
 21 22  1  0
 22 23  2  0
 24 23  1  0
 25 17  1  0
 25 26  1  0
 27 25  2  0
M  END
$$$$
