VMF.pdb
     RDKit          3D

 27 27  0  0  1  0  0  0  0  0999 V2000
    8.4038  -19.1417   20.5423 C   0  0  0  0  0  0  0  0  0  0  0  0
    9.1891  -18.2549   19.5992 C   0  0  1  0  0  0  0  0  0  0  0  0
    8.7880  -18.6291   18.1874 C   0  0  0  0  0  0  0  0  0  0  0  0
    8.8716  -16.7933   19.7815 C   0  0  2  0  0  0  0  0  0  0  0  0
    9.5517  -16.0639   18.7393 N   0  0  0  0  0  0  0  0  0  0  0  0
    9.2420  -16.3029   21.1400 C   0  0  0  0  0  0  0  0  0  0  0  0
   10.4494  -16.3425   21.4728 O   0  0  0  0  0  0  0  0  0  0  0  0
    5.4408  -12.3792   24.8609 C   0  0  0  0  0  0  0  0  0  0  0  0
    6.9357  -12.7287   25.8458 S   0  0  0  0  0  0  0  0  0  0  0  0
    7.4719  -14.4243   25.5023 C   0  0  0  0  0  0  0  0  0  0  0  0
    7.2374  -14.7610   24.0524 C   0  0  0  0  0  0  0  0  0  0  0  0
    8.4518  -15.3979   23.3910 C   0  0  2  0  0  0  0  0  0  0  0  0
    8.2822  -15.8026   22.0481 N   0  0  0  0  0  0  0  0  0  0  0  0
    9.0795  -16.3247   24.3177 C   0  0  0  0  0  0  0  0  0  0  0  0
    8.5943  -17.5133   24.3145 O   0  0  0  0  0  0  0  0  0  0  0  0
   10.1394  -16.0196   25.1825 N   0  0  0  0  0  0  0  0  0  0  0  0
   10.8997  -17.0545   25.8428 C   0  0  1  0  0  0  0  0  0  0  0  0
   11.9053  -16.3748   26.7313 C   0  0  0  0  0  0  0  0  0  0  0  0
   11.3212  -15.5510   27.8076 C   0  0  0  0  0  0  0  0  0  0  0  0
   11.2184  -15.9650   29.1350 C   0  0  0  0  0  0  0  0  0  0  0  0
   10.6607  -15.1336   30.0797 C   0  0  0  0  0  0  0  0  0  0  0  0
   10.2034  -13.8899   29.7116 C   0  0  0  0  0  0  0  0  0  0  0  0
   10.2909  -13.4440   28.3912 C   0  0  0  0  0  0  0  0  0  0  0  0
   10.8478  -14.2866   27.4737 C   0  0  0  0  0  0  0  0  0  0  0  0
   10.0618  -17.9723   26.6224 C   0  0  0  0  0  0  0  0  0  0  0  0
    8.6935  -17.7546   26.6814 O   0  0  0  0  0  0  0  0  0  0  0  0
   10.4765  -18.9752   27.2696 O   0  0  0  0  0  0  0  0  0  0  0  0
  2  4  1  0
  2  1  1  1
  3  2  1  0
  4  5  1  6
  6  4  1  0
  7  6  2  0
  9  8  1  0
 10  9  1  0
 10 11  1  0
 12 11  1  1
 12 13  1  0
 13  6  1  0
 14 16  1  0
 14 12  1  0
 15 14  2  0
 17 18  1  1
 17 16  1  0
 18 19  1  0
 19 24  2  0
 20 19  1  0
 20 21  2  0
 21 22  1  0
 22 23  2  0
 24 23  1  0
 25 17  1  0
 25 26  1  0
 27 25  2  0
M  END
$$$$
