YAK.pdb
     RDKit          3D

 27 27  0  0  1  0  0  0  0  0999 V2000
   20.7911  -22.1408   -7.4411 O   0  0  0  0  0  0  0  0  0  0  0  0
   21.9610  -21.7121   -8.0327 C   0  0  0  0  0  0  0  0  0  0  0  0
   21.8958  -21.1546   -9.2964 C   0  0  0  0  0  0  0  0  0  0  0  0
   23.0661  -20.7153   -9.9116 C   0  0  0  0  0  0  0  0  0  0  0  0
   24.2881  -20.8253   -9.2857 C   0  0  0  0  0  0  0  0  0  0  0  0
   25.5257  -20.3552   -9.9487 C   0  0  0  0  0  0  0  0  0  0  0  0
   25.3564  -20.5367  -11.4369 C   0  0  2  0  0  0  0  0  0  0  0  0
   25.2949  -21.9593  -11.6971 N   0  0  0  0  0  0  0  0  0  0  0  0
   26.4292  -19.9424  -12.2313 C   0  0  0  0  0  0  0  0  0  0  0  0
   27.4833  -19.5587  -11.6724 O   0  0  0  0  0  0  0  0  0  0  0  0
   24.3235  -21.3819   -8.0334 C   0  0  0  0  0  0  0  0  0  0  0  0
   23.1628  -21.8294   -7.3969 C   0  0  0  0  0  0  0  0  0  0  0  0
   28.6708  -20.4755  -14.1482 C   0  0  0  0  0  0  0  0  0  0  0  0
   27.5315  -19.5273  -14.4431 C   0  0  2  0  0  0  0  0  0  0  0  0
   26.3722  -19.7572  -13.6407 N   0  0  0  0  0  0  0  0  0  0  0  0
   27.2136  -19.5728  -15.9029 C   0  0  0  0  0  0  0  0  0  0  0  0
   28.1311  -19.3440  -16.7232 O   0  0  0  0  0  0  0  0  0  0  0  0
   25.9143  -19.8652  -16.3850 N   0  0  0  0  0  0  0  0  0  0  0  0
   25.4561  -19.5533  -17.7328 C   0  0  1  0  0  0  0  0  0  0  0  0
   25.5815  -20.7242  -18.6446 C   0  0  0  0  0  0  0  0  0  0  0  0
   25.2079  -20.5124  -20.0602 C   0  0  0  0  0  0  0  0  0  0  0  0
   25.2154  -21.6753  -20.9716 C   0  0  0  0  0  0  0  0  0  0  0  0
   26.0659  -21.5315  -22.2044 C   0  0  0  0  0  0  0  0  0  0  0  0
   25.5337  -20.4402  -23.0505 N   0  0  0  0  0  0  0  0  0  0  0  0
   24.1663  -18.8579  -17.7351 C   0  0  0  0  0  0  0  0  0  0  0  0
   23.1206  -19.4901  -17.9984 O   0  0  0  0  0  0  0  0  0  0  0  0
   24.0482  -17.4976  -17.4520 O   0  0  0  0  0  0  0  0  0  0  0  0
  2  1  1  0
  3  2  2  0
  4  3  1  0
  5  4  2  0
  5 11  1  0
  6  5  1  0
  7  9  1  0
  7  8  1  1
  7  6  1  0
  9 15  1  0
 10  9  2  0
 11 12  2  0
 12  2  1  0
 14 13  1  6
 15 14  1  0
 16 18  1  0
 16 14  1  0
 17 16  2  0
 19 18  1  0
 19 25  1  0
 19 20  1  6
 21 20  1  0
 22 23  1  0
 22 21  1  0
 24 23  1  0
 25 27  1  0
 26 25  2  0
M  END
$$$$
