YAK.pdb
     RDKit          3D

 27 27  0  0  1  0  0  0  0  0999 V2000
   29.3901  -15.4418  -17.4606 O   0  0  0  0  0  0  0  0  0  0  0  0
   28.5969  -16.4017  -16.8674 C   0  0  0  0  0  0  0  0  0  0  0  0
   28.1926  -17.4848  -17.6260 C   0  0  0  0  0  0  0  0  0  0  0  0
   27.3910  -18.4654  -17.0457 C   0  0  0  0  0  0  0  0  0  0  0  0
   26.9926  -18.3778  -15.7301 C   0  0  0  0  0  0  0  0  0  0  0  0
   26.1406  -19.4257  -15.1235 C   0  0  0  0  0  0  0  0  0  0  0  0
   27.0208  -20.3111  -14.2761 C   0  0  2  0  0  0  0  0  0  0  0  0
   27.7570  -21.1773  -15.1722 N   0  0  0  0  0  0  0  0  0  0  0  0
   26.2866  -21.1229  -13.3082 C   0  0  0  0  0  0  0  0  0  0  0  0
   25.6401  -22.1249  -13.6937 O   0  0  0  0  0  0  0  0  0  0  0  0
   27.4079  -17.2934  -15.0014 C   0  0  0  0  0  0  0  0  0  0  0  0
   28.2121  -16.2977  -15.5623 C   0  0  0  0  0  0  0  0  0  0  0  0
   25.2750  -20.7461   -9.6516 C   0  0  0  0  0  0  0  0  0  0  0  0
   25.1169  -21.1733  -11.0926 C   0  0  2  0  0  0  0  0  0  0  0  0
   26.2446  -20.8582  -11.9110 N   0  0  0  0  0  0  0  0  0  0  0  0
   23.8528  -20.5975  -11.6447 C   0  0  0  0  0  0  0  0  0  0  0  0
   23.8894  -19.4581  -12.1620 O   0  0  0  0  0  0  0  0  0  0  0  0
   22.6216  -21.2963  -11.6016 N   0  0  0  0  0  0  0  0  0  0  0  0
   21.4148  -20.8643  -12.2950 C   0  0  1  0  0  0  0  0  0  0  0  0
   21.5206  -21.0650  -13.7670 C   0  0  0  0  0  0  0  0  0  0  0  0
   21.5178  -22.4619  -14.2533 C   0  0  0  0  0  0  0  0  0  0  0  0
   21.5939  -22.7004  -15.7095 C   0  0  0  0  0  0  0  0  0  0  0  0
   21.6619  -24.1432  -16.1308 C   0  0  0  0  0  0  0  0  0  0  0  0
   21.6187  -24.2321  -17.6075 N   0  0  0  0  0  0  0  0  0  0  0  0
   20.1955  -21.3626  -11.6531 C   0  0  0  0  0  0  0  0  0  0  0  0
   20.2795  -22.1771  -10.7086 O   0  0  0  0  0  0  0  0  0  0  0  0
   18.9210  -20.9634  -12.0541 O   0  0  0  0  0  0  0  0  0  0  0  0
  2  1  1  0
  3  2  2  0
  4  3  1  0
  5  4  2  0
  5 11  1  0
  6  5  1  0
  7  9  1  0
  7  8  1  6
  7  6  1  0
  9 15  1  0
 10  9  2  0
 11 12  2  0
 12  2  1  0
 14 13  1  1
 15 14  1  0
 16 18  1  0
 16 14  1  0
 17 16  2  0
 19 18  1  0
 19 25  1  0
 19 20  1  6
 21 20  1  0
 22 23  1  0
 22 21  1  0
 24 23  1  0
 25 27  1  0
 26 25  2  0
M  END
$$$$
