YAK.pdb
     RDKit          3D

 27 27  0  0  1  0  0  0  0  0999 V2000
   22.9785  -12.0797  -25.1622 O   0  0  0  0  0  0  0  0  0  0  0  0
   22.8855  -11.5422  -23.8954 C   0  0  0  0  0  0  0  0  0  0  0  0
   23.1216  -10.1893  -23.7336 C   0  0  0  0  0  0  0  0  0  0  0  0
   23.0327   -9.6266  -22.4623 C   0  0  0  0  0  0  0  0  0  0  0  0
   22.7141  -10.3914  -21.3620 C   0  0  0  0  0  0  0  0  0  0  0  0
   22.6223   -9.7831  -20.0153 C   0  0  0  0  0  0  0  0  0  0  0  0
   24.0251   -9.5386  -19.5164 C   0  0  2  0  0  0  0  0  0  0  0  0
   24.6412  -10.8307  -19.3016 N   0  0  0  0  0  0  0  0  0  0  0  0
   24.0866   -8.7588  -18.2822 C   0  0  0  0  0  0  0  0  0  0  0  0
   23.7919   -9.2941  -17.1880 O   0  0  0  0  0  0  0  0  0  0  0  0
   22.4851  -11.7297  -21.5513 C   0  0  0  0  0  0  0  0  0  0  0  0
   22.5685  -12.3159  -22.8170 C   0  0  0  0  0  0  0  0  0  0  0  0
   25.2535   -5.3318  -17.1216 C   0  0  0  0  0  0  0  0  0  0  0  0
   24.5354   -6.6556  -16.9959 C   0  0  2  0  0  0  0  0  0  0  0  0
   24.4683   -7.3897  -18.2196 N   0  0  0  0  0  0  0  0  0  0  0  0
   23.1792   -6.4304  -16.4092 C   0  0  0  0  0  0  0  0  0  0  0  0
   22.2067   -6.2899  -17.1849 O   0  0  0  0  0  0  0  0  0  0  0  0
   22.9605   -6.3711  -15.0110 N   0  0  0  0  0  0  0  0  0  0  0  0
   21.6649   -6.1045  -14.3996 C   0  0  1  0  0  0  0  0  0  0  0  0
   21.1782   -7.2665  -13.6053 C   0  0  0  0  0  0  0  0  0  0  0  0
   19.8404   -7.1407  -12.9870 C   0  0  0  0  0  0  0  0  0  0  0  0
   19.2949   -8.2980  -12.2479 C   0  0  0  0  0  0  0  0  0  0  0  0
   17.8416   -8.2034  -11.8698 C   0  0  0  0  0  0  0  0  0  0  0  0
   17.4281   -9.4418  -11.1728 N   0  0  0  0  0  0  0  0  0  0  0  0
   21.6192   -4.7967  -13.7403 C   0  0  0  0  0  0  0  0  0  0  0  0
   20.8063   -3.9318  -14.1323 O   0  0  0  0  0  0  0  0  0  0  0  0
   22.4563   -4.4650  -12.6755 O   0  0  0  0  0  0  0  0  0  0  0  0
  2  1  1  0
  3  2  2  0
  4  3  1  0
  5  4  2  0
  5 11  1  0
  6  5  1  0
  7  9  1  0
  7  8  1  1
  7  6  1  0
  9 15  1  0
 10  9  2  0
 11 12  2  0
 12  2  1  0
 14 13  1  6
 15 14  1  0
 16 18  1  0
 16 14  1  0
 17 16  2  0
 19 18  1  0
 19 25  1  0
 19 20  1  1
 21 20  1  0
 22 23  1  0
 22 21  1  0
 24 23  1  0
 25 27  1  0
 26 25  2  0
M  END
$$$$
