YAK.pdb
     RDKit          3D

 27 27  0  0  1  0  0  0  0  0999 V2000
   23.6838  -11.3034  -14.8707 O   0  0  0  0  0  0  0  0  0  0  0  0
   22.6356  -10.4335  -14.6544 C   0  0  0  0  0  0  0  0  0  0  0  0
   22.7306   -9.5325  -13.6097 C   0  0  0  0  0  0  0  0  0  0  0  0
   21.6827   -8.6451  -13.3742 C   0  0  0  0  0  0  0  0  0  0  0  0
   20.5527   -8.6471  -14.1618 C   0  0  0  0  0  0  0  0  0  0  0  0
   19.4450   -7.6996  -13.9025 C   0  0  0  0  0  0  0  0  0  0  0  0
   18.6369   -8.2310  -12.7444 C   0  0  2  0  0  0  0  0  0  0  0  0
   17.9715   -9.4349  -13.1950 N   0  0  0  0  0  0  0  0  0  0  0  0
   17.6442   -7.2882  -12.2337 C   0  0  0  0  0  0  0  0  0  0  0  0
   16.6316   -7.0127  -12.9188 O   0  0  0  0  0  0  0  0  0  0  0  0
   20.4852   -9.5508  -15.1903 C   0  0  0  0  0  0  0  0  0  0  0  0
   21.5238  -10.4503  -15.4454 C   0  0  0  0  0  0  0  0  0  0  0  0
   16.8682   -5.4506   -8.9985 C   0  0  0  0  0  0  0  0  0  0  0  0
   16.7165   -5.7718  -10.4675 C   0  0  2  0  0  0  0  0  0  0  0  0
   17.7375   -6.6330  -10.9743 N   0  0  0  0  0  0  0  0  0  0  0  0
   16.6269   -4.4994  -11.2466 C   0  0  0  0  0  0  0  0  0  0  0  0
   17.6882   -3.9385  -11.6018 O   0  0  0  0  0  0  0  0  0  0  0  0
   15.3861   -3.9112  -11.5940 N   0  0  0  0  0  0  0  0  0  0  0  0
   15.2533   -2.7126  -12.4122 C   0  0  1  0  0  0  0  0  0  0  0  0
   13.9388   -2.6623  -13.1106 C   0  0  0  0  0  0  0  0  0  0  0  0
   13.6134   -3.7940  -14.0058 C   0  0  0  0  0  0  0  0  0  0  0  0
   12.3248   -4.4921  -13.8178 C   0  0  0  0  0  0  0  0  0  0  0  0
   12.0548   -5.6282  -14.7666 C   0  0  0  0  0  0  0  0  0  0  0  0
   10.7779   -6.2838  -14.4059 N   0  0  0  0  0  0  0  0  0  0  0  0
   15.6594   -1.5013  -11.6948 C   0  0  0  0  0  0  0  0  0  0  0  0
   15.3624   -1.3653  -10.4882 O   0  0  0  0  0  0  0  0  0  0  0  0
   16.3753   -0.4728  -12.3065 O   0  0  0  0  0  0  0  0  0  0  0  0
  2  1  1  0
  3  2  2  0
  4  3  1  0
  5  4  2  0
  5 11  1  0
  6  5  1  0
  7  9  1  0
  7  8  1  6
  7  6  1  0
  9 15  1  0
 10  9  2  0
 11 12  2  0
 12  2  1  0
 14 13  1  1
 15 14  1  0
 16 18  1  0
 16 14  1  0
 17 16  2  0
 19 18  1  0
 19 25  1  0
 19 20  1  1
 21 20  1  0
 22 23  1  0
 22 21  1  0
 24 23  1  0
 25 27  1  0
 26 25  2  0
M  END
$$$$
