YAK.pdb
     RDKit          3D

 27 27  0  0  1  0  0  0  0  0999 V2000
   26.4710  -12.7039  -16.6963 O   0  0  0  0  0  0  0  0  0  0  0  0
   26.2183  -13.9769  -16.2296 C   0  0  0  0  0  0  0  0  0  0  0  0
   25.5948  -14.8776  -17.0735 C   0  0  0  0  0  0  0  0  0  0  0  0
   25.3305  -16.1686  -16.6215 C   0  0  0  0  0  0  0  0  0  0  0  0
   25.6780  -16.5664  -15.3494 C   0  0  0  0  0  0  0  0  0  0  0  0
   25.3924  -17.9410  -14.8792 C   0  0  0  0  0  0  0  0  0  0  0  0
   26.6979  -18.5740  -14.4651 C   0  0  2  0  0  0  0  0  0  0  0  0
   27.5110  -18.7109  -15.6548 N   0  0  0  0  0  0  0  0  0  0  0  0
   26.5461  -19.8794  -13.8263 C   0  0  0  0  0  0  0  0  0  0  0  0
   26.5020  -20.9178  -14.5265 O   0  0  0  0  0  0  0  0  0  0  0  0
   26.2949  -15.6532  -14.5341 C   0  0  0  0  0  0  0  0  0  0  0  0
   26.5700  -14.3530  -14.9659 C   0  0  0  0  0  0  0  0  0  0  0  0
   26.5507  -21.3823  -10.3391 C   0  0  0  0  0  0  0  0  0  0  0  0
   26.2722  -21.3614  -11.8244 C   0  0  2  0  0  0  0  0  0  0  0  0
   26.4403  -20.0744  -12.4210 N   0  0  0  0  0  0  0  0  0  0  0  0
   24.9090  -21.9180  -12.0811 C   0  0  0  0  0  0  0  0  0  0  0  0
   24.6487  -23.0746  -11.6791 O   0  0  0  0  0  0  0  0  0  0  0  0
   23.9077  -21.1824  -12.7612 N   0  0  0  0  0  0  0  0  0  0  0  0
   22.5659  -21.6853  -13.0265 C   0  0  1  0  0  0  0  0  0  0  0  0
   21.6004  -21.2693  -11.9715 C   0  0  0  0  0  0  0  0  0  0  0  0
   20.1850  -21.6485  -12.1732 C   0  0  0  0  0  0  0  0  0  0  0  0
   19.5731  -22.6101  -11.2329 C   0  0  0  0  0  0  0  0  0  0  0  0
   18.1369  -22.9651  -11.5068 C   0  0  0  0  0  0  0  0  0  0  0  0
   17.6844  -23.9879  -10.5374 N   0  0  0  0  0  0  0  0  0  0  0  0
   22.1529  -21.4638  -14.4148 C   0  0  0  0  0  0  0  0  0  0  0  0
   22.3123  -20.3399  -14.9382 O   0  0  0  0  0  0  0  0  0  0  0  0
   21.5792  -22.4672  -15.1949 O   0  0  0  0  0  0  0  0  0  0  0  0
  2  1  1  0
  3  2  2  0
  4  3  1  0
  5  4  2  0
  5 11  1  0
  6  5  1  0
  7  9  1  0
  7  8  1  6
  7  6  1  0
  9 15  1  0
 10  9  2  0
 11 12  2  0
 12  2  1  0
 14 13  1  1
 15 14  1  0
 16 18  1  0
 16 14  1  0
 17 16  2  0
 19 18  1  0
 19 25  1  0
 19 20  1  1
 21 20  1  0
 22 23  1  0
 22 21  1  0
 24 23  1  0
 25 27  1  0
 26 25  2  0
M  END
$$$$
