YAK.pdb
     RDKit          3D

 27 27  0  0  1  0  0  0  0  0999 V2000
   17.5617  -14.8469  -14.9533 O   0  0  0  0  0  0  0  0  0  0  0  0
   17.2976  -13.5355  -15.2893 C   0  0  0  0  0  0  0  0  0  0  0  0
   16.9260  -12.6592  -14.2863 C   0  0  0  0  0  0  0  0  0  0  0  0
   16.6549  -11.3303  -14.6046 C   0  0  0  0  0  0  0  0  0  0  0  0
   16.7496  -10.8711  -15.8997 C   0  0  0  0  0  0  0  0  0  0  0  0
   16.4592   -9.4566  -16.2268 C   0  0  0  0  0  0  0  0  0  0  0  0
   17.7464   -8.6774  -16.1152 C   0  0  2  0  0  0  0  0  0  0  0  0
   18.8127   -9.5278  -16.6001 N   0  0  0  0  0  0  0  0  0  0  0  0
   18.0551   -8.2364  -14.7567 C   0  0  0  0  0  0  0  0  0  0  0  0
   19.1261   -8.5914  -14.2113 O   0  0  0  0  0  0  0  0  0  0  0  0
   17.1200  -11.7614  -16.8741 C   0  0  0  0  0  0  0  0  0  0  0  0
   17.3968  -13.0988  -16.5784 C   0  0  0  0  0  0  0  0  0  0  0  0
   18.8903   -6.2402  -12.6081 C   0  0  0  0  0  0  0  0  0  0  0  0
   17.5561   -6.9479  -12.6662 C   0  0  2  0  0  0  0  0  0  0  0  0
   17.2064   -7.4054  -13.9736 N   0  0  0  0  0  0  0  0  0  0  0  0
   16.4998   -6.0629  -12.0874 C   0  0  0  0  0  0  0  0  0  0  0  0
   15.9945   -5.1783  -12.8150 O   0  0  0  0  0  0  0  0  0  0  0  0
   16.0547   -6.1925  -10.7490 N   0  0  0  0  0  0  0  0  0  0  0  0
   14.9883   -5.3899  -10.1637 C   0  0  1  0  0  0  0  0  0  0  0  0
   14.1554   -6.1824   -9.2168 C   0  0  0  0  0  0  0  0  0  0  0  0
   13.0417   -5.4726   -8.5506 C   0  0  0  0  0  0  0  0  0  0  0  0
   12.1951   -6.2249   -7.6017 C   0  0  0  0  0  0  0  0  0  0  0  0
   11.3474   -7.3117   -8.2051 C   0  0  0  0  0  0  0  0  0  0  0  0
   10.5681   -7.9825   -7.1407 N   0  0  0  0  0  0  0  0  0  0  0  0
   15.4686   -4.0917   -9.6831 C   0  0  0  0  0  0  0  0  0  0  0  0
   16.6466   -3.9755   -9.2811 O   0  0  0  0  0  0  0  0  0  0  0  0
   14.6579   -2.9576   -9.6524 O   0  0  0  0  0  0  0  0  0  0  0  0
  2  1  1  0
  3  2  2  0
  4  3  1  0
  5  4  2  0
  5 11  1  0
  6  5  1  0
  7  9  1  0
  7  8  1  1
  7  6  1  0
  9 15  1  0
 10  9  2  0
 11 12  2  0
 12  2  1  0
 14 13  1  6
 15 14  1  0
 16 18  1  0
 16 14  1  0
 17 16  2  0
 19 18  1  0
 19 25  1  0
 19 20  1  1
 21 20  1  0
 22 23  1  0
 22 21  1  0
 24 23  1  0
 25 27  1  0
 26 25  2  0
M  END
$$$$
