RRN.pdb
     RDKit          3D

 31 30  0  0  1  0  0  0  0  0999 V2000
    8.8772  -17.2155   14.5920 N   0  0  0  0  0  0  0  0  0  0  0  0
    8.1846  -16.3718   13.6486 C   0  0  0  0  0  0  0  0  0  0  0  0
    8.4843  -16.5509   12.4146 N   0  0  0  0  0  0  0  0  0  0  0  0
    7.2373  -15.4151   14.1036 N   0  0  0  0  0  0  0  0  0  0  0  0
    7.6541  -14.4445   15.1286 C   0  0  0  0  0  0  0  0  0  0  0  0
    7.8279  -15.1549   16.4211 C   0  0  0  0  0  0  0  0  0  0  0  0
    8.7484  -14.5516   17.4099 C   0  0  0  0  0  0  0  0  0  0  0  0
    8.1219  -13.9892   18.6399 C   0  0  2  0  0  0  0  0  0  0  0  0
    7.4585  -12.7227   18.3951 N   0  0  0  0  0  0  0  0  0  0  0  0
    9.0760  -13.8017   19.7481 C   0  0  0  0  0  0  0  0  0  0  0  0
    9.7295  -12.7345   19.8160 O   0  0  0  0  0  0  0  0  0  0  0  0
    7.9979  -15.9937   11.6891 N   0  0  0  0  0  0  0  0  0  0  0  0
   10.3482  -16.1563   27.2992 C   0  0  0  0  0  0  0  0  0  0  0  0
    9.8428  -14.8314   27.4234 N   0  0  0  0  0  0  0  0  0  0  0  0
   10.1262  -14.1272   28.4421 N   0  0  0  0  0  0  0  0  0  0  0  0
    9.0069  -14.2439   26.4202 C   0  0  0  0  0  0  0  0  0  0  0  0
    8.6749  -14.9465   25.2232 C   0  0  0  0  0  0  0  0  0  0  0  0
    9.0862  -14.2284   23.9446 C   0  0  0  0  0  0  0  0  0  0  0  0
    9.8474  -15.2039   23.1196 C   0  0  2  0  0  0  0  0  0  0  0  0
   10.3221  -14.6362   21.7977 N   0  0  0  0  0  0  0  0  0  0  0  0
    9.3153  -14.7595   20.7653 C   0  0  0  0  0  0  0  0  0  0  0  0
   11.6040  -15.2750   21.3742 O   0  0  0  0  0  0  0  0  0  0  0  0
   11.6249  -16.4620   20.9464 N   0  0  0  0  0  0  0  0  0  0  0  0
    9.7389  -13.1659   28.5392 C   0  0  0  0  0  0  0  0  0  0  0  0
   17.2729  -13.5469   19.5989 O   0  0  0  0  0  0  0  0  0  0  0  0
   16.2209  -14.4446   19.8974 C   0  0  0  0  0  0  0  0  0  0  0  0
   16.4132  -15.6660   19.7671 C   0  0  2  0  0  0  0  0  0  0  0  0
   14.9018  -13.9590   20.3597 N   0  0  0  0  0  0  0  0  0  0  0  0
   14.0888  -15.0600   21.0170 C   0  0  0  0  0  0  0  0  0  0  0  0
   12.8130  -14.5322   21.4561 O   0  0  0  0  0  0  0  0  0  0  0  0
   14.8369  -15.6758   22.1421 O   0  0  0  0  0  0  0  0  0  0  0  0
  2  1  1  0
  2  3  2  0
  4  2  1  0
  5  4  1  0
  6  5  1  0
  7  8  1  0
  7  6  1  0
  8  9  1  6
  8 10  1  0
 10 20  1  0
 11 10  2  0
 13 12  1  0
 14 13  2  0
 15 13  1  0
 16 15  1  0
 17 16  1  0
 18 17  1  0
 19 18  1  1
 19 21  1  0
 20 19  1  0
 21 28  1  0
 21 22  2  0
 23 24  1  0
 24 25  2  0
 26 24  1  0
 27 26  1  1
 27 29  1  0
 28 27  1  0
 29 30  2  0
 29 31  1  0
M  END
$$$$
