RRN.pdb
     RDKit          3D

 31 30  0  0  1  0  0  0  0  0999 V2000
   17.1191  -19.4758   16.6855 N   0  0  0  0  0  0  0  0  0  0  0  0
   16.2761  -20.3429   17.4722 C   0  0  0  0  0  0  0  0  0  0  0  0
   16.7722  -20.7450   18.5844 N   0  0  0  0  0  0  0  0  0  0  0  0
   14.9834  -20.7031   17.0045 N   0  0  0  0  0  0  0  0  0  0  0  0
   14.5250  -20.1607   15.7153 C   0  0  0  0  0  0  0  0  0  0  0  0
   13.4745  -19.1419   15.9685 C   0  0  0  0  0  0  0  0  0  0  0  0
   12.0721  -19.6106   16.0228 C   0  0  0  0  0  0  0  0  0  0  0  0
   11.0279  -18.5574   16.1713 C   0  0  2  0  0  0  0  0  0  0  0  0
   10.8954  -17.7362   14.9830 N   0  0  0  0  0  0  0  0  0  0  0  0
   11.2570  -17.6659   17.3229 C   0  0  0  0  0  0  0  0  0  0  0  0
   12.1548  -16.7945   17.2502 O   0  0  0  0  0  0  0  0  0  0  0  0
   16.1997  -21.3423   19.2079 N   0  0  0  0  0  0  0  0  0  0  0  0
    8.3234  -12.6314   18.6102 C   0  0  0  0  0  0  0  0  0  0  0  0
    7.0631  -13.1735   18.9898 N   0  0  0  0  0  0  0  0  0  0  0  0
    6.0087  -12.8557   18.3566 N   0  0  0  0  0  0  0  0  0  0  0  0
    6.9320  -14.0873   20.0844 C   0  0  0  0  0  0  0  0  0  0  0  0
    7.1368  -15.4891   19.9122 C   0  0  0  0  0  0  0  0  0  0  0  0
    8.4321  -15.8463   19.1953 C   0  0  0  0  0  0  0  0  0  0  0  0
    9.3745  -16.3616   20.2239 C   0  0  2  0  0  0  0  0  0  0  0  0
   10.7002  -16.8211   19.6524 N   0  0  0  0  0  0  0  0  0  0  0  0
   10.5218  -17.7217   18.5336 C   0  0  0  0  0  0  0  0  0  0  0  0
   11.5485  -17.4447   20.7116 O   0  0  0  0  0  0  0  0  0  0  0  0
   11.5531  -18.6947   20.8840 N   0  0  0  0  0  0  0  0  0  0  0  0
    5.0888  -13.2545   18.6365 C   0  0  0  0  0  0  0  0  0  0  0  0
   16.7303  -16.6649   23.6022 O   0  0  0  0  0  0  0  0  0  0  0  0
   15.3321  -16.6307   23.8154 C   0  0  0  0  0  0  0  0  0  0  0  0
   14.8785  -17.0016   24.9120 C   0  0  1  0  0  0  0  0  0  0  0  0
   14.4035  -16.1638   22.7621 N   0  0  0  0  0  0  0  0  0  0  0  0
   13.2700  -17.1461   22.5270 C   0  0  0  0  0  0  0  0  0  0  0  0
   12.3591  -16.6152   21.5333 O   0  0  0  0  0  0  0  0  0  0  0  0
   12.5652  -17.4605   23.7954 O   0  0  0  0  0  0  0  0  0  0  0  0
  2  1  1  0
  2  3  2  0
  4  2  1  0
  5  4  1  0
  6  5  1  0
  7  8  1  0
  7  6  1  0
  8  9  1  6
  8 10  1  0
 10 20  1  0
 11 10  2  0
 13 12  1  0
 14 13  2  0
 15 13  1  0
 16 15  1  0
 17 16  1  0
 18 17  1  0
 19 18  1  6
 19 21  1  0
 20 19  1  0
 21 28  1  0
 21 22  2  0
 23 24  1  0
 24 25  2  0
 26 24  1  0
 27 26  1  1
 27 29  1  0
 28 27  1  0
 29 30  2  0
 29 31  1  0
M  END
$$$$
