RRN.pdb
     RDKit          3D

 31 30  0  0  1  0  0  0  0  0999 V2000
   13.4857  -25.0282   16.6036 N   0  0  0  0  0  0  0  0  0  0  0  0
   13.1378  -24.7676   17.9793 C   0  0  0  0  0  0  0  0  0  0  0  0
   13.8805  -25.3320   18.8595 N   0  0  0  0  0  0  0  0  0  0  0  0
   12.0324  -23.9314   18.2932 N   0  0  0  0  0  0  0  0  0  0  0  0
   11.2991  -23.2907   17.1896 C   0  0  0  0  0  0  0  0  0  0  0  0
   11.3842  -21.8165   17.3477 C   0  0  0  0  0  0  0  0  0  0  0  0
   10.3179  -21.1542   18.1311 C   0  0  0  0  0  0  0  0  0  0  0  0
    9.9477  -19.7734   17.7094 C   0  0  2  0  0  0  0  0  0  0  0  0
   10.2193  -19.5306   16.3053 N   0  0  0  0  0  0  0  0  0  0  0  0
   10.6192  -18.7226   18.4958 C   0  0  0  0  0  0  0  0  0  0  0  0
   11.7989  -18.4088   18.2121 O   0  0  0  0  0  0  0  0  0  0  0  0
   13.6693  -25.1940   19.8643 N   0  0  0  0  0  0  0  0  0  0  0  0
    5.6063  -11.8083   18.5735 C   0  0  0  0  0  0  0  0  0  0  0  0
    6.5518  -12.4168   19.4464 N   0  0  0  0  0  0  0  0  0  0  0  0
    7.1476  -11.7272   20.3314 N   0  0  0  0  0  0  0  0  0  0  0  0
    6.8664  -13.8114   19.3663 C   0  0  0  0  0  0  0  0  0  0  0  0
    7.7511  -14.4296   20.2999 C   0  0  0  0  0  0  0  0  0  0  0  0
    8.8068  -15.3224   19.6611 C   0  0  0  0  0  0  0  0  0  0  0  0
    9.6015  -15.9211   20.7664 C   0  0  2  0  0  0  0  0  0  0  0  0
   10.6290  -16.9292   20.2941 N   0  0  0  0  0  0  0  0  0  0  0  0
   10.0175  -18.0250   19.5731 C   0  0  0  0  0  0  0  0  0  0  0  0
   11.4465  -17.4315   21.4387 O   0  0  0  0  0  0  0  0  0  0  0  0
   11.1105  -18.4740   22.0652 N   0  0  0  0  0  0  0  0  0  0  0  0
    7.8932  -12.1570   20.9170 C   0  0  0  0  0  0  0  0  0  0  0  0
   16.9425  -17.3168   23.6889 O   0  0  0  0  0  0  0  0  0  0  0  0
   15.6807  -16.7482   23.9825 C   0  0  0  0  0  0  0  0  0  0  0  0
   15.3476  -16.5968   25.1707 C   0  0  1  0  0  0  0  0  0  0  0  0
   14.7541  -16.3323   22.9064 N   0  0  0  0  0  0  0  0  0  0  0  0
   13.4841  -17.1642   22.8964 C   0  0  0  0  0  0  0  0  0  0  0  0
   12.6168  -16.7225   21.8232 O   0  0  0  0  0  0  0  0  0  0  0  0
   12.7954  -17.1016   24.2104 O   0  0  0  0  0  0  0  0  0  0  0  0
  2  1  1  0
  2  3  2  0
  4  2  1  0
  5  4  1  0
  6  5  1  0
  7  8  1  0
  7  6  1  0
  8  9  1  6
  8 10  1  0
 10 20  1  0
 11 10  2  0
 13 12  1  0
 14 13  2  0
 15 13  1  0
 16 15  1  0
 17 16  1  0
 18 17  1  0
 19 18  1  6
 19 21  1  0
 20 19  1  0
 21 28  1  0
 21 22  2  0
 23 24  1  0
 24 25  2  0
 26 24  1  0
 27 26  1  1
 27 29  1  0
 28 27  1  0
 29 30  2  0
 29 31  1  0
M  END
$$$$
