RRN.pdb
     RDKit          3D

 31 30  0  0  1  0  0  0  0  0999 V2000
    7.8919  -13.8666   17.9033 N   0  0  0  0  0  0  0  0  0  0  0  0
    8.2204  -13.2649   19.1727 C   0  0  0  0  0  0  0  0  0  0  0  0
    8.2350  -11.9828   19.1957 N   0  0  0  0  0  0  0  0  0  0  0  0
    8.5037  -14.0813   20.3010 N   0  0  0  0  0  0  0  0  0  0  0  0
    8.5747  -15.5395   20.1145 C   0  0  0  0  0  0  0  0  0  0  0  0
    7.5333  -16.1831   20.9552 C   0  0  0  0  0  0  0  0  0  0  0  0
    7.4010  -17.6541   20.8659 C   0  0  0  0  0  0  0  0  0  0  0  0
    6.4287  -18.2888   21.8004 C   0  0  2  0  0  0  0  0  0  0  0  0
    5.0549  -17.9384   21.4938 N   0  0  0  0  0  0  0  0  0  0  0  0
    6.6811  -17.9631   23.2160 C   0  0  0  0  0  0  0  0  0  0  0  0
    6.1164  -16.9654   23.7221 O   0  0  0  0  0  0  0  0  0  0  0  0
    8.4069  -11.4941   20.0930 N   0  0  0  0  0  0  0  0  0  0  0  0
    5.2384  -23.1484   25.9738 C   0  0  0  0  0  0  0  0  0  0  0  0
    5.5405  -22.9354   27.3484 N   0  0  0  0  0  0  0  0  0  0  0  0
    4.7047  -23.2588   28.2487 N   0  0  0  0  0  0  0  0  0  0  0  0
    6.7811  -22.3572   27.7691 C   0  0  0  0  0  0  0  0  0  0  0  0
    7.7309  -21.8648   26.8246 C   0  0  0  0  0  0  0  0  0  0  0  0
    7.2379  -20.6796   26.0050 C   0  0  0  0  0  0  0  0  0  0  0  0
    8.1467  -19.5385   26.2942 C   0  0  2  0  0  0  0  0  0  0  0  0
    7.8977  -18.3303   25.4149 N   0  0  0  0  0  0  0  0  0  0  0  0
    7.5339  -18.7104   24.0667 C   0  0  0  0  0  0  0  0  0  0  0  0
    9.0822  -17.4204   25.4133 O   0  0  0  0  0  0  0  0  0  0  0  0
   10.1660  -17.7704   24.8700 N   0  0  0  0  0  0  0  0  0  0  0  0
    4.9057  -23.0529   29.2491 C   0  0  0  0  0  0  0  0  0  0  0  0
   10.4618  -13.5180   28.6883 O   0  0  0  0  0  0  0  0  0  0  0  0
    9.2260  -14.1350   28.9946 C   0  0  0  0  0  0  0  0  0  0  0  0
    8.4791  -13.6072   29.8367 C   0  0  2  0  0  0  0  0  0  0  0  0
    8.8079  -15.3915   28.3342 N   0  0  0  0  0  0  0  0  0  0  0  0
    9.7481  -15.7823   27.2080 C   0  0  0  0  0  0  0  0  0  0  0  0
    8.9821  -16.1453   26.0331 O   0  0  0  0  0  0  0  0  0  0  0  0
   10.6529  -16.8827   27.6265 O   0  0  0  0  0  0  0  0  0  0  0  0
  2  1  1  0
  2  3  2  0
  4  2  1  0
  5  4  1  0
  6  5  1  0
  7  8  1  0
  7  6  1  0
  8  9  1  6
  8 10  1  0
 10 20  1  0
 11 10  2  0
 13 12  1  0
 14 13  2  0
 15 13  1  0
 16 15  1  0
 17 16  1  0
 18 17  1  0
 19 18  1  1
 19 21  1  0
 20 19  1  0
 21 28  1  0
 21 22  2  0
 23 24  1  0
 24 25  2  0
 26 24  1  0
 27 26  1  1
 27 29  1  0
 28 27  1  0
 29 30  2  0
 29 31  1  0
M  END
$$$$
