RRN.pdb
     RDKit          3D

 31 30  0  0  1  0  0  0  0  0999 V2000
    8.1371  -12.2506   18.3445 N   0  0  0  0  0  0  0  0  0  0  0  0
    7.5612  -12.8407   19.5284 C   0  0  0  0  0  0  0  0  0  0  0  0
    7.8901  -12.2944   20.6411 N   0  0  0  0  0  0  0  0  0  0  0  0
    6.6890  -13.9576   19.4209 N   0  0  0  0  0  0  0  0  0  0  0  0
    6.9920  -14.9934   18.4202 C   0  0  0  0  0  0  0  0  0  0  0  0
    8.2962  -15.6195   18.7559 C   0  0  0  0  0  0  0  0  0  0  0  0
    9.2781  -15.7742   17.6600 C   0  0  0  0  0  0  0  0  0  0  0  0
   10.1214  -17.0027   17.6958 C   0  0  2  0  0  0  0  0  0  0  0  0
    9.3330  -18.2131   17.8276 N   0  0  0  0  0  0  0  0  0  0  0  0
   11.1271  -16.9896   18.7738 C   0  0  0  0  0  0  0  0  0  0  0  0
   11.2222  -17.9837   19.5309 O   0  0  0  0  0  0  0  0  0  0  0  0
    7.5514  -12.7084   21.5283 N   0  0  0  0  0  0  0  0  0  0  0  0
   17.8539  -12.5237   20.3588 C   0  0  0  0  0  0  0  0  0  0  0  0
   18.2934  -13.8372   20.6876 N   0  0  0  0  0  0  0  0  0  0  0  0
   19.4331  -14.0208   21.2177 N   0  0  0  0  0  0  0  0  0  0  0  0
   17.4813  -14.9902   20.4397 C   0  0  0  0  0  0  0  0  0  0  0  0
   16.1870  -14.8761   19.8494 C   0  0  0  0  0  0  0  0  0  0  0  0
   15.0618  -14.6574   20.8522 C   0  0  0  0  0  0  0  0  0  0  0  0
   13.7929  -14.5913   20.0794 C   0  0  2  0  0  0  0  0  0  0  0  0
   13.0341  -15.9023   20.0510 N   0  0  0  0  0  0  0  0  0  0  0  0
   12.0144  -15.9128   19.0241 C   0  0  0  0  0  0  0  0  0  0  0  0
   12.4480  -16.2068   21.3905 O   0  0  0  0  0  0  0  0  0  0  0  0
   11.3917  -15.6365   21.7792 N   0  0  0  0  0  0  0  0  0  0  0  0
   19.7482  -14.9820   21.4638 C   0  0  0  0  0  0  0  0  0  0  0  0
   10.3142  -18.5245   25.6628 O   0  0  0  0  0  0  0  0  0  0  0  0
   11.2964  -19.1346   24.8475 C   0  0  0  0  0  0  0  0  0  0  0  0
   11.8981  -20.1360   25.2727 C   0  0  1  0  0  0  0  0  0  0  0  0
   11.6195  -18.6052   23.5040 N   0  0  0  0  0  0  0  0  0  0  0  0
   12.6184  -17.4636   23.5676 C   0  0  0  0  0  0  0  0  0  0  0  0
   13.0923  -17.1517   22.2345 O   0  0  0  0  0  0  0  0  0  0  0  0
   13.7432  -17.7897   24.4803 O   0  0  0  0  0  0  0  0  0  0  0  0
  2  1  1  0
  2  3  2  0
  4  2  1  0
  5  4  1  0
  6  5  1  0
  7  8  1  0
  7  6  1  0
  8  9  1  1
  8 10  1  0
 10 20  1  0
 11 10  2  0
 13 12  1  0
 14 13  2  0
 15 13  1  0
 16 15  1  0
 17 16  1  0
 18 17  1  0
 19 18  1  6
 19 21  1  0
 20 19  1  0
 21 28  1  0
 21 22  2  0
 23 24  1  0
 24 25  2  0
 26 24  1  0
 27 26  1  6
 27 29  1  0
 28 27  1  0
 29 30  2  0
 29 31  1  0
M  END
$$$$
