RRN.pdb
     RDKit          3D

 31 30  0  0  1  0  0  0  0  0999 V2000
    6.9458  -12.4469   13.3117 N   0  0  0  0  0  0  0  0  0  0  0  0
    7.3260  -13.7941   13.6610 C   0  0  0  0  0  0  0  0  0  0  0  0
    8.1779  -14.3534   12.8825 N   0  0  0  0  0  0  0  0  0  0  0  0
    6.7655  -14.4231   14.8055 N   0  0  0  0  0  0  0  0  0  0  0  0
    7.6297  -15.2834   15.6297 C   0  0  0  0  0  0  0  0  0  0  0  0
    8.6840  -14.4463   16.2567 C   0  0  0  0  0  0  0  0  0  0  0  0
    8.6257  -14.2660   17.7242 C   0  0  0  0  0  0  0  0  0  0  0  0
    8.8785  -15.4804   18.5505 C   0  0  2  0  0  0  0  0  0  0  0  0
    7.7177  -16.3464   18.6335 N   0  0  0  0  0  0  0  0  0  0  0  0
    9.3207  -15.1718   19.9226 C   0  0  0  0  0  0  0  0  0  0  0  0
   10.3414  -14.4640   20.0894 O   0  0  0  0  0  0  0  0  0  0  0  0
    8.5690  -15.2776   13.1400 N   0  0  0  0  0  0  0  0  0  0  0  0
    8.0362  -13.2555   27.1686 C   0  0  0  0  0  0  0  0  0  0  0  0
    6.9728  -12.5346   26.5555 N   0  0  0  0  0  0  0  0  0  0  0  0
    6.7783  -11.3112   26.8370 N   0  0  0  0  0  0  0  0  0  0  0  0
    6.0908  -13.1479   25.6088 C   0  0  0  0  0  0  0  0  0  0  0  0
    6.4675  -14.3244   24.8943 C   0  0  0  0  0  0  0  0  0  0  0  0
    7.6632  -14.1361   23.9700 C   0  0  0  0  0  0  0  0  0  0  0  0
    8.0417  -15.4821   23.4634 C   0  0  2  0  0  0  0  0  0  0  0  0
    9.1600  -15.4505   22.4418 N   0  0  0  0  0  0  0  0  0  0  0  0
    8.6637  -15.6259   21.0937 C   0  0  0  0  0  0  0  0  0  0  0  0
   10.2042  -16.4684   22.7645 O   0  0  0  0  0  0  0  0  0  0  0  0
   10.0075  -17.6930   22.5322 N   0  0  0  0  0  0  0  0  0  0  0  0
    6.0616  -10.7616   26.3193 C   0  0  0  0  0  0  0  0  0  0  0  0
   15.8060  -16.9464   24.9837 O   0  0  0  0  0  0  0  0  0  0  0  0
   14.9962  -17.1024   23.8341 C   0  0  0  0  0  0  0  0  0  0  0  0
   15.2618  -18.0090   23.0260 C   0  0  2  0  0  0  0  0  0  0  0  0
   13.8440  -16.2102   23.5769 N   0  0  0  0  0  0  0  0  0  0  0  0
   12.5244  -16.9602   23.6148 C   0  0  0  0  0  0  0  0  0  0  0  0
   11.4333  -16.0472   23.3407 O   0  0  0  0  0  0  0  0  0  0  0  0
   12.3402  -17.6496   24.9168 O   0  0  0  0  0  0  0  0  0  0  0  0
  2  1  1  0
  2  3  2  0
  4  2  1  0
  5  4  1  0
  6  5  1  0
  7  8  1  0
  7  6  1  0
  8  9  1  1
  8 10  1  0
 10 20  1  0
 11 10  2  0
 13 12  1  0
 14 13  2  0
 15 13  1  0
 16 15  1  0
 17 16  1  0
 18 17  1  0
 19 18  1  6
 19 21  1  0
 20 19  1  0
 21 28  1  0
 21 22  2  0
 23 24  1  0
 24 25  2  0
 26 24  1  0
 27 26  1  1
 27 29  1  0
 28 27  1  0
 29 30  2  0
 29 31  1  0
M  END
$$$$
