RRN.pdb
     RDKit          3D

 31 30  0  0  1  0  0  0  0  0999 V2000
    8.1164  -14.2459   14.2678 N   0  0  0  0  0  0  0  0  0  0  0  0
    6.9881  -13.7089   14.9890 C   0  0  0  0  0  0  0  0  0  0  0  0
    5.8526  -13.8047   14.4007 N   0  0  0  0  0  0  0  0  0  0  0  0
    7.1705  -13.1191   16.2690 N   0  0  0  0  0  0  0  0  0  0  0  0
    8.4644  -13.2964   16.9477 C   0  0  0  0  0  0  0  0  0  0  0  0
    8.4947  -14.6389   17.5819 C   0  0  0  0  0  0  0  0  0  0  0  0
    9.7681  -15.0702   18.1998 C   0  0  0  0  0  0  0  0  0  0  0  0
   10.9791  -15.0056   17.3332 C   0  0  2  0  0  0  0  0  0  0  0  0
   10.8238  -15.7624   16.1055 N   0  0  0  0  0  0  0  0  0  0  0  0
   12.2053  -15.4700   18.0073 C   0  0  0  0  0  0  0  0  0  0  0  0
   12.4456  -16.6990   18.0569 O   0  0  0  0  0  0  0  0  0  0  0  0
    5.0131  -13.3969   14.8504 N   0  0  0  0  0  0  0  0  0  0  0  0
   19.7534  -11.8904   16.9135 C   0  0  0  0  0  0  0  0  0  0  0  0
   19.1734  -12.1784   18.1812 N   0  0  0  0  0  0  0  0  0  0  0  0
   19.8875  -12.1734   19.2318 N   0  0  0  0  0  0  0  0  0  0  0  0
   17.7811  -12.4803   18.3245 C   0  0  0  0  0  0  0  0  0  0  0  0
   17.0867  -13.2671   17.3573 C   0  0  0  0  0  0  0  0  0  0  0  0
   15.6029  -13.4470   17.6495 C   0  0  0  0  0  0  0  0  0  0  0  0
   15.4904  -13.9845   19.0316 C   0  0  2  0  0  0  0  0  0  0  0  0
   14.4152  -15.0409   19.1831 N   0  0  0  0  0  0  0  0  0  0  0  0
   13.1541  -14.6116   18.6176 C   0  0  0  0  0  0  0  0  0  0  0  0
   14.2536  -15.4338   20.6150 O   0  0  0  0  0  0  0  0  0  0  0  0
   15.2535  -15.7551   21.3144 N   0  0  0  0  0  0  0  0  0  0  0  0
   19.4706  -12.4306   20.1503 C   0  0  0  0  0  0  0  0  0  0  0  0
    9.9324  -16.9961   24.6228 O   0  0  0  0  0  0  0  0  0  0  0  0
   10.9336  -16.0539   24.2890 C   0  0  0  0  0  0  0  0  0  0  0  0
   11.5746  -15.5041   25.2014 C   0  0  2  0  0  0  0  0  0  0  0  0
   11.2307  -15.7122   22.8802 N   0  0  0  0  0  0  0  0  0  0  0  0
   12.7081  -15.8531   22.5602 C   0  0  0  0  0  0  0  0  0  0  0  0
   12.9548  -15.4444   21.1923 O   0  0  0  0  0  0  0  0  0  0  0  0
   13.1765  -17.2408   22.8042 O   0  0  0  0  0  0  0  0  0  0  0  0
  2  1  1  0
  2  3  2  0
  4  2  1  0
  5  4  1  0
  6  5  1  0
  7  8  1  0
  7  6  1  0
  8  9  1  6
  8 10  1  0
 10 20  1  0
 11 10  2  0
 13 12  1  0
 14 13  2  0
 15 13  1  0
 16 15  1  0
 17 16  1  0
 18 17  1  0
 19 18  1  6
 19 21  1  0
 20 19  1  0
 21 28  1  0
 21 22  2  0
 23 24  1  0
 24 25  2  0
 26 24  1  0
 27 26  1  1
 27 29  1  0
 28 27  1  0
 29 30  2  0
 29 31  1  0
M  END
$$$$
