RRN.pdb
     RDKit          3D

 31 30  0  0  1  0  0  0  0  0999 V2000
   13.7704  -14.5333   13.3709 N   0  0  0  0  0  0  0  0  0  0  0  0
   14.7237  -15.6062   13.5179 C   0  0  0  0  0  0  0  0  0  0  0  0
   15.9557  -15.2545   13.5746 N   0  0  0  0  0  0  0  0  0  0  0  0
   14.2800  -16.9543   13.5906 N   0  0  0  0  0  0  0  0  0  0  0  0
   13.0141  -17.2421   14.2840 C   0  0  0  0  0  0  0  0  0  0  0  0
   12.9970  -16.5113   15.5767 C   0  0  0  0  0  0  0  0  0  0  0  0
   13.2225  -17.3014   16.8072 C   0  0  0  0  0  0  0  0  0  0  0  0
   12.0076  -17.6728   17.5868 C   0  0  2  0  0  0  0  0  0  0  0  0
   10.7832  -17.4714   16.8354 N   0  0  0  0  0  0  0  0  0  0  0  0
   11.8880  -16.9457   18.8638 C   0  0  0  0  0  0  0  0  0  0  0  0
   12.6892  -16.0148   19.1126 O   0  0  0  0  0  0  0  0  0  0  0  0
   16.6870  -15.9830   13.6631 N   0  0  0  0  0  0  0  0  0  0  0  0
    8.2169  -11.7247   19.7141 C   0  0  0  0  0  0  0  0  0  0  0  0
    7.6583  -13.0098   19.4639 N   0  0  0  0  0  0  0  0  0  0  0  0
    7.4836  -13.4150   18.2726 N   0  0  0  0  0  0  0  0  0  0  0  0
    7.2760  -13.8882   20.5282 C   0  0  0  0  0  0  0  0  0  0  0  0
    8.2480  -14.6166   21.2774 C   0  0  0  0  0  0  0  0  0  0  0  0
    8.3694  -16.0823   20.8818 C   0  0  0  0  0  0  0  0  0  0  0  0
    9.4329  -16.6792   21.7330 C   0  0  2  0  0  0  0  0  0  0  0  0
   10.8205  -16.5629   21.1362 N   0  0  0  0  0  0  0  0  0  0  0  0
   10.9131  -17.2270   19.8537 C   0  0  0  0  0  0  0  0  0  0  0  0
   11.8521  -17.0817   22.0835 O   0  0  0  0  0  0  0  0  0  0  0  0
   11.8400  -18.2871   22.4564 N   0  0  0  0  0  0  0  0  0  0  0  0
    7.0869  -14.3605   18.0932 C   0  0  0  0  0  0  0  0  0  0  0  0
   15.1654  -14.1472   21.3241 O   0  0  0  0  0  0  0  0  0  0  0  0
   15.5052  -15.3626   21.9636 C   0  0  0  0  0  0  0  0  0  0  0  0
   16.1697  -16.2085   21.3403 C   0  0  1  0  0  0  0  0  0  0  0  0
   15.0861  -15.6445   23.3545 N   0  0  0  0  0  0  0  0  0  0  0  0
   13.9475  -16.6472   23.4133 C   0  0  0  0  0  0  0  0  0  0  0  0
   12.8580  -16.2023   22.5682 O   0  0  0  0  0  0  0  0  0  0  0  0
   13.4966  -16.8604   24.8118 O   0  0  0  0  0  0  0  0  0  0  0  0
  2  1  1  0
  2  3  2  0
  4  2  1  0
  5  4  1  0
  6  5  1  0
  7  8  1  0
  7  6  1  0
  8  9  1  6
  8 10  1  0
 10 20  1  0
 11 10  2  0
 13 12  1  0
 14 13  2  0
 15 13  1  0
 16 15  1  0
 17 16  1  0
 18 17  1  0
 19 18  1  6
 19 21  1  0
 20 19  1  0
 21 28  1  0
 21 22  2  0
 23 24  1  0
 24 25  2  0
 26 24  1  0
 27 26  1  1
 27 29  1  0
 28 27  1  0
 29 30  2  0
 29 31  1  0
M  END
$$$$
