PIC.pdb
     RDKit          3D

 22 22  0  0  1  0  0  0  0  0999 V2000
    6.8014  -14.4240   20.8899 N   0  0  0  0  0  0  0  0  0  0  0  0
    6.5174  -13.9484   19.5336 C   0  0  0  0  0  0  0  0  0  0  0  0
    7.2154  -12.5831   19.5805 C   0  0  0  0  0  0  0  0  0  0  0  0
    8.4332  -12.8215   20.4590 C   0  0  0  0  0  0  0  0  0  0  0  0
    8.2158  -14.2107   20.9810 C   0  0  1  0  0  0  0  0  0  0  0  0
    8.7131  -14.3595   22.3859 C   0  0  0  0  0  0  0  0  0  0  0  0
    9.9492  -14.3564   22.5561 O   0  0  0  0  0  0  0  0  0  0  0  0
    6.0746  -11.5547   25.9115 C   0  0  0  0  0  0  0  0  0  0  0  0
    7.1007  -12.3866   25.1463 C   0  0  0  0  0  0  0  0  0  0  0  0
    7.1662  -13.7921   25.6927 C   0  0  2  0  0  0  0  0  0  0  0  0
    7.6554  -13.7683   27.1400 C   0  0  0  0  0  0  0  0  0  0  0  0
    8.0570  -14.6432   24.8332 C   0  0  2  0  0  0  0  0  0  0  0  0
    7.8021  -14.4941   23.4400 N   0  0  0  0  0  0  0  0  0  0  0  0
    8.2793  -16.0036   25.2962 C   0  0  0  0  0  0  0  0  0  0  0  0
    7.4246  -16.8732   25.4901 O   0  0  0  0  0  0  0  0  0  0  0  0
    9.6452  -16.3899   25.5611 N   0  0  0  0  0  0  0  0  0  0  0  0
   10.0013  -17.7321   25.9321 C   0  0  1  0  0  0  0  0  0  0  0  0
   11.0779  -18.2920   25.0196 C   0  0  0  0  0  0  0  0  0  0  0  0
   12.3923  -17.0587   24.8398 S   0  0  0  0  0  0  0  0  0  0  0  0
   10.4402  -17.7826   27.3486 C   0  0  0  0  0  0  0  0  0  0  0  0
   10.5651  -16.6429   28.1238 O   0  0  0  0  0  0  0  0  0  0  0  0
   10.7077  -18.8974   27.8628 O   0  0  0  0  0  0  0  0  0  0  0  0
  1  2  1  0
  1  5  1  0
  3  2  1  0
  3  4  1  0
  4  5  1  0
  6 13  1  0
  5  6  1  1
  7  6  2  0
  8  9  1  0
  9 10  1  0
 10 12  1  0
 10 11  1  1
 12 13  1  6
 12 14  1  0
 14 16  1  0
 15 14  2  0
 16 17  1  0
 17 18  1  6
 17 20  1  0
 19 18  1  0
 20 22  2  0
 20 21  1  0
M  END
$$$$
