PIC.pdb
     RDKit          3D

 22 22  0  0  1  0  0  0  0  0999 V2000
   -3.9772  -26.2950   24.1472 N   0  0  0  0  0  0  0  0  0  0  0  0
   -3.4893  -27.4615   23.4072 C   0  0  0  0  0  0  0  0  0  0  0  0
   -2.3323  -27.8886   24.3195 C   0  0  0  0  0  0  0  0  0  0  0  0
   -2.8306  -27.5706   25.7203 C   0  0  0  0  0  0  0  0  0  0  0  0
   -4.1092  -26.8271   25.4715 C   0  0  1  0  0  0  0  0  0  0  0  0
   -4.3301  -25.7483   26.4867 C   0  0  0  0  0  0  0  0  0  0  0  0
   -4.4745  -26.1042   27.6739 O   0  0  0  0  0  0  0  0  0  0  0  0
   -1.6198  -21.2380   25.5773 C   0  0  0  0  0  0  0  0  0  0  0  0
   -2.3770  -22.3823   26.2466 C   0  0  0  0  0  0  0  0  0  0  0  0
   -3.8398  -22.0418   26.3963 C   0  0  2  0  0  0  0  0  0  0  0  0
   -4.0074  -20.8661   27.3575 C   0  0  0  0  0  0  0  0  0  0  0  0
   -4.6074  -23.2431   26.8700 C   0  0  2  0  0  0  0  0  0  0  0  0
   -4.3674  -24.4076   26.0862 N   0  0  0  0  0  0  0  0  0  0  0  0
   -5.9912  -23.0067   27.2491 C   0  0  0  0  0  0  0  0  0  0  0  0
   -6.9343  -22.7417   26.4977 O   0  0  0  0  0  0  0  0  0  0  0  0
   -6.3077  -23.0886   28.6556 N   0  0  0  0  0  0  0  0  0  0  0  0
   -7.6519  -22.9514   29.1455 C   0  0  1  0  0  0  0  0  0  0  0  0
   -8.1349  -24.2312   29.8042 C   0  0  0  0  0  0  0  0  0  0  0  0
   -8.0002  -25.5893   28.6133 S   0  0  0  0  0  0  0  0  0  0  0  0
   -7.7493  -21.8103   30.0891 C   0  0  0  0  0  0  0  0  0  0  0  0
   -8.9659  -21.3061   30.5147 O   0  0  0  0  0  0  0  0  0  0  0  0
   -6.6919  -21.2833   30.5169 O   0  0  0  0  0  0  0  0  0  0  0  0
  1  2  1  0
  1  5  1  0
  3  2  1  0
  3  4  1  0
  4  5  1  0
  6 13  1  0
  5  6  1  1
  7  6  2  0
  8  9  1  0
  9 10  1  0
 10 12  1  0
 10 11  1  1
 12 13  1  6
 12 14  1  0
 14 16  1  0
 15 14  2  0
 16 17  1  0
 17 18  1  1
 17 20  1  0
 19 18  1  0
 20 22  2  0
 20 21  1  0
M  END
$$$$
