PIC.pdb
     RDKit          3D

 22 22  0  0  1  0  0  0  0  0999 V2000
    6.9737  -15.5115   21.6602 N   0  0  0  0  0  0  0  0  0  0  0  0
    6.5401  -15.3112   20.2752 C   0  0  0  0  0  0  0  0  0  0  0  0
    7.0056  -13.8655   20.0588 C   0  0  0  0  0  0  0  0  0  0  0  0
    8.2932  -13.7686   20.8616 C   0  0  0  0  0  0  0  0  0  0  0  0
    8.3366  -15.0716   21.6031 C   0  0  1  0  0  0  0  0  0  0  0  0
    8.9293  -14.9127   22.9693 C   0  0  0  0  0  0  0  0  0  0  0  0
   10.1590  -14.7120   23.0372 O   0  0  0  0  0  0  0  0  0  0  0  0
    6.1738  -11.8840   26.0429 C   0  0  0  0  0  0  0  0  0  0  0  0
    7.3276  -12.6863   25.4465 C   0  0  0  0  0  0  0  0  0  0  0  0
    7.5736  -13.9445   26.2432 C   0  0  2  0  0  0  0  0  0  0  0  0
    8.1812  -13.5938   27.6004 C   0  0  0  0  0  0  0  0  0  0  0  0
    8.4641  -14.8799   25.4759 C   0  0  2  0  0  0  0  0  0  0  0  0
    8.1095  -14.9917   24.1012 N   0  0  0  0  0  0  0  0  0  0  0  0
    8.8105  -16.1233   26.1455 C   0  0  0  0  0  0  0  0  0  0  0  0
    8.0329  -16.9915   26.5528 O   0  0  0  0  0  0  0  0  0  0  0  0
   10.2147  -16.3806   26.3627 N   0  0  0  0  0  0  0  0  0  0  0  0
   10.6793  -17.5577   27.0442 C   0  0  1  0  0  0  0  0  0  0  0  0
   12.0599  -17.9677   26.5633 C   0  0  0  0  0  0  0  0  0  0  0  0
   12.0654  -17.9922   24.7523 S   0  0  0  0  0  0  0  0  0  0  0  0
   10.6807  -17.3440   28.5126 C   0  0  0  0  0  0  0  0  0  0  0  0
   10.9595  -18.3631   29.4066 O   0  0  0  0  0  0  0  0  0  0  0  0
   10.4199  -16.1994   28.9606 O   0  0  0  0  0  0  0  0  0  0  0  0
  1  2  1  0
  1  5  1  0
  3  2  1  0
  3  4  1  0
  4  5  1  0
  6 13  1  0
  5  6  1  1
  7  6  2  0
  8  9  1  0
  9 10  1  0
 10 12  1  0
 10 11  1  1
 12 13  1  6
 12 14  1  0
 14 16  1  0
 15 14  2  0
 16 17  1  0
 17 18  1  6
 17 20  1  0
 19 18  1  0
 20 22  2  0
 20 21  1  0
M  END
$$$$
