PIC.pdb
     RDKit          3D

 22 22  0  0  1  0  0  0  0  0999 V2000
    6.9302  -18.5197   18.5381 N   0  0  0  0  0  0  0  0  0  0  0  0
    6.4105  -19.2199   17.3609 C   0  0  0  0  0  0  0  0  0  0  0  0
    6.6028  -18.1300   16.2985 C   0  0  0  0  0  0  0  0  0  0  0  0
    7.8852  -17.4289   16.7175 C   0  0  0  0  0  0  0  0  0  0  0  0
    8.1899  -18.0364   18.0545 C   0  0  1  0  0  0  0  0  0  0  0  0
    8.8016  -17.0397   18.9902 C   0  0  0  0  0  0  0  0  0  0  0  0
   10.0357  -16.8708   18.9157 O   0  0  0  0  0  0  0  0  0  0  0  0
    6.8671  -12.2096   19.5167 C   0  0  0  0  0  0  0  0  0  0  0  0
    7.7454  -13.4565   19.5825 C   0  0  0  0  0  0  0  0  0  0  0  0
    7.5814  -14.1582   20.9088 C   0  0  2  0  0  0  0  0  0  0  0  0
    8.0055  -13.2313   22.0469 C   0  0  0  0  0  0  0  0  0  0  0  0
    8.3751  -15.4336   20.9238 C   0  0  2  0  0  0  0  0  0  0  0  0
    7.9938  -16.3444   19.8976 N   0  0  0  0  0  0  0  0  0  0  0  0
    8.6186  -16.0176   22.2330 C   0  0  0  0  0  0  0  0  0  0  0  0
    7.7726  -16.4005   23.0466 O   0  0  0  0  0  0  0  0  0  0  0  0
    9.9969  -16.1711   22.6352 N   0  0  0  0  0  0  0  0  0  0  0  0
   10.3828  -17.0121   23.7351 C   0  0  1  0  0  0  0  0  0  0  0  0
   10.1933  -18.4813   23.4022 C   0  0  0  0  0  0  0  0  0  0  0  0
   10.4375  -19.4586   24.9075 S   0  0  0  0  0  0  0  0  0  0  0  0
   11.7879  -16.7436   24.1290 C   0  0  0  0  0  0  0  0  0  0  0  0
   12.5982  -15.8704   23.4243 O   0  0  0  0  0  0  0  0  0  0  0  0
   12.2593  -17.3283   25.1364 O   0  0  0  0  0  0  0  0  0  0  0  0
  1  2  1  0
  1  5  1  0
  3  2  1  0
  3  4  1  0
  4  5  1  0
  6 13  1  0
  5  6  1  1
  7  6  2  0
  8  9  1  0
  9 10  1  0
 10 12  1  0
 10 11  1  1
 12 13  1  6
 12 14  1  0
 14 16  1  0
 15 14  2  0
 16 17  1  0
 17 18  1  6
 17 20  1  0
 19 18  1  0
 20 22  2  0
 20 21  1  0
M  END
$$$$
