PIC.pdb
     RDKit          3D

 22 22  0  0  1  0  0  0  0  0999 V2000
    8.3918  -14.9380   20.1814 N   0  0  0  0  0  0  0  0  0  0  0  0
    7.5462  -15.3787   19.0691 C   0  0  0  0  0  0  0  0  0  0  0  0
    6.9679  -16.6661   19.6704 C   0  0  0  0  0  0  0  0  0  0  0  0
    6.8088  -16.3440   21.1478 C   0  0  0  0  0  0  0  0  0  0  0  0
    7.4792  -15.0093   21.2844 C   0  0  1  0  0  0  0  0  0  0  0  0
    8.1822  -14.8737   22.5998 C   0  0  0  0  0  0  0  0  0  0  0  0
    9.4078  -15.1076   22.6177 O   0  0  0  0  0  0  0  0  0  0  0  0
    5.8493  -11.3803   26.0279 C   0  0  0  0  0  0  0  0  0  0  0  0
    6.8602  -12.2373   25.2701 C   0  0  0  0  0  0  0  0  0  0  0  0
    7.0657  -13.5624   25.9632 C   0  0  2  0  0  0  0  0  0  0  0  0
    7.7273  -13.3443   27.3230 C   0  0  0  0  0  0  0  0  0  0  0  0
    7.8872  -14.4781   25.1011 C   0  0  2  0  0  0  0  0  0  0  0  0
    7.4644  -14.4986   23.7414 N   0  0  0  0  0  0  0  0  0  0  0  0
    8.2234  -15.7685   25.6812 C   0  0  0  0  0  0  0  0  0  0  0  0
    7.4424  -16.6767   25.9803 O   0  0  0  0  0  0  0  0  0  0  0  0
    9.6206  -16.0259   25.9396 N   0  0  0  0  0  0  0  0  0  0  0  0
   10.0934  -17.3131   26.3703 C   0  0  1  0  0  0  0  0  0  0  0  0
   11.4467  -17.6377   25.7634 C   0  0  0  0  0  0  0  0  0  0  0  0
   11.3774  -17.3296   23.9799 S   0  0  0  0  0  0  0  0  0  0  0  0
   10.1573  -17.3764   27.8514 C   0  0  0  0  0  0  0  0  0  0  0  0
   10.4739  -18.5419   28.5274 O   0  0  0  0  0  0  0  0  0  0  0  0
    9.9160  -16.3374   28.5154 O   0  0  0  0  0  0  0  0  0  0  0  0
  1  2  1  0
  1  5  1  0
  3  2  1  0
  3  4  1  0
  4  5  1  0
  6 13  1  0
  5  6  1  1
  7  6  2  0
  8  9  1  0
  9 10  1  0
 10 12  1  0
 10 11  1  1
 12 13  1  6
 12 14  1  0
 14 16  1  0
 15 14  2  0
 16 17  1  0
 17 18  1  6
 17 20  1  0
 19 18  1  0
 20 22  2  0
 20 21  1  0
M  END
$$$$
