QIN.pdb
     RDKit          3D

 26 25  0  0  1  0  0  0  0  0999 V2000
   28.1145  -17.1840  -17.6796 N   0  0  0  0  0  0  0  0  0  0  0  0
   26.9342  -17.9643  -17.9081 C   0  0  0  0  0  0  0  0  0  0  0  0
   26.3067  -17.7895  -18.9546 O   0  0  0  0  0  0  0  0  0  0  0  0
   26.5362  -18.9217  -16.8881 C   0  0  0  0  0  0  0  0  0  0  0  0
   27.3760  -19.0024  -15.6567 C   0  0  0  0  0  0  0  0  0  0  0  0
   27.4868  -20.3296  -14.9962 C   0  0  2  0  0  0  0  0  0  0  0  0
   28.0733  -21.3127  -15.8836 N   0  0  0  0  0  0  0  0  0  0  0  0
   26.3602  -20.8044  -14.1918 C   0  0  0  0  0  0  0  0  0  0  0  0
   25.7413  -21.8124  -14.6189 O   0  0  0  0  0  0  0  0  0  0  0  0
   27.2414  -20.7742   -9.0950 C   0  0  0  0  0  0  0  0  0  0  0  0
   26.5644  -21.2101  -10.3925 C   0  0  0  0  0  0  0  0  0  0  0  0
   25.2925  -20.4542  -10.6611 C   0  0  2  0  0  0  0  0  0  0  0  0
   24.2489  -21.0345   -9.7452 C   0  0  0  0  0  0  0  0  0  0  0  0
   24.9005  -20.5817  -12.0869 C   0  0  2  0  0  0  0  0  0  0  0  0
   25.9495  -20.2100  -13.0114 N   0  0  0  0  0  0  0  0  0  0  0  0
   23.6129  -20.0367  -12.5172 C   0  0  0  0  0  0  0  0  0  0  0  0
   23.6895  -19.0121  -13.3174 O   0  0  0  0  0  0  0  0  0  0  0  0
   20.1738  -21.2327  -16.4078 N   0  0  0  0  0  0  0  0  0  0  0  0
   20.7943  -20.2122  -15.6476 C   0  0  0  0  0  0  0  0  0  0  0  0
   20.4498  -19.0263  -15.9174 O   0  0  0  0  0  0  0  0  0  0  0  0
   21.7863  -20.3954  -14.5900 C   0  0  0  0  0  0  0  0  0  0  0  0
   21.2427  -20.3273  -13.1890 C   0  0  2  0  0  0  0  0  0  0  0  0
   22.3213  -20.4575  -12.1994 N   0  0  0  0  0  0  0  0  0  0  0  0
   20.1695  -21.3006  -12.9407 C   0  0  0  0  0  0  0  0  0  0  0  0
   18.8567  -20.9024  -13.1080 O   0  0  0  0  0  0  0  0  0  0  0  0
   20.4009  -22.4744  -12.5840 O   0  0  0  0  0  0  0  0  0  0  0  0
  1  2  1  0
  2  4  1  0
  3  2  2  0
  4  5  1  0
  5  6  1  0
  6  7  1  6
  8  9  2  0
  8  6  1  0
 11 10  1  0
 11 12  1  0
 12 14  1  0
 12 13  1  1
 14 15  1  6
 15  8  1  0
 16 23  1  0
 16 14  1  0
 17 16  2  0
 18 19  1  0
 19 21  1  0
 20 19  2  0
 22 21  1  6
 22 23  1  0
 22 24  1  0
 24 25  1  0
 26 24  2  0
M  END
$$$$
