QIN.pdb
     RDKit          3D

 26 25  0  0  1  0  0  0  0  0999 V2000
   17.4057  -12.6013  -13.1900 N   0  0  0  0  0  0  0  0  0  0  0  0
   16.2880  -13.4525  -13.4735 C   0  0  0  0  0  0  0  0  0  0  0  0
   16.4655  -14.6722  -13.4860 O   0  0  0  0  0  0  0  0  0  0  0  0
   15.0001  -12.8297  -13.7357 C   0  0  0  0  0  0  0  0  0  0  0  0
   14.9221  -11.3427  -13.6308 C   0  0  0  0  0  0  0  0  0  0  0  0
   14.4127  -10.7781  -12.3534 C   0  0  2  0  0  0  0  0  0  0  0  0
   13.1022  -11.3035  -12.0302 N   0  0  0  0  0  0  0  0  0  0  0  0
   14.5942   -9.3479  -12.1016 C   0  0  0  0  0  0  0  0  0  0  0  0
   13.9312   -8.5556  -12.8188 O   0  0  0  0  0  0  0  0  0  0  0  0
   14.8191   -5.1881   -7.8215 C   0  0  0  0  0  0  0  0  0  0  0  0
   15.5977   -5.7253   -9.0204 C   0  0  0  0  0  0  0  0  0  0  0  0
   15.1637   -7.1096   -9.4160 C   0  0  2  0  0  0  0  0  0  0  0  0
   15.6667   -8.0382   -8.3438 C   0  0  0  0  0  0  0  0  0  0  0  0
   15.7096   -7.4671  -10.7491 C   0  0  2  0  0  0  0  0  0  0  0  0
   15.4430   -8.8354  -11.1362 N   0  0  0  0  0  0  0  0  0  0  0  0
   17.0876   -7.0960  -11.0711 C   0  0  0  0  0  0  0  0  0  0  0  0
   17.9889   -7.5740  -10.2618 O   0  0  0  0  0  0  0  0  0  0  0  0
   21.8794   -5.8537  -12.9321 N   0  0  0  0  0  0  0  0  0  0  0  0
   21.0675   -6.9022  -13.4277 C   0  0  0  0  0  0  0  0  0  0  0  0
   21.6365   -7.7399  -14.1844 O   0  0  0  0  0  0  0  0  0  0  0  0
   19.6471   -7.1085  -13.1517 C   0  0  0  0  0  0  0  0  0  0  0  0
   19.0179   -6.0800  -12.2521 C   0  0  2  0  0  0  0  0  0  0  0  0
   17.5729   -6.3121  -12.1180 N   0  0  0  0  0  0  0  0  0  0  0  0
   19.3007   -4.6997  -12.6708 C   0  0  0  0  0  0  0  0  0  0  0  0
   20.6114   -4.2613  -12.6804 O   0  0  0  0  0  0  0  0  0  0  0  0
   18.3996   -3.9085  -13.0182 O   0  0  0  0  0  0  0  0  0  0  0  0
  1  2  1  0
  2  4  1  0
  3  2  2  0
  4  5  1  0
  5  6  1  0
  6  7  1  6
  8  9  2  0
  8  6  1  0
 11 10  1  0
 11 12  1  0
 12 14  1  0
 12 13  1  1
 14 15  1  1
 15  8  1  0
 16 23  1  0
 16 14  1  0
 17 16  2  0
 18 19  1  0
 19 21  1  0
 20 19  2  0
 22 21  1  6
 22 23  1  0
 22 24  1  0
 24 25  1  0
 26 24  2  0
M  END
$$$$
