QIN.pdb
     RDKit          3D

 26 25  0  0  1  0  0  0  0  0999 V2000
   22.7095  -24.4278  -14.1183 N   0  0  0  0  0  0  0  0  0  0  0  0
   23.9315  -24.7904  -14.7736 C   0  0  0  0  0  0  0  0  0  0  0  0
   24.1092  -25.9724  -15.0751 O   0  0  0  0  0  0  0  0  0  0  0  0
   24.9018  -23.7417  -15.0458 C   0  0  0  0  0  0  0  0  0  0  0  0
   24.5560  -22.3563  -14.6107 C   0  0  0  0  0  0  0  0  0  0  0  0
   25.5061  -21.2729  -14.9762 C   0  0  2  0  0  0  0  0  0  0  0  0
   26.8796  -21.6858  -14.7734 N   0  0  0  0  0  0  0  0  0  0  0  0
   25.1955  -19.9040  -14.5624 C   0  0  0  0  0  0  0  0  0  0  0  0
   25.2459  -19.6570  -13.3303 O   0  0  0  0  0  0  0  0  0  0  0  0
   27.5506  -15.7957  -16.5128 C   0  0  0  0  0  0  0  0  0  0  0  0
   26.6749  -16.6675  -15.6155 C   0  0  0  0  0  0  0  0  0  0  0  0
   25.2092  -16.5102  -15.9125 C   0  0  2  0  0  0  0  0  0  0  0  0
   24.8340  -15.1162  -15.4874 C   0  0  0  0  0  0  0  0  0  0  0  0
   24.4167  -17.5348  -15.1877 C   0  0  2  0  0  0  0  0  0  0  0  0
   24.8536  -18.8906  -15.4407 N   0  0  0  0  0  0  0  0  0  0  0  0
   22.9566  -17.4471  -15.2131 C   0  0  0  0  0  0  0  0  0  0  0  0
   22.3889  -18.0259  -16.2321 O   0  0  0  0  0  0  0  0  0  0  0  0
   17.5622  -16.6650  -12.4811 N   0  0  0  0  0  0  0  0  0  0  0  0
   18.4845  -17.3638  -13.2968 C   0  0  0  0  0  0  0  0  0  0  0  0
   17.9885  -18.1177  -14.1819 O   0  0  0  0  0  0  0  0  0  0  0  0
   19.9424  -17.2986  -13.2154 C   0  0  0  0  0  0  0  0  0  0  0  0
   20.6358  -16.9376  -14.5005 C   0  0  2  0  0  0  0  0  0  0  0  0
   22.0890  -16.8402  -14.3047 N   0  0  0  0  0  0  0  0  0  0  0  0
   20.0976  -15.7190  -15.1218 C   0  0  0  0  0  0  0  0  0  0  0  0
   18.8998  -15.7934  -15.8072 O   0  0  0  0  0  0  0  0  0  0  0  0
   20.6834  -14.6186  -15.0527 O   0  0  0  0  0  0  0  0  0  0  0  0
  1  2  1  0
  2  4  1  0
  3  2  2  0
  4  5  1  0
  5  6  1  0
  6  7  1  1
  8  9  2  0
  8  6  1  0
 11 10  1  0
 11 12  1  0
 12 14  1  0
 12 13  1  1
 14 15  1  6
 15  8  1  0
 16 23  1  0
 16 14  1  0
 17 16  2  0
 18 19  1  0
 19 21  1  0
 20 19  2  0
 22 21  1  1
 22 23  1  0
 22 24  1  0
 24 25  1  0
 26 24  2  0
M  END
$$$$
