QIN.pdb
     RDKit          3D

 26 25  0  0  1  0  0  0  0  0999 V2000
   16.8114  -29.2282  -13.0869 N   0  0  0  0  0  0  0  0  0  0  0  0
   17.5326  -30.4204  -13.4223 C   0  0  0  0  0  0  0  0  0  0  0  0
   17.1593  -31.0802  -14.3942 O   0  0  0  0  0  0  0  0  0  0  0  0
   18.6685  -30.7917  -12.5931 C   0  0  0  0  0  0  0  0  0  0  0  0
   19.0231  -29.8799  -11.4658 C   0  0  0  0  0  0  0  0  0  0  0  0
   19.7105  -28.6080  -11.8119 C   0  0  2  0  0  0  0  0  0  0  0  0
   20.9571  -28.8546  -12.5068 N   0  0  0  0  0  0  0  0  0  0  0  0
   19.7517  -27.5424  -10.8096 C   0  0  0  0  0  0  0  0  0  0  0  0
   20.8087  -27.4353  -10.1367 O   0  0  0  0  0  0  0  0  0  0  0  0
   18.7643  -22.8242  -12.4607 C   0  0  0  0  0  0  0  0  0  0  0  0
   19.2547  -23.9138  -11.5098 C   0  0  0  0  0  0  0  0  0  0  0  0
   18.2367  -24.2630  -10.4595 C   0  0  2  0  0  0  0  0  0  0  0  0
   18.1472  -23.0756   -9.5393 C   0  0  0  0  0  0  0  0  0  0  0  0
   18.6396  -25.4911   -9.7298 C   0  0  2  0  0  0  0  0  0  0  0  0
   18.7067  -26.6677  -10.5690 N   0  0  0  0  0  0  0  0  0  0  0  0
   17.9924  -25.7998   -8.4546 C   0  0  0  0  0  0  0  0  0  0  0  0
   16.8330  -26.3842   -8.5540 O   0  0  0  0  0  0  0  0  0  0  0  0
   18.1507  -26.6803   -2.2718 N   0  0  0  0  0  0  0  0  0  0  0  0
   17.6319  -26.4415   -3.5672 C   0  0  0  0  0  0  0  0  0  0  0  0
   16.3785  -26.5441   -3.6951 O   0  0  0  0  0  0  0  0  0  0  0  0
   18.3985  -26.0907   -4.7612 C   0  0  0  0  0  0  0  0  0  0  0  0
   17.5813  -25.9066   -6.0107 C   0  0  2  0  0  0  0  0  0  0  0  0
   18.4386  -25.5639   -7.1541 N   0  0  0  0  0  0  0  0  0  0  0  0
   16.4931  -24.9320   -5.8477 C   0  0  0  0  0  0  0  0  0  0  0  0
   15.2054  -25.3964   -5.6574 O   0  0  0  0  0  0  0  0  0  0  0  0
   16.6899  -23.6995   -5.8750 O   0  0  0  0  0  0  0  0  0  0  0  0
  1  2  1  0
  2  4  1  0
  3  2  2  0
  4  5  1  0
  5  6  1  0
  6  7  1  1
  8  9  2  0
  8  6  1  0
 11 10  1  0
 11 12  1  0
 12 14  1  0
 12 13  1  1
 14 15  1  6
 15  8  1  0
 16 23  1  0
 16 14  1  0
 17 16  2  0
 18 19  1  0
 19 21  1  0
 20 19  2  0
 22 21  1  1
 22 23  1  0
 22 24  1  0
 24 25  1  0
 26 24  2  0
M  END
$$$$
