QIN.pdb
     RDKit          3D

 26 25  0  0  1  0  0  0  0  0999 V2000
   16.8802  -21.0122  -11.7928 N   0  0  0  0  0  0  0  0  0  0  0  0
   16.9922  -22.1853  -10.9772 C   0  0  0  0  0  0  0  0  0  0  0  0
   15.9761  -22.8470  -10.7555 O   0  0  0  0  0  0  0  0  0  0  0  0
   18.3025  -22.5321  -10.4496 C   0  0  0  0  0  0  0  0  0  0  0  0
   19.4303  -21.5998  -10.7445 C   0  0  0  0  0  0  0  0  0  0  0  0
   20.0606  -21.7000  -12.0872 C   0  0  2  0  0  0  0  0  0  0  0  0
   20.1242  -23.0749  -12.5384 N   0  0  0  0  0  0  0  0  0  0  0  0
   21.2519  -20.8950  -12.3602 C   0  0  0  0  0  0  0  0  0  0  0  0
   21.1736  -19.6633  -12.1184 O   0  0  0  0  0  0  0  0  0  0  0  0
   25.8945  -21.6848  -10.2940 C   0  0  0  0  0  0  0  0  0  0  0  0
   24.6950  -21.1355  -11.0630 C   0  0  0  0  0  0  0  0  0  0  0  0
   24.8616  -21.2555  -12.5527 C   0  0  2  0  0  0  0  0  0  0  0  0
   26.0895  -20.4625  -12.9108 C   0  0  0  0  0  0  0  0  0  0  0  0
   23.6576  -20.7461  -13.2554 C   0  0  2  0  0  0  0  0  0  0  0  0
   22.4336  -21.4104  -12.8632 N   0  0  0  0  0  0  0  0  0  0  0  0
   23.7088  -20.5678  -14.7066 C   0  0  0  0  0  0  0  0  0  0  0  0
   23.1519  -21.5209  -15.3974 O   0  0  0  0  0  0  0  0  0  0  0  0
   22.1379  -18.1404  -19.0566 N   0  0  0  0  0  0  0  0  0  0  0  0
   21.5337  -18.3654  -17.7962 C   0  0  0  0  0  0  0  0  0  0  0  0
   20.2934  -18.1329  -17.7214 O   0  0  0  0  0  0  0  0  0  0  0  0
   22.1993  -18.8364  -16.5832 C   0  0  0  0  0  0  0  0  0  0  0  0
   23.6623  -19.1488  -16.7406 C   0  0  2  0  0  0  0  0  0  0  0  0
   24.2611  -19.5265  -15.4528 N   0  0  0  0  0  0  0  0  0  0  0  0
   24.4165  -18.0624  -17.3823 C   0  0  0  0  0  0  0  0  0  0  0  0
   25.5051  -17.5259  -16.7212 O   0  0  0  0  0  0  0  0  0  0  0  0
   24.1093  -17.6066  -18.5032 O   0  0  0  0  0  0  0  0  0  0  0  0
  1  2  1  0
  2  4  1  0
  3  2  2  0
  4  5  1  0
  5  6  1  0
  6  7  1  1
  8  9  2  0
  8  6  1  0
 11 10  1  0
 11 12  1  0
 12 14  1  0
 12 13  1  6
 14 15  1  6
 15  8  1  0
 16 23  1  0
 16 14  1  0
 17 16  2  0
 18 19  1  0
 19 21  1  0
 20 19  2  0
 22 21  1  1
 22 23  1  0
 22 24  1  0
 24 25  1  0
 26 24  2  0
M  END
$$$$
