QIN.pdb
     RDKit          3D

 26 25  0  0  1  0  0  0  0  0999 V2000
   10.6875  -20.9372   -0.4809 N   0  0  0  0  0  0  0  0  0  0  0  0
   10.5515  -21.4418   -1.8155 C   0  0  0  0  0  0  0  0  0  0  0  0
    9.6159  -21.0336   -2.5063 O   0  0  0  0  0  0  0  0  0  0  0  0
   11.5259  -22.4146   -2.2842 C   0  0  0  0  0  0  0  0  0  0  0  0
   12.5979  -22.8271   -1.3308 C   0  0  0  0  0  0  0  0  0  0  0  0
   13.9641  -22.2933   -1.5732 C   0  0  2  0  0  0  0  0  0  0  0  0
   14.3850  -22.5227   -2.9400 N   0  0  0  0  0  0  0  0  0  0  0  0
   14.9911  -22.5174   -0.5550 C   0  0  0  0  0  0  0  0  0  0  0  0
   15.9245  -23.3060   -0.8528 O   0  0  0  0  0  0  0  0  0  0  0  0
   17.2426  -18.3712    1.8555 C   0  0  0  0  0  0  0  0  0  0  0  0
   16.9846  -19.7852    1.3395 C   0  0  0  0  0  0  0  0  0  0  0  0
   16.2716  -20.6449    2.3464 C   0  0  2  0  0  0  0  0  0  0  0  0
   17.1892  -20.7635    3.5333 C   0  0  0  0  0  0  0  0  0  0  0  0
   15.9533  -21.9735    1.7665 C   0  0  2  0  0  0  0  0  0  0  0  0
   14.9846  -21.9198    0.6932 N   0  0  0  0  0  0  0  0  0  0  0  0
   15.6658  -23.0882    2.6692 C   0  0  0  0  0  0  0  0  0  0  0  0
   14.5089  -23.0294    3.2641 O   0  0  0  0  0  0  0  0  0  0  0  0
   16.6681  -28.8841    4.7654 N   0  0  0  0  0  0  0  0  0  0  0  0
   16.1557  -27.5678    4.6709 C   0  0  0  0  0  0  0  0  0  0  0  0
   15.1890  -27.2879    5.4360 O   0  0  0  0  0  0  0  0  0  0  0  0
   16.6319  -26.5098    3.7821 C   0  0  0  0  0  0  0  0  0  0  0  0
   15.9801  -25.1689    3.9826 C   0  0  2  0  0  0  0  0  0  0  0  0
   16.4467  -24.2019    2.9792 N   0  0  0  0  0  0  0  0  0  0  0  0
   16.1473  -24.6464    5.3463 C   0  0  0  0  0  0  0  0  0  0  0  0
   15.1142  -24.8019    6.2511 O   0  0  0  0  0  0  0  0  0  0  0  0
   17.1891  -24.0670    5.7172 O   0  0  0  0  0  0  0  0  0  0  0  0
  1  2  1  0
  2  4  1  0
  3  2  2  0
  4  5  1  0
  5  6  1  0
  6  7  1  6
  8  9  2  0
  8  6  1  0
 11 10  1  0
 11 12  1  0
 12 14  1  0
 12 13  1  1
 14 15  1  6
 15  8  1  0
 16 23  1  0
 16 14  1  0
 17 16  2  0
 18 19  1  0
 19 21  1  0
 20 19  2  0
 22 21  1  1
 22 23  1  0
 22 24  1  0
 24 25  1  0
 26 24  2  0
M  END
$$$$
