QIN.pdb
     RDKit          3D

 26 25  0  0  1  0  0  0  0  0999 V2000
   20.4362  -12.0511  -20.9499 N   0  0  0  0  0  0  0  0  0  0  0  0
   19.2981  -12.8394  -20.5793 C   0  0  0  0  0  0  0  0  0  0  0  0
   18.7558  -13.5321  -21.4427 O   0  0  0  0  0  0  0  0  0  0  0  0
   18.8398  -12.7774  -19.2003 C   0  0  0  0  0  0  0  0  0  0  0  0
   19.5943  -11.8920  -18.2649 C   0  0  0  0  0  0  0  0  0  0  0  0
   20.7216  -12.5029  -17.5126 C   0  0  2  0  0  0  0  0  0  0  0  0
   20.4396  -13.8811  -17.1674 N   0  0  0  0  0  0  0  0  0  0  0  0
   21.3689  -11.7139  -16.4638 C   0  0  0  0  0  0  0  0  0  0  0  0
   20.7072  -11.5125  -15.4134 O   0  0  0  0  0  0  0  0  0  0  0  0
   26.5820  -12.4022  -15.3594 C   0  0  0  0  0  0  0  0  0  0  0  0
   25.1057  -12.0273  -15.2506 C   0  0  0  0  0  0  0  0  0  0  0  0
   24.8420  -10.6021  -15.6514 C   0  0  2  0  0  0  0  0  0  0  0  0
   25.5556   -9.7368  -14.6481 C   0  0  0  0  0  0  0  0  0  0  0  0
   23.3837  -10.3267  -15.6718 C   0  0  2  0  0  0  0  0  0  0  0  0
   22.6443  -11.1873  -16.5695 N   0  0  0  0  0  0  0  0  0  0  0  0
   22.9277   -8.9416  -15.7883 C   0  0  0  0  0  0  0  0  0  0  0  0
   23.1554   -8.3832  -16.9425 O   0  0  0  0  0  0  0  0  0  0  0  0
   18.9995   -4.6340  -15.6575 N   0  0  0  0  0  0  0  0  0  0  0  0
   20.2099   -5.2318  -16.0839 C   0  0  0  0  0  0  0  0  0  0  0  0
   20.9899   -4.4975  -16.7550 O   0  0  0  0  0  0  0  0  0  0  0  0
   20.6416   -6.6041  -15.8257 C   0  0  0  0  0  0  0  0  0  0  0  0
   21.9852   -6.7341  -15.1619 C   0  0  2  0  0  0  0  0  0  0  0  0
   22.2828   -8.1385  -14.8473 N   0  0  0  0  0  0  0  0  0  0  0  0
   22.1250   -5.8795  -13.9742 C   0  0  0  0  0  0  0  0  0  0  0  0
   22.1087   -4.5069  -14.1351 O   0  0  0  0  0  0  0  0  0  0  0  0
   22.2580   -6.3485  -12.8249 O   0  0  0  0  0  0  0  0  0  0  0  0
  1  2  1  0
  2  4  1  0
  3  2  2  0
  4  5  1  0
  5  6  1  0
  6  7  1  1
  8  9  2  0
  8  6  1  0
 11 10  1  0
 11 12  1  0
 12 14  1  0
 12 13  1  1
 14 15  1  6
 15  8  1  0
 16 23  1  0
 16 14  1  0
 17 16  2  0
 18 19  1  0
 19 21  1  0
 20 19  2  0
 22 21  1  1
 22 23  1  0
 22 24  1  0
 24 25  1  0
 26 24  2  0
M  END
$$$$
