KNN.pdb
     RDKit          3D

 26 25  0  0  1  0  0  0  0  0999 V2000
   22.3767  -22.6649  -17.9341 N   0  0  0  0  0  0  0  0  0  0  0  0
   21.0231  -22.6091  -17.4207 C   0  0  1  0  0  0  0  0  0  0  0  0
   20.4987  -23.9338  -16.9698 C   0  0  0  0  0  0  0  0  0  0  0  0
   21.4725  -25.0681  -17.1023 C   0  0  0  0  0  0  0  0  0  0  0  0
   21.0400  -26.3364  -16.4318 C   0  0  0  0  0  0  0  0  0  0  0  0
   22.1244  -27.4059  -16.5207 C   0  0  0  0  0  0  0  0  0  0  0  0
   21.6567  -28.5495  -15.7582 N   0  0  0  0  0  0  0  0  0  0  0  0
   20.7658  -21.4832  -16.5154 C   0  0  0  0  0  0  0  0  0  0  0  0
   19.6177  -21.3351  -16.0671 O   0  0  0  0  0  0  0  0  0  0  0  0
   20.7406  -21.1137  -13.0982 N   0  0  0  0  0  0  0  0  0  0  0  0
   22.0059  -20.4336  -12.9815 C   0  0  0  0  0  0  0  0  0  0  0  0
   22.6583  -20.7016  -11.9498 O   0  0  0  0  0  0  0  0  0  0  0  0
   22.4359  -19.4962  -14.0513 C   0  0  0  0  0  0  0  0  0  0  0  0
   21.4689  -19.4882  -15.2150 C   0  0  2  0  0  0  0  0  0  0  0  0
   21.7573  -20.5460  -16.1200 N   0  0  0  0  0  0  0  0  0  0  0  0
   21.5682  -18.1395  -15.8496 C   0  0  0  0  0  0  0  0  0  0  0  0
   21.3995  -17.0902  -15.2104 O   0  0  0  0  0  0  0  0  0  0  0  0
   25.2266  -18.1059  -18.1449 N   0  0  0  0  0  0  0  0  0  0  0  0
   24.4517  -16.9240  -18.0333 C   0  0  0  0  0  0  0  0  0  0  0  0
   24.8513  -16.0446  -17.2509 O   0  0  0  0  0  0  0  0  0  0  0  0
   23.2217  -16.8050  -18.8468 C   0  0  0  0  0  0  0  0  0  0  0  0
   21.9598  -16.9863  -18.0865 C   0  0  2  0  0  0  0  0  0  0  0  0
   21.8690  -18.1103  -17.2342 N   0  0  0  0  0  0  0  0  0  0  0  0
   20.7453  -16.7187  -18.9120 C   0  0  0  0  0  0  0  0  0  0  0  0
   20.7431  -15.7007  -19.6995 O   0  0  0  0  0  0  0  0  0  0  0  0
   19.5921  -17.4490  -18.9293 O   0  0  0  0  0  0  0  0  0  0  0  0
  2  1  1  1
  3  2  1  0
  4  3  1  0
  4  5  1  0
  6  5  1  0
  7  6  1  0
  8  9  2  0
  8  2  1  0
 10 11  1  0
 11 12  2  0
 11 13  1  0
 14 13  1  1
 14 15  1  0
 15  8  1  0
 16 23  1  0
 16 14  1  0
 17 16  2  0
 19 18  1  0
 20 19  2  0
 21 19  1  0
 22 21  1  6
 22 23  1  0
 24 26  1  0
 24 22  1  0
 25 24  2  0
M  END
$$$$
