KNN.pdb
     RDKit          3D

 26 25  0  0  1  0  0  0  0  0999 V2000
   18.0330  -14.3854  -16.3909 N   0  0  0  0  0  0  0  0  0  0  0  0
   19.0694  -13.9271  -17.2936 C   0  0  1  0  0  0  0  0  0  0  0  0
   19.1739  -14.7367  -18.5453 C   0  0  0  0  0  0  0  0  0  0  0  0
   19.0094  -16.2153  -18.3475 C   0  0  0  0  0  0  0  0  0  0  0  0
   20.2857  -16.9475  -18.0643 C   0  0  0  0  0  0  0  0  0  0  0  0
   20.0446  -18.4484  -17.9351 C   0  0  0  0  0  0  0  0  0  0  0  0
   21.3417  -19.0721  -17.7442 N   0  0  0  0  0  0  0  0  0  0  0  0
   19.1140  -12.4714  -17.4737 C   0  0  0  0  0  0  0  0  0  0  0  0
   19.9060  -12.0025  -18.3066 O   0  0  0  0  0  0  0  0  0  0  0  0
   16.7344  -10.8591  -18.9318 N   0  0  0  0  0  0  0  0  0  0  0  0
   16.2405   -9.8889  -17.9875 C   0  0  0  0  0  0  0  0  0  0  0  0
   15.0845   -9.4710  -18.2129 O   0  0  0  0  0  0  0  0  0  0  0  0
   17.1019   -9.4652  -16.8531 C   0  0  0  0  0  0  0  0  0  0  0  0
   18.4491  -10.1535  -16.8815 C   0  0  2  0  0  0  0  0  0  0  0  0
   18.3013  -11.5611  -16.7467 N   0  0  0  0  0  0  0  0  0  0  0  0
   19.2658   -9.5492  -15.7866 C   0  0  0  0  0  0  0  0  0  0  0  0
   19.0156   -9.7413  -14.5871 O   0  0  0  0  0  0  0  0  0  0  0  0
   24.0841  -10.3158  -16.5693 N   0  0  0  0  0  0  0  0  0  0  0  0
   23.1477   -9.8223  -15.6261 C   0  0  0  0  0  0  0  0  0  0  0  0
   22.6993  -10.6218  -14.7866 O   0  0  0  0  0  0  0  0  0  0  0  0
   22.7602   -8.3960  -15.6937 C   0  0  0  0  0  0  0  0  0  0  0  0
   21.3372   -8.1277  -15.3671 C   0  0  2  0  0  0  0  0  0  0  0  0
   20.3561   -8.7353  -16.1834 N   0  0  0  0  0  0  0  0  0  0  0  0
   21.0823   -6.6958  -15.0313 C   0  0  0  0  0  0  0  0  0  0  0  0
   20.4938   -5.9508  -15.9003 O   0  0  0  0  0  0  0  0  0  0  0  0
   21.4149   -6.0569  -13.8718 O   0  0  0  0  0  0  0  0  0  0  0  0
  2  1  1  6
  3  2  1  0
  4  3  1  0
  4  5  1  0
  6  5  1  0
  7  6  1  0
  8  9  2  0
  8  2  1  0
 10 11  1  0
 11 12  2  0
 11 13  1  0
 14 13  1  1
 14 15  1  0
 15  8  1  0
 16 23  1  0
 16 14  1  0
 17 16  2  0
 19 18  1  0
 20 19  2  0
 21 19  1  0
 22 21  1  6
 22 23  1  0
 24 26  1  0
 24 22  1  0
 25 24  2  0
M  END
$$$$
