KNN.pdb
     RDKit          3D

 26 25  0  0  1  0  0  0  0  0999 V2000
   27.8605  -17.7718  -17.5009 N   0  0  0  0  0  0  0  0  0  0  0  0
   27.1310  -18.6568  -16.6157 C   0  0  1  0  0  0  0  0  0  0  0  0
   27.9405  -19.1474  -15.4593 C   0  0  0  0  0  0  0  0  0  0  0  0
   28.7898  -20.3483  -15.7571 C   0  0  0  0  0  0  0  0  0  0  0  0
   28.0952  -21.4177  -16.5441 C   0  0  0  0  0  0  0  0  0  0  0  0
   28.9899  -22.6402  -16.7246 C   0  0  0  0  0  0  0  0  0  0  0  0
   28.2506  -23.5918  -17.5344 N   0  0  0  0  0  0  0  0  0  0  0  0
   25.7728  -18.2044  -16.2933 C   0  0  0  0  0  0  0  0  0  0  0  0
   25.5290  -17.8472  -15.1297 O   0  0  0  0  0  0  0  0  0  0  0  0
   21.2124  -15.0804  -17.6003 N   0  0  0  0  0  0  0  0  0  0  0  0
   21.4017  -16.5016  -17.7460 C   0  0  0  0  0  0  0  0  0  0  0  0
   20.3771  -17.1938  -17.5653 O   0  0  0  0  0  0  0  0  0  0  0  0
   22.7475  -17.0309  -18.0876 C   0  0  0  0  0  0  0  0  0  0  0  0
   23.4244  -17.6627  -16.8909 C   0  0  2  0  0  0  0  0  0  0  0  0
   24.7135  -18.1516  -17.2381 N   0  0  0  0  0  0  0  0  0  0  0  0
   22.5116  -18.7364  -16.3956 C   0  0  0  0  0  0  0  0  0  0  0  0
   22.5138  -19.8821  -16.8704 O   0  0  0  0  0  0  0  0  0  0  0  0
   20.2767  -21.9535  -14.4287 N   0  0  0  0  0  0  0  0  0  0  0  0
   21.0698  -21.3826  -13.4016 C   0  0  0  0  0  0  0  0  0  0  0  0
   21.5158  -22.1446  -12.5268 O   0  0  0  0  0  0  0  0  0  0  0  0
   21.3193  -19.9244  -13.4284 C   0  0  0  0  0  0  0  0  0  0  0  0
   20.7600  -19.2249  -14.6121 C   0  0  2  0  0  0  0  0  0  0  0  0
   21.6303  -18.3843  -15.3430 N   0  0  0  0  0  0  0  0  0  0  0  0
   19.4004  -18.6625  -14.3608 C   0  0  0  0  0  0  0  0  0  0  0  0
   18.4877  -19.4360  -13.8864 O   0  0  0  0  0  0  0  0  0  0  0  0
   18.9927  -17.3794  -14.5864 O   0  0  0  0  0  0  0  0  0  0  0  0
  2  1  1  1
  3  2  1  0
  4  3  1  0
  4  5  1  0
  6  5  1  0
  7  6  1  0
  8  9  2  0
  8  2  1  0
 10 11  1  0
 11 12  2  0
 11 13  1  0
 14 13  1  6
 14 15  1  0
 15  8  1  0
 16 23  1  0
 16 14  1  0
 17 16  2  0
 19 18  1  0
 20 19  2  0
 21 19  1  0
 22 21  1  1
 22 23  1  0
 24 26  1  0
 24 22  1  0
 25 24  2  0
M  END
$$$$
