KNN.pdb
     RDKit          3D

 26 25  0  0  1  0  0  0  0  0999 V2000
   21.6338  -22.2996  -13.4559 N   0  0  0  0  0  0  0  0  0  0  0  0
   21.6539  -20.8519  -13.4033 C   0  0  1  0  0  0  0  0  0  0  0  0
   20.4746  -20.2619  -12.7002 C   0  0  0  0  0  0  0  0  0  0  0  0
   19.1502  -20.8305  -13.1185 C   0  0  0  0  0  0  0  0  0  0  0  0
   18.6669  -21.9646  -12.2667 C   0  0  0  0  0  0  0  0  0  0  0  0
   17.3114  -22.4760  -12.7448 C   0  0  0  0  0  0  0  0  0  0  0  0
   16.9163  -23.5413  -11.8409 N   0  0  0  0  0  0  0  0  0  0  0  0
   22.9570  -20.2779  -13.0483 C   0  0  0  0  0  0  0  0  0  0  0  0
   23.0640  -19.0424  -12.9941 O   0  0  0  0  0  0  0  0  0  0  0  0
   23.8211  -20.4564  -10.3362 N   0  0  0  0  0  0  0  0  0  0  0  0
   25.1529  -20.9889  -10.1959 C   0  0  0  0  0  0  0  0  0  0  0  0
   25.4267  -21.4394   -9.0629 O   0  0  0  0  0  0  0  0  0  0  0  0
   26.0768  -20.9691  -11.3596 C   0  0  0  0  0  0  0  0  0  0  0  0
   25.3943  -20.4639  -12.6119 C   0  0  2  0  0  0  0  0  0  0  0  0
   24.1106  -21.0560  -12.7628 N   0  0  0  0  0  0  0  0  0  0  0  0
   26.3091  -20.7651  -13.7537 C   0  0  0  0  0  0  0  0  0  0  0  0
   27.0938  -21.7254  -13.7412 O   0  0  0  0  0  0  0  0  0  0  0  0
   28.6669  -22.7594  -16.5255 N   0  0  0  0  0  0  0  0  0  0  0  0
   27.3167  -22.5037  -16.1771 C   0  0  0  0  0  0  0  0  0  0  0  0
   26.7849  -23.2545  -15.3413 O   0  0  0  0  0  0  0  0  0  0  0  0
   26.6225  -21.3677  -16.8226 C   0  0  0  0  0  0  0  0  0  0  0  0
   26.8200  -20.0605  -16.1474 C   0  0  2  0  0  0  0  0  0  0  0  0
   26.2399  -19.8937  -14.8692 N   0  0  0  0  0  0  0  0  0  0  0  0
   26.6536  -18.9018  -17.0736 C   0  0  0  0  0  0  0  0  0  0  0  0
   25.5206  -18.2921  -17.1061 O   0  0  0  0  0  0  0  0  0  0  0  0
   27.5927  -18.3951  -17.9249 O   0  0  0  0  0  0  0  0  0  0  0  0
  2  1  1  1
  3  2  1  0
  4  3  1  0
  4  5  1  0
  6  5  1  0
  7  6  1  0
  8  9  2  0
  8  2  1  0
 10 11  1  0
 11 12  2  0
 11 13  1  0
 14 13  1  1
 14 15  1  0
 15  8  1  0
 16 23  1  0
 16 14  1  0
 17 16  2  0
 19 18  1  0
 20 19  2  0
 21 19  1  0
 22 21  1  6
 22 23  1  0
 24 26  1  0
 24 22  1  0
 25 24  2  0
M  END
$$$$
