KNN.pdb
     RDKit          3D

 26 25  0  0  1  0  0  0  0  0999 V2000
   17.9158  -12.1701  -17.2257 N   0  0  0  0  0  0  0  0  0  0  0  0
   17.3991  -11.0042  -16.5381 C   0  0  1  0  0  0  0  0  0  0  0  0
   16.1754  -11.2813  -15.7264 C   0  0  0  0  0  0  0  0  0  0  0  0
   15.1968  -12.2176  -16.3730 C   0  0  0  0  0  0  0  0  0  0  0  0
   13.9099  -12.3822  -15.6232 C   0  0  0  0  0  0  0  0  0  0  0  0
   12.9956  -13.3922  -16.3099 C   0  0  0  0  0  0  0  0  0  0  0  0
   11.8411  -13.5742  -15.4486 N   0  0  0  0  0  0  0  0  0  0  0  0
   18.4248  -10.1860  -15.8808 C   0  0  0  0  0  0  0  0  0  0  0  0
   18.0782   -9.4328  -14.9570 O   0  0  0  0  0  0  0  0  0  0  0  0
   23.7831  -10.0737  -13.6782 N   0  0  0  0  0  0  0  0  0  0  0  0
   23.1630   -9.4366  -14.8124 C   0  0  0  0  0  0  0  0  0  0  0  0
   23.5677   -8.2799  -15.0572 O   0  0  0  0  0  0  0  0  0  0  0  0
   22.1250  -10.1660  -15.5863 C   0  0  0  0  0  0  0  0  0  0  0  0
   20.7763   -9.4854  -15.4997 C   0  0  2  0  0  0  0  0  0  0  0  0
   19.7986  -10.2032  -16.2415 N   0  0  0  0  0  0  0  0  0  0  0  0
   20.9657   -8.0876  -15.9912 C   0  0  0  0  0  0  0  0  0  0  0  0
   21.2215   -7.8289  -17.1769 O   0  0  0  0  0  0  0  0  0  0  0  0
   19.8231   -2.8823  -16.8701 N   0  0  0  0  0  0  0  0  0  0  0  0
   19.9218   -3.4206  -15.5623 C   0  0  0  0  0  0  0  0  0  0  0  0
   20.1792   -2.6354  -14.6337 O   0  0  0  0  0  0  0  0  0  0  0  0
   19.7150   -4.8740  -15.3779 C   0  0  0  0  0  0  0  0  0  0  0  0
   20.9648   -5.6595  -15.2221 C   0  0  2  0  0  0  0  0  0  0  0  0
   20.8375   -7.0542  -15.0299 N   0  0  0  0  0  0  0  0  0  0  0  0
   21.9621   -4.9877  -14.3377 C   0  0  0  0  0  0  0  0  0  0  0  0
   22.0636   -5.3725  -13.1138 O   0  0  0  0  0  0  0  0  0  0  0  0
   22.8078   -3.9734  -14.6832 O   0  0  0  0  0  0  0  0  0  0  0  0
  2  1  1  1
  3  2  1  0
  4  3  1  0
  4  5  1  0
  6  5  1  0
  7  6  1  0
  8  9  2  0
  8  2  1  0
 10 11  1  0
 11 12  2  0
 11 13  1  0
 14 13  1  6
 14 15  1  0
 15  8  1  0
 16 23  1  0
 16 14  1  0
 17 16  2  0
 19 18  1  0
 20 19  2  0
 21 19  1  0
 22 21  1  1
 22 23  1  0
 24 26  1  0
 24 22  1  0
 25 24  2  0
M  END
$$$$
