KNN.pdb
     RDKit          3D

 26 25  0  0  1  0  0  0  0  0999 V2000
   16.4389  -13.2169  -18.4657 N   0  0  0  0  0  0  0  0  0  0  0  0
   16.7715  -12.7637  -17.1304 C   0  0  1  0  0  0  0  0  0  0  0  0
   17.9052  -13.5130  -16.5090 C   0  0  0  0  0  0  0  0  0  0  0  0
   17.7232  -15.0023  -16.4725 C   0  0  0  0  0  0  0  0  0  0  0  0
   18.9230  -15.7608  -15.9924 C   0  0  0  0  0  0  0  0  0  0  0  0
   18.6858  -17.2666  -16.0541 C   0  0  0  0  0  0  0  0  0  0  0  0
   19.8999  -17.9076  -15.5819 N   0  0  0  0  0  0  0  0  0  0  0  0
   16.8175  -11.3046  -16.9812 C   0  0  0  0  0  0  0  0  0  0  0  0
   17.3709  -10.6364  -17.8691 O   0  0  0  0  0  0  0  0  0  0  0  0
   16.3147   -6.4341  -15.6329 N   0  0  0  0  0  0  0  0  0  0  0  0
   15.1904   -7.1268  -15.0557 C   0  0  0  0  0  0  0  0  0  0  0  0
   14.3136   -6.3896  -14.5562 O   0  0  0  0  0  0  0  0  0  0  0  0
   15.1476   -8.6118  -15.0902 C   0  0  0  0  0  0  0  0  0  0  0  0
   16.3799   -9.1954  -15.7461 C   0  0  2  0  0  0  0  0  0  0  0  0
   16.2648  -10.6067  -15.8744 N   0  0  0  0  0  0  0  0  0  0  0  0
   17.5489   -8.7829  -14.9127 C   0  0  0  0  0  0  0  0  0  0  0  0
   17.7346   -9.2180  -13.7663 O   0  0  0  0  0  0  0  0  0  0  0  0
   22.1293   -7.5856  -12.9897 N   0  0  0  0  0  0  0  0  0  0  0  0
   21.9884   -8.2781  -14.2187 C   0  0  0  0  0  0  0  0  0  0  0  0
   23.0211   -8.5145  -14.8688 O   0  0  0  0  0  0  0  0  0  0  0  0
   20.6319   -8.6767  -14.6547 C   0  0  0  0  0  0  0  0  0  0  0  0
   19.7707   -7.5511  -15.0962 C   0  0  2  0  0  0  0  0  0  0  0  0
   18.4510   -7.8596  -15.4978 N   0  0  0  0  0  0  0  0  0  0  0  0
   20.4906   -6.5852  -15.9776 C   0  0  0  0  0  0  0  0  0  0  0  0
   21.6401   -6.1431  -15.6039 O   0  0  0  0  0  0  0  0  0  0  0  0
   20.0579   -6.0930  -17.1750 O   0  0  0  0  0  0  0  0  0  0  0  0
  2  1  1  6
  3  2  1  0
  4  3  1  0
  4  5  1  0
  6  5  1  0
  7  6  1  0
  8  9  2  0
  8  2  1  0
 10 11  1  0
 11 12  2  0
 11 13  1  0
 14 13  1  1
 14 15  1  0
 15  8  1  0
 16 23  1  0
 16 14  1  0
 17 16  2  0
 19 18  1  0
 20 19  2  0
 21 19  1  0
 22 21  1  6
 22 23  1  0
 24 26  1  0
 24 22  1  0
 25 24  2  0
M  END
$$$$
