KNN.pdb
     RDKit          3D

 26 25  0  0  1  0  0  0  0  0999 V2000
   17.0129  -10.5128  -16.2834 N   0  0  0  0  0  0  0  0  0  0  0  0
   16.9804  -11.1704  -14.9929 C   0  0  1  0  0  0  0  0  0  0  0  0
   17.5490  -12.5522  -15.0106 C   0  0  0  0  0  0  0  0  0  0  0  0
   16.7355  -13.5519  -15.7795 C   0  0  0  0  0  0  0  0  0  0  0  0
   16.1436  -14.6439  -14.9413 C   0  0  0  0  0  0  0  0  0  0  0  0
   15.2072  -15.5249  -15.7627 C   0  0  0  0  0  0  0  0  0  0  0  0
   14.6397  -16.5046  -14.8538 N   0  0  0  0  0  0  0  0  0  0  0  0
   17.4049  -10.3237  -13.8720 C   0  0  0  0  0  0  0  0  0  0  0  0
   17.3639  -10.7965  -12.7250 O   0  0  0  0  0  0  0  0  0  0  0  0
   20.8567   -8.9347  -13.4473 N   0  0  0  0  0  0  0  0  0  0  0  0
   20.5416   -7.5357  -13.5901 C   0  0  0  0  0  0  0  0  0  0  0  0
   21.4990   -6.8094  -13.9331 O   0  0  0  0  0  0  0  0  0  0  0  0
   19.1558   -7.0660  -13.3312 C   0  0  0  0  0  0  0  0  0  0  0  0
   18.2481   -8.1985  -12.9035 C   0  0  2  0  0  0  0  0  0  0  0  0
   17.8612   -8.9869  -14.0216 N   0  0  0  0  0  0  0  0  0  0  0  0
   17.0847   -7.5779  -12.2018 C   0  0  0  0  0  0  0  0  0  0  0  0
   15.9755   -7.4475  -12.7411 O   0  0  0  0  0  0  0  0  0  0  0  0
   13.4557   -7.1837   -7.9566 N   0  0  0  0  0  0  0  0  0  0  0  0
   14.0808   -6.4714   -9.0110 C   0  0  0  0  0  0  0  0  0  0  0  0
   13.7889   -5.2710   -9.1481 O   0  0  0  0  0  0  0  0  0  0  0  0
   15.0368   -7.1908   -9.8814 C   0  0  0  0  0  0  0  0  0  0  0  0
   16.3782   -6.5622   -9.9754 C   0  0  2  0  0  0  0  0  0  0  0  0
   17.3060   -7.1387  -10.8726 N   0  0  0  0  0  0  0  0  0  0  0  0
   16.9357   -6.1898   -8.6417 C   0  0  0  0  0  0  0  0  0  0  0  0
   16.2209   -5.4690   -7.8506 O   0  0  0  0  0  0  0  0  0  0  0  0
   18.1599   -6.5313   -8.1438 O   0  0  0  0  0  0  0  0  0  0  0  0
  2  1  1  6
  3  2  1  0
  4  3  1  0
  4  5  1  0
  6  5  1  0
  7  6  1  0
  8  9  2  0
  8  2  1  0
 10 11  1  0
 11 12  2  0
 11 13  1  0
 14 13  1  6
 14 15  1  0
 15  8  1  0
 16 23  1  0
 16 14  1  0
 17 16  2  0
 19 18  1  0
 20 19  2  0
 21 19  1  0
 22 21  1  1
 22 23  1  0
 24 26  1  0
 24 22  1  0
 25 24  2  0
M  END
$$$$
