KNN.pdb
     RDKit          3D

 26 25  0  0  1  0  0  0  0  0999 V2000
   21.8661  -10.7532  -17.8333 N   0  0  0  0  0  0  0  0  0  0  0  0
   20.4989  -10.2759  -17.7898 C   0  0  1  0  0  0  0  0  0  0  0  0
   19.4841  -11.3712  -17.7285 C   0  0  0  0  0  0  0  0  0  0  0  0
   20.0557  -12.7564  -17.8105 C   0  0  0  0  0  0  0  0  0  0  0  0
   19.0359  -13.8519  -17.7378 C   0  0  0  0  0  0  0  0  0  0  0  0
   19.6757  -15.2183  -17.9640 C   0  0  0  0  0  0  0  0  0  0  0  0
   18.6206  -16.2076  -17.8375 N   0  0  0  0  0  0  0  0  0  0  0  0
   20.2789   -9.1547  -16.8689 C   0  0  0  0  0  0  0  0  0  0  0  0
   19.1181   -8.9065  -16.5058 O   0  0  0  0  0  0  0  0  0  0  0  0
   22.4950   -4.6841  -13.7090 N   0  0  0  0  0  0  0  0  0  0  0  0
   21.9227   -5.9928  -13.5171 C   0  0  0  0  0  0  0  0  0  0  0  0
   21.2111   -6.1156  -12.4972 O   0  0  0  0  0  0  0  0  0  0  0  0
   22.2039   -7.0679  -14.5038 C   0  0  0  0  0  0  0  0  0  0  0  0
   21.0595   -7.2530  -15.4761 C   0  0  2  0  0  0  0  0  0  0  0  0
   21.3208   -8.3304  -16.3662 N   0  0  0  0  0  0  0  0  0  0  0  0
   20.8775   -5.9492  -16.1821 C   0  0  0  0  0  0  0  0  0  0  0  0
   21.6923   -5.5253  -17.0155 O   0  0  0  0  0  0  0  0  0  0  0  0
   18.4805   -1.6153  -17.6192 N   0  0  0  0  0  0  0  0  0  0  0  0
   17.5151   -2.6526  -17.5728 C   0  0  0  0  0  0  0  0  0  0  0  0
   16.3979   -2.4227  -18.0668 O   0  0  0  0  0  0  0  0  0  0  0  0
   17.8885   -3.9388  -16.9441 C   0  0  0  0  0  0  0  0  0  0  0  0
   19.2724   -3.9848  -16.4093 C   0  0  2  0  0  0  0  0  0  0  0  0
   19.7157   -5.2069  -15.8542 N   0  0  0  0  0  0  0  0  0  0  0  0
   19.6277   -2.7670  -15.6226 C   0  0  0  0  0  0  0  0  0  0  0  0
   19.4559   -1.6102  -16.1598 O   0  0  0  0  0  0  0  0  0  0  0  0
   20.1359   -2.7321  -14.3562 O   0  0  0  0  0  0  0  0  0  0  0  0
  2  1  1  1
  3  2  1  0
  4  3  1  0
  4  5  1  0
  6  5  1  0
  7  6  1  0
  8  9  2  0
  8  2  1  0
 10 11  1  0
 11 12  2  0
 11 13  1  0
 14 13  1  1
 14 15  1  0
 15  8  1  0
 16 23  1  0
 16 14  1  0
 17 16  2  0
 19 18  1  0
 20 19  2  0
 21 19  1  0
 22 21  1  1
 22 23  1  0
 24 26  1  0
 24 22  1  0
 25 24  2  0
M  END
$$$$
