VVF.pdb
     RDKit          3D

 26 26  0  0  1  0  0  0  0  0999 V2000
    9.0337  -12.7104   20.2101 C   0  0  0  0  0  0  0  0  0  0  0  0
    8.0234  -13.4154   19.3362 C   0  0  1  0  0  0  0  0  0  0  0  0
    7.8742  -12.6728   18.0538 C   0  0  0  0  0  0  0  0  0  0  0  0
    8.4294  -14.8316   19.0932 C   0  0  2  0  0  0  0  0  0  0  0  0
    7.4146  -15.4062   18.1824 N   0  0  0  0  0  0  0  0  0  0  0  0
    8.3641  -15.6073   20.3410 C   0  0  0  0  0  0  0  0  0  0  0  0
    7.2308  -15.7665   20.9002 O   0  0  0  0  0  0  0  0  0  0  0  0
    9.7344  -19.3217   23.1728 C   0  0  0  0  0  0  0  0  0  0  0  0
    9.7353  -18.4179   21.9792 C   0  0  1  0  0  0  0  0  0  0  0  0
    8.9037  -19.0927   20.9044 C   0  0  0  0  0  0  0  0  0  0  0  0
    9.2356  -17.0157   22.2407 C   0  0  2  0  0  0  0  0  0  0  0  0
    9.4508  -16.2178   21.0099 N   0  0  0  0  0  0  0  0  0  0  0  0
    9.9056  -16.3429   23.3756 C   0  0  0  0  0  0  0  0  0  0  0  0
   11.1026  -15.9016   23.2649 O   0  0  0  0  0  0  0  0  0  0  0  0
    9.3222  -16.1217   24.6451 N   0  0  0  0  0  0  0  0  0  0  0  0
   10.0787  -15.6095   25.7864 C   0  0  1  0  0  0  0  0  0  0  0  0
    9.8797  -14.0992   25.7448 C   0  0  0  0  0  0  0  0  0  0  0  0
    8.5635  -13.6669   26.2214 C   0  0  0  0  0  0  0  0  0  0  0  0
    8.3468  -13.0659   27.4460 C   0  0  0  0  0  0  0  0  0  0  0  0
    7.0890  -12.6672   27.8685 C   0  0  0  0  0  0  0  0  0  0  0  0
    5.9930  -12.8630   27.0615 C   0  0  0  0  0  0  0  0  0  0  0  0
    6.1749  -13.4589   25.8358 C   0  0  0  0  0  0  0  0  0  0  0  0
    7.4299  -13.8526   25.4231 C   0  0  0  0  0  0  0  0  0  0  0  0
    9.6600  -16.2194   27.0470 C   0  0  0  0  0  0  0  0  0  0  0  0
    8.6694  -16.9804   27.1304 O   0  0  0  0  0  0  0  0  0  0  0  0
   10.3751  -15.9562   28.2008 O   0  0  0  0  0  0  0  0  0  0  0  0
  2  1  1  1
  2  3  1  0
  4  6  1  0
  4  2  1  0
  4  5  1  6
  6  7  2  0
  9  8  1  1
 10  9  1  0
 11  9  1  0
 11 12  1  6
 12  6  1  0
 13 14  2  0
 13 11  1  0
 15 13  1  0
 16 15  1  0
 16 17  1  1
 18 19  2  0
 18 17  1  0
 20 19  1  0
 21 20  2  0
 22 21  1  0
 22 23  2  0
 23 18  1  0
 24 16  1  0
 24 26  1  0
 25 24  2  0
M  END
$$$$
