VVF.pdb
     RDKit          3D

 26 26  0  0  1  0  0  0  0  0999 V2000
    8.5626  -12.9147   20.6559 C   0  0  0  0  0  0  0  0  0  0  0  0
    7.7693  -13.5034   19.5134 C   0  0  1  0  0  0  0  0  0  0  0  0
    7.7449  -12.5390   18.3787 C   0  0  0  0  0  0  0  0  0  0  0  0
    8.3424  -14.8159   19.0910 C   0  0  2  0  0  0  0  0  0  0  0  0
    7.4603  -15.3315   18.0207 N   0  0  0  0  0  0  0  0  0  0  0  0
    8.2776  -15.7853   20.1951 C   0  0  0  0  0  0  0  0  0  0  0  0
    7.1344  -16.1104   20.6533 O   0  0  0  0  0  0  0  0  0  0  0  0
   11.2057  -18.5933   21.3106 C   0  0  0  0  0  0  0  0  0  0  0  0
    9.7815  -18.6094   21.7719 C   0  0  1  0  0  0  0  0  0  0  0  0
    9.7225  -19.4745   23.0170 C   0  0  0  0  0  0  0  0  0  0  0  0
    9.1819  -17.2477   22.0378 C   0  0  2  0  0  0  0  0  0  0  0  0
    9.3749  -16.4194   20.8235 N   0  0  0  0  0  0  0  0  0  0  0  0
    9.7755  -16.5481   23.1987 C   0  0  0  0  0  0  0  0  0  0  0  0
   10.8350  -15.8407   23.0691 O   0  0  0  0  0  0  0  0  0  0  0  0
    9.2588  -16.5809   24.5152 N   0  0  0  0  0  0  0  0  0  0  0  0
    9.8917  -15.8820   25.6324 C   0  0  1  0  0  0  0  0  0  0  0  0
    9.7381  -14.4009   25.3080 C   0  0  0  0  0  0  0  0  0  0  0  0
    8.5326  -13.7962   25.8806 C   0  0  0  0  0  0  0  0  0  0  0  0
    7.2727  -13.9180   25.3278 C   0  0  0  0  0  0  0  0  0  0  0  0
    6.1508  -13.3344   25.8940 C   0  0  0  0  0  0  0  0  0  0  0  0
    6.2617  -12.5992   27.0507 C   0  0  0  0  0  0  0  0  0  0  0  0
    7.5024  -12.4588   27.6263 C   0  0  0  0  0  0  0  0  0  0  0  0
    8.6136  -13.0428   27.0564 C   0  0  0  0  0  0  0  0  0  0  0  0
    9.3147  -16.2608   26.9208 C   0  0  0  0  0  0  0  0  0  0  0  0
    8.2388  -16.8936   27.0166 O   0  0  0  0  0  0  0  0  0  0  0  0
    9.9703  -15.9146   28.0880 O   0  0  0  0  0  0  0  0  0  0  0  0
  2  1  1  1
  2  3  1  0
  4  6  1  0
  4  2  1  0
  4  5  1  6
  6  7  2  0
  9  8  1  1
 10  9  1  0
 11  9  1  0
 11 12  1  6
 12  6  1  0
 13 14  2  0
 13 11  1  0
 15 13  1  0
 16 15  1  0
 16 17  1  6
 18 19  2  0
 18 17  1  0
 20 19  1  0
 21 20  2  0
 22 21  1  0
 22 23  2  0
 23 18  1  0
 24 16  1  0
 24 26  1  0
 25 24  2  0
M  END
$$$$
