VVF.pdb
     RDKit          3D

 26 26  0  0  1  0  0  0  0  0999 V2000
    8.1208  -12.0802   19.4082 C   0  0  0  0  0  0  0  0  0  0  0  0
    8.2356  -13.1470   20.4712 C   0  0  1  0  0  0  0  0  0  0  0  0
    6.9665  -13.2106   21.2481 C   0  0  0  0  0  0  0  0  0  0  0  0
    8.5591  -14.4707   19.8608 C   0  0  2  0  0  0  0  0  0  0  0  0
    7.4194  -14.8147   18.9819 N   0  0  0  0  0  0  0  0  0  0  0  0
    8.6234  -15.5132   20.8961 C   0  0  0  0  0  0  0  0  0  0  0  0
    7.5479  -16.1109   21.2257 O   0  0  0  0  0  0  0  0  0  0  0  0
   10.9145  -19.1205   23.3189 C   0  0  0  0  0  0  0  0  0  0  0  0
   10.7356  -18.0560   22.2814 C   0  0  1  0  0  0  0  0  0  0  0  0
   10.3906  -18.7524   20.9783 C   0  0  0  0  0  0  0  0  0  0  0  0
    9.7016  -17.0060   22.6169 C   0  0  2  0  0  0  0  0  0  0  0  0
    9.7807  -15.9425   21.5871 N   0  0  0  0  0  0  0  0  0  0  0  0
    9.8780  -16.3973   23.9540 C   0  0  0  0  0  0  0  0  0  0  0  0
   10.9234  -15.7119   24.2321 O   0  0  0  0  0  0  0  0  0  0  0  0
    8.9524  -16.4991   25.0190 N   0  0  0  0  0  0  0  0  0  0  0  0
    9.2127  -15.9533   26.3499 C   0  0  1  0  0  0  0  0  0  0  0  0
    7.8565  -15.4701   26.8495 C   0  0  0  0  0  0  0  0  0  0  0  0
    7.5193  -14.1128   26.4128 C   0  0  0  0  0  0  0  0  0  0  0  0
    6.2383  -13.6989   26.1036 C   0  0  0  0  0  0  0  0  0  0  0  0
    5.9510  -12.4070   25.6938 C   0  0  0  0  0  0  0  0  0  0  0  0
    6.9571  -11.4766   25.5803 C   0  0  0  0  0  0  0  0  0  0  0  0
    8.2438  -11.8568   25.8808 C   0  0  0  0  0  0  0  0  0  0  0  0
    8.5210  -13.1444   26.2878 C   0  0  0  0  0  0  0  0  0  0  0  0
    9.8473  -16.9289   27.2341 C   0  0  0  0  0  0  0  0  0  0  0  0
    9.6560  -18.1613   27.1245 O   0  0  0  0  0  0  0  0  0  0  0  0
   10.6945  -16.4902   28.2350 O   0  0  0  0  0  0  0  0  0  0  0  0
  2  1  1  6
  2  3  1  0
  4  6  1  0
  4  2  1  0
  4  5  1  6
  6  7  2  0
  9  8  1  1
 10  9  1  0
 11  9  1  0
 11 12  1  6
 12  6  1  0
 13 14  2  0
 13 11  1  0
 15 13  1  0
 16 15  1  0
 16 17  1  1
 18 19  2  0
 18 17  1  0
 20 19  1  0
 21 20  2  0
 22 21  1  0
 22 23  2  0
 23 18  1  0
 24 16  1  0
 24 26  1  0
 25 24  2  0
M  END
$$$$
