VVF.pdb
     RDKit          3D

 26 26  0  0  1  0  0  0  0  0999 V2000
    8.5422  -12.6010   21.3352 C   0  0  0  0  0  0  0  0  0  0  0  0
    7.6661  -13.3703   20.3750 C   0  0  1  0  0  0  0  0  0  0  0  0
    7.3217  -12.5021   19.2149 C   0  0  0  0  0  0  0  0  0  0  0  0
    8.3437  -14.6229   19.9266 C   0  0  2  0  0  0  0  0  0  0  0  0
    7.4106  -15.2906   18.9922 N   0  0  0  0  0  0  0  0  0  0  0  0
    8.5337  -15.5399   21.0605 C   0  0  0  0  0  0  0  0  0  0  0  0
    7.5335  -16.2110   21.4749 O   0  0  0  0  0  0  0  0  0  0  0  0
   11.3220  -18.7725   23.4621 C   0  0  0  0  0  0  0  0  0  0  0  0
   11.0154  -17.7079   22.4550 C   0  0  1  0  0  0  0  0  0  0  0  0
   10.8109  -18.3985   21.1196 C   0  0  0  0  0  0  0  0  0  0  0  0
    9.8295  -16.8337   22.7923 C   0  0  2  0  0  0  0  0  0  0  0  0
    9.7395  -15.7702   21.7634 N   0  0  0  0  0  0  0  0  0  0  0  0
    9.9092  -16.2059   24.1298 C   0  0  0  0  0  0  0  0  0  0  0  0
   10.7326  -15.2527   24.3611 O   0  0  0  0  0  0  0  0  0  0  0  0
    9.1190  -16.5715   25.2448 N   0  0  0  0  0  0  0  0  0  0  0  0
    9.3756  -16.0737   26.5951 C   0  0  1  0  0  0  0  0  0  0  0  0
    8.0024  -15.7137   27.1494 C   0  0  0  0  0  0  0  0  0  0  0  0
    7.5594  -14.3642   26.7900 C   0  0  0  0  0  0  0  0  0  0  0  0
    8.2384  -13.2125   27.1369 C   0  0  0  0  0  0  0  0  0  0  0  0
    7.7940  -11.9493   26.7811 C   0  0  0  0  0  0  0  0  0  0  0  0
    6.6359  -11.8018   26.0547 C   0  0  0  0  0  0  0  0  0  0  0  0
    5.9362  -12.9289   25.6934 C   0  0  0  0  0  0  0  0  0  0  0  0
    6.3854  -14.1821   26.0515 C   0  0  0  0  0  0  0  0  0  0  0  0
   10.1004  -17.0431   27.4143 C   0  0  0  0  0  0  0  0  0  0  0  0
   10.5936  -16.7493   28.5268 O   0  0  0  0  0  0  0  0  0  0  0  0
   10.2559  -18.3389   26.9573 O   0  0  0  0  0  0  0  0  0  0  0  0
  2  1  1  1
  2  3  1  0
  4  6  1  0
  4  2  1  0
  4  5  1  6
  6  7  2  0
  9  8  1  1
 10  9  1  0
 11  9  1  0
 11 12  1  6
 12  6  1  0
 13 14  2  0
 13 11  1  0
 15 13  1  0
 16 15  1  0
 16 17  1  1
 18 19  2  0
 18 17  1  0
 20 19  1  0
 21 20  2  0
 22 21  1  0
 22 23  2  0
 23 18  1  0
 24 16  1  0
 24 26  1  0
 25 24  2  0
M  END
$$$$
