FGC.pdb
     RDKit          3D

 22 22  0  0  1  0  0  0  0  0999 V2000
   25.9028  -20.8907   -8.2025 N   0  0  0  0  0  0  0  0  0  0  0  0
   27.0721  -20.3131   -8.8661 C   0  0  1  0  0  0  0  0  0  0  0  0
   28.3097  -20.4797   -8.0237 C   0  0  0  0  0  0  0  0  0  0  0  0
   28.1384  -19.9659   -6.6516 C   0  0  0  0  0  0  0  0  0  0  0  0
   28.1485  -20.8738   -5.6192 C   0  0  0  0  0  0  0  0  0  0  0  0
   27.9919  -20.4414   -4.3170 C   0  0  0  0  0  0  0  0  0  0  0  0
   27.8252  -19.0942   -4.0560 C   0  0  0  0  0  0  0  0  0  0  0  0
   27.8147  -18.1707   -5.1030 C   0  0  0  0  0  0  0  0  0  0  0  0
   27.9737  -18.6298   -6.4001 C   0  0  0  0  0  0  0  0  0  0  0  0
   27.3171  -20.9953  -10.1639 C   0  0  0  0  0  0  0  0  0  0  0  0
   28.3711  -21.6645  -10.3736 O   0  0  0  0  0  0  0  0  0  0  0  0
   26.3383  -20.8832  -11.1769 N   0  0  0  0  0  0  0  0  0  0  0  0
   26.5497  -21.4016  -12.5039 C   0  0  0  0  0  0  0  0  0  0  0  0
   25.2332  -21.3141  -13.2207 C   0  0  0  0  0  0  0  0  0  0  0  0
   24.9759  -22.0378  -14.2399 O   0  0  0  0  0  0  0  0  0  0  0  0
   24.2633  -20.4148  -12.7578 N   0  0  0  0  0  0  0  0  0  0  0  0
   22.8686  -20.6602  -13.0519 C   0  0  1  0  0  0  0  0  0  0  0  0
   22.3446  -21.7388  -12.0981 C   0  0  0  0  0  0  0  0  0  0  0  0
   22.5285  -21.1533  -10.3926 S   0  0  0  0  0  0  0  0  0  0  0  0
   22.1293  -19.3931  -12.8700 C   0  0  0  0  0  0  0  0  0  0  0  0
   22.8160  -18.2890  -12.4164 O   0  0  0  0  0  0  0  0  0  0  0  0
   20.8944  -19.2719  -13.1107 O   0  0  0  0  0  0  0  0  0  0  0  0
  2 10  1  0
  2  1  1  1
  3  4  1  0
  3  2  1  0
  4  9  2  0
  4  5  1  0
  5  6  2  0
  6  7  1  0
  8  7  2  0
  9  8  1  0
 10 11  2  0
 12 10  1  0
 12 13  1  0
 13 14  1  0
 14 16  1  0
 14 15  2  0
 16 17  1  0
 17 20  1  0
 17 18  1  1
 19 18  1  0
 20 21  1  0
 22 20  2  0
M  END
$$$$
