FGC.pdb
     RDKit          3D

 22 22  0  0  1  0  0  0  0  0999 V2000
   20.0008  -15.8227  -16.9588 N   0  0  0  0  0  0  0  0  0  0  0  0
   20.0568  -14.6389  -17.8172 C   0  0  1  0  0  0  0  0  0  0  0  0
   19.3843  -14.8975  -19.1401 C   0  0  0  0  0  0  0  0  0  0  0  0
   19.9888  -16.0239  -19.8761 C   0  0  0  0  0  0  0  0  0  0  0  0
   21.1198  -15.7744  -20.6170 C   0  0  0  0  0  0  0  0  0  0  0  0
   21.7224  -16.7966  -21.3236 C   0  0  0  0  0  0  0  0  0  0  0  0
   21.1849  -18.0695  -21.2830 C   0  0  0  0  0  0  0  0  0  0  0  0
   20.0365  -18.3247  -20.5312 C   0  0  0  0  0  0  0  0  0  0  0  0
   19.4511  -17.2825  -19.8315 C   0  0  0  0  0  0  0  0  0  0  0  0
   19.3531  -13.5002  -17.1708 C   0  0  0  0  0  0  0  0  0  0  0  0
   18.3594  -13.6809  -16.4076 O   0  0  0  0  0  0  0  0  0  0  0  0
   19.8190  -12.1907  -17.4259 N   0  0  0  0  0  0  0  0  0  0  0  0
   19.2363  -11.0358  -16.7925 C   0  0  0  0  0  0  0  0  0  0  0  0
   20.3668  -10.2533  -16.1889 C   0  0  0  0  0  0  0  0  0  0  0  0
   21.5670  -10.6871  -16.2077 O   0  0  0  0  0  0  0  0  0  0  0  0
   20.0961   -9.0155  -15.5902 N   0  0  0  0  0  0  0  0  0  0  0  0
   21.1946   -8.1778  -15.1621 C   0  0  1  0  0  0  0  0  0  0  0  0
   21.1040   -6.8330  -15.8908 C   0  0  0  0  0  0  0  0  0  0  0  0
   19.4769   -6.1011  -15.5715 S   0  0  0  0  0  0  0  0  0  0  0  0
   21.0892   -7.9914  -13.6994 C   0  0  0  0  0  0  0  0  0  0  0  0
   22.1707   -7.4744  -13.0215 O   0  0  0  0  0  0  0  0  0  0  0  0
   20.0527   -8.2836  -13.0376 O   0  0  0  0  0  0  0  0  0  0  0  0
  2 10  1  0
  2  1  1  1
  3  4  1  0
  3  2  1  0
  4  9  2  0
  4  5  1  0
  5  6  2  0
  6  7  1  0
  8  7  2  0
  9  8  1  0
 10 11  2  0
 12 10  1  0
 12 13  1  0
 13 14  1  0
 14 16  1  0
 14 15  2  0
 16 17  1  0
 17 20  1  0
 17 18  1  6
 19 18  1  0
 20 21  1  0
 22 20  2  0
M  END
$$$$
