FGC.pdb
     RDKit          3D

 22 22  0  0  1  0  0  0  0  0999 V2000
   22.7408  -12.3381  -20.3416 N   0  0  0  0  0  0  0  0  0  0  0  0
   21.9204  -11.6137  -19.3701 C   0  0  1  0  0  0  0  0  0  0  0  0
   21.3114  -12.5570  -18.3659 C   0  0  0  0  0  0  0  0  0  0  0  0
   20.7199  -13.7536  -18.9939 C   0  0  0  0  0  0  0  0  0  0  0  0
   19.4733  -13.6322  -19.5608 C   0  0  0  0  0  0  0  0  0  0  0  0
   18.8777  -14.7242  -20.1608 C   0  0  0  0  0  0  0  0  0  0  0  0
   19.5388  -15.9379  -20.1891 C   0  0  0  0  0  0  0  0  0  0  0  0
   20.8047  -16.0631  -19.6139 C   0  0  0  0  0  0  0  0  0  0  0  0
   21.3804  -14.9529  -19.0183 C   0  0  0  0  0  0  0  0  0  0  0  0
   22.7524  -10.6360  -18.6207 C   0  0  0  0  0  0  0  0  0  0  0  0
   24.0040  -10.5591  -18.7937 O   0  0  0  0  0  0  0  0  0  0  0  0
   22.1130   -9.7792  -17.6965 N   0  0  0  0  0  0  0  0  0  0  0  0
   22.8170   -8.7154  -17.0280 C   0  0  0  0  0  0  0  0  0  0  0  0
   21.8042   -7.9721  -16.2057 C   0  0  0  0  0  0  0  0  0  0  0  0
   20.5811   -8.3340  -16.1616 O   0  0  0  0  0  0  0  0  0  0  0  0
   22.2133   -6.8527  -15.4684 N   0  0  0  0  0  0  0  0  0  0  0  0
   21.2911   -6.2380  -14.5391 C   0  0  1  0  0  0  0  0  0  0  0  0
   20.9660   -7.2418  -13.4281 C   0  0  0  0  0  0  0  0  0  0  0  0
   19.8522   -6.4551  -12.2341 S   0  0  0  0  0  0  0  0  0  0  0  0
   21.9344   -5.0286  -13.9834 C   0  0  0  0  0  0  0  0  0  0  0  0
   21.1526   -3.9233  -13.7314 O   0  0  0  0  0  0  0  0  0  0  0  0
   23.1701   -4.9580  -13.7272 O   0  0  0  0  0  0  0  0  0  0  0  0
  2 10  1  0
  2  1  1  6
  3  4  1  0
  3  2  1  0
  4  9  2  0
  4  5  1  0
  5  6  2  0
  6  7  1  0
  8  7  2  0
  9  8  1  0
 10 11  2  0
 12 10  1  0
 12 13  1  0
 13 14  1  0
 14 16  1  0
 14 15  2  0
 16 17  1  0
 17 20  1  0
 17 18  1  1
 19 18  1  0
 20 21  1  0
 22 20  2  0
M  END
$$$$
