FGC.pdb
     RDKit          3D

 22 22  0  0  1  0  0  0  0  0999 V2000
   25.3816  -21.0274   -7.5244 N   0  0  0  0  0  0  0  0  0  0  0  0
   26.2404  -20.2518   -8.4201 C   0  0  1  0  0  0  0  0  0  0  0  0
   27.6901  -20.3928   -8.0362 C   0  0  0  0  0  0  0  0  0  0  0  0
   27.9709  -19.8928   -6.6771 C   0  0  0  0  0  0  0  0  0  0  0  0
   27.7195  -18.5668   -6.4153 C   0  0  0  0  0  0  0  0  0  0  0  0
   27.9662  -18.0517   -5.1579 C   0  0  0  0  0  0  0  0  0  0  0  0
   28.4662  -18.8734   -4.1651 C   0  0  0  0  0  0  0  0  0  0  0  0
   28.7221  -20.2202   -4.4290 C   0  0  0  0  0  0  0  0  0  0  0  0
   28.4662  -20.7124   -5.6982 C   0  0  0  0  0  0  0  0  0  0  0  0
   26.0970  -20.7360   -9.8183 C   0  0  0  0  0  0  0  0  0  0  0  0
   26.2560  -21.9556  -10.1181 O   0  0  0  0  0  0  0  0  0  0  0  0
   25.7751  -19.7974  -10.8243 N   0  0  0  0  0  0  0  0  0  0  0  0
   25.8046  -20.1373  -12.2236 C   0  0  0  0  0  0  0  0  0  0  0  0
   24.3990  -20.4910  -12.6157 C   0  0  0  0  0  0  0  0  0  0  0  0
   24.0818  -20.7300  -13.8286 O   0  0  0  0  0  0  0  0  0  0  0  0
   23.4113  -20.5601  -11.6240 N   0  0  0  0  0  0  0  0  0  0  0  0
   22.0685  -20.9583  -11.9849 C   0  0  1  0  0  0  0  0  0  0  0  0
   21.3375  -21.4316  -10.7243 C   0  0  0  0  0  0  0  0  0  0  0  0
   19.5720  -21.6006  -11.0985 S   0  0  0  0  0  0  0  0  0  0  0  0
   21.3861  -19.7904  -12.5813 C   0  0  0  0  0  0  0  0  0  0  0  0
   20.5746  -19.9897  -13.6759 O   0  0  0  0  0  0  0  0  0  0  0  0
   21.5104  -18.6143  -12.1354 O   0  0  0  0  0  0  0  0  0  0  0  0
  2 10  1  0
  2  1  1  1
  3  4  1  0
  3  2  1  0
  4  9  2  0
  4  5  1  0
  5  6  2  0
  6  7  1  0
  8  7  2  0
  9  8  1  0
 10 11  2  0
 12 10  1  0
 12 13  1  0
 13 14  1  0
 14 16  1  0
 14 15  2  0
 16 17  1  0
 17 20  1  0
 17 18  1  1
 19 18  1  0
 20 21  1  0
 22 20  2  0
M  END
$$$$
