FGC.pdb
     RDKit          3D

 22 22  0  0  1  0  0  0  0  0999 V2000
   22.6545  -21.9146  -17.6162 N   0  0  0  0  0  0  0  0  0  0  0  0
   23.4920  -20.7817  -17.2203 C   0  0  1  0  0  0  0  0  0  0  0  0
   22.7086  -19.7903  -16.4002 C   0  0  0  0  0  0  0  0  0  0  0  0
   21.6014  -19.1745  -17.1557 C   0  0  0  0  0  0  0  0  0  0  0  0
   20.3170  -19.5322  -16.8198 C   0  0  0  0  0  0  0  0  0  0  0  0
   19.2469  -18.9827  -17.4982 C   0  0  0  0  0  0  0  0  0  0  0  0
   19.4718  -18.0732  -18.5146 C   0  0  0  0  0  0  0  0  0  0  0  0
   20.7752  -17.7088  -18.8570 C   0  0  0  0  0  0  0  0  0  0  0  0
   21.8313  -18.2741  -18.1615 C   0  0  0  0  0  0  0  0  0  0  0  0
   24.6326  -21.2498  -16.3899 C   0  0  0  0  0  0  0  0  0  0  0  0
   24.5530  -22.2963  -15.6820 O   0  0  0  0  0  0  0  0  0  0  0  0
   25.8273  -20.4952  -16.4034 N   0  0  0  0  0  0  0  0  0  0  0  0
   26.9988  -20.9068  -15.6736 C   0  0  0  0  0  0  0  0  0  0  0  0
   26.7915  -20.4897  -14.2461 C   0  0  0  0  0  0  0  0  0  0  0  0
   26.8243  -19.2631  -13.8950 O   0  0  0  0  0  0  0  0  0  0  0  0
   26.5563  -21.4730  -13.2757 N   0  0  0  0  0  0  0  0  0  0  0  0
   25.9511  -21.0984  -12.0166 C   0  0  1  0  0  0  0  0  0  0  0  0
   24.5685  -20.4982  -12.2917 C   0  0  0  0  0  0  0  0  0  0  0  0
   23.7273  -20.2141  -10.7115 S   0  0  0  0  0  0  0  0  0  0  0  0
   25.8405  -22.3118  -11.1794 C   0  0  0  0  0  0  0  0  0  0  0  0
   25.5598  -23.5122  -11.7930 O   0  0  0  0  0  0  0  0  0  0  0  0
   25.9912  -22.3025   -9.9245 O   0  0  0  0  0  0  0  0  0  0  0  0
  2 10  1  0
  2  1  1  1
  3  4  1  0
  3  2  1  0
  4  9  2  0
  4  5  1  0
  5  6  2  0
  6  7  1  0
  8  7  2  0
  9  8  1  0
 10 11  2  0
 12 10  1  0
 12 13  1  0
 13 14  1  0
 14 16  1  0
 14 15  2  0
 16 17  1  0
 17 20  1  0
 17 18  1  6
 19 18  1  0
 20 21  1  0
 22 20  2  0
M  END
$$$$
