FGC.pdb
     RDKit          3D

 22 22  0  0  1  0  0  0  0  0999 V2000
   21.6970   -9.0280  -17.4040 N   0  0  0  0  0  0  0  0  0  0  0  0
   21.5987  -10.3257  -16.7349 C   0  0  1  0  0  0  0  0  0  0  0  0
   22.7854  -11.1941  -17.0616 C   0  0  0  0  0  0  0  0  0  0  0  0
   22.5892  -11.9892  -18.2886 C   0  0  0  0  0  0  0  0  0  0  0  0
   22.7025  -11.3442  -19.4975 C   0  0  0  0  0  0  0  0  0  0  0  0
   22.5274  -12.0457  -20.6741 C   0  0  0  0  0  0  0  0  0  0  0  0
   22.2381  -13.3968  -20.6317 C   0  0  0  0  0  0  0  0  0  0  0  0
   22.1227  -14.0535  -19.4051 C   0  0  0  0  0  0  0  0  0  0  0  0
   22.3028  -13.3274  -18.2393 C   0  0  0  0  0  0  0  0  0  0  0  0
   21.5679  -10.1438  -15.2599 C   0  0  0  0  0  0  0  0  0  0  0  0
   21.5212  -11.1319  -14.4700 O   0  0  0  0  0  0  0  0  0  0  0  0
   21.5921   -8.8281  -14.7449 N   0  0  0  0  0  0  0  0  0  0  0  0
   21.5817   -8.5618  -13.3295 C   0  0  0  0  0  0  0  0  0  0  0  0
   21.5342   -7.0698  -13.1673 C   0  0  0  0  0  0  0  0  0  0  0  0
   22.1944   -6.4740  -12.2519 O   0  0  0  0  0  0  0  0  0  0  0  0
   20.7446   -6.3134  -14.0439 N   0  0  0  0  0  0  0  0  0  0  0  0
   20.7314   -4.8721  -13.9244 C   0  0  1  0  0  0  0  0  0  0  0  0
   22.1430   -4.3406  -14.1936 C   0  0  0  0  0  0  0  0  0  0  0  0
   22.1191   -2.5314  -14.0865 S   0  0  0  0  0  0  0  0  0  0  0  0
   19.7707   -4.3365  -14.9121 C   0  0  0  0  0  0  0  0  0  0  0  0
   18.9897   -3.2601  -14.5548 O   0  0  0  0  0  0  0  0  0  0  0  0
   19.6298   -4.8187  -16.0720 O   0  0  0  0  0  0  0  0  0  0  0  0
  2 10  1  0
  2  1  1  6
  3  4  1  0
  3  2  1  0
  4  9  2  0
  4  5  1  0
  5  6  2  0
  6  7  1  0
  8  7  2  0
  9  8  1  0
 10 11  2  0
 12 10  1  0
 12 13  1  0
 13 14  1  0
 14 16  1  0
 14 15  2  0
 16 17  1  0
 17 20  1  0
 17 18  1  6
 19 18  1  0
 20 21  1  0
 22 20  2  0
M  END
$$$$
