FGC.pdb
     RDKit          3D

 22 22  0  0  1  0  0  0  0  0999 V2000
   26.2874  -22.4843  -12.3274 N   0  0  0  0  0  0  0  0  0  0  0  0
   25.6106  -21.2246  -12.0168 C   0  0  1  0  0  0  0  0  0  0  0  0
   26.6048  -20.1477  -11.6690 C   0  0  0  0  0  0  0  0  0  0  0  0
   27.4128  -20.4804  -10.4805 C   0  0  0  0  0  0  0  0  0  0  0  0
   28.7282  -20.8298  -10.6748 C   0  0  0  0  0  0  0  0  0  0  0  0
   29.5252  -21.1497   -9.5933 C   0  0  0  0  0  0  0  0  0  0  0  0
   28.9961  -21.1173   -8.3167 C   0  0  0  0  0  0  0  0  0  0  0  0
   27.6605  -20.7628   -8.1174 C   0  0  0  0  0  0  0  0  0  0  0  0
   26.8821  -20.4462   -9.2185 C   0  0  0  0  0  0  0  0  0  0  0  0
   24.8323  -20.7544  -13.1927 C   0  0  0  0  0  0  0  0  0  0  0  0
   25.0921  -21.1565  -14.3646 O   0  0  0  0  0  0  0  0  0  0  0  0
   23.7801  -19.8360  -12.9780 N   0  0  0  0  0  0  0  0  0  0  0  0
   22.7952  -19.5526  -13.9901 C   0  0  0  0  0  0  0  0  0  0  0  0
   21.8123  -20.6876  -13.9712 C   0  0  0  0  0  0  0  0  0  0  0  0
   21.7574  -21.5421  -14.9176 O   0  0  0  0  0  0  0  0  0  0  0  0
   20.9335  -20.8106  -12.8866 N   0  0  0  0  0  0  0  0  0  0  0  0
   19.9674  -21.8869  -12.8733 C   0  0  1  0  0  0  0  0  0  0  0  0
   19.6614  -22.2587  -11.4188 C   0  0  0  0  0  0  0  0  0  0  0  0
   18.3676  -23.5279  -11.3974 S   0  0  0  0  0  0  0  0  0  0  0  0
   18.7471  -21.4194  -13.5645 C   0  0  0  0  0  0  0  0  0  0  0  0
   18.3579  -20.1087  -13.3999 O   0  0  0  0  0  0  0  0  0  0  0  0
   18.0408  -22.1648  -14.3013 O   0  0  0  0  0  0  0  0  0  0  0  0
  2 10  1  0
  2  1  1  6
  3  4  1  0
  3  2  1  0
  4  9  2  0
  4  5  1  0
  5  6  2  0
  6  7  1  0
  8  7  2  0
  9  8  1  0
 10 11  2  0
 12 10  1  0
 12 13  1  0
 13 14  1  0
 14 16  1  0
 14 15  2  0
 16 17  1  0
 17 20  1  0
 17 18  1  1
 19 18  1  0
 20 21  1  0
 22 20  2  0
M  END
$$$$
