FGC.pdb
     RDKit          3D

 22 22  0  0  1  0  0  0  0  0999 V2000
   24.3319  -20.4159   -8.8900 N   0  0  0  0  0  0  0  0  0  0  0  0
   25.7098  -19.9614   -8.6996 C   0  0  1  0  0  0  0  0  0  0  0  0
   26.4902  -20.9376   -7.8587 C   0  0  0  0  0  0  0  0  0  0  0  0
   27.2046  -20.2861   -6.7446 C   0  0  0  0  0  0  0  0  0  0  0  0
   28.3243  -19.5467   -7.0439 C   0  0  0  0  0  0  0  0  0  0  0  0
   29.0272  -18.9178   -6.0352 C   0  0  0  0  0  0  0  0  0  0  0  0
   28.6012  -19.0344   -4.7253 C   0  0  0  0  0  0  0  0  0  0  0  0
   27.4643  -19.7848   -4.4193 C   0  0  0  0  0  0  0  0  0  0  0  0
   26.7769  -20.4058   -5.4491 C   0  0  0  0  0  0  0  0  0  0  0  0
   26.4001  -19.8464  -10.0110 C   0  0  0  0  0  0  0  0  0  0  0  0
   27.6010  -20.2168  -10.1639 O   0  0  0  0  0  0  0  0  0  0  0  0
   25.6824  -19.3081  -11.1028 N   0  0  0  0  0  0  0  0  0  0  0  0
   26.2394  -19.2523  -12.4299 C   0  0  0  0  0  0  0  0  0  0  0  0
   25.3112  -20.0221  -13.3246 C   0  0  0  0  0  0  0  0  0  0  0  0
   24.2430  -19.5007  -13.7893 O   0  0  0  0  0  0  0  0  0  0  0  0
   25.6267  -21.3464  -13.6570 N   0  0  0  0  0  0  0  0  0  0  0  0
   24.7666  -22.0761  -14.5622 C   0  0  1  0  0  0  0  0  0  0  0  0
   25.5353  -23.2832  -15.1096 C   0  0  0  0  0  0  0  0  0  0  0  0
   27.1946  -22.7470  -15.6041 S   0  0  0  0  0  0  0  0  0  0  0  0
   23.5701  -22.5112  -13.8109 C   0  0  0  0  0  0  0  0  0  0  0  0
   22.5819  -23.1944  -14.4841 O   0  0  0  0  0  0  0  0  0  0  0  0
   23.4082  -22.2869  -12.5776 O   0  0  0  0  0  0  0  0  0  0  0  0
  2 10  1  0
  2  1  1  6
  3  4  1  0
  3  2  1  0
  4  9  2  0
  4  5  1  0
  5  6  2  0
  6  7  1  0
  8  7  2  0
  9  8  1  0
 10 11  2  0
 12 10  1  0
 12 13  1  0
 13 14  1  0
 14 16  1  0
 14 15  2  0
 16 17  1  0
 17 20  1  0
 17 18  1  1
 19 18  1  0
 20 21  1  0
 22 20  2  0
M  END
$$$$
