FGC.pdb
     RDKit          3D

 22 22  0  0  1  0  0  0  0  0999 V2000
   25.3382  -20.8320   -7.6713 N   0  0  0  0  0  0  0  0  0  0  0  0
   26.4032  -20.3796   -8.5673 C   0  0  1  0  0  0  0  0  0  0  0  0
   27.7590  -20.7558   -8.0294 C   0  0  0  0  0  0  0  0  0  0  0  0
   28.0223  -20.1824   -6.6961 C   0  0  0  0  0  0  0  0  0  0  0  0
   28.4499  -21.0326   -5.7038 C   0  0  0  0  0  0  0  0  0  0  0  0
   28.7095  -20.5431   -4.4388 C   0  0  0  0  0  0  0  0  0  0  0  0
   28.5381  -19.1971   -4.1746 C   0  0  0  0  0  0  0  0  0  0  0  0
   28.1040  -18.3323   -5.1809 C   0  0  0  0  0  0  0  0  0  0  0  0
   27.8504  -18.8480   -6.4412 C   0  0  0  0  0  0  0  0  0  0  0  0
   26.2575  -21.0158   -9.9028 C   0  0  0  0  0  0  0  0  0  0  0  0
   26.0545  -22.2592  -10.0274 O   0  0  0  0  0  0  0  0  0  0  0  0
   26.3508  -20.1968  -11.0506 N   0  0  0  0  0  0  0  0  0  0  0  0
   26.5339  -20.7474  -12.3688 C   0  0  0  0  0  0  0  0  0  0  0  0
   25.1644  -21.0139  -12.9237 C   0  0  0  0  0  0  0  0  0  0  0  0
   24.9970  -21.4770  -14.1012 O   0  0  0  0  0  0  0  0  0  0  0  0
   24.0423  -20.7469  -12.1278 N   0  0  0  0  0  0  0  0  0  0  0  0
   22.7209  -21.0231  -12.6468 C   0  0  1  0  0  0  0  0  0  0  0  0
   21.7706  -21.2742  -11.4715 C   0  0  0  0  0  0  0  0  0  0  0  0
   21.7712  -19.8163  -10.3946 S   0  0  0  0  0  0  0  0  0  0  0  0
   22.2823  -19.8531  -13.4369 C   0  0  0  0  0  0  0  0  0  0  0  0
   21.1392  -19.9625  -14.1969 O   0  0  0  0  0  0  0  0  0  0  0  0
   22.9061  -18.7539  -13.4498 O   0  0  0  0  0  0  0  0  0  0  0  0
  2 10  1  0
  2  1  1  1
  3  4  1  0
  3  2  1  0
  4  9  2  0
  4  5  1  0
  5  6  2  0
  6  7  1  0
  8  7  2  0
  9  8  1  0
 10 11  2  0
 12 10  1  0
 12 13  1  0
 13 14  1  0
 14 16  1  0
 14 15  2  0
 16 17  1  0
 17 20  1  0
 17 18  1  1
 19 18  1  0
 20 21  1  0
 22 20  2  0
M  END
$$$$
