FGC.pdb
     RDKit          3D

 22 22  0  0  1  0  0  0  0  0999 V2000
   25.2286  -18.1176  -14.6768 N   0  0  0  0  0  0  0  0  0  0  0  0
   26.5343  -18.1246  -15.3375 C   0  0  1  0  0  0  0  0  0  0  0  0
   27.2152  -16.7876  -15.2044 C   0  0  0  0  0  0  0  0  0  0  0  0
   26.6761  -15.7783  -16.1354 C   0  0  0  0  0  0  0  0  0  0  0  0
   27.1965  -15.7340  -17.4072 C   0  0  0  0  0  0  0  0  0  0  0  0
   26.7245  -14.8067  -18.3151 C   0  0  0  0  0  0  0  0  0  0  0  0
   25.7282  -13.9245  -17.9408 C   0  0  0  0  0  0  0  0  0  0  0  0
   25.1985  -13.9679  -16.6498 C   0  0  0  0  0  0  0  0  0  0  0  0
   25.6891  -14.9074  -15.7579 C   0  0  0  0  0  0  0  0  0  0  0  0
   27.4204  -19.1437  -14.7163 C   0  0  0  0  0  0  0  0  0  0  0  0
   28.5584  -19.4168  -15.1989 O   0  0  0  0  0  0  0  0  0  0  0  0
   26.9645  -19.8141  -13.5588 N   0  0  0  0  0  0  0  0  0  0  0  0
   27.7333  -20.8551  -12.9267 C   0  0  0  0  0  0  0  0  0  0  0  0
   27.0238  -21.2071  -11.6510 C   0  0  0  0  0  0  0  0  0  0  0  0
   27.4550  -22.1246  -10.8757 O   0  0  0  0  0  0  0  0  0  0  0  0
   25.8587  -20.5099  -11.3040 N   0  0  0  0  0  0  0  0  0  0  0  0
   24.8090  -21.1949  -10.5824 C   0  0  1  0  0  0  0  0  0  0  0  0
   24.6332  -20.5281   -9.2142 C   0  0  0  0  0  0  0  0  0  0  0  0
   26.2535  -19.9766   -8.6178 S   0  0  0  0  0  0  0  0  0  0  0  0
   23.5660  -21.1003  -11.3770 C   0  0  0  0  0  0  0  0  0  0  0  0
   22.4323  -21.7220  -10.9032 O   0  0  0  0  0  0  0  0  0  0  0  0
   23.4915  -20.4755  -12.4732 O   0  0  0  0  0  0  0  0  0  0  0  0
  2 10  1  0
  2  1  1  1
  3  4  1  0
  3  2  1  0
  4  9  2  0
  4  5  1  0
  5  6  2  0
  6  7  1  0
  8  7  2  0
  9  8  1  0
 10 11  2  0
 12 10  1  0
 12 13  1  0
 13 14  1  0
 14 16  1  0
 14 15  2  0
 16 17  1  0
 17 20  1  0
 17 18  1  1
 19 18  1  0
 20 21  1  0
 22 20  2  0
M  END
$$$$
