DTN.pdb
     RDKit          3D

 24 23  0  0  1  0  0  0  0  0999 V2000
    8.5133  -16.2913   16.1976 N   0  0  0  0  0  0  0  0  0  0  0  0
    9.4835  -16.9993   17.0396 C   0  0  1  0  0  0  0  0  0  0  0  0
   10.6820  -17.2195   16.1578 C   0  0  0  0  0  0  0  0  0  0  0  0
   10.5586  -18.2596   15.1520 C   0  0  0  0  0  0  0  0  0  0  0  0
    9.4981  -18.8598   14.9025 O   0  0  0  0  0  0  0  0  0  0  0  0
    9.8094  -16.1625   18.2263 C   0  0  0  0  0  0  0  0  0  0  0  0
   10.9740  -15.8492   18.4947 O   0  0  0  0  0  0  0  0  0  0  0  0
   11.6987  -18.6158   14.4121 O   0  0  0  0  0  0  0  0  0  0  0  0
    7.4173  -13.1854   19.6520 C   0  0  0  0  0  0  0  0  0  0  0  0
    7.8258  -14.1833   20.7089 C   0  0  1  0  0  0  0  0  0  0  0  0
    6.7986  -15.1606   20.8141 O   0  0  0  0  0  0  0  0  0  0  0  0
    9.1160  -14.8918   20.2700 C   0  0  2  0  0  0  0  0  0  0  0  0
    8.7905  -15.6985   19.0862 N   0  0  0  0  0  0  0  0  0  0  0  0
    9.5457  -15.8175   21.3451 C   0  0  0  0  0  0  0  0  0  0  0  0
    9.1986  -17.0534   21.2338 O   0  0  0  0  0  0  0  0  0  0  0  0
   12.8836  -18.4729   24.5199 N   0  0  0  0  0  0  0  0  0  0  0  0
   12.4509  -17.1670   24.9282 C   0  0  0  0  0  0  0  0  0  0  0  0
   12.4349  -16.8775   26.1392 O   0  0  0  0  0  0  0  0  0  0  0  0
   12.0437  -16.2297   23.8686 C   0  0  0  0  0  0  0  0  0  0  0  0
   10.6202  -16.4643   23.4698 C   0  0  2  0  0  0  0  0  0  0  0  0
   10.3046  -15.4390   22.4693 N   0  0  0  0  0  0  0  0  0  0  0  0
    9.7317  -16.3289   24.6438 C   0  0  0  0  0  0  0  0  0  0  0  0
    9.4948  -17.3549   25.5260 O   0  0  0  0  0  0  0  0  0  0  0  0
    9.1515  -15.2310   24.8673 O   0  0  0  0  0  0  0  0  0  0  0  0
  2  1  1  6
  2  6  1  0
  3  2  1  0
  3  4  1  0
  4  8  1  0
  4  5  2  0
  6  7  2  0
 10  9  1  6
 10 12  1  0
 10 11  1  0
 12 14  1  0
 13  6  1  0
 12 13  1  6
 14 15  2  0
 16 17  1  0
 17 18  2  0
 19 17  1  0
 20 19  1  1
 20 22  1  0
 21 20  1  0
 21 14  1  0
 22 24  2  0
 22 23  1  0
M  END
$$$$
