DTN.pdb
     RDKit          3D

 24 23  0  0  1  0  0  0  0  0999 V2000
    9.2952  -17.3751   17.6920 N   0  0  0  0  0  0  0  0  0  0  0  0
   10.6729  -17.2940   18.1890 C   0  0  1  0  0  0  0  0  0  0  0  0
   11.4758  -16.7584   17.0354 C   0  0  0  0  0  0  0  0  0  0  0  0
   11.5739  -17.6149   15.8669 C   0  0  0  0  0  0  0  0  0  0  0  0
   10.6102  -18.2276   15.3740 O   0  0  0  0  0  0  0  0  0  0  0  0
   10.7185  -16.3889   19.3693 C   0  0  0  0  0  0  0  0  0  0  0  0
   11.7527  -15.7906   19.6841 O   0  0  0  0  0  0  0  0  0  0  0  0
   12.8272  -17.7668   15.2500 O   0  0  0  0  0  0  0  0  0  0  0  0
    7.7337  -13.9418   20.6156 C   0  0  0  0  0  0  0  0  0  0  0  0
    8.2065  -14.8904   21.6909 C   0  0  1  0  0  0  0  0  0  0  0  0
    7.3630  -16.0347   21.6723 O   0  0  0  0  0  0  0  0  0  0  0  0
    9.6384  -15.3473   21.3745 C   0  0  2  0  0  0  0  0  0  0  0  0
    9.5735  -16.1853   20.1696 N   0  0  0  0  0  0  0  0  0  0  0  0
   10.1304  -16.1924   22.4885 C   0  0  0  0  0  0  0  0  0  0  0  0
    9.8803  -17.4550   22.4268 O   0  0  0  0  0  0  0  0  0  0  0  0
   13.6636  -17.6717   23.2879 N   0  0  0  0  0  0  0  0  0  0  0  0
   13.5525  -16.3945   23.9327 C   0  0  0  0  0  0  0  0  0  0  0  0
   14.2362  -15.4387   23.5212 O   0  0  0  0  0  0  0  0  0  0  0  0
   12.6175  -16.2901   25.0649 C   0  0  0  0  0  0  0  0  0  0  0  0
   11.2307  -16.6661   24.6454 C   0  0  2  0  0  0  0  0  0  0  0  0
   10.8500  -15.7110   23.5991 N   0  0  0  0  0  0  0  0  0  0  0  0
   10.3050  -16.5677   25.7941 C   0  0  0  0  0  0  0  0  0  0  0  0
   10.3082  -17.4615   26.8372 O   0  0  0  0  0  0  0  0  0  0  0  0
    9.4629  -15.6294   25.8417 O   0  0  0  0  0  0  0  0  0  0  0  0
  2  1  1  6
  2  6  1  0
  3  2  1  0
  3  4  1  0
  4  8  1  0
  4  5  2  0
  6  7  2  0
 10  9  1  6
 10 12  1  0
 10 11  1  0
 12 14  1  0
 13  6  1  0
 12 13  1  6
 14 15  2  0
 16 17  1  0
 17 18  2  0
 19 17  1  0
 20 19  1  1
 20 22  1  0
 21 20  1  0
 21 14  1  0
 22 24  2  0
 22 23  1  0
M  END
$$$$
