DTN.pdb
     RDKit          3D

 24 23  0  0  1  0  0  0  0  0999 V2000
    9.8667  -15.2841   14.5159 N   0  0  0  0  0  0  0  0  0  0  0  0
    9.9675  -16.1431   15.7006 C   0  0  1  0  0  0  0  0  0  0  0  0
   11.0188  -17.1629   15.3581 C   0  0  0  0  0  0  0  0  0  0  0  0
   10.6891  -18.0945   14.2941 C   0  0  0  0  0  0  0  0  0  0  0  0
   10.7853  -17.8259   13.0835 O   0  0  0  0  0  0  0  0  0  0  0  0
   10.3529  -15.3171   16.8769 C   0  0  0  0  0  0  0  0  0  0  0  0
   11.3595  -14.6007   16.8604 O   0  0  0  0  0  0  0  0  0  0  0  0
   10.2338  -19.3772   14.6430 O   0  0  0  0  0  0  0  0  0  0  0  0
    8.0462  -12.8968   18.7971 C   0  0  0  0  0  0  0  0  0  0  0  0
    8.6175  -13.9057   19.7642 C   0  0  1  0  0  0  0  0  0  0  0  0
    7.6891  -14.9754   19.8860 O   0  0  0  0  0  0  0  0  0  0  0  0
    9.9272  -14.4723   19.1958 C   0  0  2  0  0  0  0  0  0  0  0  0
    9.5744  -15.3274   18.0545 N   0  0  0  0  0  0  0  0  0  0  0  0
   10.5663  -15.3285   20.2233 C   0  0  0  0  0  0  0  0  0  0  0  0
   10.3570  -16.5977   20.1476 O   0  0  0  0  0  0  0  0  0  0  0  0
   14.6233  -13.9550   20.9191 N   0  0  0  0  0  0  0  0  0  0  0  0
   14.2131  -15.2459   21.3930 C   0  0  0  0  0  0  0  0  0  0  0  0
   14.6196  -16.2696   20.8121 O   0  0  0  0  0  0  0  0  0  0  0  0
   13.3181  -15.2821   22.5613 C   0  0  0  0  0  0  0  0  0  0  0  0
   11.9759  -15.8279   22.1857 C   0  0  2  0  0  0  0  0  0  0  0  0
   11.3831  -14.8507   21.2661 N   0  0  0  0  0  0  0  0  0  0  0  0
   11.1312  -15.9804   23.3896 C   0  0  0  0  0  0  0  0  0  0  0  0
   11.3781  -16.9167   24.3640 O   0  0  0  0  0  0  0  0  0  0  0  0
   10.1309  -15.2289   23.5526 O   0  0  0  0  0  0  0  0  0  0  0  0
  2  1  1  6
  2  6  1  0
  3  2  1  0
  3  4  1  0
  4  8  1  0
  4  5  2  0
  6  7  2  0
 10  9  1  6
 10 12  1  0
 10 11  1  0
 12 14  1  0
 13  6  1  0
 12 13  1  6
 14 15  2  0
 16 17  1  0
 17 18  2  0
 19 17  1  0
 20 19  1  1
 20 22  1  0
 21 20  1  0
 21 14  1  0
 22 24  2  0
 22 23  1  0
M  END
$$$$
