DTN.pdb
     RDKit          3D

 24 23  0  0  1  0  0  0  0  0999 V2000
    9.2920  -15.2311   15.0770 N   0  0  0  0  0  0  0  0  0  0  0  0
    9.4959  -16.2031   16.1565 C   0  0  1  0  0  0  0  0  0  0  0  0
   10.6031  -17.0996   15.6738 C   0  0  0  0  0  0  0  0  0  0  0  0
   10.2957  -17.9453   14.5341 C   0  0  0  0  0  0  0  0  0  0  0  0
    9.2751  -17.8208   13.8341 O   0  0  0  0  0  0  0  0  0  0  0  0
    9.8649  -15.4826   17.4052 C   0  0  0  0  0  0  0  0  0  0  0  0
   10.9534  -14.9098   17.5221 O   0  0  0  0  0  0  0  0  0  0  0  0
   11.1984  -18.9671   14.1943 O   0  0  0  0  0  0  0  0  0  0  0  0
    7.5761  -12.9257   19.2937 C   0  0  0  0  0  0  0  0  0  0  0  0
    8.0064  -14.0347   20.2236 C   0  0  1  0  0  0  0  0  0  0  0  0
    6.9997  -15.0385   20.2092 O   0  0  0  0  0  0  0  0  0  0  0  0
    9.3104  -14.6586   19.7043 C   0  0  2  0  0  0  0  0  0  0  0  0
    8.9759  -15.4317   18.5007 N   0  0  0  0  0  0  0  0  0  0  0  0
    9.8289  -15.6045   20.7210 C   0  0  0  0  0  0  0  0  0  0  0  0
    9.5756  -16.8559   20.5468 O   0  0  0  0  0  0  0  0  0  0  0  0
   13.1685  -17.9363   24.2851 N   0  0  0  0  0  0  0  0  0  0  0  0
   12.5149  -16.7053   24.6269 C   0  0  0  0  0  0  0  0  0  0  0  0
   12.2772  -16.4489   25.8220 O   0  0  0  0  0  0  0  0  0  0  0  0
   12.1579  -15.8018   23.5209 C   0  0  0  0  0  0  0  0  0  0  0  0
   10.9077  -16.2638   22.8397 C   0  0  2  0  0  0  0  0  0  0  0  0
   10.5765  -15.2293   21.8538 N   0  0  0  0  0  0  0  0  0  0  0  0
    9.8131  -16.4072   23.8232 C   0  0  0  0  0  0  0  0  0  0  0  0
    9.6286  -17.5396   24.5786 O   0  0  0  0  0  0  0  0  0  0  0  0
    8.9966  -15.4607   23.9946 O   0  0  0  0  0  0  0  0  0  0  0  0
  2  1  1  6
  2  6  1  0
  3  2  1  0
  3  4  1  0
  4  8  1  0
  4  5  2  0
  6  7  2  0
 10  9  1  6
 10 12  1  0
 10 11  1  0
 12 14  1  0
 13  6  1  0
 12 13  1  6
 14 15  2  0
 16 17  1  0
 17 18  2  0
 19 17  1  0
 20 19  1  1
 20 22  1  0
 21 20  1  0
 21 14  1  0
 22 24  2  0
 22 23  1  0
M  END
$$$$
