SIN.pdb
     RDKit          3D

 23 22  0  0  1  0  0  0  0  0999 V2000
    7.7217  -17.3944   21.2732 O   0  0  0  0  0  0  0  0  0  0  0  0
    6.6592  -16.5378   21.1463 C   0  0  0  0  0  0  0  0  0  0  0  0
    7.1606  -15.1124   21.1471 C   0  0  2  0  0  0  0  0  0  0  0  0
    8.0524  -14.9378   19.9841 N   0  0  0  0  0  0  0  0  0  0  0  0
    7.9119  -14.7333   22.3419 C   0  0  0  0  0  0  0  0  0  0  0  0
    9.1731  -14.6573   22.2901 O   0  0  0  0  0  0  0  0  0  0  0  0
    5.6004  -11.6579   26.3367 C   0  0  0  0  0  0  0  0  0  0  0  0
    6.5896  -12.1525   25.3192 C   0  0  0  0  0  0  0  0  0  0  0  0
    7.1531  -13.4610   25.7947 C   0  0  2  0  0  0  0  0  0  0  0  0
    8.0138  -13.2055   27.0346 C   0  0  0  0  0  0  0  0  0  0  0  0
    7.9851  -14.1593   24.7313 C   0  0  2  0  0  0  0  0  0  0  0  0
    7.2106  -14.4491   23.5573 N   0  0  0  0  0  0  0  0  0  0  0  0
    8.4810  -15.4249   25.3103 C   0  0  0  0  0  0  0  0  0  0  0  0
    7.6493  -16.3536   25.5054 O   0  0  0  0  0  0  0  0  0  0  0  0
   12.1106  -19.8092   25.2117 N   0  0  0  0  0  0  0  0  0  0  0  0
   11.9411  -18.7204   26.1091 C   0  0  0  0  0  0  0  0  0  0  0  0
   12.1093  -18.9265   27.3372 O   0  0  0  0  0  0  0  0  0  0  0  0
   11.5754  -17.3992   25.5607 C   0  0  0  0  0  0  0  0  0  0  0  0
   10.2178  -17.0167   26.0181 C   0  0  2  0  0  0  0  0  0  0  0  0
    9.8215  -15.6856   25.6672 N   0  0  0  0  0  0  0  0  0  0  0  0
   10.1361  -17.1313   27.4923 C   0  0  0  0  0  0  0  0  0  0  0  0
    9.7932  -18.2870   28.1805 O   0  0  0  0  0  0  0  0  0  0  0  0
   10.3851  -16.1330   28.2572 O   0  0  0  0  0  0  0  0  0  0  0  0
  2  1  1  0
  3  2  1  0
  3  5  1  0
  3  4  1  6
  5 12  1  0
  5  6  2  0
  7  8  1  0
  8  9  1  0
  9 11  1  0
  9 10  1  1
 11 13  1  0
 11 12  1  6
 13 20  1  0
 13 14  2  0
 16 18  1  0
 16 15  1  0
 17 16  2  0
 19 18  1  1
 19 21  1  0
 20 19  1  0
 21 22  1  0
 23 21  2  0
M  END
$$$$
