SIN.pdb
     RDKit          3D

 23 22  0  0  1  0  0  0  0  0999 V2000
    7.8227  -17.4161   21.2716 O   0  0  0  0  0  0  0  0  0  0  0  0
    6.7362  -16.5842   21.1910 C   0  0  0  0  0  0  0  0  0  0  0  0
    7.2031  -15.1472   21.1912 C   0  0  2  0  0  0  0  0  0  0  0  0
    8.0696  -14.9449   20.0136 N   0  0  0  0  0  0  0  0  0  0  0  0
    7.9662  -14.7565   22.3747 C   0  0  0  0  0  0  0  0  0  0  0  0
    9.2275  -14.6912   22.3125 O   0  0  0  0  0  0  0  0  0  0  0  0
    5.6442  -11.6371   26.2815 C   0  0  0  0  0  0  0  0  0  0  0  0
    6.7210  -12.0953   25.3387 C   0  0  0  0  0  0  0  0  0  0  0  0
    7.2396  -13.4231   25.8117 C   0  0  2  0  0  0  0  0  0  0  0  0
    8.0943  -13.2012   27.0622 C   0  0  0  0  0  0  0  0  0  0  0  0
    8.0615  -14.1398   24.7527 C   0  0  2  0  0  0  0  0  0  0  0  0
    7.2762  -14.4489   23.5909 N   0  0  0  0  0  0  0  0  0  0  0  0
    8.5622  -15.3957   25.3484 C   0  0  0  0  0  0  0  0  0  0  0  0
    7.7495  -16.3508   25.4879 O   0  0  0  0  0  0  0  0  0  0  0  0
   11.6986  -19.7705   25.2087 N   0  0  0  0  0  0  0  0  0  0  0  0
   12.0455  -18.6528   26.0150 C   0  0  0  0  0  0  0  0  0  0  0  0
   12.6674  -18.8596   27.0872 O   0  0  0  0  0  0  0  0  0  0  0  0
   11.6608  -17.3022   25.5591 C   0  0  0  0  0  0  0  0  0  0  0  0
   10.3202  -16.9503   26.0859 C   0  0  2  0  0  0  0  0  0  0  0  0
    9.8875  -15.6195   25.7792 N   0  0  0  0  0  0  0  0  0  0  0  0
   10.3088  -17.0932   27.5599 C   0  0  0  0  0  0  0  0  0  0  0  0
   10.5711  -16.0682   28.4584 O   0  0  0  0  0  0  0  0  0  0  0  0
   10.0470  -18.2149   28.1228 O   0  0  0  0  0  0  0  0  0  0  0  0
  2  1  1  0
  3  2  1  0
  3  5  1  0
  3  4  1  6
  5 12  1  0
  5  6  2  0
  7  8  1  0
  8  9  1  0
  9 11  1  0
  9 10  1  1
 11 13  1  0
 11 12  1  6
 13 20  1  0
 13 14  2  0
 16 18  1  0
 16 15  1  0
 17 16  2  0
 19 18  1  1
 19 21  1  0
 20 19  1  0
 21 22  1  0
 23 21  2  0
M  END
$$$$
