SIN.pdb
     RDKit          3D

 23 22  0  0  1  0  0  0  0  0999 V2000
    6.0934  -17.1619   20.2132 O   0  0  0  0  0  0  0  0  0  0  0  0
    6.9580  -16.7755   21.2042 C   0  0  0  0  0  0  0  0  0  0  0  0
    6.8977  -15.2744   21.3659 C   0  0  2  0  0  0  0  0  0  0  0  0
    7.5126  -14.6583   20.1741 N   0  0  0  0  0  0  0  0  0  0  0  0
    7.5986  -14.7613   22.5411 C   0  0  0  0  0  0  0  0  0  0  0  0
    8.8447  -14.5537   22.4853 O   0  0  0  0  0  0  0  0  0  0  0  0
    6.9988  -11.1142   25.1626 C   0  0  0  0  0  0  0  0  0  0  0  0
    6.0007  -12.2203   25.3591 C   0  0  0  0  0  0  0  0  0  0  0  0
    6.7128  -13.4131   25.9302 C   0  0  2  0  0  0  0  0  0  0  0  0
    7.5568  -12.9584   27.1236 C   0  0  0  0  0  0  0  0  0  0  0  0
    7.6026  -14.1053   24.9104 C   0  0  2  0  0  0  0  0  0  0  0  0
    6.8653  -14.4964   23.7419 N   0  0  0  0  0  0  0  0  0  0  0  0
    8.1677  -15.3095   25.5534 C   0  0  0  0  0  0  0  0  0  0  0  0
    7.4069  -16.3010   25.7274 O   0  0  0  0  0  0  0  0  0  0  0  0
   13.0311  -18.7594   25.9758 N   0  0  0  0  0  0  0  0  0  0  0  0
   11.6388  -18.5010   25.8557 C   0  0  0  0  0  0  0  0  0  0  0  0
   10.8354  -19.4423   26.0740 O   0  0  0  0  0  0  0  0  0  0  0  0
   11.1989  -17.1425   25.4804 C   0  0  0  0  0  0  0  0  0  0  0  0
   10.0228  -16.7464   26.2918 C   0  0  2  0  0  0  0  0  0  0  0  0
    9.5017  -15.4456   25.9942 N   0  0  0  0  0  0  0  0  0  0  0  0
   10.3779  -16.7653   27.7294 C   0  0  0  0  0  0  0  0  0  0  0  0
   10.5652  -15.6365   28.5153 O   0  0  0  0  0  0  0  0  0  0  0  0
   10.5423  -17.8665   28.3650 O   0  0  0  0  0  0  0  0  0  0  0  0
  2  1  1  0
  3  2  1  0
  3  5  1  0
  3  4  1  6
  5 12  1  0
  5  6  2  0
  7  8  1  0
  8  9  1  0
  9 11  1  0
  9 10  1  1
 11 13  1  0
 11 12  1  6
 13 20  1  0
 13 14  2  0
 16 18  1  0
 16 15  1  0
 17 16  2  0
 19 18  1  6
 19 21  1  0
 20 19  1  0
 21 22  1  0
 23 21  2  0
M  END
$$$$
