SIN.pdb
     RDKit          3D

 23 22  0  0  1  0  0  0  0  0999 V2000
    6.7046  -19.2019   23.4539 O   0  0  0  0  0  0  0  0  0  0  0  0
    5.5975  -18.4131   23.6295 C   0  0  0  0  0  0  0  0  0  0  0  0
    5.7916  -17.1053   22.8980 C   0  0  2  0  0  0  0  0  0  0  0  0
    6.1145  -17.4093   21.4903 N   0  0  0  0  0  0  0  0  0  0  0  0
    6.8648  -16.2665   23.4272 C   0  0  0  0  0  0  0  0  0  0  0  0
    7.9805  -16.2290   22.8332 O   0  0  0  0  0  0  0  0  0  0  0  0
    5.7885  -11.8257   26.6264 C   0  0  0  0  0  0  0  0  0  0  0  0
    6.3463  -12.6932   25.5334 C   0  0  0  0  0  0  0  0  0  0  0  0
    7.2768  -13.6996   26.1475 C   0  0  2  0  0  0  0  0  0  0  0  0
    8.4897  -12.9630   26.7219 C   0  0  0  0  0  0  0  0  0  0  0  0
    7.7422  -14.7488   25.1509 C   0  0  2  0  0  0  0  0  0  0  0  0
    6.6396  -15.4940   24.6115 N   0  0  0  0  0  0  0  0  0  0  0  0
    8.6496  -15.6718   25.8633 C   0  0  0  0  0  0  0  0  0  0  0  0
    8.1383  -16.5195   26.6456 O   0  0  0  0  0  0  0  0  0  0  0  0
   11.2103  -18.5112   28.3118 N   0  0  0  0  0  0  0  0  0  0  0  0
    9.9813  -18.5649   27.6002 C   0  0  0  0  0  0  0  0  0  0  0  0
    8.9673  -19.0130   28.1919 O   0  0  0  0  0  0  0  0  0  0  0  0
    9.9501  -18.0939   26.2012 C   0  0  0  0  0  0  0  0  0  0  0  0
   10.7853  -16.8774   26.0555 C   0  0  2  0  0  0  0  0  0  0  0  0
   10.0557  -15.6853   25.7410 N   0  0  0  0  0  0  0  0  0  0  0  0
   11.7853  -17.0829   24.9828 C   0  0  0  0  0  0  0  0  0  0  0  0
   11.9787  -16.2307   23.9043 O   0  0  0  0  0  0  0  0  0  0  0  0
   12.5661  -18.0999   24.9800 O   0  0  0  0  0  0  0  0  0  0  0  0
  2  1  1  0
  3  2  1  0
  3  5  1  0
  3  4  1  6
  5 12  1  0
  5  6  2  0
  7  8  1  0
  8  9  1  0
  9 11  1  0
  9 10  1  6
 11 13  1  0
 11 12  1  1
 13 20  1  0
 13 14  2  0
 16 18  1  0
 16 15  1  0
 17 16  2  0
 19 18  1  6
 19 21  1  0
 20 19  1  0
 21 22  1  0
 23 21  2  0
M  END
$$$$
