SIN.pdb
     RDKit          3D

 23 22  0  0  1  0  0  0  0  0999 V2000
    8.3248  -17.1820   20.7758 O   0  0  0  0  0  0  0  0  0  0  0  0
    7.0834  -16.6868   21.0798 C   0  0  0  0  0  0  0  0  0  0  0  0
    7.1903  -15.2079   21.3708 C   0  0  2  0  0  0  0  0  0  0  0  0
    7.8628  -14.5616   20.2270 N   0  0  0  0  0  0  0  0  0  0  0  0
    7.9503  -14.8790   22.5748 C   0  0  0  0  0  0  0  0  0  0  0  0
    9.2133  -14.9377   22.5531 O   0  0  0  0  0  0  0  0  0  0  0  0
    5.6855  -11.5280   26.3575 C   0  0  0  0  0  0  0  0  0  0  0  0
    6.7073  -12.0763   25.4016 C   0  0  0  0  0  0  0  0  0  0  0  0
    7.2213  -13.3790   25.9442 C   0  0  2  0  0  0  0  0  0  0  0  0
    8.0812  -13.0939   27.1782 C   0  0  0  0  0  0  0  0  0  0  0  0
    8.0364  -14.1559   24.9230 C   0  0  2  0  0  0  0  0  0  0  0  0
    7.2558  -14.4907   23.7652 N   0  0  0  0  0  0  0  0  0  0  0  0
    8.4997  -15.3995   25.5723 C   0  0  0  0  0  0  0  0  0  0  0  0
    7.6882  -16.3622   25.6565 O   0  0  0  0  0  0  0  0  0  0  0  0
   13.0201  -19.0109   26.5948 N   0  0  0  0  0  0  0  0  0  0  0  0
   11.6960  -18.8098   26.1196 C   0  0  0  0  0  0  0  0  0  0  0  0
   10.9032  -19.7847   26.1287 O   0  0  0  0  0  0  0  0  0  0  0  0
   11.3113  -17.4684   25.6370 C   0  0  0  0  0  0  0  0  0  0  0  0
   10.2085  -16.9264   26.4668 C   0  0  2  0  0  0  0  0  0  0  0  0
    9.7877  -15.6037   26.1122 N   0  0  0  0  0  0  0  0  0  0  0  0
   10.6211  -16.8958   27.8887 C   0  0  0  0  0  0  0  0  0  0  0  0
   10.5498  -17.9748   28.7590 O   0  0  0  0  0  0  0  0  0  0  0  0
   11.0876  -15.8306   28.4287 O   0  0  0  0  0  0  0  0  0  0  0  0
  2  1  1  0
  3  2  1  0
  3  5  1  0
  3  4  1  6
  5 12  1  0
  5  6  2  0
  7  8  1  0
  8  9  1  0
  9 11  1  0
  9 10  1  1
 11 13  1  0
 11 12  1  6
 13 20  1  0
 13 14  2  0
 16 18  1  0
 16 15  1  0
 17 16  2  0
 19 18  1  6
 19 21  1  0
 20 19  1  0
 21 22  1  0
 23 21  2  0
M  END
$$$$
