WDK.pdb
     RDKit          3D

 32 33  0  0  1  0  0  0  0  0999 V2000
   26.5863  -22.3378   -9.8737 N   0  0  0  0  0  0  0  0  0  0  0  0
   26.1858  -20.9714   -9.7928 C   0  0  1  0  0  0  0  0  0  0  0  0
   27.2861  -19.9700   -9.6736 C   0  0  0  0  0  0  0  0  0  0  0  0
   28.2783  -20.4060   -8.6966 C   0  0  0  0  0  0  0  0  0  0  0  0
   29.3754  -21.1885   -8.9721 C   0  0  0  0  0  0  0  0  0  0  0  0
   30.0508  -21.3482   -7.8370 N   0  0  0  0  0  0  0  0  0  0  0  0
   29.4341  -20.6994   -6.8329 C   0  0  0  0  0  0  0  0  0  0  0  0
   29.7470  -20.5773   -5.4834 C   0  0  0  0  0  0  0  0  0  0  0  0
   28.9413  -19.8506   -4.6288 C   0  0  0  0  0  0  0  0  0  0  0  0
   27.8279  -19.2600   -5.1670 C   0  0  0  0  0  0  0  0  0  0  0  0
   27.4963  -19.3661   -6.5015 C   0  0  0  0  0  0  0  0  0  0  0  0
   28.3115  -20.0996   -7.3624 C   0  0  0  0  0  0  0  0  0  0  0  0
   25.3183  -20.5518  -10.9202 C   0  0  0  0  0  0  0  0  0  0  0  0
   24.7786  -19.4408  -10.9179 O   0  0  0  0  0  0  0  0  0  0  0  0
   25.1165  -21.4423  -12.0004 N   0  0  0  0  0  0  0  0  0  0  0  0
   24.3519  -21.1306  -13.1708 C   0  0  1  0  0  0  0  0  0  0  0  0
   24.8659  -21.6856  -14.4524 C   0  0  0  0  0  0  0  0  0  0  0  0
   26.1849  -21.1211  -14.7893 C   0  0  0  0  0  0  0  0  0  0  0  0
   26.3947  -19.8930  -14.6825 O   0  0  0  0  0  0  0  0  0  0  0  0
   22.9160  -21.5043  -12.9343 C   0  0  0  0  0  0  0  0  0  0  0  0
   22.0674  -21.3364  -13.8620 O   0  0  0  0  0  0  0  0  0  0  0  0
   27.2290  -21.9197  -15.2317 O   0  0  0  0  0  0  0  0  0  0  0  0
   22.4476  -22.0411  -11.7170 N   0  0  0  0  0  0  0  0  0  0  0  0
   21.0607  -22.3764  -11.5016 C   0  0  1  0  0  0  0  0  0  0  0  0
   20.6405  -22.1469  -10.0713 C   0  0  0  0  0  0  0  0  0  0  0  0
   19.2309  -22.5948   -9.8025 C   0  0  0  0  0  0  0  0  0  0  0  0
   19.1973  -24.0750   -9.5834 C   0  0  0  0  0  0  0  0  0  0  0  0
   17.8073  -24.6187   -9.3645 C   0  0  0  0  0  0  0  0  0  0  0  0
   17.7913  -26.0414   -9.1998 N   0  0  0  0  0  0  0  0  0  0  0  0
   20.1724  -21.6645  -12.4582 C   0  0  0  0  0  0  0  0  0  0  0  0
   20.0979  -20.4285  -12.5235 O   0  0  0  0  0  0  0  0  0  0  0  0
   19.3812  -22.4042  -13.3271 O   0  0  0  0  0  0  0  0  0  0  0  0
  2  1  1  6
  3  4  1  0
  3  2  1  0
  4  5  2  0
  5  6  1  0
  7  6  1  0
  8  7  2  0
  9  8  1  0
 10 11  1  0
 10  9  2  0
 11 12  2  0
 12  4  1  0
 12  7  1  0
 13  2  1  0
 13 14  2  0
 15 13  1  0
 16 15  1  0
 16 17  1  6
 18 19  2  0
 18 17  1  0
 20 16  1  0
 21 20  2  0
 22 18  1  0
 23 20  1  0
 24 25  1  1
 24 23  1  0
 25 26  1  0
 27 28  1  0
 27 26  1  0
 28 29  1  0
 30 32  1  0
 30 24  1  0
 31 30  2  0
M  END
$$$$
