WDK.pdb
     RDKit          3D

 32 33  0  0  1  0  0  0  0  0999 V2000
   27.6372  -19.8029  -11.7713 N   0  0  0  0  0  0  0  0  0  0  0  0
   26.7919  -20.9514  -11.7504 C   0  0  1  0  0  0  0  0  0  0  0  0
   26.1300  -21.2566  -10.4480 C   0  0  0  0  0  0  0  0  0  0  0  0
   27.0164  -20.9441   -9.3318 C   0  0  0  0  0  0  0  0  0  0  0  0
   26.6744  -20.1944   -8.2304 C   0  0  0  0  0  0  0  0  0  0  0  0
   27.7338  -20.1547   -7.4264 N   0  0  0  0  0  0  0  0  0  0  0  0
   28.7525  -20.8498   -7.9635 C   0  0  0  0  0  0  0  0  0  0  0  0
   30.0453  -21.0904   -7.5111 C   0  0  0  0  0  0  0  0  0  0  0  0
   30.9318  -21.8428   -8.2564 C   0  0  0  0  0  0  0  0  0  0  0  0
   30.4829  -22.3377   -9.4530 C   0  0  0  0  0  0  0  0  0  0  0  0
   29.2060  -22.1133   -9.9232 C   0  0  0  0  0  0  0  0  0  0  0  0
   28.3127  -21.3540   -9.1687 C   0  0  0  0  0  0  0  0  0  0  0  0
   25.7366  -20.9160  -12.7920 C   0  0  0  0  0  0  0  0  0  0  0  0
   25.3204  -19.8380  -13.2282 O   0  0  0  0  0  0  0  0  0  0  0  0
   25.2120  -22.1353  -13.2803 N   0  0  0  0  0  0  0  0  0  0  0  0
   24.3306  -22.2416  -14.4043 C   0  0  1  0  0  0  0  0  0  0  0  0
   24.4611  -23.4792  -15.2205 C   0  0  0  0  0  0  0  0  0  0  0  0
   25.7190  -23.4840  -15.9882 C   0  0  0  0  0  0  0  0  0  0  0  0
   26.0083  -22.5248  -16.7366 O   0  0  0  0  0  0  0  0  0  0  0  0
   22.9176  -22.0202  -13.9442 C   0  0  0  0  0  0  0  0  0  0  0  0
   22.5624  -22.4365  -12.7999 O   0  0  0  0  0  0  0  0  0  0  0  0
   26.6170  -24.5381  -15.9111 O   0  0  0  0  0  0  0  0  0  0  0  0
   21.9443  -21.3639  -14.7260 N   0  0  0  0  0  0  0  0  0  0  0  0
   20.5995  -21.1345  -14.2556 C   0  0  1  0  0  0  0  0  0  0  0  0
   19.9661  -19.9377  -14.9198 C   0  0  0  0  0  0  0  0  0  0  0  0
   18.6236  -19.5943  -14.3369 C   0  0  0  0  0  0  0  0  0  0  0  0
   18.0725  -18.3739  -15.0055 C   0  0  0  0  0  0  0  0  0  0  0  0
   16.5648  -18.3360  -15.0389 C   0  0  0  0  0  0  0  0  0  0  0  0
   16.0550  -17.0848  -15.5142 N   0  0  0  0  0  0  0  0  0  0  0  0
   19.7575  -22.3522  -14.3950 C   0  0  0  0  0  0  0  0  0  0  0  0
   19.8568  -23.1401  -15.3473 O   0  0  0  0  0  0  0  0  0  0  0  0
   18.8094  -22.6356  -13.4209 O   0  0  0  0  0  0  0  0  0  0  0  0
  2  1  1  1
  3  4  1  0
  3  2  1  0
  4  5  2  0
  5  6  1  0
  7  6  1  0
  8  7  2  0
  9  8  1  0
 10 11  1  0
 10  9  2  0
 11 12  2  0
 12  4  1  0
 12  7  1  0
 13  2  1  0
 13 14  2  0
 15 13  1  0
 16 15  1  0
 16 17  1  1
 18 19  2  0
 18 17  1  0
 20 16  1  0
 21 20  2  0
 22 18  1  0
 23 20  1  0
 24 25  1  6
 24 23  1  0
 25 26  1  0
 27 28  1  0
 27 26  1  0
 28 29  1  0
 30 32  1  0
 30 24  1  0
 31 30  2  0
M  END
$$$$
