WDK.pdb
     RDKit          3D

 32 33  0  0  1  0  0  0  0  0999 V2000
   26.4217  -22.6789  -10.0500 N   0  0  0  0  0  0  0  0  0  0  0  0
   25.8389  -21.3824  -10.1653 C   0  0  1  0  0  0  0  0  0  0  0  0
   26.7926  -20.2359  -10.2245 C   0  0  0  0  0  0  0  0  0  0  0  0
   27.8488  -20.3902   -9.2298 C   0  0  0  0  0  0  0  0  0  0  0  0
   29.0623  -21.0008   -9.4462 C   0  0  0  0  0  0  0  0  0  0  0  0
   29.7599  -20.9209   -8.3161 N   0  0  0  0  0  0  0  0  0  0  0  0
   29.0458  -20.2818   -7.3721 C   0  0  0  0  0  0  0  0  0  0  0  0
   29.3391  -19.9643   -6.0503 C   0  0  0  0  0  0  0  0  0  0  0  0
   28.4249  -19.2969   -5.2589 C   0  0  0  0  0  0  0  0  0  0  0  0
   27.2248  -18.9644   -5.8310 C   0  0  0  0  0  0  0  0  0  0  0  0
   26.9104  -19.2679   -7.1391 C   0  0  0  0  0  0  0  0  0  0  0  0
   27.8351  -19.9411   -7.9363 C   0  0  0  0  0  0  0  0  0  0  0  0
   24.9179  -21.2594  -11.3214 C   0  0  0  0  0  0  0  0  0  0  0  0
   25.1873  -21.7990  -12.3993 O   0  0  0  0  0  0  0  0  0  0  0  0
   23.7247  -20.5148  -11.1733 N   0  0  0  0  0  0  0  0  0  0  0  0
   22.6674  -20.4846  -12.1391 C   0  0  1  0  0  0  0  0  0  0  0  0
   21.2991  -20.2546  -11.6011 C   0  0  0  0  0  0  0  0  0  0  0  0
   20.7380  -21.4875  -11.0204 C   0  0  0  0  0  0  0  0  0  0  0  0
   20.7388  -22.5533  -11.6744 O   0  0  0  0  0  0  0  0  0  0  0  0
   23.0168  -19.5018  -13.2205 C   0  0  0  0  0  0  0  0  0  0  0  0
   22.9594  -18.2587  -12.9750 O   0  0  0  0  0  0  0  0  0  0  0  0
   20.1951  -21.5118   -9.7444 O   0  0  0  0  0  0  0  0  0  0  0  0
   23.4122  -19.8886  -14.5179 N   0  0  0  0  0  0  0  0  0  0  0  0
   23.7121  -18.9298  -15.5538 C   0  0  1  0  0  0  0  0  0  0  0  0
   24.4928  -19.5486  -16.6862 C   0  0  0  0  0  0  0  0  0  0  0  0
   24.8916  -18.5448  -17.7318 C   0  0  0  0  0  0  0  0  0  0  0  0
   25.6647  -19.2201  -18.8210 C   0  0  0  0  0  0  0  0  0  0  0  0
   26.1994  -18.2652  -19.8592 C   0  0  0  0  0  0  0  0  0  0  0  0
   26.9104  -18.9328  -20.9082 N   0  0  0  0  0  0  0  0  0  0  0  0
   22.4827  -18.2487  -16.0394 C   0  0  0  0  0  0  0  0  0  0  0  0
   22.3996  -17.0197  -16.1819 O   0  0  0  0  0  0  0  0  0  0  0  0
   21.3648  -19.0104  -16.3525 O   0  0  0  0  0  0  0  0  0  0  0  0
  2  1  1  6
  3  4  1  0
  3  2  1  0
  4  5  2  0
  5  6  1  0
  7  6  1  0
  8  7  2  0
  9  8  1  0
 10 11  1  0
 10  9  2  0
 11 12  2  0
 12  4  1  0
 12  7  1  0
 13  2  1  0
 13 14  2  0
 15 13  1  0
 16 15  1  0
 16 17  1  1
 18 19  2  0
 18 17  1  0
 20 16  1  0
 21 20  2  0
 22 18  1  0
 23 20  1  0
 24 25  1  6
 24 23  1  0
 25 26  1  0
 27 28  1  0
 27 26  1  0
 28 29  1  0
 30 32  1  0
 30 24  1  0
 31 30  2  0
M  END
$$$$
