WDK.pdb
     RDKit          3D

 32 33  0  0  1  0  0  0  0  0999 V2000
   18.2657  -16.5544  -19.9735 N   0  0  0  0  0  0  0  0  0  0  0  0
   17.8076  -16.4043  -18.6314 C   0  0  1  0  0  0  0  0  0  0  0  0
   17.0112  -15.1756  -18.3423 C   0  0  0  0  0  0  0  0  0  0  0  0
   17.7481  -13.9782  -18.7325 C   0  0  0  0  0  0  0  0  0  0  0  0
   18.6318  -13.2921  -17.9322 C   0  0  0  0  0  0  0  0  0  0  0  0
   19.1180  -12.2799  -18.6458 N   0  0  0  0  0  0  0  0  0  0  0  0
   18.5835  -12.2811  -19.8802 C   0  0  0  0  0  0  0  0  0  0  0  0
   18.7704  -11.4346  -20.9676 C   0  0  0  0  0  0  0  0  0  0  0  0
   18.0903  -11.6370  -22.1525 C   0  0  0  0  0  0  0  0  0  0  0  0
   17.2293  -12.7019  -22.2075 C   0  0  0  0  0  0  0  0  0  0  0  0
   17.0269  -13.5555  -21.1433 C   0  0  0  0  0  0  0  0  0  0  0  0
   17.7151  -13.3495  -19.9485 C   0  0  0  0  0  0  0  0  0  0  0  0
   17.0254  -17.5689  -18.1501 C   0  0  0  0  0  0  0  0  0  0  0  0
   16.1704  -18.0928  -18.8714 O   0  0  0  0  0  0  0  0  0  0  0  0
   17.2717  -18.0730  -16.8518 N   0  0  0  0  0  0  0  0  0  0  0  0
   16.6532  -19.2464  -16.3113 C   0  0  1  0  0  0  0  0  0  0  0  0
   17.4469  -19.9943  -15.2986 C   0  0  0  0  0  0  0  0  0  0  0  0
   17.8961  -21.2954  -15.8249 C   0  0  0  0  0  0  0  0  0  0  0  0
   17.1999  -21.9167  -16.6574 O   0  0  0  0  0  0  0  0  0  0  0  0
   15.2858  -18.8907  -15.8002 C   0  0  0  0  0  0  0  0  0  0  0  0
   15.1155  -17.7933  -15.1875 O   0  0  0  0  0  0  0  0  0  0  0  0
   19.0913  -21.8723  -15.4222 O   0  0  0  0  0  0  0  0  0  0  0  0
   14.1588  -19.7226  -15.9651 N   0  0  0  0  0  0  0  0  0  0  0  0
   12.8367  -19.3275  -15.5429 C   0  0  1  0  0  0  0  0  0  0  0  0
   11.7715  -19.8180  -16.4914 C   0  0  0  0  0  0  0  0  0  0  0  0
   11.5290  -21.2971  -16.3757 C   0  0  0  0  0  0  0  0  0  0  0  0
   10.5084  -21.7285  -17.3819 C   0  0  0  0  0  0  0  0  0  0  0  0
   10.1174  -23.1801  -17.2568 C   0  0  0  0  0  0  0  0  0  0  0  0
    9.0821  -23.5532  -18.1736 N   0  0  0  0  0  0  0  0  0  0  0  0
   12.5633  -19.7463  -14.1426 C   0  0  0  0  0  0  0  0  0  0  0  0
   11.5085  -19.4786  -13.5482 O   0  0  0  0  0  0  0  0  0  0  0  0
   13.5248  -20.4726  -13.4526 O   0  0  0  0  0  0  0  0  0  0  0  0
  2  1  1  6
  3  4  1  0
  3  2  1  0
  4  5  2  0
  5  6  1  0
  7  6  1  0
  8  7  2  0
  9  8  1  0
 10 11  1  0
 10  9  2  0
 11 12  2  0
 12  4  1  0
 12  7  1  0
 13  2  1  0
 13 14  2  0
 15 13  1  0
 16 15  1  0
 16 17  1  1
 18 19  2  0
 18 17  1  0
 20 16  1  0
 21 20  2  0
 22 18  1  0
 23 20  1  0
 24 25  1  6
 24 23  1  0
 25 26  1  0
 27 28  1  0
 27 26  1  0
 28 29  1  0
 30 32  1  0
 30 24  1  0
 31 30  2  0
M  END
$$$$
