WDK.pdb
     RDKit          3D

 32 33  0  0  1  0  0  0  0  0999 V2000
   28.3753  -22.1766  -10.6416 N   0  0  0  0  0  0  0  0  0  0  0  0
   27.1475  -21.4938  -10.3962 C   0  0  1  0  0  0  0  0  0  0  0  0
   27.2224  -20.3139   -9.4853 C   0  0  0  0  0  0  0  0  0  0  0  0
   28.2485  -20.5113   -8.4669 C   0  0  0  0  0  0  0  0  0  0  0  0
   29.5123  -21.0038   -8.6961 C   0  0  0  0  0  0  0  0  0  0  0  0
   30.1581  -21.0111   -7.5329 N   0  0  0  0  0  0  0  0  0  0  0  0
   29.3619  -20.5424   -6.5552 C   0  0  0  0  0  0  0  0  0  0  0  0
   29.5795  -20.3662   -5.1930 C   0  0  0  0  0  0  0  0  0  0  0  0
   28.5876  -19.8654   -4.3727 C   0  0  0  0  0  0  0  0  0  0  0  0
   27.3884  -19.5526   -4.9577 C   0  0  0  0  0  0  0  0  0  0  0  0
   27.1482  -19.7181   -6.3056 C   0  0  0  0  0  0  0  0  0  0  0  0
   28.1512  -20.2231   -7.1318 C   0  0  0  0  0  0  0  0  0  0  0  0
   26.4659  -21.0577  -11.6392 C   0  0  0  0  0  0  0  0  0  0  0  0
   27.0755  -21.0295  -12.7132 O   0  0  0  0  0  0  0  0  0  0  0  0
   25.1060  -20.6739  -11.5788 N   0  0  0  0  0  0  0  0  0  0  0  0
   24.0870  -21.1745  -12.4520 C   0  0  1  0  0  0  0  0  0  0  0  0
   24.0522  -22.6511  -12.6345 C   0  0  0  0  0  0  0  0  0  0  0  0
   23.1357  -23.0345  -13.7229 C   0  0  0  0  0  0  0  0  0  0  0  0
   21.9522  -23.3514  -13.4727 O   0  0  0  0  0  0  0  0  0  0  0  0
   22.7553  -20.6324  -12.0158 C   0  0  0  0  0  0  0  0  0  0  0  0
   22.0079  -21.3387  -11.2732 O   0  0  0  0  0  0  0  0  0  0  0  0
   23.5455  -23.0583  -15.0477 O   0  0  0  0  0  0  0  0  0  0  0  0
   22.2787  -19.3592  -12.3916 N   0  0  0  0  0  0  0  0  0  0  0  0
   21.2103  -19.1833  -13.3454 C   0  0  1  0  0  0  0  0  0  0  0  0
   21.6634  -19.4594  -14.7572 C   0  0  0  0  0  0  0  0  0  0  0  0
   21.6877  -18.2220  -15.6105 C   0  0  0  0  0  0  0  0  0  0  0  0
   23.0952  -17.7393  -15.7719 C   0  0  0  0  0  0  0  0  0  0  0  0
   23.2054  -16.4640  -16.5701 C   0  0  0  0  0  0  0  0  0  0  0  0
   24.5459  -15.9626  -16.6261 N   0  0  0  0  0  0  0  0  0  0  0  0
   20.0158  -19.9908  -12.9818 C   0  0  0  0  0  0  0  0  0  0  0  0
   19.7615  -21.0926  -13.4907 O   0  0  0  0  0  0  0  0  0  0  0  0
   19.1322  -19.5024  -12.0285 O   0  0  0  0  0  0  0  0  0  0  0  0
  2  1  1  6
  3  4  1  0
  3  2  1  0
  4  5  2  0
  5  6  1  0
  7  6  1  0
  8  7  2  0
  9  8  1  0
 10 11  1  0
 10  9  2  0
 11 12  2  0
 12  4  1  0
 12  7  1  0
 13  2  1  0
 13 14  2  0
 15 13  1  0
 16 15  1  0
 16 17  1  1
 18 19  2  0
 18 17  1  0
 20 16  1  0
 21 20  2  0
 22 18  1  0
 23 20  1  0
 24 25  1  6
 24 23  1  0
 25 26  1  0
 27 28  1  0
 27 26  1  0
 28 29  1  0
 30 32  1  0
 30 24  1  0
 31 30  2  0
M  END
$$$$
