WDK.pdb
     RDKit          3D

 32 33  0  0  1  0  0  0  0  0999 V2000
   28.5737  -21.8791   -9.4468 N   0  0  0  0  0  0  0  0  0  0  0  0
   27.2825  -21.2736   -9.4372 C   0  0  1  0  0  0  0  0  0  0  0  0
   27.1377  -20.0479   -8.5981 C   0  0  0  0  0  0  0  0  0  0  0  0
   28.2036  -19.9726   -7.6046 C   0  0  0  0  0  0  0  0  0  0  0  0
   29.5483  -19.8988   -7.8847 C   0  0  0  0  0  0  0  0  0  0  0  0
   30.1967  -19.8182   -6.7257 N   0  0  0  0  0  0  0  0  0  0  0  0
   29.3245  -19.8372   -5.7018 C   0  0  0  0  0  0  0  0  0  0  0  0
   29.5160  -19.7834   -4.3254 C   0  0  0  0  0  0  0  0  0  0  0  0
   28.4443  -19.8269   -3.4554 C   0  0  0  0  0  0  0  0  0  0  0  0
   27.1931  -19.9251   -4.0059 C   0  0  0  0  0  0  0  0  0  0  0  0
   26.9772  -19.9799   -5.3670 C   0  0  0  0  0  0  0  0  0  0  0  0
   28.0606  -19.9351   -6.2433 C   0  0  0  0  0  0  0  0  0  0  0  0
   26.7823  -20.9488  -10.7952 C   0  0  0  0  0  0  0  0  0  0  0  0
   27.4259  -20.2027  -11.5400 O   0  0  0  0  0  0  0  0  0  0  0  0
   25.5561  -21.5058  -11.2273 N   0  0  0  0  0  0  0  0  0  0  0  0
   25.0113  -21.3357  -12.5409 C   0  0  1  0  0  0  0  0  0  0  0  0
   25.0826  -22.5232  -13.4352 C   0  0  0  0  0  0  0  0  0  0  0  0
   24.6108  -22.1996  -14.7933 C   0  0  0  0  0  0  0  0  0  0  0  0
   24.2115  -21.0468  -15.0675 O   0  0  0  0  0  0  0  0  0  0  0  0
   23.6111  -20.8029  -12.4277 C   0  0  0  0  0  0  0  0  0  0  0  0
   22.8285  -21.2877  -11.5551 O   0  0  0  0  0  0  0  0  0  0  0  0
   24.5918  -23.1485  -15.8046 O   0  0  0  0  0  0  0  0  0  0  0  0
   23.1064  -19.7752  -13.2514 N   0  0  0  0  0  0  0  0  0  0  0  0
   21.7226  -19.3674  -13.2201 C   0  0  1  0  0  0  0  0  0  0  0  0
   21.4265  -18.2979  -14.2416 C   0  0  0  0  0  0  0  0  0  0  0  0
   20.0318  -17.7503  -14.1197 C   0  0  0  0  0  0  0  0  0  0  0  0
   19.8109  -16.6804  -15.1428 C   0  0  0  0  0  0  0  0  0  0  0  0
   18.4754  -15.9911  -15.0129 C   0  0  0  0  0  0  0  0  0  0  0  0
   18.2495  -15.0270  -16.0477 N   0  0  0  0  0  0  0  0  0  0  0  0
   20.8075  -20.5312  -13.3594 C   0  0  0  0  0  0  0  0  0  0  0  0
   20.9072  -21.3673  -14.2696 O   0  0  0  0  0  0  0  0  0  0  0  0
   19.7866  -20.7049  -12.4343 O   0  0  0  0  0  0  0  0  0  0  0  0
  2  1  1  6
  3  4  1  0
  3  2  1  0
  4  5  2  0
  5  6  1  0
  7  6  1  0
  8  7  2  0
  9  8  1  0
 10 11  1  0
 10  9  2  0
 11 12  2  0
 12  4  1  0
 12  7  1  0
 13  2  1  0
 13 14  2  0
 15 13  1  0
 16 15  1  0
 16 17  1  1
 18 19  2  0
 18 17  1  0
 20 16  1  0
 21 20  2  0
 22 18  1  0
 23 20  1  0
 24 25  1  6
 24 23  1  0
 25 26  1  0
 27 28  1  0
 27 26  1  0
 28 29  1  0
 30 32  1  0
 30 24  1  0
 31 30  2  0
M  END
$$$$
