ANE.pdb
     RDKit          3D

 23 22  0  0  1  0  0  0  0  0999 V2000
   17.9541  -12.5589  -16.6279 C   0  0  0  0  0  0  0  0  0  0  0  0
   19.2979  -11.8211  -16.6583 C   0  0  2  0  0  0  0  0  0  0  0  0
   20.0798  -12.2993  -15.5437 N   0  0  0  0  0  0  0  0  0  0  0  0
   19.0178  -10.3975  -16.4932 C   0  0  0  0  0  0  0  0  0  0  0  0
   18.5419   -9.7443  -17.4647 O   0  0  0  0  0  0  0  0  0  0  0  0
   16.3687   -6.0246  -14.7367 N   0  0  0  0  0  0  0  0  0  0  0  0
   17.4431   -6.6211  -14.0213 C   0  0  0  0  0  0  0  0  0  0  0  0
   18.0876   -5.9024  -13.2243 O   0  0  0  0  0  0  0  0  0  0  0  0
   17.7492   -8.0345  -14.2420 C   0  0  0  0  0  0  0  0  0  0  0  0
   18.8906   -8.2407  -15.2189 C   0  0  2  0  0  0  0  0  0  0  0  0
   19.2377   -9.6459  -15.2975 N   0  0  0  0  0  0  0  0  0  0  0  0
   20.1018   -7.4680  -14.7856 C   0  0  0  0  0  0  0  0  0  0  0  0
   20.8573   -7.8972  -13.8765 O   0  0  0  0  0  0  0  0  0  0  0  0
   20.4508   -6.2364  -15.3686 N   0  0  0  0  0  0  0  0  0  0  0  0
   21.6669   -5.4746  -15.0040 C   0  0  1  0  0  0  0  0  0  0  0  0
   21.9031   -4.4093  -15.9906 C   0  0  0  0  0  0  0  0  0  0  0  0
   22.9863   -3.4544  -15.6764 C   0  0  0  0  0  0  0  0  0  0  0  0
   23.2860   -2.3928  -16.6261 C   0  0  0  0  0  0  0  0  0  0  0  0
   22.4228   -1.8060  -17.3417 O   0  0  0  0  0  0  0  0  0  0  0  0
   21.5346   -5.1340  -13.5943 C   0  0  0  0  0  0  0  0  0  0  0  0
   22.4608   -4.9943  -12.7584 O   0  0  0  0  0  0  0  0  0  0  0  0
   24.6172   -1.9868  -16.7567 O   0  0  0  0  0  0  0  0  0  0  0  0
   20.2414   -4.9221  -13.0381 O   0  0  0  0  0  0  0  0  0  0  0  0
  2  1  1  1
  2  3  1  0
  4 11  1  0
  4  2  1  0
  5  4  2  0
  7  6  1  0
  7  8  2  0
 10  9  1  1
  9  7  1  0
 10 12  1  0
 10 11  1  0
 12 14  1  0
 13 12  2  0
 14 15  1  0
 15 20  1  0
 15 16  1  6
 16 17  1  0
 18 17  1  0
 18 22  1  0
 19 18  2  0
 20 23  1  0
 21 20  2  0
M  END
$$$$
