ANE.pdb
     RDKit          3D

 23 22  0  0  1  0  0  0  0  0999 V2000
   14.7660  -12.6584  -13.8777 C   0  0  0  0  0  0  0  0  0  0  0  0
   15.4446  -13.0144  -15.2058 C   0  0  2  0  0  0  0  0  0  0  0  0
   15.8358  -14.4016  -15.1341 N   0  0  0  0  0  0  0  0  0  0  0  0
   16.6297  -12.1705  -15.3301 C   0  0  0  0  0  0  0  0  0  0  0  0
   17.5175  -12.2151  -14.4319 O   0  0  0  0  0  0  0  0  0  0  0  0
   20.5933   -9.3585  -16.9011 N   0  0  0  0  0  0  0  0  0  0  0  0
   19.8916   -9.7662  -18.0687 C   0  0  0  0  0  0  0  0  0  0  0  0
   20.3919   -9.4862  -19.1815 O   0  0  0  0  0  0  0  0  0  0  0  0
   18.6276  -10.4887  -17.9253 C   0  0  0  0  0  0  0  0  0  0  0  0
   18.1419  -10.5392  -16.4897 C   0  0  2  0  0  0  0  0  0  0  0  0
   16.8914  -11.2679  -16.4071 N   0  0  0  0  0  0  0  0  0  0  0  0
   17.9288   -9.1530  -15.9558 C   0  0  0  0  0  0  0  0  0  0  0  0
   16.8204   -8.5714  -16.0778 O   0  0  0  0  0  0  0  0  0  0  0  0
   18.9475   -8.4406  -15.2977 N   0  0  0  0  0  0  0  0  0  0  0  0
   18.7688   -7.0767  -14.7500 C   0  0  1  0  0  0  0  0  0  0  0  0
   19.8892   -6.7473  -13.8554 C   0  0  0  0  0  0  0  0  0  0  0  0
   20.8818   -5.7845  -14.3765 C   0  0  0  0  0  0  0  0  0  0  0  0
   22.0075   -5.4086  -13.5337 C   0  0  0  0  0  0  0  0  0  0  0  0
   22.1226   -5.7168  -12.3116 O   0  0  0  0  0  0  0  0  0  0  0  0
   18.4739   -6.2111  -15.8834 C   0  0  0  0  0  0  0  0  0  0  0  0
   18.7840   -6.4034  -17.0846 O   0  0  0  0  0  0  0  0  0  0  0  0
   23.0371   -4.6597  -14.1108 O   0  0  0  0  0  0  0  0  0  0  0  0
   17.7580   -4.9980  -15.6770 O   0  0  0  0  0  0  0  0  0  0  0  0
  2  1  1  1
  2  3  1  0
  4 11  1  0
  4  2  1  0
  5  4  2  0
  7  6  1  0
  7  8  2  0
 10  9  1  6
  9  7  1  0
 10 12  1  0
 10 11  1  0
 12 14  1  0
 13 12  2  0
 14 15  1  0
 15 20  1  0
 15 16  1  6
 16 17  1  0
 18 17  1  0
 18 22  1  0
 19 18  2  0
 20 23  1  0
 21 20  2  0
M  END
$$$$
