ANE.pdb
     RDKit          3D

 23 22  0  0  1  0  0  0  0  0999 V2000
   16.6922  -10.9802  -16.7989 C   0  0  0  0  0  0  0  0  0  0  0  0
   18.0803  -11.5261  -17.1542 C   0  0  2  0  0  0  0  0  0  0  0  0
   18.1184  -12.9102  -16.7476 N   0  0  0  0  0  0  0  0  0  0  0  0
   19.0597  -10.7578  -16.3909 C   0  0  0  0  0  0  0  0  0  0  0  0
   18.8943  -10.6074  -15.1471 O   0  0  0  0  0  0  0  0  0  0  0  0
   24.9098   -9.2447  -15.7430 N   0  0  0  0  0  0  0  0  0  0  0  0
   23.5195   -9.1045  -15.4801 C   0  0  0  0  0  0  0  0  0  0  0  0
   23.1728   -8.3475  -14.5452 O   0  0  0  0  0  0  0  0  0  0  0  0
   22.5602   -9.8414  -16.3027 C   0  0  0  0  0  0  0  0  0  0  0  0
   21.1320   -9.3755  -16.0959 C   0  0  2  0  0  0  0  0  0  0  0  0
   20.2277  -10.1381  -16.9338 N   0  0  0  0  0  0  0  0  0  0  0  0
   20.9968   -7.9209  -16.4389 C   0  0  0  0  0  0  0  0  0  0  0  0
   21.1294   -7.5158  -17.6221 O   0  0  0  0  0  0  0  0  0  0  0  0
   20.7172   -6.9458  -15.4645 N   0  0  0  0  0  0  0  0  0  0  0  0
   20.5498   -5.5072  -15.7718 C   0  0  1  0  0  0  0  0  0  0  0  0
   19.2586   -5.0324  -15.2508 C   0  0  0  0  0  0  0  0  0  0  0  0
   18.9938   -3.5842  -15.3783 C   0  0  0  0  0  0  0  0  0  0  0  0
   17.7513   -3.0462  -14.8442 C   0  0  0  0  0  0  0  0  0  0  0  0
   16.9405   -3.6960  -14.1216 O   0  0  0  0  0  0  0  0  0  0  0  0
   21.7804   -4.8492  -15.3550 C   0  0  0  0  0  0  0  0  0  0  0  0
   22.3618   -4.9609  -14.2480 O   0  0  0  0  0  0  0  0  0  0  0  0
   17.4293   -1.7192  -15.1434 O   0  0  0  0  0  0  0  0  0  0  0  0
   22.4491   -3.9699  -16.2528 O   0  0  0  0  0  0  0  0  0  0  0  0
  2  1  1  1
  2  3  1  0
  4 11  1  0
  4  2  1  0
  5  4  2  0
  7  6  1  0
  7  8  2  0
 10  9  1  6
  9  7  1  0
 10 12  1  0
 10 11  1  0
 12 14  1  0
 13 12  2  0
 14 15  1  0
 15 20  1  0
 15 16  1  1
 16 17  1  0
 18 17  1  0
 18 22  1  0
 19 18  2  0
 20 23  1  0
 21 20  2  0
M  END
$$$$
