ANE.pdb
     RDKit          3D

 23 22  0  0  1  0  0  0  0  0999 V2000
   28.3629  -17.5072  -15.5954 C   0  0  0  0  0  0  0  0  0  0  0  0
   27.5723  -18.8207  -15.6226 C   0  0  2  0  0  0  0  0  0  0  0  0
   26.7992  -18.8358  -16.8410 N   0  0  0  0  0  0  0  0  0  0  0  0
   26.6784  -18.8159  -14.4680 C   0  0  0  0  0  0  0  0  0  0  0  0
   26.3939  -17.7178  -13.9110 O   0  0  0  0  0  0  0  0  0  0  0  0
   22.8074  -19.9796  -15.3911 N   0  0  0  0  0  0  0  0  0  0  0  0
   22.9813  -19.6418  -14.0209 C   0  0  0  0  0  0  0  0  0  0  0  0
   22.4135  -18.6109  -13.5944 O   0  0  0  0  0  0  0  0  0  0  0  0
   23.8070  -20.5022  -13.1735 C   0  0  0  0  0  0  0  0  0  0  0  0
   25.1269  -19.8585  -12.7953 C   0  0  2  0  0  0  0  0  0  0  0  0
   26.0736  -19.9734  -13.8871 N   0  0  0  0  0  0  0  0  0  0  0  0
   25.7082  -20.5213  -11.5809 C   0  0  0  0  0  0  0  0  0  0  0  0
   26.2180  -21.6690  -11.6466 O   0  0  0  0  0  0  0  0  0  0  0  0
   25.7128  -19.8987  -10.3196 N   0  0  0  0  0  0  0  0  0  0  0  0
   26.1708  -20.5663   -9.0800 C   0  0  1  0  0  0  0  0  0  0  0  0
   26.8533  -19.5940   -8.2123 C   0  0  0  0  0  0  0  0  0  0  0  0
   27.2972  -20.0918   -6.8937 C   0  0  0  0  0  0  0  0  0  0  0  0
   27.9897  -19.1807   -5.9941 C   0  0  0  0  0  0  0  0  0  0  0  0
   28.1417  -17.9422   -6.2051 O   0  0  0  0  0  0  0  0  0  0  0  0
   25.0307  -21.3132   -8.5669 C   0  0  0  0  0  0  0  0  0  0  0  0
   25.0596  -22.3175   -7.8142 O   0  0  0  0  0  0  0  0  0  0  0  0
   28.5211  -19.7045   -4.8120 O   0  0  0  0  0  0  0  0  0  0  0  0
   23.7101  -20.9142   -8.9182 O   0  0  0  0  0  0  0  0  0  0  0  0
  2  1  1  6
  2  3  1  0
  4 11  1  0
  4  2  1  0
  5  4  2  0
  7  6  1  0
  7  8  2  0
 10  9  1  6
  9  7  1  0
 10 12  1  0
 10 11  1  0
 12 14  1  0
 13 12  2  0
 14 15  1  0
 15 20  1  0
 15 16  1  1
 16 17  1  0
 18 17  1  0
 18 22  1  0
 19 18  2  0
 20 23  1  0
 21 20  2  0
M  END
$$$$
