ANE.pdb
     RDKit          3D

 23 22  0  0  1  0  0  0  0  0999 V2000
   13.6153  -11.6642  -11.5814 C   0  0  0  0  0  0  0  0  0  0  0  0
   15.0553  -11.1435  -11.6610 C   0  0  2  0  0  0  0  0  0  0  0  0
   15.8362  -11.8802  -10.6966 N   0  0  0  0  0  0  0  0  0  0  0  0
   15.0282   -9.7288  -11.3007 C   0  0  0  0  0  0  0  0  0  0  0  0
   14.4626   -8.9046  -12.0738 O   0  0  0  0  0  0  0  0  0  0  0  0
   15.6795   -5.0905   -9.1513 N   0  0  0  0  0  0  0  0  0  0  0  0
   15.1899   -5.9958   -8.1702 C   0  0  0  0  0  0  0  0  0  0  0  0
   14.8039   -5.5235   -7.0770 O   0  0  0  0  0  0  0  0  0  0  0  0
   15.1566   -7.4266   -8.4734 C   0  0  0  0  0  0  0  0  0  0  0  0
   15.6011   -7.7353   -9.8900 C   0  0  2  0  0  0  0  0  0  0  0  0
   15.5995   -9.1671  -10.1169 N   0  0  0  0  0  0  0  0  0  0  0  0
   16.9852   -7.2096  -10.1349 C   0  0  0  0  0  0  0  0  0  0  0  0
   17.9868   -7.7284   -9.5789 O   0  0  0  0  0  0  0  0  0  0  0  0
   17.2306   -6.1207  -10.9908 N   0  0  0  0  0  0  0  0  0  0  0  0
   18.5742   -5.7722  -11.5059 C   0  0  1  0  0  0  0  0  0  0  0  0
   19.1668   -6.9364  -12.1824 C   0  0  0  0  0  0  0  0  0  0  0  0
   20.4502   -6.7062  -12.8780 C   0  0  0  0  0  0  0  0  0  0  0  0
   21.1085   -7.8286  -13.5302 C   0  0  0  0  0  0  0  0  0  0  0  0
   21.4763   -8.8859  -12.9397 O   0  0  0  0  0  0  0  0  0  0  0  0
   18.4272   -4.5168  -12.2293 C   0  0  0  0  0  0  0  0  0  0  0  0
   19.3150   -3.6540  -12.4377 O   0  0  0  0  0  0  0  0  0  0  0  0
   21.3488   -7.7393  -14.9043 O   0  0  0  0  0  0  0  0  0  0  0  0
   17.1649   -4.1680  -12.7874 O   0  0  0  0  0  0  0  0  0  0  0  0
  2  1  1  1
  2  3  1  0
  4 11  1  0
  4  2  1  0
  5  4  2  0
  7  6  1  0
  7  8  2  0
 10  9  1  1
  9  7  1  0
 10 12  1  0
 10 11  1  0
 12 14  1  0
 13 12  2  0
 14 15  1  0
 15 20  1  0
 15 16  1  6
 16 17  1  0
 18 17  1  0
 18 22  1  0
 19 18  2  0
 20 23  1  0
 21 20  2  0
M  END
$$$$
