ANE.pdb
     RDKit          3D

 23 22  0  0  1  0  0  0  0  0999 V2000
   12.7129  -11.5625   -9.7262 C   0  0  0  0  0  0  0  0  0  0  0  0
   12.4559  -10.5163   -8.6351 C   0  0  2  0  0  0  0  0  0  0  0  0
   11.0321  -10.2877   -8.5810 N   0  0  0  0  0  0  0  0  0  0  0  0
   13.1403   -9.2905   -9.0362 C   0  0  0  0  0  0  0  0  0  0  0  0
   12.5780   -8.5076   -9.8535 O   0  0  0  0  0  0  0  0  0  0  0  0
   15.4009   -4.3774   -8.5385 N   0  0  0  0  0  0  0  0  0  0  0  0
   16.1111   -5.5587   -8.1891 C   0  0  0  0  0  0  0  0  0  0  0  0
   17.3621   -5.5198   -8.2131 O   0  0  0  0  0  0  0  0  0  0  0  0
   15.3607   -6.7589   -7.8196 C   0  0  0  0  0  0  0  0  0  0  0  0
   15.0163   -7.6254   -9.0155 C   0  0  2  0  0  0  0  0  0  0  0  0
   14.4293   -8.8766   -8.5778 N   0  0  0  0  0  0  0  0  0  0  0  0
   16.2462   -7.9253   -9.8213 C   0  0  0  0  0  0  0  0  0  0  0  0
   17.1559   -8.6668   -9.3696 O   0  0  0  0  0  0  0  0  0  0  0  0
   16.4423   -7.3977  -11.1104 N   0  0  0  0  0  0  0  0  0  0  0  0
   17.5817   -7.7676  -11.9805 C   0  0  1  0  0  0  0  0  0  0  0  0
   17.2584   -8.9890  -12.7340 C   0  0  0  0  0  0  0  0  0  0  0  0
   18.2595   -9.4295  -13.7277 C   0  0  0  0  0  0  0  0  0  0  0  0
   18.0296  -10.6680  -14.4571 C   0  0  0  0  0  0  0  0  0  0  0  0
   17.4450  -11.6837  -13.9791 O   0  0  0  0  0  0  0  0  0  0  0  0
   17.9639   -6.5591  -12.6978 C   0  0  0  0  0  0  0  0  0  0  0  0
   19.1095   -6.2528  -13.1096 O   0  0  0  0  0  0  0  0  0  0  0  0
   18.4796  -10.7439  -15.7783 O   0  0  0  0  0  0  0  0  0  0  0  0
   16.9792   -5.5757  -12.9977 O   0  0  0  0  0  0  0  0  0  0  0  0
  2  1  1  6
  2  3  1  0
  4 11  1  0
  4  2  1  0
  5  4  2  0
  7  6  1  0
  7  8  2  0
 10  9  1  1
  9  7  1  0
 10 12  1  0
 10 11  1  0
 12 14  1  0
 13 12  2  0
 14 15  1  0
 15 20  1  0
 15 16  1  6
 16 17  1  0
 18 17  1  0
 18 22  1  0
 19 18  2  0
 20 23  1  0
 21 20  2  0
M  END
$$$$
