ANE.pdb
     RDKit          3D

 23 22  0  0  1  0  0  0  0  0999 V2000
   31.1878  -34.8326   -4.8697 C   0  0  0  0  0  0  0  0  0  0  0  0
   29.7949  -35.0624   -4.2713 C   0  0  2  0  0  0  0  0  0  0  0  0
   28.8402  -34.4072   -5.1324 N   0  0  0  0  0  0  0  0  0  0  0  0
   29.7797  -34.4408   -2.9501 C   0  0  0  0  0  0  0  0  0  0  0  0
   29.8494  -33.1824   -2.8581 O   0  0  0  0  0  0  0  0  0  0  0  0
   28.0516  -32.9926    2.0442 N   0  0  0  0  0  0  0  0  0  0  0  0
   27.7049  -33.5476    0.7818 C   0  0  0  0  0  0  0  0  0  0  0  0
   26.8118  -32.9771    0.1156 O   0  0  0  0  0  0  0  0  0  0  0  0
   28.3976  -34.7493    0.3167 C   0  0  0  0  0  0  0  0  0  0  0  0
   29.6708  -34.4336   -0.4441 C   0  0  2  0  0  0  0  0  0  0  0  0
   29.6905  -35.1428   -1.7082 N   0  0  0  0  0  0  0  0  0  0  0  0
   30.8760  -34.8368    0.3541 C   0  0  0  0  0  0  0  0  0  0  0  0
   31.1908  -36.0465    0.4920 O   0  0  0  0  0  0  0  0  0  0  0  0
   31.7069  -33.8917    0.9823 N   0  0  0  0  0  0  0  0  0  0  0  0
   32.8916  -34.2551    1.7927 C   0  0  1  0  0  0  0  0  0  0  0  0
   33.8205  -33.1162    1.8575 C   0  0  0  0  0  0  0  0  0  0  0  0
   34.4647  -32.7236    0.5868 C   0  0  0  0  0  0  0  0  0  0  0  0
   35.3436  -31.5634    0.5723 C   0  0  0  0  0  0  0  0  0  0  0  0
   35.6282  -30.8666    1.5897 O   0  0  0  0  0  0  0  0  0  0  0  0
   32.3852  -34.8423    3.0255 C   0  0  0  0  0  0  0  0  0  0  0  0
   33.0473  -35.4452    3.9053 O   0  0  0  0  0  0  0  0  0  0  0  0
   35.9190  -31.1922   -0.6464 O   0  0  0  0  0  0  0  0  0  0  0  0
   30.9967  -34.7590    3.3282 O   0  0  0  0  0  0  0  0  0  0  0  0
  2  1  1  6
  2  3  1  0
  4 11  1  0
  4  2  1  0
  5  4  2  0
  7  6  1  0
  7  8  2  0
 10  9  1  1
  9  7  1  0
 10 12  1  0
 10 11  1  0
 12 14  1  0
 13 12  2  0
 14 15  1  0
 15 20  1  0
 15 16  1  1
 16 17  1  0
 18 17  1  0
 18 22  1  0
 19 18  2  0
 20 23  1  0
 21 20  2  0
M  END
$$$$
