ANE.pdb
     RDKit          3D

 23 22  0  0  1  0  0  0  0  0999 V2000
   12.3221  -11.8154  -11.8000 C   0  0  0  0  0  0  0  0  0  0  0  0
   13.6523  -11.6065  -12.5336 C   0  0  2  0  0  0  0  0  0  0  0  0
   14.5872  -12.5786  -12.0203 N   0  0  0  0  0  0  0  0  0  0  0  0
   14.1165  -10.2581  -12.2199 C   0  0  0  0  0  0  0  0  0  0  0  0
   13.4399   -9.2648  -12.6105 O   0  0  0  0  0  0  0  0  0  0  0  0
   16.4904   -6.0360  -10.5432 N   0  0  0  0  0  0  0  0  0  0  0  0
   16.4509   -6.9914   -9.4909 C   0  0  0  0  0  0  0  0  0  0  0  0
   16.7829   -6.6149   -8.3441 O   0  0  0  0  0  0  0  0  0  0  0  0
   16.0287   -8.3606   -9.7862 C   0  0  0  0  0  0  0  0  0  0  0  0
   15.6964   -8.5677  -11.2512 C   0  0  2  0  0  0  0  0  0  0  0  0
   15.3033   -9.9427  -11.4884 N   0  0  0  0  0  0  0  0  0  0  0  0
   16.8844   -8.2503  -12.1115 C   0  0  0  0  0  0  0  0  0  0  0  0
   17.9013   -8.9901  -12.1162 O   0  0  0  0  0  0  0  0  0  0  0  0
   16.9207   -7.1204  -12.9485 N   0  0  0  0  0  0  0  0  0  0  0  0
   17.9822   -6.8805  -13.9524 C   0  0  1  0  0  0  0  0  0  0  0  0
   17.6672   -7.6032  -15.1944 C   0  0  0  0  0  0  0  0  0  0  0  0
   18.6145   -7.4241  -16.3143 C   0  0  0  0  0  0  0  0  0  0  0  0
   18.3463   -8.0962  -17.5773 C   0  0  0  0  0  0  0  0  0  0  0  0
   18.4649   -9.3420  -17.7660 O   0  0  0  0  0  0  0  0  0  0  0  0
   18.1963   -5.4405  -13.9919 C   0  0  0  0  0  0  0  0  0  0  0  0
   17.3402   -4.5417  -13.8042 O   0  0  0  0  0  0  0  0  0  0  0  0
   17.9240   -7.3166  -18.6580 O   0  0  0  0  0  0  0  0  0  0  0  0
   19.4954   -4.9279  -14.2679 O   0  0  0  0  0  0  0  0  0  0  0  0
  2  1  1  1
  2  3  1  0
  4 11  1  0
  4  2  1  0
  5  4  2  0
  7  6  1  0
  7  8  2  0
 10  9  1  1
  9  7  1  0
 10 12  1  0
 10 11  1  0
 12 14  1  0
 13 12  2  0
 14 15  1  0
 15 20  1  0
 15 16  1  6
 16 17  1  0
 18 17  1  0
 18 22  1  0
 19 18  2  0
 20 23  1  0
 21 20  2  0
M  END
$$$$
