ANE.pdb
     RDKit          3D

 23 22  0  0  1  0  0  0  0  0999 V2000
   24.1216  -10.0920  -21.0920 C   0  0  0  0  0  0  0  0  0  0  0  0
   23.0715   -9.0372  -20.7235 C   0  0  2  0  0  0  0  0  0  0  0  0
   22.9584   -8.1302  -21.8402 N   0  0  0  0  0  0  0  0  0  0  0  0
   23.5654   -8.3209  -19.5508 C   0  0  0  0  0  0  0  0  0  0  0  0
   23.6821   -8.9372  -18.4538 O   0  0  0  0  0  0  0  0  0  0  0  0
   26.9253   -7.4963  -18.2174 N   0  0  0  0  0  0  0  0  0  0  0  0
   26.9047   -6.1052  -18.5112 C   0  0  0  0  0  0  0  0  0  0  0  0
   28.0017   -5.5208  -18.6596 O   0  0  0  0  0  0  0  0  0  0  0  0
   25.6175   -5.4199  -18.6274 C   0  0  0  0  0  0  0  0  0  0  0  0
   24.4421   -6.3243  -18.3111 C   0  0  2  0  0  0  0  0  0  0  0  0
   23.9425   -6.9425  -19.5234 N   0  0  0  0  0  0  0  0  0  0  0  0
   23.3306   -5.5418  -17.6752 C   0  0  0  0  0  0  0  0  0  0  0  0
   22.6579   -4.7105  -18.3370 O   0  0  0  0  0  0  0  0  0  0  0  0
   22.9875   -5.6968  -16.3199 N   0  0  0  0  0  0  0  0  0  0  0  0
   21.8358   -5.0167  -15.6851 C   0  0  1  0  0  0  0  0  0  0  0  0
   20.5820   -5.6623  -16.1038 C   0  0  0  0  0  0  0  0  0  0  0  0
   20.2535   -6.9434  -15.4446 C   0  0  0  0  0  0  0  0  0  0  0  0
   18.9895   -7.5931  -15.7594 C   0  0  0  0  0  0  0  0  0  0  0  0
   18.8452   -8.4940  -16.6364 O   0  0  0  0  0  0  0  0  0  0  0  0
   22.1505   -4.9065  -14.2674 C   0  0  0  0  0  0  0  0  0  0  0  0
   21.4774   -4.3192  -13.3853 O   0  0  0  0  0  0  0  0  0  0  0  0
   17.8549   -7.2015  -15.0429 O   0  0  0  0  0  0  0  0  0  0  0  0
   23.3364   -5.5080  -13.7593 O   0  0  0  0  0  0  0  0  0  0  0  0
  2  1  1  6
  2  3  1  0
  4 11  1  0
  4  2  1  0
  5  4  2  0
  7  6  1  0
  7  8  2  0
 10  9  1  6
  9  7  1  0
 10 12  1  0
 10 11  1  0
 12 14  1  0
 13 12  2  0
 14 15  1  0
 15 20  1  0
 15 16  1  1
 16 17  1  0
 18 17  1  0
 18 22  1  0
 19 18  2  0
 20 23  1  0
 21 20  2  0
M  END
$$$$
