WMN.pdb
     RDKit          3D

 31 32  0  0  1  0  0  0  0  0999 V2000
   28.2156  -20.9694  -16.0841 N   0  0  0  0  0  0  0  0  0  0  0  0
   27.2954  -20.1392  -15.3572 C   0  0  1  0  0  0  0  0  0  0  0  0
   26.2779  -19.4965  -16.2457 C   0  0  0  0  0  0  0  0  0  0  0  0
   26.8925  -18.3687  -16.9983 C   0  0  0  0  0  0  0  0  0  0  0  0
   27.1509  -18.3299  -18.3625 C   0  0  0  0  0  0  0  0  0  0  0  0
   27.6746  -17.1274  -18.6175 N   0  0  0  0  0  0  0  0  0  0  0  0
   27.7690  -16.3916  -17.5010 C   0  0  0  0  0  0  0  0  0  0  0  0
   28.2431  -15.1199  -17.2757 C   0  0  0  0  0  0  0  0  0  0  0  0
   28.2401  -14.5765  -15.9870 C   0  0  0  0  0  0  0  0  0  0  0  0
   27.7586  -15.3191  -14.9313 C   0  0  0  0  0  0  0  0  0  0  0  0
   27.2891  -16.5945  -15.1931 C   0  0  0  0  0  0  0  0  0  0  0  0
   27.2782  -17.1603  -16.4590 C   0  0  0  0  0  0  0  0  0  0  0  0
   26.6611  -20.9491  -14.2813 C   0  0  0  0  0  0  0  0  0  0  0  0
   26.2008  -22.0928  -14.5252 O   0  0  0  0  0  0  0  0  0  0  0  0
   25.0068  -21.1569   -6.4887 C   0  0  0  0  0  0  0  0  0  0  0  0
   25.9399  -20.4929   -7.8750 S   0  0  0  0  0  0  0  0  0  0  0  0
   25.3212  -21.1509   -9.4731 C   0  0  0  0  0  0  0  0  0  0  0  0
   26.1318  -20.6080  -10.6151 C   0  0  0  0  0  0  0  0  0  0  0  0
   25.6563  -21.0311  -11.9626 C   0  0  2  0  0  0  0  0  0  0  0  0
   26.5745  -20.4248  -12.9676 N   0  0  0  0  0  0  0  0  0  0  0  0
   24.2919  -20.6803  -12.3281 C   0  0  0  0  0  0  0  0  0  0  0  0
   24.0340  -19.4465  -12.5677 O   0  0  0  0  0  0  0  0  0  0  0  0
   22.9084  -22.2427  -15.8245 N   0  0  0  0  0  0  0  0  0  0  0  0
   22.2923  -22.7673  -14.6664 C   0  0  0  0  0  0  0  0  0  0  0  0
   22.6208  -23.9041  -14.2634 O   0  0  0  0  0  0  0  0  0  0  0  0
   21.2842  -21.9912  -13.9489 C   0  0  0  0  0  0  0  0  0  0  0  0
   21.8747  -21.0871  -12.8884 C   0  0  2  0  0  0  0  0  0  0  0  0
   23.1815  -21.5323  -12.4634 N   0  0  0  0  0  0  0  0  0  0  0  0
   20.9860  -21.0812  -11.6992 C   0  0  0  0  0  0  0  0  0  0  0  0
   21.3669  -21.5220  -10.5900 O   0  0  0  0  0  0  0  0  0  0  0  0
   19.6925  -20.5563  -11.8753 O   0  0  0  0  0  0  0  0  0  0  0  0
  2  3  1  0
  2  1  1  6
  2 13  1  0
  3  4  1  0
  4 12  1  0
  4  5  2  0
  5  6  1  0
  7  6  1  0
  7  8  2  0
  9  8  1  0
 10  9  2  0
 11 12  2  0
 11 10  1  0
 12  7  1  0
 13 14  2  0
 16 15  1  0
 16 17  1  0
 19 18  1  1
 18 17  1  0
 19 21  1  0
 20 13  1  0
 20 19  1  0
 21 22  2  0
 23 24  1  0
 24 25  2  0
 24 26  1  0
 27 26  1  6
 27 29  1  0
 28 27  1  0
 28 21  1  0
 29 30  2  0
 29 31  1  0
M  END
$$$$
