WMN.pdb
     RDKit          3D

 31 32  0  0  1  0  0  0  0  0999 V2000
   25.9797  -21.0698  -13.8013 N   0  0  0  0  0  0  0  0  0  0  0  0
   24.9350  -20.5059  -12.9919 C   0  0  1  0  0  0  0  0  0  0  0  0
   23.5737  -20.7456  -13.5638 C   0  0  0  0  0  0  0  0  0  0  0  0
   23.4251  -20.0223  -14.8565 C   0  0  0  0  0  0  0  0  0  0  0  0
   23.9381  -20.4149  -16.0861 C   0  0  0  0  0  0  0  0  0  0  0  0
   23.5441  -19.4975  -16.9742 N   0  0  0  0  0  0  0  0  0  0  0  0
   22.8101  -18.5397  -16.3907 C   0  0  0  0  0  0  0  0  0  0  0  0
   22.2073  -17.4096  -16.8927 C   0  0  0  0  0  0  0  0  0  0  0  0
   21.4920  -16.5505  -16.0522 C   0  0  0  0  0  0  0  0  0  0  0  0
   21.3884  -16.8359  -14.7085 C   0  0  0  0  0  0  0  0  0  0  0  0
   22.0066  -17.9809  -14.2366 C   0  0  0  0  0  0  0  0  0  0  0  0
   22.7215  -18.8521  -15.0444 C   0  0  0  0  0  0  0  0  0  0  0  0
   25.0573  -21.0376  -11.6069 C   0  0  0  0  0  0  0  0  0  0  0  0
   25.1901  -22.2704  -11.4018 O   0  0  0  0  0  0  0  0  0  0  0  0
   27.6286  -19.4520   -4.3835 C   0  0  0  0  0  0  0  0  0  0  0  0
   27.3236  -18.9607   -6.0860 S   0  0  0  0  0  0  0  0  0  0  0  0
   26.0397  -20.0157   -6.8661 C   0  0  0  0  0  0  0  0  0  0  0  0
   25.8759  -19.6601   -8.3161 C   0  0  0  0  0  0  0  0  0  0  0  0
   25.0959  -20.6526   -9.1084 C   0  0  2  0  0  0  0  0  0  0  0  0
   25.0227  -20.1445  -10.5073 N   0  0  0  0  0  0  0  0  0  0  0  0
   23.7416  -20.9446   -8.6625 C   0  0  0  0  0  0  0  0  0  0  0  0
   22.7814  -20.2700   -9.1813 O   0  0  0  0  0  0  0  0  0  0  0  0
   19.5787  -24.5227   -7.2336 N   0  0  0  0  0  0  0  0  0  0  0  0
   20.4067  -23.8141   -6.3345 C   0  0  0  0  0  0  0  0  0  0  0  0
   19.9391  -23.4491   -5.2342 O   0  0  0  0  0  0  0  0  0  0  0  0
   21.7917  -23.5116   -6.6862 C   0  0  0  0  0  0  0  0  0  0  0  0
   21.9399  -22.2157   -7.4540 C   0  0  2  0  0  0  0  0  0  0  0  0
   23.3242  -21.8960   -7.7149 N   0  0  0  0  0  0  0  0  0  0  0  0
   21.3576  -21.1056   -6.6587 C   0  0  0  0  0  0  0  0  0  0  0  0
   22.0086  -20.5297   -5.7562 O   0  0  0  0  0  0  0  0  0  0  0  0
   20.0373  -20.7286   -6.9656 O   0  0  0  0  0  0  0  0  0  0  0  0
  2  3  1  0
  2  1  1  6
  2 13  1  0
  3  4  1  0
  4 12  1  0
  4  5  2  0
  5  6  1  0
  7  6  1  0
  7  8  2  0
  9  8  1  0
 10  9  2  0
 11 12  2  0
 11 10  1  0
 12  7  1  0
 13 14  2  0
 16 15  1  0
 16 17  1  0
 19 18  1  1
 18 17  1  0
 19 21  1  0
 20 13  1  0
 20 19  1  0
 21 22  2  0
 23 24  1  0
 24 25  2  0
 24 26  1  0
 27 26  1  1
 27 29  1  0
 28 27  1  0
 28 21  1  0
 29 30  2  0
 29 31  1  0
M  END
$$$$
