WMN.pdb
     RDKit          3D

 31 32  0  0  1  0  0  0  0  0999 V2000
   20.2278   -8.9923  -17.3436 N   0  0  0  0  0  0  0  0  0  0  0  0
   20.1412   -7.9393  -16.3700 C   0  0  1  0  0  0  0  0  0  0  0  0
   21.4793   -7.3685  -16.0219 C   0  0  0  0  0  0  0  0  0  0  0  0
   22.2070   -8.2879  -15.1047 C   0  0  0  0  0  0  0  0  0  0  0  0
   23.3183   -9.0595  -15.4194 C   0  0  0  0  0  0  0  0  0  0  0  0
   23.6632   -9.7054  -14.3017 N   0  0  0  0  0  0  0  0  0  0  0  0
   22.8416   -9.3966  -13.2885 C   0  0  0  0  0  0  0  0  0  0  0  0
   22.8016   -9.8132  -11.9780 C   0  0  0  0  0  0  0  0  0  0  0  0
   21.8144   -9.3373  -11.1091 C   0  0  0  0  0  0  0  0  0  0  0  0
   20.8718   -8.4430  -11.5668 C   0  0  0  0  0  0  0  0  0  0  0  0
   20.9412   -8.0445  -12.8905 C   0  0  0  0  0  0  0  0  0  0  0  0
   21.9078   -8.4975  -13.7756 C   0  0  0  0  0  0  0  0  0  0  0  0
   19.2049   -6.8956  -16.8699 C   0  0  0  0  0  0  0  0  0  0  0  0
   19.1690   -6.5966  -18.0900 O   0  0  0  0  0  0  0  0  0  0  0  0
   12.1752   -3.6352  -15.5683 C   0  0  0  0  0  0  0  0  0  0  0  0
   13.4857   -4.7921  -15.1470 S   0  0  0  0  0  0  0  0  0  0  0  0
   15.0431   -4.3883  -16.0309 C   0  0  0  0  0  0  0  0  0  0  0  0
   16.1041   -5.4046  -15.7191 C   0  0  0  0  0  0  0  0  0  0  0  0
   17.3936   -5.1864  -16.4335 C   0  0  2  0  0  0  0  0  0  0  0  0
   18.3452   -6.2310  -15.9603 N   0  0  0  0  0  0  0  0  0  0  0  0
   18.0322   -3.8884  -16.2741 C   0  0  0  0  0  0  0  0  0  0  0  0
   18.7902   -3.7147  -15.2535 O   0  0  0  0  0  0  0  0  0  0  0  0
   20.4767    0.9882  -18.6193 N   0  0  0  0  0  0  0  0  0  0  0  0
   19.3173    0.6402  -17.8906 C   0  0  0  0  0  0  0  0  0  0  0  0
   18.8601    1.4464  -17.0518 O   0  0  0  0  0  0  0  0  0  0  0  0
   18.6613   -0.6455  -18.1145 C   0  0  0  0  0  0  0  0  0  0  0  0
   18.6543   -1.5303  -16.8865 C   0  0  2  0  0  0  0  0  0  0  0  0
   17.9348   -2.7626  -17.1110 N   0  0  0  0  0  0  0  0  0  0  0  0
   17.9913   -0.8123  -15.7690 C   0  0  0  0  0  0  0  0  0  0  0  0
   16.7492   -0.8473  -15.6083 O   0  0  0  0  0  0  0  0  0  0  0  0
   18.8240   -0.0885  -14.8960 O   0  0  0  0  0  0  0  0  0  0  0  0
  2  3  1  0
  2  1  1  6
  2 13  1  0
  3  4  1  0
  4 12  1  0
  4  5  2  0
  5  6  1  0
  7  6  1  0
  7  8  2  0
  9  8  1  0
 10  9  2  0
 11 12  2  0
 11 10  1  0
 12  7  1  0
 13 14  2  0
 16 15  1  0
 16 17  1  0
 19 18  1  1
 18 17  1  0
 19 21  1  0
 20 13  1  0
 20 19  1  0
 21 22  2  0
 23 24  1  0
 24 25  2  0
 24 26  1  0
 27 26  1  6
 27 29  1  0
 28 27  1  0
 28 21  1  0
 29 30  2  0
 29 31  1  0
M  END
$$$$
