WMN.pdb
     RDKit          3D

 31 32  0  0  1  0  0  0  0  0999 V2000
   26.9592  -20.7271  -16.4838 N   0  0  0  0  0  0  0  0  0  0  0  0
   25.6382  -20.3047  -16.1084 C   0  0  1  0  0  0  0  0  0  0  0  0
   24.6600  -20.4114  -17.2350 C   0  0  0  0  0  0  0  0  0  0  0  0
   24.3984  -19.0665  -17.8171 C   0  0  0  0  0  0  0  0  0  0  0  0
   25.2821  -18.3082  -18.5742 C   0  0  0  0  0  0  0  0  0  0  0  0
   24.6318  -17.1917  -18.9148 N   0  0  0  0  0  0  0  0  0  0  0  0
   23.3850  -17.1859  -18.4227 C   0  0  0  0  0  0  0  0  0  0  0  0
   22.3686  -16.2625  -18.5053 C   0  0  0  0  0  0  0  0  0  0  0  0
   21.1398  -16.4979  -17.8802 C   0  0  0  0  0  0  0  0  0  0  0  0
   20.9424  -17.6643  -17.1744 C   0  0  0  0  0  0  0  0  0  0  0  0
   21.9857  -18.5717  -17.1115 C   0  0  0  0  0  0  0  0  0  0  0  0
   23.2143  -18.3675  -17.7209 C   0  0  0  0  0  0  0  0  0  0  0  0
   25.2021  -21.0850  -14.9181 C   0  0  0  0  0  0  0  0  0  0  0  0
   25.3040  -22.3375  -14.8989 O   0  0  0  0  0  0  0  0  0  0  0  0
   28.9583  -21.4532  -10.2404 C   0  0  0  0  0  0  0  0  0  0  0  0
   27.2305  -20.9812  -10.0821 S   0  0  0  0  0  0  0  0  0  0  0  0
   26.2923  -21.3563  -11.6147 C   0  0  0  0  0  0  0  0  0  0  0  0
   24.8537  -20.9522  -11.4635 C   0  0  0  0  0  0  0  0  0  0  0  0
   24.0235  -21.1656  -12.6827 C   0  0  2  0  0  0  0  0  0  0  0  0
   24.6653  -20.4088  -13.7945 N   0  0  0  0  0  0  0  0  0  0  0  0
   22.6251  -20.7683  -12.6143 C   0  0  0  0  0  0  0  0  0  0  0  0
   22.2751  -19.9664  -11.6759 O   0  0  0  0  0  0  0  0  0  0  0  0
   19.2918  -18.2237  -14.2287 N   0  0  0  0  0  0  0  0  0  0  0  0
   19.1410  -19.2638  -13.2845 C   0  0  0  0  0  0  0  0  0  0  0  0
   18.9743  -18.9738  -12.0800 O   0  0  0  0  0  0  0  0  0  0  0  0
   19.1794  -20.6605  -13.7103 C   0  0  0  0  0  0  0  0  0  0  0  0
   20.2410  -21.4698  -12.9968 C   0  0  2  0  0  0  0  0  0  0  0  0
   21.5703  -21.1495  -13.4625 N   0  0  0  0  0  0  0  0  0  0  0  0
   20.0061  -22.9142  -13.2461 C   0  0  0  0  0  0  0  0  0  0  0  0
   18.9850  -23.4994  -12.8162 O   0  0  0  0  0  0  0  0  0  0  0  0
   20.9854  -23.5982  -13.9896 O   0  0  0  0  0  0  0  0  0  0  0  0
  2  3  1  0
  2  1  1  6
  2 13  1  0
  3  4  1  0
  4 12  1  0
  4  5  2  0
  5  6  1  0
  7  6  1  0
  7  8  2  0
  9  8  1  0
 10  9  2  0
 11 12  2  0
 11 10  1  0
 12  7  1  0
 13 14  2  0
 16 15  1  0
 16 17  1  0
 19 18  1  1
 18 17  1  0
 19 21  1  0
 20 13  1  0
 20 19  1  0
 21 22  2  0
 23 24  1  0
 24 25  2  0
 24 26  1  0
 27 26  1  6
 27 29  1  0
 28 27  1  0
 28 21  1  0
 29 30  2  0
 29 31  1  0
M  END
$$$$
