CKP.pdb
     RDKit          3D

 23 23  0  0  1  0  0  0  0  0999 V2000
    9.5915  -15.9003   19.6227 N   0  0  0  0  0  0  0  0  0  0  0  0
    9.0038  -16.4827   20.8034 C   0  0  1  0  0  0  0  0  0  0  0  0
    9.4966  -17.8888   21.0600 C   0  0  0  0  0  0  0  0  0  0  0  0
   11.2986  -17.8718   20.9504 S   0  0  0  0  0  0  0  0  0  0  0  0
    9.3171  -15.5943   21.9662 C   0  0  0  0  0  0  0  0  0  0  0  0
   10.3486  -14.8445   21.9636 O   0  0  0  0  0  0  0  0  0  0  0  0
    8.5018  -15.5357   23.1151 N   0  0  0  0  0  0  0  0  0  0  0  0
    8.8862  -14.7167   24.3092 C   0  0  1  0  0  0  0  0  0  0  0  0
    7.5636  -14.1670   24.7590 C   0  0  0  0  0  0  0  0  0  0  0  0
    7.5091  -13.2414   25.8828 C   0  0  0  0  0  0  0  0  0  0  0  0
    6.0821  -12.7785   26.1123 C   0  0  0  0  0  0  0  0  0  0  0  0
    5.9570  -11.8143   27.2703 C   0  0  0  0  0  0  0  0  0  0  0  0
    4.5451  -11.4055   27.3705 N   0  0  0  0  0  0  0  0  0  0  0  0
    9.5419  -15.6458   25.2158 C   0  0  0  0  0  0  0  0  0  0  0  0
    9.8641  -16.8327   24.8805 O   0  0  0  0  0  0  0  0  0  0  0  0
    9.8698  -15.2865   26.5346 N   0  0  0  0  0  0  0  0  0  0  0  0
    9.3489  -14.1397   27.3013 C   0  0  0  0  0  0  0  0  0  0  0  0
   10.5607  -13.6749   28.0342 C   0  0  0  0  0  0  0  0  0  0  0  0
   11.4883  -14.8487   28.1222 C   0  0  0  0  0  0  0  0  0  0  0  0
   10.7268  -15.9794   27.4551 C   0  0  1  0  0  0  0  0  0  0  0  0
    9.9092  -16.6496   28.5266 C   0  0  0  0  0  0  0  0  0  0  0  0
   10.5387  -17.3940   29.4941 O   0  0  0  0  0  0  0  0  0  0  0  0
    8.6698  -16.5323   28.5392 O   0  0  0  0  0  0  0  0  0  0  0  0
  2  5  1  0
  2  1  1  6
  3  2  1  0
  4  3  1  0
  5  6  2  0
  7  8  1  0
  7  5  1  0
  9 10  1  0
  8  9  1  1
 10 11  1  0
 11 12  1  0
 13 12  1  0
 14 15  2  0
 14  8  1  0
 16 14  1  0
 17 16  1  0
 18 17  1  0
 18 19  1  0
 20 19  1  0
 20 16  1  0
 20 21  1  1
 21 22  1  0
 23 21  2  0
M  END
$$$$
