CKP.pdb
     RDKit          3D

 23 23  0  0  1  0  0  0  0  0999 V2000
    7.0000  -14.2658   18.8436 N   0  0  0  0  0  0  0  0  0  0  0  0
    8.0625  -14.1842   19.8147 C   0  0  1  0  0  0  0  0  0  0  0  0
    8.8165  -12.8760   19.7368 C   0  0  0  0  0  0  0  0  0  0  0  0
   10.1750  -12.9492   20.9238 S   0  0  0  0  0  0  0  0  0  0  0  0
    7.4657  -14.3681   21.1746 C   0  0  0  0  0  0  0  0  0  0  0  0
    6.4484  -13.6940   21.5446 O   0  0  0  0  0  0  0  0  0  0  0  0
    7.9861  -15.2840   22.1120 N   0  0  0  0  0  0  0  0  0  0  0  0
    7.3987  -15.4225   23.4832 C   0  0  1  0  0  0  0  0  0  0  0  0
    7.3820  -16.9114   23.6748 C   0  0  0  0  0  0  0  0  0  0  0  0
    7.1678  -17.4675   25.0043 C   0  0  0  0  0  0  0  0  0  0  0  0
    7.2384  -18.9828   24.9566 C   0  0  0  0  0  0  0  0  0  0  0  0
    6.8271  -19.6306   26.2595 C   0  0  0  0  0  0  0  0  0  0  0  0
    6.9495  -21.0901   26.0995 N   0  0  0  0  0  0  0  0  0  0  0  0
    8.2838  -14.6685   24.3568 C   0  0  0  0  0  0  0  0  0  0  0  0
    9.5152  -14.4698   24.0940 O   0  0  0  0  0  0  0  0  0  0  0  0
    7.8292  -14.1000   25.5593 N   0  0  0  0  0  0  0  0  0  0  0  0
    6.4625  -14.1555   26.1103 C   0  0  0  0  0  0  0  0  0  0  0  0
    6.2939  -12.7852   26.6719 C   0  0  0  0  0  0  0  0  0  0  0  0
    7.6703  -12.2570   26.9413 C   0  0  0  0  0  0  0  0  0  0  0  0
    8.5926  -13.3978   26.5522 C   0  0  1  0  0  0  0  0  0  0  0  0
    8.7708  -14.2550   27.7766 C   0  0  0  0  0  0  0  0  0  0  0  0
    9.6124  -13.8387   28.7793 O   0  0  0  0  0  0  0  0  0  0  0  0
    8.1611  -15.3351   27.8837 O   0  0  0  0  0  0  0  0  0  0  0  0
  2  5  1  0
  2  1  1  6
  3  2  1  0
  4  3  1  0
  5  6  2  0
  7  8  1  0
  7  5  1  0
  9 10  1  0
  8  9  1  1
 10 11  1  0
 11 12  1  0
 13 12  1  0
 14 15  2  0
 14  8  1  0
 16 14  1  0
 17 16  1  0
 18 17  1  0
 18 19  1  0
 20 19  1  0
 20 16  1  0
 20 21  1  1
 21 22  1  0
 23 21  2  0
M  END
$$$$
