CKP.pdb
     RDKit          3D

 23 23  0  0  1  0  0  0  0  0999 V2000
    7.7021  -15.8231   19.0373 N   0  0  0  0  0  0  0  0  0  0  0  0
    8.0030  -14.7295   19.9274 C   0  0  1  0  0  0  0  0  0  0  0  0
    7.4909  -13.4051   19.4083 C   0  0  0  0  0  0  0  0  0  0  0  0
    8.7329  -12.1483   19.7790 S   0  0  0  0  0  0  0  0  0  0  0  0
    7.4047  -15.0385   21.2637 C   0  0  0  0  0  0  0  0  0  0  0  0
    6.1404  -15.0785   21.4265 O   0  0  0  0  0  0  0  0  0  0  0  0
    8.1924  -15.2994   22.4037 N   0  0  0  0  0  0  0  0  0  0  0  0
    7.5811  -15.4443   23.7637 C   0  0  1  0  0  0  0  0  0  0  0  0
    7.5587  -16.9342   23.9469 C   0  0  0  0  0  0  0  0  0  0  0  0
    7.2562  -17.4978   25.2560 C   0  0  0  0  0  0  0  0  0  0  0  0
    7.4228  -19.0061   25.2289 C   0  0  0  0  0  0  0  0  0  0  0  0
    6.9482  -19.6718   26.5008 C   0  0  0  0  0  0  0  0  0  0  0  0
    7.0411  -21.1301   26.3121 N   0  0  0  0  0  0  0  0  0  0  0  0
    8.4520  -14.6965   24.6566 C   0  0  0  0  0  0  0  0  0  0  0  0
    9.7150  -14.6281   24.4987 O   0  0  0  0  0  0  0  0  0  0  0  0
    7.9479  -13.9891   25.7617 N   0  0  0  0  0  0  0  0  0  0  0  0
    6.5344  -13.8394   26.1544 C   0  0  0  0  0  0  0  0  0  0  0  0
    6.4824  -12.4204   26.6077 C   0  0  0  0  0  0  0  0  0  0  0  0
    7.8782  -12.0417   27.0006 C   0  0  0  0  0  0  0  0  0  0  0  0
    8.6842  -13.3105   26.7908 C   0  0  1  0  0  0  0  0  0  0  0  0
    8.6207  -14.0884   28.0779 C   0  0  0  0  0  0  0  0  0  0  0  0
    9.4033  -13.7068   29.1404 O   0  0  0  0  0  0  0  0  0  0  0  0
    7.8649  -15.0721   28.1829 O   0  0  0  0  0  0  0  0  0  0  0  0
  2  5  1  0
  2  1  1  6
  3  2  1  0
  4  3  1  0
  5  6  2  0
  7  8  1  0
  7  5  1  0
  9 10  1  0
  8  9  1  1
 10 11  1  0
 11 12  1  0
 13 12  1  0
 14 15  2  0
 14  8  1  0
 16 14  1  0
 17 16  1  0
 18 17  1  0
 18 19  1  0
 20 19  1  0
 20 16  1  0
 20 21  1  1
 21 22  1  0
 23 21  2  0
M  END
$$$$
