CKP.pdb
     RDKit          3D

 23 23  0  0  1  0  0  0  0  0999 V2000
    9.0617  -15.9410   20.0074 N   0  0  0  0  0  0  0  0  0  0  0  0
    8.6302  -14.5926   20.2798 C   0  0  1  0  0  0  0  0  0  0  0  0
    7.6734  -14.0699   19.2323 C   0  0  0  0  0  0  0  0  0  0  0  0
    7.4603  -12.2991   19.5124 S   0  0  0  0  0  0  0  0  0  0  0  0
    7.9919  -14.5722   21.6332 C   0  0  0  0  0  0  0  0  0  0  0  0
    7.6314  -13.4757   22.1754 O   0  0  0  0  0  0  0  0  0  0  0  0
    7.7557  -15.7469   22.3763 N   0  0  0  0  0  0  0  0  0  0  0  0
    7.2276  -15.6964   23.7774 C   0  0  1  0  0  0  0  0  0  0  0  0
    7.0671  -17.1512   24.1111 C   0  0  0  0  0  0  0  0  0  0  0  0
    7.0078  -17.5716   25.5049 C   0  0  0  0  0  0  0  0  0  0  0  0
    6.9491  -19.0856   25.5940 C   0  0  0  0  0  0  0  0  0  0  0  0
    6.8816  -19.5873   27.0188 C   0  0  0  0  0  0  0  0  0  0  0  0
    6.7577  -21.0549   26.9781 N   0  0  0  0  0  0  0  0  0  0  0  0
    8.2289  -14.9656   24.5379 C   0  0  0  0  0  0  0  0  0  0  0  0
    9.4772  -15.0354   24.2895 O   0  0  0  0  0  0  0  0  0  0  0  0
    7.8774  -14.1217   25.6057 N   0  0  0  0  0  0  0  0  0  0  0  0
    6.5196  -13.8313   26.1021 C   0  0  0  0  0  0  0  0  0  0  0  0
    6.6030  -12.3760   26.4131 C   0  0  0  0  0  0  0  0  0  0  0  0
    8.0511  -12.0665   26.6437 C   0  0  0  0  0  0  0  0  0  0  0  0
    8.7494  -13.4056   26.4937 C   0  0  1  0  0  0  0  0  0  0  0  0
    8.7556  -14.0518   27.8532 C   0  0  0  0  0  0  0  0  0  0  0  0
    9.6090  -13.5841   28.8226 O   0  0  0  0  0  0  0  0  0  0  0  0
    7.9936  -15.0045   28.1014 O   0  0  0  0  0  0  0  0  0  0  0  0
  2  5  1  0
  2  1  1  6
  3  2  1  0
  4  3  1  0
  5  6  2  0
  7  8  1  0
  7  5  1  0
  9 10  1  0
  8  9  1  1
 10 11  1  0
 11 12  1  0
 13 12  1  0
 14 15  2  0
 14  8  1  0
 16 14  1  0
 17 16  1  0
 18 17  1  0
 18 19  1  0
 20 19  1  0
 20 16  1  0
 20 21  1  1
 21 22  1  0
 23 21  2  0
M  END
$$$$
