CKP.pdb
     RDKit          3D

 23 23  0  0  1  0  0  0  0  0999 V2000
    6.8117  -16.3600   19.2989 N   0  0  0  0  0  0  0  0  0  0  0  0
    7.5452  -15.3655   20.0415 C   0  0  1  0  0  0  0  0  0  0  0  0
    7.4107  -13.9832   19.4440 C   0  0  0  0  0  0  0  0  0  0  0  0
    8.2996  -12.8303   20.5119 S   0  0  0  0  0  0  0  0  0  0  0  0
    7.0499  -15.3795   21.4536 C   0  0  0  0  0  0  0  0  0  0  0  0
    5.8016  -15.3936   21.7140 O   0  0  0  0  0  0  0  0  0  0  0  0
    7.9219  -15.3779   22.5616 N   0  0  0  0  0  0  0  0  0  0  0  0
    7.4089  -15.4964   23.9642 C   0  0  1  0  0  0  0  0  0  0  0  0
    7.3066  -16.9836   24.1425 C   0  0  0  0  0  0  0  0  0  0  0  0
    7.0055  -17.5357   25.4567 C   0  0  0  0  0  0  0  0  0  0  0  0
    7.2899  -19.0264   25.4770 C   0  0  0  0  0  0  0  0  0  0  0  0
    6.8593  -19.6884   26.7665 C   0  0  0  0  0  0  0  0  0  0  0  0
    7.2477  -21.1081   26.6999 N   0  0  0  0  0  0  0  0  0  0  0  0
    8.3912  -14.8126   24.7903 C   0  0  0  0  0  0  0  0  0  0  0  0
    9.6383  -14.8083   24.5264 O   0  0  0  0  0  0  0  0  0  0  0  0
    8.0211  -14.1002   25.9441 N   0  0  0  0  0  0  0  0  0  0  0  0
    6.6595  -13.9178   26.4801 C   0  0  0  0  0  0  0  0  0  0  0  0
    6.6906  -12.5010   26.9421 C   0  0  0  0  0  0  0  0  0  0  0  0
    8.1285  -12.1600   27.1915 C   0  0  0  0  0  0  0  0  0  0  0  0
    8.8761  -13.4472   26.8951 C   0  0  1  0  0  0  0  0  0  0  0  0
    8.9247  -14.2318   28.1787 C   0  0  0  0  0  0  0  0  0  0  0  0
    9.7886  -13.8486   29.1755 O   0  0  0  0  0  0  0  0  0  0  0  0
    8.1881  -15.2224   28.3399 O   0  0  0  0  0  0  0  0  0  0  0  0
  2  5  1  0
  2  1  1  6
  3  2  1  0
  4  3  1  0
  5  6  2  0
  7  8  1  0
  7  5  1  0
  9 10  1  0
  8  9  1  1
 10 11  1  0
 11 12  1  0
 13 12  1  0
 14 15  2  0
 14  8  1  0
 16 14  1  0
 17 16  1  0
 18 17  1  0
 18 19  1  0
 20 19  1  0
 20 16  1  0
 20 21  1  1
 21 22  1  0
 23 21  2  0
M  END
$$$$
