CKP.pdb
     RDKit          3D

 23 23  0  0  1  0  0  0  0  0999 V2000
    8.9252  -15.1427   19.7950 N   0  0  0  0  0  0  0  0  0  0  0  0
    8.5295  -13.8497   20.2950 C   0  0  1  0  0  0  0  0  0  0  0  0
    7.6113  -13.1185   19.3421 C   0  0  0  0  0  0  0  0  0  0  0  0
    8.1924  -13.4348   17.6622 S   0  0  0  0  0  0  0  0  0  0  0  0
    7.8640  -14.0467   21.6208 C   0  0  0  0  0  0  0  0  0  0  0  0
    7.3836  -13.0599   22.2703 O   0  0  0  0  0  0  0  0  0  0  0  0
    7.7314  -15.3162   22.2199 N   0  0  0  0  0  0  0  0  0  0  0  0
    7.2072  -15.4751   23.6143 C   0  0  1  0  0  0  0  0  0  0  0  0
    7.1511  -16.9676   23.7665 C   0  0  0  0  0  0  0  0  0  0  0  0
    6.9896  -17.5544   25.0903 C   0  0  0  0  0  0  0  0  0  0  0  0
    7.0389  -19.0687   25.0023 C   0  0  0  0  0  0  0  0  0  0  0  0
    6.8299  -19.7413   26.3403 C   0  0  0  0  0  0  0  0  0  0  0  0
    7.0524  -21.1868   26.1616 N   0  0  0  0  0  0  0  0  0  0  0  0
    8.1580  -14.7744   24.4629 C   0  0  0  0  0  0  0  0  0  0  0  0
    9.4103  -14.7465   24.2271 O   0  0  0  0  0  0  0  0  0  0  0  0
    7.7490  -14.0707   25.6089 N   0  0  0  0  0  0  0  0  0  0  0  0
    6.3825  -13.9741   26.1548 C   0  0  0  0  0  0  0  0  0  0  0  0
    6.3192  -12.5513   26.5944 C   0  0  0  0  0  0  0  0  0  0  0  0
    7.7321  -12.1078   26.8250 C   0  0  0  0  0  0  0  0  0  0  0  0
    8.5645  -13.3448   26.5416 C   0  0  1  0  0  0  0  0  0  0  0  0
    8.6780  -14.1034   27.8368 C   0  0  0  0  0  0  0  0  0  0  0  0
    8.0300  -15.3064   27.9772 O   0  0  0  0  0  0  0  0  0  0  0  0
    9.3539  -13.6466   28.7772 O   0  0  0  0  0  0  0  0  0  0  0  0
  2  5  1  0
  2  1  1  6
  3  2  1  0
  4  3  1  0
  5  6  2  0
  7  8  1  0
  7  5  1  0
  9 10  1  0
  8  9  1  1
 10 11  1  0
 11 12  1  0
 13 12  1  0
 14 15  2  0
 14  8  1  0
 16 14  1  0
 17 16  1  0
 18 17  1  0
 18 19  1  0
 20 19  1  0
 20 16  1  0
 20 21  1  1
 21 22  1  0
 23 21  2  0
M  END
$$$$
