CKP.pdb
     RDKit          3D

 23 23  0  0  1  0  0  0  0  0999 V2000
    3.3861  -19.4576   22.9715 N   0  0  0  0  0  0  0  0  0  0  0  0
    4.1687  -19.0666   21.8255 C   0  0  1  0  0  0  0  0  0  0  0  0
    3.3150  -18.8061   20.6052 C   0  0  0  0  0  0  0  0  0  0  0  0
    4.4175  -18.3882   19.2380 S   0  0  0  0  0  0  0  0  0  0  0  0
    4.9518  -17.8450   22.1910 C   0  0  0  0  0  0  0  0  0  0  0  0
    4.3670  -16.7710   22.5528 O   0  0  0  0  0  0  0  0  0  0  0  0
    6.3610  -17.8111   22.1572 N   0  0  0  0  0  0  0  0  0  0  0  0
    7.1178  -16.5222   22.2607 C   0  0  1  0  0  0  0  0  0  0  0  0
    8.2025  -16.8663   23.2399 C   0  0  0  0  0  0  0  0  0  0  0  0
    9.3187  -15.9504   23.4347 C   0  0  0  0  0  0  0  0  0  0  0  0
   10.3186  -16.5422   24.4110 C   0  0  0  0  0  0  0  0  0  0  0  0
   11.5164  -15.6479   24.6384 C   0  0  0  0  0  0  0  0  0  0  0  0
   12.2846  -16.1966   25.7696 N   0  0  0  0  0  0  0  0  0  0  0  0
    7.5444  -16.2187   20.9040 C   0  0  0  0  0  0  0  0  0  0  0  0
    7.5764  -17.0905   19.9746 O   0  0  0  0  0  0  0  0  0  0  0  0
    7.9490  -14.9265   20.5267 N   0  0  0  0  0  0  0  0  0  0  0  0
    8.1301  -13.7571   21.4066 C   0  0  0  0  0  0  0  0  0  0  0  0
    7.5905  -12.6477   20.5701 C   0  0  0  0  0  0  0  0  0  0  0  0
    7.6885  -13.0961   19.1434 C   0  0  0  0  0  0  0  0  0  0  0  0
    8.3394  -14.4647   19.2243 C   0  0  1  0  0  0  0  0  0  0  0  0
    9.8278  -14.2464   19.1720 C   0  0  0  0  0  0  0  0  0  0  0  0
   10.5759  -14.3971   20.3141 O   0  0  0  0  0  0  0  0  0  0  0  0
   10.3811  -13.9310   18.1023 O   0  0  0  0  0  0  0  0  0  0  0  0
  2  5  1  0
  2  1  1  1
  3  2  1  0
  4  3  1  0
  5  6  2  0
  7  8  1  0
  7  5  1  0
  9 10  1  0
  8  9  1  1
 10 11  1  0
 11 12  1  0
 13 12  1  0
 14 15  2  0
 14  8  1  0
 16 14  1  0
 17 16  1  0
 18 17  1  0
 18 19  1  0
 20 19  1  0
 20 16  1  0
 20 21  1  1
 21 22  1  0
 23 21  2  0
M  END
$$$$
