YER.pdb
     RDKit          3D

 33 33  0  0  1  0  0  0  0  0999 V2000
   -1.3527  -19.5660   20.9903 O   0  0  0  0  0  0  0  0  0  0  0  0
   -0.0126  -19.2248   21.1847 C   0  0  0  0  0  0  0  0  0  0  0  0
    0.7680  -18.9041   20.1180 C   0  0  0  0  0  0  0  0  0  0  0  0
    2.0897  -18.5646   20.2806 C   0  0  0  0  0  0  0  0  0  0  0  0
    2.6401  -18.5478   21.5524 C   0  0  0  0  0  0  0  0  0  0  0  0
    4.0596  -18.1874   21.7882 C   0  0  0  0  0  0  0  0  0  0  0  0
    4.9672  -19.0154   20.8931 C   0  0  2  0  0  0  0  0  0  0  0  0
    4.7765  -20.4213   21.1896 N   0  0  0  0  0  0  0  0  0  0  0  0
    6.4030  -18.6262   21.1193 C   0  0  0  0  0  0  0  0  0  0  0  0
    7.0054  -19.0632   22.1177 O   0  0  0  0  0  0  0  0  0  0  0  0
    1.8359  -18.8735   22.6060 C   0  0  0  0  0  0  0  0  0  0  0  0
    0.5068  -19.2166   22.4610 C   0  0  0  0  0  0  0  0  0  0  0  0
    7.0721  -17.7790   20.2240 N   0  0  0  0  0  0  0  0  0  0  0  0
    8.4783  -17.3651   20.3817 C   0  0  1  0  0  0  0  0  0  0  0  0
    8.9112  -16.7237   19.1117 C   0  0  0  0  0  0  0  0  0  0  0  0
    8.0425  -15.5617   18.7738 C   0  0  0  0  0  0  0  0  0  0  0  0
    8.5337  -14.9317   17.5170 C   0  0  0  0  0  0  0  0  0  0  0  0
    9.2649  -13.9154   17.5866 O   0  0  0  0  0  0  0  0  0  0  0  0
    8.5174  -16.4982   21.5769 C   0  0  0  0  0  0  0  0  0  0  0  0
    7.6328  -15.6077   21.8106 O   0  0  0  0  0  0  0  0  0  0  0  0
    8.1799  -15.4724   16.2780 O   0  0  0  0  0  0  0  0  0  0  0  0
    6.7535  -19.9419   27.9528 N   0  0  0  0  0  0  0  0  0  0  0  0
    7.1204  -20.5034   26.7018 C   0  0  0  0  0  0  0  0  0  0  0  0
    6.7266  -21.6884   26.3867 N   0  0  0  0  0  0  0  0  0  0  0  0
    7.9280  -19.7272   25.8170 N   0  0  0  0  0  0  0  0  0  0  0  0
    8.3719  -18.4084   26.3332 C   0  0  0  0  0  0  0  0  0  0  0  0
    9.1873  -17.7032   25.3204 C   0  0  0  0  0  0  0  0  0  0  0  0
    8.7807  -16.4369   24.7442 C   0  0  0  0  0  0  0  0  0  0  0  0
    9.5688  -15.6924   23.7402 C   0  0  2  0  0  0  0  0  0  0  0  0
    9.5551  -16.6174   22.5326 N   0  0  0  0  0  0  0  0  0  0  0  0
   11.0178  -15.6840   24.1044 C   0  0  0  0  0  0  0  0  0  0  0  0
   11.6569  -14.8184   24.9442 O   0  0  0  0  0  0  0  0  0  0  0  0
   11.7589  -16.5826   23.5734 O   0  0  0  0  0  0  0  0  0  0  0  0
  2  1  1  0
  3  2  2  0
  4  3  1  0
  5 11  1  0
  5  4  2  0
  6  5  1  0
  7  6  1  0
  7  8  1  1
  9  7  1  0
  9 13  1  0
 10  9  2  0
 11 12  2  0
 12  2  1  0
 14 15  1  6
 14 13  1  0
 16 17  1  0
 16 15  1  0
 17 21  1  0
 18 17  2  0
 19 14  1  0
 20 19  2  0
 23 24  2  0
 23 22  1  0
 25 23  1  0
 26 25  1  0
 26 27  1  0
 27 28  1  0
 29 28  1  1
 29 30  1  0
 30 19  1  0
 31 32  1  0
 31 29  1  0
 33 31  2  0
M  END
$$$$
