YER.pdb
     RDKit          3D

 33 33  0  0  1  0  0  0  0  0999 V2000
    8.8925  -11.9980   19.0545 O   0  0  0  0  0  0  0  0  0  0  0  0
    8.3530  -12.9931   19.8723 C   0  0  0  0  0  0  0  0  0  0  0  0
    8.9196  -13.2610   21.0794 C   0  0  0  0  0  0  0  0  0  0  0  0
    8.4093  -14.2349   21.9040 C   0  0  0  0  0  0  0  0  0  0  0  0
    7.2980  -14.9585   21.5015 C   0  0  0  0  0  0  0  0  0  0  0  0
    6.7031  -16.0195   22.3506 C   0  0  0  0  0  0  0  0  0  0  0  0
    6.8599  -17.3760   21.6826 C   0  0  2  0  0  0  0  0  0  0  0  0
    5.8432  -18.2771   22.1878 N   0  0  0  0  0  0  0  0  0  0  0  0
    8.2309  -17.9291   21.9626 C   0  0  0  0  0  0  0  0  0  0  0  0
    8.4946  -18.3647   23.0991 O   0  0  0  0  0  0  0  0  0  0  0  0
    6.7481  -14.6705   20.2860 C   0  0  0  0  0  0  0  0  0  0  0  0
    7.2474  -13.6961   19.4455 C   0  0  0  0  0  0  0  0  0  0  0  0
    9.2155  -17.9610   20.9643 N   0  0  0  0  0  0  0  0  0  0  0  0
   10.6309  -18.2855   21.2184 C   0  0  1  0  0  0  0  0  0  0  0  0
   11.2956  -18.4921   19.9041 C   0  0  0  0  0  0  0  0  0  0  0  0
   12.7361  -18.8292   20.0782 C   0  0  0  0  0  0  0  0  0  0  0  0
   13.3368  -19.1154   18.7459 C   0  0  0  0  0  0  0  0  0  0  0  0
   13.4307  -20.3045   18.3592 O   0  0  0  0  0  0  0  0  0  0  0  0
   11.1649  -17.1749   22.0327 C   0  0  0  0  0  0  0  0  0  0  0  0
   10.5050  -16.1048   22.2546 O   0  0  0  0  0  0  0  0  0  0  0  0
   13.7884  -18.0659   17.9413 O   0  0  0  0  0  0  0  0  0  0  0  0
    9.4828  -15.6176   29.1189 N   0  0  0  0  0  0  0  0  0  0  0  0
    9.1791  -14.8443   27.9680 C   0  0  0  0  0  0  0  0  0  0  0  0
    8.0480  -14.2347   27.8809 N   0  0  0  0  0  0  0  0  0  0  0  0
   10.1502  -14.7646   26.9249 N   0  0  0  0  0  0  0  0  0  0  0  0
   11.3458  -15.6293   27.0847 C   0  0  0  0  0  0  0  0  0  0  0  0
   12.2493  -15.4843   25.9225 C   0  0  0  0  0  0  0  0  0  0  0  0
   12.0614  -16.2358   24.6974 C   0  0  0  0  0  0  0  0  0  0  0  0
   12.9349  -16.1186   23.5114 C   0  0  2  0  0  0  0  0  0  0  0  0
   12.4542  -17.2484   22.6132 N   0  0  0  0  0  0  0  0  0  0  0  0
   14.3273  -16.5539   23.8340 C   0  0  0  0  0  0  0  0  0  0  0  0
   15.3720  -15.7680   24.2260 O   0  0  0  0  0  0  0  0  0  0  0  0
   14.5873  -17.8032   23.7323 O   0  0  0  0  0  0  0  0  0  0  0  0
  2  1  1  0
  3  2  2  0
  4  3  1  0
  5 11  1  0
  5  4  2  0
  6  5  1  0
  7  6  1  0
  7  8  1  1
  9  7  1  0
  9 13  1  0
 10  9  2  0
 11 12  2  0
 12  2  1  0
 14 15  1  6
 14 13  1  0
 16 17  1  0
 16 15  1  0
 17 21  1  0
 18 17  2  0
 19 14  1  0
 20 19  2  0
 23 24  2  0
 23 22  1  0
 25 23  1  0
 26 25  1  0
 26 27  1  0
 27 28  1  0
 29 28  1  1
 29 30  1  0
 30 19  1  0
 31 32  1  0
 31 29  1  0
 33 31  2  0
M  END
$$$$
