YER.pdb
     RDKit          3D

 33 33  0  0  1  0  0  0  0  0999 V2000
    7.6907  -11.2367   18.8346 O   0  0  0  0  0  0  0  0  0  0  0  0
    8.0486  -12.3003   19.6656 C   0  0  0  0  0  0  0  0  0  0  0  0
    9.2770  -12.8718   19.5462 C   0  0  0  0  0  0  0  0  0  0  0  0
    9.6551  -13.9197   20.3509 C   0  0  0  0  0  0  0  0  0  0  0  0
    8.7716  -14.4051   21.3019 C   0  0  0  0  0  0  0  0  0  0  0  0
    9.1259  -15.5322   22.1991 C   0  0  0  0  0  0  0  0  0  0  0  0
    9.0561  -16.8482   21.4415 C   0  0  2  0  0  0  0  0  0  0  0  0
    7.6683  -17.2366   21.2864 N   0  0  0  0  0  0  0  0  0  0  0  0
    9.8131  -17.9110   22.1908 C   0  0  0  0  0  0  0  0  0  0  0  0
    9.2235  -18.5897   23.0525 O   0  0  0  0  0  0  0  0  0  0  0  0
    7.5453  -13.8145   21.4019 C   0  0  0  0  0  0  0  0  0  0  0  0
    7.1491  -12.7615   20.6023 C   0  0  0  0  0  0  0  0  0  0  0  0
   11.1714  -18.1482   21.9341 N   0  0  0  0  0  0  0  0  0  0  0  0
   11.9519  -19.2222   22.5749 C   0  0  1  0  0  0  0  0  0  0  0  0
   12.9658  -19.6969   21.5960 C   0  0  0  0  0  0  0  0  0  0  0  0
   13.7681  -20.8202   22.1561 C   0  0  0  0  0  0  0  0  0  0  0  0
   14.8146  -21.2132   21.1721 C   0  0  0  0  0  0  0  0  0  0  0  0
   15.5826  -22.1666   21.4430 O   0  0  0  0  0  0  0  0  0  0  0  0
   12.4940  -18.6452   23.8218 C   0  0  0  0  0  0  0  0  0  0  0  0
   12.7278  -17.3975   23.9581 O   0  0  0  0  0  0  0  0  0  0  0  0
   14.9333  -20.5230   19.9630 O   0  0  0  0  0  0  0  0  0  0  0  0
   10.7347  -22.5700   29.0384 N   0  0  0  0  0  0  0  0  0  0  0  0
   11.6915  -22.5211   30.0858 C   0  0  0  0  0  0  0  0  0  0  0  0
   11.6751  -23.4116   31.0160 N   0  0  0  0  0  0  0  0  0  0  0  0
   12.6575  -21.4702   30.0779 N   0  0  0  0  0  0  0  0  0  0  0  0
   12.1434  -20.1196   29.7396 C   0  0  0  0  0  0  0  0  0  0  0  0
   12.9727  -19.4991   28.6836 C   0  0  0  0  0  0  0  0  0  0  0  0
   12.6063  -19.5491   27.2821 C   0  0  0  0  0  0  0  0  0  0  0  0
   13.3248  -18.8270   26.2117 C   0  0  2  0  0  0  0  0  0  0  0  0
   12.7839  -19.4634   24.9402 N   0  0  0  0  0  0  0  0  0  0  0  0
   14.7620  -19.2331   26.1712 C   0  0  0  0  0  0  0  0  0  0  0  0
   15.7790  -18.7627   26.9504 O   0  0  0  0  0  0  0  0  0  0  0  0
   15.0945  -20.1201   25.3102 O   0  0  0  0  0  0  0  0  0  0  0  0
  2  1  1  0
  3  2  2  0
  4  3  1  0
  5 11  1  0
  5  4  2  0
  6  5  1  0
  7  6  1  0
  7  8  1  1
  9  7  1  0
  9 13  1  0
 10  9  2  0
 11 12  2  0
 12  2  1  0
 14 15  1  6
 14 13  1  0
 16 17  1  0
 16 15  1  0
 17 21  1  0
 18 17  2  0
 19 14  1  0
 20 19  2  0
 23 24  2  0
 23 22  1  0
 25 23  1  0
 26 25  1  0
 26 27  1  0
 27 28  1  0
 29 28  1  1
 29 30  1  0
 30 19  1  0
 31 32  1  0
 31 29  1  0
 33 31  2  0
M  END
$$$$
