YER.pdb
     RDKit          3D

 33 33  0  0  1  0  0  0  0  0999 V2000
    7.0067  -12.1153   17.5140 O   0  0  0  0  0  0  0  0  0  0  0  0
    7.4898  -12.8818   18.5766 C   0  0  0  0  0  0  0  0  0  0  0  0
    6.6216  -13.5571   19.3766 C   0  0  0  0  0  0  0  0  0  0  0  0
    7.0697  -14.3186   20.4292 C   0  0  0  0  0  0  0  0  0  0  0  0
    8.4296  -14.4023   20.6826 C   0  0  0  0  0  0  0  0  0  0  0  0
    8.9705  -15.2103   21.8029 C   0  0  0  0  0  0  0  0  0  0  0  0
    9.6825  -16.4415   21.2663 C   0  0  2  0  0  0  0  0  0  0  0  0
    8.7320  -17.2678   20.5489 N   0  0  0  0  0  0  0  0  0  0  0  0
   10.2916  -17.2168   22.4030 C   0  0  0  0  0  0  0  0  0  0  0  0
    9.5798  -17.9978   23.0618 O   0  0  0  0  0  0  0  0  0  0  0  0
    9.2800  -13.7155   19.8653 C   0  0  0  0  0  0  0  0  0  0  0  0
    8.8474  -12.9462   18.8041 C   0  0  0  0  0  0  0  0  0  0  0  0
   11.6474  -17.0727   22.7318 N   0  0  0  0  0  0  0  0  0  0  0  0
   12.2650  -17.6531   23.9380 C   0  0  1  0  0  0  0  0  0  0  0  0
   13.7278  -17.7645   23.6942 C   0  0  0  0  0  0  0  0  0  0  0  0
   14.0259  -18.8276   22.6941 C   0  0  0  0  0  0  0  0  0  0  0  0
   15.4921  -18.8598   22.4356 C   0  0  0  0  0  0  0  0  0  0  0  0
   16.1377  -19.9020   22.6991 O   0  0  0  0  0  0  0  0  0  0  0  0
   11.8730  -16.7761   25.0600 C   0  0  0  0  0  0  0  0  0  0  0  0
   11.7640  -15.5098   24.9384 O   0  0  0  0  0  0  0  0  0  0  0  0
   16.1345  -17.7378   21.9052 O   0  0  0  0  0  0  0  0  0  0  0  0
    5.4052  -13.1138   26.1688 N   0  0  0  0  0  0  0  0  0  0  0  0
    6.4513  -12.4301   26.8421 C   0  0  0  0  0  0  0  0  0  0  0  0
    6.4312  -11.1453   26.9277 N   0  0  0  0  0  0  0  0  0  0  0  0
    7.5109  -13.1981   27.4122 N   0  0  0  0  0  0  0  0  0  0  0  0
    7.5632  -14.6268   27.0138 C   0  0  0  0  0  0  0  0  0  0  0  0
    8.7062  -15.3044   27.6636 C   0  0  0  0  0  0  0  0  0  0  0  0
    9.6981  -16.0446   26.9092 C   0  0  0  0  0  0  0  0  0  0  0  0
   11.0367  -16.3989   27.4250 C   0  0  2  0  0  0  0  0  0  0  0  0
   11.5963  -17.3091   26.3422 N   0  0  0  0  0  0  0  0  0  0  0  0
   10.9267  -17.3336   28.5854 C   0  0  0  0  0  0  0  0  0  0  0  0
   10.9835  -17.0187   29.9122 O   0  0  0  0  0  0  0  0  0  0  0  0
   10.7641  -18.5757   28.3218 O   0  0  0  0  0  0  0  0  0  0  0  0
  2  1  1  0
  3  2  2  0
  4  3  1  0
  5 11  1  0
  5  4  2  0
  6  5  1  0
  7  6  1  0
  7  8  1  1
  9  7  1  0
  9 13  1  0
 10  9  2  0
 11 12  2  0
 12  2  1  0
 14 15  1  6
 14 13  1  0
 16 17  1  0
 16 15  1  0
 17 21  1  0
 18 17  2  0
 19 14  1  0
 20 19  2  0
 23 24  2  0
 23 22  1  0
 25 23  1  0
 26 25  1  0
 26 27  1  0
 27 28  1  0
 29 28  1  6
 29 30  1  0
 30 19  1  0
 31 32  1  0
 31 29  1  0
 33 31  2  0
M  END
$$$$
