YER.pdb
     RDKit          3D

 33 33  0  0  1  0  0  0  0  0999 V2000
    7.2020  -12.0466   17.3275 O   0  0  0  0  0  0  0  0  0  0  0  0
    7.6835  -13.0302   18.1939 C   0  0  0  0  0  0  0  0  0  0  0  0
    7.7336  -12.7912   19.5319 C   0  0  0  0  0  0  0  0  0  0  0  0
    8.2029  -13.7413   20.4070 C   0  0  0  0  0  0  0  0  0  0  0  0
    8.6333  -14.9656   19.9209 C   0  0  0  0  0  0  0  0  0  0  0  0
    9.1474  -16.0291   20.8183 C   0  0  0  0  0  0  0  0  0  0  0  0
    8.8053  -17.4000   20.2576 C   0  0  2  0  0  0  0  0  0  0  0  0
    7.3770  -17.6190   20.3707 N   0  0  0  0  0  0  0  0  0  0  0  0
    9.5560  -18.4636   21.0120 C   0  0  0  0  0  0  0  0  0  0  0  0
    9.0859  -18.9054   22.0772 O   0  0  0  0  0  0  0  0  0  0  0  0
    8.5727  -15.1808   18.5745 C   0  0  0  0  0  0  0  0  0  0  0  0
    8.1044  -14.2382   17.6815 C   0  0  0  0  0  0  0  0  0  0  0  0
   10.7762  -18.9640   20.5346 N   0  0  0  0  0  0  0  0  0  0  0  0
   11.6451  -19.8754   21.3011 C   0  0  1  0  0  0  0  0  0  0  0  0
   11.8952  -21.0796   20.4650 C   0  0  0  0  0  0  0  0  0  0  0  0
   11.0382  -21.0746   19.2465 C   0  0  0  0  0  0  0  0  0  0  0  0
   11.3636  -22.2655   18.4137 C   0  0  0  0  0  0  0  0  0  0  0  0
   11.1619  -23.4121   18.8796 O   0  0  0  0  0  0  0  0  0  0  0  0
   12.8441  -19.0911   21.6601 C   0  0  0  0  0  0  0  0  0  0  0  0
   13.6514  -18.6286   20.7858 O   0  0  0  0  0  0  0  0  0  0  0  0
   11.8872  -22.0996   17.1288 O   0  0  0  0  0  0  0  0  0  0  0  0
   14.8985  -14.2904   17.8045 N   0  0  0  0  0  0  0  0  0  0  0  0
   14.1300  -14.6086   18.9548 C   0  0  0  0  0  0  0  0  0  0  0  0
   13.1648  -15.4570   18.8709 N   0  0  0  0  0  0  0  0  0  0  0  0
   14.4537  -13.9686   20.1890 N   0  0  0  0  0  0  0  0  0  0  0  0
   13.7522  -14.4850   21.3906 C   0  0  0  0  0  0  0  0  0  0  0  0
   14.3433  -15.7699   21.8235 C   0  0  0  0  0  0  0  0  0  0  0  0
   13.7869  -16.5508   22.9106 C   0  0  0  0  0  0  0  0  0  0  0  0
   14.3054  -17.8679   23.3345 C   0  0  2  0  0  0  0  0  0  0  0  0
   13.1575  -18.8128   23.0125 N   0  0  0  0  0  0  0  0  0  0  0  0
   14.3685  -17.9577   24.8245 C   0  0  0  0  0  0  0  0  0  0  0  0
   15.4339  -17.6717   25.6282 O   0  0  0  0  0  0  0  0  0  0  0  0
   13.3118  -18.3498   25.4315 O   0  0  0  0  0  0  0  0  0  0  0  0
  2  1  1  0
  3  2  2  0
  4  3  1  0
  5 11  1  0
  5  4  2  0
  6  5  1  0
  7  6  1  0
  7  8  1  1
  9  7  1  0
  9 13  1  0
 10  9  2  0
 11 12  2  0
 12  2  1  0
 14 15  1  6
 14 13  1  0
 16 17  1  0
 16 15  1  0
 17 21  1  0
 18 17  2  0
 19 14  1  0
 20 19  2  0
 23 24  2  0
 23 22  1  0
 25 23  1  0
 26 25  1  0
 26 27  1  0
 27 28  1  0
 29 28  1  1
 29 30  1  0
 30 19  1  0
 31 32  1  0
 31 29  1  0
 33 31  2  0
M  END
$$$$
