YER.pdb
     RDKit          3D

 33 33  0  0  1  0  0  0  0  0999 V2000
    7.5543  -11.1062   26.6486 O   0  0  0  0  0  0  0  0  0  0  0  0
    7.3518  -12.4440   26.3034 C   0  0  0  0  0  0  0  0  0  0  0  0
    6.4756  -13.2035   27.0141 C   0  0  0  0  0  0  0  0  0  0  0  0
    6.2572  -14.5226   26.6962 C   0  0  0  0  0  0  0  0  0  0  0  0
    6.9403  -15.0920   25.6333 C   0  0  0  0  0  0  0  0  0  0  0  0
    6.7434  -16.5097   25.2434 C   0  0  0  0  0  0  0  0  0  0  0  0
    7.4157  -17.4293   26.2499 C   0  0  2  0  0  0  0  0  0  0  0  0
    6.8808  -17.1638   27.5706 N   0  0  0  0  0  0  0  0  0  0  0  0
    8.9032  -17.2033   26.2360 C   0  0  0  0  0  0  0  0  0  0  0  0
    9.4968  -16.9706   27.3058 O   0  0  0  0  0  0  0  0  0  0  0  0
    7.8139  -14.3087   24.9360 C   0  0  0  0  0  0  0  0  0  0  0  0
    8.0452  -12.9827   25.2414 C   0  0  0  0  0  0  0  0  0  0  0  0
    9.6306  -17.2498   25.0377 N   0  0  0  0  0  0  0  0  0  0  0  0
   11.0880  -17.0444   24.9543 C   0  0  1  0  0  0  0  0  0  0  0  0
   11.7400  -18.0164   25.8718 C   0  0  0  0  0  0  0  0  0  0  0  0
   11.2974  -19.4088   25.5813 C   0  0  0  0  0  0  0  0  0  0  0  0
   12.4195  -20.3476   25.8594 C   0  0  0  0  0  0  0  0  0  0  0  0
   13.5150  -19.8901   26.2629 O   0  0  0  0  0  0  0  0  0  0  0  0
   11.4393  -17.1844   23.5265 C   0  0  0  0  0  0  0  0  0  0  0  0
   12.6356  -17.0645   23.0970 O   0  0  0  0  0  0  0  0  0  0  0  0
   12.2462  -21.7213   25.6706 O   0  0  0  0  0  0  0  0  0  0  0  0
    9.6187  -13.3405   18.5702 N   0  0  0  0  0  0  0  0  0  0  0  0
    8.2545  -13.2126   18.1992 C   0  0  0  0  0  0  0  0  0  0  0  0
    7.9428  -12.8535   17.0024 N   0  0  0  0  0  0  0  0  0  0  0  0
    7.2533  -13.4891   19.1783 N   0  0  0  0  0  0  0  0  0  0  0  0
    7.7451  -13.9987   20.4826 C   0  0  0  0  0  0  0  0  0  0  0  0
    8.8298  -14.9834   20.2784 C   0  0  0  0  0  0  0  0  0  0  0  0
    9.4597  -15.6812   21.3818 C   0  0  0  0  0  0  0  0  0  0  0  0
   10.4857  -16.7321   21.2198 C   0  0  2  0  0  0  0  0  0  0  0  0
   10.4486  -17.4621   22.5539 N   0  0  0  0  0  0  0  0  0  0  0  0
   11.8572  -16.1396   21.2318 C   0  0  0  0  0  0  0  0  0  0  0  0
   12.6192  -15.8344   22.3222 O   0  0  0  0  0  0  0  0  0  0  0  0
   12.3911  -15.8791   20.0979 O   0  0  0  0  0  0  0  0  0  0  0  0
  2  1  1  0
  3  2  2  0
  4  3  1  0
  5 11  1  0
  5  4  2  0
  6  5  1  0
  7  6  1  0
  7  8  1  1
  9  7  1  0
  9 13  1  0
 10  9  2  0
 11 12  2  0
 12  2  1  0
 14 15  1  1
 14 13  1  0
 16 17  1  0
 16 15  1  0
 17 21  1  0
 18 17  2  0
 19 14  1  0
 20 19  2  0
 23 24  2  0
 23 22  1  0
 25 23  1  0
 26 25  1  0
 26 27  1  0
 27 28  1  0
 29 28  1  1
 29 30  1  0
 30 19  1  0
 31 32  1  0
 31 29  1  0
 33 31  2  0
M  END
$$$$
