YER.pdb
     RDKit          3D

 33 33  0  0  1  0  0  0  0  0999 V2000
    6.5287  -11.5549   18.2724 O   0  0  0  0  0  0  0  0  0  0  0  0
    7.3031  -12.4888   18.9639 C   0  0  0  0  0  0  0  0  0  0  0  0
    8.5860  -12.7253   18.5791 C   0  0  0  0  0  0  0  0  0  0  0  0
    9.3702  -13.6389   19.2417 C   0  0  0  0  0  0  0  0  0  0  0  0
    8.8478  -14.3331   20.3214 C   0  0  0  0  0  0  0  0  0  0  0  0
    9.6481  -15.3291   21.0752 C   0  0  0  0  0  0  0  0  0  0  0  0
    9.9878  -16.5127   20.1839 C   0  0  2  0  0  0  0  0  0  0  0  0
    8.7658  -17.2005   19.8174 N   0  0  0  0  0  0  0  0  0  0  0  0
   10.9149  -17.4501   20.9090 C   0  0  0  0  0  0  0  0  0  0  0  0
   10.4651  -18.1757   21.8157 O   0  0  0  0  0  0  0  0  0  0  0  0
    7.5581  -14.0775   20.6877 C   0  0  0  0  0  0  0  0  0  0  0  0
    6.7565  -13.1637   20.0339 C   0  0  0  0  0  0  0  0  0  0  0  0
   12.2766  -17.5186   20.5801 N   0  0  0  0  0  0  0  0  0  0  0  0
   13.2563  -18.3436   21.3099 C   0  0  1  0  0  0  0  0  0  0  0  0
   14.4640  -18.4841   20.4536 C   0  0  0  0  0  0  0  0  0  0  0  0
   14.1698  -19.2956   19.2395 C   0  0  0  0  0  0  0  0  0  0  0  0
   15.4137  -19.4403   18.4336 C   0  0  0  0  0  0  0  0  0  0  0  0
   16.4671  -19.8225   18.9964 O   0  0  0  0  0  0  0  0  0  0  0  0
   13.4719  -17.6703   22.6068 C   0  0  0  0  0  0  0  0  0  0  0  0
   13.6740  -16.4135   22.7047 O   0  0  0  0  0  0  0  0  0  0  0  0
   15.3998  -19.1517   17.0664 O   0  0  0  0  0  0  0  0  0  0  0  0
   10.3117  -14.6435   28.0343 N   0  0  0  0  0  0  0  0  0  0  0  0
   10.6908  -15.3259   29.2199 C   0  0  0  0  0  0  0  0  0  0  0  0
   10.8551  -14.6707   30.3164 N   0  0  0  0  0  0  0  0  0  0  0  0
   10.8826  -16.7391   29.1610 N   0  0  0  0  0  0  0  0  0  0  0  0
   10.8430  -17.3429   27.8057 C   0  0  0  0  0  0  0  0  0  0  0  0
   12.1694  -17.2492   27.1578 C   0  0  0  0  0  0  0  0  0  0  0  0
   12.4265  -17.7918   25.8385 C   0  0  0  0  0  0  0  0  0  0  0  0
   13.7186  -17.6736   25.1315 C   0  0  2  0  0  0  0  0  0  0  0  0
   13.4643  -18.4007   23.8197 N   0  0  0  0  0  0  0  0  0  0  0  0
   14.7528  -18.5431   25.7692 C   0  0  0  0  0  0  0  0  0  0  0  0
   15.6270  -18.2016   26.7602 O   0  0  0  0  0  0  0  0  0  0  0  0
   14.8448  -19.7479   25.3464 O   0  0  0  0  0  0  0  0  0  0  0  0
  2  1  1  0
  3  2  2  0
  4  3  1  0
  5 11  1  0
  5  4  2  0
  6  5  1  0
  7  6  1  0
  7  8  1  1
  9  7  1  0
  9 13  1  0
 10  9  2  0
 11 12  2  0
 12  2  1  0
 14 15  1  6
 14 13  1  0
 16 17  1  0
 16 15  1  0
 17 21  1  0
 18 17  2  0
 19 14  1  0
 20 19  2  0
 23 24  2  0
 23 22  1  0
 25 23  1  0
 26 25  1  0
 26 27  1  0
 27 28  1  0
 29 28  1  1
 29 30  1  0
 30 19  1  0
 31 32  1  0
 31 29  1  0
 33 31  2  0
M  END
$$$$
