YER.pdb
     RDKit          3D

 33 33  0  0  1  0  0  0  0  0999 V2000
    7.1807  -11.0969   17.9862 O   0  0  0  0  0  0  0  0  0  0  0  0
    7.6610  -12.1302   18.7933 C   0  0  0  0  0  0  0  0  0  0  0  0
    6.8346  -13.1468   19.1584 C   0  0  0  0  0  0  0  0  0  0  0  0
    7.2810  -14.1762   19.9519 C   0  0  0  0  0  0  0  0  0  0  0  0
    8.5960  -14.1816   20.3895 C   0  0  0  0  0  0  0  0  0  0  0  0
    9.1333  -15.2673   21.2458 C   0  0  0  0  0  0  0  0  0  0  0  0
   10.0413  -16.1762   20.4333 C   0  0  2  0  0  0  0  0  0  0  0  0
    9.2761  -16.7798   19.3604 N   0  0  0  0  0  0  0  0  0  0  0  0
   10.6245  -17.2427   21.3201 C   0  0  0  0  0  0  0  0  0  0  0  0
    9.9632  -18.2711   21.5563 O   0  0  0  0  0  0  0  0  0  0  0  0
    9.4050  -13.1503   20.0092 C   0  0  0  0  0  0  0  0  0  0  0  0
    8.9734  -12.1088   19.2129 C   0  0  0  0  0  0  0  0  0  0  0  0
   11.8999  -17.0959   21.8848 N   0  0  0  0  0  0  0  0  0  0  0  0
   12.5710  -18.1416   22.6782 C   0  0  1  0  0  0  0  0  0  0  0  0
   14.0374  -17.9093   22.5934 C   0  0  0  0  0  0  0  0  0  0  0  0
   14.4025  -16.5749   23.1457 C   0  0  0  0  0  0  0  0  0  0  0  0
   15.8705  -16.3701   23.0021 C   0  0  0  0  0  0  0  0  0  0  0  0
   16.5950  -17.3397   22.6744 O   0  0  0  0  0  0  0  0  0  0  0  0
   11.9922  -18.0598   24.0347 C   0  0  0  0  0  0  0  0  0  0  0  0
   11.6427  -16.9539   24.5684 O   0  0  0  0  0  0  0  0  0  0  0  0
   16.4273  -15.1091   23.2314 O   0  0  0  0  0  0  0  0  0  0  0  0
    5.2800  -22.9396   26.1202 N   0  0  0  0  0  0  0  0  0  0  0  0
    6.0814  -22.2809   25.1513 C   0  0  0  0  0  0  0  0  0  0  0  0
    5.5848  -21.9771   24.0026 N   0  0  0  0  0  0  0  0  0  0  0  0
    7.4346  -21.9707   25.4832 N   0  0  0  0  0  0  0  0  0  0  0  0
    7.6244  -20.9820   26.5737 C   0  0  0  0  0  0  0  0  0  0  0  0
    9.0638  -20.7951   26.8589 C   0  0  0  0  0  0  0  0  0  0  0  0
    9.9967  -20.3222   25.8555 C   0  0  0  0  0  0  0  0  0  0  0  0
   10.8903  -19.1595   26.0375 C   0  0  2  0  0  0  0  0  0  0  0  0
   11.7961  -19.2234   24.8170 N   0  0  0  0  0  0  0  0  0  0  0  0
   11.8568  -19.4034   27.1505 C   0  0  0  0  0  0  0  0  0  0  0  0
   11.6144  -19.3252   28.4914 O   0  0  0  0  0  0  0  0  0  0  0  0
   13.0541  -19.7191   26.8259 O   0  0  0  0  0  0  0  0  0  0  0  0
  2  1  1  0
  3  2  2  0
  4  3  1  0
  5 11  1  0
  5  4  2  0
  6  5  1  0
  7  6  1  0
  7  8  1  6
  9  7  1  0
  9 13  1  0
 10  9  2  0
 11 12  2  0
 12  2  1  0
 14 15  1  1
 14 13  1  0
 16 17  1  0
 16 15  1  0
 17 21  1  0
 18 17  2  0
 19 14  1  0
 20 19  2  0
 23 24  2  0
 23 22  1  0
 25 23  1  0
 26 25  1  0
 26 27  1  0
 27 28  1  0
 29 28  1  6
 29 30  1  0
 30 19  1  0
 31 32  1  0
 31 29  1  0
 33 31  2  0
M  END
$$$$
