YER.pdb
     RDKit          3D

 33 33  0  0  1  0  0  0  0  0999 V2000
    6.3394  -10.6015   27.4370 O   0  0  0  0  0  0  0  0  0  0  0  0
    6.6087  -11.7911   26.7571 C   0  0  0  0  0  0  0  0  0  0  0  0
    6.0201  -12.9501   27.1571 C   0  0  0  0  0  0  0  0  0  0  0  0
    6.2674  -14.1349   26.5062 C   0  0  0  0  0  0  0  0  0  0  0  0
    7.1312  -14.1525   25.4226 C   0  0  0  0  0  0  0  0  0  0  0  0
    7.4338  -15.4011   24.6809 C   0  0  0  0  0  0  0  0  0  0  0  0
    8.4805  -16.2137   25.4258 C   0  0  2  0  0  0  0  0  0  0  0  0
    8.7996  -15.5509   26.6746 N   0  0  0  0  0  0  0  0  0  0  0  0
    9.7173  -16.3535   24.5802 C   0  0  0  0  0  0  0  0  0  0  0  0
   10.5570  -15.4341   24.5678 O   0  0  0  0  0  0  0  0  0  0  0  0
    7.7090  -12.9764   25.0410 C   0  0  0  0  0  0  0  0  0  0  0  0
    7.4719  -11.7777   25.6830 C   0  0  0  0  0  0  0  0  0  0  0  0
    9.9380  -17.5021   23.8062 N   0  0  0  0  0  0  0  0  0  0  0  0
   10.7743  -17.5250   22.5924 C   0  0  1  0  0  0  0  0  0  0  0  0
   12.0323  -18.2484   22.9175 C   0  0  0  0  0  0  0  0  0  0  0  0
   12.8574  -18.4659   21.6964 C   0  0  0  0  0  0  0  0  0  0  0  0
   14.1184  -19.1621   22.0748 C   0  0  0  0  0  0  0  0  0  0  0  0
   14.2778  -20.3617   21.7465 O   0  0  0  0  0  0  0  0  0  0  0  0
    9.9440  -18.1379   21.5357 C   0  0  0  0  0  0  0  0  0  0  0  0
    9.2887  -19.2188   21.7153 O   0  0  0  0  0  0  0  0  0  0  0  0
   15.1082  -18.4799   22.7873 O   0  0  0  0  0  0  0  0  0  0  0  0
    8.3999  -11.9850   19.1975 N   0  0  0  0  0  0  0  0  0  0  0  0
    9.4217  -12.9692   19.2448 C   0  0  0  0  0  0  0  0  0  0  0  0
   10.6558  -12.6133   19.3385 N   0  0  0  0  0  0  0  0  0  0  0  0
    9.0458  -14.3450   19.1853 N   0  0  0  0  0  0  0  0  0  0  0  0
    7.6190  -14.6401   19.4679 C   0  0  0  0  0  0  0  0  0  0  0  0
    7.3660  -16.0955   19.3921 C   0  0  0  0  0  0  0  0  0  0  0  0
    8.2210  -16.9917   18.6393 C   0  0  0  0  0  0  0  0  0  0  0  0
    8.9085  -18.1637   19.2201 C   0  0  2  0  0  0  0  0  0  0  0  0
    9.8361  -17.5446   20.2548 N   0  0  0  0  0  0  0  0  0  0  0  0
    9.8801  -18.7448   18.2451 C   0  0  0  0  0  0  0  0  0  0  0  0
   11.2421  -18.7457   18.3320 O   0  0  0  0  0  0  0  0  0  0  0  0
    9.3956  -19.3063   17.2017 O   0  0  0  0  0  0  0  0  0  0  0  0
  2  1  1  0
  3  2  2  0
  4  3  1  0
  5 11  1  0
  5  4  2  0
  6  5  1  0
  7  6  1  0
  7  8  1  1
  9  7  1  0
  9 13  1  0
 10  9  2  0
 11 12  2  0
 12  2  1  0
 14 15  1  1
 14 13  1  0
 16 17  1  0
 16 15  1  0
 17 21  1  0
 18 17  2  0
 19 14  1  0
 20 19  2  0
 23 24  2  0
 23 22  1  0
 25 23  1  0
 26 25  1  0
 26 27  1  0
 27 28  1  0
 29 28  1  6
 29 30  1  0
 30 19  1  0
 31 32  1  0
 31 29  1  0
 33 31  2  0
M  END
$$$$
