YER.pdb
     RDKit          3D

 33 33  0  0  1  0  0  0  0  0999 V2000
    6.8509  -11.6519   18.1463 O   0  0  0  0  0  0  0  0  0  0  0  0
    7.4533  -12.6286   18.9419 C   0  0  0  0  0  0  0  0  0  0  0  0
    8.8064  -12.7665   18.9398 C   0  0  0  0  0  0  0  0  0  0  0  0
    9.4253  -13.7192   19.7131 C   0  0  0  0  0  0  0  0  0  0  0  0
    8.6603  -14.5558   20.5102 C   0  0  0  0  0  0  0  0  0  0  0  0
    9.2736  -15.6004   21.3665 C   0  0  0  0  0  0  0  0  0  0  0  0
    9.7057  -16.7865   20.5197 C   0  0  2  0  0  0  0  0  0  0  0  0
    8.5427  -17.3590   19.8713 N   0  0  0  0  0  0  0  0  0  0  0  0
   10.3777  -17.8166   21.3865 C   0  0  0  0  0  0  0  0  0  0  0  0
    9.6964  -18.7260   21.8961 O   0  0  0  0  0  0  0  0  0  0  0  0
    7.3047  -14.3972   20.4945 C   0  0  0  0  0  0  0  0  0  0  0  0
    6.6667  -13.4458   19.7244 C   0  0  0  0  0  0  0  0  0  0  0  0
   11.7582  -17.7678   21.6295 N   0  0  0  0  0  0  0  0  0  0  0  0
   12.4909  -18.7849   22.4054 C   0  0  1  0  0  0  0  0  0  0  0  0
   13.7412  -19.1091   21.6683 C   0  0  0  0  0  0  0  0  0  0  0  0
   14.5778  -17.8927   21.4692 C   0  0  0  0  0  0  0  0  0  0  0  0
   15.8561  -18.2796   20.8104 C   0  0  0  0  0  0  0  0  0  0  0  0
   15.8389  -18.6583   19.6152 O   0  0  0  0  0  0  0  0  0  0  0  0
   12.6787  -18.2128   23.7541 C   0  0  0  0  0  0  0  0  0  0  0  0
   12.9034  -16.9714   23.9502 O   0  0  0  0  0  0  0  0  0  0  0  0
   17.0571  -18.2188   21.5222 O   0  0  0  0  0  0  0  0  0  0  0  0
   10.8089  -14.4660   30.0471 N   0  0  0  0  0  0  0  0  0  0  0  0
    9.8132  -14.5419   29.0382 C   0  0  0  0  0  0  0  0  0  0  0  0
    9.5290  -13.5022   28.3334 N   0  0  0  0  0  0  0  0  0  0  0  0
    9.1456  -15.7866   28.8321 N   0  0  0  0  0  0  0  0  0  0  0  0
    9.3976  -16.4493   27.5282 C   0  0  0  0  0  0  0  0  0  0  0  0
   10.7404  -17.0696   27.5131 C   0  0  0  0  0  0  0  0  0  0  0  0
   11.2551  -17.7731   26.3551 C   0  0  0  0  0  0  0  0  0  0  0  0
   12.6013  -18.3784   26.2843 C   0  0  2  0  0  0  0  0  0  0  0  0
   12.6174  -19.0291   24.9093 N   0  0  0  0  0  0  0  0  0  0  0  0
   12.6965  -19.5652   27.1869 C   0  0  0  0  0  0  0  0  0  0  0  0
   13.3230  -19.6383   28.3973 O   0  0  0  0  0  0  0  0  0  0  0  0
   12.1348  -20.6457   26.7927 O   0  0  0  0  0  0  0  0  0  0  0  0
  2  1  1  0
  3  2  2  0
  4  3  1  0
  5 11  1  0
  5  4  2  0
  6  5  1  0
  7  6  1  0
  7  8  1  1
  9  7  1  0
  9 13  1  0
 10  9  2  0
 11 12  2  0
 12  2  1  0
 14 15  1  6
 14 13  1  0
 16 17  1  0
 16 15  1  0
 17 21  1  0
 18 17  2  0
 19 14  1  0
 20 19  2  0
 23 24  2  0
 23 22  1  0
 25 23  1  0
 26 25  1  0
 26 27  1  0
 27 28  1  0
 29 28  1  1
 29 30  1  0
 30 19  1  0
 31 32  1  0
 31 29  1  0
 33 31  2  0
M  END
$$$$
