QIM.pdb
     RDKit          3D

 26 25  0  0  1  0  0  0  0  0999 V2000
   28.7799  -21.9565  -18.8496 N   0  0  0  0  0  0  0  0  0  0  0  0
   29.4756  -20.7565  -18.4964 C   0  0  0  0  0  0  0  0  0  0  0  0
   30.0610  -20.1473  -19.4198 O   0  0  0  0  0  0  0  0  0  0  0  0
   29.4798  -20.2837  -17.0757 C   0  0  0  0  0  0  0  0  0  0  0  0
   28.6495  -21.2395  -16.2466 C   0  0  0  0  0  0  0  0  0  0  0  0
   27.2088  -20.7916  -16.1628 C   0  0  2  0  0  0  0  0  0  0  0  0
   27.1489  -19.3551  -16.0059 N   0  0  0  0  0  0  0  0  0  0  0  0
   26.5021  -21.4148  -15.0162 C   0  0  0  0  0  0  0  0  0  0  0  0
   26.5218  -22.6875  -14.9203 O   0  0  0  0  0  0  0  0  0  0  0  0
   25.7523  -20.8619   -9.2229 C   0  0  0  0  0  0  0  0  0  0  0  0
   25.0201  -21.2743  -10.4679 C   0  0  0  0  0  0  0  0  0  0  0  0
   25.6803  -20.9261  -11.7357 C   0  0  2  0  0  0  0  0  0  0  0  0
   25.8275  -19.3971  -11.7621 C   0  0  0  0  0  0  0  0  0  0  0  0
   25.0258  -21.3078  -13.0158 C   0  0  2  0  0  0  0  0  0  0  0  0
   25.8286  -20.6313  -14.0593 N   0  0  0  0  0  0  0  0  0  0  0  0
   23.6276  -20.7865  -13.1081 C   0  0  0  0  0  0  0  0  0  0  0  0
   23.4299  -19.6956  -13.7541 O   0  0  0  0  0  0  0  0  0  0  0  0
   21.5869  -21.1568  -17.7227 C   0  0  0  0  0  0  0  0  0  0  0  0
   20.0704  -21.8965  -17.0792 S   0  0  0  0  0  0  0  0  0  0  0  0
   19.9150  -21.6480  -15.3055 C   0  0  0  0  0  0  0  0  0  0  0  0
   21.2450  -21.8656  -14.5909 C   0  0  0  0  0  0  0  0  0  0  0  0
   21.2006  -21.2976  -13.1888 C   0  0  2  0  0  0  0  0  0  0  0  0
   22.5002  -21.4080  -12.5373 N   0  0  0  0  0  0  0  0  0  0  0  0
   20.1947  -21.9704  -12.3609 C   0  0  0  0  0  0  0  0  0  0  0  0
   20.4728  -23.0437  -11.7622 O   0  0  0  0  0  0  0  0  0  0  0  0
   18.9129  -21.4696  -12.1984 O   0  0  0  0  0  0  0  0  0  0  0  0
  2  1  1  0
  3  2  2  0
  4  2  1  0
  5  4  1  0
  6  5  1  0
  6  7  1  1
  8  6  1  0
  9  8  2  0
 11 10  1  0
 12 14  1  0
 12 11  1  0
 12 13  1  6
 14 15  1  6
 15  8  1  0
 16 17  2  0
 16 14  1  0
 18 19  1  0
 20 19  1  0
 20 21  1  0
 22 21  1  6
 22 23  1  0
 23 16  1  0
 24 22  1  0
 25 24  2  0
 26 24  1  0
M  END
$$$$
