QIM.pdb
     RDKit          3D

 26 25  0  0  1  0  0  0  0  0999 V2000
   24.6821  -10.7823  -19.3967 N   0  0  0  0  0  0  0  0  0  0  0  0
   23.9925  -11.4962  -20.4279 C   0  0  0  0  0  0  0  0  0  0  0  0
   24.6961  -12.1164  -21.2567 O   0  0  0  0  0  0  0  0  0  0  0  0
   22.4962  -11.4781  -20.4794 C   0  0  0  0  0  0  0  0  0  0  0  0
   21.9874  -10.5487  -19.3988 C   0  0  0  0  0  0  0  0  0  0  0  0
   21.6720  -11.2998  -18.1262 C   0  0  2  0  0  0  0  0  0  0  0  0
   20.7693  -12.3931  -18.4115 N   0  0  0  0  0  0  0  0  0  0  0  0
   21.0360  -10.4241  -17.1108 C   0  0  0  0  0  0  0  0  0  0  0  0
   19.7673  -10.2878  -17.1472 O   0  0  0  0  0  0  0  0  0  0  0  0
   19.8644   -9.3291  -11.8343 C   0  0  0  0  0  0  0  0  0  0  0  0
   21.0461   -8.8122  -12.6042 C   0  0  0  0  0  0  0  0  0  0  0  0
   21.3690   -9.5466  -13.8374 C   0  0  2  0  0  0  0  0  0  0  0  0
   22.8713   -9.8648  -13.7923 C   0  0  0  0  0  0  0  0  0  0  0  0
   21.1165   -8.8938  -15.1500 C   0  0  2  0  0  0  0  0  0  0  0  0
   21.8033   -9.7607  -16.1338 N   0  0  0  0  0  0  0  0  0  0  0  0
   21.7365   -7.5357  -15.2295 C   0  0  0  0  0  0  0  0  0  0  0  0
   23.0169   -7.4551  -15.2485 O   0  0  0  0  0  0  0  0  0  0  0  0
   21.7264    0.1250  -17.0902 C   0  0  0  0  0  0  0  0  0  0  0  0
   20.8558   -1.4571  -17.0999 S   0  0  0  0  0  0  0  0  0  0  0  0
   21.6976   -2.6807  -16.0868 C   0  0  0  0  0  0  0  0  0  0  0  0
   21.0225   -4.0454  -16.1803 C   0  0  0  0  0  0  0  0  0  0  0  0
   21.7287   -5.0552  -15.3015 C   0  0  2  0  0  0  0  0  0  0  0  0
   21.0161   -6.3271  -15.2882 N   0  0  0  0  0  0  0  0  0  0  0  0
   21.8685   -4.5736  -13.9237 C   0  0  0  0  0  0  0  0  0  0  0  0
   20.9939   -4.8470  -13.0586 O   0  0  0  0  0  0  0  0  0  0  0  0
   22.9481   -3.8089  -13.5116 O   0  0  0  0  0  0  0  0  0  0  0  0
  2  1  1  0
  3  2  2  0
  4  2  1  0
  5  4  1  0
  6  5  1  0
  6  7  1  6
  8  6  1  0
  9  8  2  0
 11 10  1  0
 12 14  1  0
 12 11  1  0
 12 13  1  1
 14 15  1  6
 15  8  1  0
 16 17  2  0
 16 14  1  0
 18 19  1  0
 20 19  1  0
 20 21  1  0
 22 21  1  6
 22 23  1  0
 23 16  1  0
 24 22  1  0
 25 24  2  0
 26 24  1  0
M  END
$$$$
