QIM.pdb
     RDKit          3D

 26 25  0  0  1  0  0  0  0  0999 V2000
   27.5133  -17.0937  -15.5400 N   0  0  0  0  0  0  0  0  0  0  0  0
   28.0458  -17.3330  -16.8468 C   0  0  0  0  0  0  0  0  0  0  0  0
   28.8772  -16.5044  -17.2812 O   0  0  0  0  0  0  0  0  0  0  0  0
   27.6034  -18.5314  -17.6279 C   0  0  0  0  0  0  0  0  0  0  0  0
   26.7027  -19.3737  -16.7506 C   0  0  0  0  0  0  0  0  0  0  0  0
   27.4997  -20.3400  -15.9054 C   0  0  2  0  0  0  0  0  0  0  0  0
   27.9769  -21.4319  -16.7249 N   0  0  0  0  0  0  0  0  0  0  0  0
   26.6875  -20.9077  -14.8006 C   0  0  0  0  0  0  0  0  0  0  0  0
   26.0308  -21.9783  -15.0287 O   0  0  0  0  0  0  0  0  0  0  0  0
   28.8526  -21.0440  -10.0490 C   0  0  0  0  0  0  0  0  0  0  0  0
   27.9552  -21.4562  -11.1808 C   0  0  0  0  0  0  0  0  0  0  0  0
   26.6546  -20.7711  -11.2397 C   0  0  2  0  0  0  0  0  0  0  0  0
   25.8068  -21.3130  -10.0787 C   0  0  0  0  0  0  0  0  0  0  0  0
   25.8246  -20.9081  -12.4665 C   0  0  2  0  0  0  0  0  0  0  0  0
   26.6389  -20.2890  -13.5365 N   0  0  0  0  0  0  0  0  0  0  0  0
   24.5453  -20.1410  -12.3668 C   0  0  0  0  0  0  0  0  0  0  0  0
   24.5665  -18.8894  -12.6489 O   0  0  0  0  0  0  0  0  0  0  0  0
   21.8878  -22.2869  -17.0247 C   0  0  0  0  0  0  0  0  0  0  0  0
   21.1372  -20.6743  -16.7128 S   0  0  0  0  0  0  0  0  0  0  0  0
   20.9608  -20.3572  -14.9520 C   0  0  0  0  0  0  0  0  0  0  0  0
   22.2449  -20.6781  -14.1938 C   0  0  0  0  0  0  0  0  0  0  0  0
   22.0982  -20.3462  -12.7244 C   0  0  2  0  0  0  0  0  0  0  0  0
   23.3068  -20.6923  -11.9859 N   0  0  0  0  0  0  0  0  0  0  0  0
   20.9566  -21.0410  -12.1212 C   0  0  0  0  0  0  0  0  0  0  0  0
   21.0403  -22.2596  -11.8112 O   0  0  0  0  0  0  0  0  0  0  0  0
   19.7520  -20.4051  -11.8664 O   0  0  0  0  0  0  0  0  0  0  0  0
  2  1  1  0
  3  2  2  0
  4  2  1  0
  5  4  1  0
  6  5  1  0
  6  7  1  6
  8  6  1  0
  9  8  2  0
 11 10  1  0
 12 14  1  0
 12 11  1  0
 12 13  1  1
 14 15  1  6
 15  8  1  0
 16 17  2  0
 16 14  1  0
 18 19  1  0
 20 19  1  0
 20 21  1  0
 22 21  1  6
 22 23  1  0
 23 16  1  0
 24 22  1  0
 25 24  2  0
 26 24  1  0
M  END
$$$$
