QIM.pdb
     RDKit          3D

 26 25  0  0  1  0  0  0  0  0999 V2000
   19.2395  -18.2628  -14.6984 N   0  0  0  0  0  0  0  0  0  0  0  0
   20.1904  -18.2561  -15.7681 C   0  0  0  0  0  0  0  0  0  0  0  0
   20.6804  -17.1488  -16.0849 O   0  0  0  0  0  0  0  0  0  0  0  0
   20.5567  -19.5365  -16.4526 C   0  0  0  0  0  0  0  0  0  0  0  0
   21.8244  -20.0739  -15.8244 C   0  0  0  0  0  0  0  0  0  0  0  0
   23.0548  -19.4461  -16.4369 C   0  0  2  0  0  0  0  0  0  0  0  0
   23.0215  -19.6001  -17.8745 N   0  0  0  0  0  0  0  0  0  0  0  0
   24.3031  -20.0690  -15.9310 C   0  0  0  0  0  0  0  0  0  0  0  0
   24.6160  -21.2261  -16.3699 O   0  0  0  0  0  0  0  0  0  0  0  0
   28.8180  -17.3181  -15.7398 C   0  0  0  0  0  0  0  0  0  0  0  0
   27.8119  -18.4303  -15.8246 C   0  0  0  0  0  0  0  0  0  0  0  0
   27.3875  -19.0000  -14.5363 C   0  0  2  0  0  0  0  0  0  0  0  0
   28.6394  -19.5916  -13.8708 C   0  0  0  0  0  0  0  0  0  0  0  0
   26.3594  -20.0751  -14.5294 C   0  0  2  0  0  0  0  0  0  0  0  0
   25.1224  -19.4087  -14.9950 N   0  0  0  0  0  0  0  0  0  0  0  0
   26.1037  -20.5978  -13.1522 C   0  0  0  0  0  0  0  0  0  0  0  0
   27.0071  -21.3252  -12.6035 O   0  0  0  0  0  0  0  0  0  0  0  0
   28.5482  -20.7183   -8.1836 C   0  0  0  0  0  0  0  0  0  0  0  0
   26.8913  -20.3154   -7.5889 S   0  0  0  0  0  0  0  0  0  0  0  0
   25.6224  -20.9090   -8.7157 C   0  0  0  0  0  0  0  0  0  0  0  0
   25.8876  -20.4541  -10.1474 C   0  0  0  0  0  0  0  0  0  0  0  0
   24.7888  -20.9286  -11.0738 C   0  0  2  0  0  0  0  0  0  0  0  0
   24.9375  -20.3486  -12.4032 N   0  0  0  0  0  0  0  0  0  0  0  0
   23.4584  -20.5951  -10.5553 C   0  0  0  0  0  0  0  0  0  0  0  0
   22.7236  -19.7705  -11.1620 O   0  0  0  0  0  0  0  0  0  0  0  0
   22.9522  -21.1590   -9.3952 O   0  0  0  0  0  0  0  0  0  0  0  0
  2  1  1  0
  3  2  2  0
  4  2  1  0
  5  4  1  0
  6  5  1  0
  6  7  1  6
  8  6  1  0
  9  8  2  0
 11 10  1  0
 12 14  1  0
 12 11  1  0
 12 13  1  6
 14 15  1  1
 15  8  1  0
 16 17  2  0
 16 14  1  0
 18 19  1  0
 20 19  1  0
 20 21  1  0
 22 21  1  1
 22 23  1  0
 23 16  1  0
 24 22  1  0
 25 24  2  0
 26 24  1  0
M  END
$$$$
