QIM.pdb
     RDKit          3D

 26 25  0  0  1  0  0  0  0  0999 V2000
   28.8987  -22.7488  -15.5698 N   0  0  0  0  0  0  0  0  0  0  0  0
   29.2613  -22.0499  -16.7651 C   0  0  0  0  0  0  0  0  0  0  0  0
   29.8202  -22.7165  -17.6649 O   0  0  0  0  0  0  0  0  0  0  0  0
   28.9686  -20.5873  -16.8954 C   0  0  0  0  0  0  0  0  0  0  0  0
   28.3843  -20.0938  -15.5895 C   0  0  0  0  0  0  0  0  0  0  0  0
   26.9209  -20.4501  -15.4681 C   0  0  2  0  0  0  0  0  0  0  0  0
   26.1964  -19.9499  -16.6155 N   0  0  0  0  0  0  0  0  0  0  0  0
   26.3111  -19.8726  -14.2446 C   0  0  0  0  0  0  0  0  0  0  0  0
   26.5144  -18.6363  -14.0000 O   0  0  0  0  0  0  0  0  0  0  0  0
   21.1912  -20.5812  -11.2293 C   0  0  0  0  0  0  0  0  0  0  0  0
   22.5802  -20.0126  -11.1667 C   0  0  0  0  0  0  0  0  0  0  0  0
   23.4830  -20.4255  -12.2525 C   0  0  2  0  0  0  0  0  0  0  0  0
   23.4670  -21.9612  -12.2927 C   0  0  0  0  0  0  0  0  0  0  0  0
   24.9133  -20.0212  -12.1911 C   0  0  2  0  0  0  0  0  0  0  0  0
   25.5304  -20.6592  -13.3757 N   0  0  0  0  0  0  0  0  0  0  0  0
   25.5970  -20.5606  -10.9759 C   0  0  0  0  0  0  0  0  0  0  0  0
   25.7994  -21.8258  -10.9068 O   0  0  0  0  0  0  0  0  0  0  0  0
   29.6966  -19.8388   -4.2366 C   0  0  0  0  0  0  0  0  0  0  0  0
   29.0050  -19.0142   -5.6868 S   0  0  0  0  0  0  0  0  0  0  0  0
   27.8925  -20.0962   -6.5943 C   0  0  0  0  0  0  0  0  0  0  0  0
   27.4126  -19.4475   -7.8888 C   0  0  0  0  0  0  0  0  0  0  0  0
   26.5991  -20.4248   -8.7097 C   0  0  2  0  0  0  0  0  0  0  0  0
   26.0422  -19.7790   -9.8924 N   0  0  0  0  0  0  0  0  0  0  0  0
   25.5058  -21.0127   -7.9293 C   0  0  0  0  0  0  0  0  0  0  0  0
   24.3414  -20.5362   -7.9997 O   0  0  0  0  0  0  0  0  0  0  0  0
   25.6944  -22.1004   -7.0918 O   0  0  0  0  0  0  0  0  0  0  0  0
  2  1  1  0
  3  2  2  0
  4  2  1  0
  5  4  1  0
  6  5  1  0
  6  7  1  6
  8  6  1  0
  9  8  2  0
 11 10  1  0
 12 14  1  0
 12 11  1  0
 12 13  1  1
 14 15  1  6
 15  8  1  0
 16 17  2  0
 16 14  1  0
 18 19  1  0
 20 19  1  0
 20 21  1  0
 22 21  1  1
 22 23  1  0
 23 16  1  0
 24 22  1  0
 25 24  2  0
 26 24  1  0
M  END
$$$$
