QIM.pdb
     RDKit          3D

 26 25  0  0  1  0  0  0  0  0999 V2000
   14.9658   -7.3691  -16.1522 N   0  0  0  0  0  0  0  0  0  0  0  0
   14.5897   -8.6455  -16.6792 C   0  0  0  0  0  0  0  0  0  0  0  0
   14.0002   -8.6523  -17.7833 O   0  0  0  0  0  0  0  0  0  0  0  0
   14.9047   -9.8939  -15.9148 C   0  0  0  0  0  0  0  0  0  0  0  0
   15.4682   -9.5040  -14.5653 C   0  0  0  0  0  0  0  0  0  0  0  0
   16.9653   -9.7019  -14.5126 C   0  0  2  0  0  0  0  0  0  0  0  0
   17.2782  -11.1113  -14.5980 N   0  0  0  0  0  0  0  0  0  0  0  0
   17.5490   -9.1709  -13.2558 C   0  0  0  0  0  0  0  0  0  0  0  0
   17.6941   -9.9757  -12.2756 O   0  0  0  0  0  0  0  0  0  0  0  0
   22.0232   -6.4119  -13.0094 C   0  0  0  0  0  0  0  0  0  0  0  0
   20.8333   -7.2693  -12.6848 C   0  0  0  0  0  0  0  0  0  0  0  0
   19.6547   -6.5505  -12.1762 C   0  0  2  0  0  0  0  0  0  0  0  0
   20.0852   -5.8342  -10.8870 C   0  0  0  0  0  0  0  0  0  0  0  0
   18.4306   -7.3253  -11.8382 C   0  0  2  0  0  0  0  0  0  0  0  0
   17.9336   -7.8209  -13.1415 N   0  0  0  0  0  0  0  0  0  0  0  0
   17.3654   -6.4603  -11.2444 C   0  0  0  0  0  0  0  0  0  0  0  0
   16.8230   -5.5692  -11.9914 O   0  0  0  0  0  0  0  0  0  0  0  0
   12.7923   -8.0785   -6.6845 C   0  0  0  0  0  0  0  0  0  0  0  0
   13.0820   -6.3189   -6.3994 S   0  0  0  0  0  0  0  0  0  0  0  0
   13.9240   -5.5539   -7.7914 C   0  0  0  0  0  0  0  0  0  0  0  0
   15.0695   -6.4236   -8.2997 C   0  0  0  0  0  0  0  0  0  0  0  0
   15.7406   -5.7827   -9.4954 C   0  0  2  0  0  0  0  0  0  0  0  0
   16.9059   -6.5512   -9.9163 N   0  0  0  0  0  0  0  0  0  0  0  0
   16.1558   -4.4053   -9.2126 C   0  0  0  0  0  0  0  0  0  0  0  0
   15.3357   -3.4547   -9.3214 O   0  0  0  0  0  0  0  0  0  0  0  0
   17.4456   -4.0857   -8.8192 O   0  0  0  0  0  0  0  0  0  0  0  0
  2  1  1  0
  3  2  2  0
  4  2  1  0
  5  4  1  0
  6  5  1  0
  6  7  1  1
  8  6  1  0
  9  8  2  0
 11 10  1  0
 12 14  1  0
 12 11  1  0
 12 13  1  1
 14 15  1  6
 15  8  1  0
 16 17  2  0
 16 14  1  0
 18 19  1  0
 20 19  1  0
 20 21  1  0
 22 21  1  1
 22 23  1  0
 23 16  1  0
 24 22  1  0
 25 24  2  0
 26 24  1  0
M  END
$$$$
