QIM.pdb
     RDKit          3D

 26 25  0  0  1  0  0  0  0  0999 V2000
   20.3496  -12.4142  -22.2857 N   0  0  0  0  0  0  0  0  0  0  0  0
   19.9649  -11.5272  -21.2303 C   0  0  0  0  0  0  0  0  0  0  0  0
   20.4151  -10.3603  -21.2772 O   0  0  0  0  0  0  0  0  0  0  0  0
   19.0630  -12.0106  -20.1371 C   0  0  0  0  0  0  0  0  0  0  0  0
   19.5511  -11.4421  -18.8222 C   0  0  0  0  0  0  0  0  0  0  0  0
   20.6121  -12.3195  -18.1996 C   0  0  2  0  0  0  0  0  0  0  0  0
   20.0176  -13.5509  -17.7287 N   0  0  0  0  0  0  0  0  0  0  0  0
   21.2756  -11.6540  -17.0510 C   0  0  0  0  0  0  0  0  0  0  0  0
   20.7321  -11.7610  -15.9009 O   0  0  0  0  0  0  0  0  0  0  0  0
   26.8696  -10.9433  -15.1928 C   0  0  0  0  0  0  0  0  0  0  0  0
   25.4867  -10.3680  -15.0796 C   0  0  0  0  0  0  0  0  0  0  0  0
   24.5141  -10.8576  -16.0689 C   0  0  2  0  0  0  0  0  0  0  0  0
   25.0683  -10.5061  -17.4579 C   0  0  0  0  0  0  0  0  0  0  0  0
   23.1215  -10.3361  -16.0272 C   0  0  2  0  0  0  0  0  0  0  0  0
   22.4689  -10.9251  -17.2181 N   0  0  0  0  0  0  0  0  0  0  0  0
   23.0751   -8.8488  -16.1719 C   0  0  0  0  0  0  0  0  0  0  0  0
   23.4248   -8.3388  -17.2962 O   0  0  0  0  0  0  0  0  0  0  0  0
   19.7129   -2.8975  -18.4796 C   0  0  0  0  0  0  0  0  0  0  0  0
   20.0805   -4.6465  -18.2209 S   0  0  0  0  0  0  0  0  0  0  0  0
   21.2560   -4.8835  -16.8814 C   0  0  0  0  0  0  0  0  0  0  0  0
   21.5191   -6.3636  -16.6226 C   0  0  0  0  0  0  0  0  0  0  0  0
   22.4816   -6.5441  -15.4686 C   0  0  2  0  0  0  0  0  0  0  0  0
   22.6707   -7.9565  -15.1602 N   0  0  0  0  0  0  0  0  0  0  0  0
   22.0199   -5.8512  -14.2617 C   0  0  0  0  0  0  0  0  0  0  0  0
   22.0001   -4.5921  -14.2149 O   0  0  0  0  0  0  0  0  0  0  0  0
   21.5906   -6.5327  -13.1341 O   0  0  0  0  0  0  0  0  0  0  0  0
  2  1  1  0
  3  2  2  0
  4  2  1  0
  5  4  1  0
  6  5  1  0
  6  7  1  1
  8  6  1  0
  9  8  2  0
 11 10  1  0
 12 14  1  0
 12 11  1  0
 12 13  1  6
 14 15  1  6
 15  8  1  0
 16 17  2  0
 16 14  1  0
 18 19  1  0
 20 19  1  0
 20 21  1  0
 22 21  1  6
 22 23  1  0
 23 16  1  0
 24 22  1  0
 25 24  2  0
 26 24  1  0
M  END
$$$$
