CDH.pdb
     RDKit          3D

 25 25  0  0  1  0  0  0  0  0999 V2000
    9.1799  -16.2757   14.8931 N   0  0  0  0  0  0  0  0  0  0  0  0
    9.9841  -15.2098   15.4423 C   0  0  1  0  0  0  0  0  0  0  0  0
    9.0814  -13.9890   15.6356 C   0  0  0  0  0  0  0  0  0  0  0  0
    7.5934  -14.2187   14.6479 S   0  0  0  0  0  0  0  0  0  0  0  0
   10.5993  -15.6570   16.7103 C   0  0  0  0  0  0  0  0  0  0  0  0
   10.0248  -16.5674   17.3971 O   0  0  0  0  0  0  0  0  0  0  0  0
   11.8192  -15.1199   17.2162 N   0  0  0  0  0  0  0  0  0  0  0  0
   12.3430  -15.6192   18.4473 C   0  0  1  0  0  0  0  0  0  0  0  0
   13.8625  -15.3715   18.3975 C   0  0  0  0  0  0  0  0  0  0  0  0
   14.4491  -16.1899   19.4922 C   0  0  0  0  0  0  0  0  0  0  0  0
   15.3765  -15.7575   20.2070 O   0  0  0  0  0  0  0  0  0  0  0  0
   11.8303  -14.9447   19.6434 C   0  0  0  0  0  0  0  0  0  0  0  0
   12.0327  -13.7366   19.9235 O   0  0  0  0  0  0  0  0  0  0  0  0
   13.9662  -17.4698   19.7400 O   0  0  0  0  0  0  0  0  0  0  0  0
   11.0401  -15.7145   20.5632 N   0  0  0  0  0  0  0  0  0  0  0  0
   10.5086  -15.1086   21.7835 C   0  0  1  0  0  0  0  0  0  0  0  0
    9.0141  -15.1016   21.6941 C   0  0  0  0  0  0  0  0  0  0  0  0
    8.4702  -14.3114   20.5857 C   0  0  0  0  0  0  0  0  0  0  0  0
    8.3376  -12.9421   20.5844 C   0  0  0  0  0  0  0  0  0  0  0  0
    7.8011  -12.6147   19.4000 N   0  0  0  0  0  0  0  0  0  0  0  0
    7.6031  -13.7266   18.6830 C   0  0  0  0  0  0  0  0  0  0  0  0
    8.0144  -14.7710   19.4111 N   0  0  0  0  0  0  0  0  0  0  0  0
   10.9377  -15.8951   22.9798 C   0  0  0  0  0  0  0  0  0  0  0  0
   10.5913  -15.5752   24.1461 O   0  0  0  0  0  0  0  0  0  0  0  0
   11.7404  -17.0179   22.8515 O   0  0  0  0  0  0  0  0  0  0  0  0
  2  5  1  0
  2  1  1  1
  3  2  1  0
  4  3  1  0
  5  6  2  0
  7  8  1  0
  7  5  1  0
  9 10  1  0
  8  9  1  6
 10 14  1  0
 11 10  2  0
 12 15  1  0
 12  8  1  0
 13 12  2  0
 16 15  1  0
 16 17  1  6
 18 17  1  0
 18 19  2  0
 20 19  1  0
 21 22  2  0
 21 20  1  0
 22 18  1  0
 23 16  1  0
 24 23  2  0
 25 23  1  0
M  END
$$$$
