CDH.pdb
     RDKit          3D

 25 25  0  0  1  0  0  0  0  0999 V2000
    8.0582  -14.7115   17.6311 N   0  0  0  0  0  0  0  0  0  0  0  0
    8.6019  -14.1437   18.8422 C   0  0  1  0  0  0  0  0  0  0  0  0
    7.8862  -12.8164   19.1040 C   0  0  0  0  0  0  0  0  0  0  0  0
    8.4711  -12.1537   20.6728 S   0  0  0  0  0  0  0  0  0  0  0  0
    8.4322  -15.1002   19.9569 C   0  0  0  0  0  0  0  0  0  0  0  0
    7.6505  -16.0992   19.8100 O   0  0  0  0  0  0  0  0  0  0  0  0
    9.1050  -14.9673   21.2067 N   0  0  0  0  0  0  0  0  0  0  0  0
    9.3943  -16.1386   21.9706 C   0  0  1  0  0  0  0  0  0  0  0  0
   10.2324  -17.0506   21.0549 C   0  0  0  0  0  0  0  0  0  0  0  0
   10.4380  -18.3153   21.8101 C   0  0  0  0  0  0  0  0  0  0  0  0
    9.4916  -18.9007   22.3753 O   0  0  0  0  0  0  0  0  0  0  0  0
   10.1825  -15.8943   23.1820 C   0  0  0  0  0  0  0  0  0  0  0  0
   11.3075  -16.4029   23.4162 O   0  0  0  0  0  0  0  0  0  0  0  0
   11.7079  -18.8738   21.9001 O   0  0  0  0  0  0  0  0  0  0  0  0
    9.6351  -15.0118   24.1743 N   0  0  0  0  0  0  0  0  0  0  0  0
    9.4580  -15.4562   25.5563 C   0  0  1  0  0  0  0  0  0  0  0  0
    7.9911  -15.5875   25.8250 C   0  0  0  0  0  0  0  0  0  0  0  0
    7.2503  -14.3225   25.8132 C   0  0  0  0  0  0  0  0  0  0  0  0
    7.8096  -13.0834   25.6030 C   0  0  0  0  0  0  0  0  0  0  0  0
    6.8056  -12.1976   25.6745 N   0  0  0  0  0  0  0  0  0  0  0  0
    5.6615  -12.8466   25.9188 C   0  0  0  0  0  0  0  0  0  0  0  0
    5.9336  -14.1537   26.0042 N   0  0  0  0  0  0  0  0  0  0  0  0
   10.1281  -16.7760   25.7641 C   0  0  0  0  0  0  0  0  0  0  0  0
   10.3633  -17.5607   24.8094 O   0  0  0  0  0  0  0  0  0  0  0  0
   10.5210  -17.1916   27.0268 O   0  0  0  0  0  0  0  0  0  0  0  0
  2  5  1  0
  2  1  1  6
  3  2  1  0
  4  3  1  0
  5  6  2  0
  7  8  1  0
  7  5  1  0
  9 10  1  0
  8  9  1  6
 10 14  1  0
 11 10  2  0
 12 15  1  0
 12  8  1  0
 13 12  2  0
 16 15  1  0
 16 17  1  6
 18 17  1  0
 18 19  2  0
 20 19  1  0
 21 22  2  0
 21 20  1  0
 22 18  1  0
 23 16  1  0
 24 23  2  0
 25 23  1  0
M  END
$$$$
