CDH.pdb
     RDKit          3D

 25 25  0  0  1  0  0  0  0  0999 V2000
    8.3171  -14.2695   16.7295 N   0  0  0  0  0  0  0  0  0  0  0  0
    9.3606  -13.5359   17.4060 C   0  0  1  0  0  0  0  0  0  0  0  0
    8.6967  -12.4736   18.2854 C   0  0  0  0  0  0  0  0  0  0  0  0
    7.7940  -13.3070   19.6019 S   0  0  0  0  0  0  0  0  0  0  0  0
   10.1939  -14.4713   18.1914 C   0  0  0  0  0  0  0  0  0  0  0  0
    9.8347  -15.6923   18.2954 O   0  0  0  0  0  0  0  0  0  0  0  0
   11.3966  -14.0793   18.8488 N   0  0  0  0  0  0  0  0  0  0  0  0
   12.1857  -15.0705   19.5077 C   0  0  1  0  0  0  0  0  0  0  0  0
   13.6554  -14.6926   19.2434 C   0  0  0  0  0  0  0  0  0  0  0  0
   14.4572  -15.9005   19.5756 C   0  0  0  0  0  0  0  0  0  0  0  0
   15.0759  -15.9980   20.6552 O   0  0  0  0  0  0  0  0  0  0  0  0
   12.0039  -15.1240   20.9611 C   0  0  0  0  0  0  0  0  0  0  0  0
   12.4723  -14.2845   21.7704 O   0  0  0  0  0  0  0  0  0  0  0  0
   14.5315  -16.9562   18.6742 O   0  0  0  0  0  0  0  0  0  0  0  0
   11.2368  -16.2104   21.5037 N   0  0  0  0  0  0  0  0  0  0  0  0
   11.1030  -16.3843   22.9496 C   0  0  1  0  0  0  0  0  0  0  0  0
    9.6802  -16.7384   23.2522 C   0  0  0  0  0  0  0  0  0  0  0  0
    8.7009  -15.7135   22.8786 C   0  0  0  0  0  0  0  0  0  0  0  0
    8.4148  -14.5896   23.6185 C   0  0  0  0  0  0  0  0  0  0  0  0
    7.4713  -13.9200   22.9407 N   0  0  0  0  0  0  0  0  0  0  0  0
    7.1734  -14.5896   21.8214 C   0  0  0  0  0  0  0  0  0  0  0  0
    7.9292  -15.6929   21.7819 N   0  0  0  0  0  0  0  0  0  0  0  0
   12.0056  -17.4772   23.4239 C   0  0  0  0  0  0  0  0  0  0  0  0
   12.6688  -18.1869   22.6244 O   0  0  0  0  0  0  0  0  0  0  0  0
   12.1502  -17.7547   24.7743 O   0  0  0  0  0  0  0  0  0  0  0  0
  2  5  1  0
  2  1  1  1
  3  2  1  0
  4  3  1  0
  5  6  2  0
  7  8  1  0
  7  5  1  0
  9 10  1  0
  8  9  1  1
 10 14  1  0
 11 10  2  0
 12 15  1  0
 12  8  1  0
 13 12  2  0
 16 15  1  0
 16 17  1  6
 18 17  1  0
 18 19  2  0
 20 19  1  0
 21 22  2  0
 21 20  1  0
 22 18  1  0
 23 16  1  0
 24 23  2  0
 25 23  1  0
M  END
$$$$
