CDH.pdb
     RDKit          3D

 25 25  0  0  1  0  0  0  0  0999 V2000
   10.2964  -13.5574   18.5972 N   0  0  0  0  0  0  0  0  0  0  0  0
    9.0474  -13.5208   19.3206 C   0  0  1  0  0  0  0  0  0  0  0  0
    7.9187  -13.8122   18.3289 C   0  0  0  0  0  0  0  0  0  0  0  0
    6.3450  -13.5444   19.1621 S   0  0  0  0  0  0  0  0  0  0  0  0
    9.0872  -14.5012   20.4267 C   0  0  0  0  0  0  0  0  0  0  0  0
    8.0910  -14.5886   21.2210 O   0  0  0  0  0  0  0  0  0  0  0  0
   10.1939  -15.3694   20.6587 N   0  0  0  0  0  0  0  0  0  0  0  0
   10.1237  -16.3190   21.7229 C   0  0  1  0  0  0  0  0  0  0  0  0
   11.4360  -17.1236   21.6657 C   0  0  0  0  0  0  0  0  0  0  0  0
   11.1909  -18.3668   22.4445 C   0  0  0  0  0  0  0  0  0  0  0  0
   10.5803  -18.3469   23.5330 O   0  0  0  0  0  0  0  0  0  0  0  0
   10.0334  -15.7265   23.0605 C   0  0  0  0  0  0  0  0  0  0  0  0
   10.7753  -14.8052   23.4846 O   0  0  0  0  0  0  0  0  0  0  0  0
   11.6458  -19.5898   21.9649 O   0  0  0  0  0  0  0  0  0  0  0  0
    9.0276  -16.2308   23.9533 N   0  0  0  0  0  0  0  0  0  0  0  0
    8.7698  -15.5784   25.2366 C   0  0  1  0  0  0  0  0  0  0  0  0
    7.3127  -15.2424   25.3102 C   0  0  0  0  0  0  0  0  0  0  0  0
    7.0139  -13.9404   25.9140 C   0  0  0  0  0  0  0  0  0  0  0  0
    6.7382  -12.7902   25.2113 C   0  0  0  0  0  0  0  0  0  0  0  0
    6.5272  -11.8305   26.1236 N   0  0  0  0  0  0  0  0  0  0  0  0
    6.6628  -12.3495   27.3492 C   0  0  0  0  0  0  0  0  0  0  0  0
    6.9620  -13.6473   27.2216 N   0  0  0  0  0  0  0  0  0  0  0  0
    9.1333  -16.4918   26.3624 C   0  0  0  0  0  0  0  0  0  0  0  0
    9.1028  -16.1145   27.5621 O   0  0  0  0  0  0  0  0  0  0  0  0
    9.5210  -17.8019   26.1285 O   0  0  0  0  0  0  0  0  0  0  0  0
  2  5  1  0
  2  1  1  6
  3  2  1  0
  4  3  1  0
  5  6  2  0
  7  8  1  0
  7  5  1  0
  9 10  1  0
  8  9  1  1
 10 14  1  0
 11 10  2  0
 12 15  1  0
 12  8  1  0
 13 12  2  0
 16 15  1  0
 16 17  1  1
 18 17  1  0
 18 19  2  0
 20 19  1  0
 21 22  2  0
 21 20  1  0
 22 18  1  0
 23 16  1  0
 24 23  2  0
 25 23  1  0
M  END
$$$$
