CDH.pdb
     RDKit          3D

 25 25  0  0  1  0  0  0  0  0999 V2000
    6.9779  -15.6524   19.5346 N   0  0  0  0  0  0  0  0  0  0  0  0
    8.3195  -15.2624   19.8989 C   0  0  1  0  0  0  0  0  0  0  0  0
    8.2881  -13.7877   20.3070 C   0  0  0  0  0  0  0  0  0  0  0  0
    7.9631  -12.7971   18.8389 S   0  0  0  0  0  0  0  0  0  0  0  0
    8.8096  -16.1340   20.9881 C   0  0  0  0  0  0  0  0  0  0  0  0
    7.9738  -16.6291   21.8169 O   0  0  0  0  0  0  0  0  0  0  0  0
   10.1863  -16.4584   21.1665 N   0  0  0  0  0  0  0  0  0  0  0  0
   10.5640  -17.3340   22.2295 C   0  0  1  0  0  0  0  0  0  0  0  0
   12.0314  -17.7205   21.9647 C   0  0  0  0  0  0  0  0  0  0  0  0
   12.0280  -18.5113   20.7050 C   0  0  0  0  0  0  0  0  0  0  0  0
   11.2486  -19.4718   20.5381 O   0  0  0  0  0  0  0  0  0  0  0  0
   10.5063  -16.7295   23.5635 C   0  0  0  0  0  0  0  0  0  0  0  0
   11.0705  -15.6535   23.8846 O   0  0  0  0  0  0  0  0  0  0  0  0
   12.9071  -18.1880   19.6777 O   0  0  0  0  0  0  0  0  0  0  0  0
    9.7529  -17.4110   24.5790 N   0  0  0  0  0  0  0  0  0  0  0  0
    9.7716  -16.9451   25.9651 C   0  0  1  0  0  0  0  0  0  0  0  0
    8.3742  -16.5785   26.3581 C   0  0  0  0  0  0  0  0  0  0  0  0
    7.8914  -15.3137   25.7957 C   0  0  0  0  0  0  0  0  0  0  0  0
    8.6058  -14.5080   24.9394 C   0  0  0  0  0  0  0  0  0  0  0  0
    7.8203  -13.4566   24.6651 N   0  0  0  0  0  0  0  0  0  0  0  0
    6.6603  -13.5903   25.3179 C   0  0  0  0  0  0  0  0  0  0  0  0
    6.7027  -14.7323   26.0136 N   0  0  0  0  0  0  0  0  0  0  0  0
   10.2812  -18.0238   26.8656 C   0  0  0  0  0  0  0  0  0  0  0  0
   10.5602  -19.1728   26.4361 O   0  0  0  0  0  0  0  0  0  0  0  0
   10.4690  -17.7998   28.2206 O   0  0  0  0  0  0  0  0  0  0  0  0
  2  5  1  0
  2  1  1  1
  3  2  1  0
  4  3  1  0
  5  6  2  0
  7  8  1  0
  7  5  1  0
  9 10  1  0
  8  9  1  6
 10 14  1  0
 11 10  2  0
 12 15  1  0
 12  8  1  0
 13 12  2  0
 16 15  1  0
 16 17  1  1
 18 17  1  0
 18 19  2  0
 20 19  1  0
 21 22  2  0
 21 20  1  0
 22 18  1  0
 23 16  1  0
 24 23  2  0
 25 23  1  0
M  END
$$$$
