CDH.pdb
     RDKit          3D

 25 25  0  0  1  0  0  0  0  0999 V2000
    7.1483  -15.9209   18.0431 N   0  0  0  0  0  0  0  0  0  0  0  0
    8.1615  -15.1401   18.7128 C   0  0  1  0  0  0  0  0  0  0  0  0
    7.6023  -13.7330   18.9360 C   0  0  0  0  0  0  0  0  0  0  0  0
    8.8141  -12.7793   19.8658 S   0  0  0  0  0  0  0  0  0  0  0  0
    8.5373  -15.8005   19.9812 C   0  0  0  0  0  0  0  0  0  0  0  0
    7.6210  -16.2647   20.7399 O   0  0  0  0  0  0  0  0  0  0  0  0
    9.8883  -15.9512   20.4106 N   0  0  0  0  0  0  0  0  0  0  0  0
   10.1556  -16.5890   21.6600 C   0  0  1  0  0  0  0  0  0  0  0  0
   11.5986  -17.1203   21.5692 C   0  0  0  0  0  0  0  0  0  0  0  0
   11.7734  -18.0370   22.7273 C   0  0  0  0  0  0  0  0  0  0  0  0
   11.5104  -17.6758   23.8927 O   0  0  0  0  0  0  0  0  0  0  0  0
   10.0912  -15.6985   22.8224 C   0  0  0  0  0  0  0  0  0  0  0  0
   10.7249  -14.6187   22.9302 O   0  0  0  0  0  0  0  0  0  0  0  0
   12.2403  -19.3310   22.5265 O   0  0  0  0  0  0  0  0  0  0  0  0
    9.2455  -16.0823   23.9180 N   0  0  0  0  0  0  0  0  0  0  0  0
    8.9498  -15.1444   25.0005 C   0  0  1  0  0  0  0  0  0  0  0  0
    7.5147  -14.7328   24.8887 C   0  0  0  0  0  0  0  0  0  0  0  0
    7.1225  -13.6313   25.7729 C   0  0  0  0  0  0  0  0  0  0  0  0
    7.9577  -13.0025   26.6670 C   0  0  0  0  0  0  0  0  0  0  0  0
    7.2205  -12.0642   27.2786 N   0  0  0  0  0  0  0  0  0  0  0  0
    5.9741  -12.0970   26.7934 C   0  0  0  0  0  0  0  0  0  0  0  0
    5.9126  -13.0604   25.8671 N   0  0  0  0  0  0  0  0  0  0  0  0
    9.1853  -15.7944   26.3256 C   0  0  0  0  0  0  0  0  0  0  0  0
    9.0487  -15.1680   27.4080 O   0  0  0  0  0  0  0  0  0  0  0  0
    9.5661  -17.1242   26.4163 O   0  0  0  0  0  0  0  0  0  0  0  0
  2  5  1  0
  2  1  1  1
  3  2  1  0
  4  3  1  0
  5  6  2  0
  7  8  1  0
  7  5  1  0
  9 10  1  0
  8  9  1  6
 10 14  1  0
 11 10  2  0
 12 15  1  0
 12  8  1  0
 13 12  2  0
 16 15  1  0
 16 17  1  1
 18 17  1  0
 18 19  2  0
 20 19  1  0
 21 22  2  0
 21 20  1  0
 22 18  1  0
 23 16  1  0
 24 23  2  0
 25 23  1  0
M  END
$$$$
