CDH.pdb
     RDKit          3D

 25 25  0  0  1  0  0  0  0  0999 V2000
    8.7808  -14.8767   16.3384 N   0  0  0  0  0  0  0  0  0  0  0  0
    9.3684  -13.9959   17.3200 C   0  0  1  0  0  0  0  0  0  0  0  0
    8.2306  -13.3073   18.0776 C   0  0  0  0  0  0  0  0  0  0  0  0
    8.9287  -11.9709   19.0620 S   0  0  0  0  0  0  0  0  0  0  0  0
   10.2486  -14.7732   18.2185 C   0  0  0  0  0  0  0  0  0  0  0  0
    9.8170  -15.8611   18.7292 O   0  0  0  0  0  0  0  0  0  0  0  0
   11.5749  -14.3693   18.5506 N   0  0  0  0  0  0  0  0  0  0  0  0
   12.3808  -15.2235   19.3630 C   0  0  1  0  0  0  0  0  0  0  0  0
   13.8309  -14.7329   19.1924 C   0  0  0  0  0  0  0  0  0  0  0  0
   14.2942  -15.2647   17.8830 C   0  0  0  0  0  0  0  0  0  0  0  0
   13.9100  -16.3722   17.4541 O   0  0  0  0  0  0  0  0  0  0  0  0
   12.0687  -15.1720   20.7942 C   0  0  0  0  0  0  0  0  0  0  0  0
   12.4555  -14.2684   21.5771 O   0  0  0  0  0  0  0  0  0  0  0  0
   15.1767  -14.5251   17.1041 O   0  0  0  0  0  0  0  0  0  0  0  0
   11.2640  -16.2263   21.3457 N   0  0  0  0  0  0  0  0  0  0  0  0
   11.0576  -16.3342   22.7895 C   0  0  1  0  0  0  0  0  0  0  0  0
    9.6596  -16.8122   23.0314 C   0  0  0  0  0  0  0  0  0  0  0  0
    8.6127  -15.8497   22.6755 C   0  0  0  0  0  0  0  0  0  0  0  0
    8.7524  -14.4818   22.7168 C   0  0  0  0  0  0  0  0  0  0  0  0
    7.5772  -13.9691   22.3245 N   0  0  0  0  0  0  0  0  0  0  0  0
    6.7311  -14.9675   22.0468 C   0  0  0  0  0  0  0  0  0  0  0  0
    7.3668  -16.1248   22.2622 N   0  0  0  0  0  0  0  0  0  0  0  0
   12.0303  -17.3038   23.3791 C   0  0  0  0  0  0  0  0  0  0  0  0
   12.0790  -17.5291   24.6158 O   0  0  0  0  0  0  0  0  0  0  0  0
   12.9246  -17.9999   22.5808 O   0  0  0  0  0  0  0  0  0  0  0  0
  2  5  1  0
  2  1  1  6
  3  2  1  0
  4  3  1  0
  5  6  2  0
  7  8  1  0
  7  5  1  0
  9 10  1  0
  8  9  1  1
 10 14  1  0
 11 10  2  0
 12 15  1  0
 12  8  1  0
 13 12  2  0
 16 15  1  0
 16 17  1  6
 18 17  1  0
 18 19  2  0
 20 19  1  0
 21 22  2  0
 21 20  1  0
 22 18  1  0
 23 16  1  0
 24 23  2  0
 25 23  1  0
M  END
$$$$
