GRH.pdb
     RDKit          3D

 26 26  0  0  1  0  0  0  0  0999 V2000
   30.0943  -10.6791  -18.0481 N   0  0  0  0  0  0  0  0  0  0  0  0
   29.3602  -10.8443  -16.8230 C   0  0  0  0  0  0  0  0  0  0  0  0
   27.9170  -10.4699  -17.0182 C   0  0  0  0  0  0  0  0  0  0  0  0
   27.6644   -9.6444  -17.8963 O   0  0  0  0  0  0  0  0  0  0  0  0
   21.1971  -15.2320  -17.7768 N   0  0  0  0  0  0  0  0  0  0  0  0
   22.4757  -15.6408  -18.2480 C   0  0  0  0  0  0  0  0  0  0  0  0
   22.5837  -16.4443  -19.2627 N   0  0  0  0  0  0  0  0  0  0  0  0
   23.6770  -15.1949  -17.6387 N   0  0  0  0  0  0  0  0  0  0  0  0
   23.6903  -14.1804  -16.6302 C   0  0  0  0  0  0  0  0  0  0  0  0
   24.6484  -13.0642  -17.0652 C   0  0  0  0  0  0  0  0  0  0  0  0
   24.5898  -11.9885  -16.0374 C   0  0  0  0  0  0  0  0  0  0  0  0
   25.5033  -10.8122  -16.2871 C   0  0  2  0  0  0  0  0  0  0  0  0
   26.8934  -11.0449  -16.2235 N   0  0  0  0  0  0  0  0  0  0  0  0
   24.9917   -9.5732  -15.6966 C   0  0  0  0  0  0  0  0  0  0  0  0
   25.2342   -9.4050  -14.4571 O   0  0  0  0  0  0  0  0  0  0  0  0
   23.4981  -16.7075  -19.6696 N   0  0  0  0  0  0  0  0  0  0  0  0
   24.2689   -8.5888  -16.4028 C   0  0  2  0  0  0  0  0  0  0  0  0
   23.7521   -7.3678  -15.7646 C   0  0  0  0  0  0  0  0  0  0  0  0
   23.3639   -6.3557  -16.7787 C   0  0  0  0  0  0  0  0  0  0  0  0
   22.7670   -5.1111  -16.2600 C   0  0  0  0  0  0  0  0  0  0  0  0
   22.8267   -4.5173  -15.0439 N   0  0  0  0  0  0  0  0  0  0  0  0
   22.1561   -3.3357  -15.0919 C   0  0  0  0  0  0  0  0  0  0  0  0
   21.6830   -3.1985  -16.3389 N   0  0  0  0  0  0  0  0  0  0  0  0
   22.0455   -4.2656  -17.0570 C   0  0  0  0  0  0  0  0  0  0  0  0
   22.4539   -7.8341  -15.1294 O   0  0  0  0  0  0  0  0  0  0  0  0
   22.0325   -7.2496  -13.9722 O   0  0  0  0  0  0  0  0  0  0  0  0
  2  1  1  0
  3  2  1  0
  3 13  1  0
  4  3  2  0
  5  6  1  0
  6  8  1  0
  7  6  2  0
  8  9  1  0
  9 10  1  0
 10 11  1  0
 12 11  1  1
 12 13  1  0
 14 12  1  0
 15 14  2  0
 16 14  1  0
 17 16  1  0
 17 18  1  6
 19 23  1  0
 19 18  1  0
 20 19  2  0
 21 20  1  0
 21 22  1  0
 22 23  2  0
 24 17  1  0
 25 24  1  0
 26 24  2  0
M  END
$$$$
