GRH.pdb
     RDKit          3D

 26 26  0  0  1  0  0  0  0  0999 V2000
   19.0760  -31.5651   -7.8643 N   0  0  0  0  0  0  0  0  0  0  0  0
   18.2343  -30.6699   -8.6107 C   0  0  0  0  0  0  0  0  0  0  0  0
   18.2573  -29.2946   -8.0033 C   0  0  0  0  0  0  0  0  0  0  0  0
   18.5653  -29.2105   -6.8140 O   0  0  0  0  0  0  0  0  0  0  0  0
   18.1944  -22.4712  -13.1470 N   0  0  0  0  0  0  0  0  0  0  0  0
   17.9348  -22.4125  -11.7495 C   0  0  0  0  0  0  0  0  0  0  0  0
   17.4085  -21.3518  -11.2158 N   0  0  0  0  0  0  0  0  0  0  0  0
   18.2354  -23.4966  -10.8848 N   0  0  0  0  0  0  0  0  0  0  0  0
   18.8617  -24.6948  -11.3526 C   0  0  0  0  0  0  0  0  0  0  0  0
   19.1141  -25.6198  -10.1552 C   0  0  0  0  0  0  0  0  0  0  0  0
   17.8420  -25.7293   -9.3892 C   0  0  0  0  0  0  0  0  0  0  0  0
   17.8196  -26.8093   -8.3338 C   0  0  2  0  0  0  0  0  0  0  0  0
   17.9375  -28.1457   -8.7701 N   0  0  0  0  0  0  0  0  0  0  0  0
   16.8614  -26.5235   -7.2633 C   0  0  0  0  0  0  0  0  0  0  0  0
   15.7024  -27.0342   -7.4020 O   0  0  0  0  0  0  0  0  0  0  0  0
   17.1731  -21.2930  -10.2098 N   0  0  0  0  0  0  0  0  0  0  0  0
   17.1434  -25.7394   -6.1250 C   0  0  2  0  0  0  0  0  0  0  0  0
   16.1615  -25.5065   -5.0541 C   0  0  0  0  0  0  0  0  0  0  0  0
   16.8341  -25.1912   -3.7689 C   0  0  0  0  0  0  0  0  0  0  0  0
   17.4863  -26.3213   -3.0819 C   0  0  0  0  0  0  0  0  0  0  0  0
   17.0225  -27.5329   -2.6926 N   0  0  0  0  0  0  0  0  0  0  0  0
   18.0453  -28.2499   -2.1558 C   0  0  0  0  0  0  0  0  0  0  0  0
   19.1422  -27.4812   -2.2149 N   0  0  0  0  0  0  0  0  0  0  0  0
   18.8188  -26.3111   -2.7735 C   0  0  0  0  0  0  0  0  0  0  0  0
   15.4771  -24.2220   -5.4875 O   0  0  0  0  0  0  0  0  0  0  0  0
   14.4362  -23.7418   -4.7500 O   0  0  0  0  0  0  0  0  0  0  0  0
  2  1  1  0
  3  2  1  0
  3 13  1  0
  4  3  2  0
  5  6  1  0
  6  8  1  0
  7  6  2  0
  8  9  1  0
  9 10  1  0
 10 11  1  0
 12 11  1  6
 12 13  1  0
 14 12  1  0
 15 14  2  0
 16 14  1  0
 17 16  1  0
 17 18  1  6
 19 23  1  0
 19 18  1  0
 20 19  2  0
 21 20  1  0
 21 22  1  0
 22 23  2  0
 24 17  1  0
 25 24  1  0
 26 24  2  0
M  END
$$$$
