GRH.pdb
     RDKit          3D

 26 26  0  0  1  0  0  0  0  0999 V2000
   26.0903  -15.3435  -20.1823 N   0  0  0  0  0  0  0  0  0  0  0  0
   25.8602  -14.8546  -18.8500 C   0  0  0  0  0  0  0  0  0  0  0  0
   25.3202  -15.9494  -17.9722 C   0  0  0  0  0  0  0  0  0  0  0  0
   24.3118  -16.5378  -18.3637 O   0  0  0  0  0  0  0  0  0  0  0  0
   25.8583  -21.2454  -11.2552 N   0  0  0  0  0  0  0  0  0  0  0  0
   26.5327  -21.4691  -12.4877 C   0  0  0  0  0  0  0  0  0  0  0  0
   26.4326  -22.6090  -13.1021 N   0  0  0  0  0  0  0  0  0  0  0  0
   27.3360  -20.4695  -13.0950 N   0  0  0  0  0  0  0  0  0  0  0  0
   27.1351  -19.0748  -12.8479 C   0  0  0  0  0  0  0  0  0  0  0  0
   25.9586  -18.5865  -13.7026 C   0  0  0  0  0  0  0  0  0  0  0  0
   26.5100  -17.7281  -14.7871 C   0  0  0  0  0  0  0  0  0  0  0  0
   25.4848  -17.1603  -15.7396 C   0  0  2  0  0  0  0  0  0  0  0  0
   25.9478  -16.2874  -16.7466 N   0  0  0  0  0  0  0  0  0  0  0  0
   24.2273  -16.8217  -15.0691 C   0  0  0  0  0  0  0  0  0  0  0  0
   24.2440  -15.7685  -14.3522 O   0  0  0  0  0  0  0  0  0  0  0  0
   26.9572  -22.8226  -13.9682 N   0  0  0  0  0  0  0  0  0  0  0  0
   23.0382  -17.5739  -15.1709 C   0  0  2  0  0  0  0  0  0  0  0  0
   21.7513  -17.1080  -14.6302 C   0  0  0  0  0  0  0  0  0  0  0  0
   21.1439  -16.0751  -15.5063 C   0  0  0  0  0  0  0  0  0  0  0  0
   19.7830  -15.6358  -15.1466 C   0  0  0  0  0  0  0  0  0  0  0  0
   19.0093  -15.8832  -14.0627 N   0  0  0  0  0  0  0  0  0  0  0  0
   17.8491  -15.1833  -14.1745 C   0  0  0  0  0  0  0  0  0  0  0  0
   17.9067  -14.5018  -15.3277 N   0  0  0  0  0  0  0  0  0  0  0  0
   19.0718  -14.7659  -15.9265 C   0  0  0  0  0  0  0  0  0  0  0  0
   20.8611  -18.3318  -14.7570 O   0  0  0  0  0  0  0  0  0  0  0  0
   19.8126  -18.4829  -13.8992 O   0  0  0  0  0  0  0  0  0  0  0  0
  2  1  1  0
  3  2  1  0
  3 13  1  0
  4  3  2  0
  5  6  1  0
  6  8  1  0
  7  6  2  0
  8  9  1  0
  9 10  1  0
 10 11  1  0
 12 11  1  1
 12 13  1  0
 14 12  1  0
 15 14  2  0
 16 14  1  0
 17 16  1  0
 17 18  1  6
 19 23  1  0
 19 18  1  0
 20 19  2  0
 21 20  1  0
 21 22  1  0
 22 23  2  0
 24 17  1  0
 25 24  1  0
 26 24  2  0
M  END
$$$$
