GRH.pdb
     RDKit          3D

 26 26  0  0  1  0  0  0  0  0999 V2000
   26.5776  -23.9167  -17.1117 N   0  0  0  0  0  0  0  0  0  0  0  0
   26.5136  -22.5448  -16.6867 C   0  0  0  0  0  0  0  0  0  0  0  0
   25.5578  -22.3931  -15.5359 C   0  0  0  0  0  0  0  0  0  0  0  0
   24.4128  -22.8170  -15.6967 O   0  0  0  0  0  0  0  0  0  0  0  0
   29.4152  -21.9055   -8.2821 N   0  0  0  0  0  0  0  0  0  0  0  0
   29.9803  -21.7727   -9.5809 C   0  0  0  0  0  0  0  0  0  0  0  0
   31.1113  -22.3398   -9.8742 N   0  0  0  0  0  0  0  0  0  0  0  0
   29.3421  -21.0238  -10.6032 N   0  0  0  0  0  0  0  0  0  0  0  0
   27.9299  -20.7957  -10.6137 C   0  0  0  0  0  0  0  0  0  0  0  0
   27.3396  -21.4126  -11.8881 C   0  0  0  0  0  0  0  0  0  0  0  0
   25.8902  -21.0740  -11.9279 C   0  0  0  0  0  0  0  0  0  0  0  0
   25.1703  -21.4830  -13.1908 C   0  0  2  0  0  0  0  0  0  0  0  0
   25.9608  -21.7873  -14.3191 N   0  0  0  0  0  0  0  0  0  0  0  0
   23.9415  -20.7153  -13.4063 C   0  0  0  0  0  0  0  0  0  0  0  0
   24.0890  -19.4589  -13.5584 O   0  0  0  0  0  0  0  0  0  0  0  0
   31.5762  -22.2141  -10.7901 N   0  0  0  0  0  0  0  0  0  0  0  0
   22.6468  -21.2734  -13.4528 C   0  0  1  0  0  0  0  0  0  0  0  0
   21.4412  -20.4704  -13.7117 C   0  0  0  0  0  0  0  0  0  0  0  0
   20.7858  -20.8801  -14.9790 C   0  0  0  0  0  0  0  0  0  0  0  0
   19.5433  -20.1671  -15.3285 C   0  0  0  0  0  0  0  0  0  0  0  0
   19.1872  -18.8644  -15.2229 N   0  0  0  0  0  0  0  0  0  0  0  0
   17.9461  -18.6976  -15.7522 C   0  0  0  0  0  0  0  0  0  0  0  0
   17.5356  -19.8978  -16.1864 N   0  0  0  0  0  0  0  0  0  0  0  0
   18.4924  -20.7967  -15.9368 C   0  0  0  0  0  0  0  0  0  0  0  0
   20.4971  -20.8987  -12.6019 O   0  0  0  0  0  0  0  0  0  0  0  0
   19.4307  -20.1074  -12.2940 O   0  0  0  0  0  0  0  0  0  0  0  0
  2  1  1  0
  3  2  1  0
  3 13  1  0
  4  3  2  0
  5  6  1  0
  6  8  1  0
  7  6  2  0
  8  9  1  0
  9 10  1  0
 10 11  1  0
 12 11  1  1
 12 13  1  0
 14 12  1  0
 15 14  2  0
 16 14  1  0
 17 16  1  0
 17 18  1  1
 19 23  1  0
 19 18  1  0
 20 19  2  0
 21 20  1  0
 21 22  1  0
 22 23  2  0
 24 17  1  0
 25 24  1  0
 26 24  2  0
M  END
$$$$
