GRH.pdb
     RDKit          3D

 26 26  0  0  1  0  0  0  0  0999 V2000
   27.3173  -22.6921  -17.6628 N   0  0  0  0  0  0  0  0  0  0  0  0
   27.4659  -21.5480  -16.8050 C   0  0  0  0  0  0  0  0  0  0  0  0
   26.6427  -21.7133  -15.5577 C   0  0  0  0  0  0  0  0  0  0  0  0
   25.7744  -22.5864  -15.5689 O   0  0  0  0  0  0  0  0  0  0  0  0
   30.6815  -21.4750   -8.4979 N   0  0  0  0  0  0  0  0  0  0  0  0
   30.7580  -22.0911   -9.7779 C   0  0  0  0  0  0  0  0  0  0  0  0
   31.6214  -23.0330  -10.0110 N   0  0  0  0  0  0  0  0  0  0  0  0
   29.9051  -21.7097  -10.8458 N   0  0  0  0  0  0  0  0  0  0  0  0
   28.9756  -20.6283  -10.7311 C   0  0  0  0  0  0  0  0  0  0  0  0
   28.3372  -20.3783  -12.1033 C   0  0  0  0  0  0  0  0  0  0  0  0
   26.8628  -20.5193  -11.9513 C   0  0  0  0  0  0  0  0  0  0  0  0
   26.1161  -20.8539  -13.2206 C   0  0  2  0  0  0  0  0  0  0  0  0
   26.8595  -20.8971  -14.4189 N   0  0  0  0  0  0  0  0  0  0  0  0
   24.7871  -20.2394  -13.2646 C   0  0  0  0  0  0  0  0  0  0  0  0
   24.7622  -18.9768  -13.4339 O   0  0  0  0  0  0  0  0  0  0  0  0
   31.7201  -23.4807  -10.9388 N   0  0  0  0  0  0  0  0  0  0  0  0
   23.5735  -20.9467  -13.1338 C   0  0  1  0  0  0  0  0  0  0  0  0
   22.2572  -20.2952  -13.2239 C   0  0  0  0  0  0  0  0  0  0  0  0
   21.4414  -20.8832  -14.3158 C   0  0  0  0  0  0  0  0  0  0  0  0
   21.7878  -20.4617  -15.6857 C   0  0  0  0  0  0  0  0  0  0  0  0
   22.7323  -19.6145  -16.1601 N   0  0  0  0  0  0  0  0  0  0  0  0
   22.6914  -19.6177  -17.5190 C   0  0  0  0  0  0  0  0  0  0  0  0
   21.7218  -20.4686  -17.8845 N   0  0  0  0  0  0  0  0  0  0  0  0
   21.1666  -20.9871  -16.7851 C   0  0  0  0  0  0  0  0  0  0  0  0
   21.5776  -20.7114  -11.9312 O   0  0  0  0  0  0  0  0  0  0  0  0
   22.1987  -21.6067  -11.1120 O   0  0  0  0  0  0  0  0  0  0  0  0
  2  1  1  0
  3  2  1  0
  3 13  1  0
  4  3  2  0
  5  6  1  0
  6  8  1  0
  7  6  2  0
  8  9  1  0
  9 10  1  0
 10 11  1  0
 12 11  1  1
 12 13  1  0
 14 12  1  0
 15 14  2  0
 16 14  1  0
 17 16  1  0
 17 18  1  6
 19 23  1  0
 19 18  1  0
 20 19  2  0
 21 20  1  0
 21 22  1  0
 22 23  2  0
 24 17  1  0
 25 24  1  0
 26 24  2  0
M  END
$$$$
