GRH.pdb
     RDKit          3D

 26 26  0  0  1  0  0  0  0  0999 V2000
   28.7028  -24.1533  -17.0456 N   0  0  0  0  0  0  0  0  0  0  0  0
   28.4868  -22.7335  -17.1137 C   0  0  0  0  0  0  0  0  0  0  0  0
   27.5088  -22.2975  -16.0581 C   0  0  0  0  0  0  0  0  0  0  0  0
   26.8828  -23.1815  -15.4724 O   0  0  0  0  0  0  0  0  0  0  0  0
   23.9906  -16.4228  -16.2179 N   0  0  0  0  0  0  0  0  0  0  0  0
   25.0352  -15.5111  -16.5365 C   0  0  0  0  0  0  0  0  0  0  0  0
   24.8787  -14.6219  -17.4701 N   0  0  0  0  0  0  0  0  0  0  0  0
   26.2809  -15.5310  -15.8573 N   0  0  0  0  0  0  0  0  0  0  0  0
   26.5967  -16.5182  -14.8713 C   0  0  0  0  0  0  0  0  0  0  0  0
   26.2324  -17.9020  -15.4238 C   0  0  0  0  0  0  0  0  0  0  0  0
   26.6607  -18.9182  -14.4233 C   0  0  0  0  0  0  0  0  0  0  0  0
   26.4221  -20.3543  -14.8250 C   0  0  2  0  0  0  0  0  0  0  0  0
   27.3180  -20.9262  -15.7527 N   0  0  0  0  0  0  0  0  0  0  0  0
   24.9979  -20.6630  -14.9732 C   0  0  0  0  0  0  0  0  0  0  0  0
   24.4919  -20.4231  -16.1178 O   0  0  0  0  0  0  0  0  0  0  0  0
   25.6407  -13.9888  -17.7694 N   0  0  0  0  0  0  0  0  0  0  0  0
   24.1833  -21.1939  -13.9511 C   0  0  2  0  0  0  0  0  0  0  0  0
   22.7645  -21.5268  -14.1543 C   0  0  0  0  0  0  0  0  0  0  0  0
   22.2073  -22.2408  -12.9781 C   0  0  0  0  0  0  0  0  0  0  0  0
   20.7693  -22.5624  -13.0339 C   0  0  0  0  0  0  0  0  0  0  0  0
   19.9969  -23.0873  -14.0151 N   0  0  0  0  0  0  0  0  0  0  0  0
   18.7325  -23.2556  -13.5446 C   0  0  0  0  0  0  0  0  0  0  0  0
   18.7241  -22.8358  -12.2713 N   0  0  0  0  0  0  0  0  0  0  0  0
   19.9503  -22.4138  -11.9486 C   0  0  0  0  0  0  0  0  0  0  0  0
   22.0899  -20.1663  -14.1685 O   0  0  0  0  0  0  0  0  0  0  0  0
   20.9499  -19.9971  -14.8964 O   0  0  0  0  0  0  0  0  0  0  0  0
  2  1  1  0
  3  2  1  0
  3 13  1  0
  4  3  2  0
  5  6  1  0
  6  8  1  0
  7  6  2  0
  8  9  1  0
  9 10  1  0
 10 11  1  0
 12 11  1  6
 12 13  1  0
 14 12  1  0
 15 14  2  0
 16 14  1  0
 17 16  1  0
 17 18  1  1
 19 23  1  0
 19 18  1  0
 20 19  2  0
 21 20  1  0
 21 22  1  0
 22 23  2  0
 24 17  1  0
 25 24  1  0
 26 24  2  0
M  END
$$$$
