DYH.pdb
     RDKit          3D

 31 32  0  0  1  0  0  0  0  0999 V2000
   37.4936   -9.2187  -13.7804 N   0  0  0  0  0  0  0  0  0  0  0  0
   38.5714   -8.5285  -13.1123 C   0  0  1  0  0  0  0  0  0  0  0  0
   39.3755   -7.6609  -14.0675 C   0  0  0  0  0  0  0  0  0  0  0  0
   39.8647   -8.4535  -15.2056 C   0  0  0  0  0  0  0  0  0  0  0  0
   40.4957   -9.5084  -15.0043 O   0  0  0  0  0  0  0  0  0  0  0  0
   38.0542   -7.5812  -12.0699 C   0  0  0  0  0  0  0  0  0  0  0  0
   37.1250   -6.7665  -12.2664 O   0  0  0  0  0  0  0  0  0  0  0  0
   39.6405   -8.0543  -16.5058 O   0  0  0  0  0  0  0  0  0  0  0  0
   36.7624   -3.6316   -4.2242 O   0  0  0  0  0  0  0  0  0  0  0  0
   37.1409   -4.5195   -5.2484 C   0  0  0  0  0  0  0  0  0  0  0  0
   36.1856   -5.1724   -5.9719 C   0  0  0  0  0  0  0  0  0  0  0  0
   36.6039   -6.0408   -6.9762 C   0  0  0  0  0  0  0  0  0  0  0  0
   37.9269   -6.2616   -7.2617 C   0  0  0  0  0  0  0  0  0  0  0  0
   38.2887   -7.1923   -8.3310 C   0  0  0  0  0  0  0  0  0  0  0  0
   38.1312   -6.6245   -9.7311 C   0  0  2  0  0  0  0  0  0  0  0  0
   38.6113   -7.5494  -10.7324 N   0  0  0  0  0  0  0  0  0  0  0  0
   38.6584   -5.2607   -9.8643 C   0  0  0  0  0  0  0  0  0  0  0  0
   39.7896   -5.0984  -10.3798 O   0  0  0  0  0  0  0  0  0  0  0  0
   38.8748   -5.5948   -6.5228 C   0  0  0  0  0  0  0  0  0  0  0  0
   38.4705   -4.7374   -5.5313 C   0  0  0  0  0  0  0  0  0  0  0  0
   37.9834   -4.0805   -9.4504 N   0  0  0  0  0  0  0  0  0  0  0  0
   38.5597   -2.7508   -9.7202 C   0  0  1  0  0  0  0  0  0  0  0  0
   38.6922   -2.5354  -11.2072 C   0  0  0  0  0  0  0  0  0  0  0  0
   39.3187   -1.2133  -11.4651 C   0  0  0  0  0  0  0  0  0  0  0  0
   40.6527   -0.9126  -11.6349 C   0  0  0  0  0  0  0  0  0  0  0  0
   40.7511    0.4138  -11.8299 N   0  0  0  0  0  0  0  0  0  0  0  0
   39.5293    0.9630  -11.7895 C   0  0  0  0  0  0  0  0  0  0  0  0
   38.6582   -0.0183  -11.5685 N   0  0  0  0  0  0  0  0  0  0  0  0
   37.8001   -1.6967   -9.0477 C   0  0  0  0  0  0  0  0  0  0  0  0
   38.2932   -0.3812   -9.1865 O   0  0  0  0  0  0  0  0  0  0  0  0
   36.7652   -1.8194   -8.3655 O   0  0  0  0  0  0  0  0  0  0  0  0
  2  1  1  6
  3  2  1  0
  3  4  1  0
  4  5  2  0
  6  2  1  0
  6  7  2  0
  8  4  1  0
  9 10  1  0
 10 20  2  0
 10 11  1  0
 11 12  2  0
 12 13  1  0
 13 14  1  0
 15 14  1  1
 15 16  1  0
 16  6  1  0
 17 15  1  0
 18 17  2  0
 19 13  2  0
 20 19  1  0
 21 17  1  0
 22 21  1  0
 22 29  1  0
 22 23  1  6
 24 23  1  0
 24 25  2  0
 26 25  1  0
 27 26  1  0
 28 27  2  0
 28 24  1  0
 29 30  1  0
 31 29  2  0
M  END
$$$$
