DYH.pdb
     RDKit          3D

 31 32  0  0  1  0  0  0  0  0999 V2000
   27.9203  -20.9945  -16.3636 N   0  0  0  0  0  0  0  0  0  0  0  0
   27.6140  -20.2597  -15.1592 C   0  0  1  0  0  0  0  0  0  0  0  0
   27.1240  -18.8513  -15.4562 C   0  0  0  0  0  0  0  0  0  0  0  0
   28.0217  -18.1763  -16.4055 C   0  0  0  0  0  0  0  0  0  0  0  0
   29.2506  -18.1677  -16.2020 O   0  0  0  0  0  0  0  0  0  0  0  0
   26.4979  -20.9047  -14.3912 C   0  0  0  0  0  0  0  0  0  0  0  0
   25.4596  -21.3612  -14.9196 O   0  0  0  0  0  0  0  0  0  0  0  0
   27.5326  -17.5446  -17.5288 O   0  0  0  0  0  0  0  0  0  0  0  0
   27.7313  -18.6427   -7.0040 O   0  0  0  0  0  0  0  0  0  0  0  0
   27.3007  -19.5577   -7.9827 C   0  0  0  0  0  0  0  0  0  0  0  0
   28.2171  -20.2189   -8.7477 C   0  0  0  0  0  0  0  0  0  0  0  0
   27.7477  -21.1156   -9.7034 C   0  0  0  0  0  0  0  0  0  0  0  0
   26.4124  -21.3561   -9.9018 C   0  0  0  0  0  0  0  0  0  0  0  0
   25.9959  -22.3115  -10.9286 C   0  0  0  0  0  0  0  0  0  0  0  0
   25.4825  -21.6692  -12.2058 C   0  0  2  0  0  0  0  0  0  0  0  0
   26.5531  -21.0458  -12.9499 N   0  0  0  0  0  0  0  0  0  0  0  0
   24.3135  -20.8074  -11.9899 C   0  0  0  0  0  0  0  0  0  0  0  0
   24.4929  -19.5786  -11.8187 O   0  0  0  0  0  0  0  0  0  0  0  0
   25.5041  -20.6813   -9.1214 C   0  0  0  0  0  0  0  0  0  0  0  0
   25.9588  -19.7957   -8.1775 C   0  0  0  0  0  0  0  0  0  0  0  0
   22.9649  -21.2543  -11.9572 N   0  0  0  0  0  0  0  0  0  0  0  0
   21.8898  -20.4453  -12.5594 C   0  0  1  0  0  0  0  0  0  0  0  0
   22.2369  -20.1024  -13.9867 C   0  0  0  0  0  0  0  0  0  0  0  0
   21.1207  -19.3383  -14.6009 C   0  0  0  0  0  0  0  0  0  0  0  0
   19.9508  -19.8170  -15.1496 C   0  0  0  0  0  0  0  0  0  0  0  0
   19.2468  -18.7620  -15.5953 N   0  0  0  0  0  0  0  0  0  0  0  0
   19.9279  -17.6344  -15.3492 C   0  0  0  0  0  0  0  0  0  0  0  0
   21.0638  -17.9781  -14.7472 N   0  0  0  0  0  0  0  0  0  0  0  0
   20.5901  -21.1024  -12.4213 C   0  0  0  0  0  0  0  0  0  0  0  0
   19.5119  -20.2838  -12.0206 O   0  0  0  0  0  0  0  0  0  0  0  0
   20.3175  -22.3020  -12.6169 O   0  0  0  0  0  0  0  0  0  0  0  0
  2  1  1  6
  3  2  1  0
  3  4  1  0
  4  5  2  0
  6  2  1  0
  6  7  2  0
  8  4  1  0
  9 10  1  0
 10 20  2  0
 10 11  1  0
 11 12  2  0
 12 13  1  0
 13 14  1  0
 15 14  1  1
 15 16  1  0
 16  6  1  0
 17 15  1  0
 18 17  2  0
 19 13  2  0
 20 19  1  0
 21 17  1  0
 22 21  1  0
 22 29  1  0
 22 23  1  6
 24 23  1  0
 24 25  2  0
 26 25  1  0
 27 26  1  0
 28 27  2  0
 28 24  1  0
 29 30  1  0
 31 29  2  0
M  END
$$$$
