DYH.pdb
     RDKit          3D

 31 32  0  0  1  0  0  0  0  0999 V2000
   28.3512  -21.6484  -17.9503 N   0  0  0  0  0  0  0  0  0  0  0  0
   27.0336  -21.1659  -18.2901 C   0  0  1  0  0  0  0  0  0  0  0  0
   26.1375  -22.2730  -18.8221 C   0  0  0  0  0  0  0  0  0  0  0  0
   24.8047  -21.7494  -19.1570 C   0  0  0  0  0  0  0  0  0  0  0  0
   24.6960  -20.6816  -19.7892 O   0  0  0  0  0  0  0  0  0  0  0  0
   26.3166  -20.6319  -17.0850 C   0  0  0  0  0  0  0  0  0  0  0  0
   26.3921  -21.1420  -15.9449 O   0  0  0  0  0  0  0  0  0  0  0  0
   23.6580  -22.4177  -18.7848 O   0  0  0  0  0  0  0  0  0  0  0  0
   30.8257  -16.9265  -17.1741 O   0  0  0  0  0  0  0  0  0  0  0  0
   29.4819  -17.0847  -16.7872 C   0  0  0  0  0  0  0  0  0  0  0  0
   28.4808  -16.6598  -17.6115 C   0  0  0  0  0  0  0  0  0  0  0  0
   27.1659  -16.8364  -17.1901 C   0  0  0  0  0  0  0  0  0  0  0  0
   26.8436  -17.4155  -15.9897 C   0  0  0  0  0  0  0  0  0  0  0  0
   25.4373  -17.5640  -15.6146 C   0  0  0  0  0  0  0  0  0  0  0  0
   24.8284  -18.9022  -15.9964 C   0  0  2  0  0  0  0  0  0  0  0  0
   25.4695  -19.4588  -17.1660 N   0  0  0  0  0  0  0  0  0  0  0  0
   23.3622  -18.8711  -16.0669 C   0  0  0  0  0  0  0  0  0  0  0  0
   22.8171  -18.4117  -17.0980 O   0  0  0  0  0  0  0  0  0  0  0  0
   27.8652  -17.8379  -15.1729 C   0  0  0  0  0  0  0  0  0  0  0  0
   29.1637  -17.6671  -15.5810 C   0  0  0  0  0  0  0  0  0  0  0  0
   22.4860  -19.3266  -15.0449 N   0  0  0  0  0  0  0  0  0  0  0  0
   21.0344  -19.0868  -15.1368 C   0  0  1  0  0  0  0  0  0  0  0  0
   20.2775  -20.3158  -14.6986 C   0  0  0  0  0  0  0  0  0  0  0  0
   20.4910  -21.4090  -15.6816 C   0  0  0  0  0  0  0  0  0  0  0  0
   21.1861  -21.3721  -16.8709 C   0  0  0  0  0  0  0  0  0  0  0  0
   21.1003  -22.5906  -17.4323 N   0  0  0  0  0  0  0  0  0  0  0  0
   20.3769  -23.3963  -16.6427 C   0  0  0  0  0  0  0  0  0  0  0  0
   20.0052  -22.6853  -15.5811 N   0  0  0  0  0  0  0  0  0  0  0  0
   20.6488  -17.8785  -14.4079 C   0  0  0  0  0  0  0  0  0  0  0  0
   19.3080  -17.4601  -14.5505 O   0  0  0  0  0  0  0  0  0  0  0  0
   21.3628  -17.1715  -13.6717 O   0  0  0  0  0  0  0  0  0  0  0  0
  2  1  1  1
  3  2  1  0
  3  4  1  0
  4  5  2  0
  6  2  1  0
  6  7  2  0
  8  4  1  0
  9 10  1  0
 10 20  2  0
 10 11  1  0
 11 12  2  0
 12 13  1  0
 13 14  1  0
 15 14  1  6
 15 16  1  0
 16  6  1  0
 17 15  1  0
 18 17  2  0
 19 13  2  0
 20 19  1  0
 21 17  1  0
 22 21  1  0
 22 29  1  0
 22 23  1  1
 24 23  1  0
 24 25  2  0
 26 25  1  0
 27 26  1  0
 28 27  2  0
 28 24  1  0
 29 30  1  0
 31 29  2  0
M  END
$$$$
