DYH.pdb
     RDKit          3D

 31 32  0  0  1  0  0  0  0  0999 V2000
   43.7135   -6.8267   -6.6267 N   0  0  0  0  0  0  0  0  0  0  0  0
   43.8671   -7.0821   -8.0393 C   0  0  1  0  0  0  0  0  0  0  0  0
   44.8144   -8.2396   -8.3126 C   0  0  0  0  0  0  0  0  0  0  0  0
   46.0981   -8.0365   -7.6244 C   0  0  0  0  0  0  0  0  0  0  0  0
   46.7557   -6.9981   -7.8268 O   0  0  0  0  0  0  0  0  0  0  0  0
   42.5668   -7.4882   -8.6685 C   0  0  0  0  0  0  0  0  0  0  0  0
   42.4161   -7.6845   -9.8951 O   0  0  0  0  0  0  0  0  0  0  0  0
   46.5991   -8.9771   -6.7502 O   0  0  0  0  0  0  0  0  0  0  0  0
   43.1416  -13.6957   -8.1241 O   0  0  0  0  0  0  0  0  0  0  0  0
   42.2488  -12.6096   -8.0636 C   0  0  0  0  0  0  0  0  0  0  0  0
   41.5688  -12.2232   -9.1819 C   0  0  0  0  0  0  0  0  0  0  0  0
   40.6951  -11.1446   -9.0774 C   0  0  0  0  0  0  0  0  0  0  0  0
   40.4949  -10.4637   -7.9040 C   0  0  0  0  0  0  0  0  0  0  0  0
   39.5617   -9.3373   -7.8735 C   0  0  0  0  0  0  0  0  0  0  0  0
   40.1108   -8.0566   -8.4781 C   0  0  2  0  0  0  0  0  0  0  0  0
   41.3706   -7.6863   -7.8746 N   0  0  0  0  0  0  0  0  0  0  0  0
   39.1225   -6.9720   -8.5301 C   0  0  0  0  0  0  0  0  0  0  0  0
   38.6335   -6.5489   -7.4561 O   0  0  0  0  0  0  0  0  0  0  0  0
   41.1880  -10.8676   -6.7879 C   0  0  0  0  0  0  0  0  0  0  0  0
   42.0512  -11.9296   -6.8829 C   0  0  0  0  0  0  0  0  0  0  0  0
   38.6606   -6.3448   -9.7187 N   0  0  0  0  0  0  0  0  0  0  0  0
   38.1419   -4.9653   -9.6884 C   0  0  1  0  0  0  0  0  0  0  0  0
   39.1312   -4.0547   -9.0048 C   0  0  0  0  0  0  0  0  0  0  0  0
   38.6085   -2.6641   -9.0018 C   0  0  0  0  0  0  0  0  0  0  0  0
   37.3122   -2.2326   -9.1815 C   0  0  0  0  0  0  0  0  0  0  0  0
   37.3150   -0.8901   -9.1119 N   0  0  0  0  0  0  0  0  0  0  0  0
   38.5644   -0.4566   -8.8951 C   0  0  0  0  0  0  0  0  0  0  0  0
   39.3518   -1.5273   -8.8278 N   0  0  0  0  0  0  0  0  0  0  0  0
   37.7648   -4.5103  -11.0267 C   0  0  0  0  0  0  0  0  0  0  0  0
   36.3952   -4.5985  -11.3573 O   0  0  0  0  0  0  0  0  0  0  0  0
   38.5090   -4.0508  -11.9137 O   0  0  0  0  0  0  0  0  0  0  0  0
  2  1  1  1
  3  2  1  0
  3  4  1  0
  4  5  2  0
  6  2  1  0
  6  7  2  0
  8  4  1  0
  9 10  1  0
 10 20  2  0
 10 11  1  0
 11 12  2  0
 12 13  1  0
 13 14  1  0
 15 14  1  1
 15 16  1  0
 16  6  1  0
 17 15  1  0
 18 17  2  0
 19 13  2  0
 20 19  1  0
 21 17  1  0
 22 21  1  0
 22 29  1  0
 22 23  1  6
 24 23  1  0
 24 25  2  0
 26 25  1  0
 27 26  1  0
 28 27  2  0
 28 24  1  0
 29 30  1  0
 31 29  2  0
M  END
$$$$
