DYH.pdb
     RDKit          3D

 31 32  0  0  1  0  0  0  0  0999 V2000
   27.9192  -25.7089  -19.9007 N   0  0  0  0  0  0  0  0  0  0  0  0
   26.5914  -25.1949  -19.6621 C   0  0  1  0  0  0  0  0  0  0  0  0
   25.8172  -24.9857  -20.9538 C   0  0  0  0  0  0  0  0  0  0  0  0
   26.1844  -23.7069  -21.5805 C   0  0  0  0  0  0  0  0  0  0  0  0
   25.6379  -23.3546  -22.6430 O   0  0  0  0  0  0  0  0  0  0  0  0
   25.7636  -26.1605  -18.8659 C   0  0  0  0  0  0  0  0  0  0  0  0
   25.3445  -27.2525  -19.3104 O   0  0  0  0  0  0  0  0  0  0  0  0
   27.1296  -22.8776  -21.0158 O   0  0  0  0  0  0  0  0  0  0  0  0
   29.0611  -31.3167  -16.9406 O   0  0  0  0  0  0  0  0  0  0  0  0
   28.1110  -30.3372  -16.5961 C   0  0  0  0  0  0  0  0  0  0  0  0
   26.8448  -30.7085  -16.2483 C   0  0  0  0  0  0  0  0  0  0  0  0
   25.9371  -29.7075  -15.9140 C   0  0  0  0  0  0  0  0  0  0  0  0
   26.2657  -28.3762  -15.9214 C   0  0  0  0  0  0  0  0  0  0  0  0
   25.2553  -27.3815  -15.5606 C   0  0  0  0  0  0  0  0  0  0  0  0
   24.5278  -26.7735  -16.7473 C   0  0  2  0  0  0  0  0  0  0  0  0
   25.3878  -25.8838  -17.4938 N   0  0  0  0  0  0  0  0  0  0  0  0
   23.2237  -26.1991  -16.3933 C   0  0  0  0  0  0  0  0  0  0  0  0
   23.1247  -24.9552  -16.2726 O   0  0  0  0  0  0  0  0  0  0  0  0
   27.5459  -28.0212  -16.2739 C   0  0  0  0  0  0  0  0  0  0  0  0
   28.4462  -29.0019  -16.6049 C   0  0  0  0  0  0  0  0  0  0  0  0
   22.0359  -26.9467  -16.1701 N   0  0  0  0  0  0  0  0  0  0  0  0
   20.7683  -26.2663  -15.8488 C   0  0  1  0  0  0  0  0  0  0  0  0
   20.4961  -25.1758  -16.8548 C   0  0  0  0  0  0  0  0  0  0  0  0
   19.1928  -24.5311  -16.5502 C   0  0  0  0  0  0  0  0  0  0  0  0
   18.4148  -24.6572  -15.4198 C   0  0  0  0  0  0  0  0  0  0  0  0
   17.3170  -23.9009  -15.5929 N   0  0  0  0  0  0  0  0  0  0  0  0
   17.3716  -23.3016  -16.7903 C   0  0  0  0  0  0  0  0  0  0  0  0
   18.5058  -23.6803  -17.3743 N   0  0  0  0  0  0  0  0  0  0  0  0
   19.6695  -27.2235  -15.7208 C   0  0  0  0  0  0  0  0  0  0  0  0
   19.9946  -28.5830  -15.9189 O   0  0  0  0  0  0  0  0  0  0  0  0
   18.4763  -26.9838  -15.4553 O   0  0  0  0  0  0  0  0  0  0  0  0
  2  1  1  6
  3  2  1  0
  3  4  1  0
  4  5  2  0
  6  2  1  0
  6  7  2  0
  8  4  1  0
  9 10  1  0
 10 20  2  0
 10 11  1  0
 11 12  2  0
 12 13  1  0
 13 14  1  0
 15 14  1  1
 15 16  1  0
 16  6  1  0
 17 15  1  0
 18 17  2  0
 19 13  2  0
 20 19  1  0
 21 17  1  0
 22 21  1  0
 22 29  1  0
 22 23  1  6
 24 23  1  0
 24 25  2  0
 26 25  1  0
 27 26  1  0
 28 27  2  0
 28 24  1  0
 29 30  1  0
 31 29  2  0
M  END
$$$$
