DYH.pdb
     RDKit          3D

 31 32  0  0  1  0  0  0  0  0999 V2000
   31.6850  -33.6109  -16.3055 N   0  0  0  0  0  0  0  0  0  0  0  0
   31.1294  -32.2838  -16.1862 C   0  0  1  0  0  0  0  0  0  0  0  0
   31.5508  -31.3807  -17.3345 C   0  0  0  0  0  0  0  0  0  0  0  0
   32.9537  -30.9658  -17.1837 C   0  0  0  0  0  0  0  0  0  0  0  0
   33.6146  -31.3508  -16.2006 O   0  0  0  0  0  0  0  0  0  0  0  0
   29.6301  -32.3090  -16.2428 C   0  0  0  0  0  0  0  0  0  0  0  0
   28.9129  -31.2842  -16.2081 O   0  0  0  0  0  0  0  0  0  0  0  0
   33.5639  -30.1515  -18.1136 O   0  0  0  0  0  0  0  0  0  0  0  0
   28.1194  -30.2504  -21.9226 O   0  0  0  0  0  0  0  0  0  0  0  0
   27.8486  -31.1917  -20.9121 C   0  0  0  0  0  0  0  0  0  0  0  0
   26.7281  -31.0635  -20.1438 C   0  0  0  0  0  0  0  0  0  0  0  0
   26.4984  -32.0172  -19.1562 C   0  0  0  0  0  0  0  0  0  0  0  0
   27.3480  -33.0695  -18.9299 C   0  0  0  0  0  0  0  0  0  0  0  0
   27.0402  -34.0305  -17.8704 C   0  0  0  0  0  0  0  0  0  0  0  0
   27.4585  -33.5812  -16.4810 C   0  0  2  0  0  0  0  0  0  0  0  0
   28.8971  -33.5549  -16.3459 N   0  0  0  0  0  0  0  0  0  0  0  0
   26.7627  -34.3011  -15.4069 C   0  0  0  0  0  0  0  0  0  0  0  0
   27.2860  -35.3395  -14.9387 O   0  0  0  0  0  0  0  0  0  0  0  0
   28.4711  -33.1827  -19.7140 C   0  0  0  0  0  0  0  0  0  0  0  0
   28.7047  -32.2466  -20.6893 C   0  0  0  0  0  0  0  0  0  0  0  0
   25.5188  -33.9152  -14.8382 N   0  0  0  0  0  0  0  0  0  0  0  0
   24.9044  -34.7129  -13.7615 C   0  0  1  0  0  0  0  0  0  0  0  0
   23.7463  -33.9602  -13.1553 C   0  0  0  0  0  0  0  0  0  0  0  0
   23.1692  -34.7505  -12.0375 C   0  0  0  0  0  0  0  0  0  0  0  0
   23.7353  -35.0564  -10.8189 C   0  0  0  0  0  0  0  0  0  0  0  0
   22.8522  -35.8035  -10.1341 N   0  0  0  0  0  0  0  0  0  0  0  0
   21.7491  -35.9816  -10.8740 C   0  0  0  0  0  0  0  0  0  0  0  0
   21.9362  -35.3459  -12.0280 N   0  0  0  0  0  0  0  0  0  0  0  0
   24.5435  -36.0503  -14.2316 C   0  0  0  0  0  0  0  0  0  0  0  0
   24.4663  -37.0616  -13.2495 O   0  0  0  0  0  0  0  0  0  0  0  0
   24.2931  -36.4067  -15.3986 O   0  0  0  0  0  0  0  0  0  0  0  0
  2  1  1  6
  3  2  1  0
  3  4  1  0
  4  5  2  0
  6  2  1  0
  6  7  2  0
  8  4  1  0
  9 10  1  0
 10 20  2  0
 10 11  1  0
 11 12  2  0
 12 13  1  0
 13 14  1  0
 15 14  1  6
 15 16  1  0
 16  6  1  0
 17 15  1  0
 18 17  2  0
 19 13  2  0
 20 19  1  0
 21 17  1  0
 22 21  1  0
 22 29  1  0
 22 23  1  6
 24 23  1  0
 24 25  2  0
 26 25  1  0
 27 26  1  0
 28 27  2  0
 28 24  1  0
 29 30  1  0
 31 29  2  0
M  END
$$$$
