DYH.pdb
     RDKit          3D

 31 32  0  0  1  0  0  0  0  0999 V2000
   24.2196  -15.1245  -16.3016 N   0  0  0  0  0  0  0  0  0  0  0  0
   23.2586  -14.1438  -16.7478 C   0  0  1  0  0  0  0  0  0  0  0  0
   21.8406  -14.4995  -16.3300 C   0  0  0  0  0  0  0  0  0  0  0  0
   21.4567  -15.8175  -16.8577 C   0  0  0  0  0  0  0  0  0  0  0  0
   21.1255  -16.7289  -16.0758 O   0  0  0  0  0  0  0  0  0  0  0  0
   23.5187  -12.8003  -16.1323 C   0  0  0  0  0  0  0  0  0  0  0  0
   23.6154  -12.6037  -14.9003 O   0  0  0  0  0  0  0  0  0  0  0  0
   21.4539  -16.0739  -18.2120 O   0  0  0  0  0  0  0  0  0  0  0  0
   29.7149  -13.0623  -16.1383 O   0  0  0  0  0  0  0  0  0  0  0  0
   28.5961  -12.2270  -16.3149 C   0  0  0  0  0  0  0  0  0  0  0  0
   28.1788  -11.4221  -15.2950 C   0  0  0  0  0  0  0  0  0  0  0  0
   27.0685  -10.6113  -15.5128 C   0  0  0  0  0  0  0  0  0  0  0  0
   26.3863  -10.5921  -16.7022 C   0  0  0  0  0  0  0  0  0  0  0  0
   25.2257   -9.7144  -16.8544 C   0  0  0  0  0  0  0  0  0  0  0  0
   23.9213  -10.3147  -16.3587 C   0  0  2  0  0  0  0  0  0  0  0  0
   23.6809  -11.6127  -16.9469 N   0  0  0  0  0  0  0  0  0  0  0  0
   22.7862   -9.3881  -16.4524 C   0  0  0  0  0  0  0  0  0  0  0  0
   22.0672   -9.4162  -17.4789 O   0  0  0  0  0  0  0  0  0  0  0  0
   26.8217  -11.4091  -17.7182 C   0  0  0  0  0  0  0  0  0  0  0  0
   27.9150  -12.2113  -17.5113 C   0  0  0  0  0  0  0  0  0  0  0  0
   22.4225   -8.4397  -15.4584 N   0  0  0  0  0  0  0  0  0  0  0  0
   21.1702   -7.6709  -15.5750 C   0  0  1  0  0  0  0  0  0  0  0  0
   19.9938   -8.6094  -15.6782 C   0  0  0  0  0  0  0  0  0  0  0  0
   18.7385   -7.8234  -15.7952 C   0  0  0  0  0  0  0  0  0  0  0  0
   18.2320   -6.8787  -14.9293 C   0  0  0  0  0  0  0  0  0  0  0  0
   17.0661   -6.4425  -15.4369 N   0  0  0  0  0  0  0  0  0  0  0  0
   16.8165   -7.0762  -16.5911 C   0  0  0  0  0  0  0  0  0  0  0  0
   17.8264   -7.9140  -16.8125 N   0  0  0  0  0  0  0  0  0  0  0  0
   21.0415   -6.6981  -14.4901 C   0  0  0  0  0  0  0  0  0  0  0  0
   21.5042   -7.1079  -13.2208 O   0  0  0  0  0  0  0  0  0  0  0  0
   20.5725   -5.5457  -14.5508 O   0  0  0  0  0  0  0  0  0  0  0  0
  2  1  1  1
  3  2  1  0
  3  4  1  0
  4  5  2  0
  6  2  1  0
  6  7  2  0
  8  4  1  0
  9 10  1  0
 10 20  2  0
 10 11  1  0
 11 12  2  0
 12 13  1  0
 13 14  1  0
 15 14  1  6
 15 16  1  0
 16  6  1  0
 17 15  1  0
 18 17  2  0
 19 13  2  0
 20 19  1  0
 21 17  1  0
 22 21  1  0
 22 29  1  0
 22 23  1  1
 24 23  1  0
 24 25  2  0
 26 25  1  0
 27 26  1  0
 28 27  2  0
 28 24  1  0
 29 30  1  0
 31 29  2  0
M  END
$$$$
