AVN.pdb
     RDKit          3D

 21 20  0  0  1  0  0  0  0  0999 V2000
   16.1842  -12.0149  -12.9484 C   0  0  0  0  0  0  0  0  0  0  0  0
   15.5158  -11.8891  -11.5984 C   0  0  2  0  0  0  0  0  0  0  0  0
   14.3079  -12.6903  -11.6184 N   0  0  0  0  0  0  0  0  0  0  0  0
   15.1776  -10.4367  -11.4251 C   0  0  0  0  0  0  0  0  0  0  0  0
   14.3091   -9.9185  -12.1538 O   0  0  0  0  0  0  0  0  0  0  0  0
   15.4796   -6.3578   -8.5898 C   0  0  0  0  0  0  0  0  0  0  0  0
   15.4839   -7.8266   -8.8302 C   0  0  1  0  0  0  0  0  0  0  0  0
   14.2128   -8.4292   -8.2402 C   0  0  0  0  0  0  0  0  0  0  0  0
   15.5441   -8.2258  -10.2689 C   0  0  2  0  0  0  0  0  0  0  0  0
   15.8100   -9.6221  -10.4589 N   0  0  0  0  0  0  0  0  0  0  0  0
   16.4318   -7.3591  -11.0905 C   0  0  0  0  0  0  0  0  0  0  0  0
   17.6541   -7.2614  -10.8131 O   0  0  0  0  0  0  0  0  0  0  0  0
   16.0280   -7.6042  -15.9356 N   0  0  0  0  0  0  0  0  0  0  0  0
   16.9392   -6.9695  -15.0526 C   0  0  0  0  0  0  0  0  0  0  0  0
   18.0402   -7.5304  -14.8336 O   0  0  0  0  0  0  0  0  0  0  0  0
   16.6274   -5.6996  -14.4051 C   0  0  0  0  0  0  0  0  0  0  0  0
   16.8202   -5.6913  -12.9057 C   0  0  2  0  0  0  0  0  0  0  0  0
   15.9716   -6.6081  -12.2069 N   0  0  0  0  0  0  0  0  0  0  0  0
   16.5646   -4.3292  -12.3896 C   0  0  0  0  0  0  0  0  0  0  0  0
   15.5370   -4.1168  -11.7114 O   0  0  0  0  0  0  0  0  0  0  0  0
   17.4326   -3.2889  -12.6387 O   0  0  0  0  0  0  0  0  0  0  0  0
  2  1  1  6
  2  4  1  0
  3  2  1  0
  4  5  2  0
  7  6  1  6
  7  8  1  0
  7  9  1  0
  9 11  1  0
 10  4  1  0
  9 10  1  1
 11 12  2  0
 11 18  1  0
 13 14  1  0
 14 15  2  0
 17 16  1  6
 16 14  1  0
 17 19  1  0
 18 17  1  0
 19 20  2  0
 19 21  1  0
M  END
$$$$
