AVN.pdb
     RDKit          3D

 21 20  0  0  1  0  0  0  0  0999 V2000
   17.8314   -9.9100  -12.6266 C   0  0  0  0  0  0  0  0  0  0  0  0
   16.8194  -10.3973  -11.6149 C   0  0  2  0  0  0  0  0  0  0  0  0
   15.9627  -11.3677  -12.2674 N   0  0  0  0  0  0  0  0  0  0  0  0
   16.0240   -9.1949  -11.1960 C   0  0  0  0  0  0  0  0  0  0  0  0
   15.1446   -8.7464  -11.9571 O   0  0  0  0  0  0  0  0  0  0  0  0
   14.4446   -6.3916   -7.4218 C   0  0  0  0  0  0  0  0  0  0  0  0
   15.0392   -7.6079   -8.0402 C   0  0  1  0  0  0  0  0  0  0  0  0
   14.0248   -8.7450   -7.9722 C   0  0  0  0  0  0  0  0  0  0  0  0
   15.4420   -7.4505   -9.4705 C   0  0  2  0  0  0  0  0  0  0  0  0
   16.2325   -8.5421   -9.9602 N   0  0  0  0  0  0  0  0  0  0  0  0
   16.0470   -6.1258   -9.7763 C   0  0  0  0  0  0  0  0  0  0  0  0
   17.2141   -5.8594   -9.3926 O   0  0  0  0  0  0  0  0  0  0  0  0
   16.9214   -1.2813  -11.5847 N   0  0  0  0  0  0  0  0  0  0  0  0
   16.4821   -2.1764  -12.5940 C   0  0  0  0  0  0  0  0  0  0  0  0
   16.5444   -1.7985  -13.7890 O   0  0  0  0  0  0  0  0  0  0  0  0
   15.9681   -3.5044  -12.2760 C   0  0  0  0  0  0  0  0  0  0  0  0
   15.9866   -3.8531  -10.8050 C   0  0  2  0  0  0  0  0  0  0  0  0
   15.3673   -5.1066  -10.4985 N   0  0  0  0  0  0  0  0  0  0  0  0
   15.2953   -2.7900  -10.0441 C   0  0  0  0  0  0  0  0  0  0  0  0
   14.0636   -2.8783   -9.8543 O   0  0  0  0  0  0  0  0  0  0  0  0
   15.9771   -1.7045   -9.5394 O   0  0  0  0  0  0  0  0  0  0  0  0
  2  1  1  6
  2  4  1  0
  3  2  1  0
  4  5  2  0
  7  6  1  6
  7  8  1  0
  7  9  1  0
  9 11  1  0
 10  4  1  0
  9 10  1  1
 11 12  2  0
 11 18  1  0
 13 14  1  0
 14 15  2  0
 17 16  1  6
 16 14  1  0
 17 19  1  0
 18 17  1  0
 19 20  2  0
 19 21  1  0
M  END
$$$$
