AVN.pdb
     RDKit          3D

 21 20  0  0  1  0  0  0  0  0999 V2000
   23.5324  -16.0734  -15.2246 C   0  0  0  0  0  0  0  0  0  0  0  0
   23.2784  -16.7117  -16.5711 C   0  0  2  0  0  0  0  0  0  0  0  0
   23.6421  -18.1121  -16.4807 N   0  0  0  0  0  0  0  0  0  0  0  0
   24.1664  -16.0026  -17.5522 C   0  0  0  0  0  0  0  0  0  0  0  0
   25.3671  -16.3263  -17.6369 O   0  0  0  0  0  0  0  0  0  0  0  0
   24.5666  -13.7778  -21.8781 C   0  0  0  0  0  0  0  0  0  0  0  0
   23.8261  -14.4605  -20.7824 C   0  0  1  0  0  0  0  0  0  0  0  0
   23.7088  -15.9450  -21.1132 C   0  0  0  0  0  0  0  0  0  0  0  0
   24.4602  -14.3498  -19.4339 C   0  0  2  0  0  0  0  0  0  0  0  0
   23.6928  -14.9711  -18.3940 N   0  0  0  0  0  0  0  0  0  0  0  0
   24.8783  -12.9650  -19.0845 C   0  0  0  0  0  0  0  0  0  0  0  0
   24.0183  -12.0565  -18.9608 O   0  0  0  0  0  0  0  0  0  0  0  0
   28.8627  -12.8829  -16.3140 N   0  0  0  0  0  0  0  0  0  0  0  0
   27.9709  -11.8068  -16.5576 C   0  0  0  0  0  0  0  0  0  0  0  0
   27.2063  -11.4493  -15.6289 O   0  0  0  0  0  0  0  0  0  0  0  0
   27.9255  -11.1193  -17.8437 C   0  0  0  0  0  0  0  0  0  0  0  0
   26.6099  -11.2408  -18.5786 C   0  0  2  0  0  0  0  0  0  0  0  0
   26.2339  -12.5897  -18.8751 N   0  0  0  0  0  0  0  0  0  0  0  0
   26.6899  -10.4865  -19.8481 C   0  0  0  0  0  0  0  0  0  0  0  0
   27.0938  -11.0670  -20.8781 O   0  0  0  0  0  0  0  0  0  0  0  0
   26.3296   -9.1589  -19.9221 O   0  0  0  0  0  0  0  0  0  0  0  0
  2  1  1  1
  2  4  1  0
  3  2  1  0
  4  5  2  0
  7  6  1  6
  7  8  1  0
  7  9  1  0
  9 11  1  0
 10  4  1  0
  9 10  1  1
 11 12  2  0
 11 18  1  0
 13 14  1  0
 14 15  2  0
 17 16  1  6
 16 14  1  0
 17 19  1  0
 18 17  1  0
 19 20  2  0
 19 21  1  0
M  END
$$$$
