AVN.pdb
     RDKit          3D

 21 20  0  0  1  0  0  0  0  0999 V2000
   24.7919  -11.7454  -15.0382 C   0  0  0  0  0  0  0  0  0  0  0  0
   23.6811  -12.4100  -15.8191 C   0  0  2  0  0  0  0  0  0  0  0  0
   24.2759  -13.1061  -16.9430 N   0  0  0  0  0  0  0  0  0  0  0  0
   22.7824  -11.3085  -16.3017 C   0  0  0  0  0  0  0  0  0  0  0  0
   23.1207  -10.6313  -17.2920 O   0  0  0  0  0  0  0  0  0  0  0  0
   18.2527   -9.4158  -16.6089 C   0  0  0  0  0  0  0  0  0  0  0  0
   19.2606  -10.4776  -16.3408 C   0  0  1  0  0  0  0  0  0  0  0  0
   19.3109  -11.4261  -17.5344 C   0  0  0  0  0  0  0  0  0  0  0  0
   20.6491   -9.9784  -16.1053 C   0  0  2  0  0  0  0  0  0  0  0  0
   21.5542  -11.0032  -15.6730 N   0  0  0  0  0  0  0  0  0  0  0  0
   20.7078   -8.7656  -15.2450 C   0  0  0  0  0  0  0  0  0  0  0  0
   20.4952   -8.8554  -14.0092 O   0  0  0  0  0  0  0  0  0  0  0  0
   22.8114   -4.0567  -13.2693 N   0  0  0  0  0  0  0  0  0  0  0  0
   22.1523   -4.0904  -14.5252 C   0  0  0  0  0  0  0  0  0  0  0  0
   21.5990   -3.0402  -14.9323 O   0  0  0  0  0  0  0  0  0  0  0  0
   22.1056   -5.3007  -15.3389 C   0  0  0  0  0  0  0  0  0  0  0  0
   21.0891   -6.3253  -14.8889 C   0  0  2  0  0  0  0  0  0  0  0  0
   20.9979   -7.4671  -15.7472 N   0  0  0  0  0  0  0  0  0  0  0  0
   19.7567   -5.6882  -14.8127 C   0  0  0  0  0  0  0  0  0  0  0  0
   19.0640   -5.5973  -15.8485 O   0  0  0  0  0  0  0  0  0  0  0  0
   19.2610   -5.1927  -13.6267 O   0  0  0  0  0  0  0  0  0  0  0  0
  2  1  1  1
  2  4  1  0
  3  2  1  0
  4  5  2  0
  7  6  1  6
  7  8  1  0
  7  9  1  0
  9 11  1  0
 10  4  1  0
  9 10  1  1
 11 12  2  0
 11 18  1  0
 13 14  1  0
 14 15  2  0
 17 16  1  6
 16 14  1  0
 17 19  1  0
 18 17  1  0
 19 20  2  0
 19 21  1  0
M  END
$$$$
