AVN.pdb
     RDKit          3D

 21 20  0  0  1  0  0  0  0  0999 V2000
   17.8888  -10.0904  -18.5380 C   0  0  0  0  0  0  0  0  0  0  0  0
   18.7932  -11.1434  -17.9393 C   0  0  2  0  0  0  0  0  0  0  0  0
   17.9984  -12.3298  -17.6901 N   0  0  0  0  0  0  0  0  0  0  0  0
   19.3080  -10.5775  -16.6476 C   0  0  0  0  0  0  0  0  0  0  0  0
   18.5324  -10.4569  -15.6792 O   0  0  0  0  0  0  0  0  0  0  0  0
   23.5397  -10.3935  -15.6457 C   0  0  0  0  0  0  0  0  0  0  0  0
   22.3602  -10.3413  -14.7396 C   0  0  1  0  0  0  0  0  0  0  0  0
   22.7683   -9.6682  -13.4330 C   0  0  0  0  0  0  0  0  0  0  0  0
   21.1859   -9.5934  -15.2822 C   0  0  2  0  0  0  0  0  0  0  0  0
   20.6510  -10.1706  -16.4810 N   0  0  0  0  0  0  0  0  0  0  0  0
   21.4194   -8.1293  -15.4091 C   0  0  0  0  0  0  0  0  0  0  0  0
   22.1900   -7.6860  -16.2980 O   0  0  0  0  0  0  0  0  0  0  0  0
   21.2728   -2.9391  -14.9927 N   0  0  0  0  0  0  0  0  0  0  0  0
   19.9930   -3.4854  -14.7159 C   0  0  0  0  0  0  0  0  0  0  0  0
   19.0290   -2.6944  -14.5754 O   0  0  0  0  0  0  0  0  0  0  0  0
   19.7789   -4.9236  -14.5935 C   0  0  0  0  0  0  0  0  0  0  0  0
   21.0304   -5.7616  -14.7235 C   0  0  2  0  0  0  0  0  0  0  0  0
   20.8072   -7.1660  -14.5607 N   0  0  0  0  0  0  0  0  0  0  0  0
   22.0169   -5.3233  -13.7126 C   0  0  0  0  0  0  0  0  0  0  0  0
   21.9665   -5.8066  -12.5616 O   0  0  0  0  0  0  0  0  0  0  0  0
   22.9901   -4.3947  -14.0099 O   0  0  0  0  0  0  0  0  0  0  0  0
  2  1  1  1
  2  4  1  0
  3  2  1  0
  4  5  2  0
  7  6  1  6
  7  8  1  0
  7  9  1  0
  9 11  1  0
 10  4  1  0
  9 10  1  6
 11 12  2  0
 11 18  1  0
 13 14  1  0
 14 15  2  0
 17 16  1  1
 16 14  1  0
 17 19  1  0
 18 17  1  0
 19 20  2  0
 19 21  1  0
M  END
$$$$
