AVN.pdb
     RDKit          3D

 21 20  0  0  1  0  0  0  0  0999 V2000
   17.1804  -10.4728  -17.6968 C   0  0  0  0  0  0  0  0  0  0  0  0
   18.1553  -11.5447  -17.2657 C   0  0  2  0  0  0  0  0  0  0  0  0
   17.3938  -12.6561  -16.7307 N   0  0  0  0  0  0  0  0  0  0  0  0
   19.0126  -10.9341  -16.1951 C   0  0  0  0  0  0  0  0  0  0  0  0
   18.5482  -10.7872  -15.0477 O   0  0  0  0  0  0  0  0  0  0  0  0
   23.3392  -10.7126  -16.5419 C   0  0  0  0  0  0  0  0  0  0  0  0
   22.5045  -10.6874  -15.3099 C   0  0  1  0  0  0  0  0  0  0  0  0
   23.2956  -10.0212  -14.1886 C   0  0  0  0  0  0  0  0  0  0  0  0
   21.2107   -9.9521  -15.4447 C   0  0  2  0  0  0  0  0  0  0  0  0
   20.3401  -10.5139  -16.4361 N   0  0  0  0  0  0  0  0  0  0  0  0
   21.3750   -8.4811  -15.5974 C   0  0  0  0  0  0  0  0  0  0  0  0
   21.6224   -7.9857  -16.7261 O   0  0  0  0  0  0  0  0  0  0  0  0
   19.1830   -3.1526  -14.3765 N   0  0  0  0  0  0  0  0  0  0  0  0
   20.1108   -4.0130  -15.0181 C   0  0  0  0  0  0  0  0  0  0  0  0
   21.0168   -3.4938  -15.7142 O   0  0  0  0  0  0  0  0  0  0  0  0
   20.0342   -5.4642  -14.8874 C   0  0  0  0  0  0  0  0  0  0  0  0
   21.3671   -6.1525  -14.7001 C   0  0  2  0  0  0  0  0  0  0  0  0
   21.2674   -7.5680  -14.5125 N   0  0  0  0  0  0  0  0  0  0  0  0
   22.0546   -5.5712  -13.5269 C   0  0  0  0  0  0  0  0  0  0  0  0
   22.0370   -6.1896  -12.4414 O   0  0  0  0  0  0  0  0  0  0  0  0
   22.7141   -4.3641  -13.6023 O   0  0  0  0  0  0  0  0  0  0  0  0
  2  1  1  1
  2  4  1  0
  3  2  1  0
  4  5  2  0
  7  6  1  6
  7  8  1  0
  7  9  1  0
  9 11  1  0
 10  4  1  0
  9 10  1  6
 11 12  2  0
 11 18  1  0
 13 14  1  0
 14 15  2  0
 17 16  1  1
 16 14  1  0
 17 19  1  0
 18 17  1  0
 19 20  2  0
 19 21  1  0
M  END
$$$$
