AWD.pdb
     RDKit          3D

 28 29  0  0  1  0  0  0  0  0999 V2000
   27.2805  -22.2627  -17.7048 C   0  0  0  0  0  0  0  0  0  0  0  0
   27.9851  -22.2719  -16.3634 C   0  0  2  0  0  0  0  0  0  0  0  0
   28.7684  -23.4738  -16.2752 N   0  0  0  0  0  0  0  0  0  0  0  0
   26.9936  -22.2085  -15.2427 C   0  0  0  0  0  0  0  0  0  0  0  0
   26.3704  -23.2731  -14.9439 O   0  0  0  0  0  0  0  0  0  0  0  0
   26.8019  -20.9716  -14.5761 N   0  0  0  0  0  0  0  0  0  0  0  0
   25.8927  -20.8639  -13.4570 C   0  0  1  0  0  0  0  0  0  0  0  0
   26.4021  -19.8830  -12.4601 C   0  0  0  0  0  0  0  0  0  0  0  0
   27.3847  -20.4210  -11.5278 C   0  0  0  0  0  0  0  0  0  0  0  0
   28.6475  -20.8647  -11.8654 C   0  0  0  0  0  0  0  0  0  0  0  0
   29.2329  -21.2775  -10.7254 N   0  0  0  0  0  0  0  0  0  0  0  0
   28.3754  -21.1055   -9.6882 C   0  0  0  0  0  0  0  0  0  0  0  0
   28.4851  -21.3664   -8.3299 C   0  0  0  0  0  0  0  0  0  0  0  0
   27.4183  -21.0807   -7.4896 C   0  0  0  0  0  0  0  0  0  0  0  0
   26.2506  -20.5383   -8.0027 C   0  0  0  0  0  0  0  0  0  0  0  0
   26.1125  -20.2714   -9.3319 C   0  0  0  0  0  0  0  0  0  0  0  0
   27.1975  -20.5658  -10.1602 C   0  0  0  0  0  0  0  0  0  0  0  0
   24.5472  -20.5408  -13.9899 C   0  0  0  0  0  0  0  0  0  0  0  0
   24.3815  -19.6773  -14.8811 O   0  0  0  0  0  0  0  0  0  0  0  0
   23.3629  -21.1976  -13.5150 N   0  0  0  0  0  0  0  0  0  0  0  0
   22.0645  -20.9301  -14.0652 C   0  0  1  0  0  0  0  0  0  0  0  0
   21.1580  -22.1418  -14.0354 C   0  0  0  0  0  0  0  0  0  0  0  0
   20.6948  -22.2943  -12.6449 C   0  0  0  0  0  0  0  0  0  0  0  0
   21.5300  -22.3276  -11.7176 O   0  0  0  0  0  0  0  0  0  0  0  0
   21.4051  -19.8717  -13.2624 C   0  0  0  0  0  0  0  0  0  0  0  0
   21.9469  -19.4702  -12.1850 O   0  0  0  0  0  0  0  0  0  0  0  0
   19.3500  -22.3992  -12.3740 O   0  0  0  0  0  0  0  0  0  0  0  0
   20.2090  -19.3163  -13.6707 O   0  0  0  0  0  0  0  0  0  0  0  0
  2  1  1  6
  3  2  1  0
  4  5  2  0
  4  2  1  0
  6  4  1  0
  7  6  1  0
  7  8  1  1
  9 17  1  0
  9  8  1  0
 10  9  2  0
 11 10  1  0
 11 12  1  0
 12 13  1  0
 12 17  2  0
 13 14  2  0
 14 15  1  0
 16 15  2  0
 17 16  1  0
 18 19  2  0
 18  7  1  0
 20 18  1  0
 21 22  1  1
 21 20  1  0
 23 24  2  0
 23 22  1  0
 25 21  1  0
 26 25  2  0
 27 23  1  0
 28 25  1  0
M  END
$$$$
