AWD.pdb
     RDKit          3D

 28 29  0  0  1  0  0  0  0  0999 V2000
   13.4764  -22.8859    3.3521 C   0  0  0  0  0  0  0  0  0  0  0  0
   14.1673  -21.9386    2.3923 C   0  0  2  0  0  0  0  0  0  0  0  0
   14.6492  -22.7034    1.2748 N   0  0  0  0  0  0  0  0  0  0  0  0
   15.2992  -21.2291    3.0695 C   0  0  0  0  0  0  0  0  0  0  0  0
   16.4506  -21.7595    3.0080 O   0  0  0  0  0  0  0  0  0  0  0  0
   15.0301  -20.0091    3.7405 N   0  0  0  0  0  0  0  0  0  0  0  0
   16.0932  -19.2560    4.3675 C   0  0  1  0  0  0  0  0  0  0  0  0
   16.1252  -17.8617    3.8475 C   0  0  0  0  0  0  0  0  0  0  0  0
   17.1357  -17.6187    2.8258 C   0  0  0  0  0  0  0  0  0  0  0  0
   17.6246  -18.5624    1.9449 C   0  0  0  0  0  0  0  0  0  0  0  0
   18.5331  -17.9391    1.1712 N   0  0  0  0  0  0  0  0  0  0  0  0
   18.6264  -16.6373    1.5417 C   0  0  0  0  0  0  0  0  0  0  0  0
   19.3993  -15.5842    1.0743 C   0  0  0  0  0  0  0  0  0  0  0  0
   19.2787  -14.3329    1.6622 C   0  0  0  0  0  0  0  0  0  0  0  0
   18.3923  -14.1354    2.7093 C   0  0  0  0  0  0  0  0  0  0  0  0
   17.6202  -15.1499    3.1905 C   0  0  0  0  0  0  0  0  0  0  0  0
   17.7563  -16.4008    2.5851 C   0  0  0  0  0  0  0  0  0  0  0  0
   15.9154  -19.3493    5.8366 C   0  0  0  0  0  0  0  0  0  0  0  0
   14.7816  -19.3154    6.3665 O   0  0  0  0  0  0  0  0  0  0  0  0
   17.0298  -19.4829    6.7309 N   0  0  0  0  0  0  0  0  0  0  0  0
   16.8710  -19.4974    8.1573 C   0  0  1  0  0  0  0  0  0  0  0  0
   18.0689  -20.0861    8.8711 C   0  0  0  0  0  0  0  0  0  0  0  0
   17.9014  -21.5499    8.8502 C   0  0  0  0  0  0  0  0  0  0  0  0
   16.7582  -22.0375    8.7315 O   0  0  0  0  0  0  0  0  0  0  0  0
   16.7143  -18.1050    8.6432 C   0  0  0  0  0  0  0  0  0  0  0  0
   16.8171  -17.1381    7.8247 O   0  0  0  0  0  0  0  0  0  0  0  0
   18.9997  -22.3710    8.9613 O   0  0  0  0  0  0  0  0  0  0  0  0
   16.4577  -17.8453    9.9746 O   0  0  0  0  0  0  0  0  0  0  0  0
  2  1  1  1
  3  2  1  0
  4  5  2  0
  4  2  1  0
  6  4  1  0
  7  6  1  0
  7  8  1  6
  9 17  1  0
  9  8  1  0
 10  9  2  0
 11 10  1  0
 11 12  1  0
 12 13  1  0
 12 17  2  0
 13 14  2  0
 14 15  1  0
 16 15  2  0
 17 16  1  0
 18 19  2  0
 18  7  1  0
 20 18  1  0
 21 22  1  1
 21 20  1  0
 23 24  2  0
 23 22  1  0
 25 21  1  0
 26 25  2  0
 27 23  1  0
 28 25  1  0
M  END
$$$$
