AWD.pdb
     RDKit          3D

 28 29  0  0  1  0  0  0  0  0999 V2000
   27.4924  -17.6605  -15.0264 C   0  0  0  0  0  0  0  0  0  0  0  0
   28.1774  -19.0111  -15.0797 C   0  0  2  0  0  0  0  0  0  0  0  0
   28.4413  -19.3272  -16.4568 N   0  0  0  0  0  0  0  0  0  0  0  0
   27.3184  -20.0668  -14.4545 C   0  0  0  0  0  0  0  0  0  0  0  0
   26.4818  -20.6651  -15.1981 O   0  0  0  0  0  0  0  0  0  0  0  0
   27.4816  -20.3433  -13.0732 N   0  0  0  0  0  0  0  0  0  0  0  0
   26.6828  -21.3553  -12.4188 C   0  0  1  0  0  0  0  0  0  0  0  0
   27.3065  -21.7638  -11.1306 C   0  0  0  0  0  0  0  0  0  0  0  0
   26.8908  -20.9741   -9.9784 C   0  0  0  0  0  0  0  0  0  0  0  0
   25.6430  -20.4099   -9.8044 C   0  0  0  0  0  0  0  0  0  0  0  0
   25.6668  -19.7697   -8.6203 N   0  0  0  0  0  0  0  0  0  0  0  0
   26.8894  -19.9165   -8.0508 C   0  0  0  0  0  0  0  0  0  0  0  0
   27.4255  -19.4614   -6.8548 C   0  0  0  0  0  0  0  0  0  0  0  0
   28.7376  -19.7754   -6.5294 C   0  0  0  0  0  0  0  0  0  0  0  0
   29.5081  -20.5383   -7.3927 C   0  0  0  0  0  0  0  0  0  0  0  0
   29.0100  -20.9992   -8.5744 C   0  0  0  0  0  0  0  0  0  0  0  0
   27.6878  -20.6727   -8.8829 C   0  0  0  0  0  0  0  0  0  0  0  0
   25.3022  -20.8315  -12.2827 C   0  0  0  0  0  0  0  0  0  0  0  0
   25.0718  -19.6993  -11.8004 O   0  0  0  0  0  0  0  0  0  0  0  0
   24.1563  -21.5908  -12.6944 N   0  0  0  0  0  0  0  0  0  0  0  0
   22.9193  -20.9686  -13.0725 C   0  0  1  0  0  0  0  0  0  0  0  0
   22.5249  -21.2762  -14.5010 C   0  0  0  0  0  0  0  0  0  0  0  0
   21.2234  -20.6258  -14.7340 C   0  0  0  0  0  0  0  0  0  0  0  0
   20.1711  -21.2337  -14.4482 O   0  0  0  0  0  0  0  0  0  0  0  0
   21.8329  -21.4773  -12.2005 C   0  0  0  0  0  0  0  0  0  0  0  0
   21.0653  -20.6557  -11.6080 O   0  0  0  0  0  0  0  0  0  0  0  0
   21.1719  -19.3570  -15.2635 O   0  0  0  0  0  0  0  0  0  0  0  0
   21.6444  -22.8335  -12.0239 O   0  0  0  0  0  0  0  0  0  0  0  0
  2  1  1  6
  3  2  1  0
  4  5  2  0
  4  2  1  0
  6  4  1  0
  7  6  1  0
  7  8  1  1
  9 17  1  0
  9  8  1  0
 10  9  2  0
 11 10  1  0
 11 12  1  0
 12 13  1  0
 12 17  2  0
 13 14  2  0
 14 15  1  0
 16 15  2  0
 17 16  1  0
 18 19  2  0
 18  7  1  0
 20 18  1  0
 21 22  1  6
 21 20  1  0
 23 24  2  0
 23 22  1  0
 25 21  1  0
 26 25  2  0
 27 23  1  0
 28 25  1  0
M  END
$$$$
