AWD.pdb
     RDKit          3D

 28 29  0  0  1  0  0  0  0  0999 V2000
   27.7126  -19.6126  -14.6087 C   0  0  0  0  0  0  0  0  0  0  0  0
   28.0693  -20.9293  -13.9491 C   0  0  2  0  0  0  0  0  0  0  0  0
   27.8195  -21.9861  -14.8908 N   0  0  0  0  0  0  0  0  0  0  0  0
   27.2629  -21.1348  -12.7040 C   0  0  0  0  0  0  0  0  0  0  0  0
   26.1634  -21.7601  -12.8082 O   0  0  0  0  0  0  0  0  0  0  0  0
   27.7643  -20.6244  -11.4796 N   0  0  0  0  0  0  0  0  0  0  0  0
   27.0364  -20.8093  -10.2440 C   0  0  1  0  0  0  0  0  0  0  0  0
   27.8923  -20.4680   -9.0751 C   0  0  0  0  0  0  0  0  0  0  0  0
   27.2130  -20.5313   -7.7873 C   0  0  0  0  0  0  0  0  0  0  0  0
   25.9186  -20.9675   -7.5870 C   0  0  0  0  0  0  0  0  0  0  0  0
   25.6754  -20.8718   -6.2663 N   0  0  0  0  0  0  0  0  0  0  0  0
   26.7765  -20.3899   -5.6370 C   0  0  0  0  0  0  0  0  0  0  0  0
   27.0454  -20.1084   -4.3053 C   0  0  0  0  0  0  0  0  0  0  0  0
   28.2914  -19.6121   -3.9487 C   0  0  0  0  0  0  0  0  0  0  0  0
   29.2612  -19.3985   -4.9155 C   0  0  0  0  0  0  0  0  0  0  0  0
   29.0270  -19.6649   -6.2312 C   0  0  0  0  0  0  0  0  0  0  0  0
   27.7674  -20.1639   -6.5691 C   0  0  0  0  0  0  0  0  0  0  0  0
   25.7844  -20.0192  -10.3277 C   0  0  0  0  0  0  0  0  0  0  0  0
   25.7960  -18.7890  -10.5600 O   0  0  0  0  0  0  0  0  0  0  0  0
   24.4930  -20.6185  -10.1472 N   0  0  0  0  0  0  0  0  0  0  0  0
   23.3520  -20.2313  -10.9271 C   0  0  1  0  0  0  0  0  0  0  0  0
   23.4734  -20.6393  -12.3796 C   0  0  0  0  0  0  0  0  0  0  0  0
   22.2604  -20.1552  -13.0618 C   0  0  0  0  0  0  0  0  0  0  0  0
   21.4065  -19.5116  -12.4173 O   0  0  0  0  0  0  0  0  0  0  0  0
   22.1437  -20.8994  -10.3856 C   0  0  0  0  0  0  0  0  0  0  0  0
   21.0086  -20.6651  -10.9072 O   0  0  0  0  0  0  0  0  0  0  0  0
   22.0731  -20.4127  -14.4003 O   0  0  0  0  0  0  0  0  0  0  0  0
   22.2362  -21.7735   -9.3212 O   0  0  0  0  0  0  0  0  0  0  0  0
  2  1  1  6
  3  2  1  0
  4  5  2  0
  4  2  1  0
  6  4  1  0
  7  6  1  0
  7  8  1  1
  9 17  1  0
  9  8  1  0
 10  9  2  0
 11 10  1  0
 11 12  1  0
 12 13  1  0
 12 17  2  0
 13 14  2  0
 14 15  1  0
 16 15  2  0
 17 16  1  0
 18 19  2  0
 18  7  1  0
 20 18  1  0
 21 22  1  6
 21 20  1  0
 23 24  2  0
 23 22  1  0
 25 21  1  0
 26 25  2  0
 27 23  1  0
 28 25  1  0
M  END
$$$$
