AWD.pdb
     RDKit          3D

 28 29  0  0  1  0  0  0  0  0999 V2000
   26.0212  -22.6129  -18.3566 C   0  0  0  0  0  0  0  0  0  0  0  0
   27.0011  -22.5197  -17.2045 C   0  0  2  0  0  0  0  0  0  0  0  0
   27.8848  -23.6512  -17.2734 N   0  0  0  0  0  0  0  0  0  0  0  0
   26.2779  -22.4981  -15.8932 C   0  0  0  0  0  0  0  0  0  0  0  0
   26.1253  -23.6010  -15.2840 O   0  0  0  0  0  0  0  0  0  0  0  0
   25.8033  -21.2556  -15.4011 N   0  0  0  0  0  0  0  0  0  0  0  0
   25.1249  -21.1714  -14.1271 C   0  0  1  0  0  0  0  0  0  0  0  0
   25.6489  -20.0299  -13.3285 C   0  0  0  0  0  0  0  0  0  0  0  0
   26.2956  -20.4103  -12.0790 C   0  0  0  0  0  0  0  0  0  0  0  0
   27.6274  -20.7451  -11.9380 C   0  0  0  0  0  0  0  0  0  0  0  0
   27.8220  -21.0285  -10.6364 N   0  0  0  0  0  0  0  0  0  0  0  0
   26.6542  -20.8814   -9.9615 C   0  0  0  0  0  0  0  0  0  0  0  0
   26.3175  -21.0484   -8.6260 C   0  0  0  0  0  0  0  0  0  0  0  0
   25.0114  -20.8210   -8.2157 C   0  0  0  0  0  0  0  0  0  0  0  0
   24.0491  -20.4296   -9.1331 C   0  0  0  0  0  0  0  0  0  0  0  0
   24.3489  -20.2576  -10.4512 C   0  0  0  0  0  0  0  0  0  0  0  0
   25.6685  -20.4912  -10.8435 C   0  0  0  0  0  0  0  0  0  0  0  0
   23.6667  -21.1075  -14.3883 C   0  0  0  0  0  0  0  0  0  0  0  0
   23.1988  -20.4726  -15.3606 O   0  0  0  0  0  0  0  0  0  0  0  0
   22.7127  -21.7675  -13.5434 N   0  0  0  0  0  0  0  0  0  0  0  0
   21.2978  -21.6755  -13.7665 C   0  0  1  0  0  0  0  0  0  0  0  0
   20.5296  -22.8009  -13.1074 C   0  0  0  0  0  0  0  0  0  0  0  0
   19.1202  -22.6482  -13.5092 C   0  0  0  0  0  0  0  0  0  0  0  0
   18.8289  -21.8922  -14.4591 O   0  0  0  0  0  0  0  0  0  0  0  0
   20.7959  -20.4061  -13.1866 C   0  0  0  0  0  0  0  0  0  0  0  0
   21.0372  -20.1322  -11.9691 O   0  0  0  0  0  0  0  0  0  0  0  0
   18.1342  -23.3357  -12.8397 O   0  0  0  0  0  0  0  0  0  0  0  0
   20.0691  -19.5172  -13.9530 O   0  0  0  0  0  0  0  0  0  0  0  0
  2  1  1  6
  3  2  1  0
  4  5  2  0
  4  2  1  0
  6  4  1  0
  7  6  1  0
  7  8  1  6
  9 17  1  0
  9  8  1  0
 10  9  2  0
 11 10  1  0
 11 12  1  0
 12 13  1  0
 12 17  2  0
 13 14  2  0
 14 15  1  0
 16 15  2  0
 17 16  1  0
 18 19  2  0
 18  7  1  0
 20 18  1  0
 21 22  1  1
 21 20  1  0
 23 24  2  0
 23 22  1  0
 25 21  1  0
 26 25  2  0
 27 23  1  0
 28 25  1  0
M  END
$$$$
