AWD.pdb
     RDKit          3D

 28 29  0  0  1  0  0  0  0  0999 V2000
   26.0176  -21.5253  -16.2683 C   0  0  0  0  0  0  0  0  0  0  0  0
   26.7145  -22.2255  -15.1194 C   0  0  2  0  0  0  0  0  0  0  0  0
   26.9809  -23.5815  -15.5146 N   0  0  0  0  0  0  0  0  0  0  0  0
   25.8651  -22.1958  -13.8862 C   0  0  0  0  0  0  0  0  0  0  0  0
   25.0827  -23.1745  -13.6836 O   0  0  0  0  0  0  0  0  0  0  0  0
   25.9765  -21.0842  -13.0128 N   0  0  0  0  0  0  0  0  0  0  0  0
   25.1211  -20.9615  -11.8536 C   0  0  1  0  0  0  0  0  0  0  0  0
   25.7512  -20.0869  -10.8272 C   0  0  0  0  0  0  0  0  0  0  0  0
   27.0233  -20.5767  -10.3116 C   0  0  0  0  0  0  0  0  0  0  0  0
   27.9265  -21.3487  -11.0144 C   0  0  0  0  0  0  0  0  0  0  0  0
   28.9630  -21.5845  -10.1882 N   0  0  0  0  0  0  0  0  0  0  0  0
   28.7348  -20.9844   -8.9930 C   0  0  0  0  0  0  0  0  0  0  0  0
   29.4745  -20.9215   -7.8209 C   0  0  0  0  0  0  0  0  0  0  0  0
   28.9760  -20.2175   -6.7338 C   0  0  0  0  0  0  0  0  0  0  0  0
   27.7476  -19.5811   -6.8173 C   0  0  0  0  0  0  0  0  0  0  0  0
   26.9978  -19.6252   -7.9544 C   0  0  0  0  0  0  0  0  0  0  0  0
   27.5173  -20.3383   -9.0367 C   0  0  0  0  0  0  0  0  0  0  0  0
   23.7916  -20.4928  -12.3134 C   0  0  0  0  0  0  0  0  0  0  0  0
   23.6642  -19.7531  -13.3154 O   0  0  0  0  0  0  0  0  0  0  0  0
   22.5799  -20.8594  -11.6374 N   0  0  0  0  0  0  0  0  0  0  0  0
   21.3093  -20.8920  -12.3042 C   0  0  1  0  0  0  0  0  0  0  0  0
   21.2531  -21.9341  -13.4005 C   0  0  0  0  0  0  0  0  0  0  0  0
   20.8958  -21.2276  -14.6432 C   0  0  0  0  0  0  0  0  0  0  0  0
   20.6244  -20.0096  -14.6031 O   0  0  0  0  0  0  0  0  0  0  0  0
   20.2532  -21.2352  -11.3212 C   0  0  0  0  0  0  0  0  0  0  0  0
   20.2820  -22.3626  -10.7352 O   0  0  0  0  0  0  0  0  0  0  0  0
   20.8622  -21.9087  -15.8381 O   0  0  0  0  0  0  0  0  0  0  0  0
   19.2381  -20.3447  -11.0342 O   0  0  0  0  0  0  0  0  0  0  0  0
  2  1  1  6
  3  2  1  0
  4  5  2  0
  4  2  1  0
  6  4  1  0
  7  6  1  0
  7  8  1  1
  9 17  1  0
  9  8  1  0
 10  9  2  0
 11 10  1  0
 11 12  1  0
 12 13  1  0
 12 17  2  0
 13 14  2  0
 14 15  1  0
 16 15  2  0
 17 16  1  0
 18 19  2  0
 18  7  1  0
 20 18  1  0
 21 22  1  6
 21 20  1  0
 23 24  2  0
 23 22  1  0
 25 21  1  0
 26 25  2  0
 27 23  1  0
 28 25  1  0
M  END
$$$$
