AWD.pdb
     RDKit          3D

 28 29  0  0  1  0  0  0  0  0999 V2000
   19.4371   -6.6488  -19.9922 C   0  0  0  0  0  0  0  0  0  0  0  0
   20.6430   -6.5612  -19.0788 C   0  0  2  0  0  0  0  0  0  0  0  0
   21.8086   -6.9253  -19.8369 N   0  0  0  0  0  0  0  0  0  0  0  0
   20.4811   -7.4678  -17.8978 C   0  0  0  0  0  0  0  0  0  0  0  0
   20.5331   -8.7195  -18.1018 O   0  0  0  0  0  0  0  0  0  0  0  0
   20.2794   -6.8871  -16.6198 N   0  0  0  0  0  0  0  0  0  0  0  0
   20.1495   -7.7135  -15.4405 C   0  0  1  0  0  0  0  0  0  0  0  0
   21.1871   -7.3579  -14.4343 C   0  0  0  0  0  0  0  0  0  0  0  0
   22.5363   -7.2362  -14.9718 C   0  0  0  0  0  0  0  0  0  0  0  0
   23.3506   -8.2905  -15.3337 C   0  0  0  0  0  0  0  0  0  0  0  0
   24.5031   -7.7569  -15.7805 N   0  0  0  0  0  0  0  0  0  0  0  0
   24.4334   -6.4039  -15.7085 C   0  0  0  0  0  0  0  0  0  0  0  0
   25.3341   -5.4014  -16.0381 C   0  0  0  0  0  0  0  0  0  0  0  0
   24.9784   -4.0731  -15.8514 C   0  0  0  0  0  0  0  0  0  0  0  0
   23.7320   -3.7489  -15.3393 C   0  0  0  0  0  0  0  0  0  0  0  0
   22.8262   -4.7108  -15.0059 C   0  0  0  0  0  0  0  0  0  0  0  0
   23.2033   -6.0409  -15.2016 C   0  0  0  0  0  0  0  0  0  0  0  0
   18.7579   -7.5873  -14.9442 C   0  0  0  0  0  0  0  0  0  0  0  0
   18.3154   -6.5072  -14.4914 O   0  0  0  0  0  0  0  0  0  0  0  0
   17.8433   -8.6931  -14.9546 N   0  0  0  0  0  0  0  0  0  0  0  0
   16.4198   -8.5112  -14.9281 C   0  0  1  0  0  0  0  0  0  0  0  0
   15.9242   -7.6273  -16.0524 C   0  0  0  0  0  0  0  0  0  0  0  0
   15.5866   -6.3239  -15.4536 C   0  0  0  0  0  0  0  0  0  0  0  0
   15.5580   -6.2058  -14.2110 O   0  0  0  0  0  0  0  0  0  0  0  0
   15.7584   -9.8293  -15.0851 C   0  0  0  0  0  0  0  0  0  0  0  0
   14.5006   -9.9242  -14.9289 O   0  0  0  0  0  0  0  0  0  0  0  0
   15.3051   -5.2465  -16.2614 O   0  0  0  0  0  0  0  0  0  0  0  0
   16.4921  -10.9557  -15.3992 O   0  0  0  0  0  0  0  0  0  0  0  0
  2  1  1  6
  3  2  1  0
  4  5  2  0
  4  2  1  0
  6  4  1  0
  7  6  1  0
  7  8  1  1
  9 17  1  0
  9  8  1  0
 10  9  2  0
 11 10  1  0
 11 12  1  0
 12 13  1  0
 12 17  2  0
 13 14  2  0
 14 15  1  0
 16 15  2  0
 17 16  1  0
 18 19  2  0
 18  7  1  0
 20 18  1  0
 21 22  1  6
 21 20  1  0
 23 24  2  0
 23 22  1  0
 25 21  1  0
 26 25  2  0
 27 23  1  0
 28 25  1  0
M  END
$$$$
