AWD.pdb
     RDKit          3D

 28 29  0  0  1  0  0  0  0  0999 V2000
   14.9862  -19.8693    3.9292 C   0  0  0  0  0  0  0  0  0  0  0  0
   14.9534  -18.3575    4.0268 C   0  0  2  0  0  0  0  0  0  0  0  0
   14.8689  -17.8228    2.6953 N   0  0  0  0  0  0  0  0  0  0  0  0
   16.1768  -17.8440    4.7217 C   0  0  0  0  0  0  0  0  0  0  0  0
   17.3055  -18.2577    4.3144 O   0  0  0  0  0  0  0  0  0  0  0  0
   16.0144  -16.9278    5.7919 N   0  0  0  0  0  0  0  0  0  0  0  0
   17.1574  -16.4341    6.5270 C   0  0  1  0  0  0  0  0  0  0  0  0
   16.9362  -15.0262    6.9565 C   0  0  0  0  0  0  0  0  0  0  0  0
   17.5731  -14.0265    6.1086 C   0  0  0  0  0  0  0  0  0  0  0  0
   17.0450  -13.5165    4.9396 C   0  0  0  0  0  0  0  0  0  0  0  0
   17.9360  -12.6252    4.4661 N   0  0  0  0  0  0  0  0  0  0  0  0
   19.0026  -12.5634    5.3023 C   0  0  0  0  0  0  0  0  0  0  0  0
   20.1727  -11.8185    5.2734 C   0  0  0  0  0  0  0  0  0  0  0  0
   21.1054  -11.9692    6.2899 C   0  0  0  0  0  0  0  0  0  0  0  0
   20.8706  -12.8576    7.3275 C   0  0  0  0  0  0  0  0  0  0  0  0
   19.7314  -13.6033    7.3834 C   0  0  0  0  0  0  0  0  0  0  0  0
   18.8057  -13.4366    6.3513 C   0  0  0  0  0  0  0  0  0  0  0  0
   17.4232  -17.3722    7.6441 C   0  0  0  0  0  0  0  0  0  0  0  0
   16.5089  -17.7723    8.4001 O   0  0  0  0  0  0  0  0  0  0  0  0
   18.7395  -17.8723    7.9208 N   0  0  0  0  0  0  0  0  0  0  0  0
   19.0068  -18.7663    9.0115 C   0  0  1  0  0  0  0  0  0  0  0  0
   20.2000  -19.6609    8.7528 C   0  0  0  0  0  0  0  0  0  0  0  0
   19.7100  -21.0498    8.7981 C   0  0  0  0  0  0  0  0  0  0  0  0
   18.7154  -21.3295    9.4990 O   0  0  0  0  0  0  0  0  0  0  0  0
   19.3114  -17.9728   10.2268 C   0  0  0  0  0  0  0  0  0  0  0  0
   19.7795  -16.7970   10.1092 O   0  0  0  0  0  0  0  0  0  0  0  0
   20.3469  -22.0294    8.0717 O   0  0  0  0  0  0  0  0  0  0  0  0
   19.0929  -18.4955   11.4857 O   0  0  0  0  0  0  0  0  0  0  0  0
  2  1  1  6
  3  2  1  0
  4  5  2  0
  4  2  1  0
  6  4  1  0
  7  6  1  0
  7  8  1  1
  9 17  1  0
  9  8  1  0
 10  9  2  0
 11 10  1  0
 11 12  1  0
 12 13  1  0
 12 17  2  0
 13 14  2  0
 14 15  1  0
 16 15  2  0
 17 16  1  0
 18 19  2  0
 18  7  1  0
 20 18  1  0
 21 22  1  6
 21 20  1  0
 23 24  2  0
 23 22  1  0
 25 21  1  0
 26 25  2  0
 27 23  1  0
 28 25  1  0
M  END
$$$$
