AWD.pdb
     RDKit          3D

 28 29  0  0  1  0  0  0  0  0999 V2000
   27.3865  -17.4978  -14.2536 C   0  0  0  0  0  0  0  0  0  0  0  0
   28.0939  -18.6764  -13.6161 C   0  0  2  0  0  0  0  0  0  0  0  0
   29.1703  -19.0760  -14.4807 N   0  0  0  0  0  0  0  0  0  0  0  0
   27.1431  -19.8136  -13.4021 C   0  0  0  0  0  0  0  0  0  0  0  0
   27.0379  -20.6779  -14.3256 O   0  0  0  0  0  0  0  0  0  0  0  0
   26.4133  -19.8678  -12.1874 N   0  0  0  0  0  0  0  0  0  0  0  0
   25.4447  -20.9145  -11.9488 C   0  0  1  0  0  0  0  0  0  0  0  0
   25.2502  -21.1257  -10.4883 C   0  0  0  0  0  0  0  0  0  0  0  0
   26.4010  -20.7739   -9.6663 C   0  0  0  0  0  0  0  0  0  0  0  0
   26.3792  -19.9133   -8.5872 C   0  0  0  0  0  0  0  0  0  0  0  0
   27.6353  -19.8608   -8.1055 N   0  0  0  0  0  0  0  0  0  0  0  0
   28.4394  -20.6609   -8.8498 C   0  0  0  0  0  0  0  0  0  0  0  0
   29.7930  -20.9563   -8.7760 C   0  0  0  0  0  0  0  0  0  0  0  0
   30.3537  -21.8313   -9.6957 C   0  0  0  0  0  0  0  0  0  0  0  0
   29.5678  -22.4068  -10.6817 C   0  0  0  0  0  0  0  0  0  0  0  0
   28.2359  -22.1360  -10.7801 C   0  0  0  0  0  0  0  0  0  0  0  0
   27.6911  -21.2535   -9.8451 C   0  0  0  0  0  0  0  0  0  0  0  0
   24.2029  -20.5643  -12.6796 C   0  0  0  0  0  0  0  0  0  0  0  0
   24.1801  -19.6583  -13.5434 O   0  0  0  0  0  0  0  0  0  0  0  0
   22.9612  -21.2421  -12.4382 N   0  0  0  0  0  0  0  0  0  0  0  0
   21.9632  -21.4007  -13.4575 C   0  0  1  0  0  0  0  0  0  0  0  0
   22.4303  -22.2783  -14.5988 C   0  0  0  0  0  0  0  0  0  0  0  0
   22.3123  -21.4767  -15.8296 C   0  0  0  0  0  0  0  0  0  0  0  0
   21.8559  -20.3163  -15.7675 O   0  0  0  0  0  0  0  0  0  0  0  0
   20.7666  -22.0499  -12.8692 C   0  0  0  0  0  0  0  0  0  0  0  0
   19.6453  -21.4526  -12.9058 O   0  0  0  0  0  0  0  0  0  0  0  0
   22.7033  -22.0067  -17.0375 O   0  0  0  0  0  0  0  0  0  0  0  0
   20.8550  -23.2960  -12.2817 O   0  0  0  0  0  0  0  0  0  0  0  0
  2  1  1  6
  3  2  1  0
  4  5  2  0
  4  2  1  0
  6  4  1  0
  7  6  1  0
  7  8  1  1
  9 17  1  0
  9  8  1  0
 10  9  2  0
 11 10  1  0
 11 12  1  0
 12 13  1  0
 12 17  2  0
 13 14  2  0
 14 15  1  0
 16 15  2  0
 17 16  1  0
 18 19  2  0
 18  7  1  0
 20 18  1  0
 21 22  1  6
 21 20  1  0
 23 24  2  0
 23 22  1  0
 25 21  1  0
 26 25  2  0
 27 23  1  0
 28 25  1  0
M  END
$$$$
