AWD.pdb
     RDKit          3D

 28 29  0  0  1  0  0  0  0  0999 V2000
   28.5950  -22.3889  -15.1735 C   0  0  0  0  0  0  0  0  0  0  0  0
   28.1248  -21.1070  -14.5166 C   0  0  2  0  0  0  0  0  0  0  0  0
   29.2828  -20.3374  -14.1524 N   0  0  0  0  0  0  0  0  0  0  0  0
   27.2915  -21.4047  -13.3082 C   0  0  0  0  0  0  0  0  0  0  0  0
   26.2333  -22.0858  -13.4730 O   0  0  0  0  0  0  0  0  0  0  0  0
   27.7232  -20.9145  -12.0495 N   0  0  0  0  0  0  0  0  0  0  0  0
   26.9053  -21.0780  -10.8684 C   0  0  1  0  0  0  0  0  0  0  0  0
   27.6947  -20.7893   -9.6400 C   0  0  0  0  0  0  0  0  0  0  0  0
   26.9043  -20.6987   -8.4189 C   0  0  0  0  0  0  0  0  0  0  0  0
   25.5497  -20.9468   -8.3234 C   0  0  0  0  0  0  0  0  0  0  0  0
   25.2087  -20.7557   -7.0351 N   0  0  0  0  0  0  0  0  0  0  0  0
   26.3071  -20.3963   -6.3245 C   0  0  0  0  0  0  0  0  0  0  0  0
   26.4962  -20.0897   -4.9847 C   0  0  0  0  0  0  0  0  0  0  0  0
   27.7632  -19.7487   -4.5327 C   0  0  0  0  0  0  0  0  0  0  0  0
   28.8332  -19.7142   -5.4129 C   0  0  0  0  0  0  0  0  0  0  0  0
   28.6791  -20.0098   -6.7342 C   0  0  0  0  0  0  0  0  0  0  0  0
   27.3966  -20.3507   -7.1687 C   0  0  0  0  0  0  0  0  0  0  0  0
   25.6995  -20.2294  -11.0255 C   0  0  0  0  0  0  0  0  0  0  0  0
   25.7816  -18.9884  -11.1696 O   0  0  0  0  0  0  0  0  0  0  0  0
   24.3748  -20.7813  -11.0208 N   0  0  0  0  0  0  0  0  0  0  0  0
   23.2636  -20.1135  -11.6366 C   0  0  1  0  0  0  0  0  0  0  0  0
   23.4377  -19.9493  -13.1311 C   0  0  0  0  0  0  0  0  0  0  0  0
   22.2661  -19.1998  -13.6177 C   0  0  0  0  0  0  0  0  0  0  0  0
   21.7234  -18.3553  -12.8754 O   0  0  0  0  0  0  0  0  0  0  0  0
   22.0356  -20.9180  -11.4260 C   0  0  0  0  0  0  0  0  0  0  0  0
   22.1226  -22.1813  -11.3171 O   0  0  0  0  0  0  0  0  0  0  0  0
   21.7759  -19.4319  -14.8821 O   0  0  0  0  0  0  0  0  0  0  0  0
   20.7980  -20.3117  -11.3465 O   0  0  0  0  0  0  0  0  0  0  0  0
  2  1  1  1
  3  2  1  0
  4  5  2  0
  4  2  1  0
  6  4  1  0
  7  6  1  0
  7  8  1  1
  9 17  1  0
  9  8  1  0
 10  9  2  0
 11 10  1  0
 11 12  1  0
 12 13  1  0
 12 17  2  0
 13 14  2  0
 14 15  1  0
 16 15  2  0
 17 16  1  0
 18 19  2  0
 18  7  1  0
 20 18  1  0
 21 22  1  6
 21 20  1  0
 23 24  2  0
 23 22  1  0
 25 21  1  0
 26 25  2  0
 27 23  1  0
 28 25  1  0
M  END
$$$$
