EEI.pdb
     RDKit          3D

 27 26  0  0  1  0  0  0  0  0999 V2000
    7.5127  -18.6429   19.9705 N   0  0  0  0  0  0  0  0  0  0  0  0
    8.7084  -18.5257   20.7514 C   0  0  1  0  0  0  0  0  0  0  0  0
    9.9480  -18.4200   19.9279 C   0  0  0  0  0  0  0  0  0  0  0  0
    9.7408  -18.5896   18.4511 C   0  0  0  0  0  0  0  0  0  0  0  0
   10.9671  -18.5052   17.6407 C   0  0  0  0  0  0  0  0  0  0  0  0
   11.2881  -19.4136   16.8580 O   0  0  0  0  0  0  0  0  0  0  0  0
    8.6338  -17.3064   21.6004 C   0  0  0  0  0  0  0  0  0  0  0  0
    9.6140  -16.5412   21.6516 O   0  0  0  0  0  0  0  0  0  0  0  0
   11.7831  -17.3847   17.7541 O   0  0  0  0  0  0  0  0  0  0  0  0
    7.4573  -17.0626   22.3146 N   0  0  0  0  0  0  0  0  0  0  0  0
    7.3997  -17.3979   23.7484 C   0  0  1  0  0  0  0  0  0  0  0  0
    7.8279  -18.8092   23.9279 C   0  0  0  0  0  0  0  0  0  0  0  0
    6.9208  -19.5767   24.8333 C   0  0  0  0  0  0  0  0  0  0  0  0
    7.3043  -19.3262   26.2667 C   0  0  0  0  0  0  0  0  0  0  0  0
    6.5125  -18.8127   27.0850 O   0  0  0  0  0  0  0  0  0  0  0  0
    8.1629  -16.3588   24.4504 C   0  0  0  0  0  0  0  0  0  0  0  0
    9.4488  -16.3285   24.3612 O   0  0  0  0  0  0  0  0  0  0  0  0
    8.5748  -19.6788   26.6808 O   0  0  0  0  0  0  0  0  0  0  0  0
    6.0109  -11.7007   27.3265 C   0  0  0  0  0  0  0  0  0  0  0  0
    6.4833  -13.0014   26.8112 C   0  0  0  0  0  0  0  0  0  0  0  0
    7.6547  -13.0386   25.9226 C   0  0  2  0  0  0  0  0  0  0  0  0
    7.3527  -12.4176   24.5645 C   0  0  0  0  0  0  0  0  0  0  0  0
    8.4813  -14.2624   25.8311 C   0  0  2  0  0  0  0  0  0  0  0  0
    7.6245  -15.3306   25.2495 N   0  0  0  0  0  0  0  0  0  0  0  0
    8.9315  -14.7727   27.1325 C   0  0  0  0  0  0  0  0  0  0  0  0
    9.9496  -14.1714   27.8542 O   0  0  0  0  0  0  0  0  0  0  0  0
    8.4320  -15.8013   27.6991 O   0  0  0  0  0  0  0  0  0  0  0  0
  2  1  1  6
  3  4  1  0
  3  2  1  0
  5  4  1  0
  5  6  2  0
  7  2  1  0
  7  8  2  0
  9  5  1  0
 10 11  1  0
 10  7  1  0
 11 12  1  6
 13 12  1  0
 14 13  1  0
 15 14  2  0
 16 11  1  0
 17 16  2  0
 18 14  1  0
 20 19  1  0
 21 20  1  0
 21 22  1  6
 23 24  1  1
 23 21  1  0
 24 16  1  0
 25 23  1  0
 26 25  1  0
 27 25  2  0
M  END
$$$$
