EEI.pdb
     RDKit          3D

 27 26  0  0  1  0  0  0  0  0999 V2000
    9.9647  -13.2042   19.3646 N   0  0  0  0  0  0  0  0  0  0  0  0
    8.5536  -13.4286   19.4749 C   0  0  1  0  0  0  0  0  0  0  0  0
    7.9181  -13.8563   18.1947 C   0  0  0  0  0  0  0  0  0  0  0  0
    8.6833  -14.8937   17.4260 C   0  0  0  0  0  0  0  0  0  0  0  0
    8.1071  -15.2441   16.1173 C   0  0  0  0  0  0  0  0  0  0  0  0
    8.0440  -14.4146   15.1960 O   0  0  0  0  0  0  0  0  0  0  0  0
    8.2938  -14.4958   20.4782 C   0  0  0  0  0  0  0  0  0  0  0  0
    7.1422  -14.9533   20.5936 O   0  0  0  0  0  0  0  0  0  0  0  0
    7.6230  -16.5311   15.9084 O   0  0  0  0  0  0  0  0  0  0  0  0
    9.3600  -14.9492   21.2601 N   0  0  0  0  0  0  0  0  0  0  0  0
    9.1041  -15.9223   22.3366 C   0  0  1  0  0  0  0  0  0  0  0  0
    9.9051  -17.1462   22.0763 C   0  0  0  0  0  0  0  0  0  0  0  0
    9.7849  -18.1577   23.1691 C   0  0  0  0  0  0  0  0  0  0  0  0
   10.5802  -19.3848   22.8142 C   0  0  0  0  0  0  0  0  0  0  0  0
   10.4800  -20.4496   23.4594 O   0  0  0  0  0  0  0  0  0  0  0  0
    9.3325  -15.2138   23.6019 C   0  0  0  0  0  0  0  0  0  0  0  0
   10.5128  -14.7917   23.9036 O   0  0  0  0  0  0  0  0  0  0  0  0
   11.4462  -19.3213   21.7388 O   0  0  0  0  0  0  0  0  0  0  0  0
    5.3677  -12.5210   26.9065 C   0  0  0  0  0  0  0  0  0  0  0  0
    6.2528  -13.4738   26.2070 C   0  0  0  0  0  0  0  0  0  0  0  0
    7.6525  -13.0997   25.9536 C   0  0  2  0  0  0  0  0  0  0  0  0
    7.7614  -11.9964   24.9086 C   0  0  0  0  0  0  0  0  0  0  0  0
    8.6876  -14.1464   25.8035 C   0  0  2  0  0  0  0  0  0  0  0  0
    8.3577  -14.9197   24.5761 N   0  0  0  0  0  0  0  0  0  0  0  0
    8.7069  -15.1229   26.9003 C   0  0  0  0  0  0  0  0  0  0  0  0
    9.2118  -14.8212   28.1545 O   0  0  0  0  0  0  0  0  0  0  0  0
    8.2694  -16.3167   26.7910 O   0  0  0  0  0  0  0  0  0  0  0  0
  2  1  1  6
  3  4  1  0
  3  2  1  0
  5  4  1  0
  5  6  2  0
  7  2  1  0
  7  8  2  0
  9  5  1  0
 10 11  1  0
 10  7  1  0
 11 12  1  6
 13 12  1  0
 14 13  1  0
 15 14  2  0
 16 11  1  0
 17 16  2  0
 18 14  1  0
 20 19  1  0
 21 20  1  0
 21 22  1  6
 23 24  1  6
 23 21  1  0
 24 16  1  0
 25 23  1  0
 26 25  1  0
 27 25  2  0
M  END
$$$$
