EEI.pdb
     RDKit          3D

 27 26  0  0  1  0  0  0  0  0999 V2000
    8.3262  -17.3862   19.0601 N   0  0  0  0  0  0  0  0  0  0  0  0
    9.1287  -17.6474   20.2182 C   0  0  1  0  0  0  0  0  0  0  0  0
   10.4547  -16.9642   20.1886 C   0  0  0  0  0  0  0  0  0  0  0  0
   11.5500  -17.7410   19.5182 C   0  0  0  0  0  0  0  0  0  0  0  0
   12.8439  -17.0431   19.4384 C   0  0  0  0  0  0  0  0  0  0  0  0
   13.8148  -17.4015   20.1236 O   0  0  0  0  0  0  0  0  0  0  0  0
    8.4152  -17.1800   21.4370 C   0  0  0  0  0  0  0  0  0  0  0  0
    7.6910  -16.1702   21.3668 O   0  0  0  0  0  0  0  0  0  0  0  0
   12.9816  -15.9594   18.5775 O   0  0  0  0  0  0  0  0  0  0  0  0
    8.5851  -17.8968   22.6248 N   0  0  0  0  0  0  0  0  0  0  0  0
    7.7643  -17.5540   23.7995 C   0  0  1  0  0  0  0  0  0  0  0  0
    7.5237  -18.7872   24.5923 C   0  0  0  0  0  0  0  0  0  0  0  0
    6.7968  -18.5195   25.8696 C   0  0  0  0  0  0  0  0  0  0  0  0
    6.5527  -19.8148   26.5955 C   0  0  0  0  0  0  0  0  0  0  0  0
    6.8187  -19.9560   27.8077 O   0  0  0  0  0  0  0  0  0  0  0  0
    8.4393  -16.4345   24.4674 C   0  0  0  0  0  0  0  0  0  0  0  0
    9.7258  -16.3505   24.4494 O   0  0  0  0  0  0  0  0  0  0  0  0
    6.0174  -20.8756   25.8896 O   0  0  0  0  0  0  0  0  0  0  0  0
    5.8000  -11.9438   27.1819 C   0  0  0  0  0  0  0  0  0  0  0  0
    6.6179  -13.1497   26.9423 C   0  0  0  0  0  0  0  0  0  0  0  0
    7.6606  -13.1153   25.9055 C   0  0  2  0  0  0  0  0  0  0  0  0
    7.1213  -12.5924   24.5800 C   0  0  0  0  0  0  0  0  0  0  0  0
    8.5896  -14.2559   25.7456 C   0  0  2  0  0  0  0  0  0  0  0  0
    7.8109  -15.3797   25.1589 N   0  0  0  0  0  0  0  0  0  0  0  0
    9.1315  -14.7616   27.0133 C   0  0  0  0  0  0  0  0  0  0  0  0
    8.8488  -16.0319   27.4879 O   0  0  0  0  0  0  0  0  0  0  0  0
    9.8956  -14.0813   27.7763 O   0  0  0  0  0  0  0  0  0  0  0  0
  2  1  1  6
  3  4  1  0
  3  2  1  0
  5  4  1  0
  5  6  2  0
  7  2  1  0
  7  8  2  0
  9  5  1  0
 10 11  1  0
 10  7  1  0
 11 12  1  1
 13 12  1  0
 14 13  1  0
 15 14  2  0
 16 11  1  0
 17 16  2  0
 18 14  1  0
 20 19  1  0
 21 20  1  0
 21 22  1  6
 23 24  1  1
 23 21  1  0
 24 16  1  0
 25 23  1  0
 26 25  1  0
 27 25  2  0
M  END
$$$$
