EEI.pdb
     RDKit          3D

 27 26  0  0  1  0  0  0  0  0999 V2000
    6.9565  -17.2009   18.9030 N   0  0  0  0  0  0  0  0  0  0  0  0
    8.2223  -16.8224   19.4579 C   0  0  1  0  0  0  0  0  0  0  0  0
    8.7231  -15.5101   18.9552 C   0  0  0  0  0  0  0  0  0  0  0  0
    8.0323  -15.0008   17.7239 C   0  0  0  0  0  0  0  0  0  0  0  0
    8.4947  -13.6840   17.2551 C   0  0  0  0  0  0  0  0  0  0  0  0
    9.4707  -13.1194   17.7741 O   0  0  0  0  0  0  0  0  0  0  0  0
    8.1083  -16.7172   20.9375 C   0  0  0  0  0  0  0  0  0  0  0  0
    6.9982  -16.4746   21.4452 O   0  0  0  0  0  0  0  0  0  0  0  0
    7.8242  -13.0591   16.2089 O   0  0  0  0  0  0  0  0  0  0  0  0
    9.2601  -16.8958   21.7090 N   0  0  0  0  0  0  0  0  0  0  0  0
    9.1281  -17.2003   23.1447 C   0  0  1  0  0  0  0  0  0  0  0  0
   10.1166  -18.2493   23.5048 C   0  0  0  0  0  0  0  0  0  0  0  0
   10.1364  -18.5453   24.9689 C   0  0  0  0  0  0  0  0  0  0  0  0
   11.1400  -19.6298   25.2536 C   0  0  0  0  0  0  0  0  0  0  0  0
   11.6639  -19.7698   26.3788 O   0  0  0  0  0  0  0  0  0  0  0  0
    9.2076  -15.9164   23.8521 C   0  0  0  0  0  0  0  0  0  0  0  0
   10.2659  -15.1868   23.7525 O   0  0  0  0  0  0  0  0  0  0  0  0
   11.4864  -20.4928   24.2312 O   0  0  0  0  0  0  0  0  0  0  0  0
    5.7810  -11.4624   26.4503 C   0  0  0  0  0  0  0  0  0  0  0  0
    7.1010  -12.0769   26.2042 C   0  0  0  0  0  0  0  0  0  0  0  0
    7.1713  -13.3750   25.5164 C   0  0  2  0  0  0  0  0  0  0  0  0
    5.9728  -14.2552   25.8483 C   0  0  0  0  0  0  0  0  0  0  0  0
    8.4466  -14.1239   25.4678 C   0  0  2  0  0  0  0  0  0  0  0  0
    8.2049  -15.3545   24.6673 N   0  0  0  0  0  0  0  0  0  0  0  0
    8.9141  -14.5847   26.7815 C   0  0  0  0  0  0  0  0  0  0  0  0
    8.7872  -15.9006   27.1954 O   0  0  0  0  0  0  0  0  0  0  0  0
    9.4660  -13.8214   27.6425 O   0  0  0  0  0  0  0  0  0  0  0  0
  2  1  1  6
  3  4  1  0
  3  2  1  0
  5  4  1  0
  5  6  2  0
  7  2  1  0
  7  8  2  0
  9  5  1  0
 10 11  1  0
 10  7  1  0
 11 12  1  1
 13 12  1  0
 14 13  1  0
 15 14  2  0
 16 11  1  0
 17 16  2  0
 18 14  1  0
 20 19  1  0
 21 20  1  0
 21 22  1  1
 23 24  1  6
 23 21  1  0
 24 16  1  0
 25 23  1  0
 26 25  1  0
 27 25  2  0
M  END
$$$$
