EEI.pdb
     RDKit          3D

 27 26  0  0  1  0  0  0  0  0999 V2000
    9.2524  -18.4006   19.5576 N   0  0  0  0  0  0  0  0  0  0  0  0
    9.6766  -18.7091   20.8912 C   0  0  1  0  0  0  0  0  0  0  0  0
   11.1245  -18.4413   21.1311 C   0  0  0  0  0  0  0  0  0  0  0  0
   11.7030  -17.3225   20.3149 C   0  0  0  0  0  0  0  0  0  0  0  0
   13.1479  -17.1064   20.4976 C   0  0  0  0  0  0  0  0  0  0  0  0
   13.8181  -17.8257   21.2553 O   0  0  0  0  0  0  0  0  0  0  0  0
    8.9059  -17.8884   21.8636 C   0  0  0  0  0  0  0  0  0  0  0  0
    8.2235  -16.9347   21.4467 O   0  0  0  0  0  0  0  0  0  0  0  0
   13.7753  -16.0749   19.8072 O   0  0  0  0  0  0  0  0  0  0  0  0
    8.9766  -18.2206   23.2195 N   0  0  0  0  0  0  0  0  0  0  0  0
    7.9825  -17.6625   24.1530 C   0  0  1  0  0  0  0  0  0  0  0  0
    7.2577  -18.7825   24.8068 C   0  0  0  0  0  0  0  0  0  0  0  0
    8.1665  -19.6918   25.5677 C   0  0  0  0  0  0  0  0  0  0  0  0
    7.3712  -20.8228   26.1617 C   0  0  0  0  0  0  0  0  0  0  0  0
    7.8902  -21.6758   26.9122 O   0  0  0  0  0  0  0  0  0  0  0  0
    8.7046  -16.7205   25.0169 C   0  0  0  0  0  0  0  0  0  0  0  0
    9.9745  -16.8509   25.1976 O   0  0  0  0  0  0  0  0  0  0  0  0
    6.0252  -20.9116   25.8612 O   0  0  0  0  0  0  0  0  0  0  0  0
    6.1350  -12.0404   26.4137 C   0  0  0  0  0  0  0  0  0  0  0  0
    7.2320  -12.9034   25.9317 C   0  0  0  0  0  0  0  0  0  0  0  0
    8.1078  -13.5648   26.9108 C   0  0  2  0  0  0  0  0  0  0  0  0
    8.8156  -12.5562   27.8069 C   0  0  0  0  0  0  0  0  0  0  0  0
    8.9811  -14.6837   26.4925 C   0  0  2  0  0  0  0  0  0  0  0  0
    8.1423  -15.6268   25.7047 N   0  0  0  0  0  0  0  0  0  0  0  0
    9.5208  -15.4655   27.6123 C   0  0  0  0  0  0  0  0  0  0  0  0
   10.7192  -15.1480   28.2305 O   0  0  0  0  0  0  0  0  0  0  0  0
    8.9411  -16.4916   28.1017 O   0  0  0  0  0  0  0  0  0  0  0  0
  2  1  1  6
  3  4  1  0
  3  2  1  0
  5  4  1  0
  5  6  2  0
  7  2  1  0
  7  8  2  0
  9  5  1  0
 10 11  1  0
 10  7  1  0
 11 12  1  1
 13 12  1  0
 14 13  1  0
 15 14  2  0
 16 11  1  0
 17 16  2  0
 18 14  1  0
 20 19  1  0
 21 20  1  0
 21 22  1  6
 23 24  1  6
 23 21  1  0
 24 16  1  0
 25 23  1  0
 26 25  1  0
 27 25  2  0
M  END
$$$$
