EEI.pdb
     RDKit          3D

 27 26  0  0  1  0  0  0  0  0999 V2000
    8.0530  -17.8306   18.7998 N   0  0  0  0  0  0  0  0  0  0  0  0
    8.4633  -16.6116   19.4316 C   0  0  1  0  0  0  0  0  0  0  0  0
    8.2972  -15.4082   18.5656 C   0  0  0  0  0  0  0  0  0  0  0  0
    7.9036  -15.7010   17.1472 C   0  0  0  0  0  0  0  0  0  0  0  0
    9.0301  -15.8537   16.2116 C   0  0  0  0  0  0  0  0  0  0  0  0
    8.8422  -16.0327   14.9977 O   0  0  0  0  0  0  0  0  0  0  0  0
    7.6557  -16.3891   20.6611 C   0  0  0  0  0  0  0  0  0  0  0  0
    6.5614  -15.8032   20.5709 O   0  0  0  0  0  0  0  0  0  0  0  0
   10.3320  -15.7964   16.6974 O   0  0  0  0  0  0  0  0  0  0  0  0
    8.1588  -16.8495   21.8812 N   0  0  0  0  0  0  0  0  0  0  0  0
    7.3500  -16.6904   23.1025 C   0  0  1  0  0  0  0  0  0  0  0  0
    7.0246  -18.0366   23.6403 C   0  0  0  0  0  0  0  0  0  0  0  0
    8.1926  -18.6910   24.3030 C   0  0  0  0  0  0  0  0  0  0  0  0
    7.7928  -20.0509   24.8082 C   0  0  0  0  0  0  0  0  0  0  0  0
    7.2291  -20.2091   25.9116 O   0  0  0  0  0  0  0  0  0  0  0  0
    8.0879  -15.7677   23.9740 C   0  0  0  0  0  0  0  0  0  0  0  0
    9.3771  -15.7563   23.9608 O   0  0  0  0  0  0  0  0  0  0  0  0
    8.0623  -21.1531   24.0191 O   0  0  0  0  0  0  0  0  0  0  0  0
    5.8773  -11.4416   27.3068 C   0  0  0  0  0  0  0  0  0  0  0  0
    6.3381  -12.6814   26.6500 C   0  0  0  0  0  0  0  0  0  0  0  0
    7.5457  -12.6431   25.8113 C   0  0  2  0  0  0  0  0  0  0  0  0
    7.3107  -11.8719   24.5185 C   0  0  0  0  0  0  0  0  0  0  0  0
    8.3582  -13.8648   25.6196 C   0  0  2  0  0  0  0  0  0  0  0  0
    7.5206  -14.8378   24.8678 N   0  0  0  0  0  0  0  0  0  0  0  0
    8.7255  -14.5355   26.8733 C   0  0  0  0  0  0  0  0  0  0  0  0
    9.6893  -14.0309   27.7310 O   0  0  0  0  0  0  0  0  0  0  0  0
    8.1975  -15.6270   27.2715 O   0  0  0  0  0  0  0  0  0  0  0  0
  2  1  1  6
  3  4  1  0
  3  2  1  0
  5  4  1  0
  5  6  2  0
  7  2  1  0
  7  8  2  0
  9  5  1  0
 10 11  1  0
 10  7  1  0
 11 12  1  1
 13 12  1  0
 14 13  1  0
 15 14  2  0
 16 11  1  0
 17 16  2  0
 18 14  1  0
 20 19  1  0
 21 20  1  0
 21 22  1  6
 23 24  1  6
 23 21  1  0
 24 16  1  0
 25 23  1  0
 26 25  1  0
 27 25  2  0
M  END
$$$$
