EEI.pdb
     RDKit          3D

 27 26  0  0  1  0  0  0  0  0999 V2000
    6.5366  -15.7487   19.4336 N   0  0  0  0  0  0  0  0  0  0  0  0
    7.7195  -15.1327   19.9577 C   0  0  1  0  0  0  0  0  0  0  0  0
    7.6335  -13.6449   20.0276 C   0  0  0  0  0  0  0  0  0  0  0  0
    7.4172  -12.9626   18.7084 C   0  0  0  0  0  0  0  0  0  0  0  0
    8.4563  -13.2244   17.6988 C   0  0  0  0  0  0  0  0  0  0  0  0
    9.3777  -14.0281   17.9131 O   0  0  0  0  0  0  0  0  0  0  0  0
    7.9721  -15.6284   21.3375 C   0  0  0  0  0  0  0  0  0  0  0  0
    7.0096  -15.7939   22.1089 O   0  0  0  0  0  0  0  0  0  0  0  0
    8.4050  -12.5577   16.4793 O   0  0  0  0  0  0  0  0  0  0  0  0
    9.2904  -15.8921   21.7199 N   0  0  0  0  0  0  0  0  0  0  0  0
    9.5475  -16.6025   22.9850 C   0  0  1  0  0  0  0  0  0  0  0  0
   10.7269  -17.4880   22.8060 C   0  0  0  0  0  0  0  0  0  0  0  0
   11.1084  -18.2018   24.0616 C   0  0  0  0  0  0  0  0  0  0  0  0
   12.3183  -19.0603   23.8095 C   0  0  0  0  0  0  0  0  0  0  0  0
   13.4764  -18.6630   24.0567 O   0  0  0  0  0  0  0  0  0  0  0  0
    9.6174  -15.5764   24.0325 C   0  0  0  0  0  0  0  0  0  0  0  0
   10.4052  -14.5649   23.8963 O   0  0  0  0  0  0  0  0  0  0  0  0
   12.1315  -20.3264   23.2878 O   0  0  0  0  0  0  0  0  0  0  0  0
    6.2833  -11.8602   25.6012 C   0  0  0  0  0  0  0  0  0  0  0  0
    7.5935  -12.5397   25.5544 C   0  0  0  0  0  0  0  0  0  0  0  0
    7.8017  -13.7533   26.3588 C   0  0  2  0  0  0  0  0  0  0  0  0
    7.3286  -13.5665   27.7949 C   0  0  0  0  0  0  0  0  0  0  0  0
    9.0729  -14.5040   26.2587 C   0  0  2  0  0  0  0  0  0  0  0  0
    8.8793  -15.5639   25.2327 N   0  0  0  0  0  0  0  0  0  0  0  0
    9.4468  -15.2044   27.4941 C   0  0  0  0  0  0  0  0  0  0  0  0
   10.0709  -14.5633   28.5517 O   0  0  0  0  0  0  0  0  0  0  0  0
    9.2343  -16.4469   27.6937 O   0  0  0  0  0  0  0  0  0  0  0  0
  2  1  1  1
  3  4  1  0
  3  2  1  0
  5  4  1  0
  5  6  2  0
  7  2  1  0
  7  8  2  0
  9  5  1  0
 10 11  1  0
 10  7  1  0
 11 12  1  6
 13 12  1  0
 14 13  1  0
 15 14  2  0
 16 11  1  0
 17 16  2  0
 18 14  1  0
 20 19  1  0
 21 20  1  0
 21 22  1  1
 23 24  1  6
 23 21  1  0
 24 16  1  0
 25 23  1  0
 26 25  1  0
 27 25  2  0
M  END
$$$$
