EEI.pdb
     RDKit          3D

 27 26  0  0  1  0  0  0  0  0999 V2000
    6.3328  -19.7307   20.1005 N   0  0  0  0  0  0  0  0  0  0  0  0
    7.5320  -19.4012   20.8125 C   0  0  1  0  0  0  0  0  0  0  0  0
    8.6450  -18.9523   19.9262 C   0  0  0  0  0  0  0  0  0  0  0  0
    9.0853  -17.5329   20.1359 C   0  0  0  0  0  0  0  0  0  0  0  0
   10.1282  -17.0653   19.2078 C   0  0  0  0  0  0  0  0  0  0  0  0
   11.2244  -16.6551   19.6211 O   0  0  0  0  0  0  0  0  0  0  0  0
    7.2566  -18.2989   21.7729 C   0  0  0  0  0  0  0  0  0  0  0  0
    6.6835  -17.2707   21.3688 O   0  0  0  0  0  0  0  0  0  0  0  0
    9.8805  -17.0832   17.8393 O   0  0  0  0  0  0  0  0  0  0  0  0
    7.6542  -18.4592   23.1033 N   0  0  0  0  0  0  0  0  0  0  0  0
    6.8890  -17.7925   24.1715 C   0  0  1  0  0  0  0  0  0  0  0  0
    6.6353  -18.7704   25.2609 C   0  0  0  0  0  0  0  0  0  0  0  0
    7.8863  -19.1936   25.9592 C   0  0  0  0  0  0  0  0  0  0  0  0
    7.5618  -20.2380   26.9927 C   0  0  0  0  0  0  0  0  0  0  0  0
    6.4166  -20.7233   27.1082 O   0  0  0  0  0  0  0  0  0  0  0  0
    7.6259  -16.5691   24.5109 C   0  0  0  0  0  0  0  0  0  0  0  0
    8.8873  -16.4821   24.2585 O   0  0  0  0  0  0  0  0  0  0  0  0
    8.5694  -20.6671   27.8357 O   0  0  0  0  0  0  0  0  0  0  0  0
    6.6928  -10.6182   26.1431 C   0  0  0  0  0  0  0  0  0  0  0  0
    7.6065  -11.7645   25.9648 C   0  0  0  0  0  0  0  0  0  0  0  0
    7.0445  -13.0911   25.6690 C   0  0  2  0  0  0  0  0  0  0  0  0
    5.8348  -13.3990   26.5426 C   0  0  0  0  0  0  0  0  0  0  0  0
    7.9395  -14.2549   25.4848 C   0  0  2  0  0  0  0  0  0  0  0  0
    7.0850  -15.4128   25.1076 N   0  0  0  0  0  0  0  0  0  0  0  0
    8.6464  -14.6586   26.7070 C   0  0  0  0  0  0  0  0  0  0  0  0
    8.3243  -15.8110   27.4052 O   0  0  0  0  0  0  0  0  0  0  0  0
    9.6020  -13.9892   27.2243 O   0  0  0  0  0  0  0  0  0  0  0  0
  2  1  1  6
  3  4  1  0
  3  2  1  0
  5  4  1  0
  5  6  2  0
  7  2  1  0
  7  8  2  0
  9  5  1  0
 10 11  1  0
 10  7  1  0
 11 12  1  1
 13 12  1  0
 14 13  1  0
 15 14  2  0
 16 11  1  0
 17 16  2  0
 18 14  1  0
 20 19  1  0
 21 20  1  0
 21 22  1  1
 23 24  1  1
 23 21  1  0
 24 16  1  0
 25 23  1  0
 26 25  1  0
 27 25  2  0
M  END
$$$$
