EEI.pdb
     RDKit          3D

 27 26  0  0  1  0  0  0  0  0999 V2000
    9.6424  -15.0870   19.1736 N   0  0  0  0  0  0  0  0  0  0  0  0
    8.7202  -14.2733   19.9090 C   0  0  1  0  0  0  0  0  0  0  0  0
    7.4317  -14.0407   19.1938 C   0  0  0  0  0  0  0  0  0  0  0  0
    7.2415  -14.8632   17.9528 C   0  0  0  0  0  0  0  0  0  0  0  0
    8.2677  -14.6650   16.9159 C   0  0  0  0  0  0  0  0  0  0  0  0
    9.0611  -15.5695   16.6108 O   0  0  0  0  0  0  0  0  0  0  0  0
    8.3971  -14.9295   21.2044 C   0  0  0  0  0  0  0  0  0  0  0  0
    7.3686  -14.5896   21.8174 O   0  0  0  0  0  0  0  0  0  0  0  0
    8.3504  -13.4390   16.2645 O   0  0  0  0  0  0  0  0  0  0  0  0
    9.2662  -15.9109   21.6894 N   0  0  0  0  0  0  0  0  0  0  0  0
    8.9456  -16.6004   22.9515 C   0  0  1  0  0  0  0  0  0  0  0  0
    9.5513  -17.9568   22.9236 C   0  0  0  0  0  0  0  0  0  0  0  0
   10.4541  -18.2095   24.0868 C   0  0  0  0  0  0  0  0  0  0  0  0
   11.0625  -19.5807   23.9680 C   0  0  0  0  0  0  0  0  0  0  0  0
   10.7438  -20.5160   24.7320 O   0  0  0  0  0  0  0  0  0  0  0  0
    9.3484  -15.6955   24.0350 C   0  0  0  0  0  0  0  0  0  0  0  0
   10.4683  -15.0604   23.9653 O   0  0  0  0  0  0  0  0  0  0  0  0
   12.0026  -19.8017   22.9794 O   0  0  0  0  0  0  0  0  0  0  0  0
    6.2922  -11.8277   25.7237 C   0  0  0  0  0  0  0  0  0  0  0  0
    7.4479  -12.7013   25.4374 C   0  0  0  0  0  0  0  0  0  0  0  0
    8.0160  -13.5178   26.5208 C   0  0  2  0  0  0  0  0  0  0  0  0
    8.2507  -12.6968   27.7826 C   0  0  0  0  0  0  0  0  0  0  0  0
    9.1095  -14.4737   26.2379 C   0  0  2  0  0  0  0  0  0  0  0  0
    8.6110  -15.4200   25.2037 N   0  0  0  0  0  0  0  0  0  0  0  0
    9.4869  -15.3012   27.3909 C   0  0  0  0  0  0  0  0  0  0  0  0
   10.4243  -14.8908   28.3246 O   0  0  0  0  0  0  0  0  0  0  0  0
    8.9926  -16.4542   27.6250 O   0  0  0  0  0  0  0  0  0  0  0  0
  2  1  1  6
  3  4  1  0
  3  2  1  0
  5  4  1  0
  5  6  2  0
  7  2  1  0
  7  8  2  0
  9  5  1  0
 10 11  1  0
 10  7  1  0
 11 12  1  1
 13 12  1  0
 14 13  1  0
 15 14  2  0
 16 11  1  0
 17 16  2  0
 18 14  1  0
 20 19  1  0
 21 20  1  0
 21 22  1  1
 23 24  1  6
 23 21  1  0
 24 16  1  0
 25 23  1  0
 26 25  1  0
 27 25  2  0
M  END
$$$$
