EEI.pdb
     RDKit          3D

 27 26  0  0  1  0  0  0  0  0999 V2000
    5.5274  -17.1542   20.3874 N   0  0  0  0  0  0  0  0  0  0  0  0
    5.2275  -17.3653   21.7726 C   0  0  1  0  0  0  0  0  0  0  0  0
    4.5283  -18.6559   22.0392 C   0  0  0  0  0  0  0  0  0  0  0  0
    3.6356  -19.1308   20.9301 C   0  0  0  0  0  0  0  0  0  0  0  0
    3.2892  -20.5608   20.9840 C   0  0  0  0  0  0  0  0  0  0  0  0
    3.9310  -21.4058   20.3401 O   0  0  0  0  0  0  0  0  0  0  0  0
    6.4885  -17.3719   22.5620 C   0  0  0  0  0  0  0  0  0  0  0  0
    6.4626  -17.7590   23.7445 O   0  0  0  0  0  0  0  0  0  0  0  0
    2.2207  -20.9739   21.7727 O   0  0  0  0  0  0  0  0  0  0  0  0
    7.6648  -16.9402   21.9424 N   0  0  0  0  0  0  0  0  0  0  0  0
    8.9186  -16.9069   22.7158 C   0  0  1  0  0  0  0  0  0  0  0  0
   10.0649  -16.9684   21.7727 C   0  0  0  0  0  0  0  0  0  0  0  0
    9.9861  -18.1360   20.8440 C   0  0  0  0  0  0  0  0  0  0  0  0
   11.2114  -18.1736   19.9713 C   0  0  0  0  0  0  0  0  0  0  0  0
   12.1130  -17.3133   20.0567 O   0  0  0  0  0  0  0  0  0  0  0  0
    8.8289  -15.7426   23.6054 C   0  0  0  0  0  0  0  0  0  0  0  0
    9.1477  -14.5708   23.1723 O   0  0  0  0  0  0  0  0  0  0  0  0
   11.3334  -19.1960   19.0495 O   0  0  0  0  0  0  0  0  0  0  0  0
    6.1216  -11.8419   26.8609 C   0  0  0  0  0  0  0  0  0  0  0  0
    7.3826  -12.6059   26.7796 C   0  0  0  0  0  0  0  0  0  0  0  0
    7.4564  -13.7768   25.8926 C   0  0  2  0  0  0  0  0  0  0  0  0
    6.1703  -14.5930   25.9272 C   0  0  0  0  0  0  0  0  0  0  0  0
    8.6758  -14.6146   25.8652 C   0  0  2  0  0  0  0  0  0  0  0  0
    8.4060  -15.7558   24.9495 N   0  0  0  0  0  0  0  0  0  0  0  0
    9.0138  -15.2125   27.1632 C   0  0  0  0  0  0  0  0  0  0  0  0
    8.8725  -16.5671   27.4165 O   0  0  0  0  0  0  0  0  0  0  0  0
    9.4569  -14.5431   28.1553 O   0  0  0  0  0  0  0  0  0  0  0  0
  2  1  1  6
  3  4  1  0
  3  2  1  0
  5  4  1  0
  5  6  2  0
  7  2  1  0
  7  8  2  0
  9  5  1  0
 10 11  1  0
 10  7  1  0
 11 12  1  6
 13 12  1  0
 14 13  1  0
 15 14  2  0
 16 11  1  0
 17 16  2  0
 18 14  1  0
 20 19  1  0
 21 20  1  0
 21 22  1  1
 23 24  1  6
 23 21  1  0
 24 16  1  0
 25 23  1  0
 26 25  1  0
 27 25  2  0
M  END
$$$$
