EEI.pdb
     RDKit          3D

 27 26  0  0  1  0  0  0  0  0999 V2000
    9.6310  -15.3892   17.9522 N   0  0  0  0  0  0  0  0  0  0  0  0
   10.2613  -16.1630   18.9806 C   0  0  1  0  0  0  0  0  0  0  0  0
   11.7338  -15.9416   19.0727 C   0  0  0  0  0  0  0  0  0  0  0  0
   12.1409  -14.5372   19.4111 C   0  0  0  0  0  0  0  0  0  0  0  0
   13.5944  -14.3163   19.4897 C   0  0  0  0  0  0  0  0  0  0  0  0
   14.3208  -15.0385   20.1908 O   0  0  0  0  0  0  0  0  0  0  0  0
    9.6755  -15.8103   20.3018 C   0  0  0  0  0  0  0  0  0  0  0  0
    9.0186  -14.7591   20.4137 O   0  0  0  0  0  0  0  0  0  0  0  0
   14.1659  -13.2770   18.7634 O   0  0  0  0  0  0  0  0  0  0  0  0
    9.8855  -16.6784   21.3770 N   0  0  0  0  0  0  0  0  0  0  0  0
    8.8517  -16.8003   22.4199 C   0  0  1  0  0  0  0  0  0  0  0  0
    8.5722  -18.2411   22.6512 C   0  0  0  0  0  0  0  0  0  0  0  0
    9.4745  -18.8465   23.6764 C   0  0  0  0  0  0  0  0  0  0  0  0
    9.1223  -20.2967   23.8691 C   0  0  0  0  0  0  0  0  0  0  0  0
    9.9645  -21.1396   24.2439 O   0  0  0  0  0  0  0  0  0  0  0  0
    9.3159  -16.0035   23.5622 C   0  0  0  0  0  0  0  0  0  0  0  0
   10.5768  -15.8033   23.7422 O   0  0  0  0  0  0  0  0  0  0  0  0
    7.8235  -20.6986   23.6208 O   0  0  0  0  0  0  0  0  0  0  0  0
    6.2887  -11.8603   25.5581 C   0  0  0  0  0  0  0  0  0  0  0  0
    7.4112  -12.7145   25.1212 C   0  0  0  0  0  0  0  0  0  0  0  0
    8.0278  -13.6380   26.0856 C   0  0  2  0  0  0  0  0  0  0  0  0
    8.3663  -12.9410   27.3974 C   0  0  0  0  0  0  0  0  0  0  0  0
    9.0749  -14.5858   25.6441 C   0  0  2  0  0  0  0  0  0  0  0  0
    8.4993  -15.3932   24.5349 N   0  0  0  0  0  0  0  0  0  0  0  0
    9.4755  -15.5500   26.6768 C   0  0  0  0  0  0  0  0  0  0  0  0
   10.5980  -15.3676   27.4679 O   0  0  0  0  0  0  0  0  0  0  0  0
    8.8342  -16.6247   26.9268 O   0  0  0  0  0  0  0  0  0  0  0  0
  2  1  1  6
  3  4  1  0
  3  2  1  0
  5  4  1  0
  5  6  2  0
  7  2  1  0
  7  8  2  0
  9  5  1  0
 10 11  1  0
 10  7  1  0
 11 12  1  1
 13 12  1  0
 14 13  1  0
 15 14  2  0
 16 11  1  0
 17 16  2  0
 18 14  1  0
 20 19  1  0
 21 20  1  0
 21 22  1  1
 23 24  1  6
 23 21  1  0
 24 16  1  0
 25 23  1  0
 26 25  1  0
 27 25  2  0
M  END
$$$$
