PTE.pdb
     RDKit          3D

 24 24  0  0  1  0  0  0  0  0999 V2000
    4.0678  -18.5307   19.5126 N   0  0  0  0  0  0  0  0  0  0  0  0
    2.7100  -19.0115   19.7337 C   0  0  0  0  0  0  0  0  0  0  0  0
    2.3549  -18.7190   21.1540 C   0  0  0  0  0  0  0  0  0  0  0  0
    3.7097  -18.4000   21.7670 C   0  0  0  0  0  0  0  0  0  0  0  0
    4.3623  -17.6787   20.6175 C   0  0  1  0  0  0  0  0  0  0  0  0
    5.7905  -17.3842   20.7961 C   0  0  0  0  0  0  0  0  0  0  0  0
    6.6314  -18.1649   20.2777 O   0  0  0  0  0  0  0  0  0  0  0  0
    7.4179  -13.9736   20.2976 C   0  0  0  0  0  0  0  0  0  0  0  0
    7.8351  -14.4981   21.6321 C   0  0  1  0  0  0  0  0  0  0  0  0
    6.8862  -13.9706   22.5547 O   0  0  0  0  0  0  0  0  0  0  0  0
    7.7458  -16.0310   21.7004 C   0  0  2  0  0  0  0  0  0  0  0  0
    6.3058  -16.2814   21.5127 N   0  0  0  0  0  0  0  0  0  0  0  0
    8.1465  -16.4278   23.0675 C   0  0  0  0  0  0  0  0  0  0  0  0
    7.2641  -16.3817   23.9946 O   0  0  0  0  0  0  0  0  0  0  0  0
    9.4108  -16.8561   23.4490 N   0  0  0  0  0  0  0  0  0  0  0  0
    9.7405  -17.2950   24.8127 C   0  0  1  0  0  0  0  0  0  0  0  0
   10.9174  -18.2201   24.6541 C   0  0  0  0  0  0  0  0  0  0  0  0
   11.5200  -18.7218   25.9155 C   0  0  0  0  0  0  0  0  0  0  0  0
   12.7309  -19.5395   25.7466 C   0  0  0  0  0  0  0  0  0  0  0  0
   12.6857  -20.7598   25.4937 O   0  0  0  0  0  0  0  0  0  0  0  0
   10.1177  -16.1627   25.6620 C   0  0  0  0  0  0  0  0  0  0  0  0
   10.5749  -15.0984   25.1994 O   0  0  0  0  0  0  0  0  0  0  0  0
   14.0030  -18.9412   25.8696 O   0  0  0  0  0  0  0  0  0  0  0  0
    9.9880  -16.1970   27.0693 O   0  0  0  0  0  0  0  0  0  0  0  0
  1  2  1  0
  3  2  1  0
  4  3  1  0
  4  5  1  0
  5  1  1  0
  6 12  1  0
  5  6  1  1
  7  6  2  0
  9  8  1  6
  9 11  1  0
 10  9  1  0
 11 12  1  1
 11 13  1  0
 13 15  1  0
 14 13  2  0
 15 16  1  0
 16 17  1  6
 16 21  1  0
 18 17  1  0
 19 23  1  0
 19 18  1  0
 20 19  2  0
 21 24  1  0
 22 21  2  0
M  END
$$$$
