PTE.pdb
     RDKit          3D

 24 24  0  0  1  0  0  0  0  0999 V2000
    8.0401  -15.7536   16.7097 N   0  0  0  0  0  0  0  0  0  0  0  0
    7.4987  -15.7200   15.3571 C   0  0  0  0  0  0  0  0  0  0  0  0
    7.7563  -14.3577   14.8032 C   0  0  0  0  0  0  0  0  0  0  0  0
    8.1245  -13.5665   16.0487 C   0  0  0  0  0  0  0  0  0  0  0  0
    8.8888  -14.6126   16.8163 C   0  0  1  0  0  0  0  0  0  0  0  0
    9.2417  -14.2423   18.1934 C   0  0  0  0  0  0  0  0  0  0  0  0
   10.2148  -13.4637   18.3725 O   0  0  0  0  0  0  0  0  0  0  0  0
    6.8795  -12.9629   20.8719 C   0  0  0  0  0  0  0  0  0  0  0  0
    7.6278  -14.1285   21.4301 C   0  0  1  0  0  0  0  0  0  0  0  0
    6.8137  -15.2640   21.1511 O   0  0  0  0  0  0  0  0  0  0  0  0
    8.9755  -14.3386   20.7217 C   0  0  2  0  0  0  0  0  0  0  0  0
    8.5699  -14.6950   19.3505 N   0  0  0  0  0  0  0  0  0  0  0  0
    9.6273  -15.4992   21.3660 C   0  0  0  0  0  0  0  0  0  0  0  0
    9.2699  -16.6739   21.0017 O   0  0  0  0  0  0  0  0  0  0  0  0
   10.6100  -15.4363   22.3447 N   0  0  0  0  0  0  0  0  0  0  0  0
   11.2627  -16.6235   22.9152 C   0  0  1  0  0  0  0  0  0  0  0  0
   12.7178  -16.2552   23.0295 C   0  0  0  0  0  0  0  0  0  0  0  0
   13.6024  -17.2911   23.6214 C   0  0  0  0  0  0  0  0  0  0  0  0
   15.0186  -16.9106   23.7368 C   0  0  0  0  0  0  0  0  0  0  0  0
   15.4847  -15.8897   23.1932 O   0  0  0  0  0  0  0  0  0  0  0  0
   10.7310  -16.9396   24.2431 C   0  0  0  0  0  0  0  0  0  0  0  0
   10.1042  -16.1093   24.9312 O   0  0  0  0  0  0  0  0  0  0  0  0
   15.9013  -17.7159   24.4875 O   0  0  0  0  0  0  0  0  0  0  0  0
   10.8906  -18.2118   24.8382 O   0  0  0  0  0  0  0  0  0  0  0  0
  1  2  1  0
  3  2  1  0
  4  3  1  0
  4  5  1  0
  5  1  1  0
  6 12  1  0
  5  6  1  1
  7  6  2  0
  9  8  1  6
  9 11  1  0
 10  9  1  0
 11 12  1  6
 11 13  1  0
 13 15  1  0
 14 13  2  0
 15 16  1  0
 16 17  1  1
 16 21  1  0
 18 17  1  0
 19 23  1  0
 19 18  1  0
 20 19  2  0
 21 24  1  0
 22 21  2  0
M  END
$$$$
