PTE.pdb
     RDKit          3D

 24 24  0  0  1  0  0  0  0  0999 V2000
    9.2507  -13.9534   19.1957 N   0  0  0  0  0  0  0  0  0  0  0  0
    8.7825  -13.0433   18.1583 C   0  0  0  0  0  0  0  0  0  0  0  0
    7.4558  -12.5125   18.5907 C   0  0  0  0  0  0  0  0  0  0  0  0
    7.0800  -13.4611   19.7186 C   0  0  0  0  0  0  0  0  0  0  0  0
    8.4335  -13.6956   20.3355 C   0  0  1  0  0  0  0  0  0  0  0  0
    8.4767  -14.7423   21.3655 C   0  0  0  0  0  0  0  0  0  0  0  0
    7.6931  -14.6484   22.3466 O   0  0  0  0  0  0  0  0  0  0  0  0
    8.6782  -18.6213   20.7985 C   0  0  0  0  0  0  0  0  0  0  0  0
    9.7833  -18.1465   21.6837 C   0  0  1  0  0  0  0  0  0  0  0  0
   10.8600  -17.8355   20.8039 O   0  0  0  0  0  0  0  0  0  0  0  0
    9.4074  -16.8569   22.4306 C   0  0  2  0  0  0  0  0  0  0  0  0
    9.3382  -15.8615   21.3462 N   0  0  0  0  0  0  0  0  0  0  0  0
   10.5345  -16.5341   23.3319 C   0  0  0  0  0  0  0  0  0  0  0  0
   11.4445  -15.7411   22.9037 O   0  0  0  0  0  0  0  0  0  0  0  0
   10.7026  -17.0152   24.6234 N   0  0  0  0  0  0  0  0  0  0  0  0
   11.8862  -16.7295   25.4470 C   0  0  1  0  0  0  0  0  0  0  0  0
   11.5512  -17.2618   26.8146 C   0  0  0  0  0  0  0  0  0  0  0  0
   11.3386  -16.2404   27.8717 C   0  0  0  0  0  0  0  0  0  0  0  0
   11.0638  -16.7782   29.2129 C   0  0  0  0  0  0  0  0  0  0  0  0
   11.6829  -16.3989   30.2269 O   0  0  0  0  0  0  0  0  0  0  0  0
   13.0741  -17.4145   24.9315 C   0  0  0  0  0  0  0  0  0  0  0  0
   13.0115  -18.4986   24.3179 O   0  0  0  0  0  0  0  0  0  0  0  0
   10.0650  -17.7605   29.3826 O   0  0  0  0  0  0  0  0  0  0  0  0
   14.3777  -16.8921   25.0929 O   0  0  0  0  0  0  0  0  0  0  0  0
  1  2  1  0
  3  2  1  0
  4  3  1  0
  4  5  1  0
  5  1  1  0
  6 12  1  0
  5  6  1  1
  7  6  2  0
  9  8  1  6
  9 11  1  0
 10  9  1  0
 11 12  1  6
 11 13  1  0
 13 15  1  0
 14 13  2  0
 15 16  1  0
 16 17  1  1
 16 21  1  0
 18 17  1  0
 19 23  1  0
 19 18  1  0
 20 19  2  0
 21 24  1  0
 22 21  2  0
M  END
$$$$
