PTE.pdb
     RDKit          3D

 24 24  0  0  1  0  0  0  0  0999 V2000
    4.3909  -18.6704   22.2401 N   0  0  0  0  0  0  0  0  0  0  0  0
    3.1445  -19.1325   21.6428 C   0  0  0  0  0  0  0  0  0  0  0  0
    3.2662  -18.9678   20.1640 C   0  0  0  0  0  0  0  0  0  0  0  0
    4.4802  -18.0604   20.0385 C   0  0  0  0  0  0  0  0  0  0  0  0
    5.3268  -18.5854   21.1677 C   0  0  1  0  0  0  0  0  0  0  0  0
    6.5271  -17.7933   21.4679 C   0  0  0  0  0  0  0  0  0  0  0  0
    7.5853  -18.0480   20.8349 O   0  0  0  0  0  0  0  0  0  0  0  0
    7.3415  -14.4366   20.9007 C   0  0  0  0  0  0  0  0  0  0  0  0
    7.5144  -14.5908   22.3761 C   0  0  1  0  0  0  0  0  0  0  0  0
    6.2463  -14.2643   22.9375 O   0  0  0  0  0  0  0  0  0  0  0  0
    7.8357  -16.0417   22.7685 C   0  0  2  0  0  0  0  0  0  0  0  0
    6.5932  -16.7547   22.4228 N   0  0  0  0  0  0  0  0  0  0  0  0
    8.0300  -16.0611   24.2343 C   0  0  0  0  0  0  0  0  0  0  0  0
    7.0158  -15.8341   24.9828 O   0  0  0  0  0  0  0  0  0  0  0  0
    9.2287  -16.3092   24.8895 N   0  0  0  0  0  0  0  0  0  0  0  0
    9.4479  -16.0220   26.3144 C   0  0  1  0  0  0  0  0  0  0  0  0
    9.3789  -17.3602   27.0002 C   0  0  0  0  0  0  0  0  0  0  0  0
    8.9366  -18.4981   26.1543 C   0  0  0  0  0  0  0  0  0  0  0  0
    8.9163  -19.8056   26.8279 C   0  0  0  0  0  0  0  0  0  0  0  0
    7.9406  -20.5792   26.7604 O   0  0  0  0  0  0  0  0  0  0  0  0
   10.7645  -15.4215   26.5421 C   0  0  0  0  0  0  0  0  0  0  0  0
   11.1262  -14.9981   27.6582 O   0  0  0  0  0  0  0  0  0  0  0  0
   10.0330  -20.2216   27.5837 O   0  0  0  0  0  0  0  0  0  0  0  0
   11.7201  -15.2809   25.5099 O   0  0  0  0  0  0  0  0  0  0  0  0
  1  2  1  0
  3  2  1  0
  4  3  1  0
  4  5  1  0
  5  1  1  0
  6 12  1  0
  5  6  1  1
  7  6  2  0
  9  8  1  6
  9 11  1  0
 10  9  1  0
 11 12  1  1
 11 13  1  0
 13 15  1  0
 14 13  2  0
 15 16  1  0
 16 17  1  1
 16 21  1  0
 18 17  1  0
 19 23  1  0
 19 18  1  0
 20 19  2  0
 21 24  1  0
 22 21  2  0
M  END
$$$$
