PTE.pdb
     RDKit          3D

 24 24  0  0  1  0  0  0  0  0999 V2000
    7.8658  -15.3263   18.4030 N   0  0  0  0  0  0  0  0  0  0  0  0
    7.3143  -14.9416   17.1101 C   0  0  0  0  0  0  0  0  0  0  0  0
    7.6701  -13.5105   16.8771 C   0  0  0  0  0  0  0  0  0  0  0  0
    8.1112  -13.0576   18.2603 C   0  0  0  0  0  0  0  0  0  0  0  0
    8.8007  -14.3055   18.7451 C   0  0  1  0  0  0  0  0  0  0  0  0
    9.1956  -14.2902   20.1601 C   0  0  0  0  0  0  0  0  0  0  0  0
   10.1597  -13.5570   20.5040 O   0  0  0  0  0  0  0  0  0  0  0  0
    6.7956  -13.7998   23.0402 C   0  0  0  0  0  0  0  0  0  0  0  0
    7.6193  -15.0111   23.3311 C   0  0  1  0  0  0  0  0  0  0  0  0
    6.8737  -16.1056   22.8055 O   0  0  0  0  0  0  0  0  0  0  0  0
    8.9705  -14.9763   22.5995 C   0  0  2  0  0  0  0  0  0  0  0  0
    8.5743  -15.0422   21.1817 N   0  0  0  0  0  0  0  0  0  0  0  0
    9.6965  -16.2097   22.9717 C   0  0  0  0  0  0  0  0  0  0  0  0
    9.5675  -17.2387   22.2202 O   0  0  0  0  0  0  0  0  0  0  0  0
   10.5224  -16.3613   24.0774 N   0  0  0  0  0  0  0  0  0  0  0  0
   11.1289  -17.6426   24.4663 C   0  0  1  0  0  0  0  0  0  0  0  0
   12.6139  -17.4269   24.3466 C   0  0  0  0  0  0  0  0  0  0  0  0
   13.4675  -18.5825   24.7236 C   0  0  0  0  0  0  0  0  0  0  0  0
   14.9147  -18.3627   24.5789 C   0  0  0  0  0  0  0  0  0  0  0  0
   15.4852  -18.3641   23.4701 O   0  0  0  0  0  0  0  0  0  0  0  0
   10.7943  -17.9947   25.8483 C   0  0  0  0  0  0  0  0  0  0  0  0
   10.2605  -17.1890   26.6368 O   0  0  0  0  0  0  0  0  0  0  0  0
   15.7071  -18.1385   25.7248 O   0  0  0  0  0  0  0  0  0  0  0  0
   11.0526  -19.2764   26.3857 O   0  0  0  0  0  0  0  0  0  0  0  0
  1  2  1  0
  3  2  1  0
  4  3  1  0
  4  5  1  0
  5  1  1  0
  6 12  1  0
  5  6  1  1
  7  6  2  0
  9  8  1  6
  9 11  1  0
 10  9  1  0
 11 12  1  6
 11 13  1  0
 13 15  1  0
 14 13  2  0
 15 16  1  0
 16 17  1  1
 16 21  1  0
 18 17  1  0
 19 23  1  0
 19 18  1  0
 20 19  2  0
 21 24  1  0
 22 21  2  0
M  END
$$$$
