PTE.pdb
     RDKit          3D

 24 24  0  0  1  0  0  0  0  0999 V2000
    7.6675  -15.2410   19.5304 N   0  0  0  0  0  0  0  0  0  0  0  0
    7.0755  -14.9086   18.2409 C   0  0  0  0  0  0  0  0  0  0  0  0
    7.5126  -13.5253   17.8884 C   0  0  0  0  0  0  0  0  0  0  0  0
    8.0549  -13.0102   19.2126 C   0  0  0  0  0  0  0  0  0  0  0  0
    8.6848  -14.2668   19.7528 C   0  0  1  0  0  0  0  0  0  0  0  0
    9.1536  -14.1819   21.1425 C   0  0  0  0  0  0  0  0  0  0  0  0
   10.0845  -13.3779   21.4113 O   0  0  0  0  0  0  0  0  0  0  0  0
    7.1627  -13.3615   24.1000 C   0  0  0  0  0  0  0  0  0  0  0  0
    7.8421  -14.6543   24.4123 C   0  0  1  0  0  0  0  0  0  0  0  0
    6.9295  -15.6664   23.9967 O   0  0  0  0  0  0  0  0  0  0  0  0
    9.1353  -14.8343   23.6014 C   0  0  2  0  0  0  0  0  0  0  0  0
    8.6393  -14.9398   22.2177 N   0  0  0  0  0  0  0  0  0  0  0  0
    9.7312  -16.1224   24.0166 C   0  0  0  0  0  0  0  0  0  0  0  0
    9.1819  -17.2042   23.6061 O   0  0  0  0  0  0  0  0  0  0  0  0
   10.8519  -16.2745   24.8219 N   0  0  0  0  0  0  0  0  0  0  0  0
   11.4049  -17.5823   25.2025 C   0  0  1  0  0  0  0  0  0  0  0  0
   12.8990  -17.4120   25.1344 C   0  0  0  0  0  0  0  0  0  0  0  0
   13.4420  -16.9872   23.8189 C   0  0  0  0  0  0  0  0  0  0  0  0
   14.8287  -16.4972   23.8450 C   0  0  0  0  0  0  0  0  0  0  0  0
   15.4290  -16.1295   22.8157 O   0  0  0  0  0  0  0  0  0  0  0  0
   11.0148  -17.9513   26.5654 C   0  0  0  0  0  0  0  0  0  0  0  0
   10.3588  -17.1916   27.3058 O   0  0  0  0  0  0  0  0  0  0  0  0
   15.5252  -16.4307   25.0704 O   0  0  0  0  0  0  0  0  0  0  0  0
   11.3547  -19.1985   27.1375 O   0  0  0  0  0  0  0  0  0  0  0  0
  1  2  1  0
  3  2  1  0
  4  3  1  0
  4  5  1  0
  5  1  1  0
  6 12  1  0
  5  6  1  1
  7  6  2  0
  9  8  1  6
  9 11  1  0
 10  9  1  0
 11 12  1  6
 11 13  1  0
 13 15  1  0
 14 13  2  0
 15 16  1  0
 16 17  1  1
 16 21  1  0
 18 17  1  0
 19 23  1  0
 19 18  1  0
 20 19  2  0
 21 24  1  0
 22 21  2  0
M  END
$$$$
