RHI.pdb
     RDKit          3D

 30 30  0  0  1  0  0  0  0  0999 V2000
   12.0128  -16.6578   13.2460 N   0  0  0  0  0  0  0  0  0  0  0  0
   12.0318  -17.4298   14.4329 C   0  0  0  0  0  0  0  0  0  0  0  0
   11.1586  -18.3724   14.6440 N   0  0  0  0  0  0  0  0  0  0  0  0
   13.0156  -17.1781   15.4136 N   0  0  0  0  0  0  0  0  0  0  0  0
   12.8176  -16.2556   16.5088 C   0  0  0  0  0  0  0  0  0  0  0  0
   12.3919  -17.0007   17.7582 C   0  0  0  0  0  0  0  0  0  0  0  0
   12.3068  -16.0729   18.9340 C   0  0  0  0  0  0  0  0  0  0  0  0
   12.0757  -16.7965   20.2280 C   0  0  2  0  0  0  0  0  0  0  0  0
   11.2713  -17.9812   20.0373 N   0  0  0  0  0  0  0  0  0  0  0  0
   11.3706  -15.8284   21.1353 C   0  0  0  0  0  0  0  0  0  0  0  0
   11.8629  -14.7202   21.3898 O   0  0  0  0  0  0  0  0  0  0  0  0
   11.2440  -19.0074   15.4663 N   0  0  0  0  0  0  0  0  0  0  0  0
   10.1260  -16.2119   21.6955 C   0  0  1  0  0  0  0  0  0  0  0  0
    9.4170  -15.3364   22.6680 C   0  0  0  0  0  0  0  0  0  0  0  0
    7.9732  -15.4113   22.3431 C   0  0  0  0  0  0  0  0  0  0  0  0
    7.4971  -14.5937   21.2238 C   0  0  0  0  0  0  0  0  0  0  0  0
    8.2818  -13.7415   20.4387 N   0  0  0  0  0  0  0  0  0  0  0  0
    7.4765  -13.1786   19.5256 C   0  0  0  0  0  0  0  0  0  0  0  0
    6.2204  -13.6274   19.6879 N   0  0  0  0  0  0  0  0  0  0  0  0
    6.2615  -14.4775   20.7165 C   0  0  0  0  0  0  0  0  0  0  0  0
    9.8531  -15.7778   23.9853 O   0  0  0  0  0  0  0  0  0  0  0  0
   10.6992  -16.7428   24.0989 C   0  0  0  0  0  0  0  0  0  0  0  0
    9.1187  -12.4067   28.1431 C   0  0  0  0  0  0  0  0  0  0  0  0
    9.9378  -13.3490   27.2460 C   0  0  2  0  0  0  0  0  0  0  0  0
    9.6884  -14.7797   27.6245 C   0  0  0  0  0  0  0  0  0  0  0  0
   10.5116  -15.0472   28.8706 C   0  0  2  0  0  0  0  0  0  0  0  0
   10.0157  -15.6943   26.5083 N   0  0  0  0  0  0  0  0  0  0  0  0
    9.4534  -15.2548   25.2429 C   0  0  0  0  0  0  0  0  0  0  0  0
    9.5692  -17.0642   26.7747 O   0  0  0  0  0  0  0  0  0  0  0  0
    8.3691  -17.6240   26.3432 O   0  0  0  0  0  0  0  0  0  0  0  0
  1  2  1  0
  2  3  2  0
  4  5  1  0
  4  2  1  0
  6  5  1  0
  7  6  1  0
  8  9  1  6
  8  7  1  0
 10  8  1  0
 10 11  2  0
 12 10  1  0
 13 12  1  0
 13 20  1  0
 13 14  1  6
 15 19  1  0
 15 14  1  0
 16 15  2  0
 17 16  1  0
 17 18  1  0
 18 19  2  0
 20 27  1  0
 21 20  2  0
 22 23  1  0
 23 24  1  0
 24 26  1  0
 24 25  1  6
 26 28  1  0
 26 27  1  6
 28 30  2  0
 28 29  1  0
M  END
$$$$
