RHI.pdb
     RDKit          3D

 30 30  0  0  1  0  0  0  0  0999 V2000
    7.2644  -15.6130   15.2599 N   0  0  0  0  0  0  0  0  0  0  0  0
    8.1273  -14.6640   14.6598 C   0  0  0  0  0  0  0  0  0  0  0  0
    8.5245  -14.7917   13.4264 N   0  0  0  0  0  0  0  0  0  0  0  0
    8.5709  -13.5525   15.4086 N   0  0  0  0  0  0  0  0  0  0  0  0
    8.1477  -13.2990   16.7674 C   0  0  0  0  0  0  0  0  0  0  0  0
    8.2940  -14.5507   17.6096 C   0  0  0  0  0  0  0  0  0  0  0  0
    7.8388  -14.3065   19.0181 C   0  0  0  0  0  0  0  0  0  0  0  0
    8.8783  -14.6749   20.0355 C   0  0  2  0  0  0  0  0  0  0  0  0
    9.7351  -15.7357   19.5586 N   0  0  0  0  0  0  0  0  0  0  0  0
    8.1328  -15.1189   21.2621 C   0  0  0  0  0  0  0  0  0  0  0  0
    7.1691  -14.4690   21.6915 O   0  0  0  0  0  0  0  0  0  0  0  0
    9.2843  -14.1895   13.0431 N   0  0  0  0  0  0  0  0  0  0  0  0
    8.5573  -16.3011   21.9195 C   0  0  1  0  0  0  0  0  0  0  0  0
    7.8797  -16.7809   23.1546 C   0  0  0  0  0  0  0  0  0  0  0  0
    8.1359  -18.2373   23.2491 C   0  0  0  0  0  0  0  0  0  0  0  0
    7.8200  -18.8897   24.5230 C   0  0  0  0  0  0  0  0  0  0  0  0
    8.6952  -19.0454   25.6038 N   0  0  0  0  0  0  0  0  0  0  0  0
    8.0288  -19.6901   26.5730 C   0  0  0  0  0  0  0  0  0  0  0  0
    6.7754  -19.9531   26.1664 N   0  0  0  0  0  0  0  0  0  0  0  0
    6.6770  -19.4606   24.9294 C   0  0  0  0  0  0  0  0  0  0  0  0
    8.3631  -15.9228   24.2271 O   0  0  0  0  0  0  0  0  0  0  0  0
    9.5958  -15.5488   24.2530 C   0  0  0  0  0  0  0  0  0  0  0  0
    5.9526  -11.4766   25.7336 C   0  0  0  0  0  0  0  0  0  0  0  0
    6.9776  -12.5759   25.4107 C   0  0  2  0  0  0  0  0  0  0  0  0
    7.2867  -13.3803   26.6395 C   0  0  0  0  0  0  0  0  0  0  0  0
    7.8911  -12.4185   27.6453 C   0  0  2  0  0  0  0  0  0  0  0  0
    8.1754  -14.5206   26.3241 N   0  0  0  0  0  0  0  0  0  0  0  0
    7.6148  -15.4034   25.3157 C   0  0  0  0  0  0  0  0  0  0  0  0
    8.4983  -15.3085   27.5166 O   0  0  0  0  0  0  0  0  0  0  0  0
    9.5925  -15.1014   28.3531 O   0  0  0  0  0  0  0  0  0  0  0  0
  1  2  1  0
  2  3  2  0
  4  5  1  0
  4  2  1  0
  6  5  1  0
  7  6  1  0
  8  9  1  6
  8  7  1  0
 10  8  1  0
 10 11  2  0
 12 10  1  0
 13 12  1  0
 13 20  1  0
 13 14  1  1
 15 19  1  0
 15 14  1  0
 16 15  2  0
 17 16  1  0
 17 18  1  0
 18 19  2  0
 20 27  1  0
 21 20  2  0
 22 23  1  0
 23 24  1  0
 24 26  1  0
 24 25  1  1
 26 28  1  0
 26 27  1  6
 28 30  2  0
 28 29  1  0
M  END
$$$$
