RHI.pdb
     RDKit          3D

 30 30  0  0  1  0  0  0  0  0999 V2000
    9.1882  -11.9373   18.9218 N   0  0  0  0  0  0  0  0  0  0  0  0
    9.1994  -13.2287   18.3408 C   0  0  0  0  0  0  0  0  0  0  0  0
   10.3143  -13.8634   18.1180 N   0  0  0  0  0  0  0  0  0  0  0  0
    7.9795  -13.8481   17.9928 N   0  0  0  0  0  0  0  0  0  0  0  0
    7.1040  -14.4639   18.9644 C   0  0  0  0  0  0  0  0  0  0  0  0
    7.6275  -15.8310   19.3573 C   0  0  0  0  0  0  0  0  0  0  0  0
    6.6791  -16.5207   20.2929 C   0  0  0  0  0  0  0  0  0  0  0  0
    7.1514  -17.8872   20.6941 C   0  0  2  0  0  0  0  0  0  0  0  0
    6.4627  -18.9235   19.9602 N   0  0  0  0  0  0  0  0  0  0  0  0
    6.8729  -18.0174   22.1649 C   0  0  0  0  0  0  0  0  0  0  0  0
    6.0172  -18.8099   22.5831 O   0  0  0  0  0  0  0  0  0  0  0  0
   10.3142  -14.8069   17.6746 N   0  0  0  0  0  0  0  0  0  0  0  0
    7.6129  -17.2112   23.0663 C   0  0  2  0  0  0  0  0  0  0  0  0
    7.5887  -17.4730   24.5311 C   0  0  0  0  0  0  0  0  0  0  0  0
    8.1375  -18.8341   24.7352 C   0  0  0  0  0  0  0  0  0  0  0  0
    7.1914  -19.9519   24.6742 C   0  0  0  0  0  0  0  0  0  0  0  0
    5.8188  -19.8516   24.4208 N   0  0  0  0  0  0  0  0  0  0  0  0
    5.3114  -21.0929   24.4494 C   0  0  0  0  0  0  0  0  0  0  0  0
    6.2885  -21.9784   24.7077 N   0  0  0  0  0  0  0  0  0  0  0  0
    7.4093  -21.2646   24.8384 C   0  0  0  0  0  0  0  0  0  0  0  0
    8.2828  -16.3487   25.1431 O   0  0  0  0  0  0  0  0  0  0  0  0
    9.4297  -15.9715   24.6930 C   0  0  0  0  0  0  0  0  0  0  0  0
    5.8243  -11.8137   26.5375 C   0  0  0  0  0  0  0  0  0  0  0  0
    6.8069  -12.8932   26.0548 C   0  0  2  0  0  0  0  0  0  0  0  0
    7.7200  -13.3066   27.1718 C   0  0  0  0  0  0  0  0  0  0  0  0
    8.4995  -12.0687   27.5739 C   0  0  2  0  0  0  0  0  0  0  0  0
    8.5912  -14.4309   26.7635 N   0  0  0  0  0  0  0  0  0  0  0  0
    7.8399  -15.5559   26.2341 C   0  0  0  0  0  0  0  0  0  0  0  0
    9.4319  -14.9003   27.8680 O   0  0  0  0  0  0  0  0  0  0  0  0
   10.6540  -14.3503   28.2469 O   0  0  0  0  0  0  0  0  0  0  0  0
  1  2  1  0
  2  3  2  0
  4  5  1  0
  4  2  1  0
  6  5  1  0
  7  6  1  0
  8  9  1  6
  8  7  1  0
 10  8  1  0
 10 11  2  0
 12 10  1  0
 13 12  1  0
 13 20  1  0
 13 14  1  6
 15 19  1  0
 15 14  1  0
 16 15  2  0
 17 16  1  0
 17 18  1  0
 18 19  2  0
 20 27  1  0
 21 20  2  0
 22 23  1  0
 23 24  1  0
 24 26  1  0
 24 25  1  1
 26 28  1  0
 26 27  1  6
 28 30  2  0
 28 29  1  0
M  END
$$$$
