RHI.pdb
     RDKit          3D

 30 30  0  0  1  0  0  0  0  0999 V2000
    8.7580  -13.2286   17.3329 N   0  0  0  0  0  0  0  0  0  0  0  0
    9.2092  -13.4845   18.6505 C   0  0  0  0  0  0  0  0  0  0  0  0
   10.4767  -13.4750   18.9482 N   0  0  0  0  0  0  0  0  0  0  0  0
    8.2704  -13.7568   19.6691 N   0  0  0  0  0  0  0  0  0  0  0  0
    6.8454  -13.8111   19.4324 C   0  0  0  0  0  0  0  0  0  0  0  0
    6.2722  -15.1153   19.9499 C   0  0  0  0  0  0  0  0  0  0  0  0
    7.3348  -16.1704   20.0408 C   0  0  0  0  0  0  0  0  0  0  0  0
    6.7809  -17.5238   20.3767 C   0  0  2  0  0  0  0  0  0  0  0  0
    5.7495  -17.9210   19.4464 N   0  0  0  0  0  0  0  0  0  0  0  0
    6.2174  -17.4188   21.7656 C   0  0  0  0  0  0  0  0  0  0  0  0
    5.1132  -17.9077   22.0434 O   0  0  0  0  0  0  0  0  0  0  0  0
   10.8014  -13.6862   19.9161 N   0  0  0  0  0  0  0  0  0  0  0  0
    6.9789  -16.7461   22.7543 C   0  0  2  0  0  0  0  0  0  0  0  0
    6.8849  -17.1270   24.1899 C   0  0  0  0  0  0  0  0  0  0  0  0
    7.1977  -18.5729   24.2740 C   0  0  0  0  0  0  0  0  0  0  0  0
    7.2431  -19.1698   25.6118 C   0  0  0  0  0  0  0  0  0  0  0  0
    6.9452  -18.5153   26.8124 N   0  0  0  0  0  0  0  0  0  0  0  0
    7.1051  -19.4023   27.8058 C   0  0  0  0  0  0  0  0  0  0  0  0
    7.4891  -20.5869   27.3012 N   0  0  0  0  0  0  0  0  0  0  0  0
    7.5643  -20.4187   25.9789 C   0  0  0  0  0  0  0  0  0  0  0  0
    7.7436  -16.1913   24.9021 O   0  0  0  0  0  0  0  0  0  0  0  0
    8.9943  -16.1034   24.6051 C   0  0  0  0  0  0  0  0  0  0  0  0
    5.6068  -11.6004   27.1203 C   0  0  0  0  0  0  0  0  0  0  0  0
    6.4913  -12.5584   26.3058 C   0  0  2  0  0  0  0  0  0  0  0  0
    7.5108  -13.2110   27.1930 C   0  0  0  0  0  0  0  0  0  0  0  0
    8.4145  -12.1032   27.7010 C   0  0  2  0  0  0  0  0  0  0  0  0
    8.2473  -14.2729   26.4722 N   0  0  0  0  0  0  0  0  0  0  0  0
    7.3683  -15.3010   25.9421 C   0  0  0  0  0  0  0  0  0  0  0  0
    9.2609  -14.9070   27.3193 O   0  0  0  0  0  0  0  0  0  0  0  0
   10.5984  -14.5282   27.4045 O   0  0  0  0  0  0  0  0  0  0  0  0
  1  2  1  0
  2  3  2  0
  4  5  1  0
  4  2  1  0
  6  5  1  0
  7  6  1  0
  8  9  1  6
  8  7  1  0
 10  8  1  0
 10 11  2  0
 12 10  1  0
 13 12  1  0
 13 20  1  0
 13 14  1  6
 15 19  1  0
 15 14  1  0
 16 15  2  0
 17 16  1  0
 17 18  1  0
 18 19  2  0
 20 27  1  0
 21 20  2  0
 22 23  1  0
 23 24  1  0
 24 26  1  0
 24 25  1  1
 26 28  1  0
 26 27  1  6
 28 30  2  0
 28 29  1  0
M  END
$$$$
