RHI.pdb
     RDKit          3D

 30 30  0  0  1  0  0  0  0  0999 V2000
    9.4366  -15.3105   15.3096 N   0  0  0  0  0  0  0  0  0  0  0  0
    8.3833  -14.3644   15.2846 C   0  0  0  0  0  0  0  0  0  0  0  0
    7.7925  -14.0349   14.1721 N   0  0  0  0  0  0  0  0  0  0  0  0
    7.9588  -13.7608   16.4881 N   0  0  0  0  0  0  0  0  0  0  0  0
    8.5201  -14.0954   17.7776 C   0  0  0  0  0  0  0  0  0  0  0  0
    7.8567  -13.2820   18.8709 C   0  0  0  0  0  0  0  0  0  0  0  0
    7.0284  -14.1575   19.7642 C   0  0  0  0  0  0  0  0  0  0  0  0
    7.4255  -15.6026   19.6898 C   0  0  2  0  0  0  0  0  0  0  0  0
    6.4976  -16.3674   18.8892 N   0  0  0  0  0  0  0  0  0  0  0  0
    7.4376  -16.1126   21.1031 C   0  0  0  0  0  0  0  0  0  0  0  0
    6.3798  -16.3230   21.7131 O   0  0  0  0  0  0  0  0  0  0  0  0
    7.0481  -13.3053   14.1564 N   0  0  0  0  0  0  0  0  0  0  0  0
    8.6895  -16.3482   21.7254 C   0  0  1  0  0  0  0  0  0  0  0  0
    8.7737  -16.9739   23.0731 C   0  0  0  0  0  0  0  0  0  0  0  0
    9.7391  -18.0932   22.9695 C   0  0  0  0  0  0  0  0  0  0  0  0
   10.1347  -18.7518   24.2177 C   0  0  0  0  0  0  0  0  0  0  0  0
   11.1661  -18.3419   25.0700 N   0  0  0  0  0  0  0  0  0  0  0  0
   11.2077  -19.2040   26.0968 C   0  0  0  0  0  0  0  0  0  0  0  0
   10.2572  -20.1412   25.9432 N   0  0  0  0  0  0  0  0  0  0  0  0
    9.6264  -19.8450   24.8043 C   0  0  0  0  0  0  0  0  0  0  0  0
    9.0725  -15.8861   23.9937 O   0  0  0  0  0  0  0  0  0  0  0  0
    9.9406  -14.9882   23.6771 C   0  0  0  0  0  0  0  0  0  0  0  0
    5.8711  -12.3018   25.9074 C   0  0  0  0  0  0  0  0  0  0  0  0
    7.1144  -13.0754   25.4389 C   0  0  2  0  0  0  0  0  0  0  0  0
    7.7838  -13.7445   26.6035 C   0  0  0  0  0  0  0  0  0  0  0  0
    8.2054  -12.6393   27.5536 C   0  0  2  0  0  0  0  0  0  0  0  0
    8.9158  -14.5876   26.1590 N   0  0  0  0  0  0  0  0  0  0  0  0
    8.4989  -15.6603   25.2724 C   0  0  0  0  0  0  0  0  0  0  0  0
    9.6451  -15.1652   27.2910 O   0  0  0  0  0  0  0  0  0  0  0  0
   10.7801  -14.6206   27.8869 O   0  0  0  0  0  0  0  0  0  0  0  0
  1  2  1  0
  2  3  2  0
  4  5  1  0
  4  2  1  0
  6  5  1  0
  7  6  1  0
  8  9  1  6
  8  7  1  0
 10  8  1  0
 10 11  2  0
 12 10  1  0
 13 12  1  0
 13 20  1  0
 13 14  1  1
 15 19  1  0
 15 14  1  0
 16 15  2  0
 17 16  1  0
 17 18  1  0
 18 19  2  0
 20 27  1  0
 21 20  2  0
 22 23  1  0
 23 24  1  0
 24 26  1  0
 24 25  1  1
 26 28  1  0
 26 27  1  6
 28 30  2  0
 28 29  1  0
M  END
$$$$
