RHI.pdb
     RDKit          3D

 30 30  0  0  1  0  0  0  0  0999 V2000
    7.5225  -13.2589   15.1531 N   0  0  0  0  0  0  0  0  0  0  0  0
    8.6328  -14.0652   15.5031 C   0  0  0  0  0  0  0  0  0  0  0  0
    9.1097  -14.9570   14.6830 N   0  0  0  0  0  0  0  0  0  0  0  0
    9.2412  -13.9046   16.7668 N   0  0  0  0  0  0  0  0  0  0  0  0
    8.6432  -13.1384   17.8369 C   0  0  0  0  0  0  0  0  0  0  0  0
    7.3975  -13.8313   18.3519 C   0  0  0  0  0  0  0  0  0  0  0  0
    7.6230  -14.3901   19.7258 C   0  0  0  0  0  0  0  0  0  0  0  0
    8.1544  -15.7931   19.7012 C   0  0  2  0  0  0  0  0  0  0  0  0
    7.3078  -16.6676   18.9231 N   0  0  0  0  0  0  0  0  0  0  0  0
    8.2046  -16.2529   21.1308 C   0  0  0  0  0  0  0  0  0  0  0  0
    7.1857  -16.6644   21.7033 O   0  0  0  0  0  0  0  0  0  0  0  0
    9.9148  -15.5602   14.9566 N   0  0  0  0  0  0  0  0  0  0  0  0
    9.4468  -16.2052   21.8123 C   0  0  1  0  0  0  0  0  0  0  0  0
    9.5825  -16.7192   23.2024 C   0  0  0  0  0  0  0  0  0  0  0  0
   10.8419  -17.4982   23.2533 C   0  0  0  0  0  0  0  0  0  0  0  0
   10.7973  -18.8739   22.7497 C   0  0  0  0  0  0  0  0  0  0  0  0
    9.6722  -19.5182   22.2230 N   0  0  0  0  0  0  0  0  0  0  0  0
   10.0434  -20.7598   21.8768 C   0  0  0  0  0  0  0  0  0  0  0  0
   11.3455  -20.9400   22.1552 N   0  0  0  0  0  0  0  0  0  0  0  0
   11.7742  -19.7894   22.6795 C   0  0  0  0  0  0  0  0  0  0  0  0
    9.4547  -15.5543   24.0667 O   0  0  0  0  0  0  0  0  0  0  0  0
   10.1982  -14.5196   23.8751 C   0  0  0  0  0  0  0  0  0  0  0  0
    6.0106  -11.4530   26.6924 C   0  0  0  0  0  0  0  0  0  0  0  0
    7.3042  -12.2687   26.8495 C   0  0  2  0  0  0  0  0  0  0  0  0
    7.2891  -13.4556   25.9310 C   0  0  0  0  0  0  0  0  0  0  0  0
    6.0761  -14.2829   26.3133 C   0  0  2  0  0  0  0  0  0  0  0  0
    8.5564  -14.2148   26.0154 N   0  0  0  0  0  0  0  0  0  0  0  0
    8.5629  -15.3878   25.1585 C   0  0  0  0  0  0  0  0  0  0  0  0
    8.8549  -14.6297   27.3887 O   0  0  0  0  0  0  0  0  0  0  0  0
    9.3269  -13.7990   28.4020 O   0  0  0  0  0  0  0  0  0  0  0  0
  1  2  1  0
  2  3  2  0
  4  5  1  0
  4  2  1  0
  6  5  1  0
  7  6  1  0
  8  9  1  6
  8  7  1  0
 10  8  1  0
 10 11  2  0
 12 10  1  0
 13 12  1  0
 13 20  1  0
 13 14  1  6
 15 19  1  0
 15 14  1  0
 16 15  2  0
 17 16  1  0
 17 18  1  0
 18 19  2  0
 20 27  1  0
 21 20  2  0
 22 23  1  0
 23 24  1  0
 24 26  1  0
 24 25  1  6
 26 28  1  0
 26 27  1  1
 28 30  2  0
 28 29  1  0
M  END
$$$$
