RHI.pdb
     RDKit          3D

 30 30  0  0  1  0  0  0  0  0999 V2000
    8.8521  -15.8030   14.8176 N   0  0  0  0  0  0  0  0  0  0  0  0
    8.7292  -14.4335   14.4791 C   0  0  0  0  0  0  0  0  0  0  0  0
    9.3484  -13.9300   13.4504 N   0  0  0  0  0  0  0  0  0  0  0  0
    7.9195  -13.5893   15.2695 N   0  0  0  0  0  0  0  0  0  0  0  0
    6.9881  -14.0891   16.2555 C   0  0  0  0  0  0  0  0  0  0  0  0
    7.7257  -14.5357   17.5020 C   0  0  0  0  0  0  0  0  0  0  0  0
    7.3672  -13.6735   18.6761 C   0  0  0  0  0  0  0  0  0  0  0  0
    8.5416  -13.3865   19.5649 C   0  0  2  0  0  0  0  0  0  0  0  0
    9.7932  -13.6174   18.8815 N   0  0  0  0  0  0  0  0  0  0  0  0
    8.4150  -14.3070   20.7457 C   0  0  0  0  0  0  0  0  0  0  0  0
    7.3187  -14.4954   21.2914 O   0  0  0  0  0  0  0  0  0  0  0  0
    9.2883  -12.9118   13.2345 N   0  0  0  0  0  0  0  0  0  0  0  0
    9.5809  -14.9572   21.2231 C   0  0  1  0  0  0  0  0  0  0  0  0
    9.5093  -15.9556   22.3244 C   0  0  0  0  0  0  0  0  0  0  0  0
   10.6817  -16.8490   22.1738 C   0  0  0  0  0  0  0  0  0  0  0  0
   10.5692  -17.9407   21.2023 C   0  0  0  0  0  0  0  0  0  0  0  0
    9.3941  -18.3517   20.5631 N   0  0  0  0  0  0  0  0  0  0  0  0
    9.7109  -19.3743   19.7550 C   0  0  0  0  0  0  0  0  0  0  0  0
   11.0257  -19.6362   19.8460 N   0  0  0  0  0  0  0  0  0  0  0  0
   11.5176  -18.7586   20.7238 C   0  0  0  0  0  0  0  0  0  0  0  0
    9.3839  -15.1803   23.5506 O   0  0  0  0  0  0  0  0  0  0  0  0
    9.7485  -13.9448   23.5771 C   0  0  0  0  0  0  0  0  0  0  0  0
    6.5455  -11.7064   26.6860 C   0  0  0  0  0  0  0  0  0  0  0  0
    7.5477  -12.8401   26.9572 C   0  0  2  0  0  0  0  0  0  0  0  0
    7.6952  -13.7096   25.7429 C   0  0  0  0  0  0  0  0  0  0  0  0
    6.3196  -14.2778   25.4481 C   0  0  2  0  0  0  0  0  0  0  0  0
    8.7197  -14.7562   25.9543 N   0  0  0  0  0  0  0  0  0  0  0  0
    8.8778  -15.6243   24.8003 C   0  0  0  0  0  0  0  0  0  0  0  0
    8.4255  -15.5799   27.1299 O   0  0  0  0  0  0  0  0  0  0  0  0
    8.0894  -16.9313   27.1093 O   0  0  0  0  0  0  0  0  0  0  0  0
  1  2  1  0
  2  3  2  0
  4  5  1  0
  4  2  1  0
  6  5  1  0
  7  6  1  0
  8  9  1  6
  8  7  1  0
 10  8  1  0
 10 11  2  0
 12 10  1  0
 13 12  1  0
 13 20  1  0
 13 14  1  6
 15 19  1  0
 15 14  1  0
 16 15  2  0
 17 16  1  0
 17 18  1  0
 18 19  2  0
 20 27  1  0
 21 20  2  0
 22 23  1  0
 23 24  1  0
 24 26  1  0
 24 25  1  6
 26 28  1  0
 26 27  1  1
 28 30  2  0
 28 29  1  0
M  END
$$$$
