RHI.pdb
     RDKit          3D

 30 30  0  0  1  0  0  0  0  0999 V2000
    8.2196  -13.2001   16.0978 N   0  0  0  0  0  0  0  0  0  0  0  0
    8.3370  -13.3648   17.4993 C   0  0  0  0  0  0  0  0  0  0  0  0
    8.6012  -12.3580   18.2816 N   0  0  0  0  0  0  0  0  0  0  0  0
    8.1654  -14.6453   18.0684 N   0  0  0  0  0  0  0  0  0  0  0  0
    7.2616  -15.6338   17.5245 C   0  0  0  0  0  0  0  0  0  0  0  0
    7.3071  -16.9039   18.3505 C   0  0  0  0  0  0  0  0  0  0  0  0
    7.6389  -16.6018   19.7820 C   0  0  0  0  0  0  0  0  0  0  0  0
    8.0908  -17.8148   20.5409 C   0  0  2  0  0  0  0  0  0  0  0  0
    7.7115  -19.0346   19.8663 N   0  0  0  0  0  0  0  0  0  0  0  0
    7.4343  -17.7399   21.8904 C   0  0  0  0  0  0  0  0  0  0  0  0
    6.2004  -17.7017   21.9968 O   0  0  0  0  0  0  0  0  0  0  0  0
    8.7951  -12.5038   19.2955 N   0  0  0  0  0  0  0  0  0  0  0  0
    8.2600  -17.7137   23.0426 C   0  0  1  0  0  0  0  0  0  0  0  0
    7.6820  -17.5160   24.3996 C   0  0  0  0  0  0  0  0  0  0  0  0
    8.1522  -18.6441   25.2374 C   0  0  0  0  0  0  0  0  0  0  0  0
    7.3156  -19.8472   25.2683 C   0  0  0  0  0  0  0  0  0  0  0  0
    6.0860  -20.0079   24.6198 N   0  0  0  0  0  0  0  0  0  0  0  0
    5.6433  -21.2439   24.8948 C   0  0  0  0  0  0  0  0  0  0  0  0
    6.5262  -21.8787   25.6842 N   0  0  0  0  0  0  0  0  0  0  0  0
    7.5228  -21.0152   25.8932 C   0  0  0  0  0  0  0  0  0  0  0  0
    8.0514  -16.1631   24.7912 O   0  0  0  0  0  0  0  0  0  0  0  0
    9.2417  -15.7245   24.5654 C   0  0  0  0  0  0  0  0  0  0  0  0
    6.3810  -10.4464   26.3302 C   0  0  0  0  0  0  0  0  0  0  0  0
    7.2516  -11.6565   26.7060 C   0  0  2  0  0  0  0  0  0  0  0  0
    6.6992  -12.9094   26.0915 C   0  0  0  0  0  0  0  0  0  0  0  0
    5.5127  -13.3218   26.9424 C   0  0  2  0  0  0  0  0  0  0  0  0
    7.7355  -13.9614   25.9959 N   0  0  0  0  0  0  0  0  0  0  0  0
    7.2270  -15.1959   25.4235 C   0  0  0  0  0  0  0  0  0  0  0  0
    8.3373  -14.2561   27.2990 O   0  0  0  0  0  0  0  0  0  0  0  0
    8.1474  -15.4236   28.0342 O   0  0  0  0  0  0  0  0  0  0  0  0
  1  2  1  0
  2  3  2  0
  4  5  1  0
  4  2  1  0
  6  5  1  0
  7  6  1  0
  8  9  1  6
  8  7  1  0
 10  8  1  0
 10 11  2  0
 12 10  1  0
 13 12  1  0
 13 20  1  0
 13 14  1  1
 15 19  1  0
 15 14  1  0
 16 15  2  0
 17 16  1  0
 17 18  1  0
 18 19  2  0
 20 27  1  0
 21 20  2  0
 22 23  1  0
 23 24  1  0
 24 26  1  0
 24 25  1  6
 26 28  1  0
 26 27  1  1
 28 30  2  0
 28 29  1  0
M  END
$$$$
