RHI.pdb
     RDKit          3D

 30 30  0  0  1  0  0  0  0  0999 V2000
    9.5522  -13.6301   19.9235 N   0  0  0  0  0  0  0  0  0  0  0  0
    9.3036  -12.5927   18.9923 C   0  0  0  0  0  0  0  0  0  0  0  0
   10.2563  -11.8059   18.5818 N   0  0  0  0  0  0  0  0  0  0  0  0
    7.9969  -12.4010   18.4936 N   0  0  0  0  0  0  0  0  0  0  0  0
    6.8366  -13.0576   19.0524 C   0  0  0  0  0  0  0  0  0  0  0  0
    6.9743  -14.5628   18.9389 C   0  0  0  0  0  0  0  0  0  0  0  0
    7.2950  -15.1746   20.2706 C   0  0  0  0  0  0  0  0  0  0  0  0
    7.5881  -16.6433   20.1784 C   0  0  2  0  0  0  0  0  0  0  0  0
    6.4232  -17.3922   19.7673 N   0  0  0  0  0  0  0  0  0  0  0  0
    8.0281  -17.0749   21.5488 C   0  0  0  0  0  0  0  0  0  0  0  0
    7.2110  -17.5107   22.3719 O   0  0  0  0  0  0  0  0  0  0  0  0
   10.0552  -11.0131   17.9353 N   0  0  0  0  0  0  0  0  0  0  0  0
    9.4027  -16.9720   21.8803 C   0  0  2  0  0  0  0  0  0  0  0  0
    9.8901  -17.2889   23.2503 C   0  0  0  0  0  0  0  0  0  0  0  0
   11.2740  -17.7990   23.1086 C   0  0  0  0  0  0  0  0  0  0  0  0
   11.4319  -19.1974   22.6992 C   0  0  0  0  0  0  0  0  0  0  0  0
   10.4102  -20.1510   22.6265 N   0  0  0  0  0  0  0  0  0  0  0  0
   10.9611  -21.3018   22.2126 C   0  0  0  0  0  0  0  0  0  0  0  0
   12.2796  -21.1314   22.0178 N   0  0  0  0  0  0  0  0  0  0  0  0
   12.5359  -19.8559   22.3180 C   0  0  0  0  0  0  0  0  0  0  0  0
    9.6754  -16.0803   24.0334 O   0  0  0  0  0  0  0  0  0  0  0  0
   10.3630  -15.0184   23.7892 C   0  0  0  0  0  0  0  0  0  0  0  0
    6.1859  -11.8584   26.2577 C   0  0  0  0  0  0  0  0  0  0  0  0
    7.3719  -12.7559   26.6469 C   0  0  2  0  0  0  0  0  0  0  0  0
    7.3985  -13.9882   25.7907 C   0  0  0  0  0  0  0  0  0  0  0  0
    6.2182  -14.8392   26.2206 C   0  0  2  0  0  0  0  0  0  0  0  0
    8.6934  -14.6946   25.9081 N   0  0  0  0  0  0  0  0  0  0  0  0
    8.7500  -15.8964   25.0940 C   0  0  0  0  0  0  0  0  0  0  0  0
    8.9995  -15.0483   27.2967 O   0  0  0  0  0  0  0  0  0  0  0  0
    9.4875  -14.1760   28.2667 O   0  0  0  0  0  0  0  0  0  0  0  0
  1  2  1  0
  2  3  2  0
  4  5  1  0
  4  2  1  0
  6  5  1  0
  7  6  1  0
  8  9  1  1
  8  7  1  0
 10  8  1  0
 10 11  2  0
 12 10  1  0
 13 12  1  0
 13 20  1  0
 13 14  1  6
 15 19  1  0
 15 14  1  0
 16 15  2  0
 17 16  1  0
 17 18  1  0
 18 19  2  0
 20 27  1  0
 21 20  2  0
 22 23  1  0
 23 24  1  0
 24 26  1  0
 24 25  1  6
 26 28  1  0
 26 27  1  1
 28 30  2  0
 28 29  1  0
M  END
$$$$
