EIF.pdb
     RDKit          3D

 29 29  0  0  1  0  0  0  0  0999 V2000
   27.8788  -22.6388  -16.9331 N   0  0  0  0  0  0  0  0  0  0  0  0
   27.2665  -21.3720  -16.4520 C   0  0  1  0  0  0  0  0  0  0  0  0
   26.5178  -20.7301  -17.5760 C   0  0  0  0  0  0  0  0  0  0  0  0
   27.4596  -20.2357  -18.6344 C   0  0  0  0  0  0  0  0  0  0  0  0
   28.1948  -19.0199  -18.1280 C   0  0  0  0  0  0  0  0  0  0  0  0
   27.5117  -18.0125  -17.8724 O   0  0  0  0  0  0  0  0  0  0  0  0
   26.5025  -21.6468  -15.2364 C   0  0  0  0  0  0  0  0  0  0  0  0
   25.7976  -22.7024  -15.2077 O   0  0  0  0  0  0  0  0  0  0  0  0
   29.5647  -19.0384  -17.9605 O   0  0  0  0  0  0  0  0  0  0  0  0
   28.3409  -20.7477  -10.2522 C   0  0  0  0  0  0  0  0  0  0  0  0
   27.7169  -21.4000  -11.4986 C   0  0  0  0  0  0  0  0  0  0  0  0
   26.3701  -20.7644  -11.6693 C   0  0  2  0  0  0  0  0  0  0  0  0
   25.5556  -21.1098  -10.4214 C   0  0  0  0  0  0  0  0  0  0  0  0
   25.6467  -21.1477  -12.9212 C   0  0  2  0  0  0  0  0  0  0  0  0
   26.4803  -20.8481  -14.0905 N   0  0  0  0  0  0  0  0  0  0  0  0
   24.3100  -20.5602  -13.0990 C   0  0  0  0  0  0  0  0  0  0  0  0
   24.1595  -19.3119  -12.9347 O   0  0  0  0  0  0  0  0  0  0  0  0
   23.1530  -21.2836  -13.4513 N   0  0  0  0  0  0  0  0  0  0  0  0
   21.8616  -20.6306  -13.5574 C   0  0  1  0  0  0  0  0  0  0  0  0
   21.3728  -20.8380  -14.9800 C   0  0  0  0  0  0  0  0  0  0  0  0
   20.0288  -20.3352  -15.2390 C   0  0  0  0  0  0  0  0  0  0  0  0
   18.9247  -21.1797  -15.1243 C   0  0  0  0  0  0  0  0  0  0  0  0
   17.6593  -20.6967  -15.3605 C   0  0  0  0  0  0  0  0  0  0  0  0
   17.4498  -19.3842  -15.7119 C   0  0  0  0  0  0  0  0  0  0  0  0
   18.5314  -18.5531  -15.8250 C   0  0  0  0  0  0  0  0  0  0  0  0
   19.8264  -19.0287  -15.5879 C   0  0  0  0  0  0  0  0  0  0  0  0
   20.9186  -21.2503  -12.6359 C   0  0  0  0  0  0  0  0  0  0  0  0
   19.9890  -20.6042  -12.0651 O   0  0  0  0  0  0  0  0  0  0  0  0
   21.0049  -22.5968  -12.3441 O   0  0  0  0  0  0  0  0  0  0  0  0
  2  1  1  6
  2  7  1  0
  2  3  1  0
  4  3  1  0
  4  5  1  0
  5  6  2  0
  7  8  2  0
  9  5  1  0
 10 11  1  0
 11 12  1  0
 12 14  1  0
 12 13  1  1
 14 15  1  6
 15  7  1  0
 16 14  1  0
 17 16  2  0
 18 16  1  0
 19 27  1  0
 19 18  1  0
 19 20  1  6
 21 20  1  0
 22 21  2  0
 23 22  1  0
 24 23  2  0
 24 25  1  0
 25 26  2  0
 26 21  1  0
 27 29  1  0
 28 27  2  0
M  END
$$$$
