EIF.pdb
     RDKit          3D

 29 29  0  0  1  0  0  0  0  0999 V2000
   22.2530  -19.3561  -17.5398 N   0  0  0  0  0  0  0  0  0  0  0  0
   22.9136  -18.6031  -16.4408 C   0  0  1  0  0  0  0  0  0  0  0  0
   21.8793  -17.8390  -15.6776 C   0  0  0  0  0  0  0  0  0  0  0  0
   21.3172  -16.7221  -16.5069 C   0  0  0  0  0  0  0  0  0  0  0  0
   19.8616  -16.9913  -16.7963 C   0  0  0  0  0  0  0  0  0  0  0  0
   19.0758  -16.9423  -15.8335 O   0  0  0  0  0  0  0  0  0  0  0  0
   23.7426  -19.5250  -15.6664 C   0  0  0  0  0  0  0  0  0  0  0  0
   23.2676  -20.6743  -15.4111 O   0  0  0  0  0  0  0  0  0  0  0  0
   19.4344  -17.2779  -18.0771 O   0  0  0  0  0  0  0  0  0  0  0  0
   28.9472  -20.5711  -16.4999 C   0  0  0  0  0  0  0  0  0  0  0  0
   27.4310  -20.6542  -16.2494 C   0  0  0  0  0  0  0  0  0  0  0  0
   27.2208  -20.2217  -14.8296 C   0  0  2  0  0  0  0  0  0  0  0  0
   28.0805  -21.1366  -13.9556 C   0  0  0  0  0  0  0  0  0  0  0  0
   25.7945  -20.2122  -14.3785 C   0  0  2  0  0  0  0  0  0  0  0  0
   25.0243  -19.2554  -15.1803 N   0  0  0  0  0  0  0  0  0  0  0  0
   25.5728  -19.9548  -12.9474 C   0  0  0  0  0  0  0  0  0  0  0  0
   25.8393  -18.8067  -12.4800 O   0  0  0  0  0  0  0  0  0  0  0  0
   25.0706  -20.8977  -12.0282 N   0  0  0  0  0  0  0  0  0  0  0  0
   24.9800  -20.5926  -10.6125 C   0  0  1  0  0  0  0  0  0  0  0  0
   23.6229  -21.0803  -10.1373 C   0  0  0  0  0  0  0  0  0  0  0  0
   22.5028  -20.2318  -10.5267 C   0  0  0  0  0  0  0  0  0  0  0  0
   21.1924  -20.6221  -10.2518 C   0  0  0  0  0  0  0  0  0  0  0  0
   20.1414  -19.8126  -10.6131 C   0  0  0  0  0  0  0  0  0  0  0  0
   20.3505  -18.6110  -11.2475 C   0  0  0  0  0  0  0  0  0  0  0  0
   21.6355  -18.2254  -11.5184 C   0  0  0  0  0  0  0  0  0  0  0  0
   22.7168  -19.0375  -11.1573 C   0  0  0  0  0  0  0  0  0  0  0  0
   26.0223  -21.3065   -9.8868 C   0  0  0  0  0  0  0  0  0  0  0  0
   26.6832  -22.2619  -10.3947 O   0  0  0  0  0  0  0  0  0  0  0  0
   26.3361  -20.9596   -8.5880 O   0  0  0  0  0  0  0  0  0  0  0  0
  2  1  1  6
  2  7  1  0
  2  3  1  0
  4  3  1  0
  4  5  1  0
  5  6  2  0
  7  8  2  0
  9  5  1  0
 10 11  1  0
 11 12  1  0
 12 14  1  0
 12 13  1  1
 14 15  1  6
 15  7  1  0
 16 14  1  0
 17 16  2  0
 18 16  1  0
 19 27  1  0
 19 18  1  0
 19 20  1  1
 21 20  1  0
 22 21  2  0
 23 22  1  0
 24 23  2  0
 24 25  1  0
 25 26  2  0
 26 21  1  0
 27 29  1  0
 28 27  2  0
M  END
$$$$
