EIF.pdb
     RDKit          3D

 29 29  0  0  1  0  0  0  0  0999 V2000
   17.9840  -10.5604  -19.0447 N   0  0  0  0  0  0  0  0  0  0  0  0
   17.5607   -9.7887  -17.8461 C   0  0  1  0  0  0  0  0  0  0  0  0
   17.7033  -10.6495  -16.6318 C   0  0  0  0  0  0  0  0  0  0  0  0
   16.7435  -11.8020  -16.6758 C   0  0  0  0  0  0  0  0  0  0  0  0
   16.8419  -12.5902  -15.3936 C   0  0  0  0  0  0  0  0  0  0  0  0
   16.2397  -12.1369  -14.4043 O   0  0  0  0  0  0  0  0  0  0  0  0
   18.2765   -8.5143  -17.8261 C   0  0  0  0  0  0  0  0  0  0  0  0
   19.3346   -8.4200  -18.5215 O   0  0  0  0  0  0  0  0  0  0  0  0
   17.5711  -13.7606  -15.3349 O   0  0  0  0  0  0  0  0  0  0  0  0
   16.3042   -3.8257  -18.9799 C   0  0  0  0  0  0  0  0  0  0  0  0
   17.2691   -5.0189  -18.8634 C   0  0  0  0  0  0  0  0  0  0  0  0
   17.8090   -4.9809  -17.4655 C   0  0  2  0  0  0  0  0  0  0  0  0
   18.5467   -3.6498  -17.3112 C   0  0  0  0  0  0  0  0  0  0  0  0
   18.6810   -6.1386  -17.0952 C   0  0  2  0  0  0  0  0  0  0  0  0
   17.8964   -7.3780  -17.1078 N   0  0  0  0  0  0  0  0  0  0  0  0
   19.4033   -6.0195  -15.8194 C   0  0  0  0  0  0  0  0  0  0  0  0
   18.7426   -5.8363  -14.7528 O   0  0  0  0  0  0  0  0  0  0  0  0
   20.8030   -6.0997  -15.6763 N   0  0  0  0  0  0  0  0  0  0  0  0
   21.4316   -6.0070  -14.3718 C   0  0  1  0  0  0  0  0  0  0  0  0
   22.7329   -6.7856  -14.4476 C   0  0  0  0  0  0  0  0  0  0  0  0
   22.5748   -8.2038  -14.7478 C   0  0  0  0  0  0  0  0  0  0  0  0
   23.0605   -9.1703  -13.8673 C   0  0  0  0  0  0  0  0  0  0  0  0
   22.8994  -10.5057  -14.1518 C   0  0  0  0  0  0  0  0  0  0  0  0
   22.2630  -10.9203  -15.2977 C   0  0  0  0  0  0  0  0  0  0  0  0
   21.7853   -9.9740  -16.1635 C   0  0  0  0  0  0  0  0  0  0  0  0
   21.9408   -8.6103  -15.8890 C   0  0  0  0  0  0  0  0  0  0  0  0
   21.7285   -4.6140  -14.0655 C   0  0  0  0  0  0  0  0  0  0  0  0
   21.6195   -3.6835  -14.9198 O   0  0  0  0  0  0  0  0  0  0  0  0
   22.1491   -4.2476  -12.8027 O   0  0  0  0  0  0  0  0  0  0  0  0
  2  1  1  6
  2  7  1  0
  2  3  1  0
  4  3  1  0
  4  5  1  0
  5  6  2  0
  7  8  2  0
  9  5  1  0
 10 11  1  0
 11 12  1  0
 12 14  1  0
 12 13  1  6
 14 15  1  1
 15  7  1  0
 16 14  1  0
 17 16  2  0
 18 16  1  0
 19 27  1  0
 19 18  1  0
 19 20  1  6
 21 20  1  0
 22 21  2  0
 23 22  1  0
 24 23  2  0
 24 25  1  0
 25 26  2  0
 26 21  1  0
 27 29  1  0
 28 27  2  0
M  END
$$$$
