PYC.pdb
     RDKit          3D

 26 27  0  0  1  0  0  0  0  0999 V2000
    7.2248  -14.9424   20.2567 N   0  0  0  0  0  0  0  0  0  0  0  0
    6.5912  -14.2906   19.1208 C   0  0  0  0  0  0  0  0  0  0  0  0
    6.9993  -12.8514   19.1500 C   0  0  0  0  0  0  0  0  0  0  0  0
    7.9105  -12.7625   20.3820 C   0  0  0  0  0  0  0  0  0  0  0  0
    8.4270  -14.1860   20.4224 C   0  0  1  0  0  0  0  0  0  0  0  0
    9.1394  -14.4904   21.6851 C   0  0  0  0  0  0  0  0  0  0  0  0
   10.3768  -14.6715   21.7187 O   0  0  0  0  0  0  0  0  0  0  0  0
   10.7893  -14.9508   30.2551 O   0  0  0  0  0  0  0  0  0  0  0  0
   10.1066  -14.8053   29.0387 C   0  0  0  0  0  0  0  0  0  0  0  0
   10.2079  -13.6236   28.3343 C   0  0  0  0  0  0  0  0  0  0  0  0
    9.5325  -13.4825   27.1330 C   0  0  0  0  0  0  0  0  0  0  0  0
    8.7622  -14.4856   26.6186 C   0  0  0  0  0  0  0  0  0  0  0  0
    8.0278  -14.3436   25.3208 C   0  0  0  0  0  0  0  0  0  0  0  0
    8.9036  -14.8163   24.1966 C   0  0  2  0  0  0  0  0  0  0  0  0
    8.3944  -14.5785   22.8883 N   0  0  0  0  0  0  0  0  0  0  0  0
    9.3517  -16.2387   24.3664 C   0  0  0  0  0  0  0  0  0  0  0  0
    8.5817  -17.2216   24.3605 O   0  0  0  0  0  0  0  0  0  0  0  0
    8.6773  -15.6599   27.3441 C   0  0  0  0  0  0  0  0  0  0  0  0
    9.3353  -15.8275   28.5368 C   0  0  0  0  0  0  0  0  0  0  0  0
   10.7458  -16.5365   24.5500 N   0  0  0  0  0  0  0  0  0  0  0  0
   11.2503  -17.8857   24.6547 C   0  0  1  0  0  0  0  0  0  0  0  0
   12.3939  -18.0463   23.6668 C   0  0  0  0  0  0  0  0  0  0  0  0
   11.7880  -17.6391   22.0066 S   0  0  0  0  0  0  0  0  0  0  0  0
   11.8060  -18.1574   26.0012 C   0  0  0  0  0  0  0  0  0  0  0  0
   12.3582  -19.4071   26.2399 O   0  0  0  0  0  0  0  0  0  0  0  0
   11.8005  -17.3172   26.9278 O   0  0  0  0  0  0  0  0  0  0  0  0
  1  2  1  0
  3  2  1  0
  4  5  1  0
  4  3  1  0
  5  1  1  0
  5  6  1  1
  7  6  2  0
  8  9  1  0
  9 19  2  0
 10  9  1  0
 10 11  2  0
 11 12  1  0
 12 18  2  0
 12 13  1  0
 14 13  1  1
 14 16  1  0
 14 15  1  0
 15  6  1  0
 16 17  2  0
 19 18  1  0
 20 21  1  0
 20 16  1  0
 21 22  1  6
 23 22  1  0
 24 25  1  0
 24 21  1  0
 26 24  2  0
M  END
$$$$
