PYC.pdb
     RDKit          3D

 26 27  0  0  1  0  0  0  0  0999 V2000
    7.6732  -15.0918   20.1510 N   0  0  0  0  0  0  0  0  0  0  0  0
    7.2850  -14.4954   18.8821 C   0  0  0  0  0  0  0  0  0  0  0  0
    7.6312  -13.0413   18.9503 C   0  0  0  0  0  0  0  0  0  0  0  0
    8.2456  -12.8847   20.3481 C   0  0  0  0  0  0  0  0  0  0  0  0
    8.7850  -14.2858   20.5498 C   0  0  1  0  0  0  0  0  0  0  0  0
    9.2112  -14.5289   21.9476 C   0  0  0  0  0  0  0  0  0  0  0  0
   10.2802  -14.0649   22.4028 O   0  0  0  0  0  0  0  0  0  0  0  0
    6.7604  -10.3495   27.1229 O   0  0  0  0  0  0  0  0  0  0  0  0
    6.9222  -11.6458   26.6128 C   0  0  0  0  0  0  0  0  0  0  0  0
    6.1617  -12.0582   25.5384 C   0  0  0  0  0  0  0  0  0  0  0  0
    6.3235  -13.3392   25.0364 C   0  0  0  0  0  0  0  0  0  0  0  0
    7.2206  -14.2155   25.5765 C   0  0  0  0  0  0  0  0  0  0  0  0
    7.4036  -15.6027   25.0416 C   0  0  0  0  0  0  0  0  0  0  0  0
    8.6155  -15.6411   24.1561 C   0  0  2  0  0  0  0  0  0  0  0  0
    8.3815  -15.3101   22.7911 N   0  0  0  0  0  0  0  0  0  0  0  0
    9.3946  -16.9169   24.2908 C   0  0  0  0  0  0  0  0  0  0  0  0
    9.0674  -17.9977   23.7578 O   0  0  0  0  0  0  0  0  0  0  0  0
    7.9706  -13.7775   26.6527 C   0  0  0  0  0  0  0  0  0  0  0  0
    7.8314  -12.5142   27.1706 C   0  0  0  0  0  0  0  0  0  0  0  0
   10.6003  -16.9441   25.0729 N   0  0  0  0  0  0  0  0  0  0  0  0
   11.3450  -18.1566   25.3202 C   0  0  1  0  0  0  0  0  0  0  0  0
   12.7926  -17.7814   25.5908 C   0  0  0  0  0  0  0  0  0  0  0  0
   13.7046  -19.2804   26.0496 S   0  0  0  0  0  0  0  0  0  0  0  0
   10.8527  -18.8627   26.5263 C   0  0  0  0  0  0  0  0  0  0  0  0
   10.9725  -20.2439   26.5690 O   0  0  0  0  0  0  0  0  0  0  0  0
   10.3370  -18.2750   27.5026 O   0  0  0  0  0  0  0  0  0  0  0  0
  1  2  1  0
  3  2  1  0
  4  5  1  0
  4  3  1  0
  5  1  1  0
  5  6  1  1
  7  6  2  0
  8  9  1  0
  9 19  2  0
 10  9  1  0
 10 11  2  0
 11 12  1  0
 12 18  2  0
 12 13  1  0
 14 13  1  1
 14 16  1  0
 14 15  1  0
 15  6  1  0
 16 17  2  0
 19 18  1  0
 20 21  1  0
 20 16  1  0
 21 22  1  1
 23 22  1  0
 24 25  1  0
 24 21  1  0
 26 24  2  0
M  END
$$$$
