PYC.pdb
     RDKit          3D

 26 27  0  0  1  0  0  0  0  0999 V2000
    7.8406  -15.8034   19.1825 N   0  0  0  0  0  0  0  0  0  0  0  0
    8.0007  -15.1037   17.9170 C   0  0  0  0  0  0  0  0  0  0  0  0
    8.1557  -13.6488   18.2303 C   0  0  0  0  0  0  0  0  0  0  0  0
    8.0765  -13.6020   19.7624 C   0  0  0  0  0  0  0  0  0  0  0  0
    8.5900  -14.9894   20.0884 C   0  0  1  0  0  0  0  0  0  0  0  0
    8.3768  -15.3487   21.5097 C   0  0  0  0  0  0  0  0  0  0  0  0
    7.2440  -15.6366   21.9558 O   0  0  0  0  0  0  0  0  0  0  0  0
    9.9216  -16.2736   30.0807 O   0  0  0  0  0  0  0  0  0  0  0  0
   10.1198  -16.1769   28.6958 C   0  0  0  0  0  0  0  0  0  0  0  0
   10.4825  -14.9681   28.1392 C   0  0  0  0  0  0  0  0  0  0  0  0
   10.6777  -14.8752   26.7708 C   0  0  0  0  0  0  0  0  0  0  0  0
   10.5210  -15.9528   25.9471 C   0  0  0  0  0  0  0  0  0  0  0  0
   10.7295  -15.8636   24.4664 C   0  0  0  0  0  0  0  0  0  0  0  0
    9.4608  -15.4008   23.8101 C   0  0  2  0  0  0  0  0  0  0  0  0
    9.4906  -15.3658   22.3869 N   0  0  0  0  0  0  0  0  0  0  0  0
    8.9439  -14.1143   24.3849 C   0  0  0  0  0  0  0  0  0  0  0  0
    9.4764  -13.0001   24.2003 O   0  0  0  0  0  0  0  0  0  0  0  0
   10.1570  -17.1530   26.5299 C   0  0  0  0  0  0  0  0  0  0  0  0
    9.9570  -17.2740   27.8823 C   0  0  0  0  0  0  0  0  0  0  0  0
    7.7639  -14.1161   25.2057 N   0  0  0  0  0  0  0  0  0  0  0  0
    7.2044  -12.9119   25.7739 C   0  0  1  0  0  0  0  0  0  0  0  0
    5.6987  -13.0885   25.8799 C   0  0  0  0  0  0  0  0  0  0  0  0
    4.9943  -11.6089   26.6570 S   0  0  0  0  0  0  0  0  0  0  0  0
    7.7056  -12.6731   27.1477 C   0  0  0  0  0  0  0  0  0  0  0  0
    7.7512  -11.3655   27.6082 O   0  0  0  0  0  0  0  0  0  0  0  0
    8.0875  -13.5902   27.9077 O   0  0  0  0  0  0  0  0  0  0  0  0
  1  2  1  0
  3  2  1  0
  4  5  1  0
  4  3  1  0
  5  1  1  0
  5  6  1  1
  7  6  2  0
  8  9  1  0
  9 19  2  0
 10  9  1  0
 10 11  2  0
 11 12  1  0
 12 18  2  0
 12 13  1  0
 14 13  1  1
 14 16  1  0
 14 15  1  0
 15  6  1  0
 16 17  2  0
 19 18  1  0
 20 21  1  0
 20 16  1  0
 21 22  1  1
 23 22  1  0
 24 25  1  0
 24 21  1  0
 26 24  2  0
M  END
$$$$
