PYC.pdb
     RDKit          3D

 26 27  0  0  1  0  0  0  0  0999 V2000
    7.5198  -15.2193   19.2303 N   0  0  0  0  0  0  0  0  0  0  0  0
    7.1433  -14.8164   17.8840 C   0  0  0  0  0  0  0  0  0  0  0  0
    7.2806  -13.3282   17.8109 C   0  0  0  0  0  0  0  0  0  0  0  0
    7.7680  -12.9442   19.2149 C   0  0  0  0  0  0  0  0  0  0  0  0
    8.4795  -14.2253   19.5988 C   0  0  1  0  0  0  0  0  0  0  0  0
    8.8358  -14.2619   21.0363 C   0  0  0  0  0  0  0  0  0  0  0  0
   10.0005  -14.0377   21.4344 O   0  0  0  0  0  0  0  0  0  0  0  0
    8.1782  -13.3681   29.6370 O   0  0  0  0  0  0  0  0  0  0  0  0
    7.8389  -13.5062   28.2832 C   0  0  0  0  0  0  0  0  0  0  0  0
    8.2213  -12.5367   27.3796 C   0  0  0  0  0  0  0  0  0  0  0  0
    7.8849  -12.6755   26.0429 C   0  0  0  0  0  0  0  0  0  0  0  0
    7.1799  -13.7521   25.5866 C   0  0  0  0  0  0  0  0  0  0  0  0
    6.8109  -13.9121   24.1437 C   0  0  0  0  0  0  0  0  0  0  0  0
    7.9516  -14.5491   23.4038 C   0  0  2  0  0  0  0  0  0  0  0  0
    7.8256  -14.5598   21.9855 N   0  0  0  0  0  0  0  0  0  0  0  0
    8.3067  -15.9059   23.9384 C   0  0  0  0  0  0  0  0  0  0  0  0
    7.5873  -16.9188   23.8137 O   0  0  0  0  0  0  0  0  0  0  0  0
    6.8086  -14.7097   26.5127 C   0  0  0  0  0  0  0  0  0  0  0  0
    7.1281  -14.5982   27.8427 C   0  0  0  0  0  0  0  0  0  0  0  0
    9.5433  -16.0993   24.6452 N   0  0  0  0  0  0  0  0  0  0  0  0
    9.9691  -17.3883   25.1383 C   0  0  1  0  0  0  0  0  0  0  0  0
   11.4275  -17.5867   24.7598 C   0  0  0  0  0  0  0  0  0  0  0  0
   11.5947  -17.3795   22.9658 S   0  0  0  0  0  0  0  0  0  0  0  0
    9.8969  -17.4578   26.6167 C   0  0  0  0  0  0  0  0  0  0  0  0
   10.2141  -18.6607   27.2302 O   0  0  0  0  0  0  0  0  0  0  0  0
    9.5650  -16.4881   27.3336 O   0  0  0  0  0  0  0  0  0  0  0  0
  1  2  1  0
  3  2  1  0
  4  5  1  0
  4  3  1  0
  5  1  1  0
  5  6  1  1
  7  6  2  0
  8  9  1  0
  9 19  2  0
 10  9  1  0
 10 11  2  0
 11 12  1  0
 12 18  2  0
 12 13  1  0
 14 13  1  1
 14 16  1  0
 14 15  1  0
 15  6  1  0
 16 17  2  0
 19 18  1  0
 20 21  1  0
 20 16  1  0
 21 22  1  1
 23 22  1  0
 24 25  1  0
 24 21  1  0
 26 24  2  0
M  END
$$$$
