PYC.pdb
     RDKit          3D

 26 27  0  0  1  0  0  0  0  0999 V2000
    8.1490  -15.6169   18.7646 N   0  0  0  0  0  0  0  0  0  0  0  0
    7.9233  -15.3390   17.3545 C   0  0  0  0  0  0  0  0  0  0  0  0
    7.9910  -13.8547   17.1779 C   0  0  0  0  0  0  0  0  0  0  0  0
    8.2782  -13.3382   18.5945 C   0  0  0  0  0  0  0  0  0  0  0  0
    9.0019  -14.5409   19.1642 C   0  0  1  0  0  0  0  0  0  0  0  0
    9.1771  -14.4488   20.6323 C   0  0  0  0  0  0  0  0  0  0  0  0
   10.2970  -14.2485   21.1530 O   0  0  0  0  0  0  0  0  0  0  0  0
    7.4139  -12.6460   28.9398 O   0  0  0  0  0  0  0  0  0  0  0  0
    7.2448  -12.9454   27.5802 C   0  0  0  0  0  0  0  0  0  0  0  0
    6.6881  -14.1518   27.2094 C   0  0  0  0  0  0  0  0  0  0  0  0
    6.5221  -14.4451   25.8657 C   0  0  0  0  0  0  0  0  0  0  0  0
    6.8955  -13.5697   24.8867 C   0  0  0  0  0  0  0  0  0  0  0  0
    6.7206  -13.8767   23.4310 C   0  0  0  0  0  0  0  0  0  0  0  0
    7.9956  -14.4515   22.8848 C   0  0  2  0  0  0  0  0  0  0  0  0
    8.0411  -14.5921   21.4686 N   0  0  0  0  0  0  0  0  0  0  0  0
    8.4092  -15.7156   23.5803 C   0  0  0  0  0  0  0  0  0  0  0  0
    7.8633  -16.8244   23.4024 O   0  0  0  0  0  0  0  0  0  0  0  0
    7.4510  -12.3674   25.2849 C   0  0  0  0  0  0  0  0  0  0  0  0
    7.6273  -12.0503   26.6085 C   0  0  0  0  0  0  0  0  0  0  0  0
    9.4977  -15.6970   24.5189 N   0  0  0  0  0  0  0  0  0  0  0  0
   10.0081  -16.8924   25.1485 C   0  0  1  0  0  0  0  0  0  0  0  0
   11.5075  -16.9558   24.9086 C   0  0  0  0  0  0  0  0  0  0  0  0
   11.8077  -17.8025   23.3331 S   0  0  0  0  0  0  0  0  0  0  0  0
    9.8100  -16.8627   26.6167 C   0  0  0  0  0  0  0  0  0  0  0  0
   10.1788  -17.9819   27.3482 O   0  0  0  0  0  0  0  0  0  0  0  0
    9.3285  -15.8811   27.2242 O   0  0  0  0  0  0  0  0  0  0  0  0
  1  2  1  0
  3  2  1  0
  4  5  1  0
  4  3  1  0
  5  1  1  0
  5  6  1  1
  7  6  2  0
  8  9  1  0
  9 19  2  0
 10  9  1  0
 10 11  2  0
 11 12  1  0
 12 18  2  0
 12 13  1  0
 14 13  1  1
 14 16  1  0
 14 15  1  0
 15  6  1  0
 16 17  2  0
 19 18  1  0
 20 21  1  0
 20 16  1  0
 21 22  1  1
 23 22  1  0
 24 25  1  0
 24 21  1  0
 26 24  2  0
M  END
$$$$
