PYC.pdb
     RDKit          3D

 26 27  0  0  1  0  0  0  0  0999 V2000
    7.0155  -14.8163   20.3963 N   0  0  0  0  0  0  0  0  0  0  0  0
    6.4137  -14.1863   19.2311 C   0  0  0  0  0  0  0  0  0  0  0  0
    7.0525  -12.8425   19.0731 C   0  0  0  0  0  0  0  0  0  0  0  0
    8.0554  -12.7840   20.2336 C   0  0  0  0  0  0  0  0  0  0  0  0
    8.3341  -14.2630   20.4067 C   0  0  1  0  0  0  0  0  0  0  0  0
    9.0795  -14.5529   21.6536 C   0  0  0  0  0  0  0  0  0  0  0  0
   10.3282  -14.6267   21.6752 O   0  0  0  0  0  0  0  0  0  0  0  0
   10.8596  -15.1239   30.1856 O   0  0  0  0  0  0  0  0  0  0  0  0
   10.1561  -14.9901   28.9798 C   0  0  0  0  0  0  0  0  0  0  0  0
    9.5006  -16.0799   28.4455 C   0  0  0  0  0  0  0  0  0  0  0  0
    8.8064  -15.9451   27.2542 C   0  0  0  0  0  0  0  0  0  0  0  0
    8.7497  -14.7562   26.5852 C   0  0  0  0  0  0  0  0  0  0  0  0
    8.0022  -14.5994   25.2966 C   0  0  0  0  0  0  0  0  0  0  0  0
    8.8915  -14.9910   24.1521 C   0  0  2  0  0  0  0  0  0  0  0  0
    8.3539  -14.7521   22.8553 N   0  0  0  0  0  0  0  0  0  0  0  0
    9.4255  -16.3878   24.2814 C   0  0  0  0  0  0  0  0  0  0  0  0
    8.7354  -17.4183   24.1362 O   0  0  0  0  0  0  0  0  0  0  0  0
    9.4152  -13.6793   27.1419 C   0  0  0  0  0  0  0  0  0  0  0  0
   10.1106  -13.7838   28.3205 C   0  0  0  0  0  0  0  0  0  0  0  0
   10.8128  -16.6017   24.5908 N   0  0  0  0  0  0  0  0  0  0  0  0
   11.3973  -17.9183   24.6937 C   0  0  1  0  0  0  0  0  0  0  0  0
   12.4384  -18.0660   23.5965 C   0  0  0  0  0  0  0  0  0  0  0  0
   13.2283  -19.6903   23.7608 S   0  0  0  0  0  0  0  0  0  0  0  0
   12.1044  -18.1019   25.9828 C   0  0  0  0  0  0  0  0  0  0  0  0
   12.3424  -19.3971   26.4185 O   0  0  0  0  0  0  0  0  0  0  0  0
   12.4947  -17.1491   26.6929 O   0  0  0  0  0  0  0  0  0  0  0  0
  1  2  1  0
  3  2  1  0
  4  5  1  0
  4  3  1  0
  5  1  1  0
  5  6  1  1
  7  6  2  0
  8  9  1  0
  9 19  2  0
 10  9  1  0
 10 11  2  0
 11 12  1  0
 12 18  2  0
 12 13  1  0
 14 13  1  1
 14 16  1  0
 14 15  1  0
 15  6  1  0
 16 17  2  0
 19 18  1  0
 20 21  1  0
 20 16  1  0
 21 22  1  6
 23 22  1  0
 24 25  1  0
 24 21  1  0
 26 24  2  0
M  END
$$$$
