PYC.pdb
     RDKit          3D

 26 27  0  0  1  0  0  0  0  0999 V2000
    7.1044  -14.7589   20.4850 N   0  0  0  0  0  0  0  0  0  0  0  0
    6.6273  -14.1274   19.2642 C   0  0  0  0  0  0  0  0  0  0  0  0
    7.4239  -12.8756   19.0711 C   0  0  0  0  0  0  0  0  0  0  0  0
    8.3793  -12.8702   20.2724 C   0  0  0  0  0  0  0  0  0  0  0  0
    8.4768  -14.3599   20.5294 C   0  0  1  0  0  0  0  0  0  0  0  0
    9.1327  -14.6662   21.8219 C   0  0  0  0  0  0  0  0  0  0  0  0
   10.3762  -14.7555   21.9272 O   0  0  0  0  0  0  0  0  0  0  0  0
   10.5261  -14.5557   30.3876 O   0  0  0  0  0  0  0  0  0  0  0  0
    9.8640  -14.5537   29.1513 C   0  0  0  0  0  0  0  0  0  0  0  0
    9.8561  -13.4093   28.3812 C   0  0  0  0  0  0  0  0  0  0  0  0
    9.2014  -13.4099   27.1604 C   0  0  0  0  0  0  0  0  0  0  0  0
    8.5571  -14.5180   26.6902 C   0  0  0  0  0  0  0  0  0  0  0  0
    7.8460  -14.5297   25.3718 C   0  0  0  0  0  0  0  0  0  0  0  0
    8.7706  -15.0511   24.3099 C   0  0  2  0  0  0  0  0  0  0  0  0
    8.3252  -14.8632   22.9705 N   0  0  0  0  0  0  0  0  0  0  0  0
    9.2005  -16.4678   24.5569 C   0  0  0  0  0  0  0  0  0  0  0  0
    8.4186  -17.4403   24.5993 O   0  0  0  0  0  0  0  0  0  0  0  0
    8.5798  -15.6522   27.4813 C   0  0  0  0  0  0  0  0  0  0  0  0
    9.2204  -15.6803   28.6947 C   0  0  0  0  0  0  0  0  0  0  0  0
   10.5902  -16.7721   24.7628 N   0  0  0  0  0  0  0  0  0  0  0  0
   11.0938  -18.1242   24.8258 C   0  0  1  0  0  0  0  0  0  0  0  0
   12.2364  -18.2553   23.8324 C   0  0  0  0  0  0  0  0  0  0  0  0
   11.6451  -17.7411   22.1968 S   0  0  0  0  0  0  0  0  0  0  0  0
   11.6505  -18.4372   26.1629 C   0  0  0  0  0  0  0  0  0  0  0  0
   12.2097  -19.6911   26.3604 O   0  0  0  0  0  0  0  0  0  0  0  0
   11.6400  -17.6283   27.1168 O   0  0  0  0  0  0  0  0  0  0  0  0
  1  2  1  0
  3  2  1  0
  4  5  1  0
  4  3  1  0
  5  1  1  0
  5  6  1  1
  7  6  2  0
  8  9  1  0
  9 19  2  0
 10  9  1  0
 10 11  2  0
 11 12  1  0
 12 18  2  0
 12 13  1  0
 14 13  1  1
 14 16  1  0
 14 15  1  0
 15  6  1  0
 16 17  2  0
 19 18  1  0
 20 21  1  0
 20 16  1  0
 21 22  1  6
 23 22  1  0
 24 25  1  0
 24 21  1  0
 26 24  2  0
M  END
$$$$
