PYC.pdb
     RDKit          3D

 26 27  0  0  1  0  0  0  0  0999 V2000
    8.1071  -17.8771   19.3467 N   0  0  0  0  0  0  0  0  0  0  0  0
    7.9428  -18.2252   17.9437 C   0  0  0  0  0  0  0  0  0  0  0  0
    8.2274  -16.9929   17.1440 C   0  0  0  0  0  0  0  0  0  0  0  0
    8.5677  -15.9439   18.2116 C   0  0  0  0  0  0  0  0  0  0  0  0
    9.1017  -16.8507   19.3013 C   0  0  1  0  0  0  0  0  0  0  0  0
    9.2689  -16.1419   20.5914 C   0  0  0  0  0  0  0  0  0  0  0  0
   10.2496  -15.3978   20.8144 O   0  0  0  0  0  0  0  0  0  0  0  0
    7.1993  -12.0089   27.9579 O   0  0  0  0  0  0  0  0  0  0  0  0
    7.1127  -12.7727   26.7849 C   0  0  0  0  0  0  0  0  0  0  0  0
    6.7119  -14.0907   26.8547 C   0  0  0  0  0  0  0  0  0  0  0  0
    6.6272  -14.8431   25.6946 C   0  0  0  0  0  0  0  0  0  0  0  0
    6.9307  -14.3166   24.4720 C   0  0  0  0  0  0  0  0  0  0  0  0
    6.8425  -15.1211   23.2114 C   0  0  0  0  0  0  0  0  0  0  0  0
    8.2078  -15.6270   22.8450 C   0  0  2  0  0  0  0  0  0  0  0  0
    8.2875  -16.3138   21.6002 N   0  0  0  0  0  0  0  0  0  0  0  0
    8.8552  -16.4084   23.9509 C   0  0  0  0  0  0  0  0  0  0  0  0
    8.5038  -17.5553   24.2977 O   0  0  0  0  0  0  0  0  0  0  0  0
    7.3298  -12.9932   24.4293 C   0  0  0  0  0  0  0  0  0  0  0  0
    7.4227  -12.2243   25.5623 C   0  0  0  0  0  0  0  0  0  0  0  0
    9.9530  -15.8410   24.6852 N   0  0  0  0  0  0  0  0  0  0  0  0
   10.7841  -16.6184   25.5745 C   0  0  1  0  0  0  0  0  0  0  0  0
   12.1713  -15.9979   25.5964 C   0  0  0  0  0  0  0  0  0  0  0  0
   12.9338  -16.2239   23.9665 S   0  0  0  0  0  0  0  0  0  0  0  0
   10.2766  -16.5824   26.9662 C   0  0  0  0  0  0  0  0  0  0  0  0
   10.9492  -17.3241   27.9261 O   0  0  0  0  0  0  0  0  0  0  0  0
    9.2755  -15.9183   27.3143 O   0  0  0  0  0  0  0  0  0  0  0  0
  1  2  1  0
  3  2  1  0
  4  5  1  0
  4  3  1  0
  5  1  1  0
  5  6  1  1
  7  6  2  0
  8  9  1  0
  9 19  2  0
 10  9  1  0
 10 11  2  0
 11 12  1  0
 12 18  2  0
 12 13  1  0
 14 13  1  1
 14 16  1  0
 14 15  1  0
 15  6  1  0
 16 17  2  0
 19 18  1  0
 20 21  1  0
 20 16  1  0
 21 22  1  1
 23 22  1  0
 24 25  1  0
 24 21  1  0
 26 24  2  0
M  END
$$$$
