PYC.pdb
     RDKit          3D

 26 27  0  0  1  0  0  0  0  0999 V2000
    7.2887  -14.7230   20.3655 N   0  0  0  0  0  0  0  0  0  0  0  0
    6.8928  -13.9672   19.1871 C   0  0  0  0  0  0  0  0  0  0  0  0
    7.6234  -12.6620   19.2303 C   0  0  0  0  0  0  0  0  0  0  0  0
    8.4558  -12.7601   20.5162 C   0  0  0  0  0  0  0  0  0  0  0  0
    8.6223  -14.2634   20.6001 C   0  0  1  0  0  0  0  0  0  0  0  0
    9.1682  -14.6970   21.9072 C   0  0  0  0  0  0  0  0  0  0  0  0
   10.3467  -14.4494   22.2462 O   0  0  0  0  0  0  0  0  0  0  0  0
    6.4191  -10.4672   26.8360 O   0  0  0  0  0  0  0  0  0  0  0  0
    6.6683  -11.7767   26.4003 C   0  0  0  0  0  0  0  0  0  0  0  0
    7.8648  -12.3866   26.7152 C   0  0  0  0  0  0  0  0  0  0  0  0
    8.1086  -13.6802   26.2835 C   0  0  0  0  0  0  0  0  0  0  0  0
    7.1933  -14.3779   25.5489 C   0  0  0  0  0  0  0  0  0  0  0  0
    7.4466  -15.7769   25.0770 C   0  0  0  0  0  0  0  0  0  0  0  0
    8.6203  -15.7837   24.1408 C   0  0  2  0  0  0  0  0  0  0  0  0
    8.3282  -15.4129   22.7973 N   0  0  0  0  0  0  0  0  0  0  0  0
    9.4081  -17.0597   24.2041 C   0  0  0  0  0  0  0  0  0  0  0  0
    9.0095  -18.1528   23.7510 O   0  0  0  0  0  0  0  0  0  0  0  0
    6.0019  -13.7440   25.2467 C   0  0  0  0  0  0  0  0  0  0  0  0
    5.7335  -12.4634   25.6610 C   0  0  0  0  0  0  0  0  0  0  0  0
   10.7088  -17.0722   24.8158 N   0  0  0  0  0  0  0  0  0  0  0  0
   11.5083  -18.2696   24.9294 C   0  0  1  0  0  0  0  0  0  0  0  0
   12.9652  -17.8934   24.7165 C   0  0  0  0  0  0  0  0  0  0  0  0
   13.1318  -17.1171   23.0859 S   0  0  0  0  0  0  0  0  0  0  0  0
   11.4124  -18.8630   26.2838 C   0  0  0  0  0  0  0  0  0  0  0  0
   10.5789  -18.2503   27.2077 O   0  0  0  0  0  0  0  0  0  0  0  0
   12.0443  -19.8850   26.6312 O   0  0  0  0  0  0  0  0  0  0  0  0
  1  2  1  0
  3  2  1  0
  4  5  1  0
  4  3  1  0
  5  1  1  0
  5  6  1  1
  7  6  2  0
  8  9  1  0
  9 19  2  0
 10  9  1  0
 10 11  2  0
 11 12  1  0
 12 18  2  0
 12 13  1  0
 14 13  1  1
 14 16  1  0
 14 15  1  0
 15  6  1  0
 16 17  2  0
 19 18  1  0
 20 21  1  0
 20 16  1  0
 21 22  1  1
 23 22  1  0
 24 25  1  0
 24 21  1  0
 26 24  2  0
M  END
$$$$
