PYC.pdb
     RDKit          3D

 26 27  0  0  1  0  0  0  0  0999 V2000
    6.9650  -14.6777   20.0907 N   0  0  0  0  0  0  0  0  0  0  0  0
    6.4133  -14.0523   18.8986 C   0  0  0  0  0  0  0  0  0  0  0  0
    7.0588  -12.7092   18.7624 C   0  0  0  0  0  0  0  0  0  0  0  0
    8.0118  -12.6464   19.9639 C   0  0  0  0  0  0  0  0  0  0  0  0
    8.2822  -14.1247   20.1545 C   0  0  1  0  0  0  0  0  0  0  0  0
    8.9741  -14.4099   21.4330 C   0  0  0  0  0  0  0  0  0  0  0  0
   10.2221  -14.4278   21.5194 O   0  0  0  0  0  0  0  0  0  0  0  0
   10.3372  -14.5041   30.0399 O   0  0  0  0  0  0  0  0  0  0  0  0
    9.6882  -14.4836   28.7968 C   0  0  0  0  0  0  0  0  0  0  0  0
    9.1899  -15.6551   28.2657 C   0  0  0  0  0  0  0  0  0  0  0  0
    8.5493  -15.6321   27.0376 C   0  0  0  0  0  0  0  0  0  0  0  0
    8.3937  -14.4755   26.3289 C   0  0  0  0  0  0  0  0  0  0  0  0
    7.7028  -14.4394   25.0003 C   0  0  0  0  0  0  0  0  0  0  0  0
    8.6710  -14.8336   23.9226 C   0  0  2  0  0  0  0  0  0  0  0  0
    8.1968  -14.6697   22.5900 N   0  0  0  0  0  0  0  0  0  0  0  0
    9.2573  -16.1985   24.1378 C   0  0  0  0  0  0  0  0  0  0  0  0
    8.6051  -17.2609   24.0657 O   0  0  0  0  0  0  0  0  0  0  0  0
    8.9022  -13.3151   26.8834 C   0  0  0  0  0  0  0  0  0  0  0  0
    9.5413  -13.3082   28.0978 C   0  0  0  0  0  0  0  0  0  0  0  0
   10.6535  -16.3406   24.4484 N   0  0  0  0  0  0  0  0  0  0  0  0
   11.2870  -17.6254   24.6325 C   0  0  1  0  0  0  0  0  0  0  0  0
   12.7449  -17.5025   24.2214 C   0  0  0  0  0  0  0  0  0  0  0  0
   13.5852  -19.0672   24.5886 S   0  0  0  0  0  0  0  0  0  0  0  0
   11.2765  -18.0400   26.0550 C   0  0  0  0  0  0  0  0  0  0  0  0
   11.2290  -19.3967   26.3396 O   0  0  0  0  0  0  0  0  0  0  0  0
   11.3082  -17.2284   27.0063 O   0  0  0  0  0  0  0  0  0  0  0  0
  1  2  1  0
  3  2  1  0
  4  5  1  0
  4  3  1  0
  5  1  1  0
  5  6  1  1
  7  6  2  0
  8  9  1  0
  9 19  2  0
 10  9  1  0
 10 11  2  0
 11 12  1  0
 12 18  2  0
 12 13  1  0
 14 13  1  1
 14 16  1  0
 14 15  1  0
 15  6  1  0
 16 17  2  0
 19 18  1  0
 20 21  1  0
 20 16  1  0
 21 22  1  1
 23 22  1  0
 24 25  1  0
 24 21  1  0
 26 24  2  0
M  END
$$$$
