PYC.pdb
     RDKit          3D

 26 27  0  0  1  0  0  0  0  0999 V2000
    7.2727  -14.8209   20.4404 N   0  0  0  0  0  0  0  0  0  0  0  0
    6.6948  -14.1790   19.2697 C   0  0  0  0  0  0  0  0  0  0  0  0
    7.3634  -12.8492   19.1167 C   0  0  0  0  0  0  0  0  0  0  0  0
    8.3571  -12.8114   20.2860 C   0  0  0  0  0  0  0  0  0  0  0  0
    8.6027  -14.2958   20.4621 C   0  0  1  0  0  0  0  0  0  0  0  0
    9.3307  -14.6008   21.7157 C   0  0  0  0  0  0  0  0  0  0  0  0
   10.5792  -14.6715   21.7544 O   0  0  0  0  0  0  0  0  0  0  0  0
   10.9175  -15.1827   30.2929 O   0  0  0  0  0  0  0  0  0  0  0  0
   10.2374  -15.0758   29.0711 C   0  0  0  0  0  0  0  0  0  0  0  0
   10.2386  -13.8763   28.3899 C   0  0  0  0  0  0  0  0  0  0  0  0
    9.5660  -13.7734   27.1832 C   0  0  0  0  0  0  0  0  0  0  0  0
    8.8952  -14.8318   26.6410 C   0  0  0  0  0  0  0  0  0  0  0  0
    8.1648  -14.7315   25.3370 C   0  0  0  0  0  0  0  0  0  0  0  0
    9.1078  -15.0421   24.2107 C   0  0  2  0  0  0  0  0  0  0  0  0
    8.5884  -14.8183   22.9039 N   0  0  0  0  0  0  0  0  0  0  0  0
    9.7329  -16.4012   24.3329 C   0  0  0  0  0  0  0  0  0  0  0  0
    9.1291  -17.4725   24.1161 O   0  0  0  0  0  0  0  0  0  0  0  0
    8.9094  -16.0229   27.3436 C   0  0  0  0  0  0  0  0  0  0  0  0
    9.5672  -16.1536   28.5409 C   0  0  0  0  0  0  0  0  0  0  0  0
   11.1111  -16.5267   24.7210 N   0  0  0  0  0  0  0  0  0  0  0  0
   11.7873  -17.8002   24.8049 C   0  0  1  0  0  0  0  0  0  0  0  0
   12.8791  -17.8320   23.7482 C   0  0  0  0  0  0  0  0  0  0  0  0
   13.7713  -19.4053   23.8828 S   0  0  0  0  0  0  0  0  0  0  0  0
   12.4546  -17.9780   26.1159 C   0  0  0  0  0  0  0  0  0  0  0  0
   12.9795  -19.2260   26.4176 O   0  0  0  0  0  0  0  0  0  0  0  0
   12.5663  -17.0607   26.9588 O   0  0  0  0  0  0  0  0  0  0  0  0
  1  2  1  0
  3  2  1  0
  4  5  1  0
  4  3  1  0
  5  1  1  0
  5  6  1  1
  7  6  2  0
  8  9  1  0
  9 19  2  0
 10  9  1  0
 10 11  2  0
 11 12  1  0
 12 18  2  0
 12 13  1  0
 14 13  1  1
 14 16  1  0
 14 15  1  0
 15  6  1  0
 16 17  2  0
 19 18  1  0
 20 21  1  0
 20 16  1  0
 21 22  1  6
 23 22  1  0
 24 25  1  0
 24 21  1  0
 26 24  2  0
M  END
$$$$
