DAL.pdb
     RDKit          3D

 22 21  0  0  1  0  0  0  0  0999 V2000
   22.1309  -18.0443  -15.9847 N   0  0  0  0  0  0  0  0  0  0  0  0
   22.3197  -18.8933  -14.8083 C   0  0  1  0  0  0  0  0  0  0  0  0
   21.3288  -20.0484  -14.8262 C   0  0  0  0  0  0  0  0  0  0  0  0
   19.9335  -19.5886  -14.6847 C   0  0  0  0  0  0  0  0  0  0  0  0
   19.6998  -18.5222  -14.0931 O   0  0  0  0  0  0  0  0  0  0  0  0
   23.7150  -19.3853  -14.7802 C   0  0  0  0  0  0  0  0  0  0  0  0
   23.9123  -20.5525  -14.3207 O   0  0  0  0  0  0  0  0  0  0  0  0
   18.9096  -20.3441  -15.2040 O   0  0  0  0  0  0  0  0  0  0  0  0
   27.1992  -18.3063  -15.6666 C   0  0  0  0  0  0  0  0  0  0  0  0
   26.1545  -19.2016  -15.0361 C   0  0  2  0  0  0  0  0  0  0  0  0
   24.8381  -18.6579  -15.2231 N   0  0  0  0  0  0  0  0  0  0  0  0
   26.4555  -19.5839  -13.6493 C   0  0  0  0  0  0  0  0  0  0  0  0
   26.7169  -18.6667  -12.7987 O   0  0  0  0  0  0  0  0  0  0  0  0
   24.8375  -19.5308   -8.8681 C   0  0  0  0  0  0  0  0  0  0  0  0
   25.8615  -19.6894   -9.9478 C   0  0  1  0  0  0  0  0  0  0  0  0
   27.0704  -20.3518   -9.2718 C   0  0  0  0  0  0  0  0  0  0  0  0
   25.4067  -20.5886  -11.0623 C   0  0  0  0  0  0  0  0  0  0  0  0
   26.5292  -21.2919  -11.7809 C   0  0  2  0  0  0  0  0  0  0  0  0
   26.4808  -20.9096  -13.1660 N   0  0  0  0  0  0  0  0  0  0  0  0
   26.6196  -22.7308  -11.5254 C   0  0  0  0  0  0  0  0  0  0  0  0
   27.3760  -23.3145  -10.5496 O   0  0  0  0  0  0  0  0  0  0  0  0
   25.9412  -23.5024  -12.2673 O   0  0  0  0  0  0  0  0  0  0  0  0
  2  1  1  6
  3  4  1  0
  3  2  1  0
  4  5  2  0
  6  2  1  0
  6 11  1  0
  7  6  2  0
  8  4  1  0
 10 12  1  0
 10  9  1  1
 11 10  1  0
 12 19  1  0
 12 13  2  0
 15 14  1  1
 15 16  1  0
 17 15  1  0
 18 17  1  1
 19 18  1  0
 20 18  1  0
 21 20  1  0
 22 20  2  0
M  END
$$$$
