DAL.pdb
     RDKit          3D

 22 21  0  0  1  0  0  0  0  0999 V2000
   26.0814  -18.4079  -14.9186 N   0  0  0  0  0  0  0  0  0  0  0  0
   26.2675  -19.7321  -15.5119 C   0  0  1  0  0  0  0  0  0  0  0  0
   26.8163  -19.6048  -16.9259 C   0  0  0  0  0  0  0  0  0  0  0  0
   25.9288  -18.8127  -17.7994 C   0  0  0  0  0  0  0  0  0  0  0  0
   26.3762  -17.8053  -18.3709 O   0  0  0  0  0  0  0  0  0  0  0  0
   27.1745  -20.5278  -14.6553 C   0  0  0  0  0  0  0  0  0  0  0  0
   27.5415  -21.6626  -15.0911 O   0  0  0  0  0  0  0  0  0  0  0  0
   24.6193  -19.1943  -17.9685 O   0  0  0  0  0  0  0  0  0  0  0  0
   29.5958  -20.7172  -12.0566 C   0  0  0  0  0  0  0  0  0  0  0  0
   28.1992  -21.1022  -12.4941 C   0  0  2  0  0  0  0  0  0  0  0  0
   27.6597  -20.1225  -13.3955 N   0  0  0  0  0  0  0  0  0  0  0  0
   27.3030  -21.4559  -11.3842 C   0  0  0  0  0  0  0  0  0  0  0  0
   27.3961  -22.6184  -10.8618 O   0  0  0  0  0  0  0  0  0  0  0  0
   27.3692  -19.1183   -7.1212 C   0  0  0  0  0  0  0  0  0  0  0  0
   27.0509  -20.1843   -8.1221 C   0  0  1  0  0  0  0  0  0  0  0  0
   27.2523  -21.5143   -7.3821 C   0  0  0  0  0  0  0  0  0  0  0  0
   25.6280  -20.1346   -8.6019 C   0  0  0  0  0  0  0  0  0  0  0  0
   25.3643  -20.9681   -9.8295 C   0  0  2  0  0  0  0  0  0  0  0  0
   26.3254  -20.5999  -10.8333 N   0  0  0  0  0  0  0  0  0  0  0  0
   23.9683  -20.9928  -10.2703 C   0  0  0  0  0  0  0  0  0  0  0  0
   22.8996  -21.3362   -9.4925 O   0  0  0  0  0  0  0  0  0  0  0  0
   23.7262  -20.6686  -11.4713 O   0  0  0  0  0  0  0  0  0  0  0  0
  2  1  1  1
  3  4  1  0
  3  2  1  0
  4  5  2  0
  6  2  1  0
  6 11  1  0
  7  6  2  0
  8  4  1  0
 10 12  1  0
 10  9  1  1
 11 10  1  0
 12 19  1  0
 12 13  2  0
 15 14  1  1
 15 16  1  0
 17 15  1  0
 18 17  1  1
 19 18  1  0
 20 18  1  0
 21 20  1  0
 22 20  2  0
M  END
$$$$
