DAL.pdb
     RDKit          3D

 22 21  0  0  1  0  0  0  0  0999 V2000
   18.7537  -14.9599  -17.6670 N   0  0  0  0  0  0  0  0  0  0  0  0
   18.0717  -13.7025  -17.3603 C   0  0  1  0  0  0  0  0  0  0  0  0
   17.5178  -13.7342  -15.9430 C   0  0  0  0  0  0  0  0  0  0  0  0
   16.4101  -14.6987  -15.7985 C   0  0  0  0  0  0  0  0  0  0  0  0
   15.7462  -15.0191  -16.7976 O   0  0  0  0  0  0  0  0  0  0  0  0
   19.0165  -12.5780  -17.5408 C   0  0  0  0  0  0  0  0  0  0  0  0
   20.2171  -12.7602  -17.1698 O   0  0  0  0  0  0  0  0  0  0  0  0
   16.1227  -15.2284  -14.5633 O   0  0  0  0  0  0  0  0  0  0  0  0
   19.3000   -9.2715  -19.2340 C   0  0  0  0  0  0  0  0  0  0  0  0
   19.6959  -10.3096  -18.2064 C   0  0  2  0  0  0  0  0  0  0  0  0
   18.6849  -11.3235  -18.0912 N   0  0  0  0  0  0  0  0  0  0  0  0
   20.1271   -9.7419  -16.9211 C   0  0  0  0  0  0  0  0  0  0  0  0
   19.2803   -9.6586  -15.9677 O   0  0  0  0  0  0  0  0  0  0  0  0
   24.9683  -10.7749  -14.7735 C   0  0  0  0  0  0  0  0  0  0  0  0
   23.5257  -10.4445  -14.9956 C   0  0  1  0  0  0  0  0  0  0  0  0
   22.8015  -10.8924  -13.7181 C   0  0  0  0  0  0  0  0  0  0  0  0
   23.2798   -8.9730  -15.1730 C   0  0  0  0  0  0  0  0  0  0  0  0
   21.8380   -8.6178  -15.4303 C   0  0  2  0  0  0  0  0  0  0  0  0
   21.4279   -9.2699  -16.6442 N   0  0  0  0  0  0  0  0  0  0  0  0
   21.5300   -7.1890  -15.3455 C   0  0  0  0  0  0  0  0  0  0  0  0
   21.3457   -6.4872  -14.1885 O   0  0  0  0  0  0  0  0  0  0  0  0
   21.4257   -6.5455  -16.4323 O   0  0  0  0  0  0  0  0  0  0  0  0
  2  1  1  1
  3  4  1  0
  3  2  1  0
  4  5  2  0
  6  2  1  0
  6 11  1  0
  7  6  2  0
  8  4  1  0
 10 12  1  0
 10  9  1  6
 11 10  1  0
 12 19  1  0
 12 13  2  0
 15 14  1  1
 15 16  1  0
 17 15  1  0
 18 17  1  6
 19 18  1  0
 20 18  1  0
 21 20  1  0
 22 20  2  0
M  END
$$$$
