DAL.pdb
     RDKit          3D

 22 21  0  0  1  0  0  0  0  0999 V2000
   27.6337  -20.3585  -17.0250 N   0  0  0  0  0  0  0  0  0  0  0  0
   26.4410  -20.4005  -17.8711 C   0  0  1  0  0  0  0  0  0  0  0  0
   26.8338  -20.6011  -19.3278 C   0  0  0  0  0  0  0  0  0  0  0  0
   27.8974  -19.6701  -19.7520 C   0  0  0  0  0  0  0  0  0  0  0  0
   27.9853  -18.5566  -19.2096 O   0  0  0  0  0  0  0  0  0  0  0  0
   25.5485  -21.4842  -17.4032 C   0  0  0  0  0  0  0  0  0  0  0  0
   24.3915  -21.5512  -17.9221 O   0  0  0  0  0  0  0  0  0  0  0  0
   28.7751  -20.0416  -20.7422 O   0  0  0  0  0  0  0  0  0  0  0  0
   25.5468  -24.7870  -15.8874 C   0  0  0  0  0  0  0  0  0  0  0  0
   24.9104  -23.4211  -16.0280 C   0  0  2  0  0  0  0  0  0  0  0  0
   25.8847  -22.4440  -16.4274 N   0  0  0  0  0  0  0  0  0  0  0  0
   24.0968  -23.0208  -14.8713 C   0  0  0  0  0  0  0  0  0  0  0  0
   23.1164  -23.7614  -14.5199 O   0  0  0  0  0  0  0  0  0  0  0  0
   26.5391  -20.5551  -10.7725 C   0  0  0  0  0  0  0  0  0  0  0  0
   25.6492  -21.3751  -11.6530 C   0  0  1  0  0  0  0  0  0  0  0  0
   25.2620  -22.6020  -10.8153 C   0  0  0  0  0  0  0  0  0  0  0  0
   24.3840  -20.6620  -12.0381 C   0  0  0  0  0  0  0  0  0  0  0  0
   23.5051  -21.4384  -12.9846 C   0  0  2  0  0  0  0  0  0  0  0  0
   24.3116  -21.8602  -14.0975 N   0  0  0  0  0  0  0  0  0  0  0  0
   22.2425  -20.7835  -13.3318 C   0  0  0  0  0  0  0  0  0  0  0  0
   21.1565  -20.6744  -12.5107 O   0  0  0  0  0  0  0  0  0  0  0  0
   22.1443  -20.2732  -14.4876 O   0  0  0  0  0  0  0  0  0  0  0  0
  2  1  1  1
  3  4  1  0
  3  2  1  0
  4  5  2  0
  6  2  1  0
  6 11  1  0
  7  6  2  0
  8  4  1  0
 10 12  1  0
 10  9  1  1
 11 10  1  0
 12 19  1  0
 12 13  2  0
 15 14  1  1
 15 16  1  0
 17 15  1  0
 18 17  1  6
 19 18  1  0
 20 18  1  0
 21 20  1  0
 22 20  2  0
M  END
$$$$
