DAL.pdb
     RDKit          3D

 22 21  0  0  1  0  0  0  0  0999 V2000
   24.6588  -23.0585  -16.6026 N   0  0  0  0  0  0  0  0  0  0  0  0
   24.0669  -22.2041  -15.5732 C   0  0  1  0  0  0  0  0  0  0  0  0
   22.9116  -22.9227  -14.8908 C   0  0  0  0  0  0  0  0  0  0  0  0
   21.6028  -22.3464  -15.2558 C   0  0  0  0  0  0  0  0  0  0  0  0
   21.5520  -21.4277  -16.0894 O   0  0  0  0  0  0  0  0  0  0  0  0
   25.1109  -21.8215  -14.5967 C   0  0  0  0  0  0  0  0  0  0  0  0
   25.8344  -22.7511  -14.1227 O   0  0  0  0  0  0  0  0  0  0  0  0
   20.4571  -22.8281  -14.6689 O   0  0  0  0  0  0  0  0  0  0  0  0
   26.8782  -18.8353  -13.2598 C   0  0  0  0  0  0  0  0  0  0  0  0
   26.3981  -20.2687  -13.1888 C   0  0  2  0  0  0  0  0  0  0  0  0
   25.3613  -20.5070  -14.1541 N   0  0  0  0  0  0  0  0  0  0  0  0
   26.0691  -20.7205  -11.8295 C   0  0  0  0  0  0  0  0  0  0  0  0
   24.8486  -20.9617  -11.5373 O   0  0  0  0  0  0  0  0  0  0  0  0
   28.9569  -20.2663   -6.3637 C   0  0  0  0  0  0  0  0  0  0  0  0
   27.7127  -20.6067   -7.1222 C   0  0  1  0  0  0  0  0  0  0  0  0
   26.7012  -19.5088   -6.7638 C   0  0  0  0  0  0  0  0  0  0  0  0
   27.9076  -20.5854   -8.6118 C   0  0  0  0  0  0  0  0  0  0  0  0
   26.6988  -21.0275   -9.3958 C   0  0  2  0  0  0  0  0  0  0  0  0
   27.0092  -20.9153  -10.7951 N   0  0  0  0  0  0  0  0  0  0  0  0
   25.4354  -20.4168   -8.9780 C   0  0  0  0  0  0  0  0  0  0  0  0
   25.1014  -19.1023   -9.1387 O   0  0  0  0  0  0  0  0  0  0  0  0
   24.5772  -21.1653   -8.4221 O   0  0  0  0  0  0  0  0  0  0  0  0
  2  1  1  6
  3  4  1  0
  3  2  1  0
  4  5  2  0
  6  2  1  0
  6 11  1  0
  7  6  2  0
  8  4  1  0
 10 12  1  0
 10  9  1  1
 11 10  1  0
 12 19  1  0
 12 13  2  0
 15 14  1  1
 15 16  1  0
 17 15  1  0
 18 17  1  1
 19 18  1  0
 20 18  1  0
 21 20  1  0
 22 20  2  0
M  END
$$$$
