DAL.pdb
     RDKit          3D

 22 21  0  0  1  0  0  0  0  0999 V2000
   19.7337  -12.1003  -17.4764 N   0  0  0  0  0  0  0  0  0  0  0  0
   18.9493  -11.2469  -16.5838 C   0  0  1  0  0  0  0  0  0  0  0  0
   17.9842  -12.0890  -15.7614 C   0  0  0  0  0  0  0  0  0  0  0  0
   16.9177  -12.6840  -16.5899 C   0  0  0  0  0  0  0  0  0  0  0  0
   16.9208  -12.4938  -17.8169 O   0  0  0  0  0  0  0  0  0  0  0  0
   19.8660  -10.4789  -15.7123 C   0  0  0  0  0  0  0  0  0  0  0  0
   19.3428   -9.6714  -14.8838 O   0  0  0  0  0  0  0  0  0  0  0  0
   15.9327  -13.4372  -15.9972 O   0  0  0  0  0  0  0  0  0  0  0  0
   23.4915  -10.1725  -14.8351 C   0  0  0  0  0  0  0  0  0  0  0  0
   22.0557   -9.6997  -14.9071 C   0  0  2  0  0  0  0  0  0  0  0  0
   21.2720  -10.5753  -15.7332 N   0  0  0  0  0  0  0  0  0  0  0  0
   21.9132   -8.2746  -15.2371 C   0  0  0  0  0  0  0  0  0  0  0  0
   21.6247   -7.9446  -16.4375 O   0  0  0  0  0  0  0  0  0  0  0  0
   20.8125   -3.7029  -16.7328 C   0  0  0  0  0  0  0  0  0  0  0  0
   20.1977   -4.1669  -15.4498 C   0  0  1  0  0  0  0  0  0  0  0  0
   18.6807   -4.0580  -15.6596 C   0  0  0  0  0  0  0  0  0  0  0  0
   20.5169   -5.5996  -15.1289 C   0  0  0  0  0  0  0  0  0  0  0  0
   21.9195   -5.8178  -14.6227 C   0  0  2  0  0  0  0  0  0  0  0  0
   22.0717   -7.2147  -14.3188 N   0  0  0  0  0  0  0  0  0  0  0  0
   22.3471   -4.8924  -13.5718 C   0  0  0  0  0  0  0  0  0  0  0  0
   22.6269   -5.2375  -12.2803 O   0  0  0  0  0  0  0  0  0  0  0  0
   22.4703   -3.6696  -13.8808 O   0  0  0  0  0  0  0  0  0  0  0  0
  2  1  1  6
  3  4  1  0
  3  2  1  0
  4  5  2  0
  6  2  1  0
  6 11  1  0
  7  6  2  0
  8  4  1  0
 10 12  1  0
 10  9  1  6
 11 10  1  0
 12 19  1  0
 12 13  2  0
 15 14  1  6
 15 16  1  0
 17 15  1  0
 18 17  1  1
 19 18  1  0
 20 18  1  0
 21 20  1  0
 22 20  2  0
M  END
$$$$
