DAL.pdb
     RDKit          3D

 22 21  0  0  1  0  0  0  0  0999 V2000
   16.1451  -12.8636  -18.7568 N   0  0  0  0  0  0  0  0  0  0  0  0
   15.9397  -11.9129  -17.6640 C   0  0  1  0  0  0  0  0  0  0  0  0
   15.9250  -12.6404  -16.3271 C   0  0  0  0  0  0  0  0  0  0  0  0
   14.7352  -13.4999  -16.1729 C   0  0  0  0  0  0  0  0  0  0  0  0
   13.6236  -13.0712  -16.5228 O   0  0  0  0  0  0  0  0  0  0  0  0
   17.0048  -10.8865  -17.7033 C   0  0  0  0  0  0  0  0  0  0  0  0
   18.1793  -11.2759  -17.9882 O   0  0  0  0  0  0  0  0  0  0  0  0
   14.8678  -14.7606  -15.6420 O   0  0  0  0  0  0  0  0  0  0  0  0
   17.4409   -7.2110  -17.8975 C   0  0  0  0  0  0  0  0  0  0  0  0
   17.9230   -8.6083  -17.5724 C   0  0  2  0  0  0  0  0  0  0  0  0
   16.8145   -9.5134  -17.4482 N   0  0  0  0  0  0  0  0  0  0  0  0
   18.8740   -8.6655  -16.4534 C   0  0  0  0  0  0  0  0  0  0  0  0
   18.4267   -8.8586  -15.2720 O   0  0  0  0  0  0  0  0  0  0  0  0
   22.9426  -10.6501  -13.7711 C   0  0  0  0  0  0  0  0  0  0  0  0
   23.3868   -9.7451  -14.8769 C   0  0  1  0  0  0  0  0  0  0  0  0
   24.5716  -10.4609  -15.5411 C   0  0  0  0  0  0  0  0  0  0  0  0
   22.3304   -9.5333  -15.9240 C   0  0  0  0  0  0  0  0  0  0  0  0
   21.2182   -8.6105  -15.4966 C   0  0  2  0  0  0  0  0  0  0  0  0
   20.2727   -8.5218  -16.5759 N   0  0  0  0  0  0  0  0  0  0  0  0
   21.6587   -7.3317  -14.9360 C   0  0  0  0  0  0  0  0  0  0  0  0
   21.9487   -7.1028  -13.6211 O   0  0  0  0  0  0  0  0  0  0  0  0
   21.7839   -6.3537  -15.7321 O   0  0  0  0  0  0  0  0  0  0  0  0
  2  1  1  6
  3  4  1  0
  3  2  1  0
  4  5  2  0
  6  2  1  0
  6 11  1  0
  7  6  2  0
  8  4  1  0
 10 12  1  0
 10  9  1  1
 11 10  1  0
 12 19  1  0
 12 13  2  0
 15 14  1  1
 15 16  1  0
 17 15  1  0
 18 17  1  6
 19 18  1  0
 20 18  1  0
 21 20  1  0
 22 20  2  0
M  END
$$$$
