DAL.pdb
     RDKit          3D

 22 21  0  0  1  0  0  0  0  0999 V2000
   17.6920   -7.6340  -20.6858 N   0  0  0  0  0  0  0  0  0  0  0  0
   18.9773   -7.9658  -20.0708 C   0  0  1  0  0  0  0  0  0  0  0  0
   19.7639   -6.6970  -19.7741 C   0  0  0  0  0  0  0  0  0  0  0  0
   20.1883   -6.0030  -21.0055 C   0  0  0  0  0  0  0  0  0  0  0  0
   19.8779   -4.8125  -21.1725 O   0  0  0  0  0  0  0  0  0  0  0  0
   18.7408   -8.7496  -18.8381 C   0  0  0  0  0  0  0  0  0  0  0  0
   17.8764   -8.3047  -18.0214 O   0  0  0  0  0  0  0  0  0  0  0  0
   20.9174   -6.6798  -21.9539 O   0  0  0  0  0  0  0  0  0  0  0  0
   19.2991  -12.0821  -17.3483 C   0  0  0  0  0  0  0  0  0  0  0  0
   19.1267  -10.5823  -17.2435 C   0  0  2  0  0  0  0  0  0  0  0  0
   19.4014   -9.9488  -18.5032 N   0  0  0  0  0  0  0  0  0  0  0  0
   19.8293   -9.9798  -16.1018 C   0  0  0  0  0  0  0  0  0  0  0  0
   19.5294  -10.3629  -14.9201 O   0  0  0  0  0  0  0  0  0  0  0  0
   24.9315   -9.8368  -16.1922 C   0  0  0  0  0  0  0  0  0  0  0  0
   23.5126   -9.8310  -15.7166 C   0  0  1  0  0  0  0  0  0  0  0  0
   23.5120  -10.6524  -14.4196 C   0  0  0  0  0  0  0  0  0  0  0  0
   23.0071   -8.4542  -15.3905 C   0  0  0  0  0  0  0  0  0  0  0  0
   21.5303   -8.3959  -15.0960 C   0  0  2  0  0  0  0  0  0  0  0  0
   20.8311   -8.9908  -16.2024 N   0  0  0  0  0  0  0  0  0  0  0  0
   21.0377   -7.0850  -14.6686 C   0  0  0  0  0  0  0  0  0  0  0  0
   20.0249   -6.3885  -15.2638 O   0  0  0  0  0  0  0  0  0  0  0  0
   21.5925   -6.5486  -13.6635 O   0  0  0  0  0  0  0  0  0  0  0  0
  2  1  1  1
  3  4  1  0
  3  2  1  0
  4  5  2  0
  6  2  1  0
  6 11  1  0
  7  6  2  0
  8  4  1  0
 10 12  1  0
 10  9  1  6
 11 10  1  0
 12 19  1  0
 12 13  2  0
 15 14  1  1
 15 16  1  0
 17 15  1  0
 18 17  1  6
 19 18  1  0
 20 18  1  0
 21 20  1  0
 22 20  2  0
M  END
$$$$
