DAL.pdb
     RDKit          3D

 22 21  0  0  1  0  0  0  0  0999 V2000
   23.4525  -33.4677   -7.7846 N   0  0  0  0  0  0  0  0  0  0  0  0
   23.0187  -33.6038   -6.3941 C   0  0  1  0  0  0  0  0  0  0  0  0
   24.1558  -33.2438   -5.4486 C   0  0  0  0  0  0  0  0  0  0  0  0
   25.1564  -34.3236   -5.3431 C   0  0  0  0  0  0  0  0  0  0  0  0
   24.9283  -35.4208   -5.8776 O   0  0  0  0  0  0  0  0  0  0  0  0
   21.8382  -32.7416   -6.1644 C   0  0  0  0  0  0  0  0  0  0  0  0
   21.8718  -31.5670   -6.6457 O   0  0  0  0  0  0  0  0  0  0  0  0
   26.3254  -34.1062   -4.6537 O   0  0  0  0  0  0  0  0  0  0  0  0
   18.2988  -32.7329   -5.6903 C   0  0  0  0  0  0  0  0  0  0  0  0
   19.6305  -32.1701   -5.2426 C   0  0  2  0  0  0  0  0  0  0  0  0
   20.6832  -33.1245   -5.4530 N   0  0  0  0  0  0  0  0  0  0  0  0
   19.6081  -31.5873   -3.8936 C   0  0  0  0  0  0  0  0  0  0  0  0
   20.6824  -31.5909   -3.2015 O   0  0  0  0  0  0  0  0  0  0  0  0
   20.4448  -28.6434    0.0138 C   0  0  0  0  0  0  0  0  0  0  0  0
   19.5671  -28.1628   -1.0988 C   0  0  1  0  0  0  0  0  0  0  0  0
   20.2161  -26.8653   -1.6012 C   0  0  0  0  0  0  0  0  0  0  0  0
   19.5019  -29.1225   -2.2531 C   0  0  0  0  0  0  0  0  0  0  0  0
   18.4839  -30.2204   -2.0822 C   0  0  2  0  0  0  0  0  0  0  0  0
   18.4739  -31.0103   -3.2834 N   0  0  0  0  0  0  0  0  0  0  0  0
   17.1720  -29.7769   -1.6068 C   0  0  0  0  0  0  0  0  0  0  0  0
   16.7342  -29.8464   -0.3150 O   0  0  0  0  0  0  0  0  0  0  0  0
   16.3736  -29.2864   -2.4600 O   0  0  0  0  0  0  0  0  0  0  0  0
  2  1  1  6
  3  4  1  0
  3  2  1  0
  4  5  2  0
  6  2  1  0
  6 11  1  0
  7  6  2  0
  8  4  1  0
 10 12  1  0
 10  9  1  1
 11 10  1  0
 12 19  1  0
 12 13  2  0
 15 14  1  1
 15 16  1  0
 17 15  1  0
 18 17  1  6
 19 18  1  0
 20 18  1  0
 21 20  1  0
 22 20  2  0
M  END
$$$$
