YCN.pdb
     RDKit          3D

 27 27  0  0  1  0  0  0  0  0999 V2000
   12.4589  -16.6482   32.1694 O   0  0  0  0  0  0  0  0  0  0  0  0
   11.8507  -16.4546   30.9259 C   0  0  0  0  0  0  0  0  0  0  0  0
   11.2154  -15.2850   30.6478 C   0  0  0  0  0  0  0  0  0  0  0  0
   10.6043  -15.0688   29.4216 C   0  0  0  0  0  0  0  0  0  0  0  0
   10.6381  -16.0542   28.4627 C   0  0  0  0  0  0  0  0  0  0  0  0
    9.9760  -15.7980   27.1628 C   0  0  0  0  0  0  0  0  0  0  0  0
    8.5174  -16.2190   27.2057 C   0  0  2  0  0  0  0  0  0  0  0  0
    8.4757  -17.6594   27.2655 N   0  0  0  0  0  0  0  0  0  0  0  0
    7.8617  -15.7350   25.9621 C   0  0  0  0  0  0  0  0  0  0  0  0
    7.7499  -16.5310   24.9754 O   0  0  0  0  0  0  0  0  0  0  0  0
   11.2812  -17.2372   28.7452 C   0  0  0  0  0  0  0  0  0  0  0  0
   11.8923  -17.4558   29.9688 C   0  0  0  0  0  0  0  0  0  0  0  0
    7.3510  -14.4162   25.8236 N   0  0  0  0  0  0  0  0  0  0  0  0
    6.8081  -13.9347   24.5714 C   0  0  1  0  0  0  0  0  0  0  0  0
    6.3045  -12.5031   24.7072 C   0  0  0  0  0  0  0  0  0  0  0  0
    5.2937  -12.2882   26.1771 S   0  0  0  0  0  0  0  0  0  0  0  0
    7.8186  -14.0167   23.4749 C   0  0  0  0  0  0  0  0  0  0  0  0
    8.9249  -13.4573   23.6505 O   0  0  0  0  0  0  0  0  0  0  0  0
   11.3937  -15.7217   23.6666 N   0  0  0  0  0  0  0  0  0  0  0  0
   10.8235  -15.8083   22.3545 C   0  0  0  0  0  0  0  0  0  0  0  0
   11.5866  -15.4710   21.4237 O   0  0  0  0  0  0  0  0  0  0  0  0
    9.4403  -16.2625   22.1316 C   0  0  0  0  0  0  0  0  0  0  0  0
    8.6546  -15.2171   21.4082 C   0  0  2  0  0  0  0  0  0  0  0  0
    7.5895  -14.6842   22.2697 N   0  0  0  0  0  0  0  0  0  0  0  0
    7.9401  -15.8569   20.2827 C   0  0  0  0  0  0  0  0  0  0  0  0
    8.5064  -16.3679   19.2987 O   0  0  0  0  0  0  0  0  0  0  0  0
    6.5578  -15.9094   20.2891 O   0  0  0  0  0  0  0  0  0  0  0  0
  1  2  1  0
  2  3  2  0
  3  4  1  0
  5  6  1  0
  5  4  2  0
  6  7  1  0
  7  8  1  6
  7  9  1  0
  9 13  1  0
  9 10  2  0
 11  5  1  0
 12 11  2  0
 12  2  1  0
 13 14  1  0
 14 15  1  1
 15 16  1  0
 17 14  1  0
 17 18  2  0
 19 20  1  0
 20 21  2  0
 22 20  1  0
 23 22  1  1
 23 24  1  0
 24 17  1  0
 25 23  1  0
 26 25  2  0
 27 25  1  0
M  END
$$$$
