YCN.pdb
     RDKit          3D

 27 27  0  0  1  0  0  0  0  0999 V2000
    5.0272  -10.4263   27.9053 O   0  0  0  0  0  0  0  0  0  0  0  0
    5.7780  -11.4731   27.3629 C   0  0  0  0  0  0  0  0  0  0  0  0
    5.5952  -11.8497   26.0692 C   0  0  0  0  0  0  0  0  0  0  0  0
    6.3277  -12.8852   25.5080 C   0  0  0  0  0  0  0  0  0  0  0  0
    7.2598  -13.5491   26.2708 C   0  0  0  0  0  0  0  0  0  0  0  0
    8.0267  -14.6522   25.6474 C   0  0  0  0  0  0  0  0  0  0  0  0
    7.0932  -15.6885   25.0463 C   0  0  2  0  0  0  0  0  0  0  0  0
    7.0007  -16.7893   25.9736 N   0  0  0  0  0  0  0  0  0  0  0  0
    7.6808  -16.1460   23.7594 C   0  0  0  0  0  0  0  0  0  0  0  0
    8.4375  -17.1693   23.7575 O   0  0  0  0  0  0  0  0  0  0  0  0
    7.4440  -13.1671   27.5797 C   0  0  0  0  0  0  0  0  0  0  0  0
    6.7140  -12.1334   28.1427 C   0  0  0  0  0  0  0  0  0  0  0  0
    7.4349  -15.4891   22.5235 N   0  0  0  0  0  0  0  0  0  0  0  0
    8.1518  -15.8395   21.3162 C   0  0  1  0  0  0  0  0  0  0  0  0
    7.8208  -14.8756   20.1835 C   0  0  0  0  0  0  0  0  0  0  0  0
    8.4372  -15.4670   18.6028 S   0  0  0  0  0  0  0  0  0  0  0  0
    9.6267  -15.8637   21.5490 C   0  0  0  0  0  0  0  0  0  0  0  0
   10.1559  -14.8599   22.0782 O   0  0  0  0  0  0  0  0  0  0  0  0
   11.1402  -18.4477   24.5262 N   0  0  0  0  0  0  0  0  0  0  0  0
   12.1206  -17.8124   23.6959 C   0  0  0  0  0  0  0  0  0  0  0  0
   12.8292  -16.9596   24.2733 O   0  0  0  0  0  0  0  0  0  0  0  0
   12.2729  -18.1475   22.2699 C   0  0  0  0  0  0  0  0  0  0  0  0
   11.8939  -16.9828   21.4135 C   0  0  2  0  0  0  0  0  0  0  0  0
   10.4392  -16.9468   21.2063 N   0  0  0  0  0  0  0  0  0  0  0  0
   12.4590  -17.1857   20.0621 C   0  0  0  0  0  0  0  0  0  0  0  0
   13.4567  -16.5814   19.6265 O   0  0  0  0  0  0  0  0  0  0  0  0
   11.8697  -18.0945   19.2017 O   0  0  0  0  0  0  0  0  0  0  0  0
  1  2  1  0
  2  3  2  0
  3  4  1  0
  5  6  1  0
  5  4  2  0
  6  7  1  0
  7  8  1  1
  7  9  1  0
  9 13  1  0
  9 10  2  0
 11  5  1  0
 12 11  2  0
 12  2  1  0
 13 14  1  0
 14 15  1  6
 15 16  1  0
 17 14  1  0
 17 18  2  0
 19 20  1  0
 20 21  2  0
 22 20  1  0
 23 22  1  1
 23 24  1  0
 24 17  1  0
 25 23  1  0
 26 25  2  0
 27 25  1  0
M  END
$$$$
