YCN.pdb
     RDKit          3D

 27 27  0  0  1  0  0  0  0  0999 V2000
    2.3121  -26.3574   21.8511 O   0  0  0  0  0  0  0  0  0  0  0  0
    3.5330  -25.8689   21.3772 C   0  0  0  0  0  0  0  0  0  0  0  0
    4.0049  -24.6685   21.8075 C   0  0  0  0  0  0  0  0  0  0  0  0
    5.2133  -24.1622   21.3521 C   0  0  0  0  0  0  0  0  0  0  0  0
    5.9543  -24.8846   20.4463 C   0  0  0  0  0  0  0  0  0  0  0  0
    7.2398  -24.3200   19.9750 C   0  0  0  0  0  0  0  0  0  0  0  0
    7.0097  -23.0725   19.1398 C   0  0  2  0  0  0  0  0  0  0  0  0
    6.3190  -23.4683   17.9371 N   0  0  0  0  0  0  0  0  0  0  0  0
    8.3366  -22.4912   18.8052 C   0  0  0  0  0  0  0  0  0  0  0  0
    8.9594  -22.9261   17.7841 O   0  0  0  0  0  0  0  0  0  0  0  0
    5.4758  -26.0992   20.0117 C   0  0  0  0  0  0  0  0  0  0  0  0
    4.2695  -26.6072   20.4647 C   0  0  0  0  0  0  0  0  0  0  0  0
    8.9454  -21.4658   19.5781 N   0  0  0  0  0  0  0  0  0  0  0  0
   10.2160  -20.8812   19.2063 C   0  0  1  0  0  0  0  0  0  0  0  0
   10.1394  -19.3594   19.2056 C   0  0  0  0  0  0  0  0  0  0  0  0
    8.7954  -18.7597   18.1750 S   0  0  0  0  0  0  0  0  0  0  0  0
   11.3091  -21.3352   20.1169 C   0  0  0  0  0  0  0  0  0  0  0  0
   11.0911  -21.3243   21.3498 O   0  0  0  0  0  0  0  0  0  0  0  0
   14.6962  -25.5309   19.9728 N   0  0  0  0  0  0  0  0  0  0  0  0
   14.1428  -24.3328   19.4138 C   0  0  0  0  0  0  0  0  0  0  0  0
   13.1974  -24.5102   18.6153 O   0  0  0  0  0  0  0  0  0  0  0  0
   14.6575  -22.9974   19.7616 C   0  0  0  0  0  0  0  0  0  0  0  0
   13.6398  -22.2290   20.5409 C   0  0  2  0  0  0  0  0  0  0  0  0
   12.5560  -21.7690   19.6611 N   0  0  0  0  0  0  0  0  0  0  0  0
   14.2669  -20.9871   21.0421 C   0  0  0  0  0  0  0  0  0  0  0  0
   14.2374  -19.8990   20.4378 O   0  0  0  0  0  0  0  0  0  0  0  0
   14.9359  -20.9971   22.2528 O   0  0  0  0  0  0  0  0  0  0  0  0
  1  2  1  0
  2  3  2  0
  3  4  1  0
  5  6  1  0
  5  4  2  0
  6  7  1  0
  7  8  1  6
  7  9  1  0
  9 13  1  0
  9 10  2  0
 11  5  1  0
 12 11  2  0
 12  2  1  0
 13 14  1  0
 14 15  1  1
 15 16  1  0
 17 14  1  0
 17 18  2  0
 19 20  1  0
 20 21  2  0
 22 20  1  0
 23 22  1  6
 23 24  1  0
 24 17  1  0
 25 23  1  0
 26 25  2  0
 27 25  1  0
M  END
$$$$
