YCN.pdb
     RDKit          3D

 27 27  0  0  1  0  0  0  0  0999 V2000
    5.2261  -10.6060   28.0959 O   0  0  0  0  0  0  0  0  0  0  0  0
    5.9178  -11.6868   27.5417 C   0  0  0  0  0  0  0  0  0  0  0  0
    7.1166  -12.0703   28.0561 C   0  0  0  0  0  0  0  0  0  0  0  0
    7.8222  -13.1392   27.5239 C   0  0  0  0  0  0  0  0  0  0  0  0
    7.3039  -13.8297   26.4534 C   0  0  0  0  0  0  0  0  0  0  0  0
    8.0788  -14.9657   25.9033 C   0  0  0  0  0  0  0  0  0  0  0  0
    7.1891  -15.8792   25.0783 C   0  0  2  0  0  0  0  0  0  0  0  0
    6.8051  -16.9915   25.9121 N   0  0  0  0  0  0  0  0  0  0  0  0
    7.9762  -16.3570   23.9109 C   0  0  0  0  0  0  0  0  0  0  0  0
    8.6483  -17.4323   24.0202 O   0  0  0  0  0  0  0  0  0  0  0  0
    6.0908  -13.4408   25.9337 C   0  0  0  0  0  0  0  0  0  0  0  0
    5.3840  -12.3738   26.4632 C   0  0  0  0  0  0  0  0  0  0  0  0
    8.0131  -15.6640   22.6708 N   0  0  0  0  0  0  0  0  0  0  0  0
    8.9725  -15.9947   21.6390 C   0  0  1  0  0  0  0  0  0  0  0  0
    8.7160  -15.1861   20.3733 C   0  0  0  0  0  0  0  0  0  0  0  0
    7.0207  -15.3583   19.8039 S   0  0  0  0  0  0  0  0  0  0  0  0
   10.3725  -15.7734   22.1093 C   0  0  0  0  0  0  0  0  0  0  0  0
   10.5422  -15.1434   23.1779 O   0  0  0  0  0  0  0  0  0  0  0  0
   14.5563  -17.7650   24.3334 N   0  0  0  0  0  0  0  0  0  0  0  0
   13.1296  -17.8039   24.2014 C   0  0  0  0  0  0  0  0  0  0  0  0
   12.4977  -17.7387   25.2780 O   0  0  0  0  0  0  0  0  0  0  0  0
   12.4685  -17.9127   22.8899 C   0  0  0  0  0  0  0  0  0  0  0  0
   12.7311  -16.6933   22.0667 C   0  0  2  0  0  0  0  0  0  0  0  0
   11.4953  -16.2333   21.4175 N   0  0  0  0  0  0  0  0  0  0  0  0
   13.6262  -17.0613   20.9486 C   0  0  0  0  0  0  0  0  0  0  0  0
   14.8627  -16.9177   20.9702 O   0  0  0  0  0  0  0  0  0  0  0  0
   13.0925  -17.6007   19.7920 O   0  0  0  0  0  0  0  0  0  0  0  0
  1  2  1  0
  2  3  2  0
  3  4  1  0
  5  6  1  0
  5  4  2  0
  6  7  1  0
  7  8  1  1
  7  9  1  0
  9 13  1  0
  9 10  2  0
 11  5  1  0
 12 11  2  0
 12  2  1  0
 13 14  1  0
 14 15  1  6
 15 16  1  0
 17 14  1  0
 17 18  2  0
 19 20  1  0
 20 21  2  0
 22 20  1  0
 23 22  1  1
 23 24  1  0
 24 17  1  0
 25 23  1  0
 26 25  2  0
 27 25  1  0
M  END
$$$$
