YCN.pdb
     RDKit          3D

 27 27  0  0  1  0  0  0  0  0999 V2000
    5.7996  -10.6654   28.7855 O   0  0  0  0  0  0  0  0  0  0  0  0
    6.3107  -11.5420   27.8242 C   0  0  0  0  0  0  0  0  0  0  0  0
    7.2794  -12.4361   28.1573 C   0  0  0  0  0  0  0  0  0  0  0  0
    7.8028  -13.3161   27.2216 C   0  0  0  0  0  0  0  0  0  0  0  0
    7.3364  -13.2886   25.9281 C   0  0  0  0  0  0  0  0  0  0  0  0
    7.9137  -14.2378   24.9486 C   0  0  0  0  0  0  0  0  0  0  0  0
    6.8340  -15.1237   24.3518 C   0  0  2  0  0  0  0  0  0  0  0  0
    6.5746  -16.1923   25.2850 N   0  0  0  0  0  0  0  0  0  0  0  0
    7.3461  -15.6725   23.0684 C   0  0  0  0  0  0  0  0  0  0  0  0
    7.9226  -16.8072   23.0705 O   0  0  0  0  0  0  0  0  0  0  0  0
    6.3562  -12.3835   25.5922 C   0  0  0  0  0  0  0  0  0  0  0  0
    5.8317  -11.5036   26.5245 C   0  0  0  0  0  0  0  0  0  0  0  0
    7.2209  -14.9841   21.8315 N   0  0  0  0  0  0  0  0  0  0  0  0
    7.8911  -15.4395   20.6324 C   0  0  1  0  0  0  0  0  0  0  0  0
    7.6952  -14.4534   19.4875 C   0  0  0  0  0  0  0  0  0  0  0  0
    8.4019  -15.0645   17.9527 S   0  0  0  0  0  0  0  0  0  0  0  0
    9.3489  -15.6552   20.8745 C   0  0  0  0  0  0  0  0  0  0  0  0
    9.9059  -14.9708   21.7628 O   0  0  0  0  0  0  0  0  0  0  0  0
   11.9925  -17.0069   24.3151 N   0  0  0  0  0  0  0  0  0  0  0  0
   12.1977  -16.9169   22.8995 C   0  0  0  0  0  0  0  0  0  0  0  0
   13.1242  -16.1551   22.5475 O   0  0  0  0  0  0  0  0  0  0  0  0
   11.3723  -17.6705   21.9403 C   0  0  0  0  0  0  0  0  0  0  0  0
   11.4434  -17.0477   20.5836 C   0  0  2  0  0  0  0  0  0  0  0  0
   10.1159  -16.5789   20.1611 N   0  0  0  0  0  0  0  0  0  0  0  0
   11.8006  -18.0937   19.6013 C   0  0  0  0  0  0  0  0  0  0  0  0
   12.8529  -18.0940   18.9358 O   0  0  0  0  0  0  0  0  0  0  0  0
   10.9371  -19.1519   19.3818 O   0  0  0  0  0  0  0  0  0  0  0  0
  1  2  1  0
  2  3  2  0
  3  4  1  0
  5  6  1  0
  5  4  2  0
  6  7  1  0
  7  8  1  1
  7  9  1  0
  9 13  1  0
  9 10  2  0
 11  5  1  0
 12 11  2  0
 12  2  1  0
 13 14  1  0
 14 15  1  6
 15 16  1  0
 17 14  1  0
 17 18  2  0
 19 20  1  0
 20 21  2  0
 22 20  1  0
 23 22  1  1
 23 24  1  0
 24 17  1  0
 25 23  1  0
 26 25  2  0
 27 25  1  0
M  END
$$$$
