CKA.pdb
     RDKit          3D

 21 20  0  0  1  0  0  0  0  0999 V2000
   27.2941  -15.0855  -17.8410 N   0  0  0  0  0  0  0  0  0  0  0  0
   26.6484  -15.0645  -16.5512 C   0  0  1  0  0  0  0  0  0  0  0  0
   25.8299  -13.8023  -16.3764 C   0  0  0  0  0  0  0  0  0  0  0  0
   27.0124  -12.4568  -16.0106 S   0  0  0  0  0  0  0  0  0  0  0  0
   25.8280  -16.2817  -16.4029 C   0  0  0  0  0  0  0  0  0  0  0  0
   25.1131  -16.6665  -17.3774 O   0  0  0  0  0  0  0  0  0  0  0  0
   25.8584  -16.9900  -15.1780 N   0  0  0  0  0  0  0  0  0  0  0  0
   25.1114  -18.1995  -15.0452 C   0  0  1  0  0  0  0  0  0  0  0  0
   25.6814  -19.0169  -13.8811 C   0  0  0  0  0  0  0  0  0  0  0  0
   27.0477  -19.5319  -14.1972 C   0  0  0  0  0  0  0  0  0  0  0  0
   26.9674  -20.6203  -15.2112 C   0  0  0  0  0  0  0  0  0  0  0  0
   28.2989  -21.2019  -15.6120 C   0  0  0  0  0  0  0  0  0  0  0  0
   28.1290  -22.2842  -16.5765 N   0  0  0  0  0  0  0  0  0  0  0  0
   23.6668  -17.9389  -14.7537 C   0  0  0  0  0  0  0  0  0  0  0  0
   23.2946  -16.9254  -14.0953 O   0  0  0  0  0  0  0  0  0  0  0  0
   20.8047  -17.3851  -15.9796 C   0  0  0  0  0  0  0  0  0  0  0  0
   21.2431  -18.5233  -15.0823 C   0  0  2  0  0  0  0  0  0  0  0  0
   22.6416  -18.8144  -15.2004 N   0  0  0  0  0  0  0  0  0  0  0  0
   20.3866  -19.7058  -15.3115 C   0  0  0  0  0  0  0  0  0  0  0  0
   19.0319  -19.6405  -15.0514 O   0  0  0  0  0  0  0  0  0  0  0  0
   20.8599  -20.7801  -15.7405 O   0  0  0  0  0  0  0  0  0  0  0  0
  2  5  1  0
  2  1  1  6
  3  2  1  0
  4  3  1  0
  5  6  2  0
  7  8  1  0
  7  5  1  0
  8 14  1  0
  8  9  1  1
 10  9  1  0
 10 11  1  0
 11 12  1  0
 12 13  1  0
 14 18  1  0
 15 14  2  0
 17 16  1  6
 17 19  1  0
 18 17  1  0
 19 21  2  0
 19 20  1  0
M  END
$$$$
