CKA.pdb
     RDKit          3D

 21 20  0  0  1  0  0  0  0  0999 V2000
   18.4495  -12.7599  -19.9015 N   0  0  0  0  0  0  0  0  0  0  0  0
   19.1271  -11.5210  -20.1961 C   0  0  1  0  0  0  0  0  0  0  0  0
   18.1366  -10.4389  -20.5726 C   0  0  0  0  0  0  0  0  0  0  0  0
   17.0697  -10.1732  -19.1118 S   0  0  0  0  0  0  0  0  0  0  0  0
   19.9538  -11.1361  -19.0364 C   0  0  0  0  0  0  0  0  0  0  0  0
   19.5994  -11.5057  -17.8760 O   0  0  0  0  0  0  0  0  0  0  0  0
   21.1214  -10.3642  -19.2464 N   0  0  0  0  0  0  0  0  0  0  0  0
   21.9429  -10.0127  -18.1328 C   0  0  1  0  0  0  0  0  0  0  0  0
   23.4088   -9.9851  -18.5787 C   0  0  0  0  0  0  0  0  0  0  0  0
   24.3210   -9.7093  -17.4281 C   0  0  0  0  0  0  0  0  0  0  0  0
   25.7422   -9.7642  -17.8714 C   0  0  0  0  0  0  0  0  0  0  0  0
   26.7484   -9.4924  -16.7826 C   0  0  0  0  0  0  0  0  0  0  0  0
   28.1120   -9.6591  -17.2757 N   0  0  0  0  0  0  0  0  0  0  0  0
   21.6066   -8.6586  -17.5914 C   0  0  0  0  0  0  0  0  0  0  0  0
   21.6154   -7.6290  -18.3255 O   0  0  0  0  0  0  0  0  0  0  0  0
   20.2955   -7.2562  -14.3198 C   0  0  0  0  0  0  0  0  0  0  0  0
   21.0075   -7.1721  -15.6535 C   0  0  2  0  0  0  0  0  0  0  0  0
   21.2609   -8.4606  -16.2282 N   0  0  0  0  0  0  0  0  0  0  0  0
   22.2278   -6.3485  -15.5236 C   0  0  0  0  0  0  0  0  0  0  0  0
   23.4653   -6.8961  -15.7996 O   0  0  0  0  0  0  0  0  0  0  0  0
   22.1719   -5.1523  -15.1657 O   0  0  0  0  0  0  0  0  0  0  0  0
  2  5  1  0
  2  1  1  1
  3  2  1  0
  4  3  1  0
  5  6  2  0
  7  8  1  0
  7  5  1  0
  8 14  1  0
  8  9  1  6
 10  9  1  0
 10 11  1  0
 11 12  1  0
 12 13  1  0
 14 18  1  0
 15 14  2  0
 17 16  1  1
 17 19  1  0
 18 17  1  0
 19 21  2  0
 19 20  1  0
M  END
$$$$
