CKA.pdb
     RDKit          3D

 21 20  0  0  1  0  0  0  0  0999 V2000
   26.2064  -12.1595  -17.2562 N   0  0  0  0  0  0  0  0  0  0  0  0
   26.0443  -10.9897  -16.4278 C   0  0  1  0  0  0  0  0  0  0  0  0
   27.2513  -10.0809  -16.5331 C   0  0  0  0  0  0  0  0  0  0  0  0
   28.6440  -10.9652  -15.7451 S   0  0  0  0  0  0  0  0  0  0  0  0
   24.7966  -10.2997  -16.8068 C   0  0  0  0  0  0  0  0  0  0  0  0
   24.4047  -10.3508  -18.0120 O   0  0  0  0  0  0  0  0  0  0  0  0
   24.0677   -9.5978  -15.8173 N   0  0  0  0  0  0  0  0  0  0  0  0
   22.8220   -8.9894  -16.1592 C   0  0  1  0  0  0  0  0  0  0  0  0
   21.6761   -9.8814  -15.6697 C   0  0  0  0  0  0  0  0  0  0  0  0
   20.3467   -9.3110  -16.0431 C   0  0  0  0  0  0  0  0  0  0  0  0
   19.2510  -10.2006  -15.5665 C   0  0  0  0  0  0  0  0  0  0  0  0
   17.8641   -9.7342  -15.9283 C   0  0  0  0  0  0  0  0  0  0  0  0
   16.8490  -10.5264  -15.2409 N   0  0  0  0  0  0  0  0  0  0  0  0
   22.6581   -7.6463  -15.5198 C   0  0  0  0  0  0  0  0  0  0  0  0
   22.7069   -7.4979  -14.2649 O   0  0  0  0  0  0  0  0  0  0  0  0
   22.3266   -4.0659  -16.7604 C   0  0  0  0  0  0  0  0  0  0  0  0
   22.3157   -5.1628  -15.7166 C   0  0  2  0  0  0  0  0  0  0  0  0
   22.4398   -6.4717  -16.2876 N   0  0  0  0  0  0  0  0  0  0  0  0
   21.1276   -5.0225  -14.8487 C   0  0  0  0  0  0  0  0  0  0  0  0
   21.0804   -4.0243  -13.8956 O   0  0  0  0  0  0  0  0  0  0  0  0
   20.1491   -5.7929  -14.9538 O   0  0  0  0  0  0  0  0  0  0  0  0
  2  5  1  0
  2  1  1  6
  3  2  1  0
  4  3  1  0
  5  6  2  0
  7  8  1  0
  7  5  1  0
  8 14  1  0
  8  9  1  1
 10  9  1  0
 10 11  1  0
 11 12  1  0
 12 13  1  0
 14 18  1  0
 15 14  2  0
 17 16  1  6
 17 19  1  0
 18 17  1  0
 19 21  2  0
 19 20  1  0
M  END
$$$$
