CKA.pdb
     RDKit          3D

 21 20  0  0  1  0  0  0  0  0999 V2000
   13.6875  -12.4687  -10.9331 N   0  0  0  0  0  0  0  0  0  0  0  0
   13.2967  -11.1078  -11.2093 C   0  0  1  0  0  0  0  0  0  0  0  0
   12.0299  -10.7466  -10.4620 C   0  0  0  0  0  0  0  0  0  0  0  0
   10.7105  -11.8336  -11.1102 S   0  0  0  0  0  0  0  0  0  0  0  0
   14.4151  -10.2070  -10.8714 C   0  0  0  0  0  0  0  0  0  0  0  0
   15.0767  -10.4161   -9.8097 O   0  0  0  0  0  0  0  0  0  0  0  0
   14.7226   -9.1322  -11.7394 N   0  0  0  0  0  0  0  0  0  0  0  0
   15.8308   -8.2823  -11.4426 C   0  0  1  0  0  0  0  0  0  0  0  0
   16.6292   -8.0311  -12.7262 C   0  0  0  0  0  0  0  0  0  0  0  0
   17.5365   -9.1774  -13.0342 C   0  0  0  0  0  0  0  0  0  0  0  0
   18.2662   -8.9302  -14.3092 C   0  0  0  0  0  0  0  0  0  0  0  0
   19.1448  -10.0695  -14.7586 C   0  0  0  0  0  0  0  0  0  0  0  0
   19.8628   -9.7263  -15.9822 N   0  0  0  0  0  0  0  0  0  0  0  0
   15.3936   -6.9533  -10.9113 C   0  0  0  0  0  0  0  0  0  0  0  0
   14.6553   -6.1790  -11.5855 O   0  0  0  0  0  0  0  0  0  0  0  0
   15.6464   -5.1019   -7.6087 C   0  0  0  0  0  0  0  0  0  0  0  0
   15.4379   -5.2042   -9.1050 C   0  0  2  0  0  0  0  0  0  0  0  0
   15.7844   -6.4940   -9.6255 N   0  0  0  0  0  0  0  0  0  0  0  0
   16.1400   -4.0985   -9.7897 C   0  0  0  0  0  0  0  0  0  0  0  0
   15.6048   -2.8255   -9.7773 O   0  0  0  0  0  0  0  0  0  0  0  0
   17.2209   -4.2847  -10.3889 O   0  0  0  0  0  0  0  0  0  0  0  0
  2  5  1  0
  2  1  1  1
  3  2  1  0
  4  3  1  0
  5  6  2  0
  7  8  1  0
  7  5  1  0
  8 14  1  0
  8  9  1  6
 10  9  1  0
 10 11  1  0
 11 12  1  0
 12 13  1  0
 14 18  1  0
 15 14  2  0
 17 16  1  1
 17 19  1  0
 18 17  1  0
 19 21  2  0
 19 20  1  0
M  END
$$$$
