CKA.pdb
     RDKit          3D

 21 20  0  0  1  0  0  0  0  0999 V2000
   15.6541  -12.2113  -10.3960 N   0  0  0  0  0  0  0  0  0  0  0  0
   14.9135  -10.9745  -10.3429 C   0  0  1  0  0  0  0  0  0  0  0  0
   13.7821  -11.0640   -9.3401 C   0  0  0  0  0  0  0  0  0  0  0  0
   12.3555  -11.7913  -10.2225 S   0  0  0  0  0  0  0  0  0  0  0  0
   15.8414   -9.8699  -10.0340 C   0  0  0  0  0  0  0  0  0  0  0  0
   16.7288  -10.0400   -9.1439 O   0  0  0  0  0  0  0  0  0  0  0  0
   15.7191   -8.6480  -10.7376 N   0  0  0  0  0  0  0  0  0  0  0  0
   16.6544   -7.5974  -10.4923 C   0  0  1  0  0  0  0  0  0  0  0  0
   17.5754   -7.4508  -11.7082 C   0  0  0  0  0  0  0  0  0  0  0  0
   18.5681   -6.3523  -11.5079 C   0  0  0  0  0  0  0  0  0  0  0  0
   19.5513   -6.3346  -12.6270 C   0  0  0  0  0  0  0  0  0  0  0  0
   20.6365   -5.2975  -12.4902 C   0  0  0  0  0  0  0  0  0  0  0  0
   21.6668   -5.4799  -13.5079 N   0  0  0  0  0  0  0  0  0  0  0  0
   15.9768   -6.2812  -10.2735 C   0  0  0  0  0  0  0  0  0  0  0  0
   15.3576   -5.6902  -11.2043 O   0  0  0  0  0  0  0  0  0  0  0  0
   15.2688   -4.0411   -7.2867 C   0  0  0  0  0  0  0  0  0  0  0  0
   15.3607   -4.3678   -8.7624 C   0  0  2  0  0  0  0  0  0  0  0  0
   15.9941   -5.6292   -9.0119 N   0  0  0  0  0  0  0  0  0  0  0  0
   15.9974   -3.2491   -9.4887 C   0  0  0  0  0  0  0  0  0  0  0  0
   15.2540   -2.1397   -9.8406 O   0  0  0  0  0  0  0  0  0  0  0  0
   17.2078   -3.2782   -9.7987 O   0  0  0  0  0  0  0  0  0  0  0  0
  2  5  1  0
  2  1  1  1
  3  2  1  0
  4  3  1  0
  5  6  2  0
  7  8  1  0
  7  5  1  0
  8 14  1  0
  8  9  1  6
 10  9  1  0
 10 11  1  0
 11 12  1  0
 12 13  1  0
 14 18  1  0
 15 14  2  0
 17 16  1  1
 17 19  1  0
 18 17  1  0
 19 21  2  0
 19 20  1  0
M  END
$$$$
