CKA.pdb
     RDKit          3D

 21 20  0  0  1  0  0  0  0  0999 V2000
   24.0057  -11.9520  -18.2618 N   0  0  0  0  0  0  0  0  0  0  0  0
   23.5686  -11.4386  -16.9865 C   0  0  1  0  0  0  0  0  0  0  0  0
   24.6819  -11.5144  -15.9625 C   0  0  0  0  0  0  0  0  0  0  0  0
   24.9068  -13.2841  -15.5624 S   0  0  0  0  0  0  0  0  0  0  0  0
   23.0737  -10.0603  -17.1656 C   0  0  0  0  0  0  0  0  0  0  0  0
   23.7248   -9.2622  -17.9058 O   0  0  0  0  0  0  0  0  0  0  0  0
   21.8855   -9.6623  -16.5079 N   0  0  0  0  0  0  0  0  0  0  0  0
   21.3776   -8.3430  -16.7085 C   0  0  1  0  0  0  0  0  0  0  0  0
   19.8521   -8.3646  -16.5642 C   0  0  0  0  0  0  0  0  0  0  0  0
   19.1793   -8.2297  -17.8913 C   0  0  0  0  0  0  0  0  0  0  0  0
   18.9373   -9.5737  -18.4865 C   0  0  0  0  0  0  0  0  0  0  0  0
   18.2657   -9.5490  -19.8357 C   0  0  0  0  0  0  0  0  0  0  0  0
   18.1373  -10.8965  -20.3817 N   0  0  0  0  0  0  0  0  0  0  0  0
   21.9160   -7.3744  -15.7029 C   0  0  0  0  0  0  0  0  0  0  0  0
   22.0819   -7.6981  -14.4918 O   0  0  0  0  0  0  0  0  0  0  0  0
   23.3244   -3.8393  -15.8437 C   0  0  0  0  0  0  0  0  0  0  0  0
   22.9433   -5.1414  -15.1713 C   0  0  2  0  0  0  0  0  0  0  0  0
   22.2677   -6.0445  -16.0560 N   0  0  0  0  0  0  0  0  0  0  0  0
   22.1813   -4.8673  -13.9349 C   0  0  0  0  0  0  0  0  0  0  0  0
   22.8472   -4.5533  -12.7665 O   0  0  0  0  0  0  0  0  0  0  0  0
   20.9324   -4.9121  -13.9155 O   0  0  0  0  0  0  0  0  0  0  0  0
  2  5  1  0
  2  1  1  6
  3  2  1  0
  4  3  1  0
  5  6  2  0
  7  8  1  0
  7  5  1  0
  8 14  1  0
  8  9  1  1
 10  9  1  0
 10 11  1  0
 11 12  1  0
 12 13  1  0
 14 18  1  0
 15 14  2  0
 17 16  1  6
 17 19  1  0
 18 17  1  0
 19 21  2  0
 19 20  1  0
M  END
$$$$
