IMS.pdb
     RDKit          3D

 23 22  0  0  1  0  0  0  0  0999 V2000
   23.3071  -24.4115  -16.3778 C   0  0  0  0  0  0  0  0  0  0  0  0
   21.8548  -24.2763  -15.9759 C   0  0  0  0  0  0  0  0  0  0  0  0
   21.5449  -25.1811  -14.7987 C   0  0  2  0  0  0  0  0  0  0  0  0
   21.8901  -26.6000  -15.2043 C   0  0  0  0  0  0  0  0  0  0  0  0
   20.1308  -25.0465  -14.3333 C   0  0  2  0  0  0  0  0  0  0  0  0
   19.9218  -23.6216  -14.0498 N   0  0  0  0  0  0  0  0  0  0  0  0
   19.7972  -25.8552  -13.1423 C   0  0  0  0  0  0  0  0  0  0  0  0
   19.8612  -27.1076  -13.2407 O   0  0  0  0  0  0  0  0  0  0  0  0
   18.2217  -25.1035   -5.4206 C   0  0  0  0  0  0  0  0  0  0  0  0
   18.7121  -24.3932   -7.0185 S   0  0  0  0  0  0  0  0  0  0  0  0
   18.5578  -25.7638   -8.2504 C   0  0  0  0  0  0  0  0  0  0  0  0
   19.0413  -25.2283   -9.5331 C   0  0  0  0  0  0  0  0  0  0  0  0
   19.0656  -26.1392  -10.7220 C   0  0  2  0  0  0  0  0  0  0  0  0
   19.4153  -25.3254  -11.9142 N   0  0  0  0  0  0  0  0  0  0  0  0
   17.8553  -26.9154  -10.9673 C   0  0  0  0  0  0  0  0  0  0  0  0
   16.7879  -26.3834  -11.4505 O   0  0  0  0  0  0  0  0  0  0  0  0
   15.8310  -31.1838  -11.8315 O   0  0  0  0  0  0  0  0  0  0  0  0
   16.9307  -30.4119  -11.5024 C   0  0  0  0  0  0  0  0  0  0  0  0
   16.5169  -29.0506  -10.9767 C   0  0  2  0  0  0  0  0  0  0  0  0
   17.7273  -28.3052  -10.7113 N   0  0  0  0  0  0  0  0  0  0  0  0
   15.6249  -29.1375   -9.8296 C   0  0  0  0  0  0  0  0  0  0  0  0
   14.2599  -29.1990  -10.0155 O   0  0  0  0  0  0  0  0  0  0  0  0
   16.0808  -29.1575   -8.6671 O   0  0  0  0  0  0  0  0  0  0  0  0
  2  1  1  0
  3  4  1  6
  3  2  1  0
  5  3  1  0
  5  6  1  1
  7  8  2  0
  7  5  1  0
 10 11  1  0
 10  9  1  0
 11 12  1  0
 13 12  1  1
 13 14  1  0
 14  7  1  0
 15 13  1  0
 16 15  2  0
 18 17  1  0
 19 18  1  1
 19 21  1  0
 19 20  1  0
 20 15  1  0
 21 22  1  0
 23 21  2  0
M  END
$$$$
