IMS.pdb
     RDKit          3D

 23 22  0  0  1  0  0  0  0  0999 V2000
   20.9757  -20.7333  -10.7345 C   0  0  0  0  0  0  0  0  0  0  0  0
   22.2412  -20.9760   -9.9417 C   0  0  0  0  0  0  0  0  0  0  0  0
   23.4499  -20.4717  -10.7066 C   0  0  2  0  0  0  0  0  0  0  0  0
   23.3629  -21.0173  -12.1180 C   0  0  0  0  0  0  0  0  0  0  0  0
   24.7376  -20.8249  -10.0345 C   0  0  2  0  0  0  0  0  0  0  0  0
   24.6836  -20.2264   -8.6954 N   0  0  0  0  0  0  0  0  0  0  0  0
   25.9478  -20.3656  -10.7473 C   0  0  0  0  0  0  0  0  0  0  0  0
   26.2656  -19.1522  -10.6525 O   0  0  0  0  0  0  0  0  0  0  0  0
   31.7403  -21.7095   -9.8738 C   0  0  0  0  0  0  0  0  0  0  0  0
   31.6777  -22.2737  -11.5989 S   0  0  0  0  0  0  0  0  0  0  0  0
   30.4420  -21.1866  -12.4423 C   0  0  0  0  0  0  0  0  0  0  0  0
   29.1438  -21.4576  -11.8044 C   0  0  0  0  0  0  0  0  0  0  0  0
   27.9404  -20.7103  -12.2915 C   0  0  2  0  0  0  0  0  0  0  0  0
   26.7639  -21.1855  -11.5197 N   0  0  0  0  0  0  0  0  0  0  0  0
   27.6748  -20.7749  -13.7242 C   0  0  0  0  0  0  0  0  0  0  0  0
   27.2831  -21.8576  -14.2989 O   0  0  0  0  0  0  0  0  0  0  0  0
   26.8503  -17.4284  -15.8835 O   0  0  0  0  0  0  0  0  0  0  0  0
   26.3978  -18.6801  -16.2602 C   0  0  0  0  0  0  0  0  0  0  0  0
   27.4469  -19.7475  -16.0141 C   0  0  2  0  0  0  0  0  0  0  0  0
   27.8108  -19.6797  -14.6162 N   0  0  0  0  0  0  0  0  0  0  0  0
   28.5840  -19.6379  -16.9163 C   0  0  0  0  0  0  0  0  0  0  0  0
   28.4126  -19.8150  -18.2730 O   0  0  0  0  0  0  0  0  0  0  0  0
   29.7249  -19.3833  -16.4767 O   0  0  0  0  0  0  0  0  0  0  0  0
  2  1  1  0
  3  4  1  6
  3  2  1  0
  5  3  1  0
  5  6  1  1
  7  8  2  0
  7  5  1  0
 10 11  1  0
 10  9  1  0
 11 12  1  0
 13 12  1  6
 13 14  1  0
 14  7  1  0
 15 13  1  0
 16 15  2  0
 18 17  1  0
 19 18  1  6
 19 21  1  0
 19 20  1  0
 20 15  1  0
 21 22  1  0
 23 21  2  0
M  END
$$$$
