IMS.pdb
     RDKit          3D

 23 22  0  0  1  0  0  0  0  0999 V2000
   17.3436  -12.6349  -12.5928 C   0  0  0  0  0  0  0  0  0  0  0  0
   17.9373  -11.3409  -12.0809 C   0  0  0  0  0  0  0  0  0  0  0  0
   16.8377  -10.3687  -11.6988 C   0  0  2  0  0  0  0  0  0  0  0  0
   15.9307  -10.2025  -12.9017 C   0  0  0  0  0  0  0  0  0  0  0  0
   17.3763   -9.0653  -11.2034 C   0  0  2  0  0  0  0  0  0  0  0  0
   18.1124   -9.3636   -9.9690 N   0  0  0  0  0  0  0  0  0  0  0  0
   16.3488   -8.0351  -10.9453 C   0  0  0  0  0  0  0  0  0  0  0  0
   15.6536   -7.6368  -11.9150 O   0  0  0  0  0  0  0  0  0  0  0  0
   11.3020   -8.1012   -7.6406 C   0  0  0  0  0  0  0  0  0  0  0  0
   12.1314   -6.8093   -6.6703 S   0  0  0  0  0  0  0  0  0  0  0  0
   13.1845   -5.8739   -7.8687 C   0  0  0  0  0  0  0  0  0  0  0  0
   14.2189   -6.8111   -8.3350 C   0  0  0  0  0  0  0  0  0  0  0  0
   15.1177   -6.3817   -9.4538 C   0  0  2  0  0  0  0  0  0  0  0  0
   16.0957   -7.4722   -9.6987 N   0  0  0  0  0  0  0  0  0  0  0  0
   15.8036   -5.1064   -9.2798 C   0  0  0  0  0  0  0  0  0  0  0  0
   16.7929   -4.9672   -8.4686 O   0  0  0  0  0  0  0  0  0  0  0  0
   16.9777   -2.7561  -12.0768 O   0  0  0  0  0  0  0  0  0  0  0  0
   16.2517   -2.0045  -11.1706 C   0  0  0  0  0  0  0  0  0  0  0  0
   16.1965   -2.6745   -9.8109 C   0  0  2  0  0  0  0  0  0  0  0  0
   15.4676   -3.9132   -9.9703 N   0  0  0  0  0  0  0  0  0  0  0  0
   15.6493   -1.8072   -8.7778 C   0  0  0  0  0  0  0  0  0  0  0  0
   14.3446   -1.9641   -8.3598 O   0  0  0  0  0  0  0  0  0  0  0  0
   16.3499   -0.9135   -8.2580 O   0  0  0  0  0  0  0  0  0  0  0  0
  2  1  1  0
  3  4  1  6
  3  2  1  0
  5  3  1  0
  5  6  1  1
  7  8  2  0
  7  5  1  0
 10 11  1  0
 10  9  1  0
 11 12  1  0
 13 12  1  1
 13 14  1  0
 14  7  1  0
 15 13  1  0
 16 15  2  0
 18 17  1  0
 19 18  1  6
 19 21  1  0
 19 20  1  0
 20 15  1  0
 21 22  1  0
 23 21  2  0
M  END
$$$$
