IMS.pdb
     RDKit          3D

 23 22  0  0  1  0  0  0  0  0999 V2000
   18.1786  -10.9894  -13.7526 C   0  0  0  0  0  0  0  0  0  0  0  0
   18.4297  -10.2210  -12.4738 C   0  0  0  0  0  0  0  0  0  0  0  0
   17.3058   -9.2349  -12.2195 C   0  0  2  0  0  0  0  0  0  0  0  0
   17.1591   -8.3735  -13.4578 C   0  0  0  0  0  0  0  0  0  0  0  0
   17.5267   -8.4259  -10.9820 C   0  0  2  0  0  0  0  0  0  0  0  0
   17.5440   -9.3761   -9.8635 N   0  0  0  0  0  0  0  0  0  0  0  0
   16.5108   -7.3795  -10.7435 C   0  0  0  0  0  0  0  0  0  0  0  0
   16.4167   -6.4447  -11.5799 O   0  0  0  0  0  0  0  0  0  0  0  0
   12.6050   -8.2257   -6.1161 C   0  0  0  0  0  0  0  0  0  0  0  0
   11.4758   -7.0127   -6.8591 S   0  0  0  0  0  0  0  0  0  0  0  0
   12.5070   -6.0038   -8.0161 C   0  0  0  0  0  0  0  0  0  0  0  0
   13.5971   -6.8795   -8.4750 C   0  0  0  0  0  0  0  0  0  0  0  0
   14.6072   -6.3200   -9.4292 C   0  0  2  0  0  0  0  0  0  0  0  0
   15.6474   -7.3561   -9.6532 N   0  0  0  0  0  0  0  0  0  0  0  0
   15.2195   -5.0509   -9.0527 C   0  0  0  0  0  0  0  0  0  0  0  0
   16.1051   -4.9682   -8.1227 O   0  0  0  0  0  0  0  0  0  0  0  0
   14.8933   -1.7130  -11.4386 O   0  0  0  0  0  0  0  0  0  0  0  0
   15.9860   -1.8929  -10.6098 C   0  0  0  0  0  0  0  0  0  0  0  0
   15.5932   -2.5722   -9.3118 C   0  0  2  0  0  0  0  0  0  0  0  0
   14.9174   -3.8031   -9.6571 N   0  0  0  0  0  0  0  0  0  0  0  0
   14.8143   -1.7076   -8.4372 C   0  0  0  0  0  0  0  0  0  0  0  0
   15.3427   -0.5145   -7.9915 O   0  0  0  0  0  0  0  0  0  0  0  0
   13.6624   -2.0325   -8.0801 O   0  0  0  0  0  0  0  0  0  0  0  0
  2  1  1  0
  3  4  1  6
  3  2  1  0
  5  3  1  0
  5  6  1  1
  7  8  2  0
  7  5  1  0
 10 11  1  0
 10  9  1  0
 11 12  1  0
 13 12  1  1
 13 14  1  0
 14  7  1  0
 15 13  1  0
 16 15  2  0
 18 17  1  0
 19 18  1  6
 19 21  1  0
 19 20  1  0
 20 15  1  0
 21 22  1  0
 23 21  2  0
M  END
$$$$
