IMS.pdb
     RDKit          3D

 23 22  0  0  1  0  0  0  0  0999 V2000
   18.3485  -14.1627  -17.6183 C   0  0  0  0  0  0  0  0  0  0  0  0
   19.8318  -14.0316  -17.8861 C   0  0  0  0  0  0  0  0  0  0  0  0
   20.4290  -12.9314  -17.0297 C   0  0  2  0  0  0  0  0  0  0  0  0
   19.6463  -11.6617  -17.2984 C   0  0  0  0  0  0  0  0  0  0  0  0
   21.8956  -12.7603  -17.2632 C   0  0  2  0  0  0  0  0  0  0  0  0
   22.5054  -14.0783  -17.0505 N   0  0  0  0  0  0  0  0  0  0  0  0
   22.5421  -11.7555  -16.3937 C   0  0  0  0  0  0  0  0  0  0  0  0
   22.5881  -11.9846  -15.1577 O   0  0  0  0  0  0  0  0  0  0  0  0
   28.5573  -12.1951  -15.5166 C   0  0  0  0  0  0  0  0  0  0  0  0
   27.7255  -10.7121  -16.1544 S   0  0  0  0  0  0  0  0  0  0  0  0
   25.9372  -10.9120  -15.7279 C   0  0  0  0  0  0  0  0  0  0  0  0
   25.2576   -9.6939  -16.1971 C   0  0  0  0  0  0  0  0  0  0  0  0
   23.7808   -9.5722  -15.9781 C   0  0  2  0  0  0  0  0  0  0  0  0
   23.1059  -10.5682  -16.8489 N   0  0  0  0  0  0  0  0  0  0  0  0
   23.2049   -8.2464  -16.1726 C   0  0  0  0  0  0  0  0  0  0  0  0
   22.8840   -7.8044  -17.3378 O   0  0  0  0  0  0  0  0  0  0  0  0
   22.0893   -5.7124  -12.9633 O   0  0  0  0  0  0  0  0  0  0  0  0
   21.3426   -5.8643  -14.1178 C   0  0  0  0  0  0  0  0  0  0  0  0
   22.2297   -6.0812  -15.3288 C   0  0  2  0  0  0  0  0  0  0  0  0
   22.9382   -7.3255  -15.1265 N   0  0  0  0  0  0  0  0  0  0  0  0
   23.1066   -4.9500  -15.5942 C   0  0  0  0  0  0  0  0  0  0  0  0
   22.5767   -3.7384  -15.9849 O   0  0  0  0  0  0  0  0  0  0  0  0
   24.3446   -5.0602  -15.4725 O   0  0  0  0  0  0  0  0  0  0  0  0
  2  1  1  0
  3  4  1  6
  3  2  1  0
  5  3  1  0
  5  6  1  1
  7  8  2  0
  7  5  1  0
 10 11  1  0
 10  9  1  0
 11 12  1  0
 13 12  1  6
 13 14  1  0
 14  7  1  0
 15 13  1  0
 16 15  2  0
 18 17  1  0
 19 18  1  1
 19 21  1  0
 19 20  1  0
 20 15  1  0
 21 22  1  0
 23 21  2  0
M  END
$$$$
