IMS.pdb
     RDKit          3D

 23 22  0  0  1  0  0  0  0  0999 V2000
   15.3542  -23.5673  -15.6812 C   0  0  0  0  0  0  0  0  0  0  0  0
   16.5880  -22.7931  -15.2721 C   0  0  0  0  0  0  0  0  0  0  0  0
   17.1613  -23.3531  -13.9844 C   0  0  2  0  0  0  0  0  0  0  0  0
   16.0642  -23.3218  -12.9392 C   0  0  0  0  0  0  0  0  0  0  0  0
   18.3916  -22.6265  -13.5451 C   0  0  2  0  0  0  0  0  0  0  0  0
   19.3543  -22.7380  -14.6474 N   0  0  0  0  0  0  0  0  0  0  0  0
   18.9911  -23.1357  -12.2941 C   0  0  0  0  0  0  0  0  0  0  0  0
   19.5260  -24.2740  -12.3149 O   0  0  0  0  0  0  0  0  0  0  0  0
   23.4609  -20.9834   -8.0329 C   0  0  0  0  0  0  0  0  0  0  0  0
   22.3707  -19.9994   -9.1013 S   0  0  0  0  0  0  0  0  0  0  0  0
   21.4519  -21.2177  -10.1461 C   0  0  0  0  0  0  0  0  0  0  0  0
   20.4733  -21.8710   -9.2622 C   0  0  0  0  0  0  0  0  0  0  0  0
   19.6084  -22.9528   -9.8325 C   0  0  2  0  0  0  0  0  0  0  0  0
   19.0049  -22.4407  -11.0892 N   0  0  0  0  0  0  0  0  0  0  0  0
   18.5787  -23.4906   -8.9505 C   0  0  0  0  0  0  0  0  0  0  0  0
   17.4189  -22.9440   -8.8403 O   0  0  0  0  0  0  0  0  0  0  0  0
   17.6997  -27.1466   -8.5992 O   0  0  0  0  0  0  0  0  0  0  0  0
   17.7763  -26.6648   -7.3049 C   0  0  0  0  0  0  0  0  0  0  0  0
   17.6998  -25.1504   -7.2702 C   0  0  2  0  0  0  0  0  0  0  0  0
   18.7370  -24.6465   -8.1428 N   0  0  0  0  0  0  0  0  0  0  0  0
   17.7666  -24.6141   -5.9185 C   0  0  0  0  0  0  0  0  0  0  0  0
   16.7163  -24.8017   -5.0451 O   0  0  0  0  0  0  0  0  0  0  0  0
   18.7710  -23.9798   -5.5328 O   0  0  0  0  0  0  0  0  0  0  0  0
  2  1  1  0
  3  4  1  1
  3  2  1  0
  5  3  1  0
  5  6  1  6
  7  8  2  0
  7  5  1  0
 10 11  1  0
 10  9  1  0
 11 12  1  0
 13 12  1  1
 13 14  1  0
 14  7  1  0
 15 13  1  0
 16 15  2  0
 18 17  1  0
 19 18  1  1
 19 21  1  0
 19 20  1  0
 20 15  1  0
 21 22  1  0
 23 21  2  0
M  END
$$$$
