FTF.pdb
     RDKit          3D

 30 31  0  0  1  0  0  0  0  0999 V2000
   25.3758  -18.5354  -16.1069 N   0  0  0  0  0  0  0  0  0  0  0  0
   25.9057  -18.1660  -14.8080 C   0  0  1  0  0  0  0  0  0  0  0  0
   25.4501  -16.7494  -14.5239 C   0  0  0  0  0  0  0  0  0  0  0  0
   26.0447  -15.7842  -15.4814 C   0  0  0  0  0  0  0  0  0  0  0  0
   25.2654  -15.2491  -16.5068 C   0  0  0  0  0  0  0  0  0  0  0  0
   25.7817  -14.3507  -17.4156 C   0  0  0  0  0  0  0  0  0  0  0  0
   27.1036  -13.9721  -17.3067 C   0  0  0  0  0  0  0  0  0  0  0  0
   27.8657  -14.4911  -16.3092 C   0  0  0  0  0  0  0  0  0  0  0  0
   27.3458  -15.3872  -15.4050 C   0  0  0  0  0  0  0  0  0  0  0  0
   25.3203  -19.0457  -13.7365 C   0  0  0  0  0  0  0  0  0  0  0  0
   24.1730  -19.5415  -13.8563 O   0  0  0  0  0  0  0  0  0  0  0  0
   25.1524  -21.5556  -13.8833 C   0  0  0  0  0  0  0  0  0  0  0  0
   25.8369  -21.7257  -12.5513 C   0  0  1  0  0  0  0  0  0  0  0  0
   27.1961  -21.9222  -12.8125 O   0  0  0  0  0  0  0  0  0  0  0  0
   25.6394  -20.4699  -11.7235 C   0  0  2  0  0  0  0  0  0  0  0  0
   26.0407  -19.3483  -12.5511 N   0  0  0  0  0  0  0  0  0  0  0  0
   26.4223  -20.5226  -10.4625 C   0  0  0  0  0  0  0  0  0  0  0  0
   27.6503  -20.2262  -10.4601 O   0  0  0  0  0  0  0  0  0  0  0  0
   25.7798  -20.9091   -9.2566 N   0  0  0  0  0  0  0  0  0  0  0  0
   26.4853  -20.9307   -7.9826 C   0  0  1  0  0  0  0  0  0  0  0  0
   27.1565  -19.5826   -7.7239 C   0  0  0  0  0  0  0  0  0  0  0  0
   27.8158  -19.6542   -6.3905 C   0  0  0  0  0  0  0  0  0  0  0  0
   27.3151  -18.9222   -5.3197 C   0  0  0  0  0  0  0  0  0  0  0  0
   27.9102  -18.9674   -4.0607 C   0  0  0  0  0  0  0  0  0  0  0  0
   29.0198  -19.7458   -3.8438 C   0  0  0  0  0  0  0  0  0  0  0  0
   29.5258  -20.4763   -4.8978 C   0  0  0  0  0  0  0  0  0  0  0  0
   28.9279  -20.4263   -6.1485 C   0  0  0  0  0  0  0  0  0  0  0  0
   25.5816  -21.3047   -6.8690 C   0  0  0  0  0  0  0  0  0  0  0  0
   25.9928  -21.9375   -5.8669 O   0  0  0  0  0  0  0  0  0  0  0  0
   24.2505  -20.9508   -6.9282 O   0  0  0  0  0  0  0  0  0  0  0  0
  2 10  1  0
  2  1  1  6
  3  2  1  0
  4  9  1  0
  4  3  1  0
  5  4  2  0
  6  7  2  0
  6  5  1  0
  7  8  1  0
  8  9  2  0
 10 11  2  0
 13 15  1  0
 13 14  1  0
 13 12  1  6
 15 16  1  6
 16 10  1  0
 17 18  2  0
 17 15  1  0
 19 17  1  0
 20 19  1  0
 20 28  1  0
 20 21  1  1
 22 21  1  0
 23 22  2  0
 24 23  1  0
 25 24  2  0
 25 26  1  0
 26 27  2  0
 27 22  1  0
 28 30  1  0
 29 28  2  0
M  END
$$$$
