FTF.pdb
     RDKit          3D

 30 31  0  0  1  0  0  0  0  0999 V2000
   25.1506  -18.2343  -15.5029 N   0  0  0  0  0  0  0  0  0  0  0  0
   26.1669  -18.6828  -14.5700 C   0  0  1  0  0  0  0  0  0  0  0  0
   27.0947  -17.5115  -14.3201 C   0  0  0  0  0  0  0  0  0  0  0  0
   28.0904  -17.3638  -15.4104 C   0  0  0  0  0  0  0  0  0  0  0  0
   27.9614  -16.3300  -16.3375 C   0  0  0  0  0  0  0  0  0  0  0  0
   28.8652  -16.1606  -17.3641 C   0  0  0  0  0  0  0  0  0  0  0  0
   29.9243  -17.0372  -17.4760 C   0  0  0  0  0  0  0  0  0  0  0  0
   30.0533  -18.0453  -16.5749 C   0  0  0  0  0  0  0  0  0  0  0  0
   29.1488  -18.2100  -15.5524 C   0  0  0  0  0  0  0  0  0  0  0  0
   25.5404  -19.0443  -13.2503 C   0  0  0  0  0  0  0  0  0  0  0  0
   24.3278  -18.8137  -13.0206 O   0  0  0  0  0  0  0  0  0  0  0  0
   23.6295  -20.3778  -12.3469 C   0  0  0  0  0  0  0  0  0  0  0  0
   24.5414  -21.0118  -11.3281 C   0  0  1  0  0  0  0  0  0  0  0  0
   25.0788  -22.1593  -11.9187 O   0  0  0  0  0  0  0  0  0  0  0  0
   25.6491  -20.0380  -10.9737 C   0  0  2  0  0  0  0  0  0  0  0  0
   26.2946  -19.6586  -12.2160 N   0  0  0  0  0  0  0  0  0  0  0  0
   26.6161  -20.6397  -10.0204 C   0  0  0  0  0  0  0  0  0  0  0  0
   27.6650  -21.2021  -10.4440 O   0  0  0  0  0  0  0  0  0  0  0  0
   26.3534  -20.5784   -8.6263 N   0  0  0  0  0  0  0  0  0  0  0  0
   27.0290  -21.4529   -7.6776 C   0  0  1  0  0  0  0  0  0  0  0  0
   28.4863  -21.0266   -7.5066 C   0  0  0  0  0  0  0  0  0  0  0  0
   28.5415  -20.0424   -6.3901 C   0  0  0  0  0  0  0  0  0  0  0  0
   29.0055  -20.4277   -5.1373 C   0  0  0  0  0  0  0  0  0  0  0  0
   29.0681  -19.5307   -4.0730 C   0  0  0  0  0  0  0  0  0  0  0  0
   28.6681  -18.2279   -4.2372 C   0  0  0  0  0  0  0  0  0  0  0  0
   28.2061  -17.8339   -5.4749 C   0  0  0  0  0  0  0  0  0  0  0  0
   28.1467  -18.7326   -6.5299 C   0  0  0  0  0  0  0  0  0  0  0  0
   26.3222  -21.4890   -6.3754 C   0  0  0  0  0  0  0  0  0  0  0  0
   25.2656  -20.8425   -6.1775 O   0  0  0  0  0  0  0  0  0  0  0  0
   26.8339  -22.2521   -5.3475 O   0  0  0  0  0  0  0  0  0  0  0  0
  2 10  1  0
  2  1  1  6
  3  2  1  0
  4  9  1  0
  4  3  1  0
  5  4  2  0
  6  7  2  0
  6  5  1  0
  7  8  1  0
  8  9  2  0
 10 11  2  0
 13 15  1  0
 13 14  1  0
 13 12  1  6
 15 16  1  6
 16 10  1  0
 17 18  2  0
 17 15  1  0
 19 17  1  0
 20 19  1  0
 20 28  1  0
 20 21  1  1
 22 21  1  0
 23 22  2  0
 24 23  1  0
 25 24  2  0
 25 26  1  0
 26 27  2  0
 27 22  1  0
 28 30  1  0
 29 28  2  0
M  END
$$$$
