FTF.pdb
     RDKit          3D

 30 31  0  0  1  0  0  0  0  0999 V2000
   21.8321  -19.2849  -18.3411 N   0  0  0  0  0  0  0  0  0  0  0  0
   21.1465  -18.0075  -18.2924 C   0  0  1  0  0  0  0  0  0  0  0  0
   20.0482  -18.0477  -19.3352 C   0  0  0  0  0  0  0  0  0  0  0  0
   20.6039  -18.1509  -20.7071 C   0  0  0  0  0  0  0  0  0  0  0  0
   20.3389  -19.2784  -21.4841 C   0  0  0  0  0  0  0  0  0  0  0  0
   20.8376  -19.4110  -22.7621 C   0  0  0  0  0  0  0  0  0  0  0  0
   21.6189  -18.4015  -23.2847 C   0  0  0  0  0  0  0  0  0  0  0  0
   21.8792  -17.3019  -22.5310 C   0  0  0  0  0  0  0  0  0  0  0  0
   21.3793  -17.1744  -21.2564 C   0  0  0  0  0  0  0  0  0  0  0  0
   20.4836  -17.8220  -16.9541 C   0  0  0  0  0  0  0  0  0  0  0  0
   20.0391  -18.8017  -16.3067 O   0  0  0  0  0  0  0  0  0  0  0  0
   21.8416  -15.3875  -14.2337 C   0  0  0  0  0  0  0  0  0  0  0  0
   20.3627  -15.1642  -14.4203 C   0  0  1  0  0  0  0  0  0  0  0  0
   20.2198  -14.0628  -15.2692 O   0  0  0  0  0  0  0  0  0  0  0  0
   19.7469  -16.3969  -15.0545 C   0  0  2  0  0  0  0  0  0  0  0  0
   20.3353  -16.5351  -16.3731 N   0  0  0  0  0  0  0  0  0  0  0  0
   18.2676  -16.2878  -15.1280 C   0  0  0  0  0  0  0  0  0  0  0  0
   17.6659  -16.4867  -16.2209 O   0  0  0  0  0  0  0  0  0  0  0  0
   17.5321  -15.9576  -13.9591 N   0  0  0  0  0  0  0  0  0  0  0  0
   16.0758  -15.9604  -13.9410 C   0  0  1  0  0  0  0  0  0  0  0  0
   15.5429  -17.3546  -14.2681 C   0  0  0  0  0  0  0  0  0  0  0  0
   15.7883  -18.2221  -13.0827 C   0  0  0  0  0  0  0  0  0  0  0  0
   14.8233  -18.3420  -12.0889 C   0  0  0  0  0  0  0  0  0  0  0  0
   15.0237  -19.1447  -10.9678 C   0  0  0  0  0  0  0  0  0  0  0  0
   16.1938  -19.8459  -10.8150 C   0  0  0  0  0  0  0  0  0  0  0  0
   17.1583  -19.7352  -11.7937 C   0  0  0  0  0  0  0  0  0  0  0  0
   16.9517  -18.9341  -12.9072 C   0  0  0  0  0  0  0  0  0  0  0  0
   15.5489  -15.4733  -12.6441 C   0  0  0  0  0  0  0  0  0  0  0  0
   16.3025  -15.2420  -11.6684 O   0  0  0  0  0  0  0  0  0  0  0  0
   14.1938  -15.2660  -12.4979 O   0  0  0  0  0  0  0  0  0  0  0  0
  2 10  1  0
  2  1  1  1
  3  2  1  0
  4  9  1  0
  4  3  1  0
  5  4  2  0
  6  7  2  0
  6  5  1  0
  7  8  1  0
  8  9  2  0
 10 11  2  0
 13 15  1  0
 13 14  1  0
 13 12  1  6
 15 16  1  6
 16 10  1  0
 17 18  2  0
 17 15  1  0
 19 17  1  0
 20 19  1  0
 20 28  1  0
 20 21  1  1
 22 21  1  0
 23 22  2  0
 24 23  1  0
 25 24  2  0
 25 26  1  0
 26 27  2  0
 27 22  1  0
 28 30  1  0
 29 28  2  0
M  END
$$$$
