FTF.pdb
     RDKit          3D

 30 31  0  0  1  0  0  0  0  0999 V2000
   20.0479  -13.6541  -16.0582 N   0  0  0  0  0  0  0  0  0  0  0  0
   19.6429  -12.4687  -16.7897 C   0  0  1  0  0  0  0  0  0  0  0  0
   18.1546  -12.5869  -17.0469 C   0  0  0  0  0  0  0  0  0  0  0  0
   17.8596  -13.6201  -18.0702 C   0  0  0  0  0  0  0  0  0  0  0  0
   18.1325  -13.3683  -19.4146 C   0  0  0  0  0  0  0  0  0  0  0  0
   17.8721  -14.3024  -20.3939 C   0  0  0  0  0  0  0  0  0  0  0  0
   17.3274  -15.5173  -20.0335 C   0  0  0  0  0  0  0  0  0  0  0  0
   17.0602  -15.7662  -18.7252 C   0  0  0  0  0  0  0  0  0  0  0  0
   17.3220  -14.8309  -17.7518 C   0  0  0  0  0  0  0  0  0  0  0  0
   19.8533  -11.2391  -15.9478 C   0  0  0  0  0  0  0  0  0  0  0  0
   19.5200  -11.2141  -14.7376 O   0  0  0  0  0  0  0  0  0  0  0  0
   22.5748   -9.8349  -14.6056 C   0  0  0  0  0  0  0  0  0  0  0  0
   22.0487   -8.6740  -15.4099 C   0  0  1  0  0  0  0  0  0  0  0  0
   22.7505   -8.6631  -16.6189 O   0  0  0  0  0  0  0  0  0  0  0  0
   20.5672   -8.8741  -15.6668 C   0  0  2  0  0  0  0  0  0  0  0  0
   20.4353  -10.0622  -16.4882 N   0  0  0  0  0  0  0  0  0  0  0  0
   19.9659   -7.6873  -16.3269 C   0  0  0  0  0  0  0  0  0  0  0  0
   19.4666   -7.7841  -17.4833 O   0  0  0  0  0  0  0  0  0  0  0  0
   19.9557   -6.4401  -15.6481 N   0  0  0  0  0  0  0  0  0  0  0  0
   19.4548   -5.2263  -16.2780 C   0  0  1  0  0  0  0  0  0  0  0  0
   18.0454   -5.4531  -16.8230 C   0  0  0  0  0  0  0  0  0  0  0  0
   17.6020   -4.1876  -17.4710 C   0  0  0  0  0  0  0  0  0  0  0  0
   16.6553   -3.3774  -16.8540 C   0  0  0  0  0  0  0  0  0  0  0  0
   16.2197   -2.1885  -17.4353 C   0  0  0  0  0  0  0  0  0  0  0  0
   16.7209   -1.7826  -18.6471 C   0  0  0  0  0  0  0  0  0  0  0  0
   17.6601   -2.5775  -19.2687 C   0  0  0  0  0  0  0  0  0  0  0  0
   18.0891   -3.7599  -18.6839 C   0  0  0  0  0  0  0  0  0  0  0  0
   19.4922   -4.0759  -15.3442 C   0  0  0  0  0  0  0  0  0  0  0  0
   19.8636   -2.9359  -15.7129 O   0  0  0  0  0  0  0  0  0  0  0  0
   19.1095   -4.2555  -14.0320 O   0  0  0  0  0  0  0  0  0  0  0  0
  2 10  1  0
  2  1  1  1
  3  2  1  0
  4  9  1  0
  4  3  1  0
  5  4  2  0
  6  7  2  0
  6  5  1  0
  7  8  1  0
  8  9  2  0
 10 11  2  0
 13 15  1  0
 13 14  1  0
 13 12  1  1
 15 16  1  6
 16 10  1  0
 17 18  2  0
 17 15  1  0
 19 17  1  0
 20 19  1  0
 20 28  1  0
 20 21  1  1
 22 21  1  0
 23 22  2  0
 24 23  1  0
 25 24  2  0
 25 26  1  0
 26 27  2  0
 27 22  1  0
 28 30  1  0
 29 28  2  0
M  END
$$$$
