FTF.pdb
     RDKit          3D

 30 31  0  0  1  0  0  0  0  0999 V2000
   22.5863  -11.6336  -17.6400 N   0  0  0  0  0  0  0  0  0  0  0  0
   21.4890  -10.6946  -17.7766 C   0  0  1  0  0  0  0  0  0  0  0  0
   20.3374  -11.2267  -16.9485 C   0  0  0  0  0  0  0  0  0  0  0  0
   19.6639  -12.3651  -17.6210 C   0  0  0  0  0  0  0  0  0  0  0  0
   20.0703  -13.6723  -17.3542 C   0  0  0  0  0  0  0  0  0  0  0  0
   19.4699  -14.7553  -17.9593 C   0  0  0  0  0  0  0  0  0  0  0  0
   18.4405  -14.5390  -18.8516 C   0  0  0  0  0  0  0  0  0  0  0  0
   18.0419  -13.2672  -19.1140 C   0  0  0  0  0  0  0  0  0  0  0  0
   18.6442  -12.1900  -18.5076 C   0  0  0  0  0  0  0  0  0  0  0  0
   21.8716   -9.3579  -17.2008 C   0  0  0  0  0  0  0  0  0  0  0  0
   22.9577   -9.1986  -16.5913 O   0  0  0  0  0  0  0  0  0  0  0  0
   22.4970   -6.4333  -18.9806 C   0  0  0  0  0  0  0  0  0  0  0  0
   22.7482   -6.5908  -17.5029 C   0  0  1  0  0  0  0  0  0  0  0  0
   23.2291   -5.3637  -17.0371 O   0  0  0  0  0  0  0  0  0  0  0  0
   21.4455   -6.9399  -16.8085 C   0  0  2  0  0  0  0  0  0  0  0  0
   21.0213   -8.2276  -17.3240 N   0  0  0  0  0  0  0  0  0  0  0  0
   20.4131   -5.8966  -17.0355 C   0  0  0  0  0  0  0  0  0  0  0  0
   19.8927   -5.7506  -18.1774 O   0  0  0  0  0  0  0  0  0  0  0  0
   20.0138   -5.0623  -15.9581 N   0  0  0  0  0  0  0  0  0  0  0  0
   19.0418   -3.9920  -16.1341 C   0  0  1  0  0  0  0  0  0  0  0  0
   17.8403   -4.2090  -15.2155 C   0  0  0  0  0  0  0  0  0  0  0  0
   16.8821   -3.0939  -15.4532 C   0  0  0  0  0  0  0  0  0  0  0  0
   15.9721   -3.1620  -16.5023 C   0  0  0  0  0  0  0  0  0  0  0  0
   15.0642   -2.1349  -16.7509 C   0  0  0  0  0  0  0  0  0  0  0  0
   15.0455   -1.0160  -15.9558 C   0  0  0  0  0  0  0  0  0  0  0  0
   15.9430   -0.9367  -14.9124 C   0  0  0  0  0  0  0  0  0  0  0  0
   16.8440   -1.9634  -14.6710 C   0  0  0  0  0  0  0  0  0  0  0  0
   19.6552   -2.6611  -15.9129 C   0  0  0  0  0  0  0  0  0  0  0  0
   19.0309   -1.5979  -16.1440 O   0  0  0  0  0  0  0  0  0  0  0  0
   20.9476   -2.5806  -15.4399 O   0  0  0  0  0  0  0  0  0  0  0  0
  2 10  1  0
  2  1  1  1
  3  2  1  0
  4  9  1  0
  4  3  1  0
  5  4  2  0
  6  7  2  0
  6  5  1  0
  7  8  1  0
  8  9  2  0
 10 11  2  0
 13 15  1  0
 13 14  1  0
 13 12  1  6
 15 16  1  6
 16 10  1  0
 17 18  2  0
 17 15  1  0
 19 17  1  0
 20 19  1  0
 20 28  1  0
 20 21  1  1
 22 21  1  0
 23 22  2  0
 24 23  1  0
 25 24  2  0
 25 26  1  0
 26 27  2  0
 27 22  1  0
 28 30  1  0
 29 28  2  0
M  END
$$$$
