FTF.pdb
     RDKit          3D

 30 31  0  0  1  0  0  0  0  0999 V2000
   28.6285  -21.4432   -9.5846 N   0  0  0  0  0  0  0  0  0  0  0  0
   27.2375  -21.1787   -9.2691 C   0  0  1  0  0  0  0  0  0  0  0  0
   27.1918  -19.8722   -8.5034 C   0  0  0  0  0  0  0  0  0  0  0  0
   27.8143  -20.0050   -7.1631 C   0  0  0  0  0  0  0  0  0  0  0  0
   27.6733  -18.9833   -6.2242 C   0  0  0  0  0  0  0  0  0  0  0  0
   28.2372  -19.0696   -4.9696 C   0  0  0  0  0  0  0  0  0  0  0  0
   28.9594  -20.1963   -4.6354 C   0  0  0  0  0  0  0  0  0  0  0  0
   29.0989  -21.1934   -5.5472 C   0  0  0  0  0  0  0  0  0  0  0  0
   28.5343  -21.1025   -6.7977 C   0  0  0  0  0  0  0  0  0  0  0  0
   26.4442  -20.9825  -10.5329 C   0  0  0  0  0  0  0  0  0  0  0  0
   27.0135  -20.8276  -11.6412 O   0  0  0  0  0  0  0  0  0  0  0  0
   26.2187  -22.0899  -12.6679 C   0  0  0  0  0  0  0  0  0  0  0  0
   24.7138  -22.0095  -12.6435 C   0  0  1  0  0  0  0  0  0  0  0  0
   24.2490  -23.2139  -12.1073 O   0  0  0  0  0  0  0  0  0  0  0  0
   24.2892  -20.8475  -11.7657 C   0  0  2  0  0  0  0  0  0  0  0  0
   25.0246  -20.9647  -10.5210 N   0  0  0  0  0  0  0  0  0  0  0  0
   22.8224  -20.8511  -11.5329 C   0  0  0  0  0  0  0  0  0  0  0  0
   22.3598  -20.6801  -10.3698 O   0  0  0  0  0  0  0  0  0  0  0  0
   21.9412  -21.0483  -12.6287 N   0  0  0  0  0  0  0  0  0  0  0  0
   20.6674  -20.3489  -12.7263 C   0  0  1  0  0  0  0  0  0  0  0  0
   20.8930  -18.8385  -12.7761 C   0  0  0  0  0  0  0  0  0  0  0  0
   21.5522  -18.5221  -14.0735 C   0  0  0  0  0  0  0  0  0  0  0  0
   22.8552  -18.0377  -14.0990 C   0  0  0  0  0  0  0  0  0  0  0  0
   23.4985  -17.7317  -15.2964 C   0  0  0  0  0  0  0  0  0  0  0  0
   22.8533  -17.9032  -16.4958 C   0  0  0  0  0  0  0  0  0  0  0  0
   21.5610  -18.3828  -16.4836 C   0  0  0  0  0  0  0  0  0  0  0  0
   20.9269  -18.6854  -15.2875 C   0  0  0  0  0  0  0  0  0  0  0  0
   19.8814  -20.8146  -13.8933 C   0  0  0  0  0  0  0  0  0  0  0  0
   18.6804  -20.4902  -14.0544 O   0  0  0  0  0  0  0  0  0  0  0  0
   20.4796  -21.6272  -14.8327 O   0  0  0  0  0  0  0  0  0  0  0  0
  2 10  1  0
  2  1  1  6
  3  2  1  0
  4  9  1  0
  4  3  1  0
  5  4  2  0
  6  7  2  0
  6  5  1  0
  7  8  1  0
  8  9  2  0
 10 11  2  0
 13 15  1  0
 13 14  1  0
 13 12  1  1
 15 16  1  1
 16 10  1  0
 17 18  2  0
 17 15  1  0
 19 17  1  0
 20 19  1  0
 20 28  1  0
 20 21  1  6
 22 21  1  0
 23 22  2  0
 24 23  1  0
 25 24  2  0
 25 26  1  0
 26 27  2  0
 27 22  1  0
 28 30  1  0
 29 28  2  0
M  END
$$$$
