FTF.pdb
     RDKit          3D

 30 31  0  0  1  0  0  0  0  0999 V2000
   22.1247  -23.7788  -17.9630 N   0  0  0  0  0  0  0  0  0  0  0  0
   21.5340  -22.9803  -16.9058 C   0  0  1  0  0  0  0  0  0  0  0  0
   20.8159  -21.8215  -17.5667 C   0  0  0  0  0  0  0  0  0  0  0  0
   21.7680  -20.9047  -18.2411 C   0  0  0  0  0  0  0  0  0  0  0  0
   22.6666  -20.1527  -17.4848 C   0  0  0  0  0  0  0  0  0  0  0  0
   23.5654  -19.2902  -18.0745 C   0  0  0  0  0  0  0  0  0  0  0  0
   23.5751  -19.1688  -19.4485 C   0  0  0  0  0  0  0  0  0  0  0  0
   22.7014  -19.8996  -20.1885 C   0  0  0  0  0  0  0  0  0  0  0  0
   21.8066  -20.7588  -19.5952 C   0  0  0  0  0  0  0  0  0  0  0  0
   20.4984  -23.7813  -16.1638 C   0  0  0  0  0  0  0  0  0  0  0  0
   19.5087  -24.2751  -16.7580 O   0  0  0  0  0  0  0  0  0  0  0  0
   20.8303  -26.7562  -15.0209 C   0  0  0  0  0  0  0  0  0  0  0  0
   20.2775  -26.1475  -13.7577 C   0  0  1  0  0  0  0  0  0  0  0  0
   21.3593  -25.9389  -12.8973 O   0  0  0  0  0  0  0  0  0  0  0  0
   19.6105  -24.8262  -14.0896 C   0  0  2  0  0  0  0  0  0  0  0  0
   20.5999  -24.0092  -14.7661 N   0  0  0  0  0  0  0  0  0  0  0  0
   19.0957  -24.1564  -12.8681 C   0  0  0  0  0  0  0  0  0  0  0  0
   19.5191  -23.0122  -12.5403 O   0  0  0  0  0  0  0  0  0  0  0  0
   18.1220  -24.8120  -12.0691 N   0  0  0  0  0  0  0  0  0  0  0  0
   17.5950  -24.2106  -10.8518 C   0  0  1  0  0  0  0  0  0  0  0  0
   16.8925  -22.8919  -11.1717 C   0  0  0  0  0  0  0  0  0  0  0  0
   15.6388  -23.2143  -11.9082 C   0  0  0  0  0  0  0  0  0  0  0  0
   14.4926  -23.5850  -11.2140 C   0  0  0  0  0  0  0  0  0  0  0  0
   13.3052  -23.8935  -11.8744 C   0  0  0  0  0  0  0  0  0  0  0  0
   13.2370  -23.8383  -13.2443 C   0  0  0  0  0  0  0  0  0  0  0  0
   14.3670  -23.4721  -13.9438 C   0  0  0  0  0  0  0  0  0  0  0  0
   15.5457  -23.1663  -13.2794 C   0  0  0  0  0  0  0  0  0  0  0  0
   16.6918  -25.1414  -10.1344 C   0  0  0  0  0  0  0  0  0  0  0  0
   16.1315  -24.8225   -9.0584 O   0  0  0  0  0  0  0  0  0  0  0  0
   16.4556  -26.3948  -10.6578 O   0  0  0  0  0  0  0  0  0  0  0  0
  2 10  1  0
  2  1  1  6
  3  2  1  0
  4  9  1  0
  4  3  1  0
  5  4  2  0
  6  7  2  0
  6  5  1  0
  7  8  1  0
  8  9  2  0
 10 11  2  0
 13 15  1  0
 13 14  1  0
 13 12  1  6
 15 16  1  1
 16 10  1  0
 17 18  2  0
 17 15  1  0
 19 17  1  0
 20 19  1  0
 20 28  1  0
 20 21  1  6
 22 21  1  0
 23 22  2  0
 24 23  1  0
 25 24  2  0
 25 26  1  0
 26 27  2  0
 27 22  1  0
 28 30  1  0
 29 28  2  0
M  END
$$$$
