FTF.pdb
     RDKit          3D

 30 31  0  0  1  0  0  0  0  0999 V2000
   35.6508  -29.3863    2.4585 N   0  0  0  0  0  0  0  0  0  0  0  0
   35.1636  -28.5971    3.5739 C   0  0  1  0  0  0  0  0  0  0  0  0
   34.6768  -29.5671    4.6310 C   0  0  0  0  0  0  0  0  0  0  0  0
   33.3739  -30.1706    4.2571 C   0  0  0  0  0  0  0  0  0  0  0  0
   33.3258  -31.1981    3.3152 C   0  0  0  0  0  0  0  0  0  0  0  0
   32.1352  -31.7832    2.9416 C   0  0  0  0  0  0  0  0  0  0  0  0
   30.9616  -31.3400    3.5152 C   0  0  0  0  0  0  0  0  0  0  0  0
   31.0045  -30.3395    4.4329 C   0  0  0  0  0  0  0  0  0  0  0  0
   32.1950  -29.7590    4.8022 C   0  0  0  0  0  0  0  0  0  0  0  0
   36.2883  -27.8031    4.1818 C   0  0  0  0  0  0  0  0  0  0  0  0
   37.4872  -28.0629    3.9142 O   0  0  0  0  0  0  0  0  0  0  0  0
   38.2724  -26.2412    3.4118 C   0  0  0  0  0  0  0  0  0  0  0  0
   37.7476  -25.2187    4.3868 C   0  0  1  0  0  0  0  0  0  0  0  0
   36.7691  -24.4791    3.7161 O   0  0  0  0  0  0  0  0  0  0  0  0
   37.1390  -25.9311    5.5797 C   0  0  2  0  0  0  0  0  0  0  0  0
   36.0380  -26.7321    5.0796 N   0  0  0  0  0  0  0  0  0  0  0  0
   36.6840  -24.9668    6.6135 C   0  0  0  0  0  0  0  0  0  0  0  0
   35.5449  -24.4276    6.5270 O   0  0  0  0  0  0  0  0  0  0  0  0
   37.5399  -24.6541    7.7026 N   0  0  0  0  0  0  0  0  0  0  0  0
   37.1868  -23.6462    8.6928 C   0  0  1  0  0  0  0  0  0  0  0  0
   37.0000  -24.2919   10.0650 C   0  0  0  0  0  0  0  0  0  0  0  0
   35.8111  -25.1853    9.9865 C   0  0  0  0  0  0  0  0  0  0  0  0
   35.9638  -26.5307    9.6705 C   0  0  0  0  0  0  0  0  0  0  0  0
   34.8712  -27.3914    9.5884 C   0  0  0  0  0  0  0  0  0  0  0  0
   33.6008  -26.9261    9.8204 C   0  0  0  0  0  0  0  0  0  0  0  0
   33.4365  -25.5939   10.1345 C   0  0  0  0  0  0  0  0  0  0  0  0
   34.5290  -24.7430   10.2145 C   0  0  0  0  0  0  0  0  0  0  0  0
   38.1926  -22.5588    8.7420 C   0  0  0  0  0  0  0  0  0  0  0  0
   38.0282  -21.5364    9.4500 O   0  0  0  0  0  0  0  0  0  0  0  0
   39.3441  -22.6662    7.9915 O   0  0  0  0  0  0  0  0  0  0  0  0
  2 10  1  0
  2  1  1  6
  3  2  1  0
  4  9  1  0
  4  3  1  0
  5  4  2  0
  6  7  2  0
  6  5  1  0
  7  8  1  0
  8  9  2  0
 10 11  2  0
 13 15  1  0
 13 14  1  0
 13 12  1  6
 15 16  1  6
 16 10  1  0
 17 18  2  0
 17 15  1  0
 19 17  1  0
 20 19  1  0
 20 28  1  0
 20 21  1  1
 22 21  1  0
 23 22  2  0
 24 23  1  0
 25 24  2  0
 25 26  1  0
 26 27  2  0
 27 22  1  0
 28 30  1  0
 29 28  2  0
M  END
$$$$
