FTF.pdb
     RDKit          3D

 30 31  0  0  1  0  0  0  0  0999 V2000
   25.5104  -19.2991  -20.0125 N   0  0  0  0  0  0  0  0  0  0  0  0
   24.1805  -19.8388  -19.8018 C   0  0  1  0  0  0  0  0  0  0  0  0
   24.2166  -21.2955  -20.2163 C   0  0  0  0  0  0  0  0  0  0  0  0
   24.1487  -21.4434  -21.6912 C   0  0  0  0  0  0  0  0  0  0  0  0
   22.9147  -21.4053  -22.3400 C   0  0  0  0  0  0  0  0  0  0  0  0
   22.8110  -21.5396  -23.7077 C   0  0  0  0  0  0  0  0  0  0  0  0
   23.9583  -21.7161  -24.4528 C   0  0  0  0  0  0  0  0  0  0  0  0
   25.1620  -21.7537  -23.8245 C   0  0  0  0  0  0  0  0  0  0  0  0
   25.2601  -21.6193  -22.4595 C   0  0  0  0  0  0  0  0  0  0  0  0
   23.8276  -19.8003  -18.3393 C   0  0  0  0  0  0  0  0  0  0  0  0
   24.5442  -19.1838  -17.5130 O   0  0  0  0  0  0  0  0  0  0  0  0
   23.0016  -17.9352  -16.8242 C   0  0  0  0  0  0  0  0  0  0  0  0
   21.8764  -18.8009  -16.3183 C   0  0  1  0  0  0  0  0  0  0  0  0
   20.7580  -18.5204  -17.1086 O   0  0  0  0  0  0  0  0  0  0  0  0
   22.2651  -20.2602  -16.4607 C   0  0  2  0  0  0  0  0  0  0  0  0
   22.6736  -20.4583  -17.8384 N   0  0  0  0  0  0  0  0  0  0  0  0
   21.1420  -21.1594  -16.0922 C   0  0  0  0  0  0  0  0  0  0  0  0
   20.2574  -21.4585  -16.9430 O   0  0  0  0  0  0  0  0  0  0  0  0
   21.0688  -21.6820  -14.7739 N   0  0  0  0  0  0  0  0  0  0  0  0
   19.9888  -22.5654  -14.3562 C   0  0  1  0  0  0  0  0  0  0  0  0
   20.3790  -23.3174  -13.0845 C   0  0  0  0  0  0  0  0  0  0  0  0
   19.2765  -24.2658  -12.7636 C   0  0  0  0  0  0  0  0  0  0  0  0
   18.3063  -23.9236  -11.8283 C   0  0  0  0  0  0  0  0  0  0  0  0
   17.2634  -24.7894  -11.5059 C   0  0  0  0  0  0  0  0  0  0  0  0
   17.1670  -26.0175  -12.1117 C   0  0  0  0  0  0  0  0  0  0  0  0
   18.1231  -26.3683  -13.0408 C   0  0  0  0  0  0  0  0  0  0  0  0
   19.1585  -25.5009  -13.3567 C   0  0  0  0  0  0  0  0  0  0  0  0
   18.7199  -21.8215  -14.1738 C   0  0  0  0  0  0  0  0  0  0  0  0
   18.6847  -20.7003  -13.6124 O   0  0  0  0  0  0  0  0  0  0  0  0
   17.5408  -22.3703  -14.6312 O   0  0  0  0  0  0  0  0  0  0  0  0
  2 10  1  0
  2  1  1  1
  3  2  1  0
  4  9  1  0
  4  3  1  0
  5  4  2  0
  6  7  2  0
  6  5  1  0
  7  8  1  0
  8  9  2  0
 10 11  2  0
 13 15  1  0
 13 14  1  0
 13 12  1  6
 15 16  1  6
 16 10  1  0
 17 18  2  0
 17 15  1  0
 19 17  1  0
 20 19  1  0
 20 28  1  0
 20 21  1  1
 22 21  1  0
 23 22  2  0
 24 23  1  0
 25 24  2  0
 25 26  1  0
 26 27  2  0
 27 22  1  0
 28 30  1  0
 29 28  2  0
M  END
$$$$
