FTF.pdb
     RDKit          3D

 30 31  0  0  1  0  0  0  0  0999 V2000
   19.2626   -9.9140  -21.3076 N   0  0  0  0  0  0  0  0  0  0  0  0
   19.3812   -8.4975  -21.0178 C   0  0  1  0  0  0  0  0  0  0  0  0
   18.0198   -8.0184  -20.5570 C   0  0  0  0  0  0  0  0  0  0  0  0
   17.0443   -7.9944  -21.6749 C   0  0  0  0  0  0  0  0  0  0  0  0
   17.2779   -7.1861  -22.7872 C   0  0  0  0  0  0  0  0  0  0  0  0
   16.3954   -7.1364  -23.8446 C   0  0  0  0  0  0  0  0  0  0  0  0
   15.2520   -7.9067  -23.8002 C   0  0  0  0  0  0  0  0  0  0  0  0
   15.0211   -8.6952  -22.7185 C   0  0  0  0  0  0  0  0  0  0  0  0
   15.9048   -8.7413  -21.6660 C   0  0  0  0  0  0  0  0  0  0  0  0
   20.3401   -8.2766  -19.8791 C   0  0  0  0  0  0  0  0  0  0  0  0
   20.6063   -9.1946  -19.0650 O   0  0  0  0  0  0  0  0  0  0  0  0
   23.7441   -6.9286  -20.2981 C   0  0  0  0  0  0  0  0  0  0  0  0
   23.1285   -6.1105  -19.1920 C   0  0  1  0  0  0  0  0  0  0  0  0
   22.7020   -4.9076  -19.7623 O   0  0  0  0  0  0  0  0  0  0  0  0
   21.9459   -6.8629  -18.6121 C   0  0  2  0  0  0  0  0  0  0  0  0
   20.9795   -7.0244  -19.6817 N   0  0  0  0  0  0  0  0  0  0  0  0
   21.3592   -6.1421  -17.4538 C   0  0  0  0  0  0  0  0  0  0  0  0
   20.4279   -5.3063  -17.6265 O   0  0  0  0  0  0  0  0  0  0  0  0
   21.8533   -6.3991  -16.1475 N   0  0  0  0  0  0  0  0  0  0  0  0
   21.4005   -5.6382  -14.9911 C   0  0  1  0  0  0  0  0  0  0  0  0
   20.3254   -6.4145  -14.2320 C   0  0  0  0  0  0  0  0  0  0  0  0
   20.9576   -7.6484  -13.6880 C   0  0  0  0  0  0  0  0  0  0  0  0
   21.4963   -8.5987  -14.5482 C   0  0  0  0  0  0  0  0  0  0  0  0
   22.0932   -9.7633  -14.0700 C   0  0  0  0  0  0  0  0  0  0  0  0
   22.1649  -10.0042  -12.7205 C   0  0  0  0  0  0  0  0  0  0  0  0
   21.6342   -9.0694  -11.8575 C   0  0  0  0  0  0  0  0  0  0  0  0
   21.0415   -7.9121  -12.3409 C   0  0  0  0  0  0  0  0  0  0  0  0
   22.5312   -5.2768  -14.1036 C   0  0  0  0  0  0  0  0  0  0  0  0
   22.3678   -4.5786  -13.0743 O   0  0  0  0  0  0  0  0  0  0  0  0
   23.8012   -5.7163  -14.4108 O   0  0  0  0  0  0  0  0  0  0  0  0
  2 10  1  0
  2  1  1  1
  3  2  1  0
  4  9  1  0
  4  3  1  0
  5  4  2  0
  6  7  2  0
  6  5  1  0
  7  8  1  0
  8  9  2  0
 10 11  2  0
 13 15  1  0
 13 14  1  0
 13 12  1  6
 15 16  1  6
 16 10  1  0
 17 18  2  0
 17 15  1  0
 19 17  1  0
 20 19  1  0
 20 28  1  0
 20 21  1  1
 22 21  1  0
 23 22  2  0
 24 23  1  0
 25 24  2  0
 25 26  1  0
 26 27  2  0
 27 22  1  0
 28 30  1  0
 29 28  2  0
M  END
$$$$
