FIW.pdb
     RDKit          3D

 34 36  0  0  1  0  0  0  0  0999 V2000
    8.1799  -13.6238   17.7723 N   0  0  0  0  0  0  0  0  0  0  0  0
    9.2285  -14.3044   18.5489 C   0  0  1  0  0  0  0  0  0  0  0  0
   10.0478  -13.1679   19.1553 C   0  0  0  0  0  0  0  0  0  0  0  0
   11.3948  -13.7185   19.4395 C   0  0  0  0  0  0  0  0  0  0  0  0
   12.3644  -12.9558   20.0524 C   0  0  0  0  0  0  0  0  0  0  0  0
   13.6296  -13.4900   20.3134 C   0  0  0  0  0  0  0  0  0  0  0  0
   13.9226  -14.7903   19.9594 C   0  0  0  0  0  0  0  0  0  0  0  0
   12.9652  -15.5540   19.3505 C   0  0  0  0  0  0  0  0  0  0  0  0
   11.7300  -15.0121   19.1029 C   0  0  0  0  0  0  0  0  0  0  0  0
    8.6051  -15.1489   19.5628 C   0  0  0  0  0  0  0  0  0  0  0  0
    7.6350  -14.7029   20.2348 O   0  0  0  0  0  0  0  0  0  0  0  0
    7.0801  -20.2350   19.1716 C   0  0  0  0  0  0  0  0  0  0  0  0
    7.2836  -18.7829   19.4808 C   0  0  0  0  0  0  0  0  0  0  0  0
    8.2169  -18.5799   20.6174 C   0  0  2  0  0  0  0  0  0  0  0  0
    8.0458  -19.5965   21.7288 C   0  0  0  0  0  0  0  0  0  0  0  0
    8.5218  -17.1979   21.0529 C   0  0  2  0  0  0  0  0  0  0  0  0
    9.0064  -16.4758   19.8725 N   0  0  0  0  0  0  0  0  0  0  0  0
    9.3951  -17.0133   22.2031 C   0  0  0  0  0  0  0  0  0  0  0  0
   10.6204  -17.2423   22.0709 O   0  0  0  0  0  0  0  0  0  0  0  0
    8.9451  -16.5882   23.4819 N   0  0  0  0  0  0  0  0  0  0  0  0
    9.8757  -16.4683   24.5681 C   0  0  1  0  0  0  0  0  0  0  0  0
    9.9119  -15.0930   25.1986 C   0  0  0  0  0  0  0  0  0  0  0  0
    8.5498  -14.5657   25.4576 C   0  0  0  0  0  0  0  0  0  0  0  0
    7.3591  -15.2869   25.6104 C   0  0  0  0  0  0  0  0  0  0  0  0
    6.3384  -14.4360   25.8284 N   0  0  0  0  0  0  0  0  0  0  0  0
    6.7936  -13.1679   25.8288 C   0  0  0  0  0  0  0  0  0  0  0  0
    6.1636  -11.9473   26.0043 C   0  0  0  0  0  0  0  0  0  0  0  0
    6.8710  -10.7626   25.9582 C   0  0  0  0  0  0  0  0  0  0  0  0
    8.2212  -10.8311   25.7326 C   0  0  0  0  0  0  0  0  0  0  0  0
    8.8537  -12.0466   25.5570 C   0  0  0  0  0  0  0  0  0  0  0  0
    8.1515  -13.2454   25.6013 C   0  0  0  0  0  0  0  0  0  0  0  0
    9.7806  -17.5278   25.5854 C   0  0  0  0  0  0  0  0  0  0  0  0
   10.6682  -17.6467   26.4522 O   0  0  0  0  0  0  0  0  0  0  0  0
    8.7117  -18.3911   25.5823 O   0  0  0  0  0  0  0  0  0  0  0  0
  2  1  1  6
  2  3  1  0
  4  5  2  0
  4  3  1  0
  6  5  1  0
  7  6  2  0
  8  7  1  0
  8  9  2  0
  9  4  1  0
 10  2  1  0
 11 10  2  0
 12 13  1  0
 13 14  1  0
 14 15  1  1
 16 14  1  0
 16 17  1  6
 17 10  1  0
 18 16  1  0
 18 20  1  0
 19 18  2  0
 21 20  1  0
 21 22  1  1
 22 23  1  0
 23 24  2  0
 24 25  1  0
 26 25  1  0
 27 26  2  0
 28 27  1  0
 29 30  1  0
 29 28  2  0
 30 31  2  0
 31 23  1  0
 31 26  1  0
 32 21  1  0
 33 32  2  0
 34 32  1  0
M  END
$$$$
