FIW.pdb
     RDKit          3D

 34 36  0  0  1  0  0  0  0  0999 V2000
    7.0435  -17.5312   18.7348 N   0  0  0  0  0  0  0  0  0  0  0  0
    7.6972  -16.4871   19.5399 C   0  0  1  0  0  0  0  0  0  0  0  0
    6.5412  -15.6614   20.0990 C   0  0  0  0  0  0  0  0  0  0  0  0
    7.1459  -14.5612   20.8876 C   0  0  0  0  0  0  0  0  0  0  0  0
    7.7324  -13.4779   20.2711 C   0  0  0  0  0  0  0  0  0  0  0  0
    8.2982  -12.4487   21.0293 C   0  0  0  0  0  0  0  0  0  0  0  0
    8.2758  -12.5061   22.4071 C   0  0  0  0  0  0  0  0  0  0  0  0
    7.6953  -13.5783   23.0266 C   0  0  0  0  0  0  0  0  0  0  0  0
    7.1455  -14.5780   22.2656 C   0  0  0  0  0  0  0  0  0  0  0  0
    8.4949  -17.1160   20.5877 C   0  0  0  0  0  0  0  0  0  0  0  0
    8.0210  -18.0929   21.2301 O   0  0  0  0  0  0  0  0  0  0  0  0
   13.1449  -19.1245   19.7949 C   0  0  0  0  0  0  0  0  0  0  0  0
   11.7769  -18.7397   20.2704 C   0  0  0  0  0  0  0  0  0  0  0  0
   11.8289  -17.8396   21.4500 C   0  0  2  0  0  0  0  0  0  0  0  0
   12.9177  -18.2031   22.4400 C   0  0  0  0  0  0  0  0  0  0  0  0
   10.5576  -17.3622   22.0405 C   0  0  2  0  0  0  0  0  0  0  0  0
    9.8042  -16.7129   20.9632 N   0  0  0  0  0  0  0  0  0  0  0  0
   10.6197  -16.5368   23.2382 C   0  0  0  0  0  0  0  0  0  0  0  0
   11.4145  -15.5678   23.2604 O   0  0  0  0  0  0  0  0  0  0  0  0
    9.8316  -16.7609   24.3989 N   0  0  0  0  0  0  0  0  0  0  0  0
   10.3756  -16.4928   25.6998 C   0  0  1  0  0  0  0  0  0  0  0  0
    9.9752  -15.1490   26.2694 C   0  0  0  0  0  0  0  0  0  0  0  0
    8.5147  -14.9135   26.1606 C   0  0  0  0  0  0  0  0  0  0  0  0
    7.4963  -15.8620   26.0034 C   0  0  0  0  0  0  0  0  0  0  0  0
    6.3034  -15.2403   25.9414 N   0  0  0  0  0  0  0  0  0  0  0  0
    6.4766  -13.9087   26.0507 C   0  0  0  0  0  0  0  0  0  0  0  0
    5.5888  -12.8459   26.0468 C   0  0  0  0  0  0  0  0  0  0  0  0
    6.0291  -11.5439   26.1775 C   0  0  0  0  0  0  0  0  0  0  0  0
    7.3768  -11.3340   26.3119 C   0  0  0  0  0  0  0  0  0  0  0  0
    8.2659  -12.3913   26.3163 C   0  0  0  0  0  0  0  0  0  0  0  0
    7.8339  -13.7059   26.1854 C   0  0  0  0  0  0  0  0  0  0  0  0
   10.1931  -17.5732   26.6825 C   0  0  0  0  0  0  0  0  0  0  0  0
    9.4433  -18.5350   26.4254 O   0  0  0  0  0  0  0  0  0  0  0  0
   10.8491  -17.5247   27.8888 O   0  0  0  0  0  0  0  0  0  0  0  0
  2  1  1  6
  2  3  1  0
  4  5  2  0
  4  3  1  0
  6  5  1  0
  7  6  2  0
  8  7  1  0
  8  9  2  0
  9  4  1  0
 10  2  1  0
 11 10  2  0
 12 13  1  0
 13 14  1  0
 14 15  1  1
 16 14  1  0
 16 17  1  6
 17 10  1  0
 18 16  1  0
 18 20  1  0
 19 18  2  0
 21 20  1  0
 21 22  1  1
 22 23  1  0
 23 24  2  0
 24 25  1  0
 26 25  1  0
 27 26  2  0
 28 27  1  0
 29 30  1  0
 29 28  2  0
 30 31  2  0
 31 23  1  0
 31 26  1  0
 32 21  1  0
 33 32  2  0
 34 32  1  0
M  END
$$$$
