FIW.pdb
     RDKit          3D

 34 36  0  0  1  0  0  0  0  0999 V2000
   10.1428  -18.4401   18.2570 N   0  0  0  0  0  0  0  0  0  0  0  0
    9.5984  -18.5110   19.6224 C   0  0  1  0  0  0  0  0  0  0  0  0
   10.3396  -19.6809   20.2648 C   0  0  0  0  0  0  0  0  0  0  0  0
    9.8877  -20.9073   19.5648 C   0  0  0  0  0  0  0  0  0  0  0  0
    8.6174  -21.4081   19.7475 C   0  0  0  0  0  0  0  0  0  0  0  0
    8.2068  -22.5656   19.0799 C   0  0  0  0  0  0  0  0  0  0  0  0
    9.0709  -23.2216   18.2284 C   0  0  0  0  0  0  0  0  0  0  0  0
   10.3337  -22.7307   18.0417 C   0  0  0  0  0  0  0  0  0  0  0  0
   10.7180  -21.5938   18.7055 C   0  0  0  0  0  0  0  0  0  0  0  0
    9.8478  -17.2462   20.3063 C   0  0  0  0  0  0  0  0  0  0  0  0
   11.0064  -16.7472   20.2909 O   0  0  0  0  0  0  0  0  0  0  0  0
    6.4298  -13.2605   19.7641 C   0  0  0  0  0  0  0  0  0  0  0  0
    7.6471  -14.1221   19.9099 C   0  0  0  0  0  0  0  0  0  0  0  0
    8.0332  -14.3065   21.3316 C   0  0  2  0  0  0  0  0  0  0  0  0
    7.9617  -13.0309   22.1475 C   0  0  0  0  0  0  0  0  0  0  0  0
    9.1591  -15.2126   21.6540 C   0  0  2  0  0  0  0  0  0  0  0  0
    8.8683  -16.4990   21.0134 N   0  0  0  0  0  0  0  0  0  0  0  0
    9.5395  -15.3712   23.0504 C   0  0  0  0  0  0  0  0  0  0  0  0
   10.0384  -14.3917   23.6529 O   0  0  0  0  0  0  0  0  0  0  0  0
    9.3835  -16.5779   23.7839 N   0  0  0  0  0  0  0  0  0  0  0  0
    9.8992  -16.6789   25.1196 C   0  0  1  0  0  0  0  0  0  0  0  0
    8.8311  -16.8178   26.1828 C   0  0  0  0  0  0  0  0  0  0  0  0
    7.7789  -15.7806   26.0507 C   0  0  0  0  0  0  0  0  0  0  0  0
    6.4541  -15.9435   25.6269 C   0  0  0  0  0  0  0  0  0  0  0  0
    5.8235  -14.7537   25.6426 N   0  0  0  0  0  0  0  0  0  0  0  0
    6.6711  -13.7936   26.0607 C   0  0  0  0  0  0  0  0  0  0  0  0
    6.5209  -12.4299   26.2496 C   0  0  0  0  0  0  0  0  0  0  0  0
    7.5681  -11.6489   26.6964 C   0  0  0  0  0  0  0  0  0  0  0  0
    8.7656  -12.2661   26.9485 C   0  0  0  0  0  0  0  0  0  0  0  0
    8.9197  -13.6262   26.7613 C   0  0  0  0  0  0  0  0  0  0  0  0
    7.8725  -14.4221   26.3119 C   0  0  0  0  0  0  0  0  0  0  0  0
   10.9713  -17.6716   25.2965 C   0  0  0  0  0  0  0  0  0  0  0  0
   11.5273  -17.8039   26.4041 O   0  0  0  0  0  0  0  0  0  0  0  0
   11.3640  -18.4565   24.2394 O   0  0  0  0  0  0  0  0  0  0  0  0
  2  1  1  6
  2  3  1  0
  4  5  2  0
  4  3  1  0
  6  5  1  0
  7  6  2  0
  8  7  1  0
  8  9  2  0
  9  4  1  0
 10  2  1  0
 11 10  2  0
 12 13  1  0
 13 14  1  0
 14 15  1  6
 16 14  1  0
 16 17  1  1
 17 10  1  0
 18 16  1  0
 18 20  1  0
 19 18  2  0
 21 20  1  0
 21 22  1  1
 22 23  1  0
 23 24  2  0
 24 25  1  0
 26 25  1  0
 27 26  2  0
 28 27  1  0
 29 30  1  0
 29 28  2  0
 30 31  2  0
 31 23  1  0
 31 26  1  0
 32 21  1  0
 33 32  2  0
 34 32  1  0
M  END
$$$$
