FIW.pdb
     RDKit          3D

 34 36  0  0  1  0  0  0  0  0999 V2000
    5.7631  -18.1182   25.1742 N   0  0  0  0  0  0  0  0  0  0  0  0
    6.1536  -16.7192   24.9379 C   0  0  1  0  0  0  0  0  0  0  0  0
    6.5135  -16.1878   26.3231 C   0  0  0  0  0  0  0  0  0  0  0  0
    6.5880  -14.7116   26.2069 C   0  0  0  0  0  0  0  0  0  0  0  0
    7.7858  -14.0719   25.9753 C   0  0  0  0  0  0  0  0  0  0  0  0
    7.8389  -12.6791   25.8683 C   0  0  0  0  0  0  0  0  0  0  0  0
    6.6896  -11.9272   25.9937 C   0  0  0  0  0  0  0  0  0  0  0  0
    5.4965  -12.5549   26.2237 C   0  0  0  0  0  0  0  0  0  0  0  0
    5.4647  -13.9221   26.3255 C   0  0  0  0  0  0  0  0  0  0  0  0
    7.2824  -16.6840   24.0135 C   0  0  0  0  0  0  0  0  0  0  0  0
    8.0575  -17.6765   23.9383 O   0  0  0  0  0  0  0  0  0  0  0  0
    6.7409  -13.4374   19.6762 C   0  0  0  0  0  0  0  0  0  0  0  0
    6.9365  -14.5691   20.6387 C   0  0  0  0  0  0  0  0  0  0  0  0
    8.3401  -14.6614   21.1136 C   0  0  2  0  0  0  0  0  0  0  0  0
    9.3640  -14.5085   20.0062 C   0  0  0  0  0  0  0  0  0  0  0  0
    8.6746  -15.6485   22.1654 C   0  0  2  0  0  0  0  0  0  0  0  0
    7.5984  -15.5937   23.1596 N   0  0  0  0  0  0  0  0  0  0  0  0
    9.9919  -15.5810   22.7818 C   0  0  0  0  0  0  0  0  0  0  0  0
   10.5109  -14.4557   22.9702 O   0  0  0  0  0  0  0  0  0  0  0  0
   10.7386  -16.7199   23.1865 N   0  0  0  0  0  0  0  0  0  0  0  0
   12.0995  -16.5709   23.6179 C   0  0  1  0  0  0  0  0  0  0  0  0
   12.2726  -15.6398   24.7983 C   0  0  0  0  0  0  0  0  0  0  0  0
   11.6751  -16.1970   26.0365 C   0  0  0  0  0  0  0  0  0  0  0  0
   11.4468  -17.5413   26.3559 C   0  0  0  0  0  0  0  0  0  0  0  0
   10.8820  -17.6279   27.5753 N   0  0  0  0  0  0  0  0  0  0  0  0
   10.7201  -16.3942   28.0919 C   0  0  0  0  0  0  0  0  0  0  0  0
   10.1966  -15.9432   29.2920 C   0  0  0  0  0  0  0  0  0  0  0  0
   10.1422  -14.5958   29.5888 C   0  0  0  0  0  0  0  0  0  0  0  0
   10.6239  -13.7145   28.6561 C   0  0  0  0  0  0  0  0  0  0  0  0
   11.1469  -14.1602   27.4577 C   0  0  0  0  0  0  0  0  0  0  0  0
   11.2066  -15.5139   27.1484 C   0  0  0  0  0  0  0  0  0  0  0  0
   12.8294  -17.8341   23.8133 C   0  0  0  0  0  0  0  0  0  0  0  0
   14.0330  -17.8196   24.1365 O   0  0  0  0  0  0  0  0  0  0  0  0
   12.1856  -19.0353   23.6390 O   0  0  0  0  0  0  0  0  0  0  0  0
  2  1  1  1
  2  3  1  0
  4  5  2  0
  4  3  1  0
  6  5  1  0
  7  6  2  0
  8  7  1  0
  8  9  2  0
  9  4  1  0
 10  2  1  0
 11 10  2  0
 12 13  1  0
 13 14  1  0
 14 15  1  6
 16 14  1  0
 16 17  1  1
 17 10  1  0
 18 16  1  0
 18 20  1  0
 19 18  2  0
 21 20  1  0
 21 22  1  1
 22 23  1  0
 23 24  2  0
 24 25  1  0
 26 25  1  0
 27 26  2  0
 28 27  1  0
 29 30  1  0
 29 28  2  0
 30 31  2  0
 31 23  1  0
 31 26  1  0
 32 21  1  0
 33 32  2  0
 34 32  1  0
M  END
$$$$
