FIW.pdb
     RDKit          3D

 34 36  0  0  1  0  0  0  0  0999 V2000
    9.6301  -19.2262   18.9452 N   0  0  0  0  0  0  0  0  0  0  0  0
    8.9611  -18.9224   20.2204 C   0  0  1  0  0  0  0  0  0  0  0  0
    9.3710  -20.0664   21.1444 C   0  0  0  0  0  0  0  0  0  0  0  0
    8.6755  -21.2803   20.6539 C   0  0  0  0  0  0  0  0  0  0  0  0
    7.3022  -21.3820   20.6912 C   0  0  0  0  0  0  0  0  0  0  0  0
    6.6616  -22.5337   20.2247 C   0  0  0  0  0  0  0  0  0  0  0  0
    7.3991  -23.5843   19.7202 C   0  0  0  0  0  0  0  0  0  0  0  0
    8.7629  -23.4909   19.6797 C   0  0  0  0  0  0  0  0  0  0  0  0
    9.3730  -22.3530   20.1420 C   0  0  0  0  0  0  0  0  0  0  0  0
    9.4139  -17.6219   20.7036 C   0  0  0  0  0  0  0  0  0  0  0  0
   10.6163  -17.2790   20.5361 O   0  0  0  0  0  0  0  0  0  0  0  0
    6.3500  -13.3146   20.1317 C   0  0  0  0  0  0  0  0  0  0  0  0
    7.4922  -14.2816   20.2085 C   0  0  0  0  0  0  0  0  0  0  0  0
    8.0503  -14.3781   21.5809 C   0  0  2  0  0  0  0  0  0  0  0  0
    8.2397  -13.0322   22.2522 C   0  0  0  0  0  0  0  0  0  0  0  0
    9.0998  -15.3859   21.8557 C   0  0  2  0  0  0  0  0  0  0  0  0
    8.5931  -16.6729   21.3695 N   0  0  0  0  0  0  0  0  0  0  0  0
    9.6267  -15.4823   23.2095 C   0  0  0  0  0  0  0  0  0  0  0  0
   10.3962  -14.5825   23.6211 O   0  0  0  0  0  0  0  0  0  0  0  0
    9.3251  -16.5430   24.1054 N   0  0  0  0  0  0  0  0  0  0  0  0
    9.9471  -16.5907   25.3981 C   0  0  1  0  0  0  0  0  0  0  0  0
    8.9707  -16.7277   26.5463 C   0  0  0  0  0  0  0  0  0  0  0  0
    7.8352  -15.7809   26.4246 C   0  0  0  0  0  0  0  0  0  0  0  0
    6.5364  -16.0436   25.9714 C   0  0  0  0  0  0  0  0  0  0  0  0
    5.8055  -14.9133   26.0099 N   0  0  0  0  0  0  0  0  0  0  0  0
    6.5603  -13.8973   26.4716 C   0  0  0  0  0  0  0  0  0  0  0  0
    6.2902  -12.5580   26.6973 C   0  0  0  0  0  0  0  0  0  0  0  0
    7.2588  -11.7041   27.1862 C   0  0  0  0  0  0  0  0  0  0  0  0
    8.5007  -12.2240   27.4426 C   0  0  0  0  0  0  0  0  0  0  0  0
    8.7745  -13.5595   27.2189 C   0  0  0  0  0  0  0  0  0  0  0  0
    7.8072  -14.4280   26.7270 C   0  0  0  0  0  0  0  0  0  0  0  0
   11.0588  -17.5481   25.5159 C   0  0  0  0  0  0  0  0  0  0  0  0
   11.7374  -17.5961   26.5602 O   0  0  0  0  0  0  0  0  0  0  0  0
   11.3532  -18.3929   24.4731 O   0  0  0  0  0  0  0  0  0  0  0  0
  2  1  1  6
  2  3  1  0
  4  5  2  0
  4  3  1  0
  6  5  1  0
  7  6  2  0
  8  7  1  0
  8  9  2  0
  9  4  1  0
 10  2  1  0
 11 10  2  0
 12 13  1  0
 13 14  1  0
 14 15  1  6
 16 14  1  0
 16 17  1  1
 17 10  1  0
 18 16  1  0
 18 20  1  0
 19 18  2  0
 21 20  1  0
 21 22  1  1
 22 23  1  0
 23 24  2  0
 24 25  1  0
 26 25  1  0
 27 26  2  0
 28 27  1  0
 29 30  1  0
 29 28  2  0
 30 31  2  0
 31 23  1  0
 31 26  1  0
 32 21  1  0
 33 32  2  0
 34 32  1  0
M  END
$$$$
