FIW.pdb
     RDKit          3D

 34 36  0  0  1  0  0  0  0  0999 V2000
    9.9047  -16.1542   20.7200 N   0  0  0  0  0  0  0  0  0  0  0  0
    9.0453  -16.5563   21.8449 C   0  0  1  0  0  0  0  0  0  0  0  0
    9.4363  -18.0061   22.1202 C   0  0  0  0  0  0  0  0  0  0  0  0
    8.8211  -18.8241   21.0476 C   0  0  0  0  0  0  0  0  0  0  0  0
    7.5437  -19.3242   21.1731 C   0  0  0  0  0  0  0  0  0  0  0  0
    6.9781  -20.0939   20.1524 C   0  0  0  0  0  0  0  0  0  0  0  0
    7.6943  -20.3623   19.0047 C   0  0  0  0  0  0  0  0  0  0  0  0
    8.9631  -19.8693   18.8726 C   0  0  0  0  0  0  0  0  0  0  0  0
    9.5007  -19.1163   19.8849 C   0  0  0  0  0  0  0  0  0  0  0  0
    9.3022  -15.6806   22.9838 C   0  0  0  0  0  0  0  0  0  0  0  0
   10.4817  -15.3053   23.2279 O   0  0  0  0  0  0  0  0  0  0  0  0
    6.2661  -11.8674   26.7099 C   0  0  0  0  0  0  0  0  0  0  0  0
    7.5506  -12.6131   26.5108 C   0  0  0  0  0  0  0  0  0  0  0  0
    7.4894  -13.5280   25.3432 C   0  0  2  0  0  0  0  0  0  0  0  0
    6.1128  -14.1181   25.1093 C   0  0  0  0  0  0  0  0  0  0  0  0
    8.6295  -14.4379   25.0884 C   0  0  2  0  0  0  0  0  0  0  0  0
    8.3080  -15.1950   23.8746 N   0  0  0  0  0  0  0  0  0  0  0  0
    9.0770  -15.3037   26.1700 C   0  0  0  0  0  0  0  0  0  0  0  0
    8.3628  -16.2821   26.4920 O   0  0  0  0  0  0  0  0  0  0  0  0
   10.2830  -15.1094   26.8955 N   0  0  0  0  0  0  0  0  0  0  0  0
   10.6336  -16.0059   27.9602 C   0  0  1  0  0  0  0  0  0  0  0  0
   12.0278  -16.5833   27.8447 C   0  0  0  0  0  0  0  0  0  0  0  0
   12.2173  -17.3250   26.5741 C   0  0  0  0  0  0  0  0  0  0  0  0
   12.7073  -16.8392   25.3554 C   0  0  0  0  0  0  0  0  0  0  0  0
   12.7201  -17.8307   24.4443 N   0  0  0  0  0  0  0  0  0  0  0  0
   12.2578  -18.9674   25.0004 C   0  0  0  0  0  0  0  0  0  0  0  0
   12.0728  -20.2458   24.5012 C   0  0  0  0  0  0  0  0  0  0  0  0
   11.5719  -21.2591   25.2940 C   0  0  0  0  0  0  0  0  0  0  0  0
   11.2621  -20.9606   26.5953 C   0  0  0  0  0  0  0  0  0  0  0  0
   11.4451  -19.6867   27.0974 C   0  0  0  0  0  0  0  0  0  0  0  0
   11.9485  -18.6590   26.3084 C   0  0  0  0  0  0  0  0  0  0  0  0
   10.3709  -15.4925   29.3144 C   0  0  0  0  0  0  0  0  0  0  0  0
   10.5066  -16.2368   30.3048 O   0  0  0  0  0  0  0  0  0  0  0  0
    9.9739  -14.1891   29.4915 O   0  0  0  0  0  0  0  0  0  0  0  0
  2  1  1  6
  2  3  1  0
  4  5  2  0
  4  3  1  0
  6  5  1  0
  7  6  2  0
  8  7  1  0
  8  9  2  0
  9  4  1  0
 10  2  1  0
 11 10  2  0
 12 13  1  0
 13 14  1  0
 14 15  1  1
 16 14  1  0
 16 17  1  6
 17 10  1  0
 18 16  1  0
 18 20  1  0
 19 18  2  0
 21 20  1  0
 21 22  1  1
 22 23  1  0
 23 24  2  0
 24 25  1  0
 26 25  1  0
 27 26  2  0
 28 27  1  0
 29 30  1  0
 29 28  2  0
 30 31  2  0
 31 23  1  0
 31 26  1  0
 32 21  1  0
 33 32  2  0
 34 32  1  0
M  END
$$$$
