FIW.pdb
     RDKit          3D

 34 36  0  0  1  0  0  0  0  0999 V2000
   10.2565  -17.5091   17.5560 N   0  0  0  0  0  0  0  0  0  0  0  0
    9.6123  -17.7378   18.8592 C   0  0  1  0  0  0  0  0  0  0  0  0
   10.3430  -18.9482   19.4350 C   0  0  0  0  0  0  0  0  0  0  0  0
    9.9925  -20.1052   18.5766 C   0  0  0  0  0  0  0  0  0  0  0  0
   10.8584  -20.5666   17.6097 C   0  0  0  0  0  0  0  0  0  0  0  0
   10.5128  -21.6588   16.8085 C   0  0  0  0  0  0  0  0  0  0  0  0
    9.2976  -22.2889   16.9774 C   0  0  0  0  0  0  0  0  0  0  0  0
    8.4325  -21.8368   17.9353 C   0  0  0  0  0  0  0  0  0  0  0  0
    8.7896  -20.7639   18.7114 C   0  0  0  0  0  0  0  0  0  0  0  0
    9.7643  -16.5455   19.6871 C   0  0  0  0  0  0  0  0  0  0  0  0
   10.1725  -15.4721   19.1648 O   0  0  0  0  0  0  0  0  0  0  0  0
    7.3280  -13.3083   19.0231 C   0  0  0  0  0  0  0  0  0  0  0  0
    8.3874  -14.2077   19.5838 C   0  0  0  0  0  0  0  0  0  0  0  0
    8.1474  -14.5288   21.0133 C   0  0  2  0  0  0  0  0  0  0  0  0
    7.4054  -13.4389   21.7612 C   0  0  0  0  0  0  0  0  0  0  0  0
    9.2091  -15.2230   21.7772 C   0  0  2  0  0  0  0  0  0  0  0  0
    9.4837  -16.4822   21.0781 N   0  0  0  0  0  0  0  0  0  0  0  0
    9.0134  -15.4227   23.2060 C   0  0  0  0  0  0  0  0  0  0  0  0
    7.9856  -16.0263   23.5938 O   0  0  0  0  0  0  0  0  0  0  0  0
    9.9198  -14.9710   24.2025 N   0  0  0  0  0  0  0  0  0  0  0  0
   10.0294  -15.6770   25.4475 C   0  0  1  0  0  0  0  0  0  0  0  0
    8.7482  -16.3519   25.8873 C   0  0  0  0  0  0  0  0  0  0  0  0
    7.6342  -15.3837   26.0360 C   0  0  0  0  0  0  0  0  0  0  0  0
    6.2703  -15.5931   25.7965 C   0  0  0  0  0  0  0  0  0  0  0  0
    5.5870  -14.4599   26.0461 N   0  0  0  0  0  0  0  0  0  0  0  0
    6.4366  -13.4932   26.4449 C   0  0  0  0  0  0  0  0  0  0  0  0
    6.2448  -12.1724   26.8141 C   0  0  0  0  0  0  0  0  0  0  0  0
    7.3052  -11.3723   27.1904 C   0  0  0  0  0  0  0  0  0  0  0  0
    8.5586  -11.9268   27.1876 C   0  0  0  0  0  0  0  0  0  0  0  0
    8.7544  -13.2440   26.8200 C   0  0  0  0  0  0  0  0  0  0  0  0
    7.6943  -14.0585   26.4394 C   0  0  0  0  0  0  0  0  0  0  0  0
   11.1817  -16.5877   25.5439 C   0  0  0  0  0  0  0  0  0  0  0  0
   11.4498  -17.1478   26.6246 O   0  0  0  0  0  0  0  0  0  0  0  0
   11.9671  -16.8233   24.4416 O   0  0  0  0  0  0  0  0  0  0  0  0
  2  1  1  6
  2  3  1  0
  4  5  2  0
  4  3  1  0
  6  5  1  0
  7  6  2  0
  8  7  1  0
  8  9  2  0
  9  4  1  0
 10  2  1  0
 11 10  2  0
 12 13  1  0
 13 14  1  0
 14 15  1  1
 16 14  1  0
 16 17  1  6
 17 10  1  0
 18 16  1  0
 18 20  1  0
 19 18  2  0
 21 20  1  0
 21 22  1  6
 22 23  1  0
 23 24  2  0
 24 25  1  0
 26 25  1  0
 27 26  2  0
 28 27  1  0
 29 30  1  0
 29 28  2  0
 30 31  2  0
 31 23  1  0
 31 26  1  0
 32 21  1  0
 33 32  2  0
 34 32  1  0
M  END
$$$$
