FIW.pdb
     RDKit          3D

 34 36  0  0  1  0  0  0  0  0999 V2000
    5.4211  -18.0344   24.7714 N   0  0  0  0  0  0  0  0  0  0  0  0
    6.1227  -16.7408   24.7751 C   0  0  1  0  0  0  0  0  0  0  0  0
    6.7984  -16.6809   26.1427 C   0  0  0  0  0  0  0  0  0  0  0  0
    7.1652  -15.2633   26.3749 C   0  0  0  0  0  0  0  0  0  0  0  0
    6.3508  -14.4239   27.1028 C   0  0  0  0  0  0  0  0  0  0  0  0
    6.7112  -13.0896   27.3126 C   0  0  0  0  0  0  0  0  0  0  0  0
    7.8894  -12.5967   26.7920 C   0  0  0  0  0  0  0  0  0  0  0  0
    8.7033  -13.4239   26.0683 C   0  0  0  0  0  0  0  0  0  0  0  0
    8.3326  -14.7297   25.8733 C   0  0  0  0  0  0  0  0  0  0  0  0
    7.0809  -16.7097   23.6747 C   0  0  0  0  0  0  0  0  0  0  0  0
    7.7487  -17.7443   23.4005 O   0  0  0  0  0  0  0  0  0  0  0  0
    7.6858  -12.2307   20.0109 C   0  0  0  0  0  0  0  0  0  0  0  0
    8.2256  -13.1327   21.0788 C   0  0  0  0  0  0  0  0  0  0  0  0
    7.9348  -14.5619   20.8014 C   0  0  2  0  0  0  0  0  0  0  0  0
    6.5840  -14.7888   20.1521 C   0  0  0  0  0  0  0  0  0  0  0  0
    8.3497  -15.5805   21.7930 C   0  0  2  0  0  0  0  0  0  0  0  0
    7.3386  -15.5788   22.8548 N   0  0  0  0  0  0  0  0  0  0  0  0
    9.7026  -15.5137   22.3265 C   0  0  0  0  0  0  0  0  0  0  0  0
   10.2738  -14.3993   22.3803 O   0  0  0  0  0  0  0  0  0  0  0  0
   10.4286  -16.6421   22.7938 N   0  0  0  0  0  0  0  0  0  0  0  0
   11.7357  -16.4709   23.3617 C   0  0  1  0  0  0  0  0  0  0  0  0
   11.8159  -15.3749   24.4023 C   0  0  0  0  0  0  0  0  0  0  0  0
   11.1563  -15.7664   25.6720 C   0  0  0  0  0  0  0  0  0  0  0  0
   10.7346  -17.0415   26.0688 C   0  0  0  0  0  0  0  0  0  0  0  0
   10.1770  -16.9742   27.2926 N   0  0  0  0  0  0  0  0  0  0  0  0
   10.2058  -15.7030   27.7379 C   0  0  0  0  0  0  0  0  0  0  0  0
    9.7687  -15.1122   28.9116 C   0  0  0  0  0  0  0  0  0  0  0  0
    9.9182  -13.7573   29.1307 C   0  0  0  0  0  0  0  0  0  0  0  0
   10.5148  -13.0114   28.1477 C   0  0  0  0  0  0  0  0  0  0  0  0
   10.9523  -13.5968   26.9754 C   0  0  0  0  0  0  0  0  0  0  0  0
   10.8069  -14.9596   26.7441 C   0  0  0  0  0  0  0  0  0  0  0  0
   12.3745  -17.7110   23.8313 C   0  0  0  0  0  0  0  0  0  0  0  0
   11.7301  -18.7776   23.8577 O   0  0  0  0  0  0  0  0  0  0  0  0
   13.6850  -17.6969   24.2437 O   0  0  0  0  0  0  0  0  0  0  0  0
  2  1  1  1
  2  3  1  0
  4  5  2  0
  4  3  1  0
  6  5  1  0
  7  6  2  0
  8  7  1  0
  8  9  2  0
  9  4  1  0
 10  2  1  0
 11 10  2  0
 12 13  1  0
 13 14  1  0
 14 15  1  1
 16 14  1  0
 16 17  1  1
 17 10  1  0
 18 16  1  0
 18 20  1  0
 19 18  2  0
 21 20  1  0
 21 22  1  1
 22 23  1  0
 23 24  2  0
 24 25  1  0
 26 25  1  0
 27 26  2  0
 28 27  1  0
 29 30  1  0
 29 28  2  0
 30 31  2  0
 31 23  1  0
 31 26  1  0
 32 21  1  0
 33 32  2  0
 34 32  1  0
M  END
$$$$
