IYR.pdb
     RDKit          3D

 32 32  0  0  1  0  0  0  0  0999 V2000
   26.2057  -25.6108  -20.8394 C   0  0  0  0  0  0  0  0  0  0  0  0
   26.6831  -25.4405  -19.4062 C   0  0  0  0  0  0  0  0  0  0  0  0
   25.6694  -24.7416  -18.5613 C   0  0  2  0  0  0  0  0  0  0  0  0
   25.1159  -23.4953  -19.2226 C   0  0  0  0  0  0  0  0  0  0  0  0
   26.0991  -24.5300  -17.1650 C   0  0  2  0  0  0  0  0  0  0  0  0
   26.3888  -25.7903  -16.4705 N   0  0  0  0  0  0  0  0  0  0  0  0
   25.2443  -23.6655  -16.3224 C   0  0  0  0  0  0  0  0  0  0  0  0
   24.9009  -22.5233  -16.6442 O   0  0  0  0  0  0  0  0  0  0  0  0
   19.1158  -24.5749  -18.4071 O   0  0  0  0  0  0  0  0  0  0  0  0
   19.9686  -24.4292  -17.2861 C   0  0  0  0  0  0  0  0  0  0  0  0
   20.8650  -25.4132  -16.9580 C   0  0  0  0  0  0  0  0  0  0  0  0
   21.7003  -25.2689  -15.8595 C   0  0  0  0  0  0  0  0  0  0  0  0
   21.6657  -24.1477  -15.0635 C   0  0  0  0  0  0  0  0  0  0  0  0
   22.5709  -24.0184  -13.9054 C   0  0  0  0  0  0  0  0  0  0  0  0
   23.8961  -23.3859  -14.2029 C   0  0  2  0  0  0  0  0  0  0  0  0
   24.7582  -24.1256  -15.0485 N   0  0  0  0  0  0  0  0  0  0  0  0
   24.5808  -22.9046  -12.9577 C   0  0  0  0  0  0  0  0  0  0  0  0
   24.9573  -23.6848  -12.0487 O   0  0  0  0  0  0  0  0  0  0  0  0
   20.7544  -23.1783  -15.4201 C   0  0  0  0  0  0  0  0  0  0  0  0
   19.9161  -23.3012  -16.5059 C   0  0  0  0  0  0  0  0  0  0  0  0
   27.5470  -19.4703  -16.1424 N   0  0  0  0  0  0  0  0  0  0  0  0
   28.8851  -19.8055  -15.8106 C   0  0  0  0  0  0  0  0  0  0  0  0
   29.6940  -20.2170  -16.7256 N   0  0  0  0  0  0  0  0  0  0  0  0
   29.3049  -19.6798  -14.4663 N   0  0  0  0  0  0  0  0  0  0  0  0
   28.4034  -19.1753  -13.4554 C   0  0  0  0  0  0  0  0  0  0  0  0
   27.4755  -20.2369  -13.0208 C   0  0  0  0  0  0  0  0  0  0  0  0
   26.4599  -19.9967  -11.9990 C   0  0  0  0  0  0  0  0  0  0  0  0
   25.5764  -21.0682  -11.5103 C   0  0  2  0  0  0  0  0  0  0  0  0
   24.8302  -21.5280  -12.7606 N   0  0  0  0  0  0  0  0  0  0  0  0
   24.4714  -20.6846  -10.6034 C   0  0  0  0  0  0  0  0  0  0  0  0
   23.3200  -20.3382  -11.0660 O   0  0  0  0  0  0  0  0  0  0  0  0
   24.6090  -20.6841   -9.2515 O   0  0  0  0  0  0  0  0  0  0  0  0
  2  1  1  0
  3  5  1  0
  3  2  1  0
  3  4  1  6
  5  6  1  1
  7  5  1  0
  8  7  2  0
  9 10  1  0
 10 11  2  0
 11 12  1  0
 13 12  2  0
 13 14  1  0
 15 14  1  1
 15 16  1  0
 16  7  1  0
 17 15  1  0
 18 17  2  0
 19 13  1  0
 20 10  1  0
 20 19  2  0
 21 22  1  0
 22 23  2  0
 22 24  1  0
 24 25  1  0
 26 25  1  0
 28 27  1  6
 27 26  1  0
 28 29  1  0
 29 17  1  0
 30 28  1  0
 31 30  2  0
 32 30  1  0
M  END
$$$$
