IYR.pdb
     RDKit          3D

 32 32  0  0  1  0  0  0  0  0999 V2000
   26.5536  -19.2108  -16.6862 C   0  0  0  0  0  0  0  0  0  0  0  0
   27.5427  -20.0815  -15.9282 C   0  0  0  0  0  0  0  0  0  0  0  0
   27.1562  -20.2444  -14.4951 C   0  0  2  0  0  0  0  0  0  0  0  0
   26.8628  -18.9224  -13.8145 C   0  0  0  0  0  0  0  0  0  0  0  0
   28.0657  -21.1170  -13.7265 C   0  0  2  0  0  0  0  0  0  0  0  0
   28.3012  -22.4047  -14.3906 N   0  0  0  0  0  0  0  0  0  0  0  0
   27.7466  -21.3282  -12.2977 C   0  0  0  0  0  0  0  0  0  0  0  0
   26.8229  -22.0476  -11.9037 O   0  0  0  0  0  0  0  0  0  0  0  0
   27.6126  -19.8195   -3.4977 O   0  0  0  0  0  0  0  0  0  0  0  0
   28.0035  -19.8767   -4.8575 C   0  0  0  0  0  0  0  0  0  0  0  0
   28.7637  -20.9186   -5.3224 C   0  0  0  0  0  0  0  0  0  0  0  0
   29.1455  -20.9735   -6.6552 C   0  0  0  0  0  0  0  0  0  0  0  0
   28.7827  -19.9986   -7.5551 C   0  0  0  0  0  0  0  0  0  0  0  0
   29.1976  -20.0868   -8.9685 C   0  0  0  0  0  0  0  0  0  0  0  0
   28.1867  -20.6981   -9.8899 C   0  0  2  0  0  0  0  0  0  0  0  0
   28.5179  -20.6855  -11.2667 N   0  0  0  0  0  0  0  0  0  0  0  0
   26.8020  -20.1855   -9.6239 C   0  0  0  0  0  0  0  0  0  0  0  0
   26.3752  -19.1086  -10.1082 O   0  0  0  0  0  0  0  0  0  0  0  0
   28.0195  -18.9661   -7.0564 C   0  0  0  0  0  0  0  0  0  0  0  0
   27.6296  -18.8920   -5.7375 C   0  0  0  0  0  0  0  0  0  0  0  0
   19.6880  -21.8767  -12.3264 N   0  0  0  0  0  0  0  0  0  0  0  0
   19.7071  -20.4587  -12.3703 C   0  0  0  0  0  0  0  0  0  0  0  0
   18.6223  -19.8050  -12.6087 N   0  0  0  0  0  0  0  0  0  0  0  0
   20.9318  -19.7874  -12.1499 N   0  0  0  0  0  0  0  0  0  0  0  0
   22.1467  -20.5302  -11.9019 C   0  0  0  0  0  0  0  0  0  0  0  0
   22.6580  -20.2385  -10.5489 C   0  0  0  0  0  0  0  0  0  0  0  0
   23.9253  -20.7870  -10.0735 C   0  0  0  0  0  0  0  0  0  0  0  0
   24.4446  -20.4967   -8.7267 C   0  0  2  0  0  0  0  0  0  0  0  0
   25.9121  -20.9120   -8.8014 N   0  0  0  0  0  0  0  0  0  0  0  0
   23.9380  -21.3189   -7.6052 C   0  0  0  0  0  0  0  0  0  0  0  0
   24.4975  -22.4366   -7.2931 O   0  0  0  0  0  0  0  0  0  0  0  0
   22.8733  -20.9400   -6.8505 O   0  0  0  0  0  0  0  0  0  0  0  0
  2  1  1  0
  3  5  1  0
  3  2  1  0
  3  4  1  1
  5  6  1  6
  7  5  1  0
  8  7  2  0
  9 10  1  0
 10 11  2  0
 11 12  1  0
 13 12  2  0
 13 14  1  0
 15 14  1  1
 15 16  1  0
 16  7  1  0
 17 15  1  0
 18 17  2  0
 19 13  1  0
 20 10  1  0
 20 19  2  0
 21 22  1  0
 22 23  2  0
 22 24  1  0
 24 25  1  0
 26 25  1  0
 28 27  1  6
 27 26  1  0
 28 29  1  0
 29 17  1  0
 30 28  1  0
 31 30  2  0
 32 30  1  0
M  END
$$$$
