IYR.pdb
     RDKit          3D

 32 32  0  0  1  0  0  0  0  0999 V2000
   28.2129  -18.6715  -13.1364 C   0  0  0  0  0  0  0  0  0  0  0  0
   27.0890  -19.6496  -13.4382 C   0  0  0  0  0  0  0  0  0  0  0  0
   26.7442  -20.4850  -12.2495 C   0  0  2  0  0  0  0  0  0  0  0  0
   27.9560  -21.1573  -11.6358 C   0  0  0  0  0  0  0  0  0  0  0  0
   25.6082  -21.4011  -12.4723 C   0  0  2  0  0  0  0  0  0  0  0  0
   25.9428  -22.4958  -13.3912 N   0  0  0  0  0  0  0  0  0  0  0  0
   24.3164  -20.7894  -12.8531 C   0  0  0  0  0  0  0  0  0  0  0  0
   23.6091  -20.1457  -12.0712 O   0  0  0  0  0  0  0  0  0  0  0  0
   18.2054  -16.5638  -17.5900 O   0  0  0  0  0  0  0  0  0  0  0  0
   19.3438  -17.3071  -17.1945 C   0  0  0  0  0  0  0  0  0  0  0  0
   20.2576  -16.7740  -16.3225 C   0  0  0  0  0  0  0  0  0  0  0  0
   21.3725  -17.5037  -15.9355 C   0  0  0  0  0  0  0  0  0  0  0  0
   21.6057  -18.7759  -16.4033 C   0  0  0  0  0  0  0  0  0  0  0  0
   22.7966  -19.5313  -15.9689 C   0  0  0  0  0  0  0  0  0  0  0  0
   22.6427  -20.2697  -14.6744 C   0  0  2  0  0  0  0  0  0  0  0  0
   23.8045  -20.9199  -14.1918 N   0  0  0  0  0  0  0  0  0  0  0  0
   21.4388  -21.1649  -14.6782 C   0  0  0  0  0  0  0  0  0  0  0  0
   21.4359  -22.2915  -15.2326 O   0  0  0  0  0  0  0  0  0  0  0  0
   20.6692  -19.2822  -17.2773 C   0  0  0  0  0  0  0  0  0  0  0  0
   19.5559  -18.5753  -17.6746 C   0  0  0  0  0  0  0  0  0  0  0  0
   19.2395  -24.4055   -8.1394 N   0  0  0  0  0  0  0  0  0  0  0  0
   18.1997  -23.6499   -8.7401 C   0  0  0  0  0  0  0  0  0  0  0  0
   17.0374  -23.5958   -8.1859 N   0  0  0  0  0  0  0  0  0  0  0  0
   18.4660  -22.9662   -9.9486 N   0  0  0  0  0  0  0  0  0  0  0  0
   19.7780  -23.0184  -10.5528 C   0  0  0  0  0  0  0  0  0  0  0  0
   19.8492  -22.0970  -11.7030 C   0  0  0  0  0  0  0  0  0  0  0  0
   18.7678  -22.0057  -12.6804 C   0  0  0  0  0  0  0  0  0  0  0  0
   19.0190  -21.6760  -14.0931 C   0  0  2  0  0  0  0  0  0  0  0  0
   20.2414  -20.7623  -14.0454 N   0  0  0  0  0  0  0  0  0  0  0  0
   18.0196  -20.8344  -14.7883 C   0  0  0  0  0  0  0  0  0  0  0  0
   16.8893  -21.3208  -15.1699 O   0  0  0  0  0  0  0  0  0  0  0  0
   18.2357  -19.5189  -15.0517 O   0  0  0  0  0  0  0  0  0  0  0  0
  2  1  1  0
  3  5  1  0
  3  2  1  0
  3  4  1  6
  5  6  1  6
  7  5  1  0
  8  7  2  0
  9 10  1  0
 10 11  2  0
 11 12  1  0
 13 12  2  0
 13 14  1  0
 15 14  1  6
 15 16  1  0
 16  7  1  0
 17 15  1  0
 18 17  2  0
 19 13  1  0
 20 10  1  0
 20 19  2  0
 21 22  1  0
 22 23  2  0
 22 24  1  0
 24 25  1  0
 26 25  1  0
 28 27  1  1
 27 26  1  0
 28 29  1  0
 29 17  1  0
 30 28  1  0
 31 30  2  0
 32 30  1  0
M  END
$$$$
