IYR.pdb
     RDKit          3D

 32 32  0  0  1  0  0  0  0  0999 V2000
   29.3648  -22.9755  -17.3998 C   0  0  0  0  0  0  0  0  0  0  0  0
   28.5686  -21.7184  -17.7109 C   0  0  0  0  0  0  0  0  0  0  0  0
   27.6542  -21.3474  -16.5902 C   0  0  2  0  0  0  0  0  0  0  0  0
   26.7795  -22.5012  -16.1425 C   0  0  0  0  0  0  0  0  0  0  0  0
   26.9095  -20.0931  -16.8172 C   0  0  2  0  0  0  0  0  0  0  0  0
   27.7886  -18.9795  -17.1935 N   0  0  0  0  0  0  0  0  0  0  0  0
   25.9698  -19.6682  -15.7568 C   0  0  0  0  0  0  0  0  0  0  0  0
   26.2657  -18.8690  -14.8625 O   0  0  0  0  0  0  0  0  0  0  0  0
   21.6323  -16.0493  -19.8249 O   0  0  0  0  0  0  0  0  0  0  0  0
   22.0804  -16.5840  -18.5927 C   0  0  0  0  0  0  0  0  0  0  0  0
   21.1825  -16.9859  -17.6379 C   0  0  0  0  0  0  0  0  0  0  0  0
   21.6231  -17.5102  -16.4312 C   0  0  0  0  0  0  0  0  0  0  0  0
   22.9614  -17.6477  -16.1449 C   0  0  0  0  0  0  0  0  0  0  0  0
   23.4010  -18.2152  -14.8556 C   0  0  0  0  0  0  0  0  0  0  0  0
   23.6095  -19.6988  -14.8531 C   0  0  2  0  0  0  0  0  0  0  0  0
   24.6261  -20.1816  -15.7128 N   0  0  0  0  0  0  0  0  0  0  0  0
   22.3186  -20.4476  -15.0069 C   0  0  0  0  0  0  0  0  0  0  0  0
   21.7966  -20.6720  -16.1267 O   0  0  0  0  0  0  0  0  0  0  0  0
   23.8371  -17.2348  -17.1246 C   0  0  0  0  0  0  0  0  0  0  0  0
   23.4213  -16.7117  -18.3290 C   0  0  0  0  0  0  0  0  0  0  0  0
   17.9758  -26.1110  -12.6013 N   0  0  0  0  0  0  0  0  0  0  0  0
   19.1320  -26.1429  -11.7796 C   0  0  0  0  0  0  0  0  0  0  0  0
   19.8419  -27.2160  -11.7046 N   0  0  0  0  0  0  0  0  0  0  0  0
   19.4823  -24.9823  -11.0520 N   0  0  0  0  0  0  0  0  0  0  0  0
   18.6945  -23.7756  -11.1631 C   0  0  0  0  0  0  0  0  0  0  0  0
   18.9102  -23.1425  -12.4782 C   0  0  0  0  0  0  0  0  0  0  0  0
   20.0393  -22.2489  -12.7231 C   0  0  0  0  0  0  0  0  0  0  0  0
   20.3131  -21.6851  -14.0553 C   0  0  2  0  0  0  0  0  0  0  0  0
   21.6311  -20.9358  -13.8733 N   0  0  0  0  0  0  0  0  0  0  0  0
   19.4086  -20.6225  -14.5486 C   0  0  0  0  0  0  0  0  0  0  0  0
   19.5734  -19.3931  -14.2005 O   0  0  0  0  0  0  0  0  0  0  0  0
   18.3735  -20.8831  -15.3896 O   0  0  0  0  0  0  0  0  0  0  0  0
  2  1  1  0
  3  5  1  0
  3  2  1  0
  3  4  1  6
  5  6  1  1
  7  5  1  0
  8  7  2  0
  9 10  1  0
 10 11  2  0
 11 12  1  0
 13 12  2  0
 13 14  1  0
 15 14  1  6
 15 16  1  0
 16  7  1  0
 17 15  1  0
 18 17  2  0
 19 13  1  0
 20 10  1  0
 20 19  2  0
 21 22  1  0
 22 23  2  0
 22 24  1  0
 24 25  1  0
 26 25  1  0
 28 27  1  1
 27 26  1  0
 28 29  1  0
 29 17  1  0
 30 28  1  0
 31 30  2  0
 32 30  1  0
M  END
$$$$
