IYR.pdb
     RDKit          3D

 32 32  0  0  1  0  0  0  0  0999 V2000
   28.2104  -14.4732  -18.0987 C   0  0  0  0  0  0  0  0  0  0  0  0
   27.6483  -15.8841  -18.0306 C   0  0  0  0  0  0  0  0  0  0  0  0
   26.4657  -15.9687  -17.1228 C   0  0  2  0  0  0  0  0  0  0  0  0
   26.7164  -15.3247  -15.7740 C   0  0  0  0  0  0  0  0  0  0  0  0
   25.8765  -17.3193  -17.0338 C   0  0  2  0  0  0  0  0  0  0  0  0
   25.6986  -17.9412  -18.3514 N   0  0  0  0  0  0  0  0  0  0  0  0
   24.6438  -17.4630  -16.2288 C   0  0  0  0  0  0  0  0  0  0  0  0
   24.5360  -17.0574  -15.0670 O   0  0  0  0  0  0  0  0  0  0  0  0
   19.4185  -13.2711  -18.9304 O   0  0  0  0  0  0  0  0  0  0  0  0
   19.8241  -14.5296  -18.4237 C   0  0  0  0  0  0  0  0  0  0  0  0
   19.1863  -15.0870  -17.3457 C   0  0  0  0  0  0  0  0  0  0  0  0
   19.5845  -16.3205  -16.8506 C   0  0  0  0  0  0  0  0  0  0  0  0
   20.6220  -17.0276  -17.4124 C   0  0  0  0  0  0  0  0  0  0  0  0
   21.0193  -18.3407  -16.8689 C   0  0  0  0  0  0  0  0  0  0  0  0
   22.2785  -18.3371  -16.0571 C   0  0  2  0  0  0  0  0  0  0  0  0
   23.4763  -18.1028  -16.7753 N   0  0  0  0  0  0  0  0  0  0  0  0
   22.3693  -19.5335  -15.1563 C   0  0  0  0  0  0  0  0  0  0  0  0
   22.7806  -20.6507  -15.5556 O   0  0  0  0  0  0  0  0  0  0  0  0
   21.2416  -16.4403  -18.4933 C   0  0  0  0  0  0  0  0  0  0  0  0
   20.8625  -15.2172  -19.0006 C   0  0  0  0  0  0  0  0  0  0  0  0
   27.2699  -22.3116  -10.4980 N   0  0  0  0  0  0  0  0  0  0  0  0
   26.8897  -21.1713  -11.2518 C   0  0  0  0  0  0  0  0  0  0  0  0
   27.4401  -20.9389  -12.3938 N   0  0  0  0  0  0  0  0  0  0  0  0
   25.9042  -20.3049  -10.7254 N   0  0  0  0  0  0  0  0  0  0  0  0
   24.7680  -20.8312  -10.0034 C   0  0  0  0  0  0  0  0  0  0  0  0
   23.6978  -21.2164  -10.9432 C   0  0  0  0  0  0  0  0  0  0  0  0
   23.2296  -20.3075  -11.9862 C   0  0  0  0  0  0  0  0  0  0  0  0
   22.1256  -20.6635  -12.8930 C   0  0  2  0  0  0  0  0  0  0  0  0
   21.9865  -19.4425  -13.7994 N   0  0  0  0  0  0  0  0  0  0  0  0
   20.7708  -20.7823  -12.3091 C   0  0  0  0  0  0  0  0  0  0  0  0
   20.3036  -21.9241  -11.9379 O   0  0  0  0  0  0  0  0  0  0  0  0
   19.9608  -19.7061  -12.1297 O   0  0  0  0  0  0  0  0  0  0  0  0
  2  1  1  0
  3  5  1  0
  3  2  1  0
  3  4  1  1
  5  6  1  6
  7  5  1  0
  8  7  2  0
  9 10  1  0
 10 11  2  0
 11 12  1  0
 13 12  2  0
 13 14  1  0
 15 14  1  6
 15 16  1  0
 16  7  1  0
 17 15  1  0
 18 17  2  0
 19 13  1  0
 20 10  1  0
 20 19  2  0
 21 22  1  0
 22 23  2  0
 22 24  1  0
 24 25  1  0
 26 25  1  0
 28 27  1  1
 27 26  1  0
 28 29  1  0
 29 17  1  0
 30 28  1  0
 31 30  2  0
 32 30  1  0
M  END
$$$$
