IYR.pdb
     RDKit          3D

 32 32  0  0  1  0  0  0  0  0999 V2000
   30.0995  -20.4192  -11.8538 C   0  0  0  0  0  0  0  0  0  0  0  0
   28.8104  -21.0707  -11.3797 C   0  0  0  0  0  0  0  0  0  0  0  0
   27.6060  -20.4203  -11.9767 C   0  0  2  0  0  0  0  0  0  0  0  0
   27.6751  -18.9070  -11.9305 C   0  0  0  0  0  0  0  0  0  0  0  0
   26.3262  -20.9698  -11.4875 C   0  0  2  0  0  0  0  0  0  0  0  0
   26.3270  -22.4370  -11.4419 N   0  0  0  0  0  0  0  0  0  0  0  0
   25.0916  -20.4781  -12.1371 C   0  0  0  0  0  0  0  0  0  0  0  0
   24.5767  -19.3839  -11.8848 O   0  0  0  0  0  0  0  0  0  0  0  0
   27.5104  -16.4995  -16.0630 O   0  0  0  0  0  0  0  0  0  0  0  0
   26.5174  -17.4892  -15.8644 C   0  0  0  0  0  0  0  0  0  0  0  0
   25.2488  -17.1386  -15.4807 C   0  0  0  0  0  0  0  0  0  0  0  0
   24.2767  -18.1095  -15.2869 C   0  0  0  0  0  0  0  0  0  0  0  0
   24.5401  -19.4471  -15.4690 C   0  0  0  0  0  0  0  0  0  0  0  0
   23.4845  -20.4573  -15.2622 C   0  0  0  0  0  0  0  0  0  0  0  0
   23.2592  -20.8574  -13.8362 C   0  0  2  0  0  0  0  0  0  0  0  0
   24.4089  -21.2746  -13.1222 N   0  0  0  0  0  0  0  0  0  0  0  0
   22.1127  -21.8149  -13.6960 C   0  0  0  0  0  0  0  0  0  0  0  0
   22.2082  -23.0316  -13.9914 O   0  0  0  0  0  0  0  0  0  0  0  0
   25.8236  -19.7659  -15.8542 C   0  0  0  0  0  0  0  0  0  0  0  0
   26.8035  -18.8184  -16.0520 C   0  0  0  0  0  0  0  0  0  0  0  0
   18.7397  -24.6914   -6.7452 N   0  0  0  0  0  0  0  0  0  0  0  0
   17.8137  -25.1875   -7.6989 C   0  0  0  0  0  0  0  0  0  0  0  0
   16.9644  -26.0967   -7.3625 N   0  0  0  0  0  0  0  0  0  0  0  0
   17.8457  -24.6673   -9.0132 N   0  0  0  0  0  0  0  0  0  0  0  0
   18.8418  -23.6931   -9.3975 C   0  0  0  0  0  0  0  0  0  0  0  0
   18.7647  -23.4262  -10.8466 C   0  0  0  0  0  0  0  0  0  0  0  0
   19.7036  -22.5266  -11.5116 C   0  0  0  0  0  0  0  0  0  0  0  0
   19.7426  -22.3838  -12.9765 C   0  0  2  0  0  0  0  0  0  0  0  0
   20.8598  -21.3711  -13.2173 N   0  0  0  0  0  0  0  0  0  0  0  0
   18.5828  -21.7403  -13.6331 C   0  0  0  0  0  0  0  0  0  0  0  0
   17.6433  -22.4440  -14.1641 O   0  0  0  0  0  0  0  0  0  0  0  0
   18.4458  -20.3902  -13.7039 O   0  0  0  0  0  0  0  0  0  0  0  0
  2  1  1  0
  3  5  1  0
  3  2  1  0
  3  4  1  1
  5  6  1  6
  7  5  1  0
  8  7  2  0
  9 10  1  0
 10 11  2  0
 11 12  1  0
 13 12  2  0
 13 14  1  0
 15 14  1  6
 15 16  1  0
 16  7  1  0
 17 15  1  0
 18 17  2  0
 19 13  1  0
 20 10  1  0
 20 19  2  0
 21 22  1  0
 22 23  2  0
 22 24  1  0
 24 25  1  0
 26 25  1  0
 28 27  1  1
 27 26  1  0
 28 29  1  0
 29 17  1  0
 30 28  1  0
 31 30  2  0
 32 30  1  0
M  END
$$$$
