IYR.pdb
     RDKit          3D

 32 32  0  0  1  0  0  0  0  0999 V2000
   21.9315   -7.4531  -24.0622 C   0  0  0  0  0  0  0  0  0  0  0  0
   22.8568   -6.3616  -23.5488 C   0  0  0  0  0  0  0  0  0  0  0  0
   23.1766   -6.5388  -22.1010 C   0  0  2  0  0  0  0  0  0  0  0  0
   21.9370   -6.6885  -21.2421 C   0  0  0  0  0  0  0  0  0  0  0  0
   24.1439   -5.5538  -21.5780 C   0  0  2  0  0  0  0  0  0  0  0  0
   25.4020   -5.5477  -22.3341 N   0  0  0  0  0  0  0  0  0  0  0  0
   24.4195   -5.5886  -20.1251 C   0  0  0  0  0  0  0  0  0  0  0  0
   25.2893   -6.3001  -19.6122 O   0  0  0  0  0  0  0  0  0  0  0  0
   29.2844   -1.6047  -19.6843 O   0  0  0  0  0  0  0  0  0  0  0  0
   28.0776   -2.0447  -19.0884 C   0  0  0  0  0  0  0  0  0  0  0  0
   26.8731   -1.8235  -19.7047 C   0  0  0  0  0  0  0  0  0  0  0  0
   25.6915   -2.2557  -19.1198 C   0  0  0  0  0  0  0  0  0  0  0  0
   25.6778   -2.9158  -17.9132 C   0  0  0  0  0  0  0  0  0  0  0  0
   24.4062   -3.3701  -17.3181 C   0  0  0  0  0  0  0  0  0  0  0  0
   23.9072   -4.6912  -17.8185 C   0  0  2  0  0  0  0  0  0  0  0  0
   23.6643   -4.7728  -19.2113 N   0  0  0  0  0  0  0  0  0  0  0  0
   22.7590   -5.2043  -17.0005 C   0  0  0  0  0  0  0  0  0  0  0  0
   21.5618   -4.9511  -17.2823 O   0  0  0  0  0  0  0  0  0  0  0  0
   26.9038   -3.1221  -17.3203 C   0  0  0  0  0  0  0  0  0  0  0  0
   28.0884   -2.7015  -17.8833 C   0  0  0  0  0  0  0  0  0  0  0  0
   17.4529   -9.1637  -17.7248 N   0  0  0  0  0  0  0  0  0  0  0  0
   18.7103   -9.7133  -18.0854 C   0  0  0  0  0  0  0  0  0  0  0  0
   18.9096  -10.1376  -19.2859 N   0  0  0  0  0  0  0  0  0  0  0  0
   19.7279   -9.7846  -17.1064 N   0  0  0  0  0  0  0  0  0  0  0  0
   19.8352   -8.7745  -16.0781 C   0  0  0  0  0  0  0  0  0  0  0  0
   21.0156   -9.0300  -15.2305 C   0  0  0  0  0  0  0  0  0  0  0  0
   22.0777   -8.0394  -15.0762 C   0  0  0  0  0  0  0  0  0  0  0  0
   21.8043   -6.5928  -15.0980 C   0  0  2  0  0  0  0  0  0  0  0  0
   22.9901   -6.0063  -15.8605 N   0  0  0  0  0  0  0  0  0  0  0  0
   21.8626   -5.8652  -13.8105 C   0  0  0  0  0  0  0  0  0  0  0  0
   22.9353   -5.2571  -13.4374 O   0  0  0  0  0  0  0  0  0  0  0  0
   20.7991   -5.7952  -12.9676 O   0  0  0  0  0  0  0  0  0  0  0  0
  2  1  1  0
  3  5  1  0
  3  2  1  0
  3  4  1  1
  5  6  1  6
  7  5  1  0
  8  7  2  0
  9 10  1  0
 10 11  2  0
 11 12  1  0
 13 12  2  0
 13 14  1  0
 15 14  1  1
 15 16  1  0
 16  7  1  0
 17 15  1  0
 18 17  2  0
 19 13  1  0
 20 10  1  0
 20 19  2  0
 21 22  1  0
 22 23  2  0
 22 24  1  0
 24 25  1  0
 26 25  1  0
 28 27  1  1
 27 26  1  0
 28 29  1  0
 29 17  1  0
 30 28  1  0
 31 30  2  0
 32 30  1  0
M  END
$$$$
