SGM.pdb
     RDKit          3D

 19 18  0  0  1  0  0  0  0  0999 V2000
    8.8486  -19.4853   17.6475 O   0  0  0  0  0  0  0  0  0  0  0  0
    9.4774  -18.3136   17.1871 C   0  0  0  0  0  0  0  0  0  0  0  0
   10.1640  -17.6844   18.3701 C   0  0  2  0  0  0  0  0  0  0  0  0
   10.8799  -18.7257   19.0904 N   0  0  0  0  0  0  0  0  0  0  0  0
    9.1335  -17.0886   19.2487 C   0  0  0  0  0  0  0  0  0  0  0  0
    8.4416  -16.1114   18.8941 O   0  0  0  0  0  0  0  0  0  0  0  0
    8.9002  -17.6294   20.5515 N   0  0  0  0  0  0  0  0  0  0  0  0
    7.8968  -17.0860   21.3853 C   0  0  0  0  0  0  0  0  0  0  0  0
    8.3915  -16.2698   22.5135 C   0  0  0  0  0  0  0  0  0  0  0  0
    9.6371  -15.9569   22.5879 O   0  0  0  0  0  0  0  0  0  0  0  0
    6.5552  -10.8026   27.7991 C   0  0  0  0  0  0  0  0  0  0  0  0
    6.4948  -11.5936   26.1938 S   0  0  0  0  0  0  0  0  0  0  0  0
    6.9621  -13.2764   26.2463 C   0  0  0  0  0  0  0  0  0  0  0  0
    7.0396  -14.1715   25.1197 C   0  0  0  0  0  0  0  0  0  0  0  0
    8.2226  -14.8469   24.5798 C   0  0  2  0  0  0  0  0  0  0  0  0
    7.5925  -15.7822   23.5585 N   0  0  0  0  0  0  0  0  0  0  0  0
    8.9508  -15.7672   25.4966 C   0  0  0  0  0  0  0  0  0  0  0  0
   10.1330  -15.3118   26.1154 O   0  0  0  0  0  0  0  0  0  0  0  0
    8.6146  -16.9101   25.7723 O   0  0  0  0  0  0  0  0  0  0  0  0
  1  2  1  0
  3  5  1  0
  3  4  1  1
  3  2  1  0
  5  6  2  0
  7  5  1  0
  7  8  1  0
  9 10  2  0
  9  8  1  0
 11 12  1  0
 13 14  1  0
 13 12  1  0
 15 14  1  1
 15 16  1  0
 15 17  1  0
 16  9  1  0
 17 18  1  0
 19 17  2  0
M  END
$$$$
