SGM.pdb
     RDKit          3D

 19 18  0  0  1  0  0  0  0  0999 V2000
    7.5981  -14.0662   17.4869 O   0  0  0  0  0  0  0  0  0  0  0  0
    7.3996  -12.8670   18.1961 C   0  0  0  0  0  0  0  0  0  0  0  0
    8.4709  -12.7931   19.2513 C   0  0  2  0  0  0  0  0  0  0  0  0
    9.7477  -13.1071   18.6296 N   0  0  0  0  0  0  0  0  0  0  0  0
    8.1673  -13.7926   20.2991 C   0  0  0  0  0  0  0  0  0  0  0  0
    7.1586  -13.7043   21.0299 O   0  0  0  0  0  0  0  0  0  0  0  0
    9.0398  -14.9067   20.5034 N   0  0  0  0  0  0  0  0  0  0  0  0
    8.7016  -15.9240   21.4243 C   0  0  0  0  0  0  0  0  0  0  0  0
    8.9844  -15.6091   22.8402 C   0  0  0  0  0  0  0  0  0  0  0  0
   10.1292  -15.1305   23.1799 O   0  0  0  0  0  0  0  0  0  0  0  0
    6.3529  -10.7828   27.3537 C   0  0  0  0  0  0  0  0  0  0  0  0
    5.9630  -12.4353   26.7848 S   0  0  0  0  0  0  0  0  0  0  0  0
    7.3793  -13.3470   26.3204 C   0  0  0  0  0  0  0  0  0  0  0  0
    7.3918  -14.6944   25.8094 C   0  0  0  0  0  0  0  0  0  0  0  0
    8.5353  -15.4625   25.3099 C   0  0  2  0  0  0  0  0  0  0  0  0
    8.0792  -15.7920   23.8963 N   0  0  0  0  0  0  0  0  0  0  0  0
    8.7698  -16.7988   25.9238 C   0  0  0  0  0  0  0  0  0  0  0  0
    8.3856  -17.9506   25.2070 O   0  0  0  0  0  0  0  0  0  0  0  0
    9.2764  -17.0001   27.0184 O   0  0  0  0  0  0  0  0  0  0  0  0
  1  2  1  0
  3  5  1  0
  3  4  1  6
  3  2  1  0
  5  6  2  0
  7  5  1  0
  7  8  1  0
  9 10  2  0
  9  8  1  0
 11 12  1  0
 13 14  1  0
 13 12  1  0
 15 14  1  1
 15 16  1  0
 15 17  1  0
 16  9  1  0
 17 18  1  0
 19 17  2  0
M  END
$$$$
