SGM.pdb
     RDKit          3D

 19 18  0  0  1  0  0  0  0  0999 V2000
    3.7846  -18.7686   20.5329 O   0  0  0  0  0  0  0  0  0  0  0  0
    4.8337  -19.6779   20.7625 C   0  0  0  0  0  0  0  0  0  0  0  0
    5.6851  -19.1041   21.8637 C   0  0  2  0  0  0  0  0  0  0  0  0
    4.8127  -18.7154   22.9608 N   0  0  0  0  0  0  0  0  0  0  0  0
    6.3891  -17.9127   21.3403 C   0  0  0  0  0  0  0  0  0  0  0  0
    7.2734  -17.9953   20.4626 O   0  0  0  0  0  0  0  0  0  0  0  0
    6.0663  -16.6115   21.8372 N   0  0  0  0  0  0  0  0  0  0  0  0
    6.8375  -15.4882   21.4624 C   0  0  0  0  0  0  0  0  0  0  0  0
    7.7753  -14.9975   22.4937 C   0  0  0  0  0  0  0  0  0  0  0  0
    8.6234  -14.0730   22.2090 O   0  0  0  0  0  0  0  0  0  0  0  0
    6.0526  -10.4873   26.6823 C   0  0  0  0  0  0  0  0  0  0  0  0
    6.1917  -12.2717   26.7348 S   0  0  0  0  0  0  0  0  0  0  0  0
    7.5880  -12.8710   25.8721 C   0  0  0  0  0  0  0  0  0  0  0  0
    7.9958  -14.2494   25.7701 C   0  0  0  0  0  0  0  0  0  0  0  0
    8.8588  -14.8657   24.7589 C   0  0  2  0  0  0  0  0  0  0  0  0
    7.8292  -15.4677   23.8143 N   0  0  0  0  0  0  0  0  0  0  0  0
    9.6695  -16.0385   25.1885 C   0  0  0  0  0  0  0  0  0  0  0  0
    9.2966  -17.3216   24.7383 O   0  0  0  0  0  0  0  0  0  0  0  0
   10.6534  -15.9964   25.9135 O   0  0  0  0  0  0  0  0  0  0  0  0
  1  2  1  0
  3  5  1  0
  3  4  1  1
  3  2  1  0
  5  6  2  0
  7  5  1  0
  7  8  1  0
  9 10  2  0
  9  8  1  0
 11 12  1  0
 13 14  1  0
 13 12  1  0
 15 14  1  1
 15 16  1  0
 15 17  1  0
 16  9  1  0
 17 18  1  0
 19 17  2  0
M  END
$$$$
