SGM.pdb
     RDKit          3D

 19 18  0  0  1  0  0  0  0  0999 V2000
    4.9126  -19.4330   19.8291 O   0  0  0  0  0  0  0  0  0  0  0  0
    5.3723  -18.1595   20.2127 C   0  0  0  0  0  0  0  0  0  0  0  0
    6.1971  -18.3424   21.4589 C   0  0  2  0  0  0  0  0  0  0  0  0
    5.3002  -18.6651   22.5576 N   0  0  0  0  0  0  0  0  0  0  0  0
    6.9011  -17.0733   21.7463 C   0  0  0  0  0  0  0  0  0  0  0  0
    6.3007  -16.0579   22.1560 O   0  0  0  0  0  0  0  0  0  0  0  0
    8.3152  -16.9776   21.5582 N   0  0  0  0  0  0  0  0  0  0  0  0
    8.9931  -15.7642   21.8140 C   0  0  0  0  0  0  0  0  0  0  0  0
    9.2823  -15.4942   23.2377 C   0  0  0  0  0  0  0  0  0  0  0  0
   10.2717  -14.7397   23.5647 O   0  0  0  0  0  0  0  0  0  0  0  0
    6.5885  -10.8603   26.2056 C   0  0  0  0  0  0  0  0  0  0  0  0
    6.4760  -12.5904   26.6536 S   0  0  0  0  0  0  0  0  0  0  0  0
    7.8065  -13.5407   26.0374 C   0  0  0  0  0  0  0  0  0  0  0  0
    8.0459  -14.9372   26.3005 C   0  0  0  0  0  0  0  0  0  0  0  0
    9.0786  -15.8027   25.7249 C   0  0  2  0  0  0  0  0  0  0  0  0
    8.5448  -16.0077   24.3150 N   0  0  0  0  0  0  0  0  0  0  0  0
    9.1783  -17.1860   26.2673 C   0  0  0  0  0  0  0  0  0  0  0  0
    8.6136  -18.2458   25.5285 O   0  0  0  0  0  0  0  0  0  0  0  0
    9.7163  -17.5008   27.3193 O   0  0  0  0  0  0  0  0  0  0  0  0
  1  2  1  0
  3  5  1  0
  3  4  1  1
  3  2  1  0
  5  6  2  0
  7  5  1  0
  7  8  1  0
  9 10  2  0
  9  8  1  0
 11 12  1  0
 13 14  1  0
 13 12  1  0
 15 14  1  1
 15 16  1  0
 15 17  1  0
 16  9  1  0
 17 18  1  0
 19 17  2  0
M  END
$$$$
