SGM.pdb
     RDKit          3D

 19 18  0  0  1  0  0  0  0  0999 V2000
    7.2397  -20.5520   21.7784 O   0  0  0  0  0  0  0  0  0  0  0  0
    7.8973  -20.8403   20.5682 C   0  0  0  0  0  0  0  0  0  0  0  0
    9.0653  -19.8963   20.4620 C   0  0  2  0  0  0  0  0  0  0  0  0
    9.7839  -19.9140   21.7264 N   0  0  0  0  0  0  0  0  0  0  0  0
    8.5465  -18.5352   20.2024 C   0  0  0  0  0  0  0  0  0  0  0  0
    8.0371  -18.2154   19.1081 O   0  0  0  0  0  0  0  0  0  0  0  0
    8.6173  -17.5332   21.2198 N   0  0  0  0  0  0  0  0  0  0  0  0
    8.1153  -16.2334   20.9836 C   0  0  0  0  0  0  0  0  0  0  0  0
    8.3016  -15.2765   22.0942 C   0  0  0  0  0  0  0  0  0  0  0  0
    8.1602  -14.0142   21.8905 O   0  0  0  0  0  0  0  0  0  0  0  0
    5.9846  -10.7254   26.9490 C   0  0  0  0  0  0  0  0  0  0  0  0
    6.6421  -12.3746   26.7164 S   0  0  0  0  0  0  0  0  0  0  0  0
    6.9756  -12.7441   25.0415 C   0  0  0  0  0  0  0  0  0  0  0  0
    7.4205  -14.0136   24.5245 C   0  0  0  0  0  0  0  0  0  0  0  0
    8.7898  -14.5289   24.4448 C   0  0  2  0  0  0  0  0  0  0  0  0
    8.6336  -15.6330   23.4098 N   0  0  0  0  0  0  0  0  0  0  0  0
    9.3127  -15.2420   25.6429 C   0  0  0  0  0  0  0  0  0  0  0  0
   10.2158  -14.5693   26.4914 O   0  0  0  0  0  0  0  0  0  0  0  0
    9.0279  -16.3850   25.9714 O   0  0  0  0  0  0  0  0  0  0  0  0
  1  2  1  0
  3  5  1  0
  3  4  1  1
  3  2  1  0
  5  6  2  0
  7  5  1  0
  7  8  1  0
  9 10  2  0
  9  8  1  0
 11 12  1  0
 13 14  1  0
 13 12  1  0
 15 14  1  1
 15 16  1  0
 15 17  1  0
 16  9  1  0
 17 18  1  0
 19 17  2  0
M  END
$$$$
