SGM.pdb
     RDKit          3D

 19 18  0  0  1  0  0  0  0  0999 V2000
    8.8025  -18.2003   19.7124 O   0  0  0  0  0  0  0  0  0  0  0  0
    7.7026  -19.0125   19.3797 C   0  0  0  0  0  0  0  0  0  0  0  0
    6.4590  -18.2485   19.7493 C   0  0  2  0  0  0  0  0  0  0  0  0
    6.6063  -16.8802   19.2787 N   0  0  0  0  0  0  0  0  0  0  0  0
    6.3233  -18.2572   21.2225 C   0  0  0  0  0  0  0  0  0  0  0  0
    6.1748  -19.3145   21.8703 O   0  0  0  0  0  0  0  0  0  0  0  0
    6.3603  -17.0297   21.9547 N   0  0  0  0  0  0  0  0  0  0  0  0
    6.3031  -17.0339   23.3668 C   0  0  0  0  0  0  0  0  0  0  0  0
    7.5162  -16.5333   24.0462 C   0  0  0  0  0  0  0  0  0  0  0  0
    8.5821  -16.2884   23.3688 O   0  0  0  0  0  0  0  0  0  0  0  0
    5.6797  -11.1055   26.1294 C   0  0  0  0  0  0  0  0  0  0  0  0
    6.7101  -12.1904   27.1132 S   0  0  0  0  0  0  0  0  0  0  0  0
    7.4613  -13.4550   26.1702 C   0  0  0  0  0  0  0  0  0  0  0  0
    8.3359  -14.4838   26.6736 C   0  0  0  0  0  0  0  0  0  0  0  0
    8.8856  -15.6363   25.9548 C   0  0  2  0  0  0  0  0  0  0  0  0
    7.6181  -16.2894   25.4239 N   0  0  0  0  0  0  0  0  0  0  0  0
    9.5143  -16.7067   26.7772 C   0  0  0  0  0  0  0  0  0  0  0  0
    8.7733  -17.8747   27.0504 O   0  0  0  0  0  0  0  0  0  0  0  0
   10.6408  -16.6705   27.2518 O   0  0  0  0  0  0  0  0  0  0  0  0
  1  2  1  0
  3  5  1  0
  3  4  1  1
  3  2  1  0
  5  6  2  0
  7  5  1  0
  7  8  1  0
  9 10  2  0
  9  8  1  0
 11 12  1  0
 13 14  1  0
 13 12  1  0
 15 14  1  1
 15 16  1  0
 15 17  1  0
 16  9  1  0
 17 18  1  0
 19 17  2  0
M  END
$$$$
