SGM.pdb
     RDKit          3D

 19 18  0  0  1  0  0  0  0  0999 V2000
    9.5400  -18.9310   18.2284 O   0  0  0  0  0  0  0  0  0  0  0  0
    8.5149  -18.3612   17.4508 C   0  0  0  0  0  0  0  0  0  0  0  0
    8.3320  -16.9447   17.9269 C   0  0  2  0  0  0  0  0  0  0  0  0
    9.6460  -16.3383   18.0733 N   0  0  0  0  0  0  0  0  0  0  0  0
    7.6480  -16.9750   19.2384 C   0  0  0  0  0  0  0  0  0  0  0  0
    6.4870  -17.4149   19.3728 O   0  0  0  0  0  0  0  0  0  0  0  0
    8.3142  -16.4917   20.4075 N   0  0  0  0  0  0  0  0  0  0  0  0
    7.6558  -16.4849   21.6580 C   0  0  0  0  0  0  0  0  0  0  0  0
    8.4622  -15.9827   22.7899 C   0  0  0  0  0  0  0  0  0  0  0  0
    9.6987  -15.6733   22.6158 O   0  0  0  0  0  0  0  0  0  0  0  0
    6.2252  -10.5028   25.8112 C   0  0  0  0  0  0  0  0  0  0  0  0
    6.5925  -12.0757   26.5843 S   0  0  0  0  0  0  0  0  0  0  0  0
    7.6013  -13.1018   25.5932 C   0  0  0  0  0  0  0  0  0  0  0  0
    8.0759  -14.4172   25.9415 C   0  0  0  0  0  0  0  0  0  0  0  0
    8.9458  -15.3016   25.1616 C   0  0  2  0  0  0  0  0  0  0  0  0
    7.9828  -15.8040   24.0962 N   0  0  0  0  0  0  0  0  0  0  0  0
    9.4126  -16.5482   25.8291 C   0  0  0  0  0  0  0  0  0  0  0  0
   10.6065  -16.5095   26.5782 O   0  0  0  0  0  0  0  0  0  0  0  0
    8.8466  -17.6315   25.7896 O   0  0  0  0  0  0  0  0  0  0  0  0
  1  2  1  0
  3  5  1  0
  3  4  1  1
  3  2  1  0
  5  6  2  0
  7  5  1  0
  7  8  1  0
  9 10  2  0
  9  8  1  0
 11 12  1  0
 13 14  1  0
 13 12  1  0
 15 14  1  1
 15 16  1  0
 15 17  1  0
 16  9  1  0
 17 18  1  0
 19 17  2  0
M  END
$$$$
