IDD.pdb
     RDKit          3D

 25 24  0  0  1  0  0  0  0  0999 V2000
    6.8064  -12.1050   17.8128 C   0  0  0  0  0  0  0  0  0  0  0  0
    8.1642  -12.7687   17.8077 C   0  0  0  0  0  0  0  0  0  0  0  0
    8.4137  -13.4542   19.1236 C   0  0  2  0  0  0  0  0  0  0  0  0
    8.3762  -12.3845   20.1907 C   0  0  0  0  0  0  0  0  0  0  0  0
    9.6743  -14.2630   19.1543 C   0  0  2  0  0  0  0  0  0  0  0  0
    9.7749  -15.0711   17.9527 N   0  0  0  0  0  0  0  0  0  0  0  0
    9.8327  -15.1086   20.3272 C   0  0  0  0  0  0  0  0  0  0  0  0
    9.7360  -14.7256   21.5207 O   0  0  0  0  0  0  0  0  0  0  0  0
   10.1220  -16.4908   20.1523 N   0  0  0  0  0  0  0  0  0  0  0  0
   10.4375  -17.3618   21.2694 C   0  0  1  0  0  0  0  0  0  0  0  0
   10.1020  -18.7995   20.9857 C   0  0  0  0  0  0  0  0  0  0  0  0
   10.2858  -19.7003   22.1262 C   0  0  0  0  0  0  0  0  0  0  0  0
   11.1409  -19.5817   23.0353 O   0  0  0  0  0  0  0  0  0  0  0  0
   11.9095  -17.3006   21.5594 C   0  0  0  0  0  0  0  0  0  0  0  0
   12.7301  -17.8180   20.7438 O   0  0  0  0  0  0  0  0  0  0  0  0
    9.4336  -20.7972   22.2189 O   0  0  0  0  0  0  0  0  0  0  0  0
   12.4086  -16.6736   22.7319 N   0  0  0  0  0  0  0  0  0  0  0  0
   13.8129  -16.6454   23.0263 C   0  0  1  0  0  0  0  0  0  0  0  0
   14.4355  -15.2977   22.7275 C   0  0  0  0  0  0  0  0  0  0  0  0
   14.6978  -15.1140   21.2912 C   0  0  0  0  0  0  0  0  0  0  0  0
   14.7668  -13.9362   20.8553 O   0  0  0  0  0  0  0  0  0  0  0  0
   14.1152  -17.0962   24.4011 C   0  0  0  0  0  0  0  0  0  0  0  0
   15.3957  -17.3109   24.8755 O   0  0  0  0  0  0  0  0  0  0  0  0
   14.8752  -16.1432   20.3793 O   0  0  0  0  0  0  0  0  0  0  0  0
   13.1548  -17.2959   25.1843 O   0  0  0  0  0  0  0  0  0  0  0  0
  2  1  1  0
  3  2  1  0
  3  4  1  1
  5  3  1  0
  5  6  1  6
  7  5  1  0
  7  8  2  0
  9  7  1  0
 10  9  1  0
 10 11  1  6
 12 11  1  0
 13 12  2  0
 14 10  1  0
 14 17  1  0
 15 14  2  0
 16 12  1  0
 18 17  1  0
 18 22  1  0
 19 20  1  0
 18 19  1  1
 20 21  2  0
 22 23  1  0
 24 20  1  0
 25 22  2  0
M  END
$$$$
