IDD.pdb
     RDKit          3D

 25 24  0  0  1  0  0  0  0  0999 V2000
    6.9384  -12.1292   19.4646 C   0  0  0  0  0  0  0  0  0  0  0  0
    7.7112  -12.8602   18.3910 C   0  0  0  0  0  0  0  0  0  0  0  0
    8.9068  -13.5508   18.9888 C   0  0  2  0  0  0  0  0  0  0  0  0
    9.7474  -12.4820   19.6487 C   0  0  0  0  0  0  0  0  0  0  0  0
    9.6808  -14.3768   18.0077 C   0  0  2  0  0  0  0  0  0  0  0  0
    8.7824  -15.2547   17.2803 N   0  0  0  0  0  0  0  0  0  0  0  0
   10.7666  -15.1555   18.5827 C   0  0  0  0  0  0  0  0  0  0  0  0
   10.6910  -16.3579   18.9418 O   0  0  0  0  0  0  0  0  0  0  0  0
   12.0367  -14.5420   18.7710 N   0  0  0  0  0  0  0  0  0  0  0  0
   13.1572  -15.2502   19.3617 C   0  0  1  0  0  0  0  0  0  0  0  0
   14.4811  -14.6633   18.9581 C   0  0  0  0  0  0  0  0  0  0  0  0
   14.9069  -15.0080   17.5995 C   0  0  0  0  0  0  0  0  0  0  0  0
   15.2454  -14.2019   16.7009 O   0  0  0  0  0  0  0  0  0  0  0  0
   13.0757  -15.1683   20.8588 C   0  0  0  0  0  0  0  0  0  0  0  0
   12.3655  -14.2680   21.3986 O   0  0  0  0  0  0  0  0  0  0  0  0
   14.9427  -16.3584   17.2635 O   0  0  0  0  0  0  0  0  0  0  0  0
   13.7786  -16.0801   21.6904 N   0  0  0  0  0  0  0  0  0  0  0  0
   13.3152  -16.4000   23.0105 C   0  0  1  0  0  0  0  0  0  0  0  0
   11.8986  -16.9349   23.0081 C   0  0  0  0  0  0  0  0  0  0  0  0
   11.4560  -17.3391   24.3521 C   0  0  0  0  0  0  0  0  0  0  0  0
   10.5326  -18.1893   24.4326 O   0  0  0  0  0  0  0  0  0  0  0  0
   14.2389  -17.2976   23.7357 C   0  0  0  0  0  0  0  0  0  0  0  0
   14.9841  -16.9096   24.8335 O   0  0  0  0  0  0  0  0  0  0  0  0
   11.9808  -16.8528   25.5396 O   0  0  0  0  0  0  0  0  0  0  0  0
   14.3545  -18.4808   23.3327 O   0  0  0  0  0  0  0  0  0  0  0  0
  2  1  1  0
  3  2  1  0
  3  4  1  6
  5  3  1  0
  5  6  1  1
  7  5  1  0
  7  8  2  0
  9  7  1  0
 10  9  1  0
 10 11  1  6
 12 11  1  0
 13 12  2  0
 14 10  1  0
 14 17  1  0
 15 14  2  0
 16 12  1  0
 18 17  1  0
 18 22  1  0
 19 20  1  0
 18 19  1  6
 20 21  2  0
 22 23  1  0
 24 20  1  0
 25 22  2  0
M  END
$$$$
