IDD.pdb
     RDKit          3D

 25 24  0  0  1  0  0  0  0  0999 V2000
    6.4352  -11.9012   26.9819 C   0  0  0  0  0  0  0  0  0  0  0  0
    6.0807  -12.9105   25.9143 C   0  0  0  0  0  0  0  0  0  0  0  0
    7.1512  -13.9632   25.8169 C   0  0  2  0  0  0  0  0  0  0  0  0
    8.4622  -13.2394   25.6129 C   0  0  0  0  0  0  0  0  0  0  0  0
    6.8878  -14.9976   24.7659 C   0  0  2  0  0  0  0  0  0  0  0  0
    5.6393  -15.6830   25.0460 N   0  0  0  0  0  0  0  0  0  0  0  0
    7.9514  -15.9731   24.5844 C   0  0  0  0  0  0  0  0  0  0  0  0
    8.0593  -17.0590   25.2087 O   0  0  0  0  0  0  0  0  0  0  0  0
    8.9750  -15.7146   23.6302 N   0  0  0  0  0  0  0  0  0  0  0  0
   10.0459  -16.6588   23.3705 C   0  0  1  0  0  0  0  0  0  0  0  0
   11.0353  -16.1385   22.3654 C   0  0  0  0  0  0  0  0  0  0  0  0
   12.1186  -17.0709   22.0439 C   0  0  0  0  0  0  0  0  0  0  0  0
   13.3388  -16.8992   22.2753 O   0  0  0  0  0  0  0  0  0  0  0  0
   10.8039  -16.9263   24.6388 C   0  0  0  0  0  0  0  0  0  0  0  0
   11.3777  -15.9687   25.2388 O   0  0  0  0  0  0  0  0  0  0  0  0
   11.7701  -18.2661   21.4210 O   0  0  0  0  0  0  0  0  0  0  0  0
   10.8946  -18.2336   25.1865 N   0  0  0  0  0  0  0  0  0  0  0  0
   11.6312  -18.4916   26.3908 C   0  0  1  0  0  0  0  0  0  0  0  0
   10.8168  -19.2626   27.4083 C   0  0  0  0  0  0  0  0  0  0  0  0
   11.5867  -19.5563   28.6276 C   0  0  0  0  0  0  0  0  0  0  0  0
   11.8492  -18.5979   29.3985 O   0  0  0  0  0  0  0  0  0  0  0  0
   12.9367  -19.1350   26.1324 C   0  0  0  0  0  0  0  0  0  0  0  0
   13.3625  -19.5334   24.8791 O   0  0  0  0  0  0  0  0  0  0  0  0
   12.0459  -20.8126   28.9922 O   0  0  0  0  0  0  0  0  0  0  0  0
   13.7040  -19.3316   27.1061 O   0  0  0  0  0  0  0  0  0  0  0  0
  2  1  1  0
  3  2  1  0
  3  4  1  6
  5  3  1  0
  5  6  1  1
  7  5  1  0
  7  8  2  0
  9  7  1  0
 10  9  1  0
 10 11  1  6
 12 11  1  0
 13 12  2  0
 14 10  1  0
 14 17  1  0
 15 14  2  0
 16 12  1  0
 18 17  1  0
 18 22  1  0
 19 20  1  0
 18 19  1  1
 20 21  2  0
 22 23  1  0
 24 20  1  0
 25 22  2  0
M  END
$$$$
