IDD.pdb
     RDKit          3D

 25 24  0  0  1  0  0  0  0  0999 V2000
    7.7346  -11.9240   27.5106 C   0  0  0  0  0  0  0  0  0  0  0  0
    6.7221  -12.9223   26.9981 C   0  0  0  0  0  0  0  0  0  0  0  0
    7.3669  -13.8587   26.0127 C   0  0  2  0  0  0  0  0  0  0  0  0
    7.9851  -13.0020   24.9319 C   0  0  0  0  0  0  0  0  0  0  0  0
    6.4361  -14.8991   25.4695 C   0  0  2  0  0  0  0  0  0  0  0  0
    5.8270  -15.6383   26.5602 N   0  0  0  0  0  0  0  0  0  0  0  0
    7.0372  -15.8277   24.5249 C   0  0  0  0  0  0  0  0  0  0  0  0
    7.4475  -16.9838   24.7995 O   0  0  0  0  0  0  0  0  0  0  0  0
    7.1919  -15.4329   23.1665 N   0  0  0  0  0  0  0  0  0  0  0  0
    7.5455  -16.3770   22.1227 C   0  0  1  0  0  0  0  0  0  0  0  0
    7.2405  -15.8500   20.7482 C   0  0  0  0  0  0  0  0  0  0  0  0
    7.5790  -16.7691   19.6588 C   0  0  0  0  0  0  0  0  0  0  0  0
    7.6483  -18.0186   19.7365 O   0  0  0  0  0  0  0  0  0  0  0  0
    9.0200  -16.6570   22.1713 C   0  0  0  0  0  0  0  0  0  0  0  0
    9.6488  -16.8885   21.0955 O   0  0  0  0  0  0  0  0  0  0  0  0
    7.8517  -16.2115   18.4128 O   0  0  0  0  0  0  0  0  0  0  0  0
    9.7321  -16.6688   23.4000 N   0  0  0  0  0  0  0  0  0  0  0  0
   11.1647  -16.7466   23.4346 C   0  0  1  0  0  0  0  0  0  0  0  0
   11.8188  -15.6709   22.5932 C   0  0  0  0  0  0  0  0  0  0  0  0
   13.2875  -15.7587   22.6244 C   0  0  0  0  0  0  0  0  0  0  0  0
   13.8382  -15.9531   23.7383 O   0  0  0  0  0  0  0  0  0  0  0  0
   11.7002  -16.7664   24.8121 C   0  0  0  0  0  0  0  0  0  0  0  0
   12.8950  -17.3663   25.1638 O   0  0  0  0  0  0  0  0  0  0  0  0
   14.1126  -15.6430   21.5162 O   0  0  0  0  0  0  0  0  0  0  0  0
   11.0329  -16.2067   25.7160 O   0  0  0  0  0  0  0  0  0  0  0  0
  2  1  1  0
  3  2  1  0
  3  4  1  6
  5  3  1  0
  5  6  1  1
  7  5  1  0
  7  8  2  0
  9  7  1  0
 10  9  1  0
 10 11  1  6
 12 11  1  0
 13 12  2  0
 14 10  1  0
 14 17  1  0
 15 14  2  0
 16 12  1  0
 18 17  1  0
 18 22  1  0
 19 20  1  0
 18 19  1  6
 20 21  2  0
 22 23  1  0
 24 20  1  0
 25 22  2  0
M  END
$$$$
