IDD.pdb
     RDKit          3D

 25 24  0  0  1  0  0  0  0  0999 V2000
    6.8026  -11.4919   27.0291 C   0  0  0  0  0  0  0  0  0  0  0  0
    6.1143  -12.5883   26.2492 C   0  0  0  0  0  0  0  0  0  0  0  0
    7.1217  -13.5982   25.7708 C   0  0  2  0  0  0  0  0  0  0  0  0
    8.1557  -12.8418   24.9689 C   0  0  0  0  0  0  0  0  0  0  0  0
    6.5188  -14.7409   25.0126 C   0  0  2  0  0  0  0  0  0  0  0  0
    5.5307  -15.4156   25.8344 N   0  0  0  0  0  0  0  0  0  0  0  0
    7.4747  -15.7109   24.5014 C   0  0  0  0  0  0  0  0  0  0  0  0
    7.8040  -16.7810   25.0730 O   0  0  0  0  0  0  0  0  0  0  0  0
    8.1126  -15.4654   23.2533 N   0  0  0  0  0  0  0  0  0  0  0  0
    9.0942  -16.3765   22.6946 C   0  0  1  0  0  0  0  0  0  0  0  0
    9.4764  -16.0119   21.2871 C   0  0  0  0  0  0  0  0  0  0  0  0
   10.3871  -16.9610   20.6422 C   0  0  0  0  0  0  0  0  0  0  0  0
   10.0850  -18.0927   20.1951 O   0  0  0  0  0  0  0  0  0  0  0  0
   10.3494  -16.3356   23.5177 C   0  0  0  0  0  0  0  0  0  0  0  0
   10.9846  -15.2454   23.6367 O   0  0  0  0  0  0  0  0  0  0  0  0
   11.7190  -16.5790   20.5077 O   0  0  0  0  0  0  0  0  0  0  0  0
   10.8458  -17.4951   24.1706 N   0  0  0  0  0  0  0  0  0  0  0  0
   12.0835  -17.4738   24.8967 C   0  0  1  0  0  0  0  0  0  0  0  0
   12.1838  -18.6085   25.8943 C   0  0  0  0  0  0  0  0  0  0  0  0
   11.1997  -18.4804   26.9810 C   0  0  0  0  0  0  0  0  0  0  0  0
   11.1130  -17.3690   27.5633 O   0  0  0  0  0  0  0  0  0  0  0  0
   13.2634  -17.4191   24.0082 C   0  0  0  0  0  0  0  0  0  0  0  0
   13.1961  -17.5403   22.6328 O   0  0  0  0  0  0  0  0  0  0  0  0
   10.3588  -19.4944   27.4131 O   0  0  0  0  0  0  0  0  0  0  0  0
   14.3924  -17.2531   24.5311 O   0  0  0  0  0  0  0  0  0  0  0  0
  2  1  1  0
  3  2  1  0
  3  4  1  6
  5  3  1  0
  5  6  1  1
  7  5  1  0
  7  8  2  0
  9  7  1  0
 10  9  1  0
 10 11  1  6
 12 11  1  0
 13 12  2  0
 14 10  1  0
 14 17  1  0
 15 14  2  0
 16 12  1  0
 18 17  1  0
 18 22  1  0
 19 20  1  0
 18 19  1  6
 20 21  2  0
 22 23  1  0
 24 20  1  0
 25 22  2  0
M  END
$$$$
