IDD.pdb
     RDKit          3D

 25 24  0  0  1  0  0  0  0  0999 V2000
    6.4906  -13.2181   20.2873 C   0  0  0  0  0  0  0  0  0  0  0  0
    7.7019  -13.9795   19.8003 C   0  0  0  0  0  0  0  0  0  0  0  0
    8.9542  -13.1873   20.0607 C   0  0  2  0  0  0  0  0  0  0  0  0
    8.7784  -11.8502   19.3783 C   0  0  0  0  0  0  0  0  0  0  0  0
   10.2110  -13.8905   19.6482 C   0  0  2  0  0  0  0  0  0  0  0  0
   10.2121  -14.1034   18.2123 N   0  0  0  0  0  0  0  0  0  0  0  0
   10.4612  -15.1508   20.3299 C   0  0  0  0  0  0  0  0  0  0  0  0
   10.4493  -15.3211   21.5754 O   0  0  0  0  0  0  0  0  0  0  0  0
   10.7474  -16.3121   19.5588 N   0  0  0  0  0  0  0  0  0  0  0  0
   11.1721  -17.5589   20.1678 C   0  0  1  0  0  0  0  0  0  0  0  0
   11.4679  -18.6220   19.1469 C   0  0  0  0  0  0  0  0  0  0  0  0
   12.3203  -18.1787   18.0411 C   0  0  0  0  0  0  0  0  0  0  0  0
   11.9390  -17.6027   16.9948 O   0  0  0  0  0  0  0  0  0  0  0  0
   12.4334  -17.3360   20.9514 C   0  0  0  0  0  0  0  0  0  0  0  0
   12.9729  -16.1892   20.9561 O   0  0  0  0  0  0  0  0  0  0  0  0
   13.6876  -18.4152   18.1528 O   0  0  0  0  0  0  0  0  0  0  0  0
   13.0409  -18.3844   21.6923 N   0  0  0  0  0  0  0  0  0  0  0  0
   13.1735  -18.3136   23.1196 C   0  0  1  0  0  0  0  0  0  0  0  0
   11.8455  -18.0807   23.8089 C   0  0  0  0  0  0  0  0  0  0  0  0
   11.9945  -17.9371   25.2660 C   0  0  0  0  0  0  0  0  0  0  0  0
   13.1584  -17.9747   25.7413 O   0  0  0  0  0  0  0  0  0  0  0  0
   13.8867  -19.4791   23.6831 C   0  0  0  0  0  0  0  0  0  0  0  0
   15.2523  -19.5156   23.8952 O   0  0  0  0  0  0  0  0  0  0  0  0
   10.9467  -17.7632   26.1570 O   0  0  0  0  0  0  0  0  0  0  0  0
   13.2153  -20.4951   23.9872 O   0  0  0  0  0  0  0  0  0  0  0  0
  2  1  1  0
  3  2  1  0
  3  4  1  6
  5  3  1  0
  5  6  1  6
  7  5  1  0
  7  8  2  0
  9  7  1  0
 10  9  1  0
 10 11  1  6
 12 11  1  0
 13 12  2  0
 14 10  1  0
 14 17  1  0
 15 14  2  0
 16 12  1  0
 18 17  1  0
 18 22  1  0
 19 20  1  0
 18 19  1  1
 20 21  2  0
 22 23  1  0
 24 20  1  0
 25 22  2  0
M  END
$$$$
