IDD.pdb
     RDKit          3D

 25 24  0  0  1  0  0  0  0  0999 V2000
    8.9063  -12.1152   19.3896 C   0  0  0  0  0  0  0  0  0  0  0  0
    8.7747  -13.1522   20.4813 C   0  0  0  0  0  0  0  0  0  0  0  0
    7.8969  -14.2842   20.0212 C   0  0  2  0  0  0  0  0  0  0  0  0
    6.5326  -13.6970   19.7416 C   0  0  0  0  0  0  0  0  0  0  0  0
    7.8495  -15.4384   20.9749 C   0  0  2  0  0  0  0  0  0  0  0  0
    7.2003  -15.0359   22.2092 N   0  0  0  0  0  0  0  0  0  0  0  0
    9.1393  -16.0406   21.2744 C   0  0  0  0  0  0  0  0  0  0  0  0
    9.7984  -16.7767   20.4971 O   0  0  0  0  0  0  0  0  0  0  0  0
    9.7394  -15.8014   22.5423 N   0  0  0  0  0  0  0  0  0  0  0  0
   10.9458  -16.4865   22.9680 C   0  0  1  0  0  0  0  0  0  0  0  0
   12.1709  -15.6264   22.8286 C   0  0  0  0  0  0  0  0  0  0  0  0
   13.4025  -16.3683   22.5482 C   0  0  0  0  0  0  0  0  0  0  0  0
   13.4849  -17.5813   22.2419 O   0  0  0  0  0  0  0  0  0  0  0  0
   10.8312  -16.8604   24.4178 C   0  0  0  0  0  0  0  0  0  0  0  0
   10.9427  -15.9633   25.3061 O   0  0  0  0  0  0  0  0  0  0  0  0
   14.6031  -15.6681   22.6268 O   0  0  0  0  0  0  0  0  0  0  0  0
   10.5995  -18.2022   24.8211 N   0  0  0  0  0  0  0  0  0  0  0  0
   10.3835  -18.5437   26.1982 C   0  0  1  0  0  0  0  0  0  0  0  0
    9.1914  -19.4590   26.3830 C   0  0  0  0  0  0  0  0  0  0  0  0
    7.9166  -18.7660   26.1375 C   0  0  0  0  0  0  0  0  0  0  0  0
    7.9587  -17.5324   25.8959 O   0  0  0  0  0  0  0  0  0  0  0  0
   11.5962  -19.0852   26.8470 C   0  0  0  0  0  0  0  0  0  0  0  0
   11.7949  -19.0993   28.2149 O   0  0  0  0  0  0  0  0  0  0  0  0
    6.6693  -19.3711   26.1523 O   0  0  0  0  0  0  0  0  0  0  0  0
   12.4986  -19.5601   26.1150 O   0  0  0  0  0  0  0  0  0  0  0  0
  2  1  1  0
  3  2  1  0
  3  4  1  1
  5  3  1  0
  5  6  1  1
  7  5  1  0
  7  8  2  0
  9  7  1  0
 10  9  1  0
 10 11  1  1
 12 11  1  0
 13 12  2  0
 14 10  1  0
 14 17  1  0
 15 14  2  0
 16 12  1  0
 18 17  1  0
 18 22  1  0
 19 20  1  0
 18 19  1  6
 20 21  2  0
 22 23  1  0
 24 20  1  0
 25 22  2  0
M  END
$$$$
