IDD.pdb
     RDKit          3D

 25 24  0  0  1  0  0  0  0  0999 V2000
    7.4759  -12.3989   19.7116 C   0  0  0  0  0  0  0  0  0  0  0  0
    6.8480  -13.2985   20.7513 C   0  0  0  0  0  0  0  0  0  0  0  0
    7.7663  -14.4471   21.0692 C   0  0  2  0  0  0  0  0  0  0  0  0
    9.0007  -13.8580   21.7123 C   0  0  0  0  0  0  0  0  0  0  0  0
    8.0821  -15.3130   19.8883 C   0  0  2  0  0  0  0  0  0  0  0  0
    6.8579  -15.8605   19.3328 N   0  0  0  0  0  0  0  0  0  0  0  0
    9.0244  -16.3896   20.1511 C   0  0  0  0  0  0  0  0  0  0  0  0
    8.7593  -17.4592   20.7562 O   0  0  0  0  0  0  0  0  0  0  0  0
   10.3685  -16.2605   19.7022 N   0  0  0  0  0  0  0  0  0  0  0  0
   11.3796  -17.2604   19.9919 C   0  0  1  0  0  0  0  0  0  0  0  0
   12.6141  -17.0849   19.1522 C   0  0  0  0  0  0  0  0  0  0  0  0
   13.6479  -18.0983   19.3767 C   0  0  0  0  0  0  0  0  0  0  0  0
   14.7179  -17.9392   20.0104 O   0  0  0  0  0  0  0  0  0  0  0  0
   11.8032  -17.1510   21.4284 C   0  0  0  0  0  0  0  0  0  0  0  0
   12.1719  -16.0291   21.8884 O   0  0  0  0  0  0  0  0  0  0  0  0
   13.4308  -19.3637   18.8386 O   0  0  0  0  0  0  0  0  0  0  0  0
   11.8010  -18.2800   22.2899 N   0  0  0  0  0  0  0  0  0  0  0  0
   12.2119  -18.1767   23.6611 C   0  0  1  0  0  0  0  0  0  0  0  0
   11.0990  -18.5364   24.6229 C   0  0  0  0  0  0  0  0  0  0  0  0
   10.9984  -17.5806   25.7373 C   0  0  0  0  0  0  0  0  0  0  0  0
   11.8849  -16.6929   25.8282 O   0  0  0  0  0  0  0  0  0  0  0  0
   13.4476  -18.9370   23.9434 C   0  0  0  0  0  0  0  0  0  0  0  0
   14.5326  -18.4154   24.6229 O   0  0  0  0  0  0  0  0  0  0  0  0
    9.9982  -17.5840   26.6973 O   0  0  0  0  0  0  0  0  0  0  0  0
   13.5174  -20.1249   23.5439 O   0  0  0  0  0  0  0  0  0  0  0  0
  2  1  1  0
  3  2  1  0
  3  4  1  6
  5  3  1  0
  5  6  1  1
  7  5  1  0
  7  8  2  0
  9  7  1  0
 10  9  1  0
 10 11  1  6
 12 11  1  0
 13 12  2  0
 14 10  1  0
 14 17  1  0
 15 14  2  0
 16 12  1  0
 18 17  1  0
 18 22  1  0
 19 20  1  0
 18 19  1  1
 20 21  2  0
 22 23  1  0
 24 20  1  0
 25 22  2  0
M  END
$$$$
