NHL.pdb
     RDKit          3D

 27 27  0  0  1  0  0  0  0  0999 V2000
   23.6959  -27.3649  -15.2214 N   0  0  0  0  0  0  0  0  0  0  0  0
   23.9928  -26.2381  -16.0138 C   0  0  0  0  0  0  0  0  0  0  0  0
   24.3025  -26.3694  -17.2301 O   0  0  0  0  0  0  0  0  0  0  0  0
   23.9455  -24.8877  -15.4316 C   0  0  0  0  0  0  0  0  0  0  0  0
   23.6749  -23.8831  -16.5002 C   0  0  2  0  0  0  0  0  0  0  0  0
   24.8656  -23.6668  -17.2982 N   0  0  0  0  0  0  0  0  0  0  0  0
   23.3268  -22.5823  -15.8435 C   0  0  0  0  0  0  0  0  0  0  0  0
   22.2942  -22.4659  -15.1216 O   0  0  0  0  0  0  0  0  0  0  0  0
   24.1415  -21.4280  -16.0048 N   0  0  0  0  0  0  0  0  0  0  0  0
   23.8169  -20.2072  -15.2845 C   0  0  1  0  0  0  0  0  0  0  0  0
   25.0120  -19.6702  -14.5479 C   0  0  0  0  0  0  0  0  0  0  0  0
   25.4917  -20.5106  -13.4525 C   0  0  0  0  0  0  0  0  0  0  0  0
   24.9912  -21.6960  -12.9587 C   0  0  0  0  0  0  0  0  0  0  0  0
   25.7286  -22.1401  -11.9204 N   0  0  0  0  0  0  0  0  0  0  0  0
   26.6920  -21.2361  -11.7598 C   0  0  0  0  0  0  0  0  0  0  0  0
   26.5747  -20.2492  -12.6635 N   0  0  0  0  0  0  0  0  0  0  0  0
   23.3811  -19.2115  -16.2801 C   0  0  0  0  0  0  0  0  0  0  0  0
   23.7766  -19.3236  -17.4620 O   0  0  0  0  0  0  0  0  0  0  0  0
   19.0925  -18.7499  -19.2871 C   0  0  0  0  0  0  0  0  0  0  0  0
   20.2655  -17.8382  -18.9020 C   0  0  2  0  0  0  0  0  0  0  0  0
   21.0826  -17.5673  -20.1211 C   0  0  0  0  0  0  0  0  0  0  0  0
   21.0117  -18.4271  -17.7605 C   0  0  0  0  0  0  0  0  0  0  0  0
   21.8523  -17.4286  -17.0376 C   0  0  2  0  0  0  0  0  0  0  0  0
   22.5306  -18.1318  -15.9478 N   0  0  0  0  0  0  0  0  0  0  0  0
   21.0294  -16.3687  -16.4355 C   0  0  0  0  0  0  0  0  0  0  0  0
   20.5212  -16.4964  -15.3132 O   0  0  0  0  0  0  0  0  0  0  0  0
   20.8106  -15.1945  -17.1314 O   0  0  0  0  0  0  0  0  0  0  0  0
  1  2  1  0
  2  3  2  0
  4  2  1  0
  5  4  1  0
  5  6  1  6
  7  5  1  0
  7  8  2  0
  9  7  1  0
 10  9  1  0
 10 11  1  6
 11 12  1  0
 12 16  1  0
 13 12  2  0
 13 14  1  0
 14 15  1  0
 16 15  2  0
 17 10  1  0
 18 17  2  0
 20 19  1  6
 21 20  1  0
 22 20  1  0
 23 22  1  1
 23 24  1  0
 24 17  1  0
 25 23  1  0
 26 25  2  0
 27 25  1  0
M  END
$$$$
