NHL.pdb
     RDKit          3D

 27 27  0  0  1  0  0  0  0  0999 V2000
   13.1551  -10.3349  -15.4899 N   0  0  0  0  0  0  0  0  0  0  0  0
   13.8305  -11.2888  -14.7027 C   0  0  0  0  0  0  0  0  0  0  0  0
   13.1936  -12.0416  -13.9153 O   0  0  0  0  0  0  0  0  0  0  0  0
   15.2934  -11.4205  -14.7884 C   0  0  0  0  0  0  0  0  0  0  0  0
   15.7021  -11.6314  -16.2072 C   0  0  2  0  0  0  0  0  0  0  0  0
   15.5004  -13.0158  -16.5867 N   0  0  0  0  0  0  0  0  0  0  0  0
   17.1670  -11.3388  -16.3216 C   0  0  0  0  0  0  0  0  0  0  0  0
   18.0341  -12.1295  -15.8488 O   0  0  0  0  0  0  0  0  0  0  0  0
   17.6408  -10.1625  -16.9652 N   0  0  0  0  0  0  0  0  0  0  0  0
   19.0711   -9.9417  -17.1065 C   0  0  1  0  0  0  0  0  0  0  0  0
   19.3893   -9.1991  -18.3739 C   0  0  0  0  0  0  0  0  0  0  0  0
   19.3011   -9.9960  -19.5960 C   0  0  0  0  0  0  0  0  0  0  0  0
   20.2346  -10.8195  -20.1877 C   0  0  0  0  0  0  0  0  0  0  0  0
   19.7539  -11.3603  -21.3258 N   0  0  0  0  0  0  0  0  0  0  0  0
   18.5198  -10.8784  -21.4515 C   0  0  0  0  0  0  0  0  0  0  0  0
   18.2221  -10.0586  -20.4298 N   0  0  0  0  0  0  0  0  0  0  0  0
   19.5073   -9.1318  -15.9548 C   0  0  0  0  0  0  0  0  0  0  0  0
   18.6952   -8.3365  -15.4315 O   0  0  0  0  0  0  0  0  0  0  0  0
   23.5382   -9.4962  -11.4397 C   0  0  0  0  0  0  0  0  0  0  0  0
   22.4077   -8.6851  -12.0870 C   0  0  2  0  0  0  0  0  0  0  0  0
   21.3490   -8.4373  -11.0645 C   0  0  0  0  0  0  0  0  0  0  0  0
   21.9428   -9.3617  -13.3250 C   0  0  0  0  0  0  0  0  0  0  0  0
   21.1043   -8.4811  -14.1897 C   0  0  2  0  0  0  0  0  0  0  0  0
   20.8126   -9.2209  -15.4185 N   0  0  0  0  0  0  0  0  0  0  0  0
   21.8261   -7.2577  -14.5709 C   0  0  0  0  0  0  0  0  0  0  0  0
   22.5220   -7.2033  -15.5940 O   0  0  0  0  0  0  0  0  0  0  0  0
   21.7326   -6.1322  -13.7736 O   0  0  0  0  0  0  0  0  0  0  0  0
  1  2  1  0
  2  3  2  0
  4  2  1  0
  5  4  1  0
  5  6  1  1
  7  5  1  0
  7  8  2  0
  9  7  1  0
 10  9  1  0
 10 11  1  6
 11 12  1  0
 12 16  1  0
 13 12  2  0
 13 14  1  0
 14 15  1  0
 16 15  2  0
 17 10  1  0
 18 17  2  0
 20 19  1  1
 21 20  1  0
 22 20  1  0
 23 22  1  1
 23 24  1  0
 24 17  1  0
 25 23  1  0
 26 25  2  0
 27 25  1  0
M  END
$$$$
