NHL.pdb
     RDKit          3D

 27 27  0  0  1  0  0  0  0  0999 V2000
   17.6167  -15.7927  -17.5222 N   0  0  0  0  0  0  0  0  0  0  0  0
   17.9383  -15.3348  -18.8155 C   0  0  0  0  0  0  0  0  0  0  0  0
   18.3531  -16.1358  -19.6979 O   0  0  0  0  0  0  0  0  0  0  0  0
   17.7942  -13.9106  -19.1560 C   0  0  0  0  0  0  0  0  0  0  0  0
   17.2485  -13.1617  -17.9873 C   0  0  2  0  0  0  0  0  0  0  0  0
   15.8048  -13.0696  -18.0805 N   0  0  0  0  0  0  0  0  0  0  0  0
   17.7952  -11.7674  -18.0272 C   0  0  0  0  0  0  0  0  0  0  0  0
   18.8588  -11.4962  -18.6565 O   0  0  0  0  0  0  0  0  0  0  0  0
   17.1419  -10.6947  -17.3604 N   0  0  0  0  0  0  0  0  0  0  0  0
   17.6806   -9.3475  -17.4577 C   0  0  1  0  0  0  0  0  0  0  0  0
   16.5869   -8.3166  -17.4412 C   0  0  0  0  0  0  0  0  0  0  0  0
   15.8439   -8.1835  -18.6928 C   0  0  0  0  0  0  0  0  0  0  0  0
   16.0253   -7.3108  -19.7440 C   0  0  0  0  0  0  0  0  0  0  0  0
   15.1034   -7.5121  -20.7076 N   0  0  0  0  0  0  0  0  0  0  0  0
   14.3421   -8.5097  -20.2645 C   0  0  0  0  0  0  0  0  0  0  0  0
   14.7625   -8.9312  -19.0604 N   0  0  0  0  0  0  0  0  0  0  0  0
   18.5542   -9.1374  -16.2893 C   0  0  0  0  0  0  0  0  0  0  0  0
   18.1104   -9.3929  -15.1476 O   0  0  0  0  0  0  0  0  0  0  0  0
   24.0213  -10.3233  -14.5389 C   0  0  0  0  0  0  0  0  0  0  0  0
   22.7481   -9.5400  -14.1919 C   0  0  2  0  0  0  0  0  0  0  0  0
   22.1832  -10.0817  -12.9210 C   0  0  0  0  0  0  0  0  0  0  0  0
   21.8171   -9.5471  -15.3494 C   0  0  0  0  0  0  0  0  0  0  0  0
   20.6958   -8.5741  -15.2004 C   0  0  2  0  0  0  0  0  0  0  0  0
   19.8783   -8.6567  -16.4116 N   0  0  0  0  0  0  0  0  0  0  0  0
   21.1925   -7.1938  -15.0953 C   0  0  0  0  0  0  0  0  0  0  0  0
   21.1947   -6.4261  -16.0672 O   0  0  0  0  0  0  0  0  0  0  0  0
   21.6720   -6.7299  -13.8845 O   0  0  0  0  0  0  0  0  0  0  0  0
  1  2  1  0
  2  3  2  0
  4  2  1  0
  5  4  1  0
  5  6  1  6
  7  5  1  0
  7  8  2  0
  9  7  1  0
 10  9  1  0
 10 11  1  1
 11 12  1  0
 12 16  1  0
 13 12  2  0
 13 14  1  0
 14 15  1  0
 16 15  2  0
 17 10  1  0
 18 17  2  0
 20 19  1  6
 21 20  1  0
 22 20  1  0
 23 22  1  6
 23 24  1  0
 24 17  1  0
 25 23  1  0
 26 25  2  0
 27 25  1  0
M  END
$$$$
