NHL.pdb
     RDKit          3D

 27 27  0  0  1  0  0  0  0  0999 V2000
   30.9437  -25.4935  -15.8829 N   0  0  0  0  0  0  0  0  0  0  0  0
   29.8808  -24.7710  -16.4607 C   0  0  0  0  0  0  0  0  0  0  0  0
   29.1169  -25.3141  -17.3056 O   0  0  0  0  0  0  0  0  0  0  0  0
   29.6462  -23.3678  -16.0853 C   0  0  0  0  0  0  0  0  0  0  0  0
   28.7539  -22.7163  -17.0872 C   0  0  2  0  0  0  0  0  0  0  0  0
   29.5434  -22.0855  -18.1265 N   0  0  0  0  0  0  0  0  0  0  0  0
   27.9760  -21.6406  -16.3929 C   0  0  0  0  0  0  0  0  0  0  0  0
   28.5547  -20.6450  -15.8686 O   0  0  0  0  0  0  0  0  0  0  0  0
   26.5584  -21.6951  -16.2953 N   0  0  0  0  0  0  0  0  0  0  0  0
   25.8357  -20.6108  -15.6498 C   0  0  1  0  0  0  0  0  0  0  0  0
   24.6241  -20.2096  -16.4438 C   0  0  0  0  0  0  0  0  0  0  0  0
   24.8700  -19.2161  -17.4871 C   0  0  0  0  0  0  0  0  0  0  0  0
   26.0182  -18.5188  -17.7957 C   0  0  0  0  0  0  0  0  0  0  0  0
   25.8132  -17.6780  -18.8300 N   0  0  0  0  0  0  0  0  0  0  0  0
   24.5381  -17.8446  -19.1727 C   0  0  0  0  0  0  0  0  0  0  0  0
   23.9489  -18.7596  -18.3853 N   0  0  0  0  0  0  0  0  0  0  0  0
   25.4022  -21.0966  -14.3275 C   0  0  0  0  0  0  0  0  0  0  0  0
   25.0754  -22.2979  -14.2010 O   0  0  0  0  0  0  0  0  0  0  0  0
   24.1176  -20.8752   -9.3000 C   0  0  0  0  0  0  0  0  0  0  0  0
   25.6241  -20.6564   -9.4937 C   0  0  2  0  0  0  0  0  0  0  0  0
   26.1213  -19.7574   -8.4110 C   0  0  0  0  0  0  0  0  0  0  0  0
   25.8945  -20.1870  -10.8769 C   0  0  0  0  0  0  0  0  0  0  0  0
   25.0409  -20.8619  -11.8977 C   0  0  2  0  0  0  0  0  0  0  0  0
   25.3418  -20.2531  -13.1943 N   0  0  0  0  0  0  0  0  0  0  0  0
   23.6108  -20.6469  -11.6295 C   0  0  0  0  0  0  0  0  0  0  0  0
   22.9134  -21.5110  -11.0811 O   0  0  0  0  0  0  0  0  0  0  0  0
   23.0187  -19.4522  -11.9948 O   0  0  0  0  0  0  0  0  0  0  0  0
  1  2  1  0
  2  3  2  0
  4  2  1  0
  5  4  1  0
  5  6  1  6
  7  5  1  0
  7  8  2  0
  9  7  1  0
 10  9  1  0
 10 11  1  6
 11 12  1  0
 12 16  1  0
 13 12  2  0
 13 14  1  0
 14 15  1  0
 16 15  2  0
 17 10  1  0
 18 17  2  0
 20 19  1  6
 21 20  1  0
 22 20  1  0
 23 22  1  1
 23 24  1  0
 24 17  1  0
 25 23  1  0
 26 25  2  0
 27 25  1  0
M  END
$$$$
