NHL.pdb
     RDKit          3D

 27 27  0  0  1  0  0  0  0  0999 V2000
   29.9513  -24.7311  -17.7693 N   0  0  0  0  0  0  0  0  0  0  0  0
   30.2477  -24.0567  -16.5680 C   0  0  0  0  0  0  0  0  0  0  0  0
   31.1444  -24.4876  -15.7916 O   0  0  0  0  0  0  0  0  0  0  0  0
   29.5129  -22.8360  -16.2011 C   0  0  0  0  0  0  0  0  0  0  0  0
   28.5078  -22.5123  -17.2544 C   0  0  2  0  0  0  0  0  0  0  0  0
   29.1588  -21.9079  -18.3999 N   0  0  0  0  0  0  0  0  0  0  0  0
   27.5494  -21.5060  -16.6945 C   0  0  0  0  0  0  0  0  0  0  0  0
   27.9442  -20.3703  -16.3009 O   0  0  0  0  0  0  0  0  0  0  0  0
   26.1597  -21.7865  -16.5833 N   0  0  0  0  0  0  0  0  0  0  0  0
   25.2460  -20.7478  -16.1352 C   0  0  1  0  0  0  0  0  0  0  0  0
   24.2092  -20.4412  -17.1793 C   0  0  0  0  0  0  0  0  0  0  0  0
   23.2190  -19.4386  -16.7913 C   0  0  0  0  0  0  0  0  0  0  0  0
   23.1269  -18.6796  -15.6446 C   0  0  0  0  0  0  0  0  0  0  0  0
   22.0416  -17.8796  -15.6768 N   0  0  0  0  0  0  0  0  0  0  0  0
   21.4504  -18.1341  -16.8417 C   0  0  0  0  0  0  0  0  0  0  0  0
   22.1337  -19.0637  -17.5297 N   0  0  0  0  0  0  0  0  0  0  0  0
   24.5718  -21.2475  -14.9234 C   0  0  0  0  0  0  0  0  0  0  0  0
   24.1069  -22.4093  -14.9245 O   0  0  0  0  0  0  0  0  0  0  0  0
   25.8474  -22.3315  -10.9124 C   0  0  0  0  0  0  0  0  0  0  0  0
   25.7657  -20.8102  -11.0968 C   0  0  2  0  0  0  0  0  0  0  0  0
   26.3912  -20.1495   -9.9137 C   0  0  0  0  0  0  0  0  0  0  0  0
   24.3631  -20.4079  -11.3756 C   0  0  0  0  0  0  0  0  0  0  0  0
   23.7976  -21.0702  -12.5871 C   0  0  2  0  0  0  0  0  0  0  0  0
   24.4308  -20.4604  -13.7573 N   0  0  0  0  0  0  0  0  0  0  0  0
   22.3491  -20.8409  -12.6982 C   0  0  0  0  0  0  0  0  0  0  0  0
   21.8861  -19.9147  -13.3776 O   0  0  0  0  0  0  0  0  0  0  0  0
   21.4716  -21.6750  -12.0309 O   0  0  0  0  0  0  0  0  0  0  0  0
  1  2  1  0
  2  3  2  0
  4  2  1  0
  5  4  1  0
  5  6  1  6
  7  5  1  0
  7  8  2  0
  9  7  1  0
 10  9  1  0
 10 11  1  6
 11 12  1  0
 12 16  1  0
 13 12  2  0
 13 14  1  0
 14 15  1  0
 16 15  2  0
 17 10  1  0
 18 17  2  0
 20 19  1  1
 21 20  1  0
 22 20  1  0
 23 22  1  1
 23 24  1  0
 24 17  1  0
 25 23  1  0
 26 25  2  0
 27 25  1  0
M  END
$$$$
