NHL.pdb
     RDKit          3D

 27 27  0  0  1  0  0  0  0  0999 V2000
   26.7810  -15.1964  -15.5793 N   0  0  0  0  0  0  0  0  0  0  0  0
   25.7282  -15.8902  -16.2086 C   0  0  0  0  0  0  0  0  0  0  0  0
   25.3112  -15.5349  -17.3454 O   0  0  0  0  0  0  0  0  0  0  0  0
   25.0981  -17.0431  -15.5461 C   0  0  0  0  0  0  0  0  0  0  0  0
   25.6664  -17.2156  -14.1780 C   0  0  2  0  0  0  0  0  0  0  0  0
   27.0839  -16.9122  -14.1819 N   0  0  0  0  0  0  0  0  0  0  0  0
   25.5115  -18.6526  -13.7837 C   0  0  0  0  0  0  0  0  0  0  0  0
   24.3710  -19.1961  -13.7150 O   0  0  0  0  0  0  0  0  0  0  0  0
   26.6381  -19.4621  -13.4713 N   0  0  0  0  0  0  0  0  0  0  0  0
   26.4434  -20.8377  -13.0418 C   0  0  1  0  0  0  0  0  0  0  0  0
   27.4050  -21.7679  -13.7269 C   0  0  0  0  0  0  0  0  0  0  0  0
   27.1355  -22.0013  -15.1443 C   0  0  0  0  0  0  0  0  0  0  0  0
   26.1249  -21.5173  -15.9469 C   0  0  0  0  0  0  0  0  0  0  0  0
   26.2315  -21.9947  -17.2038 N   0  0  0  0  0  0  0  0  0  0  0  0
   27.3071  -22.7784  -17.1934 C   0  0  0  0  0  0  0  0  0  0  0  0
   27.8682  -22.8010  -15.9732 N   0  0  0  0  0  0  0  0  0  0  0  0
   26.6860  -20.8836  -11.5887 C   0  0  0  0  0  0  0  0  0  0  0  0
   27.8598  -20.7820  -11.1672 O   0  0  0  0  0  0  0  0  0  0  0  0
   27.1316  -18.2825   -6.9895 C   0  0  0  0  0  0  0  0  0  0  0  0
   26.9735  -19.7493   -7.4120 C   0  0  2  0  0  0  0  0  0  0  0  0
   28.1994  -20.4992   -7.0089 C   0  0  0  0  0  0  0  0  0  0  0  0
   26.6327  -19.8273   -8.8558 C   0  0  0  0  0  0  0  0  0  0  0  0
   25.9900  -21.1199   -9.2330 C   0  0  2  0  0  0  0  0  0  0  0  0
   25.6386  -21.0385  -10.6515 N   0  0  0  0  0  0  0  0  0  0  0  0
   24.7455  -21.3408   -8.4811 C   0  0  0  0  0  0  0  0  0  0  0  0
   23.6328  -21.1662   -8.9964 O   0  0  0  0  0  0  0  0  0  0  0  0
   24.8070  -21.7546   -7.1634 O   0  0  0  0  0  0  0  0  0  0  0  0
  1  2  1  0
  2  3  2  0
  4  2  1  0
  5  4  1  0
  5  6  1  6
  7  5  1  0
  7  8  2  0
  9  7  1  0
 10  9  1  0
 10 11  1  6
 11 12  1  0
 12 16  1  0
 13 12  2  0
 13 14  1  0
 14 15  1  0
 16 15  2  0
 17 10  1  0
 18 17  2  0
 20 19  1  6
 21 20  1  0
 22 20  1  0
 23 22  1  1
 23 24  1  0
 24 17  1  0
 25 23  1  0
 26 25  2  0
 27 25  1  0
M  END
$$$$
