NHL.pdb
     RDKit          3D

 27 27  0  0  1  0  0  0  0  0999 V2000
   28.8137  -23.3818  -18.4385 N   0  0  0  0  0  0  0  0  0  0  0  0
   29.0962  -22.0058  -18.5503 C   0  0  0  0  0  0  0  0  0  0  0  0
   29.7113  -21.5540  -19.5553 O   0  0  0  0  0  0  0  0  0  0  0  0
   28.6761  -21.0732  -17.4925 C   0  0  0  0  0  0  0  0  0  0  0  0
   28.0792  -21.8311  -16.3551 C   0  0  2  0  0  0  0  0  0  0  0  0
   27.2142  -22.8828  -16.8523 N   0  0  0  0  0  0  0  0  0  0  0  0
   27.2328  -20.8878  -15.5561 C   0  0  0  0  0  0  0  0  0  0  0  0
   27.6916  -19.7846  -15.1398 O   0  0  0  0  0  0  0  0  0  0  0  0
   25.8820  -21.1940  -15.2339 N   0  0  0  0  0  0  0  0  0  0  0  0
   25.0630  -20.2115  -14.5423 C   0  0  1  0  0  0  0  0  0  0  0  0
   23.8625  -19.8244  -15.3598 C   0  0  0  0  0  0  0  0  0  0  0  0
   24.1330  -18.8905  -16.4511 C   0  0  0  0  0  0  0  0  0  0  0  0
   25.3038  -18.2562  -16.8067 C   0  0  0  0  0  0  0  0  0  0  0  0
   25.1177  -17.4556  -17.8760 N   0  0  0  0  0  0  0  0  0  0  0  0
   23.8318  -17.5848  -18.1938 C   0  0  0  0  0  0  0  0  0  0  0  0
   23.2178  -18.4378  -17.3573 N   0  0  0  0  0  0  0  0  0  0  0  0
   24.6064  -20.8270  -13.2832 C   0  0  0  0  0  0  0  0  0  0  0  0
   24.3183  -22.0447  -13.2741 O   0  0  0  0  0  0  0  0  0  0  0  0
   26.4641  -21.4533   -9.5751 C   0  0  0  0  0  0  0  0  0  0  0  0
   25.9109  -20.0223   -9.6139 C   0  0  2  0  0  0  0  0  0  0  0  0
   26.4618  -19.2635   -8.4528 C   0  0  0  0  0  0  0  0  0  0  0  0
   24.4282  -20.0541   -9.7004 C   0  0  0  0  0  0  0  0  0  0  0  0
   23.9312  -20.7718  -10.9104 C   0  0  2  0  0  0  0  0  0  0  0  0
   24.4817  -20.0903  -12.0828 N   0  0  0  0  0  0  0  0  0  0  0  0
   22.4651  -20.7072  -11.0091 C   0  0  0  0  0  0  0  0  0  0  0  0
   21.8989  -19.9743  -11.8315 O   0  0  0  0  0  0  0  0  0  0  0  0
   21.6883  -21.4807  -10.1668 O   0  0  0  0  0  0  0  0  0  0  0  0
  1  2  1  0
  2  3  2  0
  4  2  1  0
  5  4  1  0
  5  6  1  6
  7  5  1  0
  7  8  2  0
  9  7  1  0
 10  9  1  0
 10 11  1  6
 11 12  1  0
 12 16  1  0
 13 12  2  0
 13 14  1  0
 14 15  1  0
 16 15  2  0
 17 10  1  0
 18 17  2  0
 20 19  1  1
 21 20  1  0
 22 20  1  0
 23 22  1  1
 23 24  1  0
 24 17  1  0
 25 23  1  0
 26 25  2  0
 27 25  1  0
M  END
$$$$
