NHL.pdb
     RDKit          3D

 27 27  0  0  1  0  0  0  0  0999 V2000
   18.5400  -13.8780  -18.1755 N   0  0  0  0  0  0  0  0  0  0  0  0
   18.5120  -13.2994  -16.8909 C   0  0  0  0  0  0  0  0  0  0  0  0
   17.8106  -13.8051  -15.9717 O   0  0  0  0  0  0  0  0  0  0  0  0
   19.3035  -12.0930  -16.6025 C   0  0  0  0  0  0  0  0  0  0  0  0
   20.0651  -11.6829  -17.8175 C   0  0  2  0  0  0  0  0  0  0  0  0
   21.1729  -12.5897  -18.0448 N   0  0  0  0  0  0  0  0  0  0  0  0
   20.6374  -10.3199  -17.5742 C   0  0  0  0  0  0  0  0  0  0  0  0
   21.8230  -10.1694  -17.1586 O   0  0  0  0  0  0  0  0  0  0  0  0
   19.8726   -9.1425  -17.8002 N   0  0  0  0  0  0  0  0  0  0  0  0
   20.5010   -7.8371  -17.6761 C   0  0  1  0  0  0  0  0  0  0  0  0
   19.8821   -6.8387  -18.6139 C   0  0  0  0  0  0  0  0  0  0  0  0
   20.1312   -7.0865  -20.0327 C   0  0  0  0  0  0  0  0  0  0  0  0
   21.3207   -7.2466  -20.7101 C   0  0  0  0  0  0  0  0  0  0  0  0
   21.1075   -7.4415  -22.0275 N   0  0  0  0  0  0  0  0  0  0  0  0
   19.7860   -7.4041  -22.1803 C   0  0  0  0  0  0  0  0  0  0  0  0
   19.1761   -7.1929  -21.0023 N   0  0  0  0  0  0  0  0  0  0  0  0
   20.2979   -7.3809  -16.2893 C   0  0  0  0  0  0  0  0  0  0  0  0
   19.3301   -7.8342  -15.6383 O   0  0  0  0  0  0  0  0  0  0  0  0
   22.5299   -6.6334  -11.6349 C   0  0  0  0  0  0  0  0  0  0  0  0
   21.6994   -7.7828  -12.2215 C   0  0  2  0  0  0  0  0  0  0  0  0
   22.2079   -9.0726  -11.6688 C   0  0  0  0  0  0  0  0  0  0  0  0
   21.6862   -7.6935  -13.7043 C   0  0  0  0  0  0  0  0  0  0  0  0
   21.1660   -6.3874  -14.2039 C   0  0  2  0  0  0  0  0  0  0  0  0
   21.1584   -6.4478  -15.6663 N   0  0  0  0  0  0  0  0  0  0  0  0
   22.0435   -5.2741  -13.8119 C   0  0  0  0  0  0  0  0  0  0  0  0
   23.0979   -5.0317  -14.4147 O   0  0  0  0  0  0  0  0  0  0  0  0
   21.6920   -4.4700  -12.7437 O   0  0  0  0  0  0  0  0  0  0  0  0
  1  2  1  0
  2  3  2  0
  4  2  1  0
  5  4  1  0
  5  6  1  1
  7  5  1  0
  7  8  2  0
  9  7  1  0
 10  9  1  0
 10 11  1  6
 11 12  1  0
 12 16  1  0
 13 12  2  0
 13 14  1  0
 14 15  1  0
 16 15  2  0
 17 10  1  0
 18 17  2  0
 20 19  1  1
 21 20  1  0
 22 20  1  0
 23 22  1  1
 23 24  1  0
 24 17  1  0
 25 23  1  0
 26 25  2  0
 27 25  1  0
M  END
$$$$
