NHL.pdb
     RDKit          3D

 27 27  0  0  1  0  0  0  0  0999 V2000
   17.0028  -12.6721  -17.7497 N   0  0  0  0  0  0  0  0  0  0  0  0
   17.6036  -12.4506  -16.4944 C   0  0  0  0  0  0  0  0  0  0  0  0
   17.0156  -12.7887  -15.4302 O   0  0  0  0  0  0  0  0  0  0  0  0
   18.9300  -11.8197  -16.4070 C   0  0  0  0  0  0  0  0  0  0  0  0
   19.3949  -11.4244  -17.7679 C   0  0  2  0  0  0  0  0  0  0  0  0
   20.0900  -12.5280  -18.4006 N   0  0  0  0  0  0  0  0  0  0  0  0
   20.3717  -10.2980  -17.6208 C   0  0  0  0  0  0  0  0  0  0  0  0
   21.6039  -10.5167  -17.4340 O   0  0  0  0  0  0  0  0  0  0  0  0
   19.9541   -8.9402  -17.6850 N   0  0  0  0  0  0  0  0  0  0  0  0
   20.9418   -7.8755  -17.6109 C   0  0  1  0  0  0  0  0  0  0  0  0
   20.7090   -6.8362  -18.6715 C   0  0  0  0  0  0  0  0  0  0  0  0
   21.0695   -7.2454  -20.0276 C   0  0  0  0  0  0  0  0  0  0  0  0
   22.3092   -7.4674  -20.5875 C   0  0  0  0  0  0  0  0  0  0  0  0
   22.2007   -7.8186  -21.8851 N   0  0  0  0  0  0  0  0  0  0  0  0
   20.8950   -7.8178  -22.1428 C   0  0  0  0  0  0  0  0  0  0  0  0
   20.1937   -7.4782  -21.0486 N   0  0  0  0  0  0  0  0  0  0  0  0
   20.8102   -7.2446  -16.2854 C   0  0  0  0  0  0  0  0  0  0  0  0
   19.6718   -6.9208  -15.8791 O   0  0  0  0  0  0  0  0  0  0  0  0
   20.3490   -8.3681  -12.2050 C   0  0  0  0  0  0  0  0  0  0  0  0
   21.6882   -8.6023  -12.9170 C   0  0  2  0  0  0  0  0  0  0  0  0
   22.4694   -9.6153  -12.1482 C   0  0  0  0  0  0  0  0  0  0  0  0
   22.3796   -7.3058  -13.1358 C   0  0  0  0  0  0  0  0  0  0  0  0
   21.6805   -6.4330  -14.1236 C   0  0  2  0  0  0  0  0  0  0  0  0
   21.9256   -6.9912  -15.4542 N   0  0  0  0  0  0  0  0  0  0  0  0
   22.2225   -5.0658  -14.1109 C   0  0  0  0  0  0  0  0  0  0  0  0
   22.0947   -4.3231  -13.1280 O   0  0  0  0  0  0  0  0  0  0  0  0
   22.8944   -4.5863  -15.2198 O   0  0  0  0  0  0  0  0  0  0  0  0
  1  2  1  0
  2  3  2  0
  4  2  1  0
  5  4  1  0
  5  6  1  1
  7  5  1  0
  7  8  2  0
  9  7  1  0
 10  9  1  0
 10 11  1  6
 11 12  1  0
 12 16  1  0
 13 12  2  0
 13 14  1  0
 14 15  1  0
 16 15  2  0
 17 10  1  0
 18 17  2  0
 20 19  1  1
 21 20  1  0
 22 20  1  0
 23 22  1  1
 23 24  1  0
 24 17  1  0
 25 23  1  0
 26 25  2  0
 27 25  1  0
M  END
$$$$
