NFH.pdb
     RDKit          3D

 30 31  0  0  1  0  0  0  0  0999 V2000
    9.4194  -18.4961   18.1951 N   0  0  0  0  0  0  0  0  0  0  0  0
    9.6862  -19.2039   19.4069 C   0  0  0  0  0  0  0  0  0  0  0  0
    9.8697  -20.4389   19.3803 O   0  0  0  0  0  0  0  0  0  0  0  0
    9.7332  -18.4160   20.6707 C   0  0  0  0  0  0  0  0  0  0  0  0
    9.4289  -16.9630   20.3599 C   0  0  2  0  0  0  0  0  0  0  0  0
   10.3790  -16.4788   19.3944 N   0  0  0  0  0  0  0  0  0  0  0  0
    9.5108  -16.1182   21.5770 C   0  0  0  0  0  0  0  0  0  0  0  0
   10.6255  -15.7535   22.0529 O   0  0  0  0  0  0  0  0  0  0  0  0
    8.3378  -15.6766   22.2690 N   0  0  0  0  0  0  0  0  0  0  0  0
    8.3874  -14.9030   23.4770 C   0  0  1  0  0  0  0  0  0  0  0  0
    7.0164  -14.3324   23.7608 C   0  0  0  0  0  0  0  0  0  0  0  0
    7.0146  -13.5112   24.9951 C   0  0  0  0  0  0  0  0  0  0  0  0
    7.6508  -12.2986   25.0854 C   0  0  0  0  0  0  0  0  0  0  0  0
    7.6306  -11.5634   26.2411 C   0  0  0  0  0  0  0  0  0  0  0  0
    6.9483  -12.0628   27.3432 C   0  0  0  0  0  0  0  0  0  0  0  0
    6.3054  -13.2669   27.2836 C   0  0  0  0  0  0  0  0  0  0  0  0
    6.3468  -13.9765   26.1090 C   0  0  0  0  0  0  0  0  0  0  0  0
    8.7581  -15.7505   24.6596 C   0  0  0  0  0  0  0  0  0  0  0  0
    8.0773  -16.7873   24.8495 O   0  0  0  0  0  0  0  0  0  0  0  0
    9.8418  -15.3256   25.4736 N   0  0  0  0  0  0  0  0  0  0  0  0
   10.3461  -16.3108   26.4508 C   0  0  1  0  0  0  0  0  0  0  0  0
   11.7687  -16.5039   26.1240 C   0  0  0  0  0  0  0  0  0  0  0  0
   12.1253  -17.6373   25.2761 C   0  0  0  0  0  0  0  0  0  0  0  0
   11.1278  -18.4995   24.7986 C   0  0  0  0  0  0  0  0  0  0  0  0
   11.7288  -19.4352   24.0581 N   0  0  0  0  0  0  0  0  0  0  0  0
   13.0548  -19.2160   24.0379 C   0  0  0  0  0  0  0  0  0  0  0  0
   13.2555  -18.1193   24.7863 N   0  0  0  0  0  0  0  0  0  0  0  0
    9.9975  -15.9189   27.8079 C   0  0  0  0  0  0  0  0  0  0  0  0
    9.9611  -16.8460   28.8275 O   0  0  0  0  0  0  0  0  0  0  0  0
    9.7230  -14.7384   28.0906 O   0  0  0  0  0  0  0  0  0  0  0  0
  1  2  1  0
  2  3  2  0
  4  2  1  0
  4  5  1  0
  5  7  1  0
  5  6  1  6
  7  8  2  0
  9 10  1  0
  9  7  1  0
 10 11  1  1
 12 13  2  0
 12 11  1  0
 14 13  1  0
 15 14  2  0
 16 15  1  0
 16 17  2  0
 17 12  1  0
 18 10  1  0
 19 18  2  0
 20 18  1  0
 21 22  1  1
 21 20  1  0
 23 22  1  0
 24 23  2  0
 25 26  1  0
 25 24  1  0
 26 27  2  0
 27 23  1  0
 28 29  1  0
 28 21  1  0
 30 28  2  0
M  END
$$$$
