NFH.pdb
     RDKit          3D

 30 31  0  0  1  0  0  0  0  0999 V2000
   12.1447  -17.8571   17.9429 N   0  0  0  0  0  0  0  0  0  0  0  0
   11.2473  -18.3499   18.9392 C   0  0  0  0  0  0  0  0  0  0  0  0
   10.5073  -19.3234   18.6852 O   0  0  0  0  0  0  0  0  0  0  0  0
   11.2385  -17.6628   20.2612 C   0  0  0  0  0  0  0  0  0  0  0  0
    9.8906  -16.9976   20.4645 C   0  0  2  0  0  0  0  0  0  0  0  0
    9.6423  -16.0933   19.3736 N   0  0  0  0  0  0  0  0  0  0  0  0
    9.8470  -16.2355   21.7369 C   0  0  0  0  0  0  0  0  0  0  0  0
   10.8737  -16.1110   22.4667 O   0  0  0  0  0  0  0  0  0  0  0  0
    8.6465  -15.6070   22.1989 N   0  0  0  0  0  0  0  0  0  0  0  0
    8.5569  -14.9217   23.4569 C   0  0  1  0  0  0  0  0  0  0  0  0
    7.4090  -13.9390   23.4092 C   0  0  0  0  0  0  0  0  0  0  0  0
    7.2320  -13.2469   24.7083 C   0  0  0  0  0  0  0  0  0  0  0  0
    6.3589  -13.6830   25.6731 C   0  0  0  0  0  0  0  0  0  0  0  0
    6.2183  -13.0209   26.8640 C   0  0  0  0  0  0  0  0  0  0  0  0
    6.9802  -11.8823   27.0937 C   0  0  0  0  0  0  0  0  0  0  0  0
    7.8578  -11.4239   26.1522 C   0  0  0  0  0  0  0  0  0  0  0  0
    7.9726  -12.1128   24.9702 C   0  0  0  0  0  0  0  0  0  0  0  0
    8.2683  -15.8718   24.5830 C   0  0  0  0  0  0  0  0  0  0  0  0
    7.3281  -16.6849   24.4116 O   0  0  0  0  0  0  0  0  0  0  0  0
    9.0702  -15.7865   25.7523 N   0  0  0  0  0  0  0  0  0  0  0  0
    9.5258  -17.0696   26.3232 C   0  0  1  0  0  0  0  0  0  0  0  0
   10.2759  -17.7401   25.2482 C   0  0  0  0  0  0  0  0  0  0  0  0
   10.9022  -19.0231   25.5521 C   0  0  0  0  0  0  0  0  0  0  0  0
   10.7612  -19.5899   26.8269 C   0  0  0  0  0  0  0  0  0  0  0  0
   11.4274  -20.7481   26.8256 N   0  0  0  0  0  0  0  0  0  0  0  0
   11.9851  -20.9498   25.6193 C   0  0  0  0  0  0  0  0  0  0  0  0
   11.6447  -19.8843   24.8764 N   0  0  0  0  0  0  0  0  0  0  0  0
   10.1899  -16.8611   27.6008 C   0  0  0  0  0  0  0  0  0  0  0  0
   10.5979  -17.9286   28.3717 O   0  0  0  0  0  0  0  0  0  0  0  0
   10.4108  -15.7163   28.0364 O   0  0  0  0  0  0  0  0  0  0  0  0
  1  2  1  0
  2  3  2  0
  4  2  1  0
  4  5  1  0
  5  7  1  0
  5  6  1  6
  7  8  2  0
  9 10  1  0
  9  7  1  0
 10 11  1  6
 12 13  2  0
 12 11  1  0
 14 13  1  0
 15 14  2  0
 16 15  1  0
 16 17  2  0
 17 12  1  0
 18 10  1  0
 19 18  2  0
 20 18  1  0
 21 22  1  6
 21 20  1  0
 23 22  1  0
 24 23  2  0
 25 26  1  0
 25 24  1  0
 26 27  2  0
 27 23  1  0
 28 29  1  0
 28 21  1  0
 30 28  2  0
M  END
$$$$
