NFH.pdb
     RDKit          3D

 30 31  0  0  1  0  0  0  0  0999 V2000
    6.3720  -15.9185   18.6638 N   0  0  0  0  0  0  0  0  0  0  0  0
    7.3274  -16.9273   18.9957 C   0  0  0  0  0  0  0  0  0  0  0  0
    7.4464  -17.9364   18.2697 O   0  0  0  0  0  0  0  0  0  0  0  0
    8.1528  -16.7209   20.2189 C   0  0  0  0  0  0  0  0  0  0  0  0
    7.6102  -15.5311   20.9874 C   0  0  2  0  0  0  0  0  0  0  0  0
    7.8246  -14.3353   20.2171 N   0  0  0  0  0  0  0  0  0  0  0  0
    8.2826  -15.3806   22.3016 C   0  0  0  0  0  0  0  0  0  0  0  0
    9.4668  -14.9426   22.3903 O   0  0  0  0  0  0  0  0  0  0  0  0
    7.6269  -15.7219   23.5277 N   0  0  0  0  0  0  0  0  0  0  0  0
    8.2264  -15.5230   24.8166 C   0  0  1  0  0  0  0  0  0  0  0  0
    7.1513  -15.1626   25.8167 C   0  0  0  0  0  0  0  0  0  0  0  0
    7.0044  -13.6935   25.9506 C   0  0  0  0  0  0  0  0  0  0  0  0
    5.7845  -13.0701   26.0338 C   0  0  0  0  0  0  0  0  0  0  0  0
    5.6822  -11.7097   26.1571 C   0  0  0  0  0  0  0  0  0  0  0  0
    6.8442  -10.9496   26.1981 C   0  0  0  0  0  0  0  0  0  0  0  0
    8.0728  -11.5417   26.1175 C   0  0  0  0  0  0  0  0  0  0  0  0
    8.1373  -12.9075   25.9946 C   0  0  0  0  0  0  0  0  0  0  0  0
    8.8836  -16.7762   25.3185 C   0  0  0  0  0  0  0  0  0  0  0  0
    8.1737  -17.8099   25.3622 O   0  0  0  0  0  0  0  0  0  0  0  0
   10.2486  -16.7069   25.7051 N   0  0  0  0  0  0  0  0  0  0  0  0
   10.8257  -17.9397   26.2769 C   0  0  1  0  0  0  0  0  0  0  0  0
   12.2253  -17.9732   25.8209 C   0  0  0  0  0  0  0  0  0  0  0  0
   12.4727  -18.1437   24.3924 C   0  0  0  0  0  0  0  0  0  0  0  0
   11.4076  -18.4163   23.5220 C   0  0  0  0  0  0  0  0  0  0  0  0
   11.9147  -18.5225   22.2904 N   0  0  0  0  0  0  0  0  0  0  0  0
   13.2448  -18.3323   22.3290 C   0  0  0  0  0  0  0  0  0  0  0  0
   13.5445  -18.1059   23.6182 N   0  0  0  0  0  0  0  0  0  0  0  0
   10.5640  -18.0196   27.7058 C   0  0  0  0  0  0  0  0  0  0  0  0
   10.9487  -19.1226   28.4377 O   0  0  0  0  0  0  0  0  0  0  0  0
    9.9873  -17.0974   28.3109 O   0  0  0  0  0  0  0  0  0  0  0  0
  1  2  1  0
  2  3  2  0
  4  2  1  0
  4  5  1  0
  5  7  1  0
  5  6  1  6
  7  8  2  0
  9 10  1  0
  9  7  1  0
 10 11  1  1
 12 13  2  0
 12 11  1  0
 14 13  1  0
 15 14  2  0
 16 15  1  0
 16 17  2  0
 17 12  1  0
 18 10  1  0
 19 18  2  0
 20 18  1  0
 21 22  1  1
 21 20  1  0
 23 22  1  0
 24 23  2  0
 25 26  1  0
 25 24  1  0
 26 27  2  0
 27 23  1  0
 28 29  1  0
 28 21  1  0
 30 28  2  0
M  END
$$$$
