NFH.pdb
     RDKit          3D

 30 31  0  0  1  0  0  0  0  0999 V2000
   11.8925  -17.9377   18.3510 N   0  0  0  0  0  0  0  0  0  0  0  0
   10.7688  -18.1645   19.2034 C   0  0  0  0  0  0  0  0  0  0  0  0
    9.7846  -18.8065   18.7803 O   0  0  0  0  0  0  0  0  0  0  0  0
   10.8279  -17.6116   20.5857 C   0  0  0  0  0  0  0  0  0  0  0  0
    9.4224  -17.2719   21.0436 C   0  0  2  0  0  0  0  0  0  0  0  0
    8.7413  -16.5672   19.9906 N   0  0  0  0  0  0  0  0  0  0  0  0
    9.4375  -16.4192   22.2579 C   0  0  0  0  0  0  0  0  0  0  0  0
   10.4751  -16.3104   22.9745 O   0  0  0  0  0  0  0  0  0  0  0  0
    8.2839  -15.6815   22.6758 N   0  0  0  0  0  0  0  0  0  0  0  0
    8.2161  -14.9780   23.9251 C   0  0  1  0  0  0  0  0  0  0  0  0
    7.1770  -13.8843   23.8262 C   0  0  0  0  0  0  0  0  0  0  0  0
    7.0916  -13.1009   25.0819 C   0  0  0  0  0  0  0  0  0  0  0  0
    8.0293  -12.1663   25.4435 C   0  0  0  0  0  0  0  0  0  0  0  0
    7.9218  -11.4584   26.6114 C   0  0  0  0  0  0  0  0  0  0  0  0
    6.8360  -11.6972   27.4441 C   0  0  0  0  0  0  0  0  0  0  0  0
    5.8864  -12.6213   27.1110 C   0  0  0  0  0  0  0  0  0  0  0  0
    6.0265  -13.3121   25.9329 C   0  0  0  0  0  0  0  0  0  0  0  0
    7.7889  -15.8826   25.0448 C   0  0  0  0  0  0  0  0  0  0  0  0
    6.5668  -16.1583   25.1156 O   0  0  0  0  0  0  0  0  0  0  0  0
    8.7859  -16.3590   25.9373 N   0  0  0  0  0  0  0  0  0  0  0  0
    8.3794  -17.4524   26.8423 C   0  0  1  0  0  0  0  0  0  0  0  0
    7.7571  -18.4718   25.9812 C   0  0  0  0  0  0  0  0  0  0  0  0
    7.3812  -19.7429   26.5925 C   0  0  0  0  0  0  0  0  0  0  0  0
    7.5581  -19.9405   27.9695 C   0  0  0  0  0  0  0  0  0  0  0  0
    7.1358  -21.1758   28.2538 N   0  0  0  0  0  0  0  0  0  0  0  0
    6.6996  -21.7758   27.1329 C   0  0  0  0  0  0  0  0  0  0  0  0
    6.8643  -20.8768   26.1491 N   0  0  0  0  0  0  0  0  0  0  0  0
    9.4853  -17.8544   27.6979 C   0  0  0  0  0  0  0  0  0  0  0  0
   10.7900  -17.5785   27.3487 O   0  0  0  0  0  0  0  0  0  0  0  0
    9.2892  -18.4571   28.7691 O   0  0  0  0  0  0  0  0  0  0  0  0
  1  2  1  0
  2  3  2  0
  4  2  1  0
  4  5  1  0
  5  7  1  0
  5  6  1  6
  7  8  2  0
  9 10  1  0
  9  7  1  0
 10 11  1  6
 12 13  2  0
 12 11  1  0
 14 13  1  0
 15 14  2  0
 16 15  1  0
 16 17  2  0
 17 12  1  0
 18 10  1  0
 19 18  2  0
 20 18  1  0
 21 22  1  6
 21 20  1  0
 23 22  1  0
 24 23  2  0
 25 26  1  0
 25 24  1  0
 26 27  2  0
 27 23  1  0
 28 29  1  0
 28 21  1  0
 30 28  2  0
M  END
$$$$
