NFH.pdb
     RDKit          3D

 30 31  0  0  1  0  0  0  0  0999 V2000
   10.0997  -18.2061   17.8771 N   0  0  0  0  0  0  0  0  0  0  0  0
   11.0481  -17.1441   17.9923 C   0  0  0  0  0  0  0  0  0  0  0  0
   11.9136  -16.9821   17.1066 O   0  0  0  0  0  0  0  0  0  0  0  0
   10.9557  -16.2626   19.1900 C   0  0  0  0  0  0  0  0  0  0  0  0
    9.8359  -16.7587   20.0846 C   0  0  2  0  0  0  0  0  0  0  0  0
    8.5751  -16.5347   19.4292 N   0  0  0  0  0  0  0  0  0  0  0  0
    9.8289  -16.0520   21.3893 C   0  0  0  0  0  0  0  0  0  0  0  0
   10.8772  -15.9541   22.0920 O   0  0  0  0  0  0  0  0  0  0  0  0
    8.6411  -15.4493   21.9143 N   0  0  0  0  0  0  0  0  0  0  0  0
    8.5722  -14.8705   23.2259 C   0  0  1  0  0  0  0  0  0  0  0  0
    7.2947  -14.0719   23.3524 C   0  0  0  0  0  0  0  0  0  0  0  0
    7.2178  -13.3732   24.6577 C   0  0  0  0  0  0  0  0  0  0  0  0
    7.8998  -12.2124   24.9240 C   0  0  0  0  0  0  0  0  0  0  0  0
    7.8077  -11.5906   26.1411 C   0  0  0  0  0  0  0  0  0  0  0  0
    7.0036  -12.1536   27.1240 C   0  0  0  0  0  0  0  0  0  0  0  0
    6.3126  -13.3084   26.8885 C   0  0  0  0  0  0  0  0  0  0  0  0
    6.4287  -13.9042   25.6570 C   0  0  0  0  0  0  0  0  0  0  0  0
    8.5317  -15.9259   24.2930 C   0  0  0  0  0  0  0  0  0  0  0  0
    7.9266  -16.9896   24.0154 O   0  0  0  0  0  0  0  0  0  0  0  0
    9.1739  -15.6516   25.5299 N   0  0  0  0  0  0  0  0  0  0  0  0
    9.8226  -16.7995   26.1942 C   0  0  1  0  0  0  0  0  0  0  0  0
   10.9594  -17.1675   25.3339 C   0  0  0  0  0  0  0  0  0  0  0  0
   10.8045  -18.3252   24.4583 C   0  0  0  0  0  0  0  0  0  0  0  0
    9.5840  -19.0141   24.4129 C   0  0  0  0  0  0  0  0  0  0  0  0
    9.7226  -20.0162   23.5400 N   0  0  0  0  0  0  0  0  0  0  0  0
   10.9650  -20.0030   23.0270 C   0  0  0  0  0  0  0  0  0  0  0  0
   11.5891  -18.9653   23.6073 N   0  0  0  0  0  0  0  0  0  0  0  0
   10.0847  -16.5065   27.5951 C   0  0  0  0  0  0  0  0  0  0  0  0
   10.1751  -17.5181   28.5272 O   0  0  0  0  0  0  0  0  0  0  0  0
   10.2360  -15.3376   27.9947 O   0  0  0  0  0  0  0  0  0  0  0  0
  1  2  1  0
  2  3  2  0
  4  2  1  0
  4  5  1  0
  5  7  1  0
  5  6  1  6
  7  8  2  0
  9 10  1  0
  9  7  1  0
 10 11  1  6
 12 13  2  0
 12 11  1  0
 14 13  1  0
 15 14  2  0
 16 15  1  0
 16 17  2  0
 17 12  1  0
 18 10  1  0
 19 18  2  0
 20 18  1  0
 21 22  1  6
 21 20  1  0
 23 22  1  0
 24 23  2  0
 25 26  1  0
 25 24  1  0
 26 27  2  0
 27 23  1  0
 28 29  1  0
 28 21  1  0
 30 28  2  0
M  END
$$$$
