LTQ.pdb
     RDKit          3D

 25 24  0  0  1  0  0  0  0  0999 V2000
    4.9791  -18.9354   17.4020 C   0  0  0  0  0  0  0  0  0  0  0  0
    6.3822  -19.5249   17.4519 C   0  0  2  0  0  0  0  0  0  0  0  0
    6.3767  -20.9552   17.9114 C   0  0  0  0  0  0  0  0  0  0  0  0
    7.1853  -18.6677   18.3925 C   0  0  0  0  0  0  0  0  0  0  0  0
    7.3612  -17.2838   17.7839 C   0  0  2  0  0  0  0  0  0  0  0  0
    7.9157  -17.3651   16.4496 N   0  0  0  0  0  0  0  0  0  0  0  0
    8.2238  -16.5104   18.6976 C   0  0  0  0  0  0  0  0  0  0  0  0
    9.4677  -16.6099   18.5455 O   0  0  0  0  0  0  0  0  0  0  0  0
    7.4445  -12.8375   20.0660 C   0  0  0  0  0  0  0  0  0  0  0  0
    7.8944  -13.7458   21.1916 C   0  0  1  0  0  0  0  0  0  0  0  0
    6.6917  -14.3661   21.6248 O   0  0  0  0  0  0  0  0  0  0  0  0
    8.6762  -14.9011   20.5431 C   0  0  2  0  0  0  0  0  0  0  0  0
    7.7154  -15.6725   19.7244 N   0  0  0  0  0  0  0  0  0  0  0  0
    9.1869  -15.7563   21.6256 C   0  0  0  0  0  0  0  0  0  0  0  0
    8.5299  -16.8249   21.9255 O   0  0  0  0  0  0  0  0  0  0  0  0
   11.7691  -20.6657   21.5939 N   0  0  0  0  0  0  0  0  0  0  0  0
   12.5805  -19.9481   22.5019 C   0  0  0  0  0  0  0  0  0  0  0  0
   13.7642  -20.3012   22.6899 O   0  0  0  0  0  0  0  0  0  0  0  0
   12.0364  -18.7969   23.2187 C   0  0  0  0  0  0  0  0  0  0  0  0
   11.4664  -17.7398   22.3254 C   0  0  0  0  0  0  0  0  0  0  0  0
   10.9242  -16.6304   23.2263 C   0  0  2  0  0  0  0  0  0  0  0  0
   10.3400  -15.5649   22.4081 N   0  0  0  0  0  0  0  0  0  0  0  0
   12.0509  -16.0355   23.9805 C   0  0  0  0  0  0  0  0  0  0  0  0
   12.5251  -16.6422   24.9609 O   0  0  0  0  0  0  0  0  0  0  0  0
   12.6097  -14.8056   23.6312 O   0  0  0  0  0  0  0  0  0  0  0  0
  2  1  1  1
  2  3  1  0
  4  5  1  0
  4  2  1  0
  5  7  1  0
  5  6  1  6
  7  8  2  0
 10  9  1  6
 10 11  1  0
 10 12  1  0
 12 13  1  6
 13  7  1  0
 14 15  2  0
 14 12  1  0
 16 17  1  0
 17 18  2  0
 17 19  1  0
 19 20  1  0
 21 20  1  6
 21 22  1  0
 21 23  1  0
 22 14  1  0
 23 25  1  0
 24 23  2  0
M  END
$$$$
