LTQ.pdb
     RDKit          3D

 25 24  0  0  1  0  0  0  0  0999 V2000
    6.2975  -12.2610   24.9115 C   0  0  0  0  0  0  0  0  0  0  0  0
    6.3719  -13.0479   26.2131 C   0  0  2  0  0  0  0  0  0  0  0  0
    6.8233  -12.1933   27.3633 C   0  0  0  0  0  0  0  0  0  0  0  0
    7.3329  -14.1833   25.9854 C   0  0  0  0  0  0  0  0  0  0  0  0
    6.7397  -15.1459   24.9665 C   0  0  2  0  0  0  0  0  0  0  0  0
    5.6174  -15.8710   25.5225 N   0  0  0  0  0  0  0  0  0  0  0  0
    7.8243  -16.0480   24.5340 C   0  0  0  0  0  0  0  0  0  0  0  0
    8.0047  -17.0998   25.1982 O   0  0  0  0  0  0  0  0  0  0  0  0
   11.2022  -17.5090   21.2845 C   0  0  0  0  0  0  0  0  0  0  0  0
   10.1962  -16.4394   21.6562 C   0  0  1  0  0  0  0  0  0  0  0  0
    9.0623  -16.7522   20.8591 O   0  0  0  0  0  0  0  0  0  0  0  0
    9.7229  -16.7541   23.0858 C   0  0  2  0  0  0  0  0  0  0  0  0
    8.6587  -15.7814   23.4170 N   0  0  0  0  0  0  0  0  0  0  0  0
   10.8658  -16.5483   23.9888 C   0  0  0  0  0  0  0  0  0  0  0  0
   11.2893  -15.3449   24.1786 O   0  0  0  0  0  0  0  0  0  0  0  0
    9.9117  -17.0692   29.5252 N   0  0  0  0  0  0  0  0  0  0  0  0
   11.3016  -16.8165   29.5696 C   0  0  0  0  0  0  0  0  0  0  0  0
   11.8331  -16.4539   30.6407 O   0  0  0  0  0  0  0  0  0  0  0  0
   12.1145  -16.9788   28.3662 C   0  0  0  0  0  0  0  0  0  0  0  0
   11.3161  -17.2028   27.1201 C   0  0  0  0  0  0  0  0  0  0  0  0
   12.2990  -17.2164   25.9496 C   0  0  2  0  0  0  0  0  0  0  0  0
   11.5878  -17.5200   24.7053 N   0  0  0  0  0  0  0  0  0  0  0  0
   13.2837  -18.3005   26.1667 C   0  0  0  0  0  0  0  0  0  0  0  0
   13.0695  -19.4325   25.6904 O   0  0  0  0  0  0  0  0  0  0  0  0
   14.4579  -18.1010   26.8937 O   0  0  0  0  0  0  0  0  0  0  0  0
  2  1  1  6
  2  3  1  0
  4  5  1  0
  4  2  1  0
  5  7  1  0
  5  6  1  1
  7  8  2  0
 10  9  1  6
 10 11  1  0
 10 12  1  0
 12 13  1  1
 13  7  1  0
 14 15  2  0
 14 12  1  0
 16 17  1  0
 17 18  2  0
 17 19  1  0
 19 20  1  0
 21 20  1  1
 21 22  1  0
 21 23  1  0
 22 14  1  0
 23 25  1  0
 24 23  2  0
M  END
$$$$
