LTQ.pdb
     RDKit          3D

 25 24  0  0  1  0  0  0  0  0999 V2000
    8.9817  -13.5171   18.4325 C   0  0  0  0  0  0  0  0  0  0  0  0
    7.7603  -13.4993   19.3416 C   0  0  2  0  0  0  0  0  0  0  0  0
    7.0023  -12.2060   19.2420 C   0  0  0  0  0  0  0  0  0  0  0  0
    8.2548  -13.7186   20.7458 C   0  0  0  0  0  0  0  0  0  0  0  0
    8.9678  -15.0611   20.8226 C   0  0  2  0  0  0  0  0  0  0  0  0
    8.1384  -16.1254   20.2992 N   0  0  0  0  0  0  0  0  0  0  0  0
    9.3307  -15.2836   22.2354 C   0  0  0  0  0  0  0  0  0  0  0  0
    9.9694  -14.3732   22.8214 O   0  0  0  0  0  0  0  0  0  0  0  0
    7.2444  -16.7442   25.1599 C   0  0  0  0  0  0  0  0  0  0  0  0
    8.5437  -17.5194   25.0886 C   0  0  1  0  0  0  0  0  0  0  0  0
    8.2571  -18.5741   24.1806 O   0  0  0  0  0  0  0  0  0  0  0  0
    9.5406  -16.6427   24.3112 C   0  0  2  0  0  0  0  0  0  0  0  0
    8.9937  -16.4639   22.9484 N   0  0  0  0  0  0  0  0  0  0  0  0
   10.8120  -17.3782   24.2307 C   0  0  0  0  0  0  0  0  0  0  0  0
   11.1997  -17.8096   23.0787 O   0  0  0  0  0  0  0  0  0  0  0  0
   15.7464  -16.5077   22.0011 N   0  0  0  0  0  0  0  0  0  0  0  0
   15.9553  -16.1896   23.3623 C   0  0  0  0  0  0  0  0  0  0  0  0
   16.7414  -15.2689   23.6713 O   0  0  0  0  0  0  0  0  0  0  0  0
   15.2540  -16.9356   24.4048 C   0  0  0  0  0  0  0  0  0  0  0  0
   13.7775  -16.6918   24.4367 C   0  0  0  0  0  0  0  0  0  0  0  0
   13.1279  -17.9306   25.0530 C   0  0  2  0  0  0  0  0  0  0  0  0
   11.7009  -17.6858   25.2765 N   0  0  0  0  0  0  0  0  0  0  0  0
   13.7417  -18.1820   26.3768 C   0  0  0  0  0  0  0  0  0  0  0  0
   14.7644  -18.8902   26.4576 O   0  0  0  0  0  0  0  0  0  0  0  0
   13.2122  -17.6495   27.5527 O   0  0  0  0  0  0  0  0  0  0  0  0
  2  1  1  6
  2  3  1  0
  4  5  1  0
  4  2  1  0
  5  7  1  0
  5  6  1  1
  7  8  2  0
 10  9  1  6
 10 11  1  0
 10 12  1  0
 12 13  1  6
 13  7  1  0
 14 15  2  0
 14 12  1  0
 16 17  1  0
 17 18  2  0
 17 19  1  0
 19 20  1  0
 21 20  1  1
 21 22  1  0
 21 23  1  0
 22 14  1  0
 23 25  1  0
 24 23  2  0
M  END
$$$$
