LTQ.pdb
     RDKit          3D

 25 24  0  0  1  0  0  0  0  0999 V2000
    5.2421  -12.1994   25.6954 C   0  0  0  0  0  0  0  0  0  0  0  0
    6.4143  -12.7477   26.4979 C   0  0  2  0  0  0  0  0  0  0  0  0
    7.1875  -11.6571   27.1832 C   0  0  0  0  0  0  0  0  0  0  0  0
    7.2937  -13.4976   25.5342 C   0  0  0  0  0  0  0  0  0  0  0  0
    6.5457  -14.7188   25.0185 C   0  0  2  0  0  0  0  0  0  0  0  0
    5.8546  -15.4013   26.0913 N   0  0  0  0  0  0  0  0  0  0  0  0
    7.5345  -15.5887   24.3531 C   0  0  0  0  0  0  0  0  0  0  0  0
    8.0468  -16.5128   25.0341 O   0  0  0  0  0  0  0  0  0  0  0  0
    7.4524  -15.9357   20.4327 C   0  0  0  0  0  0  0  0  0  0  0  0
    8.8797  -16.1586   20.8881 C   0  0  1  0  0  0  0  0  0  0  0  0
    9.4622  -14.8647   20.8157 O   0  0  0  0  0  0  0  0  0  0  0  0
    8.8238  -16.4388   22.3998 C   0  0  2  0  0  0  0  0  0  0  0  0
    7.9248  -15.4277   22.9978 N   0  0  0  0  0  0  0  0  0  0  0  0
   10.1814  -16.2585   22.9367 C   0  0  0  0  0  0  0  0  0  0  0  0
   10.5282  -15.0863   23.3482 O   0  0  0  0  0  0  0  0  0  0  0  0
   10.3098  -18.5938   27.9183 N   0  0  0  0  0  0  0  0  0  0  0  0
   11.6913  -18.3033   27.8495 C   0  0  0  0  0  0  0  0  0  0  0  0
   12.3996  -18.4076   28.8735 O   0  0  0  0  0  0  0  0  0  0  0  0
   12.2892  -17.8823   26.5845 C   0  0  0  0  0  0  0  0  0  0  0  0
   11.3041  -17.7326   25.4676 C   0  0  0  0  0  0  0  0  0  0  0  0
   12.0843  -17.2785   24.2341 C   0  0  2  0  0  0  0  0  0  0  0  0
   11.1934  -17.2261   23.0724 N   0  0  0  0  0  0  0  0  0  0  0  0
   13.1324  -18.2813   23.9373 C   0  0  0  0  0  0  0  0  0  0  0  0
   14.2998  -18.0876   24.3293 O   0  0  0  0  0  0  0  0  0  0  0  0
   12.8598  -19.4504   23.2261 O   0  0  0  0  0  0  0  0  0  0  0  0
  2  1  1  6
  2  3  1  0
  4  5  1  0
  4  2  1  0
  5  7  1  0
  5  6  1  1
  7  8  2  0
 10  9  1  1
 10 11  1  0
 10 12  1  0
 12 13  1  1
 13  7  1  0
 14 15  2  0
 14 12  1  0
 16 17  1  0
 17 18  2  0
 17 19  1  0
 19 20  1  0
 21 20  1  1
 21 22  1  0
 21 23  1  0
 22 14  1  0
 23 25  1  0
 24 23  2  0
M  END
$$$$
