LTQ.pdb
     RDKit          3D

 25 24  0  0  1  0  0  0  0  0999 V2000
    8.1397  -11.8009   20.2153 C   0  0  0  0  0  0  0  0  0  0  0  0
    8.6601  -13.1649   19.7824 C   0  0  2  0  0  0  0  0  0  0  0  0
    8.0851  -13.5947   18.4627 C   0  0  0  0  0  0  0  0  0  0  0  0
    8.2894  -14.1405   20.8666 C   0  0  0  0  0  0  0  0  0  0  0  0
    8.9327  -15.4878   20.5705 C   0  0  2  0  0  0  0  0  0  0  0  0
    8.2943  -16.1371   19.4456 N   0  0  0  0  0  0  0  0  0  0  0  0
    8.8430  -16.2955   21.8021 C   0  0  0  0  0  0  0  0  0  0  0  0
    7.9153  -17.1405   21.8763 O   0  0  0  0  0  0  0  0  0  0  0  0
    8.7865  -18.8592   22.5592 C   0  0  0  0  0  0  0  0  0  0  0  0
    9.9096  -18.5015   23.5104 C   0  0  1  0  0  0  0  0  0  0  0  0
   11.0267  -18.3065   22.6543 O   0  0  0  0  0  0  0  0  0  0  0  0
    9.6125  -17.0859   24.0344 C   0  0  2  0  0  0  0  0  0  0  0  0
    9.7462  -16.1598   22.8887 N   0  0  0  0  0  0  0  0  0  0  0  0
   10.6333  -16.7607   25.0424 C   0  0  0  0  0  0  0  0  0  0  0  0
   11.8416  -16.5461   24.6454 O   0  0  0  0  0  0  0  0  0  0  0  0
    8.4456  -13.7196   26.3503 N   0  0  0  0  0  0  0  0  0  0  0  0
    9.1348  -13.8144   27.5806 C   0  0  0  0  0  0  0  0  0  0  0  0
    8.5021  -13.7324   28.6548 O   0  0  0  0  0  0  0  0  0  0  0  0
   10.5832  -14.0075   27.5959 C   0  0  0  0  0  0  0  0  0  0  0  0
   11.0256  -15.2217   28.3511 C   0  0  0  0  0  0  0  0  0  0  0  0
   11.5527  -16.2251   27.3255 C   0  0  2  0  0  0  0  0  0  0  0  0
   10.4677  -16.6431   26.4343 N   0  0  0  0  0  0  0  0  0  0  0  0
   12.0232  -17.4338   28.0395 C   0  0  0  0  0  0  0  0  0  0  0  0
   11.3267  -18.4677   28.0267 O   0  0  0  0  0  0  0  0  0  0  0  0
   13.2323  -17.4604   28.7353 O   0  0  0  0  0  0  0  0  0  0  0  0
  2  1  1  1
  2  3  1  0
  4  5  1  0
  4  2  1  0
  5  7  1  0
  5  6  1  6
  7  8  2  0
 10  9  1  6
 10 11  1  0
 10 12  1  0
 12 13  1  6
 13  7  1  0
 14 15  2  0
 14 12  1  0
 16 17  1  0
 17 18  2  0
 17 19  1  0
 19 20  1  0
 21 20  1  1
 21 22  1  0
 21 23  1  0
 22 14  1  0
 23 25  1  0
 24 23  2  0
M  END
$$$$
