LTQ.pdb
     RDKit          3D

 25 24  0  0  1  0  0  0  0  0999 V2000
    6.1958  -11.9817   25.1587 C   0  0  0  0  0  0  0  0  0  0  0  0
    6.1546  -12.8536   26.4064 C   0  0  2  0  0  0  0  0  0  0  0  0
    6.5829  -12.1012   27.6342 C   0  0  0  0  0  0  0  0  0  0  0  0
    7.0671  -14.0235   26.1549 C   0  0  0  0  0  0  0  0  0  0  0  0
    6.5439  -14.8218   24.9693 C   0  0  2  0  0  0  0  0  0  0  0  0
    5.2717  -15.4403   25.2748 N   0  0  0  0  0  0  0  0  0  0  0  0
    7.5763  -15.8174   24.6226 C   0  0  0  0  0  0  0  0  0  0  0  0
    7.6685  -16.8369   25.3522 O   0  0  0  0  0  0  0  0  0  0  0  0
    8.5874  -16.8130   20.9889 C   0  0  0  0  0  0  0  0  0  0  0  0
    9.8604  -16.6482   21.7930 C   0  0  1  0  0  0  0  0  0  0  0  0
   10.1934  -15.2779   21.6191 O   0  0  0  0  0  0  0  0  0  0  0  0
    9.4613  -16.7312   23.2764 C   0  0  2  0  0  0  0  0  0  0  0  0
    8.4553  -15.6738   23.5172 N   0  0  0  0  0  0  0  0  0  0  0  0
   10.6625  -16.4491   24.0773 C   0  0  0  0  0  0  0  0  0  0  0  0
   10.8095  -15.2650   24.5671 O   0  0  0  0  0  0  0  0  0  0  0  0
   11.5614  -16.9898   29.5682 N   0  0  0  0  0  0  0  0  0  0  0  0
   11.2065  -15.9076   28.7311 C   0  0  0  0  0  0  0  0  0  0  0  0
   10.7419  -14.8615   29.2319 O   0  0  0  0  0  0  0  0  0  0  0  0
   11.3826  -16.0122   27.2843 C   0  0  0  0  0  0  0  0  0  0  0  0
   11.9658  -17.3160   26.8366 C   0  0  0  0  0  0  0  0  0  0  0  0
   12.6518  -17.0671   25.4935 C   0  0  2  0  0  0  0  0  0  0  0  0
   11.7134  -17.3270   24.3989 N   0  0  0  0  0  0  0  0  0  0  0  0
   13.7723  -18.0236   25.3461 C   0  0  0  0  0  0  0  0  0  0  0  0
   13.6640  -18.9832   24.5577 O   0  0  0  0  0  0  0  0  0  0  0  0
   14.9605  -17.8903   26.0652 O   0  0  0  0  0  0  0  0  0  0  0  0
  2  1  1  6
  2  3  1  0
  4  5  1  0
  4  2  1  0
  5  7  1  0
  5  6  1  1
  7  8  2  0
 10  9  1  6
 10 11  1  0
 10 12  1  0
 12 13  1  6
 13  7  1  0
 14 15  2  0
 14 12  1  0
 16 17  1  0
 17 18  2  0
 17 19  1  0
 19 20  1  0
 21 20  1  1
 21 22  1  0
 21 23  1  0
 22 14  1  0
 23 25  1  0
 24 23  2  0
M  END
$$$$
