LTQ.pdb
     RDKit          3D

 25 24  0  0  1  0  0  0  0  0999 V2000
    9.4392  -13.1343   18.8583 C   0  0  0  0  0  0  0  0  0  0  0  0
    8.0667  -13.2595   19.5058 C   0  0  2  0  0  0  0  0  0  0  0  0
    7.5294  -11.9285   19.9497 C   0  0  0  0  0  0  0  0  0  0  0  0
    8.2178  -14.1896   20.6790 C   0  0  0  0  0  0  0  0  0  0  0  0
    8.6933  -15.5481   20.1842 C   0  0  2  0  0  0  0  0  0  0  0  0
    7.7569  -16.1187   19.2397 N   0  0  0  0  0  0  0  0  0  0  0  0
    8.8775  -16.4059   21.3707 C   0  0  0  0  0  0  0  0  0  0  0  0
    7.8933  -16.5545   22.1385 O   0  0  0  0  0  0  0  0  0  0  0  0
   10.3568  -19.8591   21.2770 C   0  0  0  0  0  0  0  0  0  0  0  0
   11.0334  -19.1664   22.4418 C   0  0  1  0  0  0  0  0  0  0  0  0
   12.1643  -18.5413   21.8509 O   0  0  0  0  0  0  0  0  0  0  0  0
   10.1360  -17.9797   22.8333 C   0  0  2  0  0  0  0  0  0  0  0  0
   10.1001  -17.0594   21.6758 N   0  0  0  0  0  0  0  0  0  0  0  0
   10.7692  -17.2998   23.9738 C   0  0  0  0  0  0  0  0  0  0  0  0
   11.3044  -16.1426   23.7786 O   0  0  0  0  0  0  0  0  0  0  0  0
    8.5087  -13.6374   27.2091 N   0  0  0  0  0  0  0  0  0  0  0  0
    9.7328  -13.7348   27.9089 C   0  0  0  0  0  0  0  0  0  0  0  0
   10.0384  -12.8630   28.7501 O   0  0  0  0  0  0  0  0  0  0  0  0
   10.6381  -14.8521   27.6492 C   0  0  0  0  0  0  0  0  0  0  0  0
   10.2091  -15.7299   26.5153 C   0  0  0  0  0  0  0  0  0  0  0  0
   11.2271  -16.8655   26.4123 C   0  0  2  0  0  0  0  0  0  0  0  0
   10.8733  -17.7526   25.3015 N   0  0  0  0  0  0  0  0  0  0  0  0
   11.1685  -17.6720   27.6526 C   0  0  0  0  0  0  0  0  0  0  0  0
   10.4738  -18.7068   27.6828 O   0  0  0  0  0  0  0  0  0  0  0  0
   11.8702  -17.3136   28.8040 O   0  0  0  0  0  0  0  0  0  0  0  0
  2  1  1  1
  2  3  1  0
  4  5  1  0
  4  2  1  0
  5  7  1  0
  5  6  1  6
  7  8  2  0
 10  9  1  6
 10 11  1  0
 10 12  1  0
 12 13  1  6
 13  7  1  0
 14 15  2  0
 14 12  1  0
 16 17  1  0
 17 18  2  0
 17 19  1  0
 19 20  1  0
 21 20  1  1
 21 22  1  0
 21 23  1  0
 22 14  1  0
 23 25  1  0
 24 23  2  0
M  END
$$$$
