SDE.pdb
     RDKit          3D

 24 23  0  0  1  0  0  0  0  0999 V2000
    8.0645  -13.8516   20.6677 O   0  0  0  0  0  0  0  0  0  0  0  0
    8.1839  -12.7605   19.8077 C   0  0  0  0  0  0  0  0  0  0  0  0
    8.5583  -13.2008   18.4046 C   0  0  2  0  0  0  0  0  0  0  0  0
    7.4082  -13.8168   17.7573 N   0  0  0  0  0  0  0  0  0  0  0  0
    9.7072  -14.1267   18.3855 C   0  0  0  0  0  0  0  0  0  0  0  0
    9.7346  -15.0478   17.4845 O   0  0  0  0  0  0  0  0  0  0  0  0
   10.7860  -14.0767   19.2863 N   0  0  0  0  0  0  0  0  0  0  0  0
   11.9599  -14.9494   19.1412 C   0  0  1  0  0  0  0  0  0  0  0  0
   12.6915  -14.4517   17.9284 C   0  0  0  0  0  0  0  0  0  0  0  0
   13.9676  -15.0753   17.6346 C   0  0  0  0  0  0  0  0  0  0  0  0
   15.0203  -14.4256   17.4954 O   0  0  0  0  0  0  0  0  0  0  0  0
   12.7651  -14.9122   20.3774 C   0  0  0  0  0  0  0  0  0  0  0  0
   13.3019  -13.8619   20.7694 O   0  0  0  0  0  0  0  0  0  0  0  0
   14.1123  -16.4700   17.4833 O   0  0  0  0  0  0  0  0  0  0  0  0
   12.9837  -16.0662   21.2068 N   0  0  0  0  0  0  0  0  0  0  0  0
   13.6122  -15.9363   22.5058 C   0  0  1  0  0  0  0  0  0  0  0  0
   13.0281  -16.9540   23.4840 C   0  0  0  0  0  0  0  0  0  0  0  0
   13.6561  -16.7948   24.8591 C   0  0  0  0  0  0  0  0  0  0  0  0
   13.1473  -17.7997   25.8039 C   0  0  0  0  0  0  0  0  0  0  0  0
   13.8609  -18.3958   26.6457 O   0  0  0  0  0  0  0  0  0  0  0  0
   15.0825  -16.0018   22.4676 C   0  0  0  0  0  0  0  0  0  0  0  0
   15.7228  -16.5976   21.5519 O   0  0  0  0  0  0  0  0  0  0  0  0
   11.7956  -18.1189   25.7749 O   0  0  0  0  0  0  0  0  0  0  0  0
   15.7851  -15.3762   23.4871 O   0  0  0  0  0  0  0  0  0  0  0  0
  2  1  1  0
  2  3  1  0
  3  4  1  1
  5  3  1  0
  5  6  2  0
  7  5  1  0
  8  7  1  0
  8 12  1  0
  8  9  1  6
 10 11  2  0
 10  9  1  0
 12 15  1  0
 13 12  2  0
 14 10  1  0
 15 16  1  0
 16 21  1  0
 16 17  1  1
 18 17  1  0
 19 18  1  0
 19 20  2  0
 21 22  2  0
 21 24  1  0
 23 19  1  0
M  END
$$$$
