SDE.pdb
     RDKit          3D

 24 23  0  0  1  0  0  0  0  0999 V2000
    7.6568  -14.5901   22.8829 O   0  0  0  0  0  0  0  0  0  0  0  0
    8.2274  -14.1508   21.6889 C   0  0  0  0  0  0  0  0  0  0  0  0
    8.3749  -15.2881   20.6952 C   0  0  2  0  0  0  0  0  0  0  0  0
    7.0761  -15.8989   20.4479 N   0  0  0  0  0  0  0  0  0  0  0  0
    9.3403  -16.3116   21.1399 C   0  0  0  0  0  0  0  0  0  0  0  0
    8.8818  -17.4136   21.6263 O   0  0  0  0  0  0  0  0  0  0  0  0
   10.7381  -16.1725   21.0702 N   0  0  0  0  0  0  0  0  0  0  0  0
   11.6470  -17.2612   21.4564 C   0  0  1  0  0  0  0  0  0  0  0  0
   12.8204  -17.1634   20.5250 C   0  0  0  0  0  0  0  0  0  0  0  0
   12.5895  -17.5382   19.1430 C   0  0  0  0  0  0  0  0  0  0  0  0
   12.0423  -18.6073   18.8159 O   0  0  0  0  0  0  0  0  0  0  0  0
   12.0071  -17.1286   22.8814 C   0  0  0  0  0  0  0  0  0  0  0  0
   12.4816  -16.0727   23.3341 O   0  0  0  0  0  0  0  0  0  0  0  0
   12.9696  -16.7165   18.0616 O   0  0  0  0  0  0  0  0  0  0  0  0
   11.8379  -18.1906   23.8359 N   0  0  0  0  0  0  0  0  0  0  0  0
   12.2374  -18.0152   25.2176 C   0  0  1  0  0  0  0  0  0  0  0  0
   11.2748  -18.7514   26.1476 C   0  0  0  0  0  0  0  0  0  0  0  0
   11.3008  -20.2456   25.8695 C   0  0  0  0  0  0  0  0  0  0  0  0
   10.4154  -20.9800   26.7849 C   0  0  0  0  0  0  0  0  0  0  0  0
    9.8264  -20.4575   27.7611 O   0  0  0  0  0  0  0  0  0  0  0  0
   13.6381  -18.3809   25.4857 C   0  0  0  0  0  0  0  0  0  0  0  0
   14.3767  -18.9547   24.6321 O   0  0  0  0  0  0  0  0  0  0  0  0
   10.2085  -22.3365   26.5680 O   0  0  0  0  0  0  0  0  0  0  0  0
   14.1593  -18.0751   26.7344 O   0  0  0  0  0  0  0  0  0  0  0  0
  2  1  1  0
  2  3  1  0
  3  4  1  1
  5  3  1  0
  5  6  2  0
  7  5  1  0
  8  7  1  0
  8 12  1  0
  8  9  1  6
 10 11  2  0
 10  9  1  0
 12 15  1  0
 13 12  2  0
 14 10  1  0
 15 16  1  0
 16 21  1  0
 16 17  1  1
 18 17  1  0
 19 18  1  0
 19 20  2  0
 21 22  2  0
 21 24  1  0
 23 19  1  0
M  END
$$$$
