SDE.pdb
     RDKit          3D

 24 23  0  0  1  0  0  0  0  0999 V2000
    9.3125  -16.5752   18.8256 O   0  0  0  0  0  0  0  0  0  0  0  0
    9.8467  -16.9053   17.5806 C   0  0  0  0  0  0  0  0  0  0  0  0
   10.3490  -18.3371   17.5565 C   0  0  2  0  0  0  0  0  0  0  0  0
    9.2392  -19.2533   17.7808 N   0  0  0  0  0  0  0  0  0  0  0  0
   11.4171  -18.5829   18.5444 C   0  0  0  0  0  0  0  0  0  0  0  0
   11.0992  -19.1409   19.6619 O   0  0  0  0  0  0  0  0  0  0  0  0
   12.7705  -18.2510   18.3541 N   0  0  0  0  0  0  0  0  0  0  0  0
   13.7928  -18.5482   19.3675 C   0  0  1  0  0  0  0  0  0  0  0  0
   15.0132  -18.9742   18.6040 C   0  0  0  0  0  0  0  0  0  0  0  0
   16.1934  -19.2922   19.3848 C   0  0  0  0  0  0  0  0  0  0  0  0
   17.3229  -18.8447   19.1136 O   0  0  0  0  0  0  0  0  0  0  0  0
   14.0092  -17.3633   20.2203 C   0  0  0  0  0  0  0  0  0  0  0  0
   14.3246  -16.2640   19.7337 O   0  0  0  0  0  0  0  0  0  0  0  0
   16.1501  -20.1360   20.5139 O   0  0  0  0  0  0  0  0  0  0  0  0
   13.8724  -17.3907   21.6514 N   0  0  0  0  0  0  0  0  0  0  0  0
   14.1052  -16.1980   22.4405 C   0  0  1  0  0  0  0  0  0  0  0  0
   12.8341  -15.7969   23.1869 C   0  0  0  0  0  0  0  0  0  0  0  0
   12.3842  -16.9139   24.1146 C   0  0  0  0  0  0  0  0  0  0  0  0
   11.2117  -16.5169   24.9075 C   0  0  0  0  0  0  0  0  0  0  0  0
   11.1778  -16.5235   26.1613 O   0  0  0  0  0  0  0  0  0  0  0  0
   15.2596  -16.2982   23.3488 C   0  0  0  0  0  0  0  0  0  0  0  0
   15.8590  -17.3884   23.5848 O   0  0  0  0  0  0  0  0  0  0  0  0
   10.0636  -16.1067   24.2416 O   0  0  0  0  0  0  0  0  0  0  0  0
   15.7007  -15.1366   23.9658 O   0  0  0  0  0  0  0  0  0  0  0  0
  2  1  1  0
  2  3  1  0
  3  4  1  1
  5  3  1  0
  5  6  2  0
  7  5  1  0
  8  7  1  0
  8 12  1  0
  8  9  1  6
 10 11  2  0
 10  9  1  0
 12 15  1  0
 13 12  2  0
 14 10  1  0
 15 16  1  0
 16 21  1  0
 16 17  1  1
 18 17  1  0
 19 18  1  0
 19 20  2  0
 21 22  2  0
 21 24  1  0
 23 19  1  0
M  END
$$$$
