SDE.pdb
     RDKit          3D

 24 23  0  0  1  0  0  0  0  0999 V2000
    2.8692  -20.1974   23.7034 O   0  0  0  0  0  0  0  0  0  0  0  0
    2.5736  -19.1808   22.7959 C   0  0  0  0  0  0  0  0  0  0  0  0
    3.5882  -19.1338   21.6685 C   0  0  2  0  0  0  0  0  0  0  0  0
    3.5819  -20.3982   20.9459 N   0  0  0  0  0  0  0  0  0  0  0  0
    4.9518  -18.8268   22.1416 C   0  0  0  0  0  0  0  0  0  0  0  0
    5.8054  -19.7898   22.2119 O   0  0  0  0  0  0  0  0  0  0  0  0
    5.3935  -17.5475   22.5242 N   0  0  0  0  0  0  0  0  0  0  0  0
    6.7556  -17.3138   23.0247 C   0  0  1  0  0  0  0  0  0  0  0  0
    7.1289  -15.9345   22.5644 C   0  0  0  0  0  0  0  0  0  0  0  0
    7.5180  -15.7935   21.1743 C   0  0  0  0  0  0  0  0  0  0  0  0
    8.3766  -16.5171   20.6369 O   0  0  0  0  0  0  0  0  0  0  0  0
    6.7834  -17.4786   24.4910 C   0  0  0  0  0  0  0  0  0  0  0  0
    5.9456  -16.9220   25.2213 O   0  0  0  0  0  0  0  0  0  0  0  0
    6.9512  -14.8217   20.3238 O   0  0  0  0  0  0  0  0  0  0  0  0
    7.7623  -18.2816   25.1723 N   0  0  0  0  0  0  0  0  0  0  0  0
    7.7797  -18.3591   26.6191 C   0  0  1  0  0  0  0  0  0  0  0  0
    7.8416  -19.8162   27.0736 C   0  0  0  0  0  0  0  0  0  0  0  0
    6.4873  -20.4860   26.9065 C   0  0  0  0  0  0  0  0  0  0  0  0
    6.5240  -21.8913   27.3366 C   0  0  0  0  0  0  0  0  0  0  0  0
    7.5246  -22.4396   27.8576 O   0  0  0  0  0  0  0  0  0  0  0  0
    8.8356  -17.5487   27.2483 C   0  0  0  0  0  0  0  0  0  0  0  0
    9.6505  -16.8421   26.5848 O   0  0  0  0  0  0  0  0  0  0  0  0
    5.3886  -22.6724   27.1622 O   0  0  0  0  0  0  0  0  0  0  0  0
    8.9289  -17.5686   28.6323 O   0  0  0  0  0  0  0  0  0  0  0  0
  2  1  1  0
  2  3  1  0
  3  4  1  1
  5  3  1  0
  5  6  2  0
  7  5  1  0
  8  7  1  0
  8 12  1  0
  8  9  1  1
 10 11  2  0
 10  9  1  0
 12 15  1  0
 13 12  2  0
 14 10  1  0
 15 16  1  0
 16 21  1  0
 16 17  1  6
 18 17  1  0
 19 18  1  0
 19 20  2  0
 21 22  2  0
 21 24  1  0
 23 19  1  0
M  END
$$$$
