SDE.pdb
     RDKit          3D

 24 23  0  0  1  0  0  0  0  0999 V2000
   14.3862  -16.7852   17.9662 O   0  0  0  0  0  0  0  0  0  0  0  0
   13.7715  -15.7030   17.3375 C   0  0  0  0  0  0  0  0  0  0  0  0
   13.8523  -14.4497   18.1894 C   0  0  2  0  0  0  0  0  0  0  0  0
   15.1548  -13.8206   18.0193 N   0  0  0  0  0  0  0  0  0  0  0  0
   13.6000  -14.7152   19.6188 C   0  0  0  0  0  0  0  0  0  0  0  0
   14.5932  -14.6475   20.4374 O   0  0  0  0  0  0  0  0  0  0  0  0
   12.3427  -15.0388   20.1595 N   0  0  0  0  0  0  0  0  0  0  0  0
   12.1348  -15.1873   21.6070 C   0  0  1  0  0  0  0  0  0  0  0  0
   10.6469  -15.2094   21.8059 C   0  0  0  0  0  0  0  0  0  0  0  0
   10.1729  -15.3803   23.1660 C   0  0  0  0  0  0  0  0  0  0  0  0
    8.9661  -15.3473   23.4694 O   0  0  0  0  0  0  0  0  0  0  0  0
   12.8164  -16.4053   22.0865 C   0  0  0  0  0  0  0  0  0  0  0  0
   12.6042  -17.5138   21.5657 O   0  0  0  0  0  0  0  0  0  0  0  0
   11.0470  -15.5969   24.2513 O   0  0  0  0  0  0  0  0  0  0  0  0
   13.7606  -16.4012   23.1708 N   0  0  0  0  0  0  0  0  0  0  0  0
   14.4259  -17.6222   23.5781 C   0  0  1  0  0  0  0  0  0  0  0  0
   15.9073  -17.5701   23.2087 C   0  0  0  0  0  0  0  0  0  0  0  0
   16.6530  -16.6132   24.1245 C   0  0  0  0  0  0  0  0  0  0  0  0
   18.0177  -16.3576   23.6413 C   0  0  0  0  0  0  0  0  0  0  0  0
   19.0281  -16.3142   24.3833 O   0  0  0  0  0  0  0  0  0  0  0  0
   14.2318  -17.9639   24.9970 C   0  0  0  0  0  0  0  0  0  0  0  0
   14.6192  -19.0586   25.5021 O   0  0  0  0  0  0  0  0  0  0  0  0
   18.2164  -16.1500   22.2822 O   0  0  0  0  0  0  0  0  0  0  0  0
   13.5953  -17.0337   25.8057 O   0  0  0  0  0  0  0  0  0  0  0  0
  2  1  1  0
  2  3  1  0
  3  4  1  1
  5  3  1  0
  5  6  2  0
  7  5  1  0
  8  7  1  0
  8 12  1  0
  8  9  1  6
 10 11  2  0
 10  9  1  0
 12 15  1  0
 13 12  2  0
 14 10  1  0
 15 16  1  0
 16 21  1  0
 16 17  1  1
 18 17  1  0
 19 18  1  0
 19 20  2  0
 21 22  2  0
 21 24  1  0
 23 19  1  0
M  END
$$$$
