SDE.pdb
     RDKit          3D

 24 23  0  0  1  0  0  0  0  0999 V2000
   10.7731  -16.0170   17.4062 O   0  0  0  0  0  0  0  0  0  0  0  0
    9.4238  -16.2029   17.7048 C   0  0  0  0  0  0  0  0  0  0  0  0
    8.8477  -15.0016   18.4314 C   0  0  2  0  0  0  0  0  0  0  0  0
    8.9106  -13.8279   17.5714 N   0  0  0  0  0  0  0  0  0  0  0  0
    9.5290  -14.7294   19.7116 C   0  0  0  0  0  0  0  0  0  0  0  0
   10.2958  -13.6964   19.7881 O   0  0  0  0  0  0  0  0  0  0  0  0
    9.4010  -15.5215   20.8667 N   0  0  0  0  0  0  0  0  0  0  0  0
   10.1969  -15.2659   22.0757 C   0  0  1  0  0  0  0  0  0  0  0  0
    9.4536  -15.9252   23.2011 C   0  0  0  0  0  0  0  0  0  0  0  0
   10.0489  -15.8302   24.5203 C   0  0  0  0  0  0  0  0  0  0  0  0
   11.1720  -15.3318   24.7198 O   0  0  0  0  0  0  0  0  0  0  0  0
   11.5679  -15.7791   21.8881 C   0  0  0  0  0  0  0  0  0  0  0  0
   11.7770  -16.9411   21.4998 O   0  0  0  0  0  0  0  0  0  0  0  0
    9.3979  -16.2977   25.6807 O   0  0  0  0  0  0  0  0  0  0  0  0
   12.7428  -14.9876   22.1343 N   0  0  0  0  0  0  0  0  0  0  0  0
   14.0657  -15.5592   21.9835 C   0  0  1  0  0  0  0  0  0  0  0  0
   14.9616  -14.6220   21.1755 C   0  0  0  0  0  0  0  0  0  0  0  0
   16.2868  -15.2940   20.8551 C   0  0  0  0  0  0  0  0  0  0  0  0
   17.1437  -14.4305   20.0297 C   0  0  0  0  0  0  0  0  0  0  0  0
   18.3930  -14.3811   20.1290 O   0  0  0  0  0  0  0  0  0  0  0  0
   14.6961  -15.9507   23.2550 C   0  0  0  0  0  0  0  0  0  0  0  0
   14.4489  -15.3726   24.3542 O   0  0  0  0  0  0  0  0  0  0  0  0
   16.5478  -13.6140   19.0768 O   0  0  0  0  0  0  0  0  0  0  0  0
   15.5987  -17.0039   23.2328 O   0  0  0  0  0  0  0  0  0  0  0  0
  2  1  1  0
  2  3  1  0
  3  4  1  6
  5  3  1  0
  5  6  2  0
  7  5  1  0
  8  7  1  0
  8 12  1  0
  8  9  1  1
 10 11  2  0
 10  9  1  0
 12 15  1  0
 13 12  2  0
 14 10  1  0
 15 16  1  0
 16 21  1  0
 16 17  1  1
 18 17  1  0
 19 18  1  0
 19 20  2  0
 21 22  2  0
 21 24  1  0
 23 19  1  0
M  END
$$$$
