SDE.pdb
     RDKit          3D

 24 23  0  0  1  0  0  0  0  0999 V2000
    7.8522  -13.4571   21.4482 O   0  0  0  0  0  0  0  0  0  0  0  0
    8.5258  -13.5735   20.2328 C   0  0  0  0  0  0  0  0  0  0  0  0
    8.3796  -14.9673   19.6509 C   0  0  2  0  0  0  0  0  0  0  0  0
    7.0036  -15.1823   19.2246 N   0  0  0  0  0  0  0  0  0  0  0  0
    8.7891  -16.0248   20.5951 C   0  0  0  0  0  0  0  0  0  0  0  0
    8.3455  -17.2197   20.4040 O   0  0  0  0  0  0  0  0  0  0  0  0
    9.6374  -15.8231   21.6985 N   0  0  0  0  0  0  0  0  0  0  0  0
   10.1343  -16.9428   22.5108 C   0  0  1  0  0  0  0  0  0  0  0  0
   10.9707  -17.7789   21.5859 C   0  0  0  0  0  0  0  0  0  0  0  0
   12.3054  -17.2922   21.2938 C   0  0  0  0  0  0  0  0  0  0  0  0
   13.3225  -17.7275   21.8642 O   0  0  0  0  0  0  0  0  0  0  0  0
   10.8761  -16.4232   23.6761 C   0  0  0  0  0  0  0  0  0  0  0  0
   12.1175  -16.3614   23.6786 O   0  0  0  0  0  0  0  0  0  0  0  0
   12.5521  -16.2848   20.3381 O   0  0  0  0  0  0  0  0  0  0  0  0
   10.2305  -15.9565   24.8731 N   0  0  0  0  0  0  0  0  0  0  0  0
   10.8060  -16.2210   26.1762 C   0  0  1  0  0  0  0  0  0  0  0  0
    9.7474  -16.0676   27.2668 C   0  0  0  0  0  0  0  0  0  0  0  0
   10.3788  -16.1837   28.6446 C   0  0  0  0  0  0  0  0  0  0  0  0
   10.3057  -14.9129   29.3802 C   0  0  0  0  0  0  0  0  0  0  0  0
    9.6152  -13.9308   29.0170 O   0  0  0  0  0  0  0  0  0  0  0  0
   11.5000  -17.5160   26.2714 C   0  0  0  0  0  0  0  0  0  0  0  0
   12.6628  -17.6413   26.7568 O   0  0  0  0  0  0  0  0  0  0  0  0
   11.0404  -14.7765   30.5512 O   0  0  0  0  0  0  0  0  0  0  0  0
   10.8367  -18.6417   25.8054 O   0  0  0  0  0  0  0  0  0  0  0  0
  2  1  1  0
  2  3  1  0
  3  4  1  1
  5  3  1  0
  5  6  2  0
  7  5  1  0
  8  7  1  0
  8 12  1  0
  8  9  1  6
 10 11  2  0
 10  9  1  0
 12 15  1  0
 13 12  2  0
 14 10  1  0
 15 16  1  0
 16 21  1  0
 16 17  1  1
 18 17  1  0
 19 18  1  0
 19 20  2  0
 21 22  2  0
 21 24  1  0
 23 19  1  0
M  END
$$$$
