SDE.pdb
     RDKit          3D

 24 23  0  0  1  0  0  0  0  0999 V2000
    8.8587  -11.6625   18.0197 O   0  0  0  0  0  0  0  0  0  0  0  0
    9.3392  -12.5030   19.0232 C   0  0  0  0  0  0  0  0  0  0  0  0
    8.7846  -13.9082   18.8800 C   0  0  2  0  0  0  0  0  0  0  0  0
    7.3301  -13.8738   18.9457 N   0  0  0  0  0  0  0  0  0  0  0  0
    9.3164  -14.8368   19.8961 C   0  0  0  0  0  0  0  0  0  0  0  0
    8.5256  -15.7333   20.3780 O   0  0  0  0  0  0  0  0  0  0  0  0
   10.6362  -14.8164   20.3814 N   0  0  0  0  0  0  0  0  0  0  0  0
   11.3682  -16.0525   20.6930 C   0  0  1  0  0  0  0  0  0  0  0  0
   11.2549  -16.9140   19.4687 C   0  0  0  0  0  0  0  0  0  0  0  0
   11.7719  -18.2652   19.5717 C   0  0  0  0  0  0  0  0  0  0  0  0
   11.1849  -19.2511   19.0890 O   0  0  0  0  0  0  0  0  0  0  0  0
   12.7591  -15.7283   21.0647 C   0  0  0  0  0  0  0  0  0  0  0  0
   13.7216  -16.1450   20.3977 O   0  0  0  0  0  0  0  0  0  0  0  0
   12.9829  -18.5650   20.2294 O   0  0  0  0  0  0  0  0  0  0  0  0
   13.0991  -14.9199   22.2041 N   0  0  0  0  0  0  0  0  0  0  0  0
   13.7280  -15.5090   23.3690 C   0  0  1  0  0  0  0  0  0  0  0  0
   12.7660  -16.4708   24.0641 C   0  0  0  0  0  0  0  0  0  0  0  0
   13.4207  -17.0896   25.2884 C   0  0  0  0  0  0  0  0  0  0  0  0
   12.5279  -18.0531   25.9485 C   0  0  0  0  0  0  0  0  0  0  0  0
   11.3883  -18.3589   25.5231 O   0  0  0  0  0  0  0  0  0  0  0  0
   15.0255  -16.1462   23.0897 C   0  0  0  0  0  0  0  0  0  0  0  0
   16.1298  -15.6592   23.4731 O   0  0  0  0  0  0  0  0  0  0  0  0
   12.9590  -18.6712   27.1155 O   0  0  0  0  0  0  0  0  0  0  0  0
   15.0225  -17.3347   22.3743 O   0  0  0  0  0  0  0  0  0  0  0  0
  2  1  1  0
  2  3  1  0
  3  4  1  1
  5  3  1  0
  5  6  2  0
  7  5  1  0
  8  7  1  0
  8 12  1  0
  8  9  1  6
 10 11  2  0
 10  9  1  0
 12 15  1  0
 13 12  2  0
 14 10  1  0
 15 16  1  0
 16 21  1  0
 16 17  1  6
 18 17  1  0
 19 18  1  0
 19 20  2  0
 21 22  2  0
 21 24  1  0
 23 19  1  0
M  END
$$$$
