SDE.pdb
     RDKit          3D

 24 23  0  0  1  0  0  0  0  0999 V2000
   15.5222  -20.5358   19.0287 O   0  0  0  0  0  0  0  0  0  0  0  0
   14.5534  -19.8435   18.3031 C   0  0  0  0  0  0  0  0  0  0  0  0
   14.9450  -18.3911   18.1034 C   0  0  2  0  0  0  0  0  0  0  0  0
   16.2180  -18.3154   17.4000 N   0  0  0  0  0  0  0  0  0  0  0  0
   15.0214  -17.6419   19.3724 C   0  0  0  0  0  0  0  0  0  0  0  0
   15.7150  -16.5560   19.4000 O   0  0  0  0  0  0  0  0  0  0  0  0
   14.3856  -18.0288   20.5657 N   0  0  0  0  0  0  0  0  0  0  0  0
   14.4039  -17.1800   21.7657 C   0  0  1  0  0  0  0  0  0  0  0  0
   13.1088  -17.4487   22.4759 C   0  0  0  0  0  0  0  0  0  0  0  0
   12.8586  -16.6896   23.6862 C   0  0  0  0  0  0  0  0  0  0  0  0
   11.9380  -16.9649   24.4775 O   0  0  0  0  0  0  0  0  0  0  0  0
   15.5996  -17.4858   22.5749 C   0  0  0  0  0  0  0  0  0  0  0  0
   15.8464  -18.6436   22.9540 O   0  0  0  0  0  0  0  0  0  0  0  0
   13.6421  -15.5777   24.0586 O   0  0  0  0  0  0  0  0  0  0  0  0
   16.5522  -16.4865   22.9766 N   0  0  0  0  0  0  0  0  0  0  0  0
   17.6691  -16.8299   23.8334 C   0  0  1  0  0  0  0  0  0  0  0  0
   18.8810  -15.9608   23.5023 C   0  0  0  0  0  0  0  0  0  0  0  0
   19.2553  -16.1021   22.0359 C   0  0  0  0  0  0  0  0  0  0  0  0
   20.4710  -15.3409   21.7138 C   0  0  0  0  0  0  0  0  0  0  0  0
   21.6334  -15.7299   21.9797 O   0  0  0  0  0  0  0  0  0  0  0  0
   17.3524  -16.7954   25.2707 C   0  0  0  0  0  0  0  0  0  0  0  0
   18.1705  -17.1595   26.1662 O   0  0  0  0  0  0  0  0  0  0  0  0
   20.3406  -14.1139   21.0756 O   0  0  0  0  0  0  0  0  0  0  0  0
   16.0973  -16.3394   25.6464 O   0  0  0  0  0  0  0  0  0  0  0  0
  2  1  1  0
  2  3  1  0
  3  4  1  1
  5  3  1  0
  5  6  2  0
  7  5  1  0
  8  7  1  0
  8 12  1  0
  8  9  1  1
 10 11  2  0
 10  9  1  0
 12 15  1  0
 13 12  2  0
 14 10  1  0
 15 16  1  0
 16 21  1  0
 16 17  1  1
 18 17  1  0
 19 18  1  0
 19 20  2  0
 21 22  2  0
 21 24  1  0
 23 19  1  0
M  END
$$$$
