SDE.pdb
     RDKit          3D

 24 23  0  0  1  0  0  0  0  0999 V2000
    8.1313  -18.4372   18.6448 O   0  0  0  0  0  0  0  0  0  0  0  0
    8.7631  -18.7487   19.8482 C   0  0  0  0  0  0  0  0  0  0  0  0
    8.4239  -17.7385   20.9285 C   0  0  2  0  0  0  0  0  0  0  0  0
    8.4546  -16.3926   20.3728 N   0  0  0  0  0  0  0  0  0  0  0  0
    9.3247  -17.8265   22.0940 C   0  0  0  0  0  0  0  0  0  0  0  0
    9.3727  -18.9370   22.7465 O   0  0  0  0  0  0  0  0  0  0  0  0
   10.1438  -16.7779   22.5492 N   0  0  0  0  0  0  0  0  0  0  0  0
   11.0663  -16.9483   23.6808 C   0  0  1  0  0  0  0  0  0  0  0  0
   12.1105  -15.8816   23.5209 C   0  0  0  0  0  0  0  0  0  0  0  0
   13.1535  -16.1306   22.5442 C   0  0  0  0  0  0  0  0  0  0  0  0
   13.9197  -15.2400   22.1328 O   0  0  0  0  0  0  0  0  0  0  0  0
   10.3193  -16.8626   24.9507 C   0  0  0  0  0  0  0  0  0  0  0  0
    9.9134  -15.7735   25.3912 O   0  0  0  0  0  0  0  0  0  0  0  0
   13.3786  -17.4054   21.9846 O   0  0  0  0  0  0  0  0  0  0  0  0
   10.0091  -18.0113   25.7580 N   0  0  0  0  0  0  0  0  0  0  0  0
    9.3394  -17.8607   27.0340 C   0  0  1  0  0  0  0  0  0  0  0  0
    8.3314  -18.9895   27.2427 C   0  0  0  0  0  0  0  0  0  0  0  0
    7.5360  -19.2375   25.9713 C   0  0  0  0  0  0  0  0  0  0  0  0
    6.6341  -20.3895   26.1155 C   0  0  0  0  0  0  0  0  0  0  0  0
    6.5416  -21.0820   27.1571 O   0  0  0  0  0  0  0  0  0  0  0  0
   10.2562  -17.7329   28.1788 C   0  0  0  0  0  0  0  0  0  0  0  0
    9.8602  -17.4805   29.3548 O   0  0  0  0  0  0  0  0  0  0  0  0
    5.8284  -20.7447   25.0411 O   0  0  0  0  0  0  0  0  0  0  0  0
   11.6130  -17.9008   27.9434 O   0  0  0  0  0  0  0  0  0  0  0  0
  2  1  1  0
  2  3  1  0
  3  4  1  6
  5  3  1  0
  5  6  2  0
  7  5  1  0
  8  7  1  0
  8 12  1  0
  8  9  1  1
 10 11  2  0
 10  9  1  0
 12 15  1  0
 13 12  2  0
 14 10  1  0
 15 16  1  0
 16 21  1  0
 16 17  1  1
 18 17  1  0
 19 18  1  0
 19 20  2  0
 21 22  2  0
 21 24  1  0
 23 19  1  0
M  END
$$$$
