MYT.pdb
     RDKit          3D

 28 28  0  0  1  0  0  0  0  0999 V2000
    7.8741  -11.5514   20.6813 C   0  0  0  0  0  0  0  0  0  0  0  0
    7.2994  -12.4104   19.2141 S   0  0  0  0  0  0  0  0  0  0  0  0
    8.2780  -13.9102   18.9269 C   0  0  0  0  0  0  0  0  0  0  0  0
    8.5064  -14.5704   20.2742 C   0  0  0  0  0  0  0  0  0  0  0  0
    9.2857  -15.8502   20.0525 C   0  0  2  0  0  0  0  0  0  0  0  0
    8.4580  -16.7495   19.2633 N   0  0  0  0  0  0  0  0  0  0  0  0
    9.6433  -16.5187   21.3061 C   0  0  0  0  0  0  0  0  0  0  0  0
    8.8715  -17.3848   21.8347 O   0  0  0  0  0  0  0  0  0  0  0  0
   12.9498  -22.0782   20.3383 O   0  0  0  0  0  0  0  0  0  0  0  0
   12.8547  -20.8844   21.0417 C   0  0  0  0  0  0  0  0  0  0  0  0
   13.0398  -19.6734   20.4416 C   0  0  0  0  0  0  0  0  0  0  0  0
   12.9324  -18.5154   21.1943 C   0  0  0  0  0  0  0  0  0  0  0  0
   12.6423  -18.5414   22.5418 C   0  0  0  0  0  0  0  0  0  0  0  0
   12.5261  -17.3061   23.3555 C   0  0  0  0  0  0  0  0  0  0  0  0
   11.0859  -16.7809   23.3471 C   0  0  2  0  0  0  0  0  0  0  0  0
   10.8467  -16.2716   22.0267 N   0  0  0  0  0  0  0  0  0  0  0  0
   10.9858  -15.7457   24.4041 C   0  0  0  0  0  0  0  0  0  0  0  0
   11.1901  -14.5221   24.2089 O   0  0  0  0  0  0  0  0  0  0  0  0
   12.4614  -19.7809   23.1164 C   0  0  0  0  0  0  0  0  0  0  0  0
   12.5664  -20.9438   22.3741 C   0  0  0  0  0  0  0  0  0  0  0  0
    7.8940  -15.0278   26.3242 C   0  0  0  0  0  0  0  0  0  0  0  0
    9.1963  -14.3577   26.6762 C   0  0  1  0  0  0  0  0  0  0  0  0
    9.0665  -13.4573   27.7305 O   0  0  0  0  0  0  0  0  0  0  0  0
   10.3459  -15.2806   26.8071 C   0  0  2  0  0  0  0  0  0  0  0  0
   10.6439  -16.1265   25.7107 N   0  0  0  0  0  0  0  0  0  0  0  0
   10.1925  -16.0515   28.0753 C   0  0  0  0  0  0  0  0  0  0  0  0
   10.1709  -15.4034   29.3014 O   0  0  0  0  0  0  0  0  0  0  0  0
   10.0800  -17.2969   28.0634 O   0  0  0  0  0  0  0  0  0  0  0  0
  2  1  1  0
  3  2  1  0
  4  3  1  0
  5  4  1  0
  5  6  1  6
  7  8  2  0
  7  5  1  0
  9 10  1  0
 10 20  2  0
 11 12  2  0
 11 10  1  0
 12 13  1  0
 13 14  1  0
 13 19  2  0
 15 14  1  6
 15 16  1  0
 16  7  1  0
 17 15  1  0
 18 17  2  0
 20 19  1  0
 22 24  1  0
 22 21  1  1
 23 22  1  0
 24 25  1  6
 25 17  1  0
 26 27  1  0
 26 24  1  0
 28 26  2  0
M  END
$$$$
