MYT.pdb
     RDKit          3D

 28 28  0  0  1  0  0  0  0  0999 V2000
    6.5372  -10.4473   25.9421 C   0  0  0  0  0  0  0  0  0  0  0  0
    5.4940  -11.7772   26.5454 S   0  0  0  0  0  0  0  0  0  0  0  0
    5.7732  -13.2928   25.5892 C   0  0  0  0  0  0  0  0  0  0  0  0
    7.2478  -13.3424   25.2338 C   0  0  0  0  0  0  0  0  0  0  0  0
    7.4783  -14.5262   24.3173 C   0  0  2  0  0  0  0  0  0  0  0  0
    6.6334  -15.6192   24.7737 N   0  0  0  0  0  0  0  0  0  0  0  0
    8.8719  -14.9777   24.3166 C   0  0  0  0  0  0  0  0  0  0  0  0
    9.8155  -14.2032   23.9492 O   0  0  0  0  0  0  0  0  0  0  0  0
   11.2420  -14.7675   30.6548 O   0  0  0  0  0  0  0  0  0  0  0  0
   11.1481  -15.5208   29.4918 C   0  0  0  0  0  0  0  0  0  0  0  0
   11.1102  -16.8842   29.5130 C   0  0  0  0  0  0  0  0  0  0  0  0
   11.0160  -17.5829   28.3205 C   0  0  0  0  0  0  0  0  0  0  0  0
   10.9584  -16.9448   27.0998 C   0  0  0  0  0  0  0  0  0  0  0  0
   10.8579  -17.6853   25.8179 C   0  0  0  0  0  0  0  0  0  0  0  0
   10.6531  -16.7199   24.6449 C   0  0  2  0  0  0  0  0  0  0  0  0
    9.2885  -16.2805   24.7135 N   0  0  0  0  0  0  0  0  0  0  0  0
   10.9708  -17.4611   23.4005 C   0  0  0  0  0  0  0  0  0  0  0  0
   11.6344  -18.5269   23.3691 O   0  0  0  0  0  0  0  0  0  0  0  0
   10.9988  -15.5674   27.1143 C   0  0  0  0  0  0  0  0  0  0  0  0
   11.0929  -14.8595   28.2995 C   0  0  0  0  0  0  0  0  0  0  0  0
    9.8386  -17.9861   18.5593 C   0  0  0  0  0  0  0  0  0  0  0  0
    9.6462  -17.2575   19.8635 C   0  0  1  0  0  0  0  0  0  0  0  0
    8.3353  -17.3293   20.3277 O   0  0  0  0  0  0  0  0  0  0  0  0
   10.6688  -17.5569   20.8906 C   0  0  2  0  0  0  0  0  0  0  0  0
   10.5160  -16.9661   22.1689 N   0  0  0  0  0  0  0  0  0  0  0  0
   12.0163  -17.2827   20.3116 C   0  0  0  0  0  0  0  0  0  0  0  0
   12.4608  -17.9703   19.1921 O   0  0  0  0  0  0  0  0  0  0  0  0
   12.7753  -16.4289   20.8204 O   0  0  0  0  0  0  0  0  0  0  0  0
  2  1  1  0
  3  2  1  0
  4  3  1  0
  5  4  1  0
  5  6  1  1
  7  8  2  0
  7  5  1  0
  9 10  1  0
 10 20  2  0
 11 12  2  0
 11 10  1  0
 12 13  1  0
 13 14  1  0
 13 19  2  0
 15 14  1  1
 15 16  1  0
 16  7  1  0
 17 15  1  0
 18 17  2  0
 20 19  1  0
 22 24  1  0
 22 21  1  6
 23 22  1  0
 24 25  1  1
 25 17  1  0
 26 27  1  0
 26 24  1  0
 28 26  2  0
M  END
$$$$
