MYT.pdb
     RDKit          3D

 28 28  0  0  1  0  0  0  0  0999 V2000
    8.0341  -11.3881   20.0404 C   0  0  0  0  0  0  0  0  0  0  0  0
    6.8426  -12.6827   19.6863 S   0  0  0  0  0  0  0  0  0  0  0  0
    7.6775  -14.1664   19.0610 C   0  0  0  0  0  0  0  0  0  0  0  0
    8.9743  -14.3197   19.8342 C   0  0  0  0  0  0  0  0  0  0  0  0
    8.9240  -15.6279   20.5960 C   0  0  2  0  0  0  0  0  0  0  0  0
    7.5264  -15.9918   20.7724 N   0  0  0  0  0  0  0  0  0  0  0  0
    9.5568  -15.5392   21.9143 C   0  0  0  0  0  0  0  0  0  0  0  0
   10.8082  -15.3261   22.0316 O   0  0  0  0  0  0  0  0  0  0  0  0
   10.7974  -14.9323   30.6165 O   0  0  0  0  0  0  0  0  0  0  0  0
   10.2302  -15.0179   29.3516 C   0  0  0  0  0  0  0  0  0  0  0  0
    9.6654  -16.1697   28.8876 C   0  0  0  0  0  0  0  0  0  0  0  0
    9.1145  -16.1957   27.6167 C   0  0  0  0  0  0  0  0  0  0  0  0
    9.1157  -15.0891   26.7946 C   0  0  0  0  0  0  0  0  0  0  0  0
    8.5285  -15.1084   25.4321 C   0  0  0  0  0  0  0  0  0  0  0  0
    9.5144  -15.7054   24.4215 C   0  0  2  0  0  0  0  0  0  0  0  0
    8.8561  -15.6779   23.1464 N   0  0  0  0  0  0  0  0  0  0  0  0
    9.8467  -17.0750   24.8828 C   0  0  0  0  0  0  0  0  0  0  0  0
    8.9885  -17.9394   25.1885 O   0  0  0  0  0  0  0  0  0  0  0  0
    9.6941  -13.9423   27.2943 C   0  0  0  0  0  0  0  0  0  0  0  0
   10.2472  -13.9052   28.5620 C   0  0  0  0  0  0  0  0  0  0  0  0
   11.2759  -20.0172   23.1491 C   0  0  0  0  0  0  0  0  0  0  0  0
   12.2837  -19.5195   24.1519 C   0  0  1  0  0  0  0  0  0  0  0  0
   13.3816  -18.9105   23.5494 O   0  0  0  0  0  0  0  0  0  0  0  0
   11.7040  -18.7476   25.2736 C   0  0  2  0  0  0  0  0  0  0  0  0
   11.1923  -17.4566   24.9943 N   0  0  0  0  0  0  0  0  0  0  0  0
   12.6919  -18.7215   26.3914 C   0  0  0  0  0  0  0  0  0  0  0  0
   12.9382  -19.8580   27.1474 O   0  0  0  0  0  0  0  0  0  0  0  0
   13.3200  -17.6774   26.6728 O   0  0  0  0  0  0  0  0  0  0  0  0
  2  1  1  0
  3  2  1  0
  4  3  1  0
  5  4  1  0
  5  6  1  1
  7  8  2  0
  7  5  1  0
  9 10  1  0
 10 20  2  0
 11 12  2  0
 11 10  1  0
 12 13  1  0
 13 14  1  0
 13 19  2  0
 15 14  1  1
 15 16  1  0
 16  7  1  0
 17 15  1  0
 18 17  2  0
 20 19  1  0
 22 24  1  0
 22 21  1  6
 23 22  1  0
 24 25  1  6
 25 17  1  0
 26 27  1  0
 26 24  1  0
 28 26  2  0
M  END
$$$$
