MYT.pdb
     RDKit          3D

 28 28  0  0  1  0  0  0  0  0999 V2000
    8.1132  -12.2081   18.1051 C   0  0  0  0  0  0  0  0  0  0  0  0
    7.9562  -13.7010   17.1215 S   0  0  0  0  0  0  0  0  0  0  0  0
    8.3391  -15.1668   18.1186 C   0  0  0  0  0  0  0  0  0  0  0  0
    9.5754  -14.8493   18.9396 C   0  0  0  0  0  0  0  0  0  0  0  0
    9.7987  -15.9797   19.9227 C   0  0  2  0  0  0  0  0  0  0  0  0
    8.7693  -16.9825   19.6960 N   0  0  0  0  0  0  0  0  0  0  0  0
    9.7261  -15.5384   21.3177 C   0  0  0  0  0  0  0  0  0  0  0  0
   10.6829  -14.8890   21.8542 O   0  0  0  0  0  0  0  0  0  0  0  0
    7.1719  -12.2149   28.8875 O   0  0  0  0  0  0  0  0  0  0  0  0
    7.2150  -12.7969   27.6272 C   0  0  0  0  0  0  0  0  0  0  0  0
    7.8272  -12.1902   26.5699 C   0  0  0  0  0  0  0  0  0  0  0  0
    7.8387  -12.8188   25.3354 C   0  0  0  0  0  0  0  0  0  0  0  0
    7.2481  -14.0480   25.1335 C   0  0  0  0  0  0  0  0  0  0  0  0
    7.2553  -14.7281   23.8147 C   0  0  0  0  0  0  0  0  0  0  0  0
    8.6024  -15.4147   23.5623 C   0  0  2  0  0  0  0  0  0  0  0  0
    8.6164  -15.7851   22.1757 N   0  0  0  0  0  0  0  0  0  0  0  0
    8.6877  -16.5746   24.4821 C   0  0  0  0  0  0  0  0  0  0  0  0
    7.8211  -17.4810   24.5500 O   0  0  0  0  0  0  0  0  0  0  0  0
    6.6387  -14.6329   26.2223 C   0  0  0  0  0  0  0  0  0  0  0  0
    6.6212  -14.0139   27.4597 C   0  0  0  0  0  0  0  0  0  0  0  0
   11.0350  -19.3735   24.4338 C   0  0  0  0  0  0  0  0  0  0  0  0
   11.2562  -18.6558   25.7395 C   0  0  1  0  0  0  0  0  0  0  0  0
   12.5024  -18.0379   25.8056 O   0  0  0  0  0  0  0  0  0  0  0  0
   10.1306  -17.7940   26.1647 C   0  0  2  0  0  0  0  0  0  0  0  0
    9.7915  -16.6932   25.3404 N   0  0  0  0  0  0  0  0  0  0  0  0
   10.3613  -17.3766   27.5784 C   0  0  0  0  0  0  0  0  0  0  0  0
   10.5722  -16.0438   27.8993 O   0  0  0  0  0  0  0  0  0  0  0  0
   10.3700  -18.2159   28.5055 O   0  0  0  0  0  0  0  0  0  0  0  0
  2  1  1  0
  3  2  1  0
  4  3  1  0
  5  4  1  0
  5  6  1  1
  7  8  2  0
  7  5  1  0
  9 10  1  0
 10 20  2  0
 11 12  2  0
 11 10  1  0
 12 13  1  0
 13 14  1  0
 13 19  2  0
 15 14  1  1
 15 16  1  0
 16  7  1  0
 17 15  1  0
 18 17  2  0
 20 19  1  0
 22 24  1  0
 22 21  1  6
 23 22  1  0
 24 25  1  6
 25 17  1  0
 26 27  1  0
 26 24  1  0
 28 26  2  0
M  END
$$$$
