MYT.pdb
     RDKit          3D

 28 28  0  0  1  0  0  0  0  0999 V2000
    6.3052  -11.5308   26.3518 C   0  0  0  0  0  0  0  0  0  0  0  0
    4.9035  -12.5409   26.8374 S   0  0  0  0  0  0  0  0  0  0  0  0
    4.8341  -14.0576   25.8453 C   0  0  0  0  0  0  0  0  0  0  0  0
    6.2567  -14.5600   25.6806 C   0  0  0  0  0  0  0  0  0  0  0  0
    6.2583  -15.6532   24.6321 C   0  0  2  0  0  0  0  0  0  0  0  0
    5.5827  -16.8138   25.1917 N   0  0  0  0  0  0  0  0  0  0  0  0
    7.6103  -16.0460   24.2270 C   0  0  0  0  0  0  0  0  0  0  0  0
    8.0256  -17.2405   24.3879 O   0  0  0  0  0  0  0  0  0  0  0  0
    7.2904  -13.6638   17.7512 O   0  0  0  0  0  0  0  0  0  0  0  0
    8.0519  -13.8125   18.9031 C   0  0  0  0  0  0  0  0  0  0  0  0
    8.1146  -12.8423   19.8601 C   0  0  0  0  0  0  0  0  0  0  0  0
    8.8913  -13.0464   20.9889 C   0  0  0  0  0  0  0  0  0  0  0  0
    9.6110  -14.2061   21.1834 C   0  0  0  0  0  0  0  0  0  0  0  0
   10.4457  -14.4327   22.3890 C   0  0  0  0  0  0  0  0  0  0  0  0
    9.8732  -15.5698   23.2430 C   0  0  2  0  0  0  0  0  0  0  0  0
    8.5549  -15.1595   23.6351 N   0  0  0  0  0  0  0  0  0  0  0  0
   10.7927  -15.7691   24.3892 C   0  0  0  0  0  0  0  0  0  0  0  0
   12.0047  -16.0761   24.2707 O   0  0  0  0  0  0  0  0  0  0  0  0
    9.5254  -15.1653   20.1976 C   0  0  0  0  0  0  0  0  0  0  0  0
    8.7527  -14.9718   19.0662 C   0  0  0  0  0  0  0  0  0  0  0  0
   11.6225  -14.5812   29.1155 C   0  0  0  0  0  0  0  0  0  0  0  0
   10.6479  -14.6821   27.9714 C   0  0  1  0  0  0  0  0  0  0  0  0
   10.2355  -13.4351   27.5087 O   0  0  0  0  0  0  0  0  0  0  0  0
   11.0526  -15.6208   26.9012 C   0  0  2  0  0  0  0  0  0  0  0  0
   10.3077  -15.6122   25.6965 N   0  0  0  0  0  0  0  0  0  0  0  0
   11.1474  -16.9911   27.4837 C   0  0  0  0  0  0  0  0  0  0  0  0
   10.4475  -18.0499   26.9243 O   0  0  0  0  0  0  0  0  0  0  0  0
   11.8580  -17.2175   28.4875 O   0  0  0  0  0  0  0  0  0  0  0  0
  2  1  1  0
  3  2  1  0
  4  3  1  0
  5  4  1  0
  5  6  1  1
  7  8  2  0
  7  5  1  0
  9 10  1  0
 10 20  2  0
 11 12  2  0
 11 10  1  0
 12 13  1  0
 13 14  1  0
 13 19  2  0
 15 14  1  6
 15 16  1  0
 16  7  1  0
 17 15  1  0
 18 17  2  0
 20 19  1  0
 22 24  1  0
 22 21  1  1
 23 22  1  0
 24 25  1  6
 25 17  1  0
 26 27  1  0
 26 24  1  0
 28 26  2  0
M  END
$$$$
