MYT.pdb
     RDKit          3D

 28 28  0  0  1  0  0  0  0  0999 V2000
    6.5471  -18.4172   19.3133 C   0  0  0  0  0  0  0  0  0  0  0  0
    6.6315  -17.2183   17.9805 S   0  0  0  0  0  0  0  0  0  0  0  0
    6.7694  -15.5353   18.6422 C   0  0  0  0  0  0  0  0  0  0  0  0
    7.7569  -15.5777   19.7938 C   0  0  0  0  0  0  0  0  0  0  0  0
    7.7267  -14.2370   20.4981 C   0  0  2  0  0  0  0  0  0  0  0  0
    8.2917  -13.2436   19.5977 N   0  0  0  0  0  0  0  0  0  0  0  0
    8.4978  -14.2353   21.7437 C   0  0  0  0  0  0  0  0  0  0  0  0
    9.7681  -14.1298   21.7324 O   0  0  0  0  0  0  0  0  0  0  0  0
   10.6083  -14.9073   30.2900 O   0  0  0  0  0  0  0  0  0  0  0  0
    9.9149  -14.7625   29.0953 C   0  0  0  0  0  0  0  0  0  0  0  0
    9.1782  -15.7771   28.5580 C   0  0  0  0  0  0  0  0  0  0  0  0
    8.5073  -15.5745   27.3630 C   0  0  0  0  0  0  0  0  0  0  0  0
    8.5568  -14.3727   26.6893 C   0  0  0  0  0  0  0  0  0  0  0  0
    7.8418  -14.1474   25.4088 C   0  0  0  0  0  0  0  0  0  0  0  0
    8.6905  -14.6140   24.2206 C   0  0  2  0  0  0  0  0  0  0  0  0
    7.9189  -14.3471   23.0402 N   0  0  0  0  0  0  0  0  0  0  0  0
    8.9796  -16.0545   24.4214 C   0  0  0  0  0  0  0  0  0  0  0  0
    8.0947  -16.9395   24.5255 O   0  0  0  0  0  0  0  0  0  0  0  0
    9.3098  -13.3693   27.2597 C   0  0  0  0  0  0  0  0  0  0  0  0
    9.9840  -13.5608   28.4527 C   0  0  0  0  0  0  0  0  0  0  0  0
   10.8446  -18.4301   22.0869 C   0  0  0  0  0  0  0  0  0  0  0  0
   11.6082  -18.2749   23.3760 C   0  0  1  0  0  0  0  0  0  0  0  0
   12.7997  -17.5734   23.2105 O   0  0  0  0  0  0  0  0  0  0  0  0
   10.7912  -17.8174   24.5222 C   0  0  2  0  0  0  0  0  0  0  0  0
   10.3128  -16.4844   24.5040 N   0  0  0  0  0  0  0  0  0  0  0  0
   11.5293  -18.1235   25.7822 C   0  0  0  0  0  0  0  0  0  0  0  0
   11.8370  -19.4320   26.1243 O   0  0  0  0  0  0  0  0  0  0  0  0
   11.8872  -17.2104   26.5580 O   0  0  0  0  0  0  0  0  0  0  0  0
  2  1  1  0
  3  2  1  0
  4  3  1  0
  5  4  1  0
  5  6  1  6
  7  8  2  0
  7  5  1  0
  9 10  1  0
 10 20  2  0
 11 12  2  0
 11 10  1  0
 12 13  1  0
 13 14  1  0
 13 19  2  0
 15 14  1  1
 15 16  1  0
 16  7  1  0
 17 15  1  0
 18 17  2  0
 20 19  1  0
 22 24  1  0
 22 21  1  6
 23 22  1  0
 24 25  1  6
 25 17  1  0
 26 27  1  0
 26 24  1  0
 28 26  2  0
M  END
$$$$
