MYT.pdb
     RDKit          3D

 28 28  0  0  1  0  0  0  0  0999 V2000
    8.5360  -11.1482   20.0239 C   0  0  0  0  0  0  0  0  0  0  0  0
    7.0861  -12.0773   19.5185 S   0  0  0  0  0  0  0  0  0  0  0  0
    7.0378  -13.6888   20.3492 C   0  0  0  0  0  0  0  0  0  0  0  0
    8.0431  -14.5895   19.6554 C   0  0  0  0  0  0  0  0  0  0  0  0
    8.1293  -15.8908   20.4259 C   0  0  2  0  0  0  0  0  0  0  0  0
    6.7737  -16.3309   20.7179 N   0  0  0  0  0  0  0  0  0  0  0  0
    8.8612  -15.7535   21.6875 C   0  0  0  0  0  0  0  0  0  0  0  0
   10.1204  -15.5553   21.7007 O   0  0  0  0  0  0  0  0  0  0  0  0
   10.5683  -14.6294   30.2780 O   0  0  0  0  0  0  0  0  0  0  0  0
    9.9398  -14.8024   29.0516 C   0  0  0  0  0  0  0  0  0  0  0  0
    9.4775  -16.0179   28.6398 C   0  0  0  0  0  0  0  0  0  0  0  0
    8.8584  -16.1301   27.4055 C   0  0  0  0  0  0  0  0  0  0  0  0
    8.6901  -15.0473   26.5690 C   0  0  0  0  0  0  0  0  0  0  0  0
    8.0288  -15.1586   25.2454 C   0  0  0  0  0  0  0  0  0  0  0  0
    8.9976  -15.7166   24.1966 C   0  0  2  0  0  0  0  0  0  0  0  0
    8.2541  -15.8258   22.9738 N   0  0  0  0  0  0  0  0  0  0  0  0
    9.4946  -17.0193   24.7014 C   0  0  0  0  0  0  0  0  0  0  0  0
    8.7597  -17.8995   25.2134 O   0  0  0  0  0  0  0  0  0  0  0  0
    9.1686  -13.8346   27.0156 C   0  0  0  0  0  0  0  0  0  0  0  0
    9.7885  -13.7112   28.2464 C   0  0  0  0  0  0  0  0  0  0  0  0
   11.5644  -19.7823   22.7783 C   0  0  0  0  0  0  0  0  0  0  0  0
   12.3422  -19.1814   23.9196 C   0  0  1  0  0  0  0  0  0  0  0  0
   13.4183  -18.4110   23.4863 O   0  0  0  0  0  0  0  0  0  0  0  0
   11.5089  -18.5287   24.9541 C   0  0  2  0  0  0  0  0  0  0  0  0
   10.8638  -17.3141   24.6152 N   0  0  0  0  0  0  0  0  0  0  0  0
   12.3183  -18.3966   26.2005 C   0  0  0  0  0  0  0  0  0  0  0  0
   12.7213  -19.5199   26.9073 O   0  0  0  0  0  0  0  0  0  0  0  0
   12.6520  -17.2731   26.6367 O   0  0  0  0  0  0  0  0  0  0  0  0
  2  1  1  0
  3  2  1  0
  4  3  1  0
  5  4  1  0
  5  6  1  1
  7  8  2  0
  7  5  1  0
  9 10  1  0
 10 20  2  0
 11 12  2  0
 11 10  1  0
 12 13  1  0
 13 14  1  0
 13 19  2  0
 15 14  1  1
 15 16  1  0
 16  7  1  0
 17 15  1  0
 18 17  2  0
 20 19  1  0
 22 24  1  0
 22 21  1  6
 23 22  1  0
 24 25  1  6
 25 17  1  0
 26 27  1  0
 26 24  1  0
 28 26  2  0
M  END
$$$$
