MYT.pdb
     RDKit          3D

 28 28  0  0  1  0  0  0  0  0999 V2000
    7.5497  -12.4692   21.1054 C   0  0  0  0  0  0  0  0  0  0  0  0
    7.6987  -13.0932   19.4293 S   0  0  0  0  0  0  0  0  0  0  0  0
    7.1396  -14.8160   19.3365 C   0  0  0  0  0  0  0  0  0  0  0  0
    7.3729  -15.4450   20.6978 C   0  0  0  0  0  0  0  0  0  0  0  0
    8.8666  -15.5371   20.9313 C   0  0  2  0  0  0  0  0  0  0  0  0
    9.4080  -16.5135   19.9983 N   0  0  0  0  0  0  0  0  0  0  0  0
    9.2010  -15.9543   22.2952 C   0  0  0  0  0  0  0  0  0  0  0  0
    9.4166  -17.1791   22.5757 O   0  0  0  0  0  0  0  0  0  0  0  0
   10.9318  -15.4232   30.9825 O   0  0  0  0  0  0  0  0  0  0  0  0
   10.6190  -15.1662   29.6539 C   0  0  0  0  0  0  0  0  0  0  0  0
   11.1928  -15.8582   28.6279 C   0  0  0  0  0  0  0  0  0  0  0  0
   10.8417  -15.5580   27.3218 C   0  0  0  0  0  0  0  0  0  0  0  0
    9.9239  -14.5755   27.0171 C   0  0  0  0  0  0  0  0  0  0  0  0
    9.5425  -14.2471   25.6212 C   0  0  0  0  0  0  0  0  0  0  0  0
    9.5633  -15.5017   24.7405 C   0  0  2  0  0  0  0  0  0  0  0  0
    9.3130  -15.0600   23.3980 N   0  0  0  0  0  0  0  0  0  0  0  0
    8.5252  -16.4246   25.2596 C   0  0  0  0  0  0  0  0  0  0  0  0
    7.3148  -16.1163   25.3904 O   0  0  0  0  0  0  0  0  0  0  0  0
    9.3635  -13.8960   28.0769 C   0  0  0  0  0  0  0  0  0  0  0  0
    9.7070  -14.1875   29.3852 C   0  0  0  0  0  0  0  0  0  0  0  0
    6.8611  -19.5012   23.9703 C   0  0  0  0  0  0  0  0  0  0  0  0
    7.7558  -19.8750   25.1230 C   0  0  1  0  0  0  0  0  0  0  0  0
    8.8898  -20.5729   24.7151 O   0  0  0  0  0  0  0  0  0  0  0  0
    8.0329  -18.7705   26.0683 C   0  0  2  0  0  0  0  0  0  0  0  0
    8.8873  -17.7271   25.6354 N   0  0  0  0  0  0  0  0  0  0  0  0
    8.4878  -19.3575   27.3624 C   0  0  0  0  0  0  0  0  0  0  0  0
    7.6520  -20.1829   28.0999 O   0  0  0  0  0  0  0  0  0  0  0  0
    9.6303  -19.1201   27.8120 O   0  0  0  0  0  0  0  0  0  0  0  0
  2  1  1  0
  3  2  1  0
  4  3  1  0
  5  4  1  0
  5  6  1  6
  7  8  2  0
  7  5  1  0
  9 10  1  0
 10 20  2  0
 11 12  2  0
 11 10  1  0
 12 13  1  0
 13 14  1  0
 13 19  2  0
 15 14  1  1
 15 16  1  0
 16  7  1  0
 17 15  1  0
 18 17  2  0
 20 19  1  0
 22 24  1  0
 22 21  1  6
 23 22  1  0
 24 25  1  6
 25 17  1  0
 26 27  1  0
 26 24  1  0
 28 26  2  0
M  END
$$$$
