MYT.pdb
     RDKit          3D

 28 28  0  0  1  0  0  0  0  0999 V2000
    7.4929  -11.1945   19.5093 C   0  0  0  0  0  0  0  0  0  0  0  0
    6.8162  -12.4244   18.3911 S   0  0  0  0  0  0  0  0  0  0  0  0
    7.3250  -14.0919   18.8911 C   0  0  0  0  0  0  0  0  0  0  0  0
    8.2393  -13.9481   20.0938 C   0  0  0  0  0  0  0  0  0  0  0  0
    8.6516  -15.3330   20.5482 C   0  0  2  0  0  0  0  0  0  0  0  0
    7.4472  -16.1371   20.6884 N   0  0  0  0  0  0  0  0  0  0  0  0
    9.3602  -15.3197   21.8303 C   0  0  0  0  0  0  0  0  0  0  0  0
   10.6136  -15.0946   21.8884 O   0  0  0  0  0  0  0  0  0  0  0  0
   10.8775  -15.4153   30.5370 O   0  0  0  0  0  0  0  0  0  0  0  0
   10.2879  -15.3297   29.2824 C   0  0  0  0  0  0  0  0  0  0  0  0
   10.2022  -14.1507   28.6014 C   0  0  0  0  0  0  0  0  0  0  0  0
    9.6029  -14.1260   27.3527 C   0  0  0  0  0  0  0  0  0  0  0  0
    9.0843  -15.2607   26.7661 C   0  0  0  0  0  0  0  0  0  0  0  0
    8.4404  -15.2431   25.4294 C   0  0  0  0  0  0  0  0  0  0  0  0
    9.4579  -15.5664   24.3294 C   0  0  2  0  0  0  0  0  0  0  0  0
    8.7353  -15.5491   23.0894 N   0  0  0  0  0  0  0  0  0  0  0  0
   10.0492  -16.8885   24.6475 C   0  0  0  0  0  0  0  0  0  0  0  0
    9.3753  -17.9323   24.8305 O   0  0  0  0  0  0  0  0  0  0  0  0
    9.1875  -16.4344   27.4809 C   0  0  0  0  0  0  0  0  0  0  0  0
    9.7840  -16.4705   28.7288 C   0  0  0  0  0  0  0  0  0  0  0  0
   14.1857  -19.6278   24.3625 C   0  0  0  0  0  0  0  0  0  0  0  0
   13.3897  -18.3844   24.0642 C   0  0  1  0  0  0  0  0  0  0  0  0
   13.1468  -18.2187   22.7030 O   0  0  0  0  0  0  0  0  0  0  0  0
   12.1952  -18.2004   24.9185 C   0  0  2  0  0  0  0  0  0  0  0  0
   11.4427  -17.0113   24.7572 N   0  0  0  0  0  0  0  0  0  0  0  0
   12.5921  -18.4158   26.3406 C   0  0  0  0  0  0  0  0  0  0  0  0
   12.4523  -19.6609   26.9354 O   0  0  0  0  0  0  0  0  0  0  0  0
   13.0590  -17.4816   27.0284 O   0  0  0  0  0  0  0  0  0  0  0  0
  2  1  1  0
  3  2  1  0
  4  3  1  0
  5  4  1  0
  5  6  1  1
  7  8  2  0
  7  5  1  0
  9 10  1  0
 10 20  2  0
 11 12  2  0
 11 10  1  0
 12 13  1  0
 13 14  1  0
 13 19  2  0
 15 14  1  1
 15 16  1  0
 16  7  1  0
 17 15  1  0
 18 17  2  0
 20 19  1  0
 22 24  1  0
 22 21  1  6
 23 22  1  0
 24 25  1  1
 25 17  1  0
 26 27  1  0
 26 24  1  0
 28 26  2  0
M  END
$$$$
