ENY.pdb
     RDKit          3D

 30 30  0  0  1  0  0  0  0  0999 V2000
    9.8852  -13.4042   20.0203 N   0  0  0  0  0  0  0  0  0  0  0  0
    8.5066  -13.9245   20.2026 C   0  0  1  0  0  0  0  0  0  0  0  0
    7.9616  -14.2234   18.8255 C   0  0  0  0  0  0  0  0  0  0  0  0
    8.4606  -13.3411   17.7372 C   0  0  0  0  0  0  0  0  0  0  0  0
    7.7580  -13.7033   16.4566 C   0  0  0  0  0  0  0  0  0  0  0  0
    8.1266  -13.1360   15.4044 O   0  0  0  0  0  0  0  0  0  0  0  0
    8.6205  -15.0774   21.0865 C   0  0  0  0  0  0  0  0  0  0  0  0
    7.5836  -15.7005   21.5110 O   0  0  0  0  0  0  0  0  0  0  0  0
    6.7345  -14.6242   16.3885 O   0  0  0  0  0  0  0  0  0  0  0  0
   10.0477  -19.4544   20.6570 N   0  0  0  0  0  0  0  0  0  0  0  0
   10.8834  -18.2823   20.8305 C   0  0  0  0  0  0  0  0  0  0  0  0
   11.4403  -17.9023   19.7686 O   0  0  0  0  0  0  0  0  0  0  0  0
   11.0321  -17.6389   22.1392 C   0  0  0  0  0  0  0  0  0  0  0  0
    9.8753  -16.7743   22.4703 C   0  0  2  0  0  0  0  0  0  0  0  0
    9.8474  -15.6431   21.5737 N   0  0  0  0  0  0  0  0  0  0  0  0
    9.8225  -16.3602   23.8928 C   0  0  0  0  0  0  0  0  0  0  0  0
   10.6761  -15.5189   24.2800 O   0  0  0  0  0  0  0  0  0  0  0  0
    6.4320  -10.6374   25.2955 O   0  0  0  0  0  0  0  0  0  0  0  0
    6.7218  -11.9475   25.6602 C   0  0  0  0  0  0  0  0  0  0  0  0
    6.4028  -12.9318   24.7417 C   0  0  0  0  0  0  0  0  0  0  0  0
    6.6731  -14.2539   25.0602 C   0  0  0  0  0  0  0  0  0  0  0  0
    7.2491  -14.5814   26.2703 C   0  0  0  0  0  0  0  0  0  0  0  0
    7.5131  -16.0041   26.5728 C   0  0  0  0  0  0  0  0  0  0  0  0
    8.9232  -16.3988   26.2113 C   0  0  2  0  0  0  0  0  0  0  0  0
    8.8926  -16.8423   24.8184 N   0  0  0  0  0  0  0  0  0  0  0  0
    9.4767  -17.4701   27.0445 C   0  0  0  0  0  0  0  0  0  0  0  0
    9.8701  -17.2050   28.3387 O   0  0  0  0  0  0  0  0  0  0  0  0
    7.5585  -13.5870   27.1702 C   0  0  0  0  0  0  0  0  0  0  0  0
    7.2924  -12.2641   26.8609 C   0  0  0  0  0  0  0  0  0  0  0  0
    9.5950  -18.6270   26.5873 O   0  0  0  0  0  0  0  0  0  0  0  0
  2  1  1  6
  2  3  1  0
  3  4  1  0
  4  5  1  0
  5  6  2  0
  5  9  1  0
  7  8  2  0
  7  2  1  0
 10 11  1  0
 11 12  2  0
 11 13  1  0
 14 13  1  1
 14 15  1  0
 15  7  1  0
 16 25  1  0
 16 14  1  0
 17 16  2  0
 19 18  1  0
 20 19  2  0
 21 20  1  0
 22 21  2  0
 22 28  1  0
 24 23  1  1
 23 22  1  0
 24 26  1  0
 24 25  1  0
 26 27  1  0
 28 29  2  0
 29 19  1  0
 30 26  2  0
M  END
$$$$
