ENY.pdb
     RDKit          3D

 30 30  0  0  1  0  0  0  0  0999 V2000
    9.4879  -16.1228   17.3832 N   0  0  0  0  0  0  0  0  0  0  0  0
    9.4495  -17.5894   17.1551 C   0  0  1  0  0  0  0  0  0  0  0  0
   10.2659  -17.8649   15.9141 C   0  0  0  0  0  0  0  0  0  0  0  0
   10.4958  -16.6922   15.0288 C   0  0  0  0  0  0  0  0  0  0  0  0
   11.3705  -17.1143   13.8794 C   0  0  0  0  0  0  0  0  0  0  0  0
   12.5841  -16.8143   13.9246 O   0  0  0  0  0  0  0  0  0  0  0  0
    9.9533  -18.2044   18.3763 C   0  0  0  0  0  0  0  0  0  0  0  0
   10.4409  -19.3901   18.3768 O   0  0  0  0  0  0  0  0  0  0  0  0
   10.9013  -17.8111   12.7864 O   0  0  0  0  0  0  0  0  0  0  0  0
   13.3604  -18.8352   19.5138 N   0  0  0  0  0  0  0  0  0  0  0  0
   13.2018  -17.4960   18.9811 C   0  0  0  0  0  0  0  0  0  0  0  0
   14.0515  -17.2030   18.1011 O   0  0  0  0  0  0  0  0  0  0  0  0
   12.1370  -16.6077   19.4561 C   0  0  0  0  0  0  0  0  0  0  0  0
   11.2017  -17.2991   20.3740 C   0  0  2  0  0  0  0  0  0  0  0  0
    9.9727  -17.5946   19.6764 N   0  0  0  0  0  0  0  0  0  0  0  0
   10.9617  -16.5745   21.6449 C   0  0  0  0  0  0  0  0  0  0  0  0
   11.9731  -16.2355   22.3146 O   0  0  0  0  0  0  0  0  0  0  0  0
    8.2717  -12.6861   17.5476 O   0  0  0  0  0  0  0  0  0  0  0  0
    8.2151  -13.1513   18.8567 C   0  0  0  0  0  0  0  0  0  0  0  0
    9.3355  -12.9373   19.6397 C   0  0  0  0  0  0  0  0  0  0  0  0
    9.3267  -13.3833   20.9526 C   0  0  0  0  0  0  0  0  0  0  0  0
    8.2213  -14.0282   21.4679 C   0  0  0  0  0  0  0  0  0  0  0  0
    8.2571  -14.4944   22.8704 C   0  0  0  0  0  0  0  0  0  0  0  0
    9.5337  -15.2356   23.1792 C   0  0  2  0  0  0  0  0  0  0  0  0
    9.6948  -16.2492   22.1378 N   0  0  0  0  0  0  0  0  0  0  0  0
    9.5436  -15.8891   24.4912 C   0  0  0  0  0  0  0  0  0  0  0  0
    9.5410  -15.1291   25.6412 O   0  0  0  0  0  0  0  0  0  0  0  0
    7.1170  -14.2313   20.6722 C   0  0  0  0  0  0  0  0  0  0  0  0
    7.1165  -13.7894   19.3601 C   0  0  0  0  0  0  0  0  0  0  0  0
    9.5546  -17.1358   24.5744 O   0  0  0  0  0  0  0  0  0  0  0  0
  2  1  1  1
  2  3  1  0
  3  4  1  0
  4  5  1  0
  5  6  2  0
  5  9  1  0
  7  8  2  0
  7  2  1  0
 10 11  1  0
 11 12  2  0
 11 13  1  0
 14 13  1  6
 14 15  1  0
 15  7  1  0
 16 25  1  0
 16 14  1  0
 17 16  2  0
 19 18  1  0
 20 19  2  0
 21 20  1  0
 22 21  2  0
 22 28  1  0
 24 23  1  6
 23 22  1  0
 24 26  1  0
 24 25  1  0
 26 27  1  0
 28 29  2  0
 29 19  1  0
 30 26  2  0
M  END
$$$$
