ENY.pdb
     RDKit          3D

 30 30  0  0  1  0  0  0  0  0999 V2000
   10.0640  -18.7567   17.3780 N   0  0  0  0  0  0  0  0  0  0  0  0
   10.3097  -19.1882   18.7773 C   0  0  1  0  0  0  0  0  0  0  0  0
   11.7602  -18.8950   19.0818 C   0  0  0  0  0  0  0  0  0  0  0  0
   12.7264  -19.2896   18.0223 C   0  0  0  0  0  0  0  0  0  0  0  0
   14.1047  -18.8443   18.4304 C   0  0  0  0  0  0  0  0  0  0  0  0
   14.6012  -17.8586   17.8416 O   0  0  0  0  0  0  0  0  0  0  0  0
    9.3469  -18.4676   19.6002 C   0  0  0  0  0  0  0  0  0  0  0  0
    9.2486  -17.1902   19.5519 O   0  0  0  0  0  0  0  0  0  0  0  0
   14.8411  -19.4667   19.4156 O   0  0  0  0  0  0  0  0  0  0  0  0
    5.9542  -19.6339   19.4327 N   0  0  0  0  0  0  0  0  0  0  0  0
    5.6734  -19.8368   20.8407 C   0  0  0  0  0  0  0  0  0  0  0  0
    4.7172  -20.6263   21.0522 O   0  0  0  0  0  0  0  0  0  0  0  0
    6.4579  -19.1630   21.8795 C   0  0  0  0  0  0  0  0  0  0  0  0
    7.4972  -18.2761   21.3064 C   0  0  2  0  0  0  0  0  0  0  0  0
    8.4239  -19.0617   20.5264 N   0  0  0  0  0  0  0  0  0  0  0  0
    8.1882  -17.4330   22.3111 C   0  0  0  0  0  0  0  0  0  0  0  0
    8.9543  -18.0159   23.1234 O   0  0  0  0  0  0  0  0  0  0  0  0
    7.5748  -11.1362   28.3538 O   0  0  0  0  0  0  0  0  0  0  0  0
    7.4469  -11.8685   27.1787 C   0  0  0  0  0  0  0  0  0  0  0  0
    8.6088  -12.4051   26.6530 C   0  0  0  0  0  0  0  0  0  0  0  0
    8.5320  -13.1437   25.4821 C   0  0  0  0  0  0  0  0  0  0  0  0
    7.3197  -13.3397   24.8534 C   0  0  0  0  0  0  0  0  0  0  0  0
    7.2839  -14.1270   23.6027 C   0  0  0  0  0  0  0  0  0  0  0  0
    8.1266  -15.3737   23.7044 C   0  0  2  0  0  0  0  0  0  0  0  0
    8.0418  -16.0463   22.4090 N   0  0  0  0  0  0  0  0  0  0  0  0
    7.6986  -16.3009   24.7559 C   0  0  0  0  0  0  0  0  0  0  0  0
    8.4989  -16.5119   25.8582 O   0  0  0  0  0  0  0  0  0  0  0  0
    6.1756  -12.7971   25.3928 C   0  0  0  0  0  0  0  0  0  0  0  0
    6.2425  -12.0583   26.5617 C   0  0  0  0  0  0  0  0  0  0  0  0
    6.6085  -16.9039   24.6592 O   0  0  0  0  0  0  0  0  0  0  0  0
  2  1  1  6
  2  3  1  0
  3  4  1  0
  4  5  1  0
  5  6  2  0
  5  9  1  0
  7  8  2  0
  7  2  1  0
 10 11  1  0
 11 12  2  0
 11 13  1  0
 14 13  1  1
 14 15  1  0
 15  7  1  0
 16 25  1  0
 16 14  1  0
 17 16  2  0
 19 18  1  0
 20 19  2  0
 21 20  1  0
 22 21  2  0
 22 28  1  0
 24 23  1  6
 23 22  1  0
 24 26  1  0
 24 25  1  0
 26 27  1  0
 28 29  2  0
 29 19  1  0
 30 26  2  0
M  END
$$$$
