ENY.pdb
     RDKit          3D

 30 30  0  0  1  0  0  0  0  0999 V2000
    8.2255  -19.0857   21.1151 N   0  0  0  0  0  0  0  0  0  0  0  0
    9.3922  -18.6578   21.9277 C   0  0  1  0  0  0  0  0  0  0  0  0
   10.0444  -17.5095   21.1938 C   0  0  0  0  0  0  0  0  0  0  0  0
   10.9292  -17.8962   20.0627 C   0  0  0  0  0  0  0  0  0  0  0  0
   11.6101  -16.6627   19.5340 C   0  0  0  0  0  0  0  0  0  0  0  0
   12.6958  -16.3231   20.0543 O   0  0  0  0  0  0  0  0  0  0  0  0
    8.8702  -18.3312   23.2484 C   0  0  0  0  0  0  0  0  0  0  0  0
    7.7219  -17.7805   23.3970 O   0  0  0  0  0  0  0  0  0  0  0  0
   11.0978  -15.8946   18.5104 O   0  0  0  0  0  0  0  0  0  0  0  0
    7.1236  -19.2421   28.4316 N   0  0  0  0  0  0  0  0  0  0  0  0
    8.5035  -19.0998   28.0100 C   0  0  0  0  0  0  0  0  0  0  0  0
    9.2651  -18.6830   28.9201 O   0  0  0  0  0  0  0  0  0  0  0  0
    8.9203  -19.4240   26.6425 C   0  0  0  0  0  0  0  0  0  0  0  0
    8.9463  -18.2276   25.7688 C   0  0  2  0  0  0  0  0  0  0  0  0
    9.5368  -18.5727   24.4974 N   0  0  0  0  0  0  0  0  0  0  0  0
    9.5986  -17.0477   26.3852 C   0  0  0  0  0  0  0  0  0  0  0  0
   10.8475  -16.9467   26.2558 O   0  0  0  0  0  0  0  0  0  0  0  0
    6.2911  -12.9790   22.5085 O   0  0  0  0  0  0  0  0  0  0  0  0
    6.9194  -13.1796   23.7326 C   0  0  0  0  0  0  0  0  0  0  0  0
    6.1446  -12.9980   24.8644 C   0  0  0  0  0  0  0  0  0  0  0  0
    6.7268  -13.1868   26.1085 C   0  0  0  0  0  0  0  0  0  0  0  0
    8.0538  -13.5489   26.2154 C   0  0  0  0  0  0  0  0  0  0  0  0
    8.6368  -13.7322   27.5615 C   0  0  0  0  0  0  0  0  0  0  0  0
    9.6231  -14.8728   27.5914 C   0  0  2  0  0  0  0  0  0  0  0  0
    8.9181  -16.0526   27.0926 N   0  0  0  0  0  0  0  0  0  0  0  0
   10.1622  -15.1627   28.9232 C   0  0  0  0  0  0  0  0  0  0  0  0
   10.0060  -16.4169   29.4734 O   0  0  0  0  0  0  0  0  0  0  0  0
    8.8072  -13.7242   25.0771 C   0  0  0  0  0  0  0  0  0  0  0  0
    8.2345  -13.5381   23.8305 C   0  0  0  0  0  0  0  0  0  0  0  0
   10.7649  -14.2766   29.5659 O   0  0  0  0  0  0  0  0  0  0  0  0
  2  1  1  6
  2  3  1  0
  3  4  1  0
  4  5  1  0
  5  6  2  0
  5  9  1  0
  7  8  2  0
  7  2  1  0
 10 11  1  0
 11 12  2  0
 11 13  1  0
 14 13  1  1
 14 15  1  0
 15  7  1  0
 16 25  1  0
 16 14  1  0
 17 16  2  0
 19 18  1  0
 20 19  2  0
 21 20  1  0
 22 21  2  0
 22 28  1  0
 24 23  1  1
 23 22  1  0
 24 26  1  0
 24 25  1  0
 26 27  1  0
 28 29  2  0
 29 19  1  0
 30 26  2  0
M  END
$$$$
