ENY.pdb
     RDKit          3D

 30 30  0  0  1  0  0  0  0  0999 V2000
   11.3852  -18.8346   19.9152 N   0  0  0  0  0  0  0  0  0  0  0  0
   10.8751  -17.6954   19.1111 C   0  0  1  0  0  0  0  0  0  0  0  0
   10.1931  -18.2820   17.8972 C   0  0  0  0  0  0  0  0  0  0  0  0
    9.7542  -19.6964   18.0338 C   0  0  0  0  0  0  0  0  0  0  0  0
   10.1787  -20.4581   16.8074 C   0  0  0  0  0  0  0  0  0  0  0  0
   11.3547  -20.8819   16.7577 O   0  0  0  0  0  0  0  0  0  0  0  0
   10.0092  -16.9278   19.9967 C   0  0  0  0  0  0  0  0  0  0  0  0
    8.8906  -16.4505   19.5909 O   0  0  0  0  0  0  0  0  0  0  0  0
    9.3391  -20.7094   15.7434 O   0  0  0  0  0  0  0  0  0  0  0  0
    5.8520  -16.6384   23.4807 N   0  0  0  0  0  0  0  0  0  0  0  0
    6.9826  -15.9289   22.9145 C   0  0  0  0  0  0  0  0  0  0  0  0
    6.9658  -14.6928   23.1467 O   0  0  0  0  0  0  0  0  0  0  0  0
    8.0194  -16.6311   22.1524 C   0  0  0  0  0  0  0  0  0  0  0  0
    9.3252  -15.9337   22.2132 C   0  0  2  0  0  0  0  0  0  0  0  0
   10.2777  -16.6210   21.3739 N   0  0  0  0  0  0  0  0  0  0  0  0
    9.8365  -15.7348   23.5904 C   0  0  0  0  0  0  0  0  0  0  0  0
   10.7043  -14.8375   23.7587 O   0  0  0  0  0  0  0  0  0  0  0  0
    4.8547  -12.8671   26.1438 O   0  0  0  0  0  0  0  0  0  0  0  0
    6.1703  -13.3139   26.1989 C   0  0  0  0  0  0  0  0  0  0  0  0
    6.3693  -14.6755   26.0552 C   0  0  0  0  0  0  0  0  0  0  0  0
    7.6641  -15.1690   26.1030 C   0  0  0  0  0  0  0  0  0  0  0  0
    8.7337  -14.3180   26.2903 C   0  0  0  0  0  0  0  0  0  0  0  0
   10.0971  -14.8870   26.3428 C   0  0  0  0  0  0  0  0  0  0  0  0
   10.1040  -16.3521   25.9848 C   0  0  2  0  0  0  0  0  0  0  0  0
    9.4177  -16.4750   24.6997 N   0  0  0  0  0  0  0  0  0  0  0  0
    9.4390  -17.2114   26.9686 C   0  0  0  0  0  0  0  0  0  0  0  0
    8.3647  -17.9887   26.5923 O   0  0  0  0  0  0  0  0  0  0  0  0
    8.5141  -12.9667   26.4313 C   0  0  0  0  0  0  0  0  0  0  0  0
    7.2247  -12.4647   26.3848 C   0  0  0  0  0  0  0  0  0  0  0  0
    9.8413  -17.2440   28.1512 O   0  0  0  0  0  0  0  0  0  0  0  0
  2  1  1  1
  2  3  1  0
  3  4  1  0
  4  5  1  0
  5  6  2  0
  5  9  1  0
  7  8  2  0
  7  2  1  0
 10 11  1  0
 11 12  2  0
 11 13  1  0
 14 13  1  1
 14 15  1  0
 15  7  1  0
 16 25  1  0
 16 14  1  0
 17 16  2  0
 19 18  1  0
 20 19  2  0
 21 20  1  0
 22 21  2  0
 22 28  1  0
 24 23  1  1
 23 22  1  0
 24 26  1  0
 24 25  1  0
 26 27  1  0
 28 29  2  0
 29 19  1  0
 30 26  2  0
M  END
$$$$
