ENY.pdb
     RDKit          3D

 30 30  0  0  1  0  0  0  0  0999 V2000
    8.4468  -12.8006   18.3397 N   0  0  0  0  0  0  0  0  0  0  0  0
    7.5186  -13.9569   18.2621 C   0  0  1  0  0  0  0  0  0  0  0  0
    7.3542  -14.2938   16.7985 C   0  0  0  0  0  0  0  0  0  0  0  0
    8.6061  -14.6603   16.0842 C   0  0  0  0  0  0  0  0  0  0  0  0
    8.2512  -15.1910   14.7215 C   0  0  0  0  0  0  0  0  0  0  0  0
    9.1860  -15.4646   13.9366 O   0  0  0  0  0  0  0  0  0  0  0  0
    8.1114  -15.0097   19.0765 C   0  0  0  0  0  0  0  0  0  0  0  0
    7.5165  -16.1308   19.2581 O   0  0  0  0  0  0  0  0  0  0  0  0
    6.9537  -15.3885   14.2999 O   0  0  0  0  0  0  0  0  0  0  0  0
   10.6167  -19.1525   19.1532 N   0  0  0  0  0  0  0  0  0  0  0  0
   10.9591  -18.1648   20.1579 C   0  0  0  0  0  0  0  0  0  0  0  0
   11.2493  -18.6658   21.2746 O   0  0  0  0  0  0  0  0  0  0  0  0
   10.9526  -16.7314   19.8513 C   0  0  0  0  0  0  0  0  0  0  0  0
    9.8786  -16.0111   20.5744 C   0  0  2  0  0  0  0  0  0  0  0  0
    9.3786  -14.9375   19.7487 N   0  0  0  0  0  0  0  0  0  0  0  0
   10.2738  -15.5400   21.9233 C   0  0  0  0  0  0  0  0  0  0  0  0
   10.9904  -14.5060   21.9853 O   0  0  0  0  0  0  0  0  0  0  0  0
    6.4775  -11.2767   28.0819 O   0  0  0  0  0  0  0  0  0  0  0  0
    6.9837  -12.0994   27.0817 C   0  0  0  0  0  0  0  0  0  0  0  0
    6.5149  -11.8766   25.7992 C   0  0  0  0  0  0  0  0  0  0  0  0
    6.9905  -12.6718   24.7677 C   0  0  0  0  0  0  0  0  0  0  0  0
    7.9137  -13.6665   25.0160 C   0  0  0  0  0  0  0  0  0  0  0  0
    8.3885  -14.4964   23.8886 C   0  0  0  0  0  0  0  0  0  0  0  0
    9.5398  -15.3822   24.2943 C   0  0  2  0  0  0  0  0  0  0  0  0
    9.9027  -16.1677   23.1158 N   0  0  0  0  0  0  0  0  0  0  0  0
    9.2332  -16.2918   25.4021 C   0  0  0  0  0  0  0  0  0  0  0  0
    9.6046  -15.9633   26.6883 O   0  0  0  0  0  0  0  0  0  0  0  0
    8.3671  -13.8719   26.2991 C   0  0  0  0  0  0  0  0  0  0  0  0
    7.8981  -13.0828   27.3354 C   0  0  0  0  0  0  0  0  0  0  0  0
    8.6350  -17.3676   25.1873 O   0  0  0  0  0  0  0  0  0  0  0  0
  2  1  1  6
  2  3  1  0
  3  4  1  0
  4  5  1  0
  5  6  2  0
  5  9  1  0
  7  8  2  0
  7  2  1  0
 10 11  1  0
 11 12  2  0
 11 13  1  0
 14 13  1  6
 14 15  1  0
 15  7  1  0
 16 25  1  0
 16 14  1  0
 17 16  2  0
 19 18  1  0
 20 19  2  0
 21 20  1  0
 22 21  2  0
 22 28  1  0
 24 23  1  6
 23 22  1  0
 24 26  1  0
 24 25  1  0
 26 27  1  0
 28 29  2  0
 29 19  1  0
 30 26  2  0
M  END
$$$$
