ENY.pdb
     RDKit          3D

 30 30  0  0  1  0  0  0  0  0999 V2000
    9.7942  -17.2330   20.0329 N   0  0  0  0  0  0  0  0  0  0  0  0
    9.0165  -15.9730   20.1439 C   0  0  1  0  0  0  0  0  0  0  0  0
    8.3419  -15.7514   18.8103 C   0  0  0  0  0  0  0  0  0  0  0  0
    9.0918  -16.2486   17.6261 C   0  0  0  0  0  0  0  0  0  0  0  0
    8.2637  -16.0131   16.3919 C   0  0  0  0  0  0  0  0  0  0  0  0
    7.0226  -16.1391   16.4851 O   0  0  0  0  0  0  0  0  0  0  0  0
    8.1123  -16.1513   21.2726 C   0  0  0  0  0  0  0  0  0  0  0  0
    7.2876  -15.2336   21.6211 O   0  0  0  0  0  0  0  0  0  0  0  0
    8.8041  -15.6674   15.1717 O   0  0  0  0  0  0  0  0  0  0  0  0
    6.7424  -20.7602   24.1869 N   0  0  0  0  0  0  0  0  0  0  0  0
    6.9246  -19.8560   23.0682 C   0  0  0  0  0  0  0  0  0  0  0  0
    7.7405  -20.2792   22.2095 O   0  0  0  0  0  0  0  0  0  0  0  0
    6.2033  -18.5821   22.9921 C   0  0  0  0  0  0  0  0  0  0  0  0
    7.0985  -17.4207   23.2039 C   0  0  2  0  0  0  0  0  0  0  0  0
    8.0261  -17.3205   22.1021 N   0  0  0  0  0  0  0  0  0  0  0  0
    7.7889  -17.4256   24.5158 C   0  0  0  0  0  0  0  0  0  0  0  0
    7.4093  -18.2765   25.3634 O   0  0  0  0  0  0  0  0  0  0  0  0
    6.7690  -10.2472   25.9887 O   0  0  0  0  0  0  0  0  0  0  0  0
    6.9369  -11.6159   26.1670 C   0  0  0  0  0  0  0  0  0  0  0  0
    8.1572  -12.0305   26.6702 C   0  0  0  0  0  0  0  0  0  0  0  0
    8.3721  -13.3863   26.8656 C   0  0  0  0  0  0  0  0  0  0  0  0
    7.3874  -14.3042   26.5639 C   0  0  0  0  0  0  0  0  0  0  0  0
    7.6612  -15.7408   26.7801 C   0  0  0  0  0  0  0  0  0  0  0  0
    9.0174  -16.1357   26.2515 C   0  0  2  0  0  0  0  0  0  0  0  0
    8.8236  -16.5525   24.8635 N   0  0  0  0  0  0  0  0  0  0  0  0
    9.6553  -17.2255   26.9957 C   0  0  0  0  0  0  0  0  0  0  0  0
   10.1791  -16.9917   28.2491 O   0  0  0  0  0  0  0  0  0  0  0  0
    6.1805  -13.8710   26.0640 C   0  0  0  0  0  0  0  0  0  0  0  0
    5.9568  -12.5192   25.8657 C   0  0  0  0  0  0  0  0  0  0  0  0
    9.7279  -18.3699   26.4992 O   0  0  0  0  0  0  0  0  0  0  0  0
  2  1  1  6
  2  3  1  0
  3  4  1  0
  4  5  1  0
  5  6  2  0
  5  9  1  0
  7  8  2  0
  7  2  1  0
 10 11  1  0
 11 12  2  0
 11 13  1  0
 14 13  1  6
 14 15  1  0
 15  7  1  0
 16 25  1  0
 16 14  1  0
 17 16  2  0
 19 18  1  0
 20 19  2  0
 21 20  1  0
 22 21  2  0
 22 28  1  0
 24 23  1  1
 23 22  1  0
 24 26  1  0
 24 25  1  0
 26 27  1  0
 28 29  2  0
 29 19  1  0
 30 26  2  0
M  END
$$$$
