ENY.pdb
     RDKit          3D

 30 30  0  0  1  0  0  0  0  0999 V2000
   10.0293  -17.3821   16.6509 N   0  0  0  0  0  0  0  0  0  0  0  0
    8.9093  -18.2745   17.0431 C   0  0  1  0  0  0  0  0  0  0  0  0
    8.9014  -19.4282   16.0676 C   0  0  0  0  0  0  0  0  0  0  0  0
   10.0243  -19.4464   15.0926 C   0  0  0  0  0  0  0  0  0  0  0  0
    9.4931  -19.8593   13.7465 C   0  0  0  0  0  0  0  0  0  0  0  0
    9.9992  -20.8637   13.1990 O   0  0  0  0  0  0  0  0  0  0  0  0
    9.1489  -18.6411   18.4329 C   0  0  0  0  0  0  0  0  0  0  0  0
    9.0465  -19.8551   18.8323 O   0  0  0  0  0  0  0  0  0  0  0  0
    8.4822  -19.1879   13.0926 O   0  0  0  0  0  0  0  0  0  0  0  0
    9.8862  -21.5457   20.3487 N   0  0  0  0  0  0  0  0  0  0  0  0
   10.3484  -20.5284   21.2727 C   0  0  0  0  0  0  0  0  0  0  0  0
   10.2772  -20.8776   22.4790 O   0  0  0  0  0  0  0  0  0  0  0  0
   10.8419  -19.2331   20.7961 C   0  0  0  0  0  0  0  0  0  0  0  0
    9.7916  -18.1887   20.8311 C   0  0  2  0  0  0  0  0  0  0  0  0
    9.5158  -17.7379   19.4876 N   0  0  0  0  0  0  0  0  0  0  0  0
   10.0943  -17.0625   21.7464 C   0  0  0  0  0  0  0  0  0  0  0  0
   11.2160  -16.5035   21.6206 O   0  0  0  0  0  0  0  0  0  0  0  0
    7.3676  -13.0390   17.9843 O   0  0  0  0  0  0  0  0  0  0  0  0
    7.6527  -13.3587   19.3072 C   0  0  0  0  0  0  0  0  0  0  0  0
    6.7928  -14.2460   19.9298 C   0  0  0  0  0  0  0  0  0  0  0  0
    7.0359  -14.5956   21.2493 C   0  0  0  0  0  0  0  0  0  0  0  0
    8.1150  -14.0685   21.9282 C   0  0  0  0  0  0  0  0  0  0  0  0
    8.3330  -14.4621   23.3364 C   0  0  0  0  0  0  0  0  0  0  0  0
    9.5247  -15.3749   23.4822 C   0  0  2  0  0  0  0  0  0  0  0  0
    9.2193  -16.5901   22.7287 N   0  0  0  0  0  0  0  0  0  0  0  0
    9.8364  -15.7349   24.8685 C   0  0  0  0  0  0  0  0  0  0  0  0
   10.3981  -14.8027   25.7144 O   0  0  0  0  0  0  0  0  0  0  0  0
    8.9583  -13.1873   21.2906 C   0  0  0  0  0  0  0  0  0  0  0  0
    8.7236  -12.8324   19.9732 C   0  0  0  0  0  0  0  0  0  0  0  0
    9.5954  -16.8861   25.2903 O   0  0  0  0  0  0  0  0  0  0  0  0
  2  1  1  6
  2  3  1  0
  3  4  1  0
  4  5  1  0
  5  6  2  0
  5  9  1  0
  7  8  2  0
  7  2  1  0
 10 11  1  0
 11 12  2  0
 11 13  1  0
 14 13  1  6
 14 15  1  0
 15  7  1  0
 16 25  1  0
 16 14  1  0
 17 16  2  0
 19 18  1  0
 20 19  2  0
 21 20  1  0
 22 21  2  0
 22 28  1  0
 24 23  1  1
 23 22  1  0
 24 26  1  0
 24 25  1  0
 26 27  1  0
 28 29  2  0
 29 19  1  0
 30 26  2  0
M  END
$$$$
