GEG.pdb
     RDKit          3D

 18 17  0  0  1  0  0  0  0  0999 V2000
   17.3587  -11.1934  -15.3600 N   0  0  0  0  0  0  0  0  0  0  0  0
   17.9861  -10.0559  -16.0060 C   0  0  0  0  0  0  0  0  0  0  0  0
   19.2791   -9.7432  -15.3650 C   0  0  0  0  0  0  0  0  0  0  0  0
   19.5107  -10.0279  -14.1453 O   0  0  0  0  0  0  0  0  0  0  0  0
   20.2928   -9.1068  -16.1313 N   0  0  0  0  0  0  0  0  0  0  0  0
   21.5737   -8.7813  -15.5394 C   0  0  1  0  0  0  0  0  0  0  0  0
   22.7087   -9.5229  -16.1743 C   0  0  0  0  0  0  0  0  0  0  0  0
   22.6430  -10.9993  -16.0614 C   0  0  0  0  0  0  0  0  0  0  0  0
   23.7616  -11.7345  -16.6405 C   0  0  0  0  0  0  0  0  0  0  0  0
   23.6437  -12.1636  -17.8221 O   0  0  0  0  0  0  0  0  0  0  0  0
   21.8770   -7.3302  -15.6516 C   0  0  0  0  0  0  0  0  0  0  0  0
   22.9082   -6.8589  -15.1111 O   0  0  0  0  0  0  0  0  0  0  0  0
   24.9689  -12.0201  -16.0202 O   0  0  0  0  0  0  0  0  0  0  0  0
   21.0501   -6.4132  -16.3526 N   0  0  0  0  0  0  0  0  0  0  0  0
   20.0605   -5.5909  -15.7279 C   0  0  0  0  0  0  0  0  0  0  0  0
   20.7162   -4.7133  -14.7316 C   0  0  0  0  0  0  0  0  0  0  0  0
   20.7509   -3.3457  -14.9436 O   0  0  0  0  0  0  0  0  0  0  0  0
   21.2254   -5.2221  -13.7194 O   0  0  0  0  0  0  0  0  0  0  0  0
  2  1  1  0
  3  4  2  0
  3  2  1  0
  5  3  1  0
  6  5  1  0
  6  7  1  6
  8  7  1  0
  9  8  1  0
 10  9  2  0
 11  6  1  0
 11 14  1  0
 12 11  2  0
 13  9  1  0
 15 14  1  0
 16 15  1  0
 17 16  1  0
 18 16  2  0
M  END
$$$$
