GEG.pdb
     RDKit          3D

 18 17  0  0  1  0  0  0  0  0999 V2000
   20.6946  -11.1228  -17.0872 N   0  0  0  0  0  0  0  0  0  0  0  0
   19.5541  -11.3254  -16.2137 C   0  0  0  0  0  0  0  0  0  0  0  0
   19.2456  -10.0889  -15.4678 C   0  0  0  0  0  0  0  0  0  0  0  0
   18.3698  -10.0626  -14.5434 O   0  0  0  0  0  0  0  0  0  0  0  0
   19.9461   -8.8954  -15.7913 N   0  0  0  0  0  0  0  0  0  0  0  0
   19.6631   -7.6586  -15.0931 C   0  0  1  0  0  0  0  0  0  0  0  0
   20.8981   -6.9980  -14.5645 C   0  0  0  0  0  0  0  0  0  0  0  0
   20.6638   -5.8387  -13.6712 C   0  0  0  0  0  0  0  0  0  0  0  0
   21.8572   -5.1570  -13.1834 C   0  0  0  0  0  0  0  0  0  0  0  0
   21.9999   -3.9339  -13.4624 O   0  0  0  0  0  0  0  0  0  0  0  0
   18.9792   -6.6755  -15.9740 C   0  0  0  0  0  0  0  0  0  0  0  0
   19.4233   -6.4473  -17.1265 O   0  0  0  0  0  0  0  0  0  0  0  0
   22.8763   -5.7190  -12.4286 O   0  0  0  0  0  0  0  0  0  0  0  0
   17.8196   -5.9547  -15.5846 N   0  0  0  0  0  0  0  0  0  0  0  0
   17.1222   -5.0420  -16.4371 C   0  0  0  0  0  0  0  0  0  0  0  0
   17.6429   -3.6740  -16.2137 C   0  0  0  0  0  0  0  0  0  0  0  0
   17.5149   -3.0895  -14.9653 O   0  0  0  0  0  0  0  0  0  0  0  0
   18.1874   -3.0727  -17.1544 O   0  0  0  0  0  0  0  0  0  0  0  0
  2  1  1  0
  3  4  2  0
  3  2  1  0
  5  3  1  0
  6  5  1  0
  6  7  1  6
  8  7  1  0
  9  8  1  0
 10  9  2  0
 11  6  1  0
 11 14  1  0
 12 11  2  0
 13  9  1  0
 15 14  1  0
 16 15  1  0
 17 16  1  0
 18 16  2  0
M  END
$$$$
