GEG.pdb
     RDKit          3D

 18 17  0  0  1  0  0  0  0  0999 V2000
   13.5650  -11.3923  -10.7384 N   0  0  0  0  0  0  0  0  0  0  0  0
   14.5837  -10.7695   -9.9142 C   0  0  0  0  0  0  0  0  0  0  0  0
   15.2673   -9.6933  -10.6590 C   0  0  0  0  0  0  0  0  0  0  0  0
   15.0147   -9.4594  -11.8853 O   0  0  0  0  0  0  0  0  0  0  0  0
   16.2341   -8.8966   -9.9878 N   0  0  0  0  0  0  0  0  0  0  0  0
   16.7925   -7.7201  -10.6212 C   0  0  1  0  0  0  0  0  0  0  0  0
   16.6911   -6.4983   -9.7620 C   0  0  0  0  0  0  0  0  0  0  0  0
   15.3316   -5.9209   -9.6393 C   0  0  0  0  0  0  0  0  0  0  0  0
   14.8441   -5.7185   -8.2798 C   0  0  0  0  0  0  0  0  0  0  0  0
   15.6936   -5.5304   -7.3648 O   0  0  0  0  0  0  0  0  0  0  0  0
   18.2291   -7.9066  -10.9554 C   0  0  0  0  0  0  0  0  0  0  0  0
   19.0042   -8.4423  -10.1249 O   0  0  0  0  0  0  0  0  0  0  0  0
   13.5180   -5.7097   -7.8730 O   0  0  0  0  0  0  0  0  0  0  0  0
   18.7999   -7.5056  -12.1920 N   0  0  0  0  0  0  0  0  0  0  0  0
   20.1323   -7.8295  -12.5994 C   0  0  0  0  0  0  0  0  0  0  0  0
   20.4363   -7.1294  -13.8682 C   0  0  0  0  0  0  0  0  0  0  0  0
   21.7231   -7.1657  -14.3774 O   0  0  0  0  0  0  0  0  0  0  0  0
   19.5274   -6.5196  -14.4555 O   0  0  0  0  0  0  0  0  0  0  0  0
  2  1  1  0
  3  4  2  0
  3  2  1  0
  5  3  1  0
  6  5  1  0
  6  7  1  1
  8  7  1  0
  9  8  1  0
 10  9  2  0
 11  6  1  0
 11 14  1  0
 12 11  2  0
 13  9  1  0
 15 14  1  0
 16 15  1  0
 17 16  1  0
 18 16  2  0
M  END
$$$$
