GEG.pdb
     RDKit          3D

 18 17  0  0  1  0  0  0  0  0999 V2000
   25.2607  -12.4195  -16.2438 N   0  0  0  0  0  0  0  0  0  0  0  0
   23.9361  -12.4074  -15.6521 C   0  0  0  0  0  0  0  0  0  0  0  0
   23.2472  -11.1353  -15.9482 C   0  0  0  0  0  0  0  0  0  0  0  0
   23.7707  -10.2453  -16.6939 O   0  0  0  0  0  0  0  0  0  0  0  0
   21.9640  -10.8985  -15.3848 N   0  0  0  0  0  0  0  0  0  0  0  0
   21.2440   -9.6752  -15.6717 C   0  0  1  0  0  0  0  0  0  0  0  0
   19.7691   -9.8918  -15.8101 C   0  0  0  0  0  0  0  0  0  0  0  0
   19.3527  -10.6793  -16.9946 C   0  0  0  0  0  0  0  0  0  0  0  0
   17.9388  -10.6067  -17.3449 C   0  0  0  0  0  0  0  0  0  0  0  0
   17.6276  -10.1114  -18.4638 O   0  0  0  0  0  0  0  0  0  0  0  0
   21.4426   -8.6588  -14.6050 C   0  0  0  0  0  0  0  0  0  0  0  0
   21.3442   -8.9869  -13.3966 O   0  0  0  0  0  0  0  0  0  0  0  0
   16.8740  -11.0326  -16.5645 O   0  0  0  0  0  0  0  0  0  0  0  0
   21.7461   -7.2978  -14.8722 N   0  0  0  0  0  0  0  0  0  0  0  0
   22.0190   -6.3261  -13.8586 C   0  0  0  0  0  0  0  0  0  0  0  0
   22.3001   -5.0212  -14.4994 C   0  0  0  0  0  0  0  0  0  0  0  0
   22.6209   -3.9284  -13.7124 O   0  0  0  0  0  0  0  0  0  0  0  0
   22.2428   -4.9300  -15.7369 O   0  0  0  0  0  0  0  0  0  0  0  0
  2  1  1  0
  3  4  2  0
  3  2  1  0
  5  3  1  0
  6  5  1  0
  6  7  1  1
  8  7  1  0
  9  8  1  0
 10  9  2  0
 11  6  1  0
 11 14  1  0
 12 11  2  0
 13  9  1  0
 15 14  1  0
 16 15  1  0
 17 16  1  0
 18 16  2  0
M  END
$$$$
