KMA.pdb
     RDKit          3D

 23 22  0  0  1  0  0  0  0  0999 V2000
29777.2207-18789.273444960.9492 N   0  0  0  0  0  0  0  0  0  0  0  0
29775.7949-18789.062544961.1406 C   0  0  1  0  0  0  0  0  0  0  0  0
29775.0801-18789.445344959.8984 C   0  0  0  0  0  0  0  0  0  0  0  0
29774.7266-18788.154344959.1523 C   0  0  0  0  0  0  0  0  0  0  0  0
29775.8984-18787.679744958.3164 C   0  0  0  0  0  0  0  0  0  0  0  0
29776.7031-18788.914144957.9531 C   0  0  0  0  0  0  0  0  0  0  0  0
29775.9375-18790.109444958.2148 N   0  0  0  0  0  0  0  0  0  0  0  0
29775.3613-18789.834044962.3242 C   0  0  0  0  0  0  0  0  0  0  0  0
29774.3887-18789.441444963.0273 O   0  0  0  0  0  0  0  0  0  0  0  0
29775.8008-18787.201244966.9375 C   0  0  0  0  0  0  0  0  0  0  0  0
29775.3535-18788.171944965.4766 S   0  0  0  0  0  0  0  0  0  0  0  0
29775.8848-18789.877044965.6016 C   0  0  0  0  0  0  0  0  0  0  0  0
29774.9434-18790.839844964.9258 C   0  0  0  0  0  0  0  0  0  0  0  0
29775.6621-18791.744144963.9531 C   0  0  2  0  0  0  0  0  0  0  0  0
29776.0078-18791.029344962.7266 N   0  0  0  0  0  0  0  0  0  0  0  0
29774.8379-18792.910244963.5703 C   0  0  0  0  0  0  0  0  0  0  0  0
29775.3027-18793.869144962.8750 O   0  0  0  0  0  0  0  0  0  0  0  0
29771.2188-18792.748044963.1328 C   0  0  0  0  0  0  0  0  0  0  0  0
29772.4824-18793.597744963.0859 C   0  0  2  0  0  0  0  0  0  0  0  0
29773.4746-18793.037144963.9844 N   0  0  0  0  0  0  0  0  0  0  0  0
29773.0215-18793.527344961.6953 C   0  0  0  0  0  0  0  0  0  0  0  0
29772.8379-18794.595744960.8555 O   0  0  0  0  0  0  0  0  0  0  0  0
29773.6465-18792.515644961.2812 O   0  0  0  0  0  0  0  0  0  0  0  0
  2  1  1  6
  3  2  1  0
  4  3  1  0
  5  4  1  0
  6  5  1  0
  7  6  1  0
  8  9  2  0
  8  2  1  0
 10 11  1  0
 11 12  1  0
 14 13  1  1
 13 12  1  0
 14 15  1  0
 15  8  1  0
 16 14  1  0
 17 16  2  0
 19 18  1  6
 19 20  1  0
 20 16  1  0
 21 19  1  0
 22 21  1  0
 23 21  2  0
M  END
$$$$
