KMA.pdb
     RDKit          3D

 23 22  0  0  1  0  0  0  0  0999 V2000
    8.7640  -15.1159   19.6373 N   0  0  0  0  0  0  0  0  0  0  0  0
    7.9267  -15.5696   20.7319 C   0  0  1  0  0  0  0  0  0  0  0  0
    7.6661  -17.0276   20.5538 C   0  0  0  0  0  0  0  0  0  0  0  0
    7.3236  -17.2407   19.0766 C   0  0  0  0  0  0  0  0  0  0  0  0
    7.0366  -18.6958   18.7970 C   0  0  0  0  0  0  0  0  0  0  0  0
    6.6670  -18.8000   17.3302 C   0  0  0  0  0  0  0  0  0  0  0  0
    6.3010  -20.1566   17.0185 N   0  0  0  0  0  0  0  0  0  0  0  0
    8.6109  -15.2573   22.0147 C   0  0  0  0  0  0  0  0  0  0  0  0
    9.8664  -15.2381   22.0927 O   0  0  0  0  0  0  0  0  0  0  0  0
    6.5811  -12.2785   27.7797 C   0  0  0  0  0  0  0  0  0  0  0  0
    6.6740  -11.4878   26.1666 S   0  0  0  0  0  0  0  0  0  0  0  0
    7.4498  -12.5388   24.9411 C   0  0  0  0  0  0  0  0  0  0  0  0
    7.6317  -13.9590   25.4235 C   0  0  0  0  0  0  0  0  0  0  0  0
    8.5327  -14.7465   24.4918 C   0  0  2  0  0  0  0  0  0  0  0  0
    7.8927  -14.9672   23.2067 N   0  0  0  0  0  0  0  0  0  0  0  0
    8.8704  -16.0757   25.0627 C   0  0  0  0  0  0  0  0  0  0  0  0
    7.9855  -16.9253   25.3821 O   0  0  0  0  0  0  0  0  0  0  0  0
   11.9491  -18.1795   25.4003 C   0  0  0  0  0  0  0  0  0  0  0  0
   10.5306  -17.8225   25.7869 C   0  0  2  0  0  0  0  0  0  0  0  0
   10.2256  -16.4757   25.2866 N   0  0  0  0  0  0  0  0  0  0  0  0
   10.4487  -17.7843   27.2617 C   0  0  0  0  0  0  0  0  0  0  0  0
   10.6534  -18.9608   27.9645 O   0  0  0  0  0  0  0  0  0  0  0  0
   10.2024  -16.7309   27.8858 O   0  0  0  0  0  0  0  0  0  0  0  0
  2  1  1  6
  3  2  1  0
  4  3  1  0
  5  4  1  0
  6  5  1  0
  7  6  1  0
  8  9  2  0
  8  2  1  0
 10 11  1  0
 11 12  1  0
 14 13  1  1
 13 12  1  0
 14 15  1  0
 15  8  1  0
 16 14  1  0
 17 16  2  0
 19 18  1  1
 19 20  1  0
 20 16  1  0
 21 19  1  0
 22 21  1  0
 23 21  2  0
M  END
$$$$
