KMA.pdb
     RDKit          3D

 23 22  0  0  1  0  0  0  0  0999 V2000
    8.5271  -17.7917   21.2932 N   0  0  0  0  0  0  0  0  0  0  0  0
    9.8677  -17.2613   21.4562 C   0  0  1  0  0  0  0  0  0  0  0  0
   10.2539  -16.5596   20.1978 C   0  0  0  0  0  0  0  0  0  0  0  0
   10.1306  -17.5810   19.0636 C   0  0  0  0  0  0  0  0  0  0  0  0
   10.4791  -16.9532   17.7360 C   0  0  0  0  0  0  0  0  0  0  0  0
   10.3618  -18.0418   16.6872 C   0  0  0  0  0  0  0  0  0  0  0  0
   10.4394  -17.4589   15.3737 N   0  0  0  0  0  0  0  0  0  0  0  0
    9.8839  -16.3676   22.6446 C   0  0  0  0  0  0  0  0  0  0  0  0
   10.9493  -15.8219   23.0318 O   0  0  0  0  0  0  0  0  0  0  0  0
    6.7918  -10.7988   26.7486 C   0  0  0  0  0  0  0  0  0  0  0  0
    6.6900  -11.9849   25.3999 S   0  0  0  0  0  0  0  0  0  0  0  0
    7.2842  -13.6058   25.8776 C   0  0  0  0  0  0  0  0  0  0  0  0
    7.3054  -14.5812   24.7240 C   0  0  0  0  0  0  0  0  0  0  0  0
    8.6881  -15.1726   24.5274 C   0  0  2  0  0  0  0  0  0  0  0  0
    8.7117  -16.0852   23.3977 N   0  0  0  0  0  0  0  0  0  0  0  0
    9.1280  -15.9283   25.7283 C   0  0  0  0  0  0  0  0  0  0  0  0
    9.2325  -15.3911   26.8716 O   0  0  0  0  0  0  0  0  0  0  0  0
    9.5826  -19.5303   26.6503 C   0  0  0  0  0  0  0  0  0  0  0  0
    9.8257  -18.0546   26.8792 C   0  0  2  0  0  0  0  0  0  0  0  0
    9.4617  -17.3180   25.6617 N   0  0  0  0  0  0  0  0  0  0  0  0
   11.2710  -17.8543   27.1115 C   0  0  0  0  0  0  0  0  0  0  0  0
   11.8507  -18.4540   28.2180 O   0  0  0  0  0  0  0  0  0  0  0  0
   11.9775  -17.1660   26.3453 O   0  0  0  0  0  0  0  0  0  0  0  0
  2  1  1  6
  3  2  1  0
  4  3  1  0
  5  4  1  0
  6  5  1  0
  7  6  1  0
  8  9  2  0
  8  2  1  0
 10 11  1  0
 11 12  1  0
 14 13  1  1
 13 12  1  0
 14 15  1  0
 15  8  1  0
 16 14  1  0
 17 16  2  0
 19 18  1  6
 19 20  1  0
 20 16  1  0
 21 19  1  0
 22 21  1  0
 23 21  2  0
M  END
$$$$
