KMA.pdb
     RDKit          3D

 23 22  0  0  1  0  0  0  0  0999 V2000
    8.1607  -12.5847   19.5274 N   0  0  0  0  0  0  0  0  0  0  0  0
    7.5382  -13.6819   20.2443 C   0  0  1  0  0  0  0  0  0  0  0  0
    7.6244  -14.9076   19.3985 C   0  0  0  0  0  0  0  0  0  0  0  0
    7.9068  -14.4413   17.9676 C   0  0  0  0  0  0  0  0  0  0  0  0
    7.9078  -15.6101   17.0128 C   0  0  0  0  0  0  0  0  0  0  0  0
    8.1961  -15.0536   15.6322 C   0  0  0  0  0  0  0  0  0  0  0  0
    8.0691  -16.1000   14.6523 N   0  0  0  0  0  0  0  0  0  0  0  0
    8.2174  -13.8372   21.5580 C   0  0  0  0  0  0  0  0  0  0  0  0
    9.4478  -13.6070   21.6838 O   0  0  0  0  0  0  0  0  0  0  0  0
    6.1567  -10.4821   27.1666 C   0  0  0  0  0  0  0  0  0  0  0  0
    6.2153  -12.2568   26.8781 S   0  0  0  0  0  0  0  0  0  0  0  0
    7.0367  -12.6658   25.3398 C   0  0  0  0  0  0  0  0  0  0  0  0
    7.2218  -14.1540   25.1566 C   0  0  0  0  0  0  0  0  0  0  0  0
    8.1697  -14.4548   24.0115 C   0  0  2  0  0  0  0  0  0  0  0  0
    7.5222  -14.2490   22.7277 N   0  0  0  0  0  0  0  0  0  0  0  0
    8.6438  -15.8618   24.0582 C   0  0  0  0  0  0  0  0  0  0  0  0
    7.8904  -16.8446   23.7873 O   0  0  0  0  0  0  0  0  0  0  0  0
   11.8450  -17.7194   24.0892 C   0  0  0  0  0  0  0  0  0  0  0  0
   10.4053  -17.5938   24.5371 C   0  0  2  0  0  0  0  0  0  0  0  0
    9.9897  -16.1904   24.4151 N   0  0  0  0  0  0  0  0  0  0  0  0
   10.3313  -17.9628   25.9659 C   0  0  0  0  0  0  0  0  0  0  0  0
   10.7172  -19.2406   26.3381 O   0  0  0  0  0  0  0  0  0  0  0  0
    9.9344  -17.1624   26.8386 O   0  0  0  0  0  0  0  0  0  0  0  0
  2  1  1  6
  3  2  1  0
  4  3  1  0
  5  4  1  0
  6  5  1  0
  7  6  1  0
  8  9  2  0
  8  2  1  0
 10 11  1  0
 11 12  1  0
 14 13  1  1
 13 12  1  0
 14 15  1  0
 15  8  1  0
 16 14  1  0
 17 16  2  0
 19 18  1  1
 19 20  1  0
 20 16  1  0
 21 19  1  0
 22 21  1  0
 23 21  2  0
M  END
$$$$
