KMA.pdb
     RDKit          3D

 23 22  0  0  1  0  0  0  0  0999 V2000
    7.9336  -15.9749   20.5005 N   0  0  0  0  0  0  0  0  0  0  0  0
    9.3361  -15.8905   20.8628 C   0  0  1  0  0  0  0  0  0  0  0  0
   10.0199  -14.9846   19.8948 C   0  0  0  0  0  0  0  0  0  0  0  0
    8.9428  -14.0698   19.3051 C   0  0  0  0  0  0  0  0  0  0  0  0
    8.6887  -14.4053   17.8557 C   0  0  0  0  0  0  0  0  0  0  0  0
    7.7989  -13.3118   17.2977 C   0  0  0  0  0  0  0  0  0  0  0  0
    7.3033  -13.7038   16.0047 N   0  0  0  0  0  0  0  0  0  0  0  0
    9.4360  -15.4156   22.2684 C   0  0  0  0  0  0  0  0  0  0  0  0
   10.5532  -15.1751   22.7944 O   0  0  0  0  0  0  0  0  0  0  0  0
    5.9038  -11.0731   27.8122 C   0  0  0  0  0  0  0  0  0  0  0  0
    5.7156  -12.0721   26.3280 S   0  0  0  0  0  0  0  0  0  0  0  0
    7.1680  -13.0650   25.9917 C   0  0  0  0  0  0  0  0  0  0  0  0
    7.0663  -13.8222   24.6883 C   0  0  0  0  0  0  0  0  0  0  0  0
    8.3419  -14.5883   24.3948 C   0  0  2  0  0  0  0  0  0  0  0  0
    8.2893  -15.2104   23.0834 N   0  0  0  0  0  0  0  0  0  0  0  0
    8.5693  -15.6623   25.3957 C   0  0  0  0  0  0  0  0  0  0  0  0
    8.6301  -15.4322   26.6408 O   0  0  0  0  0  0  0  0  0  0  0  0
    8.5962  -19.4263   25.3563 C   0  0  0  0  0  0  0  0  0  0  0  0
    8.8158  -18.0864   26.0239 C   0  0  2  0  0  0  0  0  0  0  0  0
    8.7342  -17.0294   25.0075 N   0  0  0  0  0  0  0  0  0  0  0  0
   10.1827  -18.0674   26.5846 C   0  0  0  0  0  0  0  0  0  0  0  0
   10.4560  -18.8651   27.6841 O   0  0  0  0  0  0  0  0  0  0  0  0
   11.0895  -17.3589   26.0993 O   0  0  0  0  0  0  0  0  0  0  0  0
  2  1  1  6
  3  2  1  0
  4  3  1  0
  5  4  1  0
  6  5  1  0
  7  6  1  0
  8  9  2  0
  8  2  1  0
 10 11  1  0
 11 12  1  0
 14 13  1  1
 13 12  1  0
 14 15  1  0
 15  8  1  0
 16 14  1  0
 17 16  2  0
 19 18  1  6
 19 20  1  0
 20 16  1  0
 21 19  1  0
 22 21  1  0
 23 21  2  0
M  END
$$$$
