KMA.pdb
     RDKit          3D

 23 22  0  0  1  0  0  0  0  0999 V2000
    9.3847  -16.2625   19.2505 N   0  0  0  0  0  0  0  0  0  0  0  0
    8.6273  -16.8143   20.3582 C   0  0  1  0  0  0  0  0  0  0  0  0
    8.8849  -18.2823   20.4213 C   0  0  0  0  0  0  0  0  0  0  0  0
    8.1580  -18.9128   19.2302 C   0  0  0  0  0  0  0  0  0  0  0  0
    7.2670  -20.0437   19.6829 C   0  0  0  0  0  0  0  0  0  0  0  0
    6.5391  -20.5528   18.4542 C   0  0  0  0  0  0  0  0  0  0  0  0
    5.6860  -21.6532   18.8181 N   0  0  0  0  0  0  0  0  0  0  0  0
    9.0214  -16.1042   21.6039 C   0  0  0  0  0  0  0  0  0  0  0  0
   10.2321  -15.9096   21.8847 O   0  0  0  0  0  0  0  0  0  0  0  0
    6.6936  -11.5360   27.7110 C   0  0  0  0  0  0  0  0  0  0  0  0
    6.2481  -12.4037   26.1995 S   0  0  0  0  0  0  0  0  0  0  0  0
    7.6014  -13.3873   25.5596 C   0  0  0  0  0  0  0  0  0  0  0  0
    7.2600  -14.0681   24.2548 C   0  0  0  0  0  0  0  0  0  0  0  0
    8.4206  -14.9029   23.7484 C   0  0  2  0  0  0  0  0  0  0  0  0
    8.0637  -15.6133   22.5328 N   0  0  0  0  0  0  0  0  0  0  0  0
    8.8399  -15.9118   24.7549 C   0  0  0  0  0  0  0  0  0  0  0  0
    8.0508  -16.7971   25.2026 O   0  0  0  0  0  0  0  0  0  0  0  0
   12.1017  -17.1143   26.1635 C   0  0  0  0  0  0  0  0  0  0  0  0
   10.5914  -17.0262   26.1770 C   0  0  2  0  0  0  0  0  0  0  0  0
   10.1700  -15.9414   25.2810 N   0  0  0  0  0  0  0  0  0  0  0  0
   10.1608  -16.6727   27.5455 C   0  0  0  0  0  0  0  0  0  0  0  0
   10.3695  -17.5922   28.5609 O   0  0  0  0  0  0  0  0  0  0  0  0
    9.6192  -15.5787   27.8093 O   0  0  0  0  0  0  0  0  0  0  0  0
  2  1  1  6
  3  2  1  0
  4  3  1  0
  5  4  1  0
  6  5  1  0
  7  6  1  0
  8  9  2  0
  8  2  1  0
 10 11  1  0
 11 12  1  0
 14 13  1  1
 13 12  1  0
 14 15  1  0
 15  8  1  0
 16 14  1  0
 17 16  2  0
 19 18  1  1
 19 20  1  0
 20 16  1  0
 21 19  1  0
 22 21  1  0
 23 21  2  0
M  END
$$$$
