KMA.pdb
     RDKit          3D

 23 22  0  0  1  0  0  0  0  0999 V2000
    7.8067  -16.3852   20.8572 N   0  0  0  0  0  0  0  0  0  0  0  0
    9.2208  -16.1420   21.0726 C   0  0  1  0  0  0  0  0  0  0  0  0
    9.7314  -15.3013   19.9512 C   0  0  0  0  0  0  0  0  0  0  0  0
    8.5126  -14.8595   19.1363 C   0  0  0  0  0  0  0  0  0  0  0  0
    8.9332  -14.0215   17.9536 C   0  0  0  0  0  0  0  0  0  0  0  0
    7.6917  -13.7827   17.1166 C   0  0  0  0  0  0  0  0  0  0  0  0
    8.0133  -12.9229   16.0081 N   0  0  0  0  0  0  0  0  0  0  0  0
    9.3953  -15.4996   22.4024 C   0  0  0  0  0  0  0  0  0  0  0  0
   10.5301  -15.1314   22.8015 O   0  0  0  0  0  0  0  0  0  0  0  0
    6.0637  -10.9161   27.8987 C   0  0  0  0  0  0  0  0  0  0  0  0
    5.8393  -11.9678   26.4565 S   0  0  0  0  0  0  0  0  0  0  0  0
    7.2997  -12.9392   26.0932 C   0  0  0  0  0  0  0  0  0  0  0  0
    7.1913  -13.6858   24.7842 C   0  0  0  0  0  0  0  0  0  0  0  0
    8.4230  -14.5333   24.5294 C   0  0  2  0  0  0  0  0  0  0  0  0
    8.3033  -15.2699   23.2832 N   0  0  0  0  0  0  0  0  0  0  0  0
    8.6344  -15.5203   25.6193 C   0  0  0  0  0  0  0  0  0  0  0  0
    8.7529  -15.1794   26.8344 O   0  0  0  0  0  0  0  0  0  0  0  0
    8.0057  -19.0885   26.1913 C   0  0  0  0  0  0  0  0  0  0  0  0
    8.8742  -17.8794   26.4615 C   0  0  2  0  0  0  0  0  0  0  0  0
    8.7170  -16.9243   25.3568 N   0  0  0  0  0  0  0  0  0  0  0  0
   10.2850  -18.3180   26.4801 C   0  0  0  0  0  0  0  0  0  0  0  0
   10.6856  -19.2101   27.4619 O   0  0  0  0  0  0  0  0  0  0  0  0
   11.1181  -17.9107   25.6435 O   0  0  0  0  0  0  0  0  0  0  0  0
  2  1  1  6
  3  2  1  0
  4  3  1  0
  5  4  1  0
  6  5  1  0
  7  6  1  0
  8  9  2  0
  8  2  1  0
 10 11  1  0
 11 12  1  0
 14 13  1  1
 13 12  1  0
 14 15  1  0
 15  8  1  0
 16 14  1  0
 17 16  2  0
 19 18  1  6
 19 20  1  0
 20 16  1  0
 21 19  1  0
 22 21  1  0
 23 21  2  0
M  END
$$$$
