KMA.pdb
     RDKit          3D

 23 22  0  0  1  0  0  0  0  0999 V2000
    7.1914  -17.2306   20.6477 N   0  0  0  0  0  0  0  0  0  0  0  0
    8.6372  -17.1090   20.6474 C   0  0  1  0  0  0  0  0  0  0  0  0
    9.0570  -16.4728   19.3651 C   0  0  0  0  0  0  0  0  0  0  0  0
    9.2991  -17.6067   18.3648 C   0  0  0  0  0  0  0  0  0  0  0  0
   10.7679  -17.7317   18.0408 C   0  0  0  0  0  0  0  0  0  0  0  0
   10.8805  -18.6615   16.8484 C   0  0  0  0  0  0  0  0  0  0  0  0
   12.2677  -18.9201   16.5656 N   0  0  0  0  0  0  0  0  0  0  0  0
    9.0485  -16.3260   21.8428 C   0  0  0  0  0  0  0  0  0  0  0  0
   10.2627  -16.1093   22.0905 O   0  0  0  0  0  0  0  0  0  0  0  0
    7.0001  -11.4133   27.7539 C   0  0  0  0  0  0  0  0  0  0  0  0
    6.5285  -12.2535   26.2347 S   0  0  0  0  0  0  0  0  0  0  0  0
    7.7355  -13.4797   25.7366 C   0  0  0  0  0  0  0  0  0  0  0  0
    7.3884  -14.1373   24.4214 C   0  0  0  0  0  0  0  0  0  0  0  0
    8.4797  -15.0926   23.9778 C   0  0  2  0  0  0  0  0  0  0  0  0
    8.1041  -15.7870   22.7586 N   0  0  0  0  0  0  0  0  0  0  0  0
    8.7541  -16.1188   25.0163 C   0  0  0  0  0  0  0  0  0  0  0  0
    7.8519  -16.8804   25.4775 O   0  0  0  0  0  0  0  0  0  0  0  0
   11.6522  -18.0775   26.0392 C   0  0  0  0  0  0  0  0  0  0  0  0
   10.3434  -17.4401   26.4516 C   0  0  2  0  0  0  0  0  0  0  0  0
   10.0641  -16.3072   25.5597 N   0  0  0  0  0  0  0  0  0  0  0  0
   10.4994  -16.9074   27.8209 C   0  0  0  0  0  0  0  0  0  0  0  0
   10.6816  -17.8047   28.8610 O   0  0  0  0  0  0  0  0  0  0  0  0
   10.4716  -15.6828   28.0640 O   0  0  0  0  0  0  0  0  0  0  0  0
  2  1  1  6
  3  2  1  0
  4  3  1  0
  5  4  1  0
  6  5  1  0
  7  6  1  0
  8  9  2  0
  8  2  1  0
 10 11  1  0
 11 12  1  0
 14 13  1  1
 13 12  1  0
 14 15  1  0
 15  8  1  0
 16 14  1  0
 17 16  2  0
 19 18  1  6
 19 20  1  0
 20 16  1  0
 21 19  1  0
 22 21  1  0
 23 21  2  0
M  END
$$$$
