KMA.pdb
     RDKit          3D

 23 22  0  0  1  0  0  0  0  0999 V2000
    7.2735  -15.5831   20.4600 N   0  0  0  0  0  0  0  0  0  0  0  0
    8.3587  -14.6201   20.4754 C   0  0  1  0  0  0  0  0  0  0  0  0
    7.9667  -13.4538   19.6320 C   0  0  0  0  0  0  0  0  0  0  0  0
    7.4959  -14.0157   18.2876 C   0  0  0  0  0  0  0  0  0  0  0  0
    8.4110  -13.5740   17.1716 C   0  0  0  0  0  0  0  0  0  0  0  0
    7.8123  -14.0903   15.8778 C   0  0  0  0  0  0  0  0  0  0  0  0
    8.5404  -13.5526   14.7590 N   0  0  0  0  0  0  0  0  0  0  0  0
    8.6407  -14.2444   21.8863 C   0  0  0  0  0  0  0  0  0  0  0  0
    9.5962  -13.4789   22.1755 O   0  0  0  0  0  0  0  0  0  0  0  0
    5.8475  -10.9915   26.9850 C   0  0  0  0  0  0  0  0  0  0  0  0
    7.3357  -11.9522   26.6713 S   0  0  0  0  0  0  0  0  0  0  0  0
    6.9906  -13.7026   26.5123 C   0  0  0  0  0  0  0  0  0  0  0  0
    6.7639  -14.1232   25.0790 C   0  0  0  0  0  0  0  0  0  0  0  0
    8.0782  -14.3334   24.3518 C   0  0  2  0  0  0  0  0  0  0  0  0
    7.8559  -14.7237   22.9705 N   0  0  0  0  0  0  0  0  0  0  0  0
    8.8885  -15.3980   24.9975 C   0  0  0  0  0  0  0  0  0  0  0  0
    9.2136  -15.3593   26.2220 O   0  0  0  0  0  0  0  0  0  0  0  0
    9.8405  -18.9121   24.1747 C   0  0  0  0  0  0  0  0  0  0  0  0
   10.0420  -17.6340   24.9589 C   0  0  2  0  0  0  0  0  0  0  0  0
    9.3521  -16.5375   24.2670 N   0  0  0  0  0  0  0  0  0  0  0  0
   11.4860  -17.3212   24.9707 C   0  0  0  0  0  0  0  0  0  0  0  0
   12.3413  -18.1786   25.6440 O   0  0  0  0  0  0  0  0  0  0  0  0
   11.9520  -16.3151   24.3960 O   0  0  0  0  0  0  0  0  0  0  0  0
  2  1  1  1
  3  2  1  0
  4  3  1  0
  5  4  1  0
  6  5  1  0
  7  6  1  0
  8  9  2  0
  8  2  1  0
 10 11  1  0
 11 12  1  0
 14 13  1  1
 13 12  1  0
 14 15  1  0
 15  8  1  0
 16 14  1  0
 17 16  2  0
 19 18  1  6
 19 20  1  0
 20 16  1  0
 21 19  1  0
 22 21  1  0
 23 21  2  0
M  END
$$$$
