KMA.pdb
     RDKit          3D

 23 22  0  0  1  0  0  0  0  0999 V2000
    7.3719  -16.2569   20.9479 N   0  0  0  0  0  0  0  0  0  0  0  0
    8.4944  -15.3377   20.9333 C   0  0  1  0  0  0  0  0  0  0  0  0
    8.1148  -14.1418   20.1265 C   0  0  0  0  0  0  0  0  0  0  0  0
    8.2374  -14.5421   18.6536 C   0  0  0  0  0  0  0  0  0  0  0  0
    7.9718  -13.3608   17.7527 C   0  0  0  0  0  0  0  0  0  0  0  0
    8.1942  -13.8313   16.3286 C   0  0  0  0  0  0  0  0  0  0  0  0
    7.8547  -12.7756   15.4114 N   0  0  0  0  0  0  0  0  0  0  0  0
    8.8495  -14.9989   22.3370 C   0  0  0  0  0  0  0  0  0  0  0  0
    9.8710  -14.3136   22.6008 O   0  0  0  0  0  0  0  0  0  0  0  0
    7.3922  -11.6978   27.7697 C   0  0  0  0  0  0  0  0  0  0  0  0
    6.2071  -12.3461   26.5816 S   0  0  0  0  0  0  0  0  0  0  0  0
    7.0021  -13.2627   25.2639 C   0  0  0  0  0  0  0  0  0  0  0  0
    7.3248  -14.6853   25.6570 C   0  0  0  0  0  0  0  0  0  0  0  0
    8.4653  -15.2416   24.8263 C   0  0  2  0  0  0  0  0  0  0  0  0
    8.0641  -15.4257   23.4425 N   0  0  0  0  0  0  0  0  0  0  0  0
    8.9188  -16.5579   25.3444 C   0  0  0  0  0  0  0  0  0  0  0  0
    8.1202  -17.5192   25.5562 O   0  0  0  0  0  0  0  0  0  0  0  0
   12.2111  -18.3019   25.7436 C   0  0  0  0  0  0  0  0  0  0  0  0
   10.7313  -18.1644   26.0272 C   0  0  2  0  0  0  0  0  0  0  0  0
   10.2952  -16.8175   25.6363 N   0  0  0  0  0  0  0  0  0  0  0  0
   10.5248  -18.2995   27.4840 C   0  0  0  0  0  0  0  0  0  0  0  0
   10.1134  -17.1856   28.1981 O   0  0  0  0  0  0  0  0  0  0  0  0
   10.7092  -19.3796   28.0833 O   0  0  0  0  0  0  0  0  0  0  0  0
  2  1  1  1
  3  2  1  0
  4  3  1  0
  5  4  1  0
  6  5  1  0
  7  6  1  0
  8  9  2  0
  8  2  1  0
 10 11  1  0
 11 12  1  0
 14 13  1  1
 13 12  1  0
 14 15  1  0
 15  8  1  0
 16 14  1  0
 17 16  2  0
 19 18  1  1
 19 20  1  0
 20 16  1  0
 21 19  1  0
 22 21  1  0
 23 21  2  0
M  END
$$$$
