CSI.pdb
     RDKit          3D

 21 20  0  0  1  0  0  0  0  0999 V2000
    7.8968  -14.8368   17.3966 N   0  0  0  0  0  0  0  0  0  0  0  0
    8.6348  -14.3239   18.5318 C   0  0  1  0  0  0  0  0  0  0  0  0
    8.3384  -12.8269   18.5960 C   0  0  0  0  0  0  0  0  0  0  0  0
    9.1090  -12.1077   20.0719 S   0  0  0  0  0  0  0  0  0  0  0  0
    8.1188  -14.9264   19.7639 C   0  0  0  0  0  0  0  0  0  0  0  0
    6.8920  -14.7666   20.0584 O   0  0  0  0  0  0  0  0  0  0  0  0
   10.1434  -17.5824   22.2999 O   0  0  0  0  0  0  0  0  0  0  0  0
    8.7610  -17.5913   22.1980 C   0  0  0  0  0  0  0  0  0  0  0  0
    8.3312  -16.1568   21.8862 C   0  0  2  0  0  0  0  0  0  0  0  0
    8.8982  -15.6904   20.6727 N   0  0  0  0  0  0  0  0  0  0  0  0
    8.6944  -15.3532   23.0802 C   0  0  0  0  0  0  0  0  0  0  0  0
    9.8022  -14.7879   23.0348 O   0  0  0  0  0  0  0  0  0  0  0  0
    6.6695  -11.3144   26.9721 C   0  0  0  0  0  0  0  0  0  0  0  0
    7.6532  -12.4512   26.7478 C   0  0  0  0  0  0  0  0  0  0  0  0
    7.1973  -13.3861   25.6726 C   0  0  2  0  0  0  0  0  0  0  0  0
    5.8025  -13.8992   25.8867 C   0  0  0  0  0  0  0  0  0  0  0  0
    8.2248  -14.4106   25.3726 C   0  0  2  0  0  0  0  0  0  0  0  0
    7.8693  -15.2133   24.2106 N   0  0  0  0  0  0  0  0  0  0  0  0
    8.7008  -15.2213   26.5055 C   0  0  0  0  0  0  0  0  0  0  0  0
    9.4796  -14.6816   27.4997 O   0  0  0  0  0  0  0  0  0  0  0  0
    8.4055  -16.4296   26.5984 O   0  0  0  0  0  0  0  0  0  0  0  0
  2  3  1  0
  2  1  1  6
  4  3  1  0
  5  2  1  0
  5  6  2  0
  8  7  1  0
  9  8  1  1
  9 11  1  0
  9 10  1  0
 10  5  1  0
 11 12  2  0
 13 14  1  0
 14 15  1  0
 15 16  1  1
 17 15  1  0
 17 18  1  6
 18 11  1  0
 19 17  1  0
 20 19  1  0
 21 19  2  0
M  END
$$$$
