CSI.pdb
     RDKit          3D

 21 20  0  0  1  0  0  0  0  0999 V2000
    7.6080  -14.4866   17.2818 N   0  0  0  0  0  0  0  0  0  0  0  0
    8.5415  -14.3157   18.3753 C   0  0  1  0  0  0  0  0  0  0  0  0
    8.7719  -12.8121   18.5124 C   0  0  0  0  0  0  0  0  0  0  0  0
    9.9064  -12.4843   19.8890 S   0  0  0  0  0  0  0  0  0  0  0  0
    7.9263  -14.7806   19.6214 C   0  0  0  0  0  0  0  0  0  0  0  0
    6.7035  -14.5087   19.8410 O   0  0  0  0  0  0  0  0  0  0  0  0
    7.1934  -17.8121   23.0284 O   0  0  0  0  0  0  0  0  0  0  0  0
    8.0227  -17.4779   21.9691 C   0  0  0  0  0  0  0  0  0  0  0  0
    7.9111  -15.9640   21.7807 C   0  0  2  0  0  0  0  0  0  0  0  0
    8.6033  -15.5262   20.6228 N   0  0  0  0  0  0  0  0  0  0  0  0
    8.3927  -15.3584   23.0473 C   0  0  0  0  0  0  0  0  0  0  0  0
    9.6270  -15.2417   23.1557 O   0  0  0  0  0  0  0  0  0  0  0  0
    6.8057  -11.4293   27.4639 C   0  0  0  0  0  0  0  0  0  0  0  0
    7.6836  -12.5850   27.0128 C   0  0  0  0  0  0  0  0  0  0  0  0
    7.0886  -13.3263   25.8577 C   0  0  2  0  0  0  0  0  0  0  0  0
    5.6842  -13.7919   26.1133 C   0  0  0  0  0  0  0  0  0  0  0  0
    8.0228  -14.3477   25.3290 C   0  0  2  0  0  0  0  0  0  0  0  0
    7.5432  -14.9305   24.0835 N   0  0  0  0  0  0  0  0  0  0  0  0
    8.5089  -15.3568   26.2843 C   0  0  0  0  0  0  0  0  0  0  0  0
    8.2103  -16.6894   26.1377 O   0  0  0  0  0  0  0  0  0  0  0  0
    9.2144  -15.0296   27.2595 O   0  0  0  0  0  0  0  0  0  0  0  0
  2  3  1  0
  2  1  1  6
  4  3  1  0
  5  2  1  0
  5  6  2  0
  8  7  1  0
  9  8  1  1
  9 11  1  0
  9 10  1  0
 10  5  1  0
 11 12  2  0
 13 14  1  0
 14 15  1  0
 15 16  1  1
 17 15  1  0
 17 18  1  6
 18 11  1  0
 19 17  1  0
 20 19  1  0
 21 19  2  0
M  END
$$$$
