CSI.pdb
     RDKit          3D

 21 20  0  0  1  0  0  0  0  0999 V2000
    7.8789  -14.8686   17.9047 N   0  0  0  0  0  0  0  0  0  0  0  0
    8.5145  -14.2783   19.0640 C   0  0  1  0  0  0  0  0  0  0  0  0
    7.9893  -12.8473   19.1600 C   0  0  0  0  0  0  0  0  0  0  0  0
    9.0624  -11.7310   18.2157 S   0  0  0  0  0  0  0  0  0  0  0  0
    8.0829  -14.9859   20.2724 C   0  0  0  0  0  0  0  0  0  0  0  0
    6.8379  -15.1337   20.4856 O   0  0  0  0  0  0  0  0  0  0  0  0
   10.2865  -17.5224   22.5858 O   0  0  0  0  0  0  0  0  0  0  0  0
    8.9025  -17.5155   22.6626 C   0  0  0  0  0  0  0  0  0  0  0  0
    8.4551  -16.0679   22.4528 C   0  0  2  0  0  0  0  0  0  0  0  0
    8.9650  -15.5304   21.2434 N   0  0  0  0  0  0  0  0  0  0  0  0
    8.8702  -15.3314   23.6728 C   0  0  0  0  0  0  0  0  0  0  0  0
   10.0673  -14.9946   23.7200 O   0  0  0  0  0  0  0  0  0  0  0  0
    5.7720  -12.2244   27.4729 C   0  0  0  0  0  0  0  0  0  0  0  0
    6.3244  -13.3573   26.6236 C   0  0  0  0  0  0  0  0  0  0  0  0
    7.7678  -13.1557   26.2863 C   0  0  2  0  0  0  0  0  0  0  0  0
    7.9948  -12.0559   25.2896 C   0  0  0  0  0  0  0  0  0  0  0  0
    8.4419  -14.4426   25.9947 C   0  0  2  0  0  0  0  0  0  0  0  0
    7.9990  -15.0143   24.7306 N   0  0  0  0  0  0  0  0  0  0  0  0
    8.4842  -15.4292   27.0865 C   0  0  0  0  0  0  0  0  0  0  0  0
    9.0814  -15.1453   28.2903 O   0  0  0  0  0  0  0  0  0  0  0  0
    7.9721  -16.5584   26.9509 O   0  0  0  0  0  0  0  0  0  0  0  0
  2  3  1  0
  2  1  1  6
  4  3  1  0
  5  2  1  0
  5  6  2  0
  8  7  1  0
  9  8  1  1
  9 11  1  0
  9 10  1  0
 10  5  1  0
 11 12  2  0
 13 14  1  0
 14 15  1  0
 15 16  1  6
 17 15  1  0
 17 18  1  6
 18 11  1  0
 19 17  1  0
 20 19  1  0
 21 19  2  0
M  END
$$$$
