CSI.pdb
     RDKit          3D

 21 20  0  0  1  0  0  0  0  0999 V2000
    6.5240  -20.4578   22.6048 N   0  0  0  0  0  0  0  0  0  0  0  0
    6.4244  -19.2315   23.3681 C   0  0  1  0  0  0  0  0  0  0  0  0
    6.4010  -19.6417   24.8391 C   0  0  0  0  0  0  0  0  0  0  0  0
    6.2599  -18.1692   25.8886 S   0  0  0  0  0  0  0  0  0  0  0  0
    7.6291  -18.4243   23.1569 C   0  0  0  0  0  0  0  0  0  0  0  0
    8.7660  -18.9911   23.2160 O   0  0  0  0  0  0  0  0  0  0  0  0
    7.6960  -14.6150   21.6121 O   0  0  0  0  0  0  0  0  0  0  0  0
    8.8153  -15.4229   21.4862 C   0  0  0  0  0  0  0  0  0  0  0  0
    8.8470  -16.3298   22.7177 C   0  0  2  0  0  0  0  0  0  0  0  0
    7.6252  -17.0301   22.8861 N   0  0  0  0  0  0  0  0  0  0  0  0
    9.2135  -15.4551   23.8595 C   0  0  0  0  0  0  0  0  0  0  0  0
   10.0382  -14.5572   23.6097 O   0  0  0  0  0  0  0  0  0  0  0  0
    6.1605  -12.4038   25.9295 C   0  0  0  0  0  0  0  0  0  0  0  0
    7.3777  -13.2197   25.5259 C   0  0  0  0  0  0  0  0  0  0  0  0
    8.0652  -13.8271   26.7075 C   0  0  2  0  0  0  0  0  0  0  0  0
    8.4779  -12.8151   27.7371 C   0  0  0  0  0  0  0  0  0  0  0  0
    9.1114  -14.7901   26.2909 C   0  0  2  0  0  0  0  0  0  0  0  0
    8.6864  -15.5974   25.1558 N   0  0  0  0  0  0  0  0  0  0  0  0
    9.7396  -15.5866   27.3577 C   0  0  0  0  0  0  0  0  0  0  0  0
    9.5632  -16.9463   27.4395 O   0  0  0  0  0  0  0  0  0  0  0  0
   10.4585  -15.0471   28.2225 O   0  0  0  0  0  0  0  0  0  0  0  0
  2  3  1  0
  2  1  1  6
  4  3  1  0
  5  2  1  0
  5  6  2  0
  8  7  1  0
  9  8  1  6
  9 11  1  0
  9 10  1  0
 10  5  1  0
 11 12  2  0
 13 14  1  0
 14 15  1  0
 15 16  1  6
 17 15  1  0
 17 18  1  6
 18 11  1  0
 19 17  1  0
 20 19  1  0
 21 19  2  0
M  END
$$$$
