CSI.pdb
     RDKit          3D

 21 20  0  0  1  0  0  0  0  0999 V2000
    7.8121  -15.4528   17.6828 N   0  0  0  0  0  0  0  0  0  0  0  0
    8.3494  -14.6523   18.7630 C   0  0  1  0  0  0  0  0  0  0  0  0
    7.7868  -13.2448   18.5758 C   0  0  0  0  0  0  0  0  0  0  0  0
    8.8823  -12.0322   19.3625 S   0  0  0  0  0  0  0  0  0  0  0  0
    7.8481  -15.1584   20.0436 C   0  0  0  0  0  0  0  0  0  0  0  0
    6.5994  -15.1040   20.2787 O   0  0  0  0  0  0  0  0  0  0  0  0
    9.6677  -17.7949   22.7384 O   0  0  0  0  0  0  0  0  0  0  0  0
    8.3054  -17.6065   22.5648 C   0  0  0  0  0  0  0  0  0  0  0  0
    8.0954  -16.1149   22.2991 C   0  0  2  0  0  0  0  0  0  0  0  0
    8.6649  -15.7161   21.0629 N   0  0  0  0  0  0  0  0  0  0  0  0
    8.6454  -15.4080   23.4827 C   0  0  0  0  0  0  0  0  0  0  0  0
    9.8200  -15.0104   23.3774 O   0  0  0  0  0  0  0  0  0  0  0  0
    5.6162  -11.9225   25.9555 C   0  0  0  0  0  0  0  0  0  0  0  0
    6.7974  -12.6938   25.3900 C   0  0  0  0  0  0  0  0  0  0  0  0
    7.4496  -13.5599   26.4208 C   0  0  2  0  0  0  0  0  0  0  0  0
    7.8982  -12.7992   27.6351 C   0  0  0  0  0  0  0  0  0  0  0  0
    8.4562  -14.4620   25.8137 C   0  0  2  0  0  0  0  0  0  0  0  0
    7.9202  -15.1811   24.6664 N   0  0  0  0  0  0  0  0  0  0  0  0
    9.2067  -15.3307   26.7352 C   0  0  0  0  0  0  0  0  0  0  0  0
    8.8992  -16.6612   26.8811 O   0  0  0  0  0  0  0  0  0  0  0  0
   10.1531  -14.8817   27.4125 O   0  0  0  0  0  0  0  0  0  0  0  0
  2  3  1  0
  2  1  1  6
  4  3  1  0
  5  2  1  0
  5  6  2  0
  8  7  1  0
  9  8  1  1
  9 11  1  0
  9 10  1  0
 10  5  1  0
 11 12  2  0
 13 14  1  0
 14 15  1  0
 15 16  1  1
 17 15  1  0
 17 18  1  6
 18 11  1  0
 19 17  1  0
 20 19  1  0
 21 19  2  0
M  END
$$$$
