CSI.pdb
     RDKit          3D

 21 20  0  0  1  0  0  0  0  0999 V2000
    7.6098  -14.8807   17.9282 N   0  0  0  0  0  0  0  0  0  0  0  0
    8.3092  -14.3493   19.0791 C   0  0  1  0  0  0  0  0  0  0  0  0
    7.9462  -12.8677   19.1562 C   0  0  0  0  0  0  0  0  0  0  0  0
    9.1482  -11.8877   18.2160 S   0  0  0  0  0  0  0  0  0  0  0  0
    7.8042  -14.9886   20.2971 C   0  0  0  0  0  0  0  0  0  0  0  0
    6.5495  -15.0109   20.5037 O   0  0  0  0  0  0  0  0  0  0  0  0
    9.6557  -17.7845   22.6254 O   0  0  0  0  0  0  0  0  0  0  0  0
    8.2847  -17.5829   22.6637 C   0  0  0  0  0  0  0  0  0  0  0  0
    8.0536  -16.0808   22.4899 C   0  0  2  0  0  0  0  0  0  0  0  0
    8.6237  -15.5975   21.2845 N   0  0  0  0  0  0  0  0  0  0  0  0
    8.5864  -15.4409   23.7186 C   0  0  0  0  0  0  0  0  0  0  0  0
    9.8151  -15.2444   23.7365 O   0  0  0  0  0  0  0  0  0  0  0  0
    5.5908  -11.7850   26.1398 C   0  0  0  0  0  0  0  0  0  0  0  0
    6.7032  -12.6481   25.5674 C   0  0  0  0  0  0  0  0  0  0  0  0
    7.3632  -13.4848   26.6172 C   0  0  2  0  0  0  0  0  0  0  0  0
    7.8770  -12.6822   27.7774 C   0  0  0  0  0  0  0  0  0  0  0  0
    8.3196  -14.4474   26.0221 C   0  0  2  0  0  0  0  0  0  0  0  0
    7.7891  -15.0652   24.8147 N   0  0  0  0  0  0  0  0  0  0  0  0
    8.9368  -15.4193   26.9396 C   0  0  0  0  0  0  0  0  0  0  0  0
    8.4997  -16.7193   27.0113 O   0  0  0  0  0  0  0  0  0  0  0  0
    9.8839  -15.0894   27.6813 O   0  0  0  0  0  0  0  0  0  0  0  0
  2  3  1  0
  2  1  1  6
  4  3  1  0
  5  2  1  0
  5  6  2  0
  8  7  1  0
  9  8  1  1
  9 11  1  0
  9 10  1  0
 10  5  1  0
 11 12  2  0
 13 14  1  0
 14 15  1  0
 15 16  1  1
 17 15  1  0
 17 18  1  6
 18 11  1  0
 19 17  1  0
 20 19  1  0
 21 19  2  0
M  END
$$$$
