CSI.pdb
     RDKit          3D

 21 20  0  0  1  0  0  0  0  0999 V2000
   10.5054  -19.2790   21.2935 N   0  0  0  0  0  0  0  0  0  0  0  0
    9.1624  -18.9704   21.7377 C   0  0  1  0  0  0  0  0  0  0  0  0
    8.8465  -19.9516   22.8648 C   0  0  0  0  0  0  0  0  0  0  0  0
    7.2459  -19.5395   23.6116 S   0  0  0  0  0  0  0  0  0  0  0  0
    9.1337  -17.6215   22.3095 C   0  0  0  0  0  0  0  0  0  0  0  0
   10.0120  -17.3015   23.1718 O   0  0  0  0  0  0  0  0  0  0  0  0
    6.3319  -14.6502   21.4073 O   0  0  0  0  0  0  0  0  0  0  0  0
    7.6489  -14.2687   21.6109 C   0  0  0  0  0  0  0  0  0  0  0  0
    8.2785  -15.3223   22.5238 C   0  0  2  0  0  0  0  0  0  0  0  0
    8.1820  -16.6239   21.9685 N   0  0  0  0  0  0  0  0  0  0  0  0
    7.6151  -15.1688   23.8426 C   0  0  0  0  0  0  0  0  0  0  0  0
    6.5529  -15.8004   23.9903 O   0  0  0  0  0  0  0  0  0  0  0  0
   10.1324  -13.1727   28.6820 C   0  0  0  0  0  0  0  0  0  0  0  0
    9.1665  -13.0636   27.5136 C   0  0  0  0  0  0  0  0  0  0  0  0
    8.3912  -14.3258   27.3045 C   0  0  2  0  0  0  0  0  0  0  0  0
    9.2508  -15.5568   27.3136 C   0  0  0  0  0  0  0  0  0  0  0  0
    7.4497  -14.2023   26.1670 C   0  0  2  0  0  0  0  0  0  0  0  0
    8.1202  -14.3713   24.8853 N   0  0  0  0  0  0  0  0  0  0  0  0
    6.5351  -13.0490   26.1879 C   0  0  0  0  0  0  0  0  0  0  0  0
    5.5562  -12.9239   27.1432 O   0  0  0  0  0  0  0  0  0  0  0  0
    6.6253  -12.1432   25.3351 O   0  0  0  0  0  0  0  0  0  0  0  0
  2  3  1  0
  2  1  1  1
  4  3  1  0
  5  2  1  0
  5  6  2  0
  8  7  1  0
  9  8  1  6
  9 11  1  0
  9 10  1  0
 10  5  1  0
 11 12  2  0
 13 14  1  0
 14 15  1  0
 15 16  1  6
 17 15  1  0
 17 18  1  6
 18 11  1  0
 19 17  1  0
 20 19  1  0
 21 19  2  0
M  END
$$$$
