CSI.pdb
     RDKit          3D

 21 20  0  0  1  0  0  0  0  0999 V2000
    7.5160  -14.9374   17.9327 N   0  0  0  0  0  0  0  0  0  0  0  0
    8.2492  -14.3396   19.0288 C   0  0  1  0  0  0  0  0  0  0  0  0
    7.7014  -12.9230   19.1902 C   0  0  0  0  0  0  0  0  0  0  0  0
    8.5894  -11.7883   18.0888 S   0  0  0  0  0  0  0  0  0  0  0  0
    7.9573  -15.0665   20.2672 C   0  0  0  0  0  0  0  0  0  0  0  0
    6.7697  -15.4700   20.4768 O   0  0  0  0  0  0  0  0  0  0  0  0
    8.7030  -18.1230   23.5848 O   0  0  0  0  0  0  0  0  0  0  0  0
    9.1305  -17.5047   22.4201 C   0  0  0  0  0  0  0  0  0  0  0  0
    8.5428  -16.0925   22.4278 C   0  0  2  0  0  0  0  0  0  0  0  0
    8.9173  -15.3612   21.2716 N   0  0  0  0  0  0  0  0  0  0  0  0
    8.9749  -15.4774   23.7076 C   0  0  0  0  0  0  0  0  0  0  0  0
   10.1687  -15.1303   23.7647 O   0  0  0  0  0  0  0  0  0  0  0  0
    5.9487  -11.9548   26.1214 C   0  0  0  0  0  0  0  0  0  0  0  0
    7.0274  -12.8792   25.5810 C   0  0  0  0  0  0  0  0  0  0  0  0
    7.5882  -13.7711   26.6429 C   0  0  2  0  0  0  0  0  0  0  0  0
    8.0290  -13.0260   27.8697 C   0  0  0  0  0  0  0  0  0  0  0  0
    8.5669  -14.7325   26.0832 C   0  0  2  0  0  0  0  0  0  0  0  0
    8.1227  -15.2810   24.8093 N   0  0  0  0  0  0  0  0  0  0  0  0
    9.0830  -15.7609   27.0014 C   0  0  0  0  0  0  0  0  0  0  0  0
   10.1423  -15.5114   27.8393 O   0  0  0  0  0  0  0  0  0  0  0  0
    8.5674  -16.8957   27.0487 O   0  0  0  0  0  0  0  0  0  0  0  0
  2  3  1  0
  2  1  1  6
  4  3  1  0
  5  2  1  0
  5  6  2  0
  8  7  1  0
  9  8  1  6
  9 11  1  0
  9 10  1  0
 10  5  1  0
 11 12  2  0
 13 14  1  0
 14 15  1  0
 15 16  1  1
 17 15  1  0
 17 18  1  6
 18 11  1  0
 19 17  1  0
 20 19  1  0
 21 19  2  0
M  END
$$$$
