RDL.pdb
     RDKit          3D

 28 27  0  0  1  0  0  0  0  0999 V2000
   34.3790  -26.1837  -17.0618 N   0  0  0  0  0  0  0  0  0  0  0  0
   34.1512  -25.7574  -18.4054 C   0  0  0  0  0  0  0  0  0  0  0  0
   35.0900  -25.8830  -19.2661 N   0  0  0  0  0  0  0  0  0  0  0  0
   32.8839  -25.2085  -18.7281 N   0  0  0  0  0  0  0  0  0  0  0  0
   31.8552  -25.1529  -17.6727 C   0  0  0  0  0  0  0  0  0  0  0  0
   31.3548  -23.7557  -17.6209 C   0  0  0  0  0  0  0  0  0  0  0  0
   30.4341  -23.3993  -16.5192 C   0  0  0  0  0  0  0  0  0  0  0  0
   28.9657  -23.4347  -16.8236 C   0  0  2  0  0  0  0  0  0  0  0  0
   28.7682  -23.1851  -18.2286 N   0  0  0  0  0  0  0  0  0  0  0  0
   28.3635  -22.2906  -16.0641 C   0  0  0  0  0  0  0  0  0  0  0  0
   28.5137  -22.3050  -14.8077 O   0  0  0  0  0  0  0  0  0  0  0  0
   35.0728  -25.5067  -20.2161 N   0  0  0  0  0  0  0  0  0  0  0  0
   27.6660  -21.2505  -16.7054 C   0  0  1  0  0  0  0  0  0  0  0  0
   26.9553  -20.2732  -15.8192 C   0  0  0  0  0  0  0  0  0  0  0  0
   26.5390  -19.1743  -16.7417 C   0  0  0  0  0  0  0  0  0  0  0  0
   25.8540  -18.0334  -16.1722 O   0  0  0  0  0  0  0  0  0  0  0  0
   25.5799  -17.8923  -14.9624 C   0  0  0  0  0  0  0  0  0  0  0  0
   25.8694  -21.0029  -15.1520 O   0  0  0  0  0  0  0  0  0  0  0  0
   25.9837  -22.2820  -15.1280 O   0  0  0  0  0  0  0  0  0  0  0  0
   25.4282  -16.9518  -16.9799 C   0  0  0  0  0  0  0  0  0  0  0  0
   25.7994  -20.5328   -9.7241 C   0  0  2  0  0  0  0  0  0  0  0  0
   25.0996  -21.2897  -10.8232 C   0  0  0  0  0  0  0  0  0  0  0  0
   23.5935  -21.0862  -10.5658 C   0  0  0  0  0  0  0  0  0  0  0  0
   25.3668  -20.7166  -12.1827 C   0  0  1  0  0  0  0  0  0  0  0  0
   24.2998  -20.9591  -13.1946 N   0  0  0  0  0  0  0  0  0  0  0  0
   24.7195  -20.4920  -14.5277 C   0  0  0  0  0  0  0  0  0  0  0  0
   22.9793  -20.3823  -12.8434 O   0  0  0  0  0  0  0  0  0  0  0  0
   22.0753  -21.1224  -12.3792 O   0  0  0  0  0  0  0  0  0  0  0  0
  2  4  1  0
  2  1  1  0
  3  2  2  0
  5  4  1  0
  6  5  1  0
  7  6  1  0
  8  9  1  6
  8  7  1  0
 10  8  1  0
 11 10  2  0
 12 10  1  0
 13 14  1  1
 13 12  1  0
 15 19  1  0
 15 14  1  0
 16 15  2  0
 17 13  1  0
 18 17  2  0
 21 20  1  1
 22 21  1  0
 23 21  1  0
 24 23  1  6
 24 25  1  0
 25 17  1  0
 26 28  1  0
 26 24  1  0
 27 26  2  0
M  END
$$$$
