RDL.pdb
     RDKit          3D

 28 27  0  0  1  0  0  0  0  0999 V2000
   27.0707  -20.6684   -5.0231 N   0  0  0  0  0  0  0  0  0  0  0  0
   27.9861  -19.5745   -5.0883 C   0  0  0  0  0  0  0  0  0  0  0  0
   28.8326  -19.4138   -4.1419 N   0  0  0  0  0  0  0  0  0  0  0  0
   27.9149  -18.7075   -6.2083 N   0  0  0  0  0  0  0  0  0  0  0  0
   26.8060  -18.8870   -7.1639 C   0  0  0  0  0  0  0  0  0  0  0  0
   27.1234  -20.0834   -7.9845 C   0  0  0  0  0  0  0  0  0  0  0  0
   26.8893  -19.9945   -9.4425 C   0  0  0  0  0  0  0  0  0  0  0  0
   27.1515  -21.2320  -10.2486 C   0  0  2  0  0  0  0  0  0  0  0  0
   28.5720  -21.3811  -10.4371 N   0  0  0  0  0  0  0  0  0  0  0  0
   26.5330  -20.9832  -11.5917 C   0  0  0  0  0  0  0  0  0  0  0  0
   27.1793  -20.2350  -12.3816 O   0  0  0  0  0  0  0  0  0  0  0  0
   29.4763  -18.6249   -4.0545 N   0  0  0  0  0  0  0  0  0  0  0  0
   25.2991  -21.5475  -11.9641 C   0  0  2  0  0  0  0  0  0  0  0  0
   24.8260  -21.2658  -13.3578 C   0  0  0  0  0  0  0  0  0  0  0  0
   23.7030  -22.2286  -13.5674 C   0  0  0  0  0  0  0  0  0  0  0  0
   23.1554  -22.3521  -14.9017 O   0  0  0  0  0  0  0  0  0  0  0  0
   23.5689  -21.7366  -15.9061 C   0  0  0  0  0  0  0  0  0  0  0  0
   24.4750  -19.8410  -13.4170 O   0  0  0  0  0  0  0  0  0  0  0  0
   25.2313  -19.0477  -12.7474 O   0  0  0  0  0  0  0  0  0  0  0  0
   22.0669  -23.2151  -15.1738 C   0  0  0  0  0  0  0  0  0  0  0  0
   27.1264  -17.0850  -16.2761 C   0  0  2  0  0  0  0  0  0  0  0  0
   26.0818  -17.3884  -15.2332 C   0  0  0  0  0  0  0  0  0  0  0  0
   25.3713  -16.0475  -14.9632 C   0  0  0  0  0  0  0  0  0  0  0  0
   25.0213  -18.3245  -15.7301 C   0  0  2  0  0  0  0  0  0  0  0  0
   23.6811  -18.1572  -15.0999 N   0  0  0  0  0  0  0  0  0  0  0  0
   23.4242  -19.2217  -14.1137 C   0  0  0  0  0  0  0  0  0  0  0  0
   22.5569  -18.0712  -16.0635 O   0  0  0  0  0  0  0  0  0  0  0  0
   21.8765  -17.0169  -16.1404 O   0  0  0  0  0  0  0  0  0  0  0  0
  2  4  1  0
  2  1  1  0
  3  2  2  0
  5  4  1  0
  6  5  1  0
  7  6  1  0
  8  9  1  6
  8  7  1  0
 10  8  1  0
 11 10  2  0
 12 10  1  0
 13 14  1  1
 13 12  1  0
 15 19  1  0
 15 14  1  0
 16 15  2  0
 17 13  1  0
 18 17  2  0
 21 20  1  1
 22 21  1  0
 23 21  1  0
 24 23  1  1
 24 25  1  0
 25 17  1  0
 26 28  1  0
 26 24  1  0
 27 26  2  0
M  END
$$$$
