RDL.pdb
     RDKit          3D

 28 27  0  0  1  0  0  0  0  0999 V2000
   22.8122  -31.6042  -12.1092 N   0  0  0  0  0  0  0  0  0  0  0  0
   21.4469  -31.3901  -11.7498 C   0  0  0  0  0  0  0  0  0  0  0  0
   20.7997  -32.3320  -11.1737 N   0  0  0  0  0  0  0  0  0  0  0  0
   20.8644  -30.1326  -12.0509 N   0  0  0  0  0  0  0  0  0  0  0  0
   20.7008  -29.7575  -13.4678 C   0  0  0  0  0  0  0  0  0  0  0  0
   21.9783  -29.1423  -13.9092 C   0  0  0  0  0  0  0  0  0  0  0  0
   21.8982  -27.9242  -14.7447 C   0  0  0  0  0  0  0  0  0  0  0  0
   21.0598  -28.0065  -15.9858 C   0  0  2  0  0  0  0  0  0  0  0  0
   21.8697  -28.4975  -17.0714 N   0  0  0  0  0  0  0  0  0  0  0  0
   20.6663  -26.5957  -16.3072 C   0  0  0  0  0  0  0  0  0  0  0  0
   21.4090  -25.9733  -17.1210 O   0  0  0  0  0  0  0  0  0  0  0  0
   19.8258  -32.2773  -10.8689 N   0  0  0  0  0  0  0  0  0  0  0  0
   19.5323  -25.9867  -15.7391 C   0  0  2  0  0  0  0  0  0  0  0  0
   19.2396  -24.5812  -16.1688 C   0  0  0  0  0  0  0  0  0  0  0  0
   17.7508  -24.4774  -16.1002 C   0  0  0  0  0  0  0  0  0  0  0  0
   17.1449  -23.1995  -16.4086 O   0  0  0  0  0  0  0  0  0  0  0  0
   17.7643  -22.1876  -16.7973 C   0  0  0  0  0  0  0  0  0  0  0  0
   19.9912  -23.6894  -15.2764 O   0  0  0  0  0  0  0  0  0  0  0  0
   20.7864  -24.2639  -14.4473 O   0  0  0  0  0  0  0  0  0  0  0  0
   15.7493  -22.9977  -16.2859 C   0  0  0  0  0  0  0  0  0  0  0  0
   23.9078  -21.7006  -13.1835 C   0  0  2  0  0  0  0  0  0  0  0  0
   23.5717  -21.2293  -14.5747 C   0  0  0  0  0  0  0  0  0  0  0  0
   24.7741  -21.6391  -15.4476 C   0  0  0  0  0  0  0  0  0  0  0  0
   22.3820  -21.9344  -15.1540 C   0  0  1  0  0  0  0  0  0  0  0  0
   21.0653  -21.5293  -14.5854 N   0  0  0  0  0  0  0  0  0  0  0  0
   19.9651  -22.2867  -15.2080 C   0  0  0  0  0  0  0  0  0  0  0  0
   20.7882  -20.0740  -14.6568 O   0  0  0  0  0  0  0  0  0  0  0  0
   20.3718  -19.5669  -15.7290 O   0  0  0  0  0  0  0  0  0  0  0  0
  2  4  1  0
  2  1  1  0
  3  2  2  0
  5  4  1  0
  6  5  1  0
  7  6  1  0
  8  9  1  6
  8  7  1  0
 10  8  1  0
 11 10  2  0
 12 10  1  0
 13 14  1  6
 13 12  1  0
 15 19  1  0
 15 14  1  0
 16 15  2  0
 17 13  1  0
 18 17  2  0
 21 20  1  1
 22 21  1  0
 23 21  1  0
 24 23  1  1
 24 25  1  0
 25 17  1  0
 26 28  1  0
 26 24  1  0
 27 26  2  0
M  END
$$$$
