RDL.pdb
     RDKit          3D

 28 27  0  0  1  0  0  0  0  0999 V2000
   30.0373  -18.0400  -20.5816 N   0  0  0  0  0  0  0  0  0  0  0  0
   28.7037  -17.5618  -20.7596 C   0  0  0  0  0  0  0  0  0  0  0  0
   28.4149  -16.9021  -21.8176 N   0  0  0  0  0  0  0  0  0  0  0  0
   27.7512  -17.8412  -19.7467 N   0  0  0  0  0  0  0  0  0  0  0  0
   28.1610  -18.6947  -18.6159 C   0  0  0  0  0  0  0  0  0  0  0  0
   26.9925  -18.8089  -17.7065 C   0  0  0  0  0  0  0  0  0  0  0  0
   27.0782  -18.1315  -16.3942 C   0  0  0  0  0  0  0  0  0  0  0  0
   27.7242  -18.8959  -15.2768 C   0  0  2  0  0  0  0  0  0  0  0  0
   28.0852  -20.2083  -15.7489 N   0  0  0  0  0  0  0  0  0  0  0  0
   26.6650  -19.0596  -14.2281 C   0  0  0  0  0  0  0  0  0  0  0  0
   26.2760  -18.0042  -13.6484 O   0  0  0  0  0  0  0  0  0  0  0  0
   27.4928  -16.5233  -22.0427 N   0  0  0  0  0  0  0  0  0  0  0  0
   26.1254  -20.3165  -13.8986 C   0  0  1  0  0  0  0  0  0  0  0  0
   25.0548  -20.3328  -12.8502 C   0  0  0  0  0  0  0  0  0  0  0  0
   24.0515  -21.3137  -13.3632 C   0  0  0  0  0  0  0  0  0  0  0  0
   23.2605  -20.9355  -14.5150 O   0  0  0  0  0  0  0  0  0  0  0  0
   22.7069  -19.8276  -14.6720 C   0  0  0  0  0  0  0  0  0  0  0  0
   25.7004  -20.6754  -11.5764 O   0  0  0  0  0  0  0  0  0  0  0  0
   26.7063  -21.4705  -11.6522 O   0  0  0  0  0  0  0  0  0  0  0  0
   23.0494  -21.8322  -15.5897 C   0  0  0  0  0  0  0  0  0  0  0  0
   28.7274  -19.2587   -6.8024 C   0  0  2  0  0  0  0  0  0  0  0  0
   27.8129  -20.3209   -7.3559 C   0  0  0  0  0  0  0  0  0  0  0  0
   26.6933  -20.4832   -6.3090 C   0  0  0  0  0  0  0  0  0  0  0  0
   27.1339  -19.8979   -8.6239 C   0  0  1  0  0  0  0  0  0  0  0  0
   26.0473  -20.8030   -9.0943 N   0  0  0  0  0  0  0  0  0  0  0  0
   25.3718  -20.2464  -10.2798 C   0  0  0  0  0  0  0  0  0  0  0  0
   25.0490  -21.1542   -8.0552 O   0  0  0  0  0  0  0  0  0  0  0  0
   23.9345  -20.5730   -8.0348 O   0  0  0  0  0  0  0  0  0  0  0  0
  2  4  1  0
  2  1  1  0
  3  2  2  0
  5  4  1  0
  6  5  1  0
  7  6  1  0
  8  9  1  6
  8  7  1  0
 10  8  1  0
 11 10  2  0
 12 10  1  0
 13 14  1  1
 13 12  1  0
 15 19  1  0
 15 14  1  0
 16 15  2  0
 17 13  1  0
 18 17  2  0
 21 20  1  1
 22 21  1  0
 23 21  1  0
 24 23  1  6
 24 25  1  0
 25 17  1  0
 26 28  1  0
 26 24  1  0
 27 26  2  0
M  END
$$$$
