RDL.pdb
     RDKit          3D

 28 27  0  0  1  0  0  0  0  0999 V2000
   12.3886  -14.0271  -15.2176 N   0  0  0  0  0  0  0  0  0  0  0  0
   11.8619  -14.1770  -13.8989 C   0  0  0  0  0  0  0  0  0  0  0  0
   11.7641  -15.3503  -13.3972 N   0  0  0  0  0  0  0  0  0  0  0  0
   11.4667  -13.0087  -13.1988 N   0  0  0  0  0  0  0  0  0  0  0  0
   12.4100  -11.8767  -13.1362 C   0  0  0  0  0  0  0  0  0  0  0  0
   13.3077  -12.1171  -11.9779 C   0  0  0  0  0  0  0  0  0  0  0  0
   14.3164  -11.0805  -11.6675 C   0  0  0  0  0  0  0  0  0  0  0  0
   15.5628  -11.0749  -12.5021 C   0  0  2  0  0  0  0  0  0  0  0  0
   16.2843  -12.3022  -12.2822 N   0  0  0  0  0  0  0  0  0  0  0  0
   16.4011   -9.9481  -11.9767 C   0  0  0  0  0  0  0  0  0  0  0  0
   17.0407  -10.1705  -10.9077 O   0  0  0  0  0  0  0  0  0  0  0  0
   11.4981  -15.5586  -12.4327 N   0  0  0  0  0  0  0  0  0  0  0  0
   16.4793   -8.7048  -12.6306 C   0  0  1  0  0  0  0  0  0  0  0  0
   17.3941   -7.6844  -12.0243 C   0  0  0  0  0  0  0  0  0  0  0  0
   18.2141   -7.1955  -13.1734 C   0  0  0  0  0  0  0  0  0  0  0  0
   19.2949   -8.0367  -13.6420 O   0  0  0  0  0  0  0  0  0  0  0  0
   20.0522   -8.7057  -12.9089 C   0  0  0  0  0  0  0  0  0  0  0  0
   16.5485   -6.6831  -11.3617 O   0  0  0  0  0  0  0  0  0  0  0  0
   15.5716   -6.2236  -12.0574 O   0  0  0  0  0  0  0  0  0  0  0  0
   19.5822   -8.1656  -15.0220 C   0  0  0  0  0  0  0  0  0  0  0  0
   14.4591   -6.8664   -6.3367 C   0  0  1  0  0  0  0  0  0  0  0  0
   14.7313   -6.6874   -7.8080 C   0  0  0  0  0  0  0  0  0  0  0  0
   13.3439   -6.6254   -8.4766 C   0  0  0  0  0  0  0  0  0  0  0  0
   15.3982   -5.3812   -8.1194 C   0  0  2  0  0  0  0  0  0  0  0  0
   15.7060   -5.1533   -9.5597 N   0  0  0  0  0  0  0  0  0  0  0  0
   16.6575   -6.1600  -10.0626 C   0  0  0  0  0  0  0  0  0  0  0  0
   16.1931   -3.7881   -9.8740 O   0  0  0  0  0  0  0  0  0  0  0  0
   17.3971   -3.6087  -10.1876 O   0  0  0  0  0  0  0  0  0  0  0  0
  2  4  1  0
  2  1  1  0
  3  2  2  0
  5  4  1  0
  6  5  1  0
  7  6  1  0
  8  9  1  1
  8  7  1  0
 10  8  1  0
 11 10  2  0
 12 10  1  0
 13 14  1  1
 13 12  1  0
 15 19  1  0
 15 14  1  0
 16 15  2  0
 17 13  1  0
 18 17  2  0
 21 20  1  6
 22 21  1  0
 23 21  1  0
 24 23  1  6
 24 25  1  0
 25 17  1  0
 26 28  1  0
 26 24  1  0
 27 26  2  0
M  END
$$$$
