RDL.pdb
     RDKit          3D

 28 27  0  0  1  0  0  0  0  0999 V2000
   28.0749  -22.0127  -19.6218 N   0  0  0  0  0  0  0  0  0  0  0  0
   29.0403  -21.2534  -18.8934 C   0  0  0  0  0  0  0  0  0  0  0  0
   29.4336  -20.1304  -19.3647 N   0  0  0  0  0  0  0  0  0  0  0  0
   29.5244  -21.7831  -17.6701 N   0  0  0  0  0  0  0  0  0  0  0  0
   29.0350  -23.1051  -17.2366 C   0  0  0  0  0  0  0  0  0  0  0  0
   28.4462  -22.9330  -15.8842 C   0  0  0  0  0  0  0  0  0  0  0  0
   26.9962  -22.6520  -15.8001 C   0  0  0  0  0  0  0  0  0  0  0  0
   26.0677  -23.8158  -15.9833 C   0  0  2  0  0  0  0  0  0  0  0  0
   26.2475  -24.3604  -17.3049 N   0  0  0  0  0  0  0  0  0  0  0  0
   24.6818  -23.2490  -15.9041 C   0  0  0  0  0  0  0  0  0  0  0  0
   24.1395  -22.9268  -17.0011 O   0  0  0  0  0  0  0  0  0  0  0  0
   30.1157  -19.5117  -18.9217 N   0  0  0  0  0  0  0  0  0  0  0  0
   24.0106  -23.0801  -14.6791 C   0  0  1  0  0  0  0  0  0  0  0  0
   22.5877  -22.6156  -14.7522 C   0  0  0  0  0  0  0  0  0  0  0  0
   21.8881  -23.6905  -15.5183 C   0  0  0  0  0  0  0  0  0  0  0  0
   21.5458  -23.4261  -16.8997 O   0  0  0  0  0  0  0  0  0  0  0  0
   21.5908  -22.3052  -17.4475 C   0  0  0  0  0  0  0  0  0  0  0  0
   22.1298  -22.4023  -13.3733 O   0  0  0  0  0  0  0  0  0  0  0  0
   22.5834  -23.2245  -12.4970 O   0  0  0  0  0  0  0  0  0  0  0  0
   21.1176  -24.4625  -17.7635 C   0  0  0  0  0  0  0  0  0  0  0  0
   25.3847  -20.3855  -11.0510 C   0  0  1  0  0  0  0  0  0  0  0  0
   24.0136  -21.0107  -11.0581 C   0  0  0  0  0  0  0  0  0  0  0  0
   23.6094  -21.1279   -9.5752 C   0  0  0  0  0  0  0  0  0  0  0  0
   22.9801  -20.1340  -11.6993 C   0  0  2  0  0  0  0  0  0  0  0  0
   21.5858  -20.6584  -11.6528 N   0  0  0  0  0  0  0  0  0  0  0  0
   21.2641  -21.4140  -12.8764 C   0  0  0  0  0  0  0  0  0  0  0  0
   20.5505  -19.6261  -11.4027 O   0  0  0  0  0  0  0  0  0  0  0  0
   20.0745  -18.9700  -12.3634 O   0  0  0  0  0  0  0  0  0  0  0  0
  2  4  1  0
  2  1  1  0
  3  2  2  0
  5  4  1  0
  6  5  1  0
  7  6  1  0
  8  9  1  6
  8  7  1  0
 10  8  1  0
 11 10  2  0
 12 10  1  0
 13 14  1  1
 13 12  1  0
 15 19  1  0
 15 14  1  0
 16 15  2  0
 17 13  1  0
 18 17  2  0
 21 20  1  1
 22 21  1  0
 23 21  1  0
 24 23  1  1
 24 25  1  0
 25 17  1  0
 26 28  1  0
 26 24  1  0
 27 26  2  0
M  END
$$$$
