RDL.pdb
     RDKit          3D

 28 27  0  0  1  0  0  0  0  0999 V2000
   22.3360  -21.1846   -8.3697 N   0  0  0  0  0  0  0  0  0  0  0  0
   22.3087  -20.3723   -9.5437 C   0  0  0  0  0  0  0  0  0  0  0  0
   21.1816  -19.9646   -9.9926 N   0  0  0  0  0  0  0  0  0  0  0  0
   23.5425  -20.0517  -10.1652 N   0  0  0  0  0  0  0  0  0  0  0  0
   24.6964  -20.9398   -9.9311 C   0  0  0  0  0  0  0  0  0  0  0  0
   25.8491  -20.3655  -10.6707 C   0  0  0  0  0  0  0  0  0  0  0  0
   26.0069  -20.7439  -12.0921 C   0  0  0  0  0  0  0  0  0  0  0  0
   25.0536  -21.7689  -12.6313 C   0  0  2  0  0  0  0  0  0  0  0  0
   25.8038  -22.8706  -13.1780 N   0  0  0  0  0  0  0  0  0  0  0  0
   24.3303  -21.0994  -13.7613 C   0  0  0  0  0  0  0  0  0  0  0  0
   24.9416  -21.0409  -14.8678 O   0  0  0  0  0  0  0  0  0  0  0  0
   21.0448  -19.4579  -10.8695 N   0  0  0  0  0  0  0  0  0  0  0  0
   23.0392  -20.5612  -13.6097 C   0  0  2  0  0  0  0  0  0  0  0  0
   22.3827  -20.0332  -14.8491 C   0  0  0  0  0  0  0  0  0  0  0  0
   20.9243  -20.0405  -14.5253 C   0  0  0  0  0  0  0  0  0  0  0  0
   20.2581  -21.3217  -14.4248 O   0  0  0  0  0  0  0  0  0  0  0  0
   20.7810  -22.4242  -14.6887 C   0  0  0  0  0  0  0  0  0  0  0  0
   22.9761  -18.7190  -15.1278 O   0  0  0  0  0  0  0  0  0  0  0  0
   22.7996  -17.8203  -14.2274 O   0  0  0  0  0  0  0  0  0  0  0  0
   18.9105  -21.4197  -14.0031 C   0  0  0  0  0  0  0  0  0  0  0  0
   26.7213  -14.9251  -15.4363 C   0  0  2  0  0  0  0  0  0  0  0  0
   26.3544  -15.5993  -16.7331 C   0  0  0  0  0  0  0  0  0  0  0  0
   27.6927  -15.8590  -17.4525 C   0  0  0  0  0  0  0  0  0  0  0  0
   25.7274  -16.9459  -16.5293 C   0  0  1  0  0  0  0  0  0  0  0  0
   24.2473  -16.9369  -16.3548 N   0  0  0  0  0  0  0  0  0  0  0  0
   23.7195  -18.3086  -16.2468 C   0  0  0  0  0  0  0  0  0  0  0  0
   23.5111  -16.1871  -17.4014 O   0  0  0  0  0  0  0  0  0  0  0  0
   23.1103  -16.7818  -18.4339 O   0  0  0  0  0  0  0  0  0  0  0  0
  2  4  1  0
  2  1  1  0
  3  2  2  0
  5  4  1  0
  6  5  1  0
  7  6  1  0
  8  9  1  6
  8  7  1  0
 10  8  1  0
 11 10  2  0
 12 10  1  0
 13 14  1  1
 13 12  1  0
 15 19  1  0
 15 14  1  0
 16 15  2  0
 17 13  1  0
 18 17  2  0
 21 20  1  6
 22 21  1  0
 23 21  1  0
 24 23  1  1
 24 25  1  0
 25 17  1  0
 26 28  1  0
 26 24  1  0
 27 26  2  0
M  END
$$$$
