RDL.pdb
     RDKit          3D

 28 27  0  0  1  0  0  0  0  0999 V2000
   32.5333  -17.7357  -22.4922 N   0  0  0  0  0  0  0  0  0  0  0  0
   32.0117  -18.0885  -23.7738 C   0  0  0  0  0  0  0  0  0  0  0  0
   32.7095  -18.8324  -24.5467 N   0  0  0  0  0  0  0  0  0  0  0  0
   30.7328  -17.5936  -24.1356 N   0  0  0  0  0  0  0  0  0  0  0  0
   29.8581  -17.0678  -23.0710 C   0  0  0  0  0  0  0  0  0  0  0  0
   28.4556  -17.2779  -23.5118 C   0  0  0  0  0  0  0  0  0  0  0  0
   27.3799  -16.7415  -22.6495 C   0  0  0  0  0  0  0  0  0  0  0  0
   27.4604  -17.0611  -21.1861 C   0  0  2  0  0  0  0  0  0  0  0  0
   28.2114  -18.2776  -21.0087 N   0  0  0  0  0  0  0  0  0  0  0  0
   26.0507  -17.3226  -20.7470 C   0  0  0  0  0  0  0  0  0  0  0  0
   25.2244  -16.3777  -20.9077 O   0  0  0  0  0  0  0  0  0  0  0  0
   32.4454  -19.1096  -25.4943 N   0  0  0  0  0  0  0  0  0  0  0  0
   25.6571  -18.5507  -20.1846 C   0  0  1  0  0  0  0  0  0  0  0  0
   24.2495  -18.6359  -19.6776 C   0  0  0  0  0  0  0  0  0  0  0  0
   23.7478  -19.9422  -20.2010 C   0  0  0  0  0  0  0  0  0  0  0  0
   22.3918  -20.3286  -19.8733 O   0  0  0  0  0  0  0  0  0  0  0  0
   21.8470  -21.3969  -20.2206 C   0  0  0  0  0  0  0  0  0  0  0  0
   24.3062  -18.5043  -18.2161 O   0  0  0  0  0  0  0  0  0  0  0  0
   25.0272  -19.3715  -17.6013 O   0  0  0  0  0  0  0  0  0  0  0  0
   21.5521  -19.4876  -19.1044 C   0  0  0  0  0  0  0  0  0  0  0  0
   25.7265  -14.3474  -15.6242 C   0  0  1  0  0  0  0  0  0  0  0  0
   25.5043  -15.8012  -15.9527 C   0  0  0  0  0  0  0  0  0  0  0  0
   26.6655  -16.5560  -15.2762 C   0  0  0  0  0  0  0  0  0  0  0  0
   24.2474  -16.3474  -15.3444 C   0  0  2  0  0  0  0  0  0  0  0  0
   23.7687  -17.6340  -15.9246 N   0  0  0  0  0  0  0  0  0  0  0  0
   23.6823  -17.5519  -17.3934 C   0  0  0  0  0  0  0  0  0  0  0  0
   22.4844  -18.1194  -15.3635 O   0  0  0  0  0  0  0  0  0  0  0  0
   21.4410  -18.0835  -16.0636 O   0  0  0  0  0  0  0  0  0  0  0  0
  2  4  1  0
  2  1  1  0
  3  2  2  0
  5  4  1  0
  6  5  1  0
  7  6  1  0
  8  9  1  6
  8  7  1  0
 10  8  1  0
 11 10  2  0
 12 10  1  0
 13 14  1  6
 13 12  1  0
 15 19  1  0
 15 14  1  0
 16 15  2  0
 17 13  1  0
 18 17  2  0
 21 20  1  6
 22 21  1  0
 23 21  1  0
 24 23  1  6
 24 25  1  0
 25 17  1  0
 26 28  1  0
 26 24  1  0
 27 26  2  0
M  END
$$$$
