SCR.pdb
     RDKit          3D

 24 23  0  0  1  0  0  0  0  0999 V2000
   19.6269  -19.6617  -13.1142 O   0  0  0  0  0  0  0  0  0  0  0  0
   20.2680  -19.0187  -14.1431 C   0  0  0  0  0  0  0  0  0  0  0  0
   19.6116  -19.2470  -15.5033 C   0  0  2  0  0  0  0  0  0  0  0  0
   19.9864  -20.5940  -15.9038 N   0  0  0  0  0  0  0  0  0  0  0  0
   20.1146  -18.2375  -16.4492 C   0  0  0  0  0  0  0  0  0  0  0  0
   21.0607  -18.4666  -17.2741 O   0  0  0  0  0  0  0  0  0  0  0  0
   19.5812  -16.9159  -16.5206 N   0  0  0  0  0  0  0  0  0  0  0  0
   19.9787  -15.9678  -17.5250 C   0  0  1  0  0  0  0  0  0  0  0  0
   18.7920  -15.4618  -18.3289 C   0  0  0  0  0  0  0  0  0  0  0  0
   18.0762  -16.7936  -19.3327 S   0  0  0  0  0  0  0  0  0  0  0  0
   20.7920  -14.8397  -17.0044 C   0  0  0  0  0  0  0  0  0  0  0  0
   20.4020  -14.1793  -15.9798 O   0  0  0  0  0  0  0  0  0  0  0  0
   29.1441  -11.8914  -18.4762 N   0  0  0  0  0  0  0  0  0  0  0  0
   28.4902  -10.8387  -17.7635 C   0  0  0  0  0  0  0  0  0  0  0  0
   29.1828   -9.7654  -17.4822 N   0  0  0  0  0  0  0  0  0  0  0  0
   27.1351  -10.9507  -17.3701 N   0  0  0  0  0  0  0  0  0  0  0  0
   26.3860  -12.1373  -17.6849 C   0  0  0  0  0  0  0  0  0  0  0  0
   24.9750  -12.1236  -17.1488 C   0  0  0  0  0  0  0  0  0  0  0  0
   24.1577  -13.2789  -17.6175 C   0  0  0  0  0  0  0  0  0  0  0  0
   22.7507  -13.2804  -17.0568 C   0  0  2  0  0  0  0  0  0  0  0  0
   22.0184  -14.4151  -17.5717 N   0  0  0  0  0  0  0  0  0  0  0  0
   22.0261  -12.0418  -17.3409 C   0  0  0  0  0  0  0  0  0  0  0  0
   21.4119  -11.9044  -18.4494 O   0  0  0  0  0  0  0  0  0  0  0  0
   21.9415  -10.9581  -16.4811 O   0  0  0  0  0  0  0  0  0  0  0  0
  1  2  1  0
  2  3  1  0
  3  5  1  0
  3  4  1  6
  5  6  2  0
  7  8  1  0
  7  5  1  0
  8 11  1  0
  8  9  1  1
 10  9  1  0
 11 12  2  0
 11 21  1  0
 14 13  1  0
 15 14  2  0
 16 14  1  0
 17 16  1  0
 18 17  1  0
 19 18  1  0
 20 19  1  6
 21 20  1  0
 22 24  1  0
 22 20  1  0
 23 22  2  0
M  END
$$$$
