SCR.pdb
     RDKit          3D

 24 23  0  0  1  0  0  0  0  0999 V2000
   24.8359  -22.8455  -16.7199 O   0  0  0  0  0  0  0  0  0  0  0  0
   25.9987  -22.1862  -16.4097 C   0  0  0  0  0  0  0  0  0  0  0  0
   25.8578  -20.6654  -16.4326 C   0  0  2  0  0  0  0  0  0  0  0  0
   27.1925  -20.1394  -16.1934 N   0  0  0  0  0  0  0  0  0  0  0  0
   24.9151  -20.2595  -15.3774 C   0  0  0  0  0  0  0  0  0  0  0  0
   25.2519  -20.1352  -14.1529 O   0  0  0  0  0  0  0  0  0  0  0  0
   23.5428  -19.9700  -15.6406 N   0  0  0  0  0  0  0  0  0  0  0  0
   22.6262  -19.5428  -14.6194 C   0  0  1  0  0  0  0  0  0  0  0  0
   22.1730  -18.1070  -14.8283 C   0  0  0  0  0  0  0  0  0  0  0  0
   21.2815  -17.9325  -16.3994 S   0  0  0  0  0  0  0  0  0  0  0  0
   21.4644  -20.4482  -14.4315 C   0  0  0  0  0  0  0  0  0  0  0  0
   20.9958  -21.1135  -15.4195 O   0  0  0  0  0  0  0  0  0  0  0  0
   18.2624  -25.6973   -8.5063 N   0  0  0  0  0  0  0  0  0  0  0  0
   17.0429  -25.3547   -9.1689 C   0  0  0  0  0  0  0  0  0  0  0  0
   16.0435  -26.1946   -9.0881 N   0  0  0  0  0  0  0  0  0  0  0  0
   16.9165  -24.1452   -9.8934 N   0  0  0  0  0  0  0  0  0  0  0  0
   18.0569  -23.2877  -10.0745 C   0  0  0  0  0  0  0  0  0  0  0  0
   18.2095  -22.7717  -11.4848 C   0  0  0  0  0  0  0  0  0  0  0  0
   19.3951  -21.8851  -11.6603 C   0  0  0  0  0  0  0  0  0  0  0  0
   19.5886  -21.4243  -13.0901 C   0  0  2  0  0  0  0  0  0  0  0  0
   20.8024  -20.6468  -13.1952 N   0  0  0  0  0  0  0  0  0  0  0  0
   18.4519  -20.6551  -13.5962 C   0  0  0  0  0  0  0  0  0  0  0  0
   18.4051  -19.3944  -13.4131 O   0  0  0  0  0  0  0  0  0  0  0  0
   17.3759  -21.1915  -14.2855 O   0  0  0  0  0  0  0  0  0  0  0  0
  1  2  1  0
  2  3  1  0
  3  5  1  0
  3  4  1  1
  5  6  2  0
  7  8  1  0
  7  5  1  0
  8 11  1  0
  8  9  1  6
 10  9  1  0
 11 12  2  0
 11 21  1  0
 14 13  1  0
 15 14  2  0
 16 14  1  0
 17 16  1  0
 18 17  1  0
 19 18  1  0
 20 19  1  1
 21 20  1  0
 22 24  1  0
 22 20  1  0
 23 22  2  0
M  END
$$$$
