SCR.pdb
     RDKit          3D

 24 23  0  0  1  0  0  0  0  0999 V2000
   17.0301  -17.4865  -17.8268 O   0  0  0  0  0  0  0  0  0  0  0  0
   17.6799  -16.3896  -17.3191 C   0  0  0  0  0  0  0  0  0  0  0  0
   19.1557  -16.3255  -17.7081 C   0  0  2  0  0  0  0  0  0  0  0  0
   19.7690  -17.5136  -17.1355 N   0  0  0  0  0  0  0  0  0  0  0  0
   19.7393  -15.0917  -17.1569 C   0  0  0  0  0  0  0  0  0  0  0  0
   20.8285  -15.0730  -16.4925 O   0  0  0  0  0  0  0  0  0  0  0  0
   19.1316  -13.8113  -17.3233 N   0  0  0  0  0  0  0  0  0  0  0  0
   19.7232  -12.5975  -16.8310 C   0  0  1  0  0  0  0  0  0  0  0  0
   21.1560  -12.4299  -17.3098 C   0  0  0  0  0  0  0  0  0  0  0  0
   21.2248  -11.3809  -18.7892 S   0  0  0  0  0  0  0  0  0  0  0  0
   18.9214  -11.3784  -17.1061 C   0  0  0  0  0  0  0  0  0  0  0  0
   18.0823  -11.3599  -18.0725 O   0  0  0  0  0  0  0  0  0  0  0  0
   11.6418   -9.7367  -13.9768 N   0  0  0  0  0  0  0  0  0  0  0  0
   11.8453   -8.8716  -15.0966 C   0  0  0  0  0  0  0  0  0  0  0  0
   10.7939   -8.4808  -15.7694 N   0  0  0  0  0  0  0  0  0  0  0  0
   13.1436   -8.4496  -15.4711 N   0  0  0  0  0  0  0  0  0  0  0  0
   14.2576   -9.3526  -15.3616 C   0  0  0  0  0  0  0  0  0  0  0  0
   15.5678   -8.7570  -15.8169 C   0  0  0  0  0  0  0  0  0  0  0  0
   16.6888   -9.7396  -15.8224 C   0  0  0  0  0  0  0  0  0  0  0  0
   17.9748   -9.1739  -16.3884 C   0  0  2  0  0  0  0  0  0  0  0  0
   19.0108  -10.1811  -16.3546 N   0  0  0  0  0  0  0  0  0  0  0  0
   18.4202   -7.9690  -15.6886 C   0  0  0  0  0  0  0  0  0  0  0  0
   19.3681   -8.0407  -14.8393 O   0  0  0  0  0  0  0  0  0  0  0  0
   17.8853   -6.7035  -15.8704 O   0  0  0  0  0  0  0  0  0  0  0  0
  1  2  1  0
  2  3  1  0
  3  5  1  0
  3  4  1  1
  5  6  2  0
  7  8  1  0
  7  5  1  0
  8 11  1  0
  8  9  1  6
 10  9  1  0
 11 12  2  0
 11 21  1  0
 14 13  1  0
 15 14  2  0
 16 14  1  0
 17 16  1  0
 18 17  1  0
 19 18  1  0
 20 19  1  1
 21 20  1  0
 22 24  1  0
 22 20  1  0
 23 22  2  0
M  END
$$$$
