SCR.pdb
     RDKit          3D

 24 23  0  0  1  0  0  0  0  0999 V2000
   25.4047  -10.1668  -19.2154 O   0  0  0  0  0  0  0  0  0  0  0  0
   24.7243  -11.3235  -19.5018 C   0  0  0  0  0  0  0  0  0  0  0  0
   24.3116  -12.1079  -18.2578 C   0  0  2  0  0  0  0  0  0  0  0  0
   23.6513  -13.3082  -18.7463 N   0  0  0  0  0  0  0  0  0  0  0  0
   23.4033  -11.2763  -17.4513 C   0  0  0  0  0  0  0  0  0  0  0  0
   22.1946  -11.0402  -17.7851 O   0  0  0  0  0  0  0  0  0  0  0  0
   23.8032  -10.6657  -16.2251 N   0  0  0  0  0  0  0  0  0  0  0  0
   22.9222   -9.8475  -15.4377 C   0  0  1  0  0  0  0  0  0  0  0  0
   22.8659  -10.3055  -13.9894 C   0  0  0  0  0  0  0  0  0  0  0  0
   21.8826   -9.1567  -12.9859 S   0  0  0  0  0  0  0  0  0  0  0  0
   23.2051   -8.3926  -15.5280 C   0  0  0  0  0  0  0  0  0  0  0  0
   24.3733   -7.9426  -15.2616 O   0  0  0  0  0  0  0  0  0  0  0  0
   19.8400   -1.8160  -20.4428 N   0  0  0  0  0  0  0  0  0  0  0  0
   20.8462   -1.1957  -19.6388 C   0  0  0  0  0  0  0  0  0  0  0  0
   21.1277    0.0608  -19.8689 N   0  0  0  0  0  0  0  0  0  0  0  0
   21.5217   -1.9158  -18.6244 N   0  0  0  0  0  0  0  0  0  0  0  0
   21.1645   -3.2808  -18.3458 C   0  0  0  0  0  0  0  0  0  0  0  0
   21.9965   -3.9152  -17.2578 C   0  0  0  0  0  0  0  0  0  0  0  0
   21.6897   -5.3593  -17.0509 C   0  0  0  0  0  0  0  0  0  0  0  0
   22.5842   -6.0172  -16.0208 C   0  0  2  0  0  0  0  0  0  0  0  0
   22.2479   -7.4179  -15.9017 N   0  0  0  0  0  0  0  0  0  0  0  0
   22.5132   -5.3688  -14.7116 C   0  0  0  0  0  0  0  0  0  0  0  0
   23.3656   -4.4743  -14.3979 O   0  0  0  0  0  0  0  0  0  0  0  0
   21.5657   -5.6477  -13.7393 O   0  0  0  0  0  0  0  0  0  0  0  0
  1  2  1  0
  2  3  1  0
  3  5  1  0
  3  4  1  6
  5  6  2  0
  7  8  1  0
  7  5  1  0
  8 11  1  0
  8  9  1  1
 10  9  1  0
 11 12  2  0
 11 21  1  0
 14 13  1  0
 15 14  2  0
 16 14  1  0
 17 16  1  0
 18 17  1  0
 19 18  1  0
 20 19  1  6
 21 20  1  0
 22 24  1  0
 22 20  1  0
 23 22  2  0
M  END
$$$$
