SCR.pdb
     RDKit          3D

 24 23  0  0  1  0  0  0  0  0999 V2000
   22.1739  -14.6218  -19.6233 O   0  0  0  0  0  0  0  0  0  0  0  0
   22.3283  -13.7252  -18.5960 C   0  0  0  0  0  0  0  0  0  0  0  0
   23.7723  -13.5979  -18.1145 C   0  0  2  0  0  0  0  0  0  0  0  0
   24.1023  -14.8775  -17.5068 N   0  0  0  0  0  0  0  0  0  0  0  0
   23.8536  -12.4958  -17.1421 C   0  0  0  0  0  0  0  0  0  0  0  0
   23.0095  -12.3359  -16.1987 O   0  0  0  0  0  0  0  0  0  0  0  0
   24.8886  -11.5139  -17.1760 N   0  0  0  0  0  0  0  0  0  0  0  0
   24.9124  -10.3756  -16.2988 C   0  0  1  0  0  0  0  0  0  0  0  0
   26.2958   -9.7509  -16.2177 C   0  0  0  0  0  0  0  0  0  0  0  0
   27.4399  -10.8291  -15.3111 S   0  0  0  0  0  0  0  0  0  0  0  0
   23.8809   -9.3527  -16.6064 C   0  0  0  0  0  0  0  0  0  0  0  0
   23.7535   -8.8994  -17.7965 O   0  0  0  0  0  0  0  0  0  0  0  0
   15.6140   -9.2652  -17.4489 N   0  0  0  0  0  0  0  0  0  0  0  0
   15.8871   -7.8623  -17.4823 C   0  0  0  0  0  0  0  0  0  0  0  0
   14.9224   -7.0577  -17.8468 N   0  0  0  0  0  0  0  0  0  0  0  0
   17.1619   -7.3547  -17.1345 N   0  0  0  0  0  0  0  0  0  0  0  0
   18.2109   -8.2504  -16.7272 C   0  0  0  0  0  0  0  0  0  0  0  0
   19.5371   -7.5667  -16.4988 C   0  0  0  0  0  0  0  0  0  0  0  0
   20.6442   -8.5188  -16.1986 C   0  0  0  0  0  0  0  0  0  0  0  0
   21.9819   -7.8355  -16.0041 C   0  0  2  0  0  0  0  0  0  0  0  0
   22.9857   -8.8134  -15.6504 N   0  0  0  0  0  0  0  0  0  0  0  0
   21.9354   -6.7745  -14.9982 C   0  0  0  0  0  0  0  0  0  0  0  0
   21.2662   -5.7133  -15.2238 O   0  0  0  0  0  0  0  0  0  0  0  0
   22.5779   -6.8172  -13.7709 O   0  0  0  0  0  0  0  0  0  0  0  0
  1  2  1  0
  2  3  1  0
  3  5  1  0
  3  4  1  1
  5  6  2  0
  7  8  1  0
  7  5  1  0
  8 11  1  0
  8  9  1  6
 10  9  1  0
 11 12  2  0
 11 21  1  0
 14 13  1  0
 15 14  2  0
 16 14  1  0
 17 16  1  0
 18 17  1  0
 19 18  1  0
 20 19  1  1
 21 20  1  0
 22 24  1  0
 22 20  1  0
 23 22  2  0
M  END
$$$$
