SCR.pdb
     RDKit          3D

 24 23  0  0  1  0  0  0  0  0999 V2000
   27.7640  -18.8446  -21.2014 O   0  0  0  0  0  0  0  0  0  0  0  0
   27.6348  -18.2263  -19.9832 C   0  0  0  0  0  0  0  0  0  0  0  0
   27.2685  -16.7472  -20.0900 C   0  0  2  0  0  0  0  0  0  0  0  0
   28.5119  -16.0159  -19.9040 N   0  0  0  0  0  0  0  0  0  0  0  0
   26.2848  -16.4245  -19.0435 C   0  0  0  0  0  0  0  0  0  0  0  0
   26.6106  -16.1699  -17.8364 O   0  0  0  0  0  0  0  0  0  0  0  0
   24.8815  -16.3691  -19.2966 N   0  0  0  0  0  0  0  0  0  0  0  0
   23.9187  -16.0385  -18.2820 C   0  0  1  0  0  0  0  0  0  0  0  0
   22.8405  -15.1040  -18.8062 C   0  0  0  0  0  0  0  0  0  0  0  0
   23.4600  -13.4021  -18.9213 S   0  0  0  0  0  0  0  0  0  0  0  0
   23.3217  -17.2184  -17.6067 C   0  0  0  0  0  0  0  0  0  0  0  0
   22.7901  -18.1578  -18.2945 O   0  0  0  0  0  0  0  0  0  0  0  0
   25.3489  -20.9743  -10.0623 N   0  0  0  0  0  0  0  0  0  0  0  0
   25.8128  -21.1504  -11.4030 C   0  0  0  0  0  0  0  0  0  0  0  0
   27.0572  -21.5128  -11.5793 N   0  0  0  0  0  0  0  0  0  0  0  0
   24.9559  -20.9382  -12.5095 N   0  0  0  0  0  0  0  0  0  0  0  0
   23.6378  -20.3983  -12.3109 C   0  0  0  0  0  0  0  0  0  0  0  0
   22.9096  -20.0882  -13.5962 C   0  0  0  0  0  0  0  0  0  0  0  0
   23.4898  -18.9305  -14.3349 C   0  0  0  0  0  0  0  0  0  0  0  0
   22.7221  -18.5806  -15.5927 C   0  0  2  0  0  0  0  0  0  0  0  0
   23.2906  -17.3998  -16.2022 N   0  0  0  0  0  0  0  0  0  0  0  0
   21.2934  -18.3834  -15.3483 C   0  0  0  0  0  0  0  0  0  0  0  0
   20.8533  -17.2249  -15.0498 O   0  0  0  0  0  0  0  0  0  0  0  0
   20.3331  -19.3805  -15.4139 O   0  0  0  0  0  0  0  0  0  0  0  0
  1  2  1  0
  2  3  1  0
  3  5  1  0
  3  4  1  1
  5  6  2  0
  7  8  1  0
  7  5  1  0
  8 11  1  0
  8  9  1  6
 10  9  1  0
 11 12  2  0
 11 21  1  0
 14 13  1  0
 15 14  2  0
 16 14  1  0
 17 16  1  0
 18 17  1  0
 19 18  1  0
 20 19  1  1
 21 20  1  0
 22 24  1  0
 22 20  1  0
 23 22  2  0
M  END
$$$$
