SCR.pdb
     RDKit          3D

 24 23  0  0  1  0  0  0  0  0999 V2000
   26.4255  -14.6027  -21.8885 O   0  0  0  0  0  0  0  0  0  0  0  0
   26.0670  -13.9126  -20.7579 C   0  0  0  0  0  0  0  0  0  0  0  0
   26.8841  -14.2997  -19.5268 C   0  0  2  0  0  0  0  0  0  0  0  0
   26.5224  -15.6762  -19.2270 N   0  0  0  0  0  0  0  0  0  0  0  0
   26.5368  -13.3920  -18.4212 C   0  0  0  0  0  0  0  0  0  0  0  0
   25.7691  -13.7284  -17.4591 O   0  0  0  0  0  0  0  0  0  0  0  0
   27.0340  -12.0572  -18.3357 N   0  0  0  0  0  0  0  0  0  0  0  0
   26.7523  -11.1898  -17.2248 C   0  0  1  0  0  0  0  0  0  0  0  0
   28.0240  -10.6780  -16.5681 C   0  0  0  0  0  0  0  0  0  0  0  0
   27.7060  -10.1637  -14.8569 S   0  0  0  0  0  0  0  0  0  0  0  0
   25.8303  -10.0718  -17.5485 C   0  0  0  0  0  0  0  0  0  0  0  0
   25.9927   -9.3877  -18.6180 O   0  0  0  0  0  0  0  0  0  0  0  0
   17.2054   -8.6488  -17.0069 N   0  0  0  0  0  0  0  0  0  0  0  0
   17.7383   -7.3647  -17.3395 C   0  0  0  0  0  0  0  0  0  0  0  0
   16.8959   -6.4062  -17.6268 N   0  0  0  0  0  0  0  0  0  0  0  0
   19.1346   -7.1331  -17.3607 N   0  0  0  0  0  0  0  0  0  0  0  0
   20.0492   -8.1954  -17.0392 C   0  0  0  0  0  0  0  0  0  0  0  0
   21.5010   -7.8161  -17.2041 C   0  0  0  0  0  0  0  0  0  0  0  0
   22.4387   -8.9286  -16.8798 C   0  0  0  0  0  0  0  0  0  0  0  0
   23.8943   -8.5566  -17.0719 C   0  0  2  0  0  0  0  0  0  0  0  0
   24.7369   -9.6821  -16.7368 N   0  0  0  0  0  0  0  0  0  0  0  0
   24.2870   -7.3832  -16.2918 C   0  0  0  0  0  0  0  0  0  0  0  0
   25.0174   -7.5232  -15.2564 O   0  0  0  0  0  0  0  0  0  0  0  0
   23.9240   -6.0783  -16.5857 O   0  0  0  0  0  0  0  0  0  0  0  0
  1  2  1  0
  2  3  1  0
  3  5  1  0
  3  4  1  1
  5  6  2  0
  7  8  1  0
  7  5  1  0
  8 11  1  0
  8  9  1  6
 10  9  1  0
 11 12  2  0
 11 21  1  0
 14 13  1  0
 15 14  2  0
 16 14  1  0
 17 16  1  0
 18 17  1  0
 19 18  1  0
 20 19  1  1
 21 20  1  0
 22 24  1  0
 22 20  1  0
 23 22  2  0
M  END
$$$$
