SCR.pdb
     RDKit          3D

 24 23  0  0  1  0  0  0  0  0999 V2000
   25.8099  -18.5795  -15.5005 O   0  0  0  0  0  0  0  0  0  0  0  0
   26.9992  -18.7849  -16.1533 C   0  0  0  0  0  0  0  0  0  0  0  0
   28.0082  -19.5896  -15.3362 C   0  0  2  0  0  0  0  0  0  0  0  0
   28.7868  -20.3481  -16.3024 N   0  0  0  0  0  0  0  0  0  0  0  0
   27.2762  -20.4722  -14.4131 C   0  0  0  0  0  0  0  0  0  0  0  0
   26.9181  -21.6578  -14.7203 O   0  0  0  0  0  0  0  0  0  0  0  0
   26.9075  -20.0712  -13.0942 N   0  0  0  0  0  0  0  0  0  0  0  0
   26.1212  -20.8970  -12.2193 C   0  0  1  0  0  0  0  0  0  0  0  0
   25.9327  -20.2576  -10.8532 C   0  0  0  0  0  0  0  0  0  0  0  0
   25.3585  -21.4800   -9.6409 S   0  0  0  0  0  0  0  0  0  0  0  0
   24.8200  -21.3216  -12.7951 C   0  0  0  0  0  0  0  0  0  0  0  0
   24.7689  -22.2798  -13.6422 O   0  0  0  0  0  0  0  0  0  0  0  0
   18.1368  -24.8658  -12.3799 N   0  0  0  0  0  0  0  0  0  0  0  0
   18.5980  -24.6275  -11.0479 C   0  0  0  0  0  0  0  0  0  0  0  0
   18.6161  -25.6359  -10.2150 N   0  0  0  0  0  0  0  0  0  0  0  0
   19.0213  -23.3406  -10.6375 N   0  0  0  0  0  0  0  0  0  0  0  0
   19.0036  -22.2427  -11.5662 C   0  0  0  0  0  0  0  0  0  0  0  0
   20.1419  -22.2685  -12.5573 C   0  0  0  0  0  0  0  0  0  0  0  0
   21.4128  -21.7182  -12.0057 C   0  0  0  0  0  0  0  0  0  0  0  0
   22.3361  -21.1665  -13.0721 C   0  0  2  0  0  0  0  0  0  0  0  0
   23.5752  -20.7292  -12.4701 N   0  0  0  0  0  0  0  0  0  0  0  0
   21.7325  -20.0733  -13.8339 C   0  0  0  0  0  0  0  0  0  0  0  0
   21.8746  -18.8693  -13.4398 O   0  0  0  0  0  0  0  0  0  0  0  0
   20.9893  -20.2309  -14.9930 O   0  0  0  0  0  0  0  0  0  0  0  0
  1  2  1  0
  2  3  1  0
  3  5  1  0
  3  4  1  6
  5  6  2  0
  7  8  1  0
  7  5  1  0
  8 11  1  0
  8  9  1  1
 10  9  1  0
 11 12  2  0
 11 21  1  0
 14 13  1  0
 15 14  2  0
 16 14  1  0
 17 16  1  0
 18 17  1  0
 19 18  1  0
 20 19  1  1
 21 20  1  0
 22 24  1  0
 22 20  1  0
 23 22  2  0
M  END
$$$$
