SCR.pdb
     RDKit          3D

 24 23  0  0  1  0  0  0  0  0999 V2000
   18.5607  -10.4716  -17.8161 O   0  0  0  0  0  0  0  0  0  0  0  0
   18.5554   -9.7930  -16.6234 C   0  0  0  0  0  0  0  0  0  0  0  0
   19.7039  -10.1871  -15.6967 C   0  0  2  0  0  0  0  0  0  0  0  0
   19.4221  -11.5495  -15.2727 N   0  0  0  0  0  0  0  0  0  0  0  0
   19.7349   -9.2570  -14.5562 C   0  0  0  0  0  0  0  0  0  0  0  0
   19.0513   -9.4352  -13.4936 O   0  0  0  0  0  0  0  0  0  0  0  0
   20.5366   -8.0765  -14.5470 N   0  0  0  0  0  0  0  0  0  0  0  0
   20.5966   -7.1835  -13.4225 C   0  0  1  0  0  0  0  0  0  0  0  0
   21.8438   -6.3152  -13.4534 C   0  0  0  0  0  0  0  0  0  0  0  0
   21.8494   -5.1420  -12.0689 S   0  0  0  0  0  0  0  0  0  0  0  0
   19.3754   -6.3589  -13.2386 C   0  0  0  0  0  0  0  0  0  0  0  0
   18.9239   -5.6472  -14.2017 O   0  0  0  0  0  0  0  0  0  0  0  0
   13.8179   -8.6249   -7.6693 N   0  0  0  0  0  0  0  0  0  0  0  0
   14.1864   -7.2476   -7.5657 C   0  0  0  0  0  0  0  0  0  0  0  0
   13.8188   -6.5927   -6.4947 N   0  0  0  0  0  0  0  0  0  0  0  0
   14.9250   -6.6068   -8.5893 N   0  0  0  0  0  0  0  0  0  0  0  0
   14.2600   -6.1335   -9.7734 C   0  0  0  0  0  0  0  0  0  0  0  0
   15.1861   -5.4734  -10.7660 C   0  0  0  0  0  0  0  0  0  0  0  0
   16.4925   -6.1775  -10.9078 C   0  0  0  0  0  0  0  0  0  0  0  0
   17.4104   -5.5319  -11.9250 C   0  0  2  0  0  0  0  0  0  0  0  0
   18.6351   -6.2918  -12.0329 N   0  0  0  0  0  0  0  0  0  0  0  0
   17.7100   -4.1348  -11.6117 C   0  0  0  0  0  0  0  0  0  0  0  0
   18.7574   -3.8429  -10.9462 O   0  0  0  0  0  0  0  0  0  0  0  0
   16.9286   -3.0533  -11.9867 O   0  0  0  0  0  0  0  0  0  0  0  0
  1  2  1  0
  2  3  1  0
  3  5  1  0
  3  4  1  1
  5  6  2  0
  7  8  1  0
  7  5  1  0
  8 11  1  0
  8  9  1  6
 10  9  1  0
 11 12  2  0
 11 21  1  0
 14 13  1  0
 15 14  2  0
 16 14  1  0
 17 16  1  0
 18 17  1  0
 19 18  1  0
 20 19  1  1
 21 20  1  0
 22 24  1  0
 22 20  1  0
 23 22  2  0
M  END
$$$$
