YCH.pdb
     RDKit          3D

 29 30  0  0  1  0  0  0  0  0999 V2000
    6.9598  -11.9461   17.3275 O   0  0  0  0  0  0  0  0  0  0  0  0
    7.4185  -12.9558   18.1609 C   0  0  0  0  0  0  0  0  0  0  0  0
    6.8321  -14.2027   18.1881 C   0  0  0  0  0  0  0  0  0  0  0  0
    7.3199  -15.1927   19.0382 C   0  0  0  0  0  0  0  0  0  0  0  0
    8.3944  -14.9566   19.8704 C   0  0  0  0  0  0  0  0  0  0  0  0
    8.8535  -16.0568   20.7431 C   0  0  0  0  0  0  0  0  0  0  0  0
   10.0985  -16.7339   20.1861 C   0  0  2  0  0  0  0  0  0  0  0  0
    9.8327  -17.3424   18.8979 N   0  0  0  0  0  0  0  0  0  0  0  0
   10.5033  -17.7527   21.1911 C   0  0  0  0  0  0  0  0  0  0  0  0
   10.0562  -18.9183   21.0406 O   0  0  0  0  0  0  0  0  0  0  0  0
    8.9814  -13.7285   19.8518 C   0  0  0  0  0  0  0  0  0  0  0  0
    8.4929  -12.7373   19.0006 C   0  0  0  0  0  0  0  0  0  0  0  0
   11.3471  -17.4996   22.2907 N   0  0  0  0  0  0  0  0  0  0  0  0
   11.7845  -18.5015   23.2292 C   0  0  1  0  0  0  0  0  0  0  0  0
   13.3153  -18.5997   23.2046 C   0  0  0  0  0  0  0  0  0  0  0  0
   13.9683  -17.7244   21.7566 S   0  0  0  0  0  0  0  0  0  0  0  0
   11.2996  -18.2156   24.6007 C   0  0  0  0  0  0  0  0  0  0  0  0
   11.7222  -17.1734   25.1578 O   0  0  0  0  0  0  0  0  0  0  0  0
   10.3918  -19.0762   25.2740 N   0  0  0  0  0  0  0  0  0  0  0  0
    9.9720  -18.9433   26.6306 C   0  0  1  0  0  0  0  0  0  0  0  0
    8.4932  -19.1932   26.8754 C   0  0  0  0  0  0  0  0  0  0  0  0
    7.6260  -18.5239   25.9044 C   0  0  0  0  0  0  0  0  0  0  0  0
    7.8806  -17.4812   25.0669 C   0  0  0  0  0  0  0  0  0  0  0  0
    6.7688  -17.1995   24.3310 N   0  0  0  0  0  0  0  0  0  0  0  0
    5.8192  -18.0670   24.7091 C   0  0  0  0  0  0  0  0  0  0  0  0
    6.3216  -18.8665   25.6523 N   0  0  0  0  0  0  0  0  0  0  0  0
   10.8068  -19.6227   27.6273 C   0  0  0  0  0  0  0  0  0  0  0  0
   10.6557  -19.4950   28.9891 O   0  0  0  0  0  0  0  0  0  0  0  0
   11.7318  -20.3802   27.1907 O   0  0  0  0  0  0  0  0  0  0  0  0
  2  1  1  0
  3  2  2  0
  4  3  1  0
  5  4  2  0
  5 11  1  0
  6  5  1  0
  7  8  1  6
  7  6  1  0
  9  7  1  0
  9 13  1  0
 10  9  2  0
 11 12  2  0
 12  2  1  0
 14 13  1  0
 14 15  1  1
 15 16  1  0
 17 14  1  0
 18 17  2  0
 19 17  1  0
 20 27  1  0
 20 19  1  0
 21 22  1  0
 20 21  1  6
 22 26  1  0
 23 22  2  0
 23 24  1  0
 24 25  1  0
 26 25  2  0
 27 28  1  0
 29 27  2  0
M  END
$$$$
