YCH.pdb
     RDKit          3D

 29 30  0  0  1  0  0  0  0  0999 V2000
    5.2809  -12.4338   18.6947 O   0  0  0  0  0  0  0  0  0  0  0  0
    6.5775  -12.8879   18.8875 C   0  0  0  0  0  0  0  0  0  0  0  0
    6.8556  -13.9974   19.6564 C   0  0  0  0  0  0  0  0  0  0  0  0
    8.1704  -14.4247   19.8279 C   0  0  0  0  0  0  0  0  0  0  0  0
    9.2234  -13.7560   19.2387 C   0  0  0  0  0  0  0  0  0  0  0  0
   10.5894  -14.2704   19.4676 C   0  0  0  0  0  0  0  0  0  0  0  0
   11.3314  -14.4976   18.1574 C   0  0  2  0  0  0  0  0  0  0  0  0
   10.5860  -15.3762   17.2782 N   0  0  0  0  0  0  0  0  0  0  0  0
   12.6473  -15.0873   18.5210 C   0  0  0  0  0  0  0  0  0  0  0  0
   12.6612  -16.2986   18.8587 O   0  0  0  0  0  0  0  0  0  0  0  0
    8.9603  -12.6588   18.4771 C   0  0  0  0  0  0  0  0  0  0  0  0
    7.6438  -12.2312   18.3055 C   0  0  0  0  0  0  0  0  0  0  0  0
   13.8682  -14.3843   18.5120 N   0  0  0  0  0  0  0  0  0  0  0  0
   15.1490  -14.9722   18.8118 C   0  0  1  0  0  0  0  0  0  0  0  0
   16.2387  -14.2936   17.9719 C   0  0  0  0  0  0  0  0  0  0  0  0
   15.9954  -14.6771   16.2160 S   0  0  0  0  0  0  0  0  0  0  0  0
   15.4682  -14.8816   20.2566 C   0  0  0  0  0  0  0  0  0  0  0  0
   15.4291  -13.7448   20.7871 O   0  0  0  0  0  0  0  0  0  0  0  0
   15.8075  -16.0259   21.0270 N   0  0  0  0  0  0  0  0  0  0  0  0
   16.2813  -16.0112   22.3722 C   0  0  1  0  0  0  0  0  0  0  0  0
   15.4649  -16.8368   23.3525 C   0  0  0  0  0  0  0  0  0  0  0  0
   14.0656  -16.4155   23.4370 C   0  0  0  0  0  0  0  0  0  0  0  0
   13.4975  -15.1968   23.2235 C   0  0  0  0  0  0  0  0  0  0  0  0
   12.1500  -15.2777   23.4102 N   0  0  0  0  0  0  0  0  0  0  0  0
   11.8764  -16.5479   23.7404 C   0  0  0  0  0  0  0  0  0  0  0  0
   13.0175  -17.2399   23.7596 N   0  0  0  0  0  0  0  0  0  0  0  0
   17.7207  -16.2351   22.5451 C   0  0  0  0  0  0  0  0  0  0  0  0
   18.3877  -16.1327   23.7444 O   0  0  0  0  0  0  0  0  0  0  0  0
   18.3889  -16.5451   21.5071 O   0  0  0  0  0  0  0  0  0  0  0  0
  2  1  1  0
  3  2  2  0
  4  3  1  0
  5  4  2  0
  5 11  1  0
  6  5  1  0
  7  8  1  6
  7  6  1  0
  9  7  1  0
  9 13  1  0
 10  9  2  0
 11 12  2  0
 12  2  1  0
 14 13  1  0
 14 15  1  6
 15 16  1  0
 17 14  1  0
 18 17  2  0
 19 17  1  0
 20 27  1  0
 20 19  1  0
 21 22  1  0
 20 21  1  1
 22 26  1  0
 23 22  2  0
 23 24  1  0
 24 25  1  0
 26 25  2  0
 27 28  1  0
 29 27  2  0
M  END
$$$$
