YCH.pdb
     RDKit          3D

 29 30  0  0  1  0  0  0  0  0999 V2000
    8.2654  -13.3021   16.3904 O   0  0  0  0  0  0  0  0  0  0  0  0
    8.1549  -13.6704   17.7233 C   0  0  0  0  0  0  0  0  0  0  0  0
    8.8112  -14.7695   18.2337 C   0  0  0  0  0  0  0  0  0  0  0  0
    8.6769  -15.1094   19.5780 C   0  0  0  0  0  0  0  0  0  0  0  0
    7.8900  -14.3627   20.4304 C   0  0  0  0  0  0  0  0  0  0  0  0
    7.7977  -14.7868   21.8426 C   0  0  0  0  0  0  0  0  0  0  0  0
    6.8555  -15.9707   22.0137 C   0  0  2  0  0  0  0  0  0  0  0  0
    5.4784  -15.5826   21.7828 N   0  0  0  0  0  0  0  0  0  0  0  0
    7.0522  -16.4620   23.4035 C   0  0  0  0  0  0  0  0  0  0  0  0
    6.5952  -15.7513   24.3348 O   0  0  0  0  0  0  0  0  0  0  0  0
    7.2371  -13.2750   19.9369 C   0  0  0  0  0  0  0  0  0  0  0  0
    7.3718  -12.9348   18.5909 C   0  0  0  0  0  0  0  0  0  0  0  0
    7.7110  -17.6606   23.7419 N   0  0  0  0  0  0  0  0  0  0  0  0
    8.1388  -18.0069   25.0734 C   0  0  1  0  0  0  0  0  0  0  0  0
    7.1672  -19.0278   25.6794 C   0  0  0  0  0  0  0  0  0  0  0  0
    6.6764  -20.2378   24.4207 S   0  0  0  0  0  0  0  0  0  0  0  0
    9.5250  -18.5324   25.0837 C   0  0  0  0  0  0  0  0  0  0  0  0
   10.0364  -18.8360   23.9784 O   0  0  0  0  0  0  0  0  0  0  0  0
   10.2615  -18.6929   26.2878 N   0  0  0  0  0  0  0  0  0  0  0  0
   11.6547  -18.4347   26.4503 C   0  0  1  0  0  0  0  0  0  0  0  0
   12.1171  -17.0680   25.9734 C   0  0  0  0  0  0  0  0  0  0  0  0
   12.3998  -17.0226   24.5378 C   0  0  0  0  0  0  0  0  0  0  0  0
   12.3167  -17.9980   23.5917 C   0  0  0  0  0  0  0  0  0  0  0  0
   12.6711  -17.4926   22.3768 N   0  0  0  0  0  0  0  0  0  0  0  0
   12.9757  -16.2005   22.5643 C   0  0  0  0  0  0  0  0  0  0  0  0
   12.8167  -15.9071   23.8565 N   0  0  0  0  0  0  0  0  0  0  0  0
   12.2173  -18.7674   27.7636 C   0  0  0  0  0  0  0  0  0  0  0  0
   11.5974  -18.5118   28.9652 O   0  0  0  0  0  0  0  0  0  0  0  0
   13.3583  -19.3312   27.7805 O   0  0  0  0  0  0  0  0  0  0  0  0
  2  1  1  0
  3  2  2  0
  4  3  1  0
  5  4  2  0
  5 11  1  0
  6  5  1  0
  7  8  1  1
  7  6  1  0
  9  7  1  0
  9 13  1  0
 10  9  2  0
 11 12  2  0
 12  2  1  0
 14 13  1  0
 14 15  1  6
 15 16  1  0
 17 14  1  0
 18 17  2  0
 19 17  1  0
 20 27  1  0
 20 19  1  0
 21 22  1  0
 20 21  1  1
 22 26  1  0
 23 22  2  0
 23 24  1  0
 24 25  1  0
 26 25  2  0
 27 28  1  0
 29 27  2  0
M  END
$$$$
