YCH.pdb
     RDKit          3D

 29 30  0  0  1  0  0  0  0  0999 V2000
    7.5367  -11.2989   26.8905 O   0  0  0  0  0  0  0  0  0  0  0  0
    7.3982  -12.6689   26.7220 C   0  0  0  0  0  0  0  0  0  0  0  0
    6.1671  -13.2875   26.7535 C   0  0  0  0  0  0  0  0  0  0  0  0
    6.0661  -14.6661   26.5804 C   0  0  0  0  0  0  0  0  0  0  0  0
    7.1853  -15.4459   26.3741 C   0  0  0  0  0  0  0  0  0  0  0  0
    6.9969  -16.9008   26.1990 C   0  0  0  0  0  0  0  0  0  0  0  0
    6.4593  -17.2353   24.8142 C   0  0  2  0  0  0  0  0  0  0  0  0
    6.1194  -18.6402   24.7088 N   0  0  0  0  0  0  0  0  0  0  0  0
    7.5304  -16.8653   23.8511 C   0  0  0  0  0  0  0  0  0  0  0  0
    8.4945  -17.6633   23.7288 O   0  0  0  0  0  0  0  0  0  0  0  0
    8.4065  -14.8454   26.3411 C   0  0  0  0  0  0  0  0  0  0  0  0
    8.5074  -13.4650   26.5145 C   0  0  0  0  0  0  0  0  0  0  0  0
    7.5356  -15.6901   23.0740 N   0  0  0  0  0  0  0  0  0  0  0  0
    8.5477  -15.3600   22.1032 C   0  0  1  0  0  0  0  0  0  0  0  0
    8.0442  -14.2308   21.1949 C   0  0  0  0  0  0  0  0  0  0  0  0
    6.3961  -14.6382   20.5569 S   0  0  0  0  0  0  0  0  0  0  0  0
    9.8255  -14.9805   22.7519 C   0  0  0  0  0  0  0  0  0  0  0  0
    9.8064  -14.0028   23.5387 O   0  0  0  0  0  0  0  0  0  0  0  0
   11.0346  -15.6842   22.5049 N   0  0  0  0  0  0  0  0  0  0  0  0
   11.8733  -16.2693   23.4991 C   0  0  1  0  0  0  0  0  0  0  0  0
   11.1676  -17.1980   24.4730 C   0  0  0  0  0  0  0  0  0  0  0  0
   12.0652  -17.7725   25.4765 C   0  0  0  0  0  0  0  0  0  0  0  0
   13.3849  -17.5388   25.7157 C   0  0  0  0  0  0  0  0  0  0  0  0
   13.8048  -18.3004   26.7648 N   0  0  0  0  0  0  0  0  0  0  0  0
   12.7464  -19.0101   27.1814 C   0  0  0  0  0  0  0  0  0  0  0  0
   11.6972  -18.7019   26.4163 N   0  0  0  0  0  0  0  0  0  0  0  0
   13.1303  -16.8495   23.0138 C   0  0  0  0  0  0  0  0  0  0  0  0
   13.2284  -18.0444   22.3384 O   0  0  0  0  0  0  0  0  0  0  0  0
   14.1975  -16.1935   23.2388 O   0  0  0  0  0  0  0  0  0  0  0  0
  2  1  1  0
  3  2  2  0
  4  3  1  0
  5  4  2  0
  5 11  1  0
  6  5  1  0
  7  8  1  1
  7  6  1  0
  9  7  1  0
  9 13  1  0
 10  9  2  0
 11 12  2  0
 12  2  1  0
 14 13  1  0
 14 15  1  1
 15 16  1  0
 17 14  1  0
 18 17  2  0
 19 17  1  0
 20 27  1  0
 20 19  1  0
 21 22  1  0
 20 21  1  6
 22 26  1  0
 23 22  2  0
 23 24  1  0
 24 25  1  0
 26 25  2  0
 27 28  1  0
 29 27  2  0
M  END
$$$$
