YCH.pdb
     RDKit          3D

 29 30  0  0  1  0  0  0  0  0999 V2000
    6.1777  -22.7082   14.6278 O   0  0  0  0  0  0  0  0  0  0  0  0
    7.2065  -22.3561   15.4892 C   0  0  0  0  0  0  0  0  0  0  0  0
    6.9781  -21.6422   16.6457 C   0  0  0  0  0  0  0  0  0  0  0  0
    8.0361  -21.3061   17.4873 C   0  0  0  0  0  0  0  0  0  0  0  0
    9.3320  -21.6745   17.1908 C   0  0  0  0  0  0  0  0  0  0  0  0
   10.4000  -21.2810   18.1328 C   0  0  0  0  0  0  0  0  0  0  0  0
   10.6571  -19.7806   18.0962 C   0  0  2  0  0  0  0  0  0  0  0  0
   11.1717  -19.3680   16.8057 N   0  0  0  0  0  0  0  0  0  0  0  0
   11.6335  -19.4988   19.1820 C   0  0  0  0  0  0  0  0  0  0  0  0
   12.8540  -19.6130   18.9017 O   0  0  0  0  0  0  0  0  0  0  0  0
    9.5692  -22.3800   16.0510 C   0  0  0  0  0  0  0  0  0  0  0  0
    8.5097  -22.7164   15.2085 C   0  0  0  0  0  0  0  0  0  0  0  0
   11.2838  -19.1158   20.4920 N   0  0  0  0  0  0  0  0  0  0  0  0
   12.2328  -18.7935   21.5271 C   0  0  1  0  0  0  0  0  0  0  0  0
   11.8629  -17.4492   22.1672 C   0  0  0  0  0  0  0  0  0  0  0  0
   10.1603  -17.5077   22.7892 S   0  0  0  0  0  0  0  0  0  0  0  0
   12.3064  -19.8603   22.5538 C   0  0  0  0  0  0  0  0  0  0  0  0
   11.2225  -20.3178   22.9908 O   0  0  0  0  0  0  0  0  0  0  0  0
   13.5464  -20.3580   23.0363 N   0  0  0  0  0  0  0  0  0  0  0  0
   13.7060  -21.3605   24.0382 C   0  0  1  0  0  0  0  0  0  0  0  0
   14.8778  -22.3042   23.8253 C   0  0  0  0  0  0  0  0  0  0  0  0
   14.8681  -22.9496   22.5114 C   0  0  0  0  0  0  0  0  0  0  0  0
   13.9397  -22.9095   21.5164 C   0  0  0  0  0  0  0  0  0  0  0  0
   14.3619  -23.6625   20.4620 N   0  0  0  0  0  0  0  0  0  0  0  0
   15.5549  -24.1731   20.7986 C   0  0  0  0  0  0  0  0  0  0  0  0
   15.8690  -23.7524   22.0257 N   0  0  0  0  0  0  0  0  0  0  0  0
   13.6342  -20.8931   25.4268 C   0  0  0  0  0  0  0  0  0  0  0  0
   13.5712  -21.7191   26.5257 O   0  0  0  0  0  0  0  0  0  0  0  0
   13.6307  -19.6346   25.6163 O   0  0  0  0  0  0  0  0  0  0  0  0
  2  1  1  0
  3  2  2  0
  4  3  1  0
  5  4  2  0
  5 11  1  0
  6  5  1  0
  7  8  1  6
  7  6  1  0
  9  7  1  0
  9 13  1  0
 10  9  2  0
 11 12  2  0
 12  2  1  0
 14 13  1  0
 14 15  1  1
 15 16  1  0
 17 14  1  0
 18 17  2  0
 19 17  1  0
 20 27  1  0
 20 19  1  0
 21 22  1  0
 20 21  1  6
 22 26  1  0
 23 22  2  0
 23 24  1  0
 24 25  1  0
 26 25  2  0
 27 28  1  0
 29 27  2  0
M  END
$$$$
