YCH.pdb
     RDKit          3D

 29 30  0  0  1  0  0  0  0  0999 V2000
    7.3526  -13.3228   15.0882 O   0  0  0  0  0  0  0  0  0  0  0  0
    7.4156  -13.6474   16.4354 C   0  0  0  0  0  0  0  0  0  0  0  0
    6.8608  -14.8063   16.9339 C   0  0  0  0  0  0  0  0  0  0  0  0
    6.9434  -15.0995   18.2932 C   0  0  0  0  0  0  0  0  0  0  0  0
    7.5772  -14.2464   19.1728 C   0  0  0  0  0  0  0  0  0  0  0  0
    7.6235  -14.6269   20.5996 C   0  0  0  0  0  0  0  0  0  0  0  0
    9.0446  -14.9301   21.0547 C   0  0  2  0  0  0  0  0  0  0  0  0
    9.6536  -15.9521   20.2270 N   0  0  0  0  0  0  0  0  0  0  0  0
    8.9429  -15.3722   22.4710 C   0  0  0  0  0  0  0  0  0  0  0  0
    8.0472  -14.8414   23.1762 O   0  0  0  0  0  0  0  0  0  0  0  0
    8.1288  -13.0988   18.6913 C   0  0  0  0  0  0  0  0  0  0  0  0
    8.0460  -12.8053   17.3302 C   0  0  0  0  0  0  0  0  0  0  0  0
    9.7767  -16.3378   23.0689 N   0  0  0  0  0  0  0  0  0  0  0  0
    9.7992  -16.6338   24.4788 C   0  0  1  0  0  0  0  0  0  0  0  0
    9.7960  -18.1535   24.6881 C   0  0  0  0  0  0  0  0  0  0  0  0
   10.6336  -18.9708   23.3025 S   0  0  0  0  0  0  0  0  0  0  0  0
   10.9675  -16.0148   25.1494 C   0  0  0  0  0  0  0  0  0  0  0  0
   12.0986  -16.2187   24.6452 O   0  0  0  0  0  0  0  0  0  0  0  0
   10.8314  -15.2187   26.3182 N   0  0  0  0  0  0  0  0  0  0  0  0
   10.0592  -15.5570   27.4686 C   0  0  1  0  0  0  0  0  0  0  0  0
    8.5647  -15.6874   27.2265 C   0  0  0  0  0  0  0  0  0  0  0  0
    7.9014  -14.4016   27.0040 C   0  0  0  0  0  0  0  0  0  0  0  0
    8.4091  -13.1384   26.9912 C   0  0  0  0  0  0  0  0  0  0  0  0
    7.4136  -12.2446   26.7321 N   0  0  0  0  0  0  0  0  0  0  0  0
    6.2834  -12.9501   26.5829 C   0  0  0  0  0  0  0  0  0  0  0  0
    6.5635  -14.2451   26.7437 N   0  0  0  0  0  0  0  0  0  0  0  0
   10.5737  -16.6655   28.2801 C   0  0  0  0  0  0  0  0  0  0  0  0
   10.8341  -17.9285   27.8000 O   0  0  0  0  0  0  0  0  0  0  0  0
   10.7905  -16.4311   29.5122 O   0  0  0  0  0  0  0  0  0  0  0  0
  2  1  1  0
  3  2  2  0
  4  3  1  0
  5  4  2  0
  5 11  1  0
  6  5  1  0
  7  8  1  6
  7  6  1  0
  9  7  1  0
  9 13  1  0
 10  9  2  0
 11 12  2  0
 12  2  1  0
 14 13  1  0
 14 15  1  6
 15 16  1  0
 17 14  1  0
 18 17  2  0
 19 17  1  0
 20 27  1  0
 20 19  1  0
 21 22  1  0
 20 21  1  6
 22 26  1  0
 23 22  2  0
 23 24  1  0
 24 25  1  0
 26 25  2  0
 27 28  1  0
 29 27  2  0
M  END
$$$$
