YCH.pdb
     RDKit          3D

 29 30  0  0  1  0  0  0  0  0999 V2000
   10.7995  -26.0816   21.4416 O   0  0  0  0  0  0  0  0  0  0  0  0
   11.3904  -24.8301   21.3466 C   0  0  0  0  0  0  0  0  0  0  0  0
   11.3976  -23.9442   22.4022 C   0  0  0  0  0  0  0  0  0  0  0  0
   12.0007  -22.6953   22.2705 C   0  0  0  0  0  0  0  0  0  0  0  0
   12.6032  -22.3118   21.0902 C   0  0  0  0  0  0  0  0  0  0  0  0
   13.2215  -20.9714   21.0282 C   0  0  0  0  0  0  0  0  0  0  0  0
   12.1753  -19.8666   21.0853 C   0  0  2  0  0  0  0  0  0  0  0  0
   11.3091  -19.9041   19.9240 N   0  0  0  0  0  0  0  0  0  0  0  0
   12.9265  -18.5851   21.1573 C   0  0  0  0  0  0  0  0  0  0  0  0
   13.1665  -17.9974   20.0718 O   0  0  0  0  0  0  0  0  0  0  0  0
   12.6020  -23.1790   20.0409 C   0  0  0  0  0  0  0  0  0  0  0  0
   11.9981  -24.4294   20.1730 C   0  0  0  0  0  0  0  0  0  0  0  0
   13.3828  -17.9919   22.3510 N   0  0  0  0  0  0  0  0  0  0  0  0
   14.0485  -16.7162   22.4240 C   0  0  1  0  0  0  0  0  0  0  0  0
   13.1040  -15.6746   23.0377 C   0  0  0  0  0  0  0  0  0  0  0  0
   12.2335  -16.3900   24.4588 S   0  0  0  0  0  0  0  0  0  0  0  0
   15.3100  -16.8005   23.1981 C   0  0  0  0  0  0  0  0  0  0  0  0
   15.2280  -17.1501   24.4008 O   0  0  0  0  0  0  0  0  0  0  0  0
   16.5718  -16.5011   22.6183 N   0  0  0  0  0  0  0  0  0  0  0  0
   17.8146  -16.4461   23.3158 C   0  0  1  0  0  0  0  0  0  0  0  0
   19.0516  -16.5165   22.4360 C   0  0  0  0  0  0  0  0  0  0  0  0
   19.0506  -17.6655   21.5292 C   0  0  0  0  0  0  0  0  0  0  0  0
   18.3759  -18.8458   21.6025 C   0  0  0  0  0  0  0  0  0  0  0  0
   18.6793  -19.6177   20.5213 N   0  0  0  0  0  0  0  0  0  0  0  0
   19.5440  -18.9190   19.7720 C   0  0  0  0  0  0  0  0  0  0  0  0
   19.7742  -17.7464   20.3663 N   0  0  0  0  0  0  0  0  0  0  0  0
   17.9322  -15.3925   24.3298 C   0  0  0  0  0  0  0  0  0  0  0  0
   19.0167  -15.2267   25.1604 O   0  0  0  0  0  0  0  0  0  0  0  0
   16.9575  -14.5814   24.4398 O   0  0  0  0  0  0  0  0  0  0  0  0
  2  1  1  0
  3  2  2  0
  4  3  1  0
  5  4  2  0
  5 11  1  0
  6  5  1  0
  7  8  1  6
  7  6  1  0
  9  7  1  0
  9 13  1  0
 10  9  2  0
 11 12  2  0
 12  2  1  0
 14 13  1  0
 14 15  1  1
 15 16  1  0
 17 14  1  0
 18 17  2  0
 19 17  1  0
 20 27  1  0
 20 19  1  0
 21 22  1  0
 20 21  1  6
 22 26  1  0
 23 22  2  0
 23 24  1  0
 24 25  1  0
 26 25  2  0
 27 28  1  0
 29 27  2  0
M  END
$$$$
