YCH.pdb
     RDKit          3D

 29 30  0  0  1  0  0  0  0  0999 V2000
   13.0177  -21.6461    9.8766 O   0  0  0  0  0  0  0  0  0  0  0  0
   13.3966  -21.3535   11.1787 C   0  0  0  0  0  0  0  0  0  0  0  0
   12.9710  -22.1088   12.2500 C   0  0  0  0  0  0  0  0  0  0  0  0
   13.3719  -21.7852   13.5443 C   0  0  0  0  0  0  0  0  0  0  0  0
   14.1992  -20.7089   13.7898 C   0  0  0  0  0  0  0  0  0  0  0  0
   14.5804  -20.4296   15.1897 C   0  0  0  0  0  0  0  0  0  0  0  0
   13.4710  -19.7060   15.9408 C   0  0  2  0  0  0  0  0  0  0  0  0
   13.1440  -18.4448   15.3061 N   0  0  0  0  0  0  0  0  0  0  0  0
   13.9717  -19.4997   17.3258 C   0  0  0  0  0  0  0  0  0  0  0  0
   14.5679  -18.4190   17.5667 O   0  0  0  0  0  0  0  0  0  0  0  0
   14.6256  -19.9559   12.7390 C   0  0  0  0  0  0  0  0  0  0  0  0
   14.2241  -20.2801   11.4432 C   0  0  0  0  0  0  0  0  0  0  0  0
   13.8234  -20.4271   18.3760 N   0  0  0  0  0  0  0  0  0  0  0  0
   14.3069  -20.2224   19.7177 C   0  0  1  0  0  0  0  0  0  0  0  0
   13.1602  -20.4241   20.7168 C   0  0  0  0  0  0  0  0  0  0  0  0
   11.7412  -21.1874   19.8843 S   0  0  0  0  0  0  0  0  0  0  0  0
   15.4418  -21.1222   20.0338 C   0  0  0  0  0  0  0  0  0  0  0  0
   15.7458  -21.9911   19.1806 O   0  0  0  0  0  0  0  0  0  0  0  0
   16.1688  -21.0200   21.2500 N   0  0  0  0  0  0  0  0  0  0  0  0
   17.5506  -20.6860   21.3664 C   0  0  1  0  0  0  0  0  0  0  0  0
   17.9952  -19.4860   20.5471 C   0  0  0  0  0  0  0  0  0  0  0  0
   18.4395  -19.8405   19.1981 C   0  0  0  0  0  0  0  0  0  0  0  0
   18.4778  -21.0486   18.5716 C   0  0  0  0  0  0  0  0  0  0  0  0
   18.9622  -20.8966   17.3070 N   0  0  0  0  0  0  0  0  0  0  0  0
   19.2265  -19.5924   17.1435 C   0  0  0  0  0  0  0  0  0  0  0  0
   18.9169  -18.9489   18.2711 N   0  0  0  0  0  0  0  0  0  0  0  0
   18.0825  -20.6344   22.7325 C   0  0  0  0  0  0  0  0  0  0  0  0
   19.3840  -20.9226   23.0743 O   0  0  0  0  0  0  0  0  0  0  0  0
   17.2754  -20.2986   23.6575 O   0  0  0  0  0  0  0  0  0  0  0  0
  2  1  1  0
  3  2  2  0
  4  3  1  0
  5  4  2  0
  5 11  1  0
  6  5  1  0
  7  8  1  6
  7  6  1  0
  9  7  1  0
  9 13  1  0
 10  9  2  0
 11 12  2  0
 12  2  1  0
 14 13  1  0
 14 15  1  1
 15 16  1  0
 17 14  1  0
 18 17  2  0
 19 17  1  0
 20 27  1  0
 20 19  1  0
 21 22  1  0
 20 21  1  1
 22 26  1  0
 23 22  2  0
 23 24  1  0
 24 25  1  0
 26 25  2  0
 27 28  1  0
 29 27  2  0
M  END
$$$$
