YCH.pdb
     RDKit          3D

 29 30  0  0  1  0  0  0  0  0999 V2000
    7.0748  -13.1571   16.8137 O   0  0  0  0  0  0  0  0  0  0  0  0
    7.2782  -13.5551   18.1269 C   0  0  0  0  0  0  0  0  0  0  0  0
    6.8670  -14.7869   18.5884 C   0  0  0  0  0  0  0  0  0  0  0  0
    7.0881  -15.1528   19.9143 C   0  0  0  0  0  0  0  0  0  0  0  0
    7.7195  -14.3007   20.7966 C   0  0  0  0  0  0  0  0  0  0  0  0
    7.9176  -14.7606   22.1866 C   0  0  0  0  0  0  0  0  0  0  0  0
    9.3932  -14.9498   22.5112 C   0  0  2  0  0  0  0  0  0  0  0  0
    9.9988  -15.9387   21.6420 N   0  0  0  0  0  0  0  0  0  0  0  0
    9.4553  -15.3725   23.9357 C   0  0  0  0  0  0  0  0  0  0  0  0
    9.6753  -16.5891   24.1654 O   0  0  0  0  0  0  0  0  0  0  0  0
    8.1299  -13.0815   20.3516 C   0  0  0  0  0  0  0  0  0  0  0  0
    7.9084  -12.7153   19.0240 C   0  0  0  0  0  0  0  0  0  0  0  0
    9.2853  -14.5073   25.0345 N   0  0  0  0  0  0  0  0  0  0  0  0
    9.4413  -14.8997   26.4120 C   0  0  1  0  0  0  0  0  0  0  0  0
    8.9856  -13.7578   27.3296 C   0  0  0  0  0  0  0  0  0  0  0  0
    7.5386  -12.9300   26.6154 S   0  0  0  0  0  0  0  0  0  0  0  0
    8.6953  -16.1446   26.7144 C   0  0  0  0  0  0  0  0  0  0  0  0
    7.7728  -16.4711   25.9285 O   0  0  0  0  0  0  0  0  0  0  0  0
    8.9985  -16.9495   27.8450 N   0  0  0  0  0  0  0  0  0  0  0  0
    9.3630  -18.3279   27.8099 C   0  0  1  0  0  0  0  0  0  0  0  0
    9.7296  -18.8632   26.4358 C   0  0  0  0  0  0  0  0  0  0  0  0
    8.5658  -19.1097   25.5828 C   0  0  0  0  0  0  0  0  0  0  0  0
    7.2367  -18.9731   25.8440 C   0  0  0  0  0  0  0  0  0  0  0  0
    6.5132  -19.3108   24.7397 N   0  0  0  0  0  0  0  0  0  0  0  0
    7.3911  -19.6584   23.7880 C   0  0  0  0  0  0  0  0  0  0  0  0
    8.6255  -19.5417   24.2820 N   0  0  0  0  0  0  0  0  0  0  0  0
   10.3218  -18.7615   28.8319 C   0  0  0  0  0  0  0  0  0  0  0  0
   10.1492  -19.8547   29.6498 O   0  0  0  0  0  0  0  0  0  0  0  0
   11.3833  -18.0714   28.9622 O   0  0  0  0  0  0  0  0  0  0  0  0
  2  1  1  0
  3  2  2  0
  4  3  1  0
  5  4  2  0
  5 11  1  0
  6  5  1  0
  7  8  1  6
  7  6  1  0
  9  7  1  0
  9 13  1  0
 10  9  2  0
 11 12  2  0
 12  2  1  0
 14 13  1  0
 14 15  1  1
 15 16  1  0
 17 14  1  0
 18 17  2  0
 19 17  1  0
 20 27  1  0
 20 19  1  0
 21 22  1  0
 20 21  1  6
 22 26  1  0
 23 22  2  0
 23 24  1  0
 24 25  1  0
 26 25  2  0
 27 28  1  0
 29 27  2  0
M  END
$$$$
