YCH.pdb
     RDKit          3D

 29 30  0  0  1  0  0  0  0  0999 V2000
    6.3441  -21.5943   18.8961 O   0  0  0  0  0  0  0  0  0  0  0  0
    6.9472  -20.6958   19.7640 C   0  0  0  0  0  0  0  0  0  0  0  0
    8.3173  -20.5952   19.8746 C   0  0  0  0  0  0  0  0  0  0  0  0
    8.8881  -19.6810   20.7572 C   0  0  0  0  0  0  0  0  0  0  0  0
    8.1060  -18.8568   21.5397 C   0  0  0  0  0  0  0  0  0  0  0  0
    8.7854  -17.9134   22.4515 C   0  0  0  0  0  0  0  0  0  0  0  0
    8.6104  -16.4700   21.9993 C   0  0  2  0  0  0  0  0  0  0  0  0
    9.4345  -16.1791   20.8431 N   0  0  0  0  0  0  0  0  0  0  0  0
    8.9897  -15.6211   23.1599 C   0  0  0  0  0  0  0  0  0  0  0  0
   10.2162  -15.4133   23.3440 O   0  0  0  0  0  0  0  0  0  0  0  0
    6.7515  -18.9477   21.4387 C   0  0  0  0  0  0  0  0  0  0  0  0
    6.1802  -19.8631   20.5548 C   0  0  0  0  0  0  0  0  0  0  0  0
    8.0734  -15.0398   24.0585 N   0  0  0  0  0  0  0  0  0  0  0  0
    8.4463  -14.2830   25.2264 C   0  0  1  0  0  0  0  0  0  0  0  0
    7.2907  -13.3607   25.6356 C   0  0  0  0  0  0  0  0  0  0  0  0
    7.6779  -12.5437   27.2078 S   0  0  0  0  0  0  0  0  0  0  0  0
    8.8344  -15.1675   26.3510 C   0  0  0  0  0  0  0  0  0  0  0  0
    7.9457  -15.9091   26.8365 O   0  0  0  0  0  0  0  0  0  0  0  0
   10.1557  -15.1888   26.8722 N   0  0  0  0  0  0  0  0  0  0  0  0
   10.5893  -15.9361   28.0071 C   0  0  1  0  0  0  0  0  0  0  0  0
   11.8804  -16.7133   27.8125 C   0  0  0  0  0  0  0  0  0  0  0  0
   11.8320  -17.6392   26.6798 C   0  0  0  0  0  0  0  0  0  0  0  0
   10.7993  -18.3782   26.1889 C   0  0  0  0  0  0  0  0  0  0  0  0
   11.2183  -19.0941   25.1078 N   0  0  0  0  0  0  0  0  0  0  0  0
   12.5137  -18.8018   24.9231 C   0  0  0  0  0  0  0  0  0  0  0  0
   12.8929  -17.9301   25.8599 N   0  0  0  0  0  0  0  0  0  0  0  0
   10.5782  -15.2187   29.2866 C   0  0  0  0  0  0  0  0  0  0  0  0
   10.8505  -15.7948   30.5063 O   0  0  0  0  0  0  0  0  0  0  0  0
   10.2957  -13.9781   29.2543 O   0  0  0  0  0  0  0  0  0  0  0  0
  2  1  1  0
  3  2  2  0
  4  3  1  0
  5  4  2  0
  5 11  1  0
  6  5  1  0
  7  8  1  6
  7  6  1  0
  9  7  1  0
  9 13  1  0
 10  9  2  0
 11 12  2  0
 12  2  1  0
 14 13  1  0
 14 15  1  1
 15 16  1  0
 17 14  1  0
 18 17  2  0
 19 17  1  0
 20 27  1  0
 20 19  1  0
 21 22  1  0
 20 21  1  6
 22 26  1  0
 23 22  2  0
 23 24  1  0
 24 25  1  0
 26 25  2  0
 27 28  1  0
 29 27  2  0
M  END
$$$$
