YCH.pdb
     RDKit          3D

 29 30  0  0  1  0  0  0  0  0999 V2000
    6.0730  -22.9732   14.7601 O   0  0  0  0  0  0  0  0  0  0  0  0
    6.6458  -22.0701   15.6437 C   0  0  0  0  0  0  0  0  0  0  0  0
    7.9161  -21.5700   15.4552 C   0  0  0  0  0  0  0  0  0  0  0  0
    8.4591  -20.6642   16.3637 C   0  0  0  0  0  0  0  0  0  0  0  0
    7.7480  -20.2449   17.4690 C   0  0  0  0  0  0  0  0  0  0  0  0
    8.3921  -19.2826   18.3866 C   0  0  0  0  0  0  0  0  0  0  0  0
    8.1022  -17.8427   17.9851 C   0  0  2  0  0  0  0  0  0  0  0  0
    8.7462  -17.5082   16.7305 N   0  0  0  0  0  0  0  0  0  0  0  0
    8.6071  -16.9912   19.0949 C   0  0  0  0  0  0  0  0  0  0  0  0
    9.7960  -16.5892   19.0162 O   0  0  0  0  0  0  0  0  0  0  0  0
    6.4923  -20.7325   17.6651 C   0  0  0  0  0  0  0  0  0  0  0  0
    5.9487  -21.6394   16.7553 C   0  0  0  0  0  0  0  0  0  0  0  0
    7.8476  -16.6091   20.2184 N   0  0  0  0  0  0  0  0  0  0  0  0
    8.3144  -15.7225   21.2538 C   0  0  1  0  0  0  0  0  0  0  0  0
    7.3266  -14.5610   21.4239 C   0  0  0  0  0  0  0  0  0  0  0  0
    5.6650  -15.2058   21.7590 S   0  0  0  0  0  0  0  0  0  0  0  0
    8.5104  -16.4362   22.5383 C   0  0  0  0  0  0  0  0  0  0  0  0
    7.5765  -17.1729   22.9387 O   0  0  0  0  0  0  0  0  0  0  0  0
    9.7021  -16.3037   23.3001 N   0  0  0  0  0  0  0  0  0  0  0  0
   10.8818  -17.0894   23.1406 C   0  0  1  0  0  0  0  0  0  0  0  0
   11.3611  -17.2495   21.7075 C   0  0  0  0  0  0  0  0  0  0  0  0
   12.4854  -18.1774   21.5749 C   0  0  0  0  0  0  0  0  0  0  0  0
   13.8228  -17.9358   21.4930 C   0  0  0  0  0  0  0  0  0  0  0  0
   14.4981  -19.1147   21.3877 N   0  0  0  0  0  0  0  0  0  0  0  0
   13.5819  -20.0933   21.4042 C   0  0  0  0  0  0  0  0  0  0  0  0
   12.3710  -19.5433   21.5162 N   0  0  0  0  0  0  0  0  0  0  0  0
   11.9893  -16.7706   24.0482 C   0  0  0  0  0  0  0  0  0  0  0  0
   12.5443  -15.5196   24.1924 O   0  0  0  0  0  0  0  0  0  0  0  0
   12.4615  -17.7248   24.7455 O   0  0  0  0  0  0  0  0  0  0  0  0
  2  1  1  0
  3  2  2  0
  4  3  1  0
  5  4  2  0
  5 11  1  0
  6  5  1  0
  7  8  1  6
  7  6  1  0
  9  7  1  0
  9 13  1  0
 10  9  2  0
 11 12  2  0
 12  2  1  0
 14 13  1  0
 14 15  1  1
 15 16  1  0
 17 14  1  0
 18 17  2  0
 19 17  1  0
 20 27  1  0
 20 19  1  0
 21 22  1  0
 20 21  1  6
 22 26  1  0
 23 22  2  0
 23 24  1  0
 24 25  1  0
 26 25  2  0
 27 28  1  0
 29 27  2  0
M  END
$$$$
