QFL.pdb
     RDKit          3D

 29 29  0  0  1  0  0  0  0  0999 V2000
    8.4843  -13.0709   17.4291 N   0  0  0  0  0  0  0  0  0  0  0  0
    8.6769  -14.3050   16.7281 C   0  0  0  0  0  0  0  0  0  0  0  0
    8.0048  -14.5002   15.6654 O   0  0  0  0  0  0  0  0  0  0  0  0
    9.6371  -15.3123   17.2441 C   0  0  0  0  0  0  0  0  0  0  0  0
   10.0692  -14.9185   18.6244 C   0  0  0  0  0  0  0  0  0  0  0  0
    9.9109  -16.0736   19.5782 C   0  0  2  0  0  0  0  0  0  0  0  0
    8.7232  -16.8545   19.3277 N   0  0  0  0  0  0  0  0  0  0  0  0
    9.8893  -15.5952   20.9825 C   0  0  0  0  0  0  0  0  0  0  0  0
   10.8478  -14.9303   21.4491 O   0  0  0  0  0  0  0  0  0  0  0  0
    8.8040  -15.8575   21.8610 N   0  0  0  0  0  0  0  0  0  0  0  0
    8.6763  -15.2296   23.1759 C   0  0  1  0  0  0  0  0  0  0  0  0
    7.2317  -15.0926   23.5239 C   0  0  0  0  0  0  0  0  0  0  0  0
    6.9579  -14.0982   24.5894 C   0  0  0  0  0  0  0  0  0  0  0  0
    7.3567  -12.7630   24.4564 C   0  0  0  0  0  0  0  0  0  0  0  0
    7.1065  -11.8291   25.4358 C   0  0  0  0  0  0  0  0  0  0  0  0
    6.4481  -12.1757   26.5950 C   0  0  0  0  0  0  0  0  0  0  0  0
    6.0476  -13.4787   26.7478 C   0  0  0  0  0  0  0  0  0  0  0  0
    6.3047  -14.3902   25.7656 C   0  0  0  0  0  0  0  0  0  0  0  0
    9.5225  -15.8893   24.1653 C   0  0  0  0  0  0  0  0  0  0  0  0
   10.7579  -15.9609   23.9394 O   0  0  0  0  0  0  0  0  0  0  0  0
   12.1584  -14.8973   27.9153 C   0  0  0  0  0  0  0  0  0  0  0  0
   10.7165  -14.8791   28.4097 C   0  0  1  0  0  0  0  0  0  0  0  0
   10.4813  -13.5037   29.0096 C   0  0  0  0  0  0  0  0  0  0  0  0
    9.8418  -14.9806   27.1788 C   0  0  0  0  0  0  0  0  0  0  0  0
    9.8328  -16.3579   26.5801 C   0  0  2  0  0  0  0  0  0  0  0  0
    9.0643  -16.4649   25.3771 N   0  0  0  0  0  0  0  0  0  0  0  0
    9.3606  -17.2956   27.6381 C   0  0  0  0  0  0  0  0  0  0  0  0
   10.0432  -17.5882   28.6429 O   0  0  0  0  0  0  0  0  0  0  0  0
    8.1127  -17.8568   27.4866 O   0  0  0  0  0  0  0  0  0  0  0  0
  2  1  1  0
  2  3  2  0
  4  2  1  0
  5  4  1  0
  6  7  1  6
  6  5  1  0
  8  6  1  0
  8 10  1  0
  9  8  2  0
 11 10  1  0
 12 13  1  0
 11 12  1  1
 13 18  2  0
 14 13  1  0
 14 15  2  0
 15 16  1  0
 16 17  2  0
 18 17  1  0
 19 11  1  0
 20 19  2  0
 22 21  1  6
 22 24  1  0
 23 22  1  0
 25 24  1  1
 25 26  1  0
 25 27  1  0
 26 19  1  0
 27 29  1  0
 28 27  2  0
M  END
$$$$
