QFL.pdb
     RDKit          3D

 29 29  0  0  1  0  0  0  0  0999 V2000
   12.8880  -17.5043   17.4536 N   0  0  0  0  0  0  0  0  0  0  0  0
   12.6310  -18.5236   18.4264 C   0  0  0  0  0  0  0  0  0  0  0  0
   13.6180  -19.2017   18.8571 O   0  0  0  0  0  0  0  0  0  0  0  0
   11.2467  -18.7649   18.9040 C   0  0  0  0  0  0  0  0  0  0  0  0
   10.8028  -17.5993   19.7355 C   0  0  0  0  0  0  0  0  0  0  0  0
   10.3650  -18.0597   21.1013 C   0  0  2  0  0  0  0  0  0  0  0  0
    9.1502  -18.8388   21.0724 N   0  0  0  0  0  0  0  0  0  0  0  0
   10.1769  -16.9020   22.0099 C   0  0  0  0  0  0  0  0  0  0  0  0
   11.0880  -16.0504   22.1619 O   0  0  0  0  0  0  0  0  0  0  0  0
    8.9786  -16.6960   22.7447 N   0  0  0  0  0  0  0  0  0  0  0  0
    8.7790  -15.5529   23.6353 C   0  0  1  0  0  0  0  0  0  0  0  0
    7.3182  -15.3400   23.8523 C   0  0  0  0  0  0  0  0  0  0  0  0
    6.9878  -14.0682   24.5397 C   0  0  0  0  0  0  0  0  0  0  0  0
    6.3211  -14.0599   25.7705 C   0  0  0  0  0  0  0  0  0  0  0  0
    6.0109  -12.8873   26.4208 C   0  0  0  0  0  0  0  0  0  0  0  0
    6.3477  -11.6659   25.8805 C   0  0  0  0  0  0  0  0  0  0  0  0
    7.0017  -11.6490   24.6748 C   0  0  0  0  0  0  0  0  0  0  0  0
    7.3006  -12.8220   24.0453 C   0  0  0  0  0  0  0  0  0  0  0  0
    9.6041  -15.6619   24.8344 C   0  0  0  0  0  0  0  0  0  0  0  0
   10.5661  -14.8629   24.9698 O   0  0  0  0  0  0  0  0  0  0  0  0
    9.6680  -13.8518   29.2384 C   0  0  0  0  0  0  0  0  0  0  0  0
   10.1554  -14.4921   27.9439 C   0  0  1  0  0  0  0  0  0  0  0  0
   11.6228  -14.1255   27.8045 C   0  0  0  0  0  0  0  0  0  0  0  0
   10.0916  -15.9891   28.1575 C   0  0  0  0  0  0  0  0  0  0  0  0
   10.3866  -16.7706   26.9094 C   0  0  2  0  0  0  0  0  0  0  0  0
    9.4111  -16.6053   25.8747 N   0  0  0  0  0  0  0  0  0  0  0  0
   10.5496  -18.1968   27.3103 C   0  0  0  0  0  0  0  0  0  0  0  0
    9.7972  -19.1084   26.9053 O   0  0  0  0  0  0  0  0  0  0  0  0
   11.5816  -18.5080   28.1668 O   0  0  0  0  0  0  0  0  0  0  0  0
  2  1  1  0
  2  3  2  0
  4  2  1  0
  5  4  1  0
  6  7  1  6
  6  5  1  0
  8  6  1  0
  8 10  1  0
  9  8  2  0
 11 10  1  0
 12 13  1  0
 11 12  1  1
 13 18  2  0
 14 13  1  0
 14 15  2  0
 15 16  1  0
 16 17  2  0
 18 17  1  0
 19 11  1  0
 20 19  2  0
 22 21  1  1
 22 24  1  0
 23 22  1  0
 25 24  1  1
 25 26  1  0
 25 27  1  0
 26 19  1  0
 27 29  1  0
 28 27  2  0
M  END
$$$$
