QFL.pdb
     RDKit          3D

 29 29  0  0  1  0  0  0  0  0999 V2000
   13.9894  -18.9716   18.8682 N   0  0  0  0  0  0  0  0  0  0  0  0
   13.0468  -18.1694   18.1474 C   0  0  0  0  0  0  0  0  0  0  0  0
   13.4920  -17.1924   17.4645 O   0  0  0  0  0  0  0  0  0  0  0  0
   11.5983  -18.4865   18.2096 C   0  0  0  0  0  0  0  0  0  0  0  0
   10.8891  -17.4024   18.9638 C   0  0  0  0  0  0  0  0  0  0  0  0
   10.3663  -17.9256   20.2761 C   0  0  2  0  0  0  0  0  0  0  0  0
    9.1621  -18.7084   20.1328 N   0  0  0  0  0  0  0  0  0  0  0  0
   10.1101  -16.8106   21.2207 C   0  0  0  0  0  0  0  0  0  0  0  0
   10.9543  -15.8929   21.3750 O   0  0  0  0  0  0  0  0  0  0  0  0
    8.9184  -16.7203   21.9889 N   0  0  0  0  0  0  0  0  0  0  0  0
    8.6951  -15.6771   22.9897 C   0  0  1  0  0  0  0  0  0  0  0  0
    7.2566  -15.2803   22.9826 C   0  0  0  0  0  0  0  0  0  0  0  0
    6.9200  -14.2088   23.9509 C   0  0  0  0  0  0  0  0  0  0  0  0
    6.1532  -14.4754   25.0913 C   0  0  0  0  0  0  0  0  0  0  0  0
    5.8359  -13.4914   25.9997 C   0  0  0  0  0  0  0  0  0  0  0  0
    6.2646  -12.1948   25.8198 C   0  0  0  0  0  0  0  0  0  0  0  0
    7.0177  -11.9096   24.7093 C   0  0  0  0  0  0  0  0  0  0  0  0
    7.3220  -12.8987   23.8201 C   0  0  0  0  0  0  0  0  0  0  0  0
    9.2588  -16.0508   24.2830 C   0  0  0  0  0  0  0  0  0  0  0  0
    9.4628  -17.2705   24.5136 O   0  0  0  0  0  0  0  0  0  0  0  0
   12.1848  -15.0831   28.7977 C   0  0  0  0  0  0  0  0  0  0  0  0
   10.6707  -15.1418   28.9640 C   0  0  1  0  0  0  0  0  0  0  0  0
   10.3150  -14.1435   30.0520 C   0  0  0  0  0  0  0  0  0  0  0  0
   10.0787  -14.6191   27.6730 C   0  0  0  0  0  0  0  0  0  0  0  0
   10.1699  -15.6074   26.5459 C   0  0  2  0  0  0  0  0  0  0  0  0
    9.6010  -15.1433   25.3169 N   0  0  0  0  0  0  0  0  0  0  0  0
    9.5409  -16.8736   27.0176 C   0  0  0  0  0  0  0  0  0  0  0  0
    8.3053  -17.0598   27.0223 O   0  0  0  0  0  0  0  0  0  0  0  0
   10.3730  -17.8746   27.4657 O   0  0  0  0  0  0  0  0  0  0  0  0
  2  1  1  0
  2  3  2  0
  4  2  1  0
  5  4  1  0
  6  7  1  6
  6  5  1  0
  8  6  1  0
  8 10  1  0
  9  8  2  0
 11 10  1  0
 12 13  1  0
 11 12  1  1
 13 18  2  0
 14 13  1  0
 14 15  2  0
 15 16  1  0
 16 17  2  0
 18 17  1  0
 19 11  1  0
 20 19  2  0
 22 21  1  6
 22 24  1  0
 23 22  1  0
 25 24  1  1
 25 26  1  0
 25 27  1  0
 26 19  1  0
 27 29  1  0
 28 27  2  0
M  END
$$$$
