QFL.pdb
     RDKit          3D

 29 29  0  0  1  0  0  0  0  0999 V2000
   10.6433  -17.7118   16.3268 N   0  0  0  0  0  0  0  0  0  0  0  0
   11.8192  -18.0964   17.0484 C   0  0  0  0  0  0  0  0  0  0  0  0
   12.7961  -18.5750   16.3881 O   0  0  0  0  0  0  0  0  0  0  0  0
   11.8750  -17.9328   18.5225 C   0  0  0  0  0  0  0  0  0  0  0  0
   10.5455  -17.4454   19.0141 C   0  0  0  0  0  0  0  0  0  0  0  0
   10.2579  -17.9890   20.3892 C   0  0  2  0  0  0  0  0  0  0  0  0
    9.0953  -18.8434   20.4272 N   0  0  0  0  0  0  0  0  0  0  0  0
   10.0796  -16.8842   21.3634 C   0  0  0  0  0  0  0  0  0  0  0  0
   11.0031  -16.0587   21.5740 O   0  0  0  0  0  0  0  0  0  0  0  0
    8.8775  -16.7019   22.0983 N   0  0  0  0  0  0  0  0  0  0  0  0
    8.7589  -15.7532   23.2053 C   0  0  1  0  0  0  0  0  0  0  0  0
    7.3187  -15.5637   23.5462 C   0  0  0  0  0  0  0  0  0  0  0  0
    7.0582  -14.4253   24.4602 C   0  0  0  0  0  0  0  0  0  0  0  0
    6.3371  -14.5977   25.6476 C   0  0  0  0  0  0  0  0  0  0  0  0
    6.0906  -13.5509   26.5063 C   0  0  0  0  0  0  0  0  0  0  0  0
    6.5482  -12.2819   26.2278 C   0  0  0  0  0  0  0  0  0  0  0  0
    7.2574  -12.0887   25.0696 C   0  0  0  0  0  0  0  0  0  0  0  0
    7.4917  -13.1390   24.2308 C   0  0  0  0  0  0  0  0  0  0  0  0
    9.6457  -16.1089   24.3086 C   0  0  0  0  0  0  0  0  0  0  0  0
   10.8753  -15.8750   24.1834 O   0  0  0  0  0  0  0  0  0  0  0  0
   11.6760  -14.1543   28.2437 C   0  0  0  0  0  0  0  0  0  0  0  0
   10.3971  -14.8771   28.6502 C   0  0  1  0  0  0  0  0  0  0  0  0
    9.5871  -13.8934   29.4767 C   0  0  0  0  0  0  0  0  0  0  0  0
    9.6228  -15.1256   27.3738 C   0  0  0  0  0  0  0  0  0  0  0  0
    9.9406  -16.4525   26.7463 C   0  0  2  0  0  0  0  0  0  0  0  0
    9.2335  -16.7044   25.5272 N   0  0  0  0  0  0  0  0  0  0  0  0
    9.6845  -17.4997   27.7754 C   0  0  0  0  0  0  0  0  0  0  0  0
    8.6124  -18.1376   27.8458 O   0  0  0  0  0  0  0  0  0  0  0  0
   10.6851  -17.7648   28.6831 O   0  0  0  0  0  0  0  0  0  0  0  0
  2  1  1  0
  2  3  2  0
  4  2  1  0
  5  4  1  0
  6  7  1  6
  6  5  1  0
  8  6  1  0
  8 10  1  0
  9  8  2  0
 11 10  1  0
 12 13  1  0
 11 12  1  1
 13 18  2  0
 14 13  1  0
 14 15  2  0
 15 16  1  0
 16 17  2  0
 18 17  1  0
 19 11  1  0
 20 19  2  0
 22 21  1  6
 22 24  1  0
 23 22  1  0
 25 24  1  1
 25 26  1  0
 25 27  1  0
 26 19  1  0
 27 29  1  0
 28 27  2  0
M  END
$$$$
