QFL.pdb
     RDKit          3D

 29 29  0  0  1  0  0  0  0  0999 V2000
   13.5287  -20.6257   19.5261 N   0  0  0  0  0  0  0  0  0  0  0  0
   14.0065  -19.2762   19.4799 C   0  0  0  0  0  0  0  0  0  0  0  0
   15.0614  -18.9927   20.1327 O   0  0  0  0  0  0  0  0  0  0  0  0
   13.2770  -18.2549   18.6877 C   0  0  0  0  0  0  0  0  0  0  0  0
   12.7628  -17.1914   19.6104 C   0  0  0  0  0  0  0  0  0  0  0  0
   11.4491  -17.6080   20.2185 C   0  0  2  0  0  0  0  0  0  0  0  0
   10.3510  -17.5533   19.2833 N   0  0  0  0  0  0  0  0  0  0  0  0
   11.1254  -16.7655   21.3960 C   0  0  0  0  0  0  0  0  0  0  0  0
   11.7932  -15.7318   21.6490 O   0  0  0  0  0  0  0  0  0  0  0  0
   10.0623  -17.0751   22.2862 N   0  0  0  0  0  0  0  0  0  0  0  0
    9.5816  -16.1420   23.3050 C   0  0  1  0  0  0  0  0  0  0  0  0
    8.1171  -15.9198   23.1251 C   0  0  0  0  0  0  0  0  0  0  0  0
    7.7825  -14.8470   22.1573 C   0  0  0  0  0  0  0  0  0  0  0  0
    7.0956  -15.1282   20.9705 C   0  0  0  0  0  0  0  0  0  0  0  0
    6.7760  -14.1422   20.0650 C   0  0  0  0  0  0  0  0  0  0  0  0
    7.1230  -12.8290   20.2941 C   0  0  0  0  0  0  0  0  0  0  0  0
    7.7968  -12.5294   21.4508 C   0  0  0  0  0  0  0  0  0  0  0  0
    8.1048  -13.5206   22.3363 C   0  0  0  0  0  0  0  0  0  0  0  0
   10.0186  -16.5395   24.6396 C   0  0  0  0  0  0  0  0  0  0  0  0
   10.8380  -17.4887   24.7398 O   0  0  0  0  0  0  0  0  0  0  0  0
    8.9514  -13.3852   29.1460 C   0  0  0  0  0  0  0  0  0  0  0  0
    9.6541  -14.0618   27.9747 C   0  0  1  0  0  0  0  0  0  0  0  0
   11.0995  -13.5964   28.0089 C   0  0  0  0  0  0  0  0  0  0  0  0
    9.6593  -15.5444   28.2784 C   0  0  0  0  0  0  0  0  0  0  0  0
   10.1064  -16.3783   27.1122 C   0  0  2  0  0  0  0  0  0  0  0  0
    9.5920  -15.9386   25.8506 N   0  0  0  0  0  0  0  0  0  0  0  0
    9.7367  -17.7906   27.4123 C   0  0  0  0  0  0  0  0  0  0  0  0
   10.2109  -18.4287   28.3763 O   0  0  0  0  0  0  0  0  0  0  0  0
    8.8297  -18.4066   26.5798 O   0  0  0  0  0  0  0  0  0  0  0  0
  2  1  1  0
  2  3  2  0
  4  2  1  0
  5  4  1  0
  6  7  1  6
  6  5  1  0
  8  6  1  0
  8 10  1  0
  9  8  2  0
 11 10  1  0
 12 13  1  0
 11 12  1  1
 13 18  2  0
 14 13  1  0
 14 15  2  0
 15 16  1  0
 16 17  2  0
 18 17  1  0
 19 11  1  0
 20 19  2  0
 22 21  1  1
 22 24  1  0
 23 22  1  0
 25 24  1  1
 25 26  1  0
 25 27  1  0
 26 19  1  0
 27 29  1  0
 28 27  2  0
M  END
$$$$
