QFL.pdb
     RDKit          3D

 29 29  0  0  1  0  0  0  0  0999 V2000
   11.7023  -19.6372   16.5770 N   0  0  0  0  0  0  0  0  0  0  0  0
   12.2459  -18.9880   17.7321 C   0  0  0  0  0  0  0  0  0  0  0  0
   13.1828  -19.5747   18.3624 O   0  0  0  0  0  0  0  0  0  0  0  0
   11.7170  -17.6700   18.1633 C   0  0  0  0  0  0  0  0  0  0  0  0
   11.9089  -17.5228   19.6426 C   0  0  0  0  0  0  0  0  0  0  0  0
   10.6194  -17.7922   20.3731 C   0  0  2  0  0  0  0  0  0  0  0  0
    9.4865  -17.9265   19.4888 N   0  0  0  0  0  0  0  0  0  0  0  0
   10.3405  -16.7188   21.3586 C   0  0  0  0  0  0  0  0  0  0  0  0
   11.1826  -15.8120   21.5759 O   0  0  0  0  0  0  0  0  0  0  0  0
    9.1286  -16.6578   22.0974 N   0  0  0  0  0  0  0  0  0  0  0  0
    8.8585  -15.6249   23.0973 C   0  0  1  0  0  0  0  0  0  0  0  0
    7.4192  -15.2362   23.0351 C   0  0  0  0  0  0  0  0  0  0  0  0
    7.0387  -14.1699   23.9930 C   0  0  0  0  0  0  0  0  0  0  0  0
    6.3436  -14.4666   25.1713 C   0  0  0  0  0  0  0  0  0  0  0  0
    5.9868  -13.4876   26.0703 C   0  0  0  0  0  0  0  0  0  0  0  0
    6.3030  -12.1663   25.8431 C   0  0  0  0  0  0  0  0  0  0  0  0
    6.9842  -11.8514   24.6948 C   0  0  0  0  0  0  0  0  0  0  0  0
    7.3292  -12.8360   23.8155 C   0  0  0  0  0  0  0  0  0  0  0  0
    9.3715  -16.0068   24.4092 C   0  0  0  0  0  0  0  0  0  0  0  0
    9.6081  -17.2233   24.6250 O   0  0  0  0  0  0  0  0  0  0  0  0
   12.1188  -14.9579   29.1378 C   0  0  0  0  0  0  0  0  0  0  0  0
   10.6015  -15.1032   29.1509 C   0  0  1  0  0  0  0  0  0  0  0  0
   10.0859  -14.1700   30.2327 C   0  0  0  0  0  0  0  0  0  0  0  0
   10.1090  -14.5605   27.8268 C   0  0  0  0  0  0  0  0  0  0  0  0
   10.1422  -15.5832   26.7274 C   0  0  2  0  0  0  0  0  0  0  0  0
    9.6296  -15.1107   25.4770 N   0  0  0  0  0  0  0  0  0  0  0  0
    9.4111  -16.7847   27.2205 C   0  0  0  0  0  0  0  0  0  0  0  0
    8.1652  -16.8779   27.2049 O   0  0  0  0  0  0  0  0  0  0  0  0
   10.1572  -17.8317   27.7129 O   0  0  0  0  0  0  0  0  0  0  0  0
  2  1  1  0
  2  3  2  0
  4  2  1  0
  5  4  1  0
  6  7  1  6
  6  5  1  0
  8  6  1  0
  8 10  1  0
  9  8  2  0
 11 10  1  0
 12 13  1  0
 11 12  1  1
 13 18  2  0
 14 13  1  0
 14 15  2  0
 15 16  1  0
 16 17  2  0
 18 17  1  0
 19 11  1  0
 20 19  2  0
 22 21  1  6
 22 24  1  0
 23 22  1  0
 25 24  1  1
 25 26  1  0
 25 27  1  0
 26 19  1  0
 27 29  1  0
 28 27  2  0
M  END
$$$$
