QFL.pdb
     RDKit          3D

 29 29  0  0  1  0  0  0  0  0999 V2000
   10.9725  -16.8304   17.4401 N   0  0  0  0  0  0  0  0  0  0  0  0
   11.4977  -18.1409   17.6815 C   0  0  0  0  0  0  0  0  0  0  0  0
   11.5398  -18.9573   16.7063 O   0  0  0  0  0  0  0  0  0  0  0  0
   11.9733  -18.5142   19.0370 C   0  0  0  0  0  0  0  0  0  0  0  0
   11.6781  -17.3937   19.9880 C   0  0  0  0  0  0  0  0  0  0  0  0
   10.9580  -17.9095   21.2064 C   0  0  2  0  0  0  0  0  0  0  0  0
    9.7339  -18.6045   20.8873 N   0  0  0  0  0  0  0  0  0  0  0  0
   10.6558  -16.8014   22.1455 C   0  0  0  0  0  0  0  0  0  0  0  0
   11.5597  -16.0143   22.5221 O   0  0  0  0  0  0  0  0  0  0  0  0
    9.3519  -16.5732   22.6614 N   0  0  0  0  0  0  0  0  0  0  0  0
    9.0345  -15.4595   23.5551 C   0  0  1  0  0  0  0  0  0  0  0  0
    7.5540  -15.2905   23.6334 C   0  0  0  0  0  0  0  0  0  0  0  0
    7.1197  -14.1354   24.4558 C   0  0  0  0  0  0  0  0  0  0  0  0
    7.4601  -12.8242   24.1031 C   0  0  0  0  0  0  0  0  0  0  0  0
    7.0614  -11.7428   24.8554 C   0  0  0  0  0  0  0  0  0  0  0  0
    6.3053  -11.9110   25.9944 C   0  0  0  0  0  0  0  0  0  0  0  0
    5.9596  -13.1871   26.3599 C   0  0  0  0  0  0  0  0  0  0  0  0
    6.3643  -14.2465   25.6012 C   0  0  0  0  0  0  0  0  0  0  0  0
    9.7422  -15.5784   24.8260 C   0  0  0  0  0  0  0  0  0  0  0  0
   10.7246  -14.8206   25.0335 O   0  0  0  0  0  0  0  0  0  0  0  0
   10.4359  -13.2884   28.7031 C   0  0  0  0  0  0  0  0  0  0  0  0
   10.7551  -14.2865   27.5961 C   0  0  1  0  0  0  0  0  0  0  0  0
   12.2647  -14.4526   27.5843 C   0  0  0  0  0  0  0  0  0  0  0  0
   10.1675  -15.6111   28.0329 C   0  0  0  0  0  0  0  0  0  0  0  0
   10.2840  -16.6772   26.9815 C   0  0  2  0  0  0  0  0  0  0  0  0
    9.4123  -16.4883   25.8617 N   0  0  0  0  0  0  0  0  0  0  0  0
   10.0625  -17.9877   27.6559 C   0  0  0  0  0  0  0  0  0  0  0  0
   10.7384  -18.3736   28.6334 O   0  0  0  0  0  0  0  0  0  0  0  0
    9.0632  -18.7991   27.1675 O   0  0  0  0  0  0  0  0  0  0  0  0
  2  1  1  0
  2  3  2  0
  4  2  1  0
  5  4  1  0
  6  7  1  6
  6  5  1  0
  8  6  1  0
  8 10  1  0
  9  8  2  0
 11 10  1  0
 12 13  1  0
 11 12  1  1
 13 18  2  0
 14 13  1  0
 14 15  2  0
 15 16  1  0
 16 17  2  0
 18 17  1  0
 19 11  1  0
 20 19  2  0
 22 21  1  1
 22 24  1  0
 23 22  1  0
 25 24  1  1
 25 26  1  0
 25 27  1  0
 26 19  1  0
 27 29  1  0
 28 27  2  0
M  END
$$$$
