KVT.pdb
     RDKit          3D

 24 23  0  0  1  0  0  0  0  0999 V2000
    7.2520  -15.6466   21.1226 N   0  0  0  0  0  0  0  0  0  0  0  0
    6.8091  -15.9221   22.4588 C   0  0  1  0  0  0  0  0  0  0  0  0
    6.7313  -17.4041   22.6646 C   0  0  0  0  0  0  0  0  0  0  0  0
    5.3679  -17.9679   22.4310 C   0  0  0  0  0  0  0  0  0  0  0  0
    5.0962  -18.3187   21.0030 C   0  0  0  0  0  0  0  0  0  0  0  0
    3.7165  -18.9047   20.7909 C   0  0  0  0  0  0  0  0  0  0  0  0
    3.5601  -19.0579   19.3377 N   0  0  0  0  0  0  0  0  0  0  0  0
    7.8067  -15.3974   23.4744 C   0  0  0  0  0  0  0  0  0  0  0  0
    9.0238  -15.6397   23.3177 O   0  0  0  0  0  0  0  0  0  0  0  0
    6.9666  -11.8205   25.3227 C   0  0  0  0  0  0  0  0  0  0  0  0
    7.4313  -12.8977   26.3083 C   0  0  1  0  0  0  0  0  0  0  0  0
    6.0476  -13.3920   26.8550 C   0  0  0  0  0  0  0  0  0  0  0  0
    8.1121  -14.0644   25.6561 C   0  0  2  0  0  0  0  0  0  0  0  0
    7.3602  -14.6555   24.5649 N   0  0  0  0  0  0  0  0  0  0  0  0
    8.6898  -15.0863   26.5204 C   0  0  0  0  0  0  0  0  0  0  0  0
    7.9304  -15.9793   27.0828 O   0  0  0  0  0  0  0  0  0  0  0  0
   12.4834  -17.8282   28.0203 C   0  0  0  0  0  0  0  0  0  0  0  0
   11.9238  -16.7007   27.1761 C   0  0  1  0  0  0  0  0  0  0  0  0
   11.8973  -17.1108   25.8649 O   0  0  0  0  0  0  0  0  0  0  0  0
   10.5193  -16.3651   27.6997 C   0  0  2  0  0  0  0  0  0  0  0  0
   10.0583  -15.2565   26.8495 N   0  0  0  0  0  0  0  0  0  0  0  0
   10.7197  -15.8616   29.0812 C   0  0  0  0  0  0  0  0  0  0  0  0
   10.7976  -14.6263   29.3388 O   0  0  0  0  0  0  0  0  0  0  0  0
   10.8357  -16.6979   30.1854 O   0  0  0  0  0  0  0  0  0  0  0  0
  2  1  1  6
  3  2  1  0
  4  3  1  0
  5  6  1  0
  5  4  1  0
  7  6  1  0
  8 14  1  0
  8  2  1  0
  9  8  2  0
 11 10  1  6
 11 12  1  0
 13 14  1  6
 13 11  1  0
 15 13  1  0
 16 15  2  0
 18 17  1  1
 18 19  1  0
 18 20  1  0
 20 22  1  0
 20 21  1  6
 21 15  1  0
 22 24  1  0
 23 22  2  0
M  END
$$$$
