DLF.pdb
     RDKit          3D

 28 28  0  0  1  0  0  0  0  0999 V2000
   26.3364  -19.9491  -14.9354 N   0  0  0  0  0  0  0  0  0  0  0  0
   25.2005  -20.5616  -15.5716 C   0  0  1  0  0  0  0  0  0  0  0  0
   25.5870  -21.6447  -16.5419 C   0  0  0  0  0  0  0  0  0  0  0  0
   25.9919  -21.0097  -17.8157 C   0  0  0  0  0  0  0  0  0  0  0  0
   26.0954  -19.7657  -17.8602 O   0  0  0  0  0  0  0  0  0  0  0  0
   24.3230  -21.1465  -14.5134 C   0  0  0  0  0  0  0  0  0  0  0  0
   23.7851  -22.2620  -14.6755 O   0  0  0  0  0  0  0  0  0  0  0  0
   26.2454  -21.7725  -18.9140 O   0  0  0  0  0  0  0  0  0  0  0  0
   26.3223  -21.7207  -11.6259 C   0  0  0  0  0  0  0  0  0  0  0  0
   25.4078  -20.6955  -10.9172 C   0  0  2  0  0  0  0  0  0  0  0  0
   25.9275  -20.3977   -9.5601 C   0  0  0  0  0  0  0  0  0  0  0  0
   24.0073  -21.1723  -10.9739 C   0  0  0  0  0  0  0  0  0  0  0  0
   23.3048  -21.0310  -12.2619 C   0  0  2  0  0  0  0  0  0  0  0  0
   24.0785  -20.4547  -13.3031 N   0  0  0  0  0  0  0  0  0  0  0  0
   21.9651  -20.3725  -12.1218 C   0  0  0  0  0  0  0  0  0  0  0  0
   21.0893  -20.9091  -11.3949 O   0  0  0  0  0  0  0  0  0  0  0  0
   21.6237  -19.1613  -12.7721 N   0  0  0  0  0  0  0  0  0  0  0  0
   20.7556  -19.1173  -13.9610 C   0  0  1  0  0  0  0  0  0  0  0  0
   21.5436  -19.4282  -15.1839 C   0  0  0  0  0  0  0  0  0  0  0  0
   20.6922  -19.3185  -16.3769 C   0  0  0  0  0  0  0  0  0  0  0  0
   20.3514  -20.4833  -17.0344 C   0  0  0  0  0  0  0  0  0  0  0  0
   19.5569  -20.4790  -18.1470 C   0  0  0  0  0  0  0  0  0  0  0  0
   19.0838  -19.2743  -18.6234 C   0  0  0  0  0  0  0  0  0  0  0  0
   19.4052  -18.0993  -17.9911 C   0  0  0  0  0  0  0  0  0  0  0  0
   20.2084  -18.1411  -16.8724 C   0  0  0  0  0  0  0  0  0  0  0  0
   19.5461  -19.9052  -13.7521 C   0  0  0  0  0  0  0  0  0  0  0  0
   19.4687  -21.2876  -13.7488 O   0  0  0  0  0  0  0  0  0  0  0  0
   18.4546  -19.2874  -13.5547 O   0  0  0  0  0  0  0  0  0  0  0  0
  2  3  1  0
  2  1  1  1
  4  3  1  0
  5  4  2  0
  6  2  1  0
  7  6  2  0
  8  4  1  0
 10  9  1  1
 10 12  1  0
 10 11  1  0
 13 12  1  1
 13 14  1  0
 14  6  1  0
 15 13  1  0
 15 16  2  0
 17 15  1  0
 18 17  1  0
 18 19  1  6
 19 20  1  0
 20 21  2  0
 20 25  1  0
 21 22  1  0
 22 23  2  0
 24 23  1  0
 25 24  2  0
 26 18  1  0
 27 26  1  0
 28 26  2  0
M  END
$$$$
