DLF.pdb
     RDKit          3D

 28 28  0  0  1  0  0  0  0  0999 V2000
   23.0199  -19.1188  -12.7535 N   0  0  0  0  0  0  0  0  0  0  0  0
   23.0664  -20.4947  -13.1717 C   0  0  1  0  0  0  0  0  0  0  0  0
   22.6081  -20.6903  -14.5915 C   0  0  0  0  0  0  0  0  0  0  0  0
   21.3022  -20.0149  -14.7594 C   0  0  0  0  0  0  0  0  0  0  0  0
   20.2672  -20.6089  -14.3904 O   0  0  0  0  0  0  0  0  0  0  0  0
   24.4727  -20.9820  -13.0427 C   0  0  0  0  0  0  0  0  0  0  0  0
   24.7483  -22.1880  -13.2144 O   0  0  0  0  0  0  0  0  0  0  0  0
   21.2373  -18.7700  -15.3058 O   0  0  0  0  0  0  0  0  0  0  0  0
   27.5347  -20.0580  -15.5629 C   0  0  0  0  0  0  0  0  0  0  0  0
   27.5505  -19.0155  -14.4215 C   0  0  2  0  0  0  0  0  0  0  0  0
   28.4147  -17.8672  -14.7887 C   0  0  0  0  0  0  0  0  0  0  0  0
   27.8937  -19.6918  -13.1500 C   0  0  0  0  0  0  0  0  0  0  0  0
   26.8586  -20.5527  -12.5502 C   0  0  2  0  0  0  0  0  0  0  0  0
   25.5268  -20.0931  -12.7235 N   0  0  0  0  0  0  0  0  0  0  0  0
   27.1542  -20.9058  -11.1234 C   0  0  0  0  0  0  0  0  0  0  0  0
   28.3127  -21.2844  -10.8110 O   0  0  0  0  0  0  0  0  0  0  0  0
   26.1874  -20.8365  -10.0903 N   0  0  0  0  0  0  0  0  0  0  0  0
   26.5461  -20.9016   -8.6634 C   0  0  1  0  0  0  0  0  0  0  0  0
   27.6344  -19.9329   -8.3627 C   0  0  0  0  0  0  0  0  0  0  0  0
   27.9649  -19.9703   -6.9311 C   0  0  0  0  0  0  0  0  0  0  0  0
   28.7827  -20.9889   -6.4853 C   0  0  0  0  0  0  0  0  0  0  0  0
   29.1502  -21.0985   -5.1730 C   0  0  0  0  0  0  0  0  0  0  0  0
   28.6887  -20.1625   -4.2713 C   0  0  0  0  0  0  0  0  0  0  0  0
   27.8741  -19.1381   -4.6844 C   0  0  0  0  0  0  0  0  0  0  0  0
   27.5239  -19.0586   -6.0146 C   0  0  0  0  0  0  0  0  0  0  0  0
   25.3566  -20.8207   -7.8233 C   0  0  0  0  0  0  0  0  0  0  0  0
   25.2163  -21.3704   -6.5603 O   0  0  0  0  0  0  0  0  0  0  0  0
   24.3469  -20.1953   -8.2720 O   0  0  0  0  0  0  0  0  0  0  0  0
  2  3  1  0
  2  1  1  6
  4  3  1  0
  5  4  2  0
  6  2  1  0
  7  6  2  0
  8  4  1  0
 10  9  1  6
 10 12  1  0
 10 11  1  0
 13 12  1  1
 13 14  1  0
 14  6  1  0
 15 13  1  0
 15 16  2  0
 17 15  1  0
 18 17  1  0
 18 19  1  1
 19 20  1  0
 20 21  2  0
 20 25  1  0
 21 22  1  0
 22 23  2  0
 24 23  1  0
 25 24  2  0
 26 18  1  0
 27 26  1  0
 28 26  2  0
M  END
$$$$
