DLF.pdb
     RDKit          3D

 28 28  0  0  1  0  0  0  0  0999 V2000
   27.0810  -25.1281  -16.0300 N   0  0  0  0  0  0  0  0  0  0  0  0
   26.0437  -24.2843  -16.5612 C   0  0  1  0  0  0  0  0  0  0  0  0
   24.7380  -25.0088  -16.7465 C   0  0  0  0  0  0  0  0  0  0  0  0
   24.5843  -25.3375  -18.1812 C   0  0  0  0  0  0  0  0  0  0  0  0
   25.6103  -25.5441  -18.8630 O   0  0  0  0  0  0  0  0  0  0  0  0
   25.8366  -23.1402  -15.6230 C   0  0  0  0  0  0  0  0  0  0  0  0
   25.7047  -23.3368  -14.3966 O   0  0  0  0  0  0  0  0  0  0  0  0
   23.3458  -25.4118  -18.7406 O   0  0  0  0  0  0  0  0  0  0  0  0
   28.1833  -19.3906  -14.4775 C   0  0  0  0  0  0  0  0  0  0  0  0
   27.5055  -19.2782  -15.8624 C   0  0  2  0  0  0  0  0  0  0  0  0
   27.9590  -18.0480  -16.5562 C   0  0  0  0  0  0  0  0  0  0  0  0
   26.0404  -19.4157  -15.6993 C   0  0  0  0  0  0  0  0  0  0  0  0
   25.5404  -20.7173  -15.2216 C   0  0  2  0  0  0  0  0  0  0  0  0
   25.7846  -21.8077  -16.0971 N   0  0  0  0  0  0  0  0  0  0  0  0
   24.1104  -20.6599  -14.7748 C   0  0  0  0  0  0  0  0  0  0  0  0
   23.1986  -20.9489  -15.5924 O   0  0  0  0  0  0  0  0  0  0  0  0
   23.7211  -20.2925  -13.4633 N   0  0  0  0  0  0  0  0  0  0  0  0
   22.3106  -20.1356  -13.0698 C   0  0  1  0  0  0  0  0  0  0  0  0
   22.2120  -19.8594  -11.6113 C   0  0  0  0  0  0  0  0  0  0  0  0
   20.8032  -19.7225  -11.2155 C   0  0  0  0  0  0  0  0  0  0  0  0
   20.1245  -20.8655  -10.8441 C   0  0  0  0  0  0  0  0  0  0  0  0
   18.8149  -20.8332  -10.4527 C   0  0  0  0  0  0  0  0  0  0  0  0
   18.1561  -19.6217  -10.4293 C   0  0  0  0  0  0  0  0  0  0  0  0
   18.8043  -18.4679  -10.7929 C   0  0  0  0  0  0  0  0  0  0  0  0
   20.1241  -18.5378  -11.1819 C   0  0  0  0  0  0  0  0  0  0  0  0
   21.6243  -19.2003  -13.9539 C   0  0  0  0  0  0  0  0  0  0  0  0
   20.3499  -19.3591  -14.4713 O   0  0  0  0  0  0  0  0  0  0  0  0
   22.2330  -18.1389  -14.2928 O   0  0  0  0  0  0  0  0  0  0  0  0
  2  3  1  0
  2  1  1  1
  4  3  1  0
  5  4  2  0
  6  2  1  0
  7  6  2  0
  8  4  1  0
 10  9  1  1
 10 12  1  0
 10 11  1  0
 13 12  1  6
 13 14  1  0
 14  6  1  0
 15 13  1  0
 15 16  2  0
 17 15  1  0
 18 17  1  0
 18 19  1  1
 19 20  1  0
 20 21  2  0
 20 25  1  0
 21 22  1  0
 22 23  2  0
 24 23  1  0
 25 24  2  0
 26 18  1  0
 27 26  1  0
 28 26  2  0
M  END
$$$$
