CAN.pdb
     RDKit          3D

 20 19  0  0  1  0  0  0  0  0999 V2000
   16.4892  -14.2784  -18.0357 N   0  0  0  0  0  0  0  0  0  0  0  0
   16.6247  -14.3477  -16.5942 C   0  0  1  0  0  0  0  0  0  0  0  0
   17.3220  -15.6530  -16.2629 C   0  0  0  0  0  0  0  0  0  0  0  0
   16.0265  -16.9476  -16.2094 S   0  0  0  0  0  0  0  0  0  0  0  0
   17.4345  -13.1646  -16.1685 C   0  0  0  0  0  0  0  0  0  0  0  0
   17.6944  -12.9982  -14.9288 O   0  0  0  0  0  0  0  0  0  0  0  0
   19.2646  -10.3748  -17.8168 C   0  0  0  0  0  0  0  0  0  0  0  0
   18.6767  -11.0983  -16.5999 C   0  0  2  0  0  0  0  0  0  0  0  0
   17.9309  -12.2094  -17.1000 N   0  0  0  0  0  0  0  0  0  0  0  0
   17.8481  -10.1478  -15.8220 C   0  0  0  0  0  0  0  0  0  0  0  0
   16.6281   -9.9285  -16.0583 O   0  0  0  0  0  0  0  0  0  0  0  0
   16.5271   -6.4505  -12.3115 N   0  0  0  0  0  0  0  0  0  0  0  0
   17.1751   -7.5700  -11.7246 C   0  0  0  0  0  0  0  0  0  0  0  0
   17.1274   -7.6832  -10.4593 O   0  0  0  0  0  0  0  0  0  0  0  0
   17.8893   -8.5845  -12.5276 C   0  0  0  0  0  0  0  0  0  0  0  0
   17.6834   -8.3710  -14.0230 C   0  0  2  0  0  0  0  0  0  0  0  0
   18.4173   -9.4289  -14.7434 N   0  0  0  0  0  0  0  0  0  0  0  0
   18.2337   -7.0528  -14.3647 C   0  0  0  0  0  0  0  0  0  0  0  0
   17.3714   -5.9665  -14.2458 O   0  0  0  0  0  0  0  0  0  0  0  0
   19.4161   -6.8704  -14.7495 O   0  0  0  0  0  0  0  0  0  0  0  0
  2  5  1  0
  2  1  1  6
  3  2  1  0
  3  4  1  0
  5  6  2  0
  8  7  1  6
  9  8  1  0
  9  5  1  0
 10 11  2  0
 10  8  1  0
 13 15  1  0
 13 12  1  0
 14 13  2  0
 16 15  1  1
 16 18  1  0
 16 17  1  0
 17 10  1  0
 18 19  1  0
 20 18  2  0
M  END
$$$$
