CAN.pdb
     RDKit          3D

 20 19  0  0  1  0  0  0  0  0999 V2000
   17.4272  -12.8433  -17.5398 N   0  0  0  0  0  0  0  0  0  0  0  0
   17.7300  -12.2039  -16.2747 C   0  0  1  0  0  0  0  0  0  0  0  0
   18.9164  -12.9284  -15.6687 C   0  0  0  0  0  0  0  0  0  0  0  0
   18.2389  -14.2479  -14.5929 S   0  0  0  0  0  0  0  0  0  0  0  0
   18.0471  -10.7720  -16.5674 C   0  0  0  0  0  0  0  0  0  0  0  0
   19.0323  -10.4933  -17.3316 O   0  0  0  0  0  0  0  0  0  0  0  0
   16.3197   -7.5576  -16.3933 C   0  0  0  0  0  0  0  0  0  0  0  0
   17.6227   -8.3651  -16.4075 C   0  0  2  0  0  0  0  0  0  0  0  0
   17.2865   -9.6991  -16.0225 N   0  0  0  0  0  0  0  0  0  0  0  0
   18.6002   -7.7278  -15.4946 C   0  0  0  0  0  0  0  0  0  0  0  0
   18.8009   -8.1098  -14.3087 O   0  0  0  0  0  0  0  0  0  0  0  0
   22.4288   -4.5343  -13.7929 N   0  0  0  0  0  0  0  0  0  0  0  0
   22.6781   -5.0559  -15.0903 C   0  0  0  0  0  0  0  0  0  0  0  0
   23.8400   -4.8916  -15.5792 O   0  0  0  0  0  0  0  0  0  0  0  0
   21.6452   -5.7682  -15.8712 C   0  0  0  0  0  0  0  0  0  0  0  0
   20.3593   -5.9535  -15.0735 C   0  0  2  0  0  0  0  0  0  0  0  0
   19.3748   -6.6297  -15.9396 N   0  0  0  0  0  0  0  0  0  0  0  0
   19.8707   -4.6196  -14.7000 C   0  0  0  0  0  0  0  0  0  0  0  0
   19.2616   -3.8738  -15.7053 O   0  0  0  0  0  0  0  0  0  0  0  0
   19.9775   -4.1374  -13.5444 O   0  0  0  0  0  0  0  0  0  0  0  0
  2  5  1  0
  2  1  1  6
  3  2  1  0
  3  4  1  0
  5  6  2  0
  8  7  1  1
  9  8  1  0
  9  5  1  0
 10 11  2  0
 10  8  1  0
 13 15  1  0
 13 12  1  0
 14 13  2  0
 16 15  1  6
 16 18  1  0
 16 17  1  0
 17 10  1  0
 18 19  1  0
 20 18  2  0
M  END
$$$$
