CAN.pdb
     RDKit          3D

 20 19  0  0  1  0  0  0  0  0999 V2000
   13.1595  -10.2200   -9.6122 N   0  0  0  0  0  0  0  0  0  0  0  0
   14.6006  -10.0796   -9.5436 C   0  0  1  0  0  0  0  0  0  0  0  0
   15.1987  -10.9799  -10.6075 C   0  0  0  0  0  0  0  0  0  0  0  0
   17.0194  -10.8617  -10.4397 S   0  0  0  0  0  0  0  0  0  0  0  0
   14.9175   -8.6399   -9.7956 C   0  0  0  0  0  0  0  0  0  0  0  0
   14.4566   -8.0723  -10.8431 O   0  0  0  0  0  0  0  0  0  0  0  0
   15.5790   -5.6751   -8.0031 C   0  0  0  0  0  0  0  0  0  0  0  0
   15.9752   -6.5045   -9.2300 C   0  0  2  0  0  0  0  0  0  0  0  0
   15.7194   -7.8718   -8.9048 N   0  0  0  0  0  0  0  0  0  0  0  0
   17.3966   -6.2429   -9.5559 C   0  0  0  0  0  0  0  0  0  0  0  0
   18.3594   -6.6062   -8.8255 O   0  0  0  0  0  0  0  0  0  0  0  0
   21.6850   -5.3517  -12.3743 N   0  0  0  0  0  0  0  0  0  0  0  0
   20.9895   -6.5879  -12.2990 C   0  0  0  0  0  0  0  0  0  0  0  0
   21.5427   -7.6088  -12.8164 O   0  0  0  0  0  0  0  0  0  0  0  0
   19.6677   -6.7166  -11.6505 C   0  0  0  0  0  0  0  0  0  0  0  0
   19.1340   -5.3684  -11.1798 C   0  0  2  0  0  0  0  0  0  0  0  0
   17.7364   -5.5541  -10.7451 N   0  0  0  0  0  0  0  0  0  0  0  0
   19.1891   -4.4447  -12.3204 C   0  0  0  0  0  0  0  0  0  0  0  0
   20.3590   -3.7049  -12.4686 O   0  0  0  0  0  0  0  0  0  0  0  0
   18.2510   -4.2982  -13.1438 O   0  0  0  0  0  0  0  0  0  0  0  0
  2  5  1  0
  2  1  1  6
  3  2  1  0
  3  4  1  0
  5  6  2  0
  8  7  1  1
  9  8  1  0
  9  5  1  0
 10 11  2  0
 10  8  1  0
 13 15  1  0
 13 12  1  0
 14 13  2  0
 16 15  1  6
 16 18  1  0
 16 17  1  0
 17 10  1  0
 18 19  1  0
 20 18  2  0
M  END
$$$$
