CAN.pdb
     RDKit          3D

 20 19  0  0  1  0  0  0  0  0999 V2000
   22.6966  -13.1738  -16.7055 N   0  0  0  0  0  0  0  0  0  0  0  0
   23.7261  -12.1849  -16.9567 C   0  0  1  0  0  0  0  0  0  0  0  0
   24.9795  -12.9269  -17.3789 C   0  0  0  0  0  0  0  0  0  0  0  0
   25.5787  -13.8367  -15.9057 S   0  0  0  0  0  0  0  0  0  0  0  0
   23.2226  -11.2878  -18.0422 C   0  0  0  0  0  0  0  0  0  0  0  0
   23.9649  -10.3365  -18.4618 O   0  0  0  0  0  0  0  0  0  0  0  0
   20.4921  -11.2147  -20.5045 C   0  0  0  0  0  0  0  0  0  0  0  0
   21.5069  -10.5018  -19.6034 C   0  0  2  0  0  0  0  0  0  0  0  0
   21.9372  -11.4553  -18.6305 N   0  0  0  0  0  0  0  0  0  0  0  0
   20.8687   -9.3079  -19.0013 C   0  0  0  0  0  0  0  0  0  0  0  0
   20.4222   -8.3393  -19.6756 O   0  0  0  0  0  0  0  0  0  0  0  0
   18.8646   -6.0121  -15.4473 N   0  0  0  0  0  0  0  0  0  0  0  0
   18.4618   -7.3587  -15.2423 C   0  0  0  0  0  0  0  0  0  0  0  0
   17.5414   -7.5767  -14.3931 O   0  0  0  0  0  0  0  0  0  0  0  0
   19.0718   -8.4895  -15.9728 C   0  0  0  0  0  0  0  0  0  0  0  0
   20.1553   -8.0219  -16.9380 C   0  0  2  0  0  0  0  0  0  0  0  0
   20.7289   -9.2113  -17.5959 N   0  0  0  0  0  0  0  0  0  0  0  0
   21.1869   -7.3342  -16.1503 C   0  0  0  0  0  0  0  0  0  0  0  0
   22.3339   -8.0641  -15.8512 O   0  0  0  0  0  0  0  0  0  0  0  0
   21.0797   -6.1490  -15.7463 O   0  0  0  0  0  0  0  0  0  0  0  0
  2  5  1  0
  2  1  1  6
  3  2  1  0
  3  4  1  0
  5  6  2  0
  8  7  1  6
  9  8  1  0
  9  5  1  0
 10 11  2  0
 10  8  1  0
 13 15  1  0
 13 12  1  0
 14 13  2  0
 16 15  1  1
 16 18  1  0
 16 17  1  0
 17 10  1  0
 18 19  1  0
 20 18  2  0
M  END
$$$$
