CAN.pdb
     RDKit          3D

 20 19  0  0  1  0  0  0  0  0999 V2000
   28.4464  -21.1077  -16.0687 N   0  0  0  0  0  0  0  0  0  0  0  0
   28.1121  -20.1773  -15.0087 C   0  0  1  0  0  0  0  0  0  0  0  0
   27.7192  -18.8650  -15.6594 C   0  0  0  0  0  0  0  0  0  0  0  0
   27.3091  -17.7027  -14.3036 S   0  0  0  0  0  0  0  0  0  0  0  0
   26.9778  -20.7737  -14.2379 C   0  0  0  0  0  0  0  0  0  0  0  0
   26.0495  -21.3873  -14.8655 O   0  0  0  0  0  0  0  0  0  0  0  0
   26.0493  -21.2995  -10.6827 C   0  0  0  0  0  0  0  0  0  0  0  0
   25.7225  -21.1905  -12.1765 C   0  0  2  0  0  0  0  0  0  0  0  0
   26.8928  -20.6832  -12.8197 N   0  0  0  0  0  0  0  0  0  0  0  0
   24.5395  -20.3162  -12.3533 C   0  0  0  0  0  0  0  0  0  0  0  0
   24.6110  -19.0651  -12.5014 O   0  0  0  0  0  0  0  0  0  0  0  0
   20.1154  -19.2891  -14.8259 N   0  0  0  0  0  0  0  0  0  0  0  0
   21.3451  -19.7145  -15.3954 C   0  0  0  0  0  0  0  0  0  0  0  0
   21.4862  -19.5936  -16.6530 O   0  0  0  0  0  0  0  0  0  0  0  0
   22.4412  -20.2831  -14.5833 C   0  0  0  0  0  0  0  0  0  0  0  0
   22.1172  -20.2528  -13.0939 C   0  0  2  0  0  0  0  0  0  0  0  0
   23.2394  -20.8762  -12.3669 N   0  0  0  0  0  0  0  0  0  0  0  0
   20.8887  -21.0315  -12.8894 C   0  0  0  0  0  0  0  0  0  0  0  0
   20.9463  -22.3845  -13.2118 O   0  0  0  0  0  0  0  0  0  0  0  0
   19.8187  -20.5411  -12.4490 O   0  0  0  0  0  0  0  0  0  0  0  0
  2  5  1  0
  2  1  1  6
  3  2  1  0
  3  4  1  0
  5  6  2  0
  8  7  1  1
  9  8  1  0
  9  5  1  0
 10 11  2  0
 10  8  1  0
 13 15  1  0
 13 12  1  0
 14 13  2  0
 16 15  1  6
 16 18  1  0
 16 17  1  0
 17 10  1  0
 18 19  1  0
 20 18  2  0
M  END
$$$$
