CAN.pdb
     RDKit          3D

 20 19  0  0  1  0  0  0  0  0999 V2000
   19.9186  -12.4094  -17.7444 N   0  0  0  0  0  0  0  0  0  0  0  0
   19.1037  -11.8787  -16.6696 C   0  0  1  0  0  0  0  0  0  0  0  0
   18.4740  -13.0555  -15.9495 C   0  0  0  0  0  0  0  0  0  0  0  0
   17.0384  -13.5868  -16.9563 S   0  0  0  0  0  0  0  0  0  0  0  0
   20.0100  -11.1005  -15.7699 C   0  0  0  0  0  0  0  0  0  0  0  0
   19.5195  -10.5045  -14.7519 O   0  0  0  0  0  0  0  0  0  0  0  0
   23.6462  -10.4086  -15.4496 C   0  0  0  0  0  0  0  0  0  0  0  0
   22.1671  -10.0827  -15.2130 C   0  0  2  0  0  0  0  0  0  0  0  0
   21.4100  -10.9981  -16.0066 N   0  0  0  0  0  0  0  0  0  0  0  0
   21.9182   -8.6659  -15.5676 C   0  0  0  0  0  0  0  0  0  0  0  0
   21.6141   -8.2793  -16.7297 O   0  0  0  0  0  0  0  0  0  0  0  0
   20.8499   -3.6170  -15.3716 N   0  0  0  0  0  0  0  0  0  0  0  0
   19.8847   -4.6584  -15.3334 C   0  0  0  0  0  0  0  0  0  0  0  0
   18.6667   -4.3411  -15.5116 O   0  0  0  0  0  0  0  0  0  0  0  0
   20.2500   -6.0706  -15.0957 C   0  0  0  0  0  0  0  0  0  0  0  0
   21.7477   -6.2373  -14.8653 C   0  0  2  0  0  0  0  0  0  0  0  0
   22.0125   -7.6596  -14.5763 N   0  0  0  0  0  0  0  0  0  0  0  0
   22.1152   -5.4104  -13.7083 C   0  0  0  0  0  0  0  0  0  0  0  0
   22.1059   -6.0367  -12.4652 O   0  0  0  0  0  0  0  0  0  0  0  0
   22.4278   -4.1960  -13.7917 O   0  0  0  0  0  0  0  0  0  0  0  0
  2  5  1  0
  2  1  1  6
  3  2  1  0
  3  4  1  0
  5  6  2  0
  8  7  1  6
  9  8  1  0
  9  5  1  0
 10 11  2  0
 10  8  1  0
 13 15  1  0
 13 12  1  0
 14 13  2  0
 16 15  1  1
 16 18  1  0
 16 17  1  0
 17 10  1  0
 18 19  1  0
 20 18  2  0
M  END
$$$$
