CAN.pdb
     RDKit          3D

 20 19  0  0  1  0  0  0  0  0999 V2000
   15.5238   -9.2966   -9.3614 N   0  0  0  0  0  0  0  0  0  0  0  0
   15.1779   -9.2952  -10.7691 C   0  0  1  0  0  0  0  0  0  0  0  0
   14.1164   -8.2324  -10.9778 C   0  0  0  0  0  0  0  0  0  0  0  0
   12.5956   -8.8322  -10.1504 S   0  0  0  0  0  0  0  0  0  0  0  0
   16.4270   -8.9863  -11.5313 C   0  0  0  0  0  0  0  0  0  0  0  0
   17.2564   -8.1389  -11.0557 O   0  0  0  0  0  0  0  0  0  0  0  0
   18.1970  -10.2926  -14.5183 C   0  0  0  0  0  0  0  0  0  0  0  0
   17.9311   -9.2263  -13.4494 C   0  0  2  0  0  0  0  0  0  0  0  0
   16.7293   -9.6061  -12.7768 N   0  0  0  0  0  0  0  0  0  0  0  0
   17.8358   -7.8985  -14.0997 C   0  0  0  0  0  0  0  0  0  0  0  0
   18.8128   -7.3165  -14.6466 O   0  0  0  0  0  0  0  0  0  0  0  0
   14.1211   -4.1542  -17.0410 N   0  0  0  0  0  0  0  0  0  0  0  0
   14.7211   -4.4127  -15.7798 C   0  0  0  0  0  0  0  0  0  0  0  0
   14.9969   -3.4150  -15.0418 O   0  0  0  0  0  0  0  0  0  0  0  0
   15.0284   -5.7807  -15.3126 C   0  0  0  0  0  0  0  0  0  0  0  0
   16.4456   -5.8858  -14.7606 C   0  0  2  0  0  0  0  0  0  0  0  0
   16.5976   -7.2132  -14.1348 N   0  0  0  0  0  0  0  0  0  0  0  0
   16.6103   -4.8307  -13.7522 C   0  0  0  0  0  0  0  0  0  0  0  0
   16.3806   -5.1918  -12.4276 O   0  0  0  0  0  0  0  0  0  0  0  0
   16.9397   -3.6496  -14.0277 O   0  0  0  0  0  0  0  0  0  0  0  0
  2  5  1  0
  2  1  1  1
  3  2  1  0
  3  4  1  0
  5  6  2  0
  8  7  1  6
  9  8  1  0
  9  5  1  0
 10 11  2  0
 10  8  1  0
 13 15  1  0
 13 12  1  0
 14 13  2  0
 16 15  1  1
 16 18  1  0
 16 17  1  0
 17 10  1  0
 18 19  1  0
 20 18  2  0
M  END
$$$$
