CAN.pdb
     RDKit          3D

 20 19  0  0  1  0  0  0  0  0999 V2000
   25.5938  -20.1760   -9.1617 N   0  0  0  0  0  0  0  0  0  0  0  0
   24.8952  -20.7147  -10.3119 C   0  0  1  0  0  0  0  0  0  0  0  0
   23.4580  -20.2362  -10.2392 C   0  0  0  0  0  0  0  0  0  0  0  0
   22.6869  -21.0882   -8.8121 S   0  0  0  0  0  0  0  0  0  0  0  0
   25.5887  -20.1988  -11.5324 C   0  0  0  0  0  0  0  0  0  0  0  0
   25.5768  -18.9447  -11.7753 O   0  0  0  0  0  0  0  0  0  0  0  0
   28.3477  -20.8784  -13.5801 C   0  0  0  0  0  0  0  0  0  0  0  0
   26.8669  -20.4827  -13.6023 C   0  0  2  0  0  0  0  0  0  0  0  0
   26.2674  -21.0594  -12.4409 N   0  0  0  0  0  0  0  0  0  0  0  0
   26.2553  -20.9569  -14.8657 C   0  0  0  0  0  0  0  0  0  0  0  0
   25.4764  -21.9471  -14.9365 O   0  0  0  0  0  0  0  0  0  0  0  0
   22.7652  -20.3852  -17.5170 N   0  0  0  0  0  0  0  0  0  0  0  0
   23.0506  -19.5317  -16.4182 C   0  0  0  0  0  0  0  0  0  0  0  0
   22.0750  -19.1509  -15.6976 O   0  0  0  0  0  0  0  0  0  0  0  0
   24.4216  -19.0825  -16.0973 C   0  0  0  0  0  0  0  0  0  0  0  0
   25.4636  -19.7793  -16.9649 C   0  0  2  0  0  0  0  0  0  0  0  0
   26.5310  -20.2873  -16.0822 N   0  0  0  0  0  0  0  0  0  0  0  0
   26.0095  -18.7811  -17.8938 C   0  0  0  0  0  0  0  0  0  0  0  0
   25.8929  -17.4466  -17.5153 O   0  0  0  0  0  0  0  0  0  0  0  0
   26.5607  -19.0732  -18.9848 O   0  0  0  0  0  0  0  0  0  0  0  0
  2  5  1  0
  2  1  1  1
  3  2  1  0
  3  4  1  0
  5  6  2  0
  8  7  1  6
  9  8  1  0
  9  5  1  0
 10 11  2  0
 10  8  1  0
 13 15  1  0
 13 12  1  0
 14 13  2  0
 16 15  1  1
 16 18  1  0
 16 17  1  0
 17 10  1  0
 18 19  1  0
 20 18  2  0
M  END
$$$$
