CAN.pdb
     RDKit          3D

 20 19  0  0  1  0  0  0  0  0999 V2000
   13.3163  -10.4637  -10.2573 N   0  0  0  0  0  0  0  0  0  0  0  0
   12.8262   -9.3867   -9.4201 C   0  0  1  0  0  0  0  0  0  0  0  0
   12.3181  -10.0043   -8.1316 C   0  0  0  0  0  0  0  0  0  0  0  0
   10.9843  -11.1726   -8.5933 S   0  0  0  0  0  0  0  0  0  0  0  0
   13.9739   -8.4600   -9.1742 C   0  0  0  0  0  0  0  0  0  0  0  0
   13.7949   -7.4204   -8.4535 O   0  0  0  0  0  0  0  0  0  0  0  0
   17.5112   -8.1646  -10.3081 C   0  0  0  0  0  0  0  0  0  0  0  0
   16.2652   -7.6833   -9.5559 C   0  0  2  0  0  0  0  0  0  0  0  0
   15.2689   -8.6945   -9.7168 N   0  0  0  0  0  0  0  0  0  0  0  0
   15.8482   -6.3683  -10.0963 C   0  0  0  0  0  0  0  0  0  0  0  0
   15.1913   -6.2282  -11.1646 O   0  0  0  0  0  0  0  0  0  0  0  0
   14.5436   -1.2817  -10.0532 N   0  0  0  0  0  0  0  0  0  0  0  0
   14.0711   -2.1015   -8.9938 C   0  0  0  0  0  0  0  0  0  0  0  0
   13.1789   -1.6193   -8.2274 O   0  0  0  0  0  0  0  0  0  0  0  0
   14.5787   -3.4701   -8.7625 C   0  0  0  0  0  0  0  0  0  0  0  0
   15.6374   -3.8623   -9.7869 C   0  0  2  0  0  0  0  0  0  0  0  0
   16.1813   -5.1792   -9.4041 N   0  0  0  0  0  0  0  0  0  0  0  0
   16.6974   -2.8465   -9.7432 C   0  0  0  0  0  0  0  0  0  0  0  0
   17.9129   -3.2361   -9.1879 O   0  0  0  0  0  0  0  0  0  0  0  0
   16.5563   -1.6741  -10.1732 O   0  0  0  0  0  0  0  0  0  0  0  0
  2  5  1  0
  2  1  1  6
  3  2  1  0
  3  4  1  0
  5  6  2  0
  8  7  1  6
  9  8  1  0
  9  5  1  0
 10 11  2  0
 10  8  1  0
 13 15  1  0
 13 12  1  0
 14 13  2  0
 16 15  1  1
 16 18  1  0
 16 17  1  0
 17 10  1  0
 18 19  1  0
 20 18  2  0
M  END
$$$$
