CAN.pdb
     RDKit          3D

 20 19  0  0  1  0  0  0  0  0999 V2000
   11.1980  -10.0035   -9.1435 N   0  0  0  0  0  0  0  0  0  0  0  0
   12.6185  -10.2803   -9.2253 C   0  0  1  0  0  0  0  0  0  0  0  0
   12.8164  -11.3444  -10.2875 C   0  0  0  0  0  0  0  0  0  0  0  0
   12.3392  -12.9437   -9.5314 S   0  0  0  0  0  0  0  0  0  0  0  0
   13.2985   -8.9997   -9.5920 C   0  0  0  0  0  0  0  0  0  0  0  0
   12.7744   -8.2455  -10.4800 O   0  0  0  0  0  0  0  0  0  0  0  0
   16.0186   -6.8972   -8.2407 C   0  0  0  0  0  0  0  0  0  0  0  0
   15.0751   -7.3286   -9.3693 C   0  0  2  0  0  0  0  0  0  0  0  0
   14.5173   -8.5860   -8.9838 N   0  0  0  0  0  0  0  0  0  0  0  0
   15.8349   -7.3971  -10.6393 C   0  0  0  0  0  0  0  0  0  0  0  0
   16.4882   -8.4114  -11.0090 O   0  0  0  0  0  0  0  0  0  0  0  0
   15.9105   -6.9156  -16.2355 N   0  0  0  0  0  0  0  0  0  0  0  0
   16.2234   -5.9520  -15.2400 C   0  0  0  0  0  0  0  0  0  0  0  0
   17.0902   -5.0674  -15.5265 O   0  0  0  0  0  0  0  0  0  0  0  0
   15.5833   -5.9507  -13.9078 C   0  0  0  0  0  0  0  0  0  0  0  0
   16.5727   -6.3053  -12.8036 C   0  0  2  0  0  0  0  0  0  0  0  0
   15.8512   -6.2863  -11.5168 N   0  0  0  0  0  0  0  0  0  0  0  0
   17.6277   -5.2834  -12.8057 C   0  0  0  0  0  0  0  0  0  0  0  0
   18.8004   -5.5982  -13.4865 O   0  0  0  0  0  0  0  0  0  0  0  0
   17.5190   -4.1693  -12.2343 O   0  0  0  0  0  0  0  0  0  0  0  0
  2  5  1  0
  2  1  1  6
  3  2  1  0
  3  4  1  0
  5  6  2  0
  8  7  1  1
  9  8  1  0
  9  5  1  0
 10 11  2  0
 10  8  1  0
 13 15  1  0
 13 12  1  0
 14 13  2  0
 16 15  1  6
 16 18  1  0
 16 17  1  0
 17 10  1  0
 18 19  1  0
 20 18  2  0
M  END
$$$$
