PPI.pdb
     RDKit          3D

 23 24  0  0  1  0  0  0  0  0999 V2000
   22.9488  -21.7550  -12.5374 N   0  0  0  0  0  0  0  0  0  0  0  0
   22.3738  -21.0380  -13.7098 C   0  0  0  0  0  0  0  0  0  0  0  0
   22.5607  -19.6006  -13.2012 C   0  0  0  0  0  0  0  0  0  0  0  0
   23.9228  -19.7106  -12.4962 C   0  0  0  0  0  0  0  0  0  0  0  0
   24.2740  -21.1829  -12.5815 C   0  0  1  0  0  0  0  0  0  0  0  0
   25.2051  -21.5887  -11.5480 C   0  0  0  0  0  0  0  0  0  0  0  0
   24.7362  -22.5260  -10.7869 O   0  0  0  0  0  0  0  0  0  0  0  0
   26.5036  -21.1153  -11.2724 N   0  0  0  0  0  0  0  0  0  0  0  0
   27.3240  -20.1247  -11.9148 C   0  0  0  0  0  0  0  0  0  0  0  0
   28.5916  -20.9374  -12.1426 C   0  0  0  0  0  0  0  0  0  0  0  0
   28.6930  -21.6491  -10.7838 C   0  0  0  0  0  0  0  0  0  0  0  0
   27.3181  -21.5802  -10.1687 C   0  0  1  0  0  0  0  0  0  0  0  0
   27.3664  -20.6467   -9.0259 C   0  0  0  0  0  0  0  0  0  0  0  0
   26.8406  -19.5133   -9.2368 O   0  0  0  0  0  0  0  0  0  0  0  0
   28.0446  -22.1239   -3.5115 C   0  0  0  0  0  0  0  0  0  0  0  0
   27.4403  -21.4605   -4.7183 C   0  0  0  0  0  0  0  0  0  0  0  0
   28.3187  -20.4783   -5.3928 C   0  0  2  0  0  0  0  0  0  0  0  0
   28.6720  -19.3028   -4.4691 C   0  0  0  0  0  0  0  0  0  0  0  0
   27.8315  -19.9388   -6.7050 C   0  0  2  0  0  0  0  0  0  0  0  0
   27.9256  -20.9004   -7.7748 N   0  0  0  0  0  0  0  0  0  0  0  0
   28.3721  -18.6114   -7.0253 C   0  0  0  0  0  0  0  0  0  0  0  0
   27.6147  -17.4821   -6.7118 O   0  0  0  0  0  0  0  0  0  0  0  0
   29.4893  -18.4500   -7.5720 O   0  0  0  0  0  0  0  0  0  0  0  0
  1  5  1  0
  1  2  1  0
  2  3  1  0
  4  3  1  0
  5  4  1  0
  6  8  1  0
  5  6  1  1
  7  6  2  0
  8 12  1  0
  9 10  1  0
  9  8  1  0
 10 11  1  0
 11 12  1  0
 12 13  1  1
 13 14  2  0
 16 15  1  0
 17 16  1  0
 17 18  1  1
 19 17  1  0
 19 20  1  6
 20 13  1  0
 21 19  1  0
 22 21  1  0
 23 21  2  0
M  END
$$$$
