PPI.pdb
     RDKit          3D

 23 24  0  0  1  0  0  0  0  0999 V2000
   18.0956  -16.0191  -16.6810 N   0  0  0  0  0  0  0  0  0  0  0  0
   17.9510  -16.9889  -17.8024 C   0  0  0  0  0  0  0  0  0  0  0  0
   16.9443  -16.1961  -18.6496 C   0  0  0  0  0  0  0  0  0  0  0  0
   17.4571  -14.7599  -18.4521 C   0  0  0  0  0  0  0  0  0  0  0  0
   18.5839  -14.8966  -17.4470 C   0  0  1  0  0  0  0  0  0  0  0  0
   18.8347  -13.6635  -16.7285 C   0  0  0  0  0  0  0  0  0  0  0  0
   18.4024  -13.6945  -15.5079 O   0  0  0  0  0  0  0  0  0  0  0  0
   19.4625  -12.4802  -17.1666 N   0  0  0  0  0  0  0  0  0  0  0  0
   19.9735  -12.0792  -18.4491 C   0  0  0  0  0  0  0  0  0  0  0  0
   21.3867  -11.6703  -18.0555 C   0  0  0  0  0  0  0  0  0  0  0  0
   21.0829  -10.8891  -16.7669 C   0  0  0  0  0  0  0  0  0  0  0  0
   19.7144  -11.3345  -16.3171 C   0  0  1  0  0  0  0  0  0  0  0  0
   18.7710  -10.2177  -16.5233 C   0  0  0  0  0  0  0  0  0  0  0  0
   18.3221  -10.1059  -17.7030 O   0  0  0  0  0  0  0  0  0  0  0  0
   14.0141   -9.8107  -14.6074 C   0  0  0  0  0  0  0  0  0  0  0  0
   15.1860   -9.5592  -15.5157 C   0  0  0  0  0  0  0  0  0  0  0  0
   16.0930   -8.4756  -15.0744 C   0  0  2  0  0  0  0  0  0  0  0  0
   15.3666   -7.1245  -14.9910 C   0  0  0  0  0  0  0  0  0  0  0  0
   17.3575   -8.3021  -15.8626 C   0  0  2  0  0  0  0  0  0  0  0  0
   18.3478   -9.3048  -15.5591 N   0  0  0  0  0  0  0  0  0  0  0  0
   17.8613   -6.9227  -15.8583 C   0  0  0  0  0  0  0  0  0  0  0  0
   17.3051   -5.9998  -16.7451 O   0  0  0  0  0  0  0  0  0  0  0  0
   18.7747   -6.5385  -15.0895 O   0  0  0  0  0  0  0  0  0  0  0  0
  1  5  1  0
  1  2  1  0
  2  3  1  0
  4  3  1  0
  5  4  1  0
  6  8  1  0
  5  6  1  1
  7  6  2  0
  8 12  1  0
  9 10  1  0
  9  8  1  0
 10 11  1  0
 11 12  1  0
 12 13  1  6
 13 14  2  0
 16 15  1  0
 17 16  1  0
 17 18  1  6
 19 17  1  0
 19 20  1  1
 20 13  1  0
 21 19  1  0
 22 21  1  0
 23 21  2  0
M  END
$$$$
