PPI.pdb
     RDKit          3D

 23 24  0  0  1  0  0  0  0  0999 V2000
   24.1186  -22.2507  -13.1116 N   0  0  0  0  0  0  0  0  0  0  0  0
   23.2901  -21.3963  -14.0075 C   0  0  0  0  0  0  0  0  0  0  0  0
   23.0495  -20.2299  -13.0374 C   0  0  0  0  0  0  0  0  0  0  0  0
   24.4135  -20.1446  -12.3326 C   0  0  0  0  0  0  0  0  0  0  0  0
   25.1978  -21.3184  -12.8853 C   0  0  1  0  0  0  0  0  0  0  0  0
   26.2610  -21.7395  -11.9954 C   0  0  0  0  0  0  0  0  0  0  0  0
   26.0602  -22.9157  -11.4913 O   0  0  0  0  0  0  0  0  0  0  0  0
   27.4392  -21.0633  -11.6201 N   0  0  0  0  0  0  0  0  0  0  0  0
   28.0865  -19.8922  -12.1460 C   0  0  0  0  0  0  0  0  0  0  0  0
   29.4895  -20.4416  -12.3674 C   0  0  0  0  0  0  0  0  0  0  0  0
   29.6699  -21.2307  -11.0605 C   0  0  0  0  0  0  0  0  0  0  0  0
   28.2840  -21.4611  -10.5131 C   0  0  1  0  0  0  0  0  0  0  0  0
   28.1176  -20.6297   -9.3044 C   0  0  0  0  0  0  0  0  0  0  0  0
   27.1615  -19.7996   -9.3522 O   0  0  0  0  0  0  0  0  0  0  0  0
   29.8111  -20.8898   -3.2776 C   0  0  0  0  0  0  0  0  0  0  0  0
   28.7761  -20.7319   -4.3572 C   0  0  0  0  0  0  0  0  0  0  0  0
   29.3117  -20.7379   -5.7372 C   0  0  2  0  0  0  0  0  0  0  0  0
   30.4282  -19.6985   -5.9185 C   0  0  0  0  0  0  0  0  0  0  0  0
   28.3098  -20.5758   -6.8419 C   0  0  2  0  0  0  0  0  0  0  0  0
   28.9007  -20.6800   -8.1526 N   0  0  0  0  0  0  0  0  0  0  0  0
   27.4244  -19.4184   -6.6594 C   0  0  0  0  0  0  0  0  0  0  0  0
   27.8390  -18.1723   -7.1315 O   0  0  0  0  0  0  0  0  0  0  0  0
   26.3082  -19.5031   -6.0937 O   0  0  0  0  0  0  0  0  0  0  0  0
  1  5  1  0
  1  2  1  0
  2  3  1  0
  4  3  1  0
  5  4  1  0
  6  8  1  0
  5  6  1  1
  7  6  2  0
  8 12  1  0
  9 10  1  0
  9  8  1  0
 10 11  1  0
 11 12  1  0
 12 13  1  1
 13 14  2  0
 16 15  1  0
 17 16  1  0
 17 18  1  1
 19 17  1  0
 19 20  1  6
 20 13  1  0
 21 19  1  0
 22 21  1  0
 23 21  2  0
M  END
$$$$
