PPI.pdb
     RDKit          3D

 23 24  0  0  1  0  0  0  0  0999 V2000
   25.5603  -18.0041  -16.0644 N   0  0  0  0  0  0  0  0  0  0  0  0
   25.8197  -16.5812  -16.4207 C   0  0  0  0  0  0  0  0  0  0  0  0
   25.6483  -15.9701  -15.0218 C   0  0  0  0  0  0  0  0  0  0  0  0
   26.2942  -17.0546  -14.1436 C   0  0  0  0  0  0  0  0  0  0  0  0
   26.6319  -18.1718  -15.1112 C   0  0  1  0  0  0  0  0  0  0  0  0
   26.7374  -19.4584  -14.4530 C   0  0  0  0  0  0  0  0  0  0  0  0
   25.8856  -20.3252  -14.9012 O   0  0  0  0  0  0  0  0  0  0  0  0
   27.6110  -19.8744  -13.4283 N   0  0  0  0  0  0  0  0  0  0  0  0
   28.5979  -19.1674  -12.6582 C   0  0  0  0  0  0  0  0  0  0  0  0
   29.8051  -20.0681  -12.8834 C   0  0  0  0  0  0  0  0  0  0  0  0
   29.1406  -21.4434  -12.7100 C   0  0  0  0  0  0  0  0  0  0  0  0
   27.6616  -21.2240  -12.9052 C   0  0  1  0  0  0  0  0  0  0  0  0
   26.9916  -21.3852  -11.5995 C   0  0  0  0  0  0  0  0  0  0  0  0
   27.0857  -22.5405  -11.0876 O   0  0  0  0  0  0  0  0  0  0  0  0
   27.4475  -19.6874   -6.9938 C   0  0  0  0  0  0  0  0  0  0  0  0
   26.9754  -20.5807   -8.1078 C   0  0  0  0  0  0  0  0  0  0  0  0
   25.5873  -20.3321   -8.5580 C   0  0  2  0  0  0  0  0  0  0  0  0
   24.5588  -20.9455   -7.5959 C   0  0  0  0  0  0  0  0  0  0  0  0
   25.2557  -20.7517   -9.9595 C   0  0  2  0  0  0  0  0  0  0  0  0
   26.2857  -20.4037  -10.9061 N   0  0  0  0  0  0  0  0  0  0  0  0
   23.8953  -20.3821  -10.3712 C   0  0  0  0  0  0  0  0  0  0  0  0
   22.8112  -20.9936   -9.7403 O   0  0  0  0  0  0  0  0  0  0  0  0
   23.6665  -19.5381  -11.2703 O   0  0  0  0  0  0  0  0  0  0  0  0
  1  5  1  0
  1  2  1  0
  2  3  1  0
  4  3  1  0
  5  4  1  0
  6  8  1  0
  5  6  1  1
  7  6  2  0
  8 12  1  0
  9 10  1  0
  9  8  1  0
 10 11  1  0
 11 12  1  0
 12 13  1  1
 13 14  2  0
 16 15  1  0
 17 16  1  0
 17 18  1  1
 19 17  1  0
 19 20  1  6
 20 13  1  0
 21 19  1  0
 22 21  1  0
 23 21  2  0
M  END
$$$$
