MTW.pdb
     RDKit          3D

 30 31  0  0  1  0  0  0  0  0999 V2000
   25.3637  -18.0146  -24.8134 C   0  0  0  0  0  0  0  0  0  0  0  0
   25.2811  -19.3860  -23.6384 S   0  0  0  0  0  0  0  0  0  0  0  0
   25.5359  -18.8622  -21.9411 C   0  0  0  0  0  0  0  0  0  0  0  0
   24.3528  -18.0740  -21.3907 C   0  0  0  0  0  0  0  0  0  0  0  0
   23.2310  -19.0322  -21.1872 C   0  0  2  0  0  0  0  0  0  0  0  0
   22.3710  -18.9507  -22.3761 N   0  0  0  0  0  0  0  0  0  0  0  0
   22.4246  -18.7825  -19.9850 C   0  0  0  0  0  0  0  0  0  0  0  0
   21.4538  -17.9792  -20.0518 O   0  0  0  0  0  0  0  0  0  0  0  0
   19.8155  -19.1050  -19.1515 C   0  0  0  0  0  0  0  0  0  0  0  0
   20.4018  -19.7738  -17.9282 C   0  0  1  0  0  0  0  0  0  0  0  0
   20.5562  -21.1440  -18.1130 O   0  0  0  0  0  0  0  0  0  0  0  0
   21.7660  -19.2020  -17.5852 C   0  0  2  0  0  0  0  0  0  0  0  0
   22.6558  -19.3887  -18.7199 N   0  0  0  0  0  0  0  0  0  0  0  0
   22.2754  -19.9027  -16.3777 C   0  0  0  0  0  0  0  0  0  0  0  0
   22.9971  -20.9233  -16.5043 O   0  0  0  0  0  0  0  0  0  0  0  0
   21.9857  -19.4742  -15.0594 N   0  0  0  0  0  0  0  0  0  0  0  0
   22.5326  -20.0608  -13.8629 C   0  0  1  0  0  0  0  0  0  0  0  0
   22.7219  -19.0832  -12.7534 C   0  0  0  0  0  0  0  0  0  0  0  0
   23.3389  -19.7722  -11.5964 C   0  0  0  0  0  0  0  0  0  0  0  0
   24.6782  -20.0895  -11.3894 C   0  0  0  0  0  0  0  0  0  0  0  0
   24.8340  -20.7183  -10.2143 N   0  0  0  0  0  0  0  0  0  0  0  0
   23.6154  -20.8330   -9.6183 C   0  0  0  0  0  0  0  0  0  0  0  0
   23.1912  -21.3783   -8.4280 C   0  0  0  0  0  0  0  0  0  0  0  0
   21.8637  -21.3538   -8.0694 C   0  0  0  0  0  0  0  0  0  0  0  0
   20.9158  -20.7775   -8.9000 C   0  0  0  0  0  0  0  0  0  0  0  0
   21.3542  -20.2372  -10.0848 C   0  0  0  0  0  0  0  0  0  0  0  0
   22.6906  -20.2536  -10.4618 C   0  0  0  0  0  0  0  0  0  0  0  0
   21.6143  -21.1374  -13.4192 C   0  0  0  0  0  0  0  0  0  0  0  0
   20.3671  -21.0279  -13.3563 O   0  0  0  0  0  0  0  0  0  0  0  0
   22.1157  -22.3902  -13.0292 O   0  0  0  0  0  0  0  0  0  0  0  0
  1  2  1  0
  3  2  1  0
  4  3  1  0
  5  6  1  6
  5  4  1  0
  7  8  2  0
  7  5  1  0
 10  9  1  6
 10 12  1  0
 11 10  1  0
 12 13  1  6
 13  7  1  0
 14 12  1  0
 14 16  1  0
 15 14  2  0
 17 16  1  0
 17 28  1  0
 17 18  1  1
 19 18  1  0
 20 19  2  0
 21 20  1  0
 22 21  1  0
 22 27  2  0
 23 24  2  0
 23 22  1  0
 24 25  1  0
 25 26  2  0
 26 27  1  0
 27 19  1  0
 28 29  2  0
 28 30  1  0
M  END
$$$$
