MTW.pdb
     RDKit          3D

 30 31  0  0  1  0  0  0  0  0999 V2000
   31.6287  -22.2485  -20.2635 C   0  0  0  0  0  0  0  0  0  0  0  0
   30.4757  -21.1279  -19.4369 S   0  0  0  0  0  0  0  0  0  0  0  0
   30.5053  -21.2955  -17.6505 C   0  0  0  0  0  0  0  0  0  0  0  0
   29.5869  -20.2962  -16.9562 C   0  0  0  0  0  0  0  0  0  0  0  0
   28.5042  -21.0707  -16.2885 C   0  0  2  0  0  0  0  0  0  0  0  0
   27.6108  -21.5655  -17.3453 N   0  0  0  0  0  0  0  0  0  0  0  0
   27.7217  -20.3064  -15.3079 C   0  0  0  0  0  0  0  0  0  0  0  0
   27.5596  -19.0672  -15.4821 O   0  0  0  0  0  0  0  0  0  0  0  0
   25.3276  -18.9723  -15.3055 C   0  0  0  0  0  0  0  0  0  0  0  0
   24.9936  -19.7103  -14.0282 C   0  0  1  0  0  0  0  0  0  0  0  0
   24.2779  -20.8769  -14.2780 O   0  0  0  0  0  0  0  0  0  0  0  0
   26.2498  -20.0982  -13.2686 C   0  0  2  0  0  0  0  0  0  0  0  0
   27.1168  -20.8648  -14.1487 N   0  0  0  0  0  0  0  0  0  0  0  0
   25.8487  -20.8928  -12.0785 C   0  0  0  0  0  0  0  0  0  0  0  0
   25.7581  -22.1431  -12.1625 O   0  0  0  0  0  0  0  0  0  0  0  0
   25.5554  -20.3053  -10.8238 N   0  0  0  0  0  0  0  0  0  0  0  0
   25.1700  -21.0336   -9.6423 C   0  0  1  0  0  0  0  0  0  0  0  0
   25.5933  -20.3761   -8.3731 C   0  0  0  0  0  0  0  0  0  0  0  0
   27.0538  -20.5500   -8.1973 C   0  0  0  0  0  0  0  0  0  0  0  0
   27.9430  -21.2697   -8.9901 C   0  0  0  0  0  0  0  0  0  0  0  0
   29.1867  -21.1851   -8.4937 N   0  0  0  0  0  0  0  0  0  0  0  0
   29.1547  -20.4155   -7.3712 C   0  0  0  0  0  0  0  0  0  0  0  0
   30.1173  -20.0038   -6.4779 C   0  0  0  0  0  0  0  0  0  0  0  0
   29.7945  -19.2079   -5.4036 C   0  0  0  0  0  0  0  0  0  0  0  0
   28.4874  -18.7986   -5.1923 C   0  0  0  0  0  0  0  0  0  0  0  0
   27.5376  -19.2175   -6.0925 C   0  0  0  0  0  0  0  0  0  0  0  0
   27.8467  -20.0210   -7.1821 C   0  0  0  0  0  0  0  0  0  0  0  0
   23.6941  -21.1779   -9.6537 C   0  0  0  0  0  0  0  0  0  0  0  0
   22.9314  -20.6238  -10.4800 O   0  0  0  0  0  0  0  0  0  0  0  0
   23.0457  -21.9772   -8.6980 O   0  0  0  0  0  0  0  0  0  0  0  0
  1  2  1  0
  3  2  1  0
  4  3  1  0
  5  6  1  6
  5  4  1  0
  7  8  2  0
  7  5  1  0
 10  9  1  6
 10 12  1  0
 11 10  1  0
 12 13  1  6
 13  7  1  0
 14 12  1  0
 14 16  1  0
 15 14  2  0
 17 16  1  0
 17 28  1  0
 17 18  1  1
 19 18  1  0
 20 19  2  0
 21 20  1  0
 22 21  1  0
 22 27  2  0
 23 24  2  0
 23 22  1  0
 24 25  1  0
 25 26  2  0
 26 27  1  0
 27 19  1  0
 28 29  2  0
 28 30  1  0
M  END
$$$$
