MTW.pdb
     RDKit          3D

 30 31  0  0  1  0  0  0  0  0999 V2000
   31.9806  -16.6485  -18.4196 C   0  0  0  0  0  0  0  0  0  0  0  0
   30.2837  -16.9555  -18.9624 S   0  0  0  0  0  0  0  0  0  0  0  0
   29.0651  -16.1511  -17.9192 C   0  0  0  0  0  0  0  0  0  0  0  0
   27.6407  -16.3577  -18.4215 C   0  0  0  0  0  0  0  0  0  0  0  0
   27.5021  -17.7913  -18.8004 C   0  0  2  0  0  0  0  0  0  0  0  0
   28.0704  -17.9400  -20.1475 N   0  0  0  0  0  0  0  0  0  0  0  0
   26.1216  -18.2936  -18.7963 C   0  0  0  0  0  0  0  0  0  0  0  0
   25.3361  -17.9406  -19.7186 O   0  0  0  0  0  0  0  0  0  0  0  0
   24.7591  -21.2122  -19.7516 C   0  0  0  0  0  0  0  0  0  0  0  0
   24.2332  -21.1044  -18.3376 C   0  0  1  0  0  0  0  0  0  0  0  0
   25.0074  -21.8347  -17.4416 O   0  0  0  0  0  0  0  0  0  0  0  0
   24.2193  -19.6629  -17.8607 C   0  0  2  0  0  0  0  0  0  0  0  0
   25.5856  -19.1680  -17.8115 N   0  0  0  0  0  0  0  0  0  0  0  0
   23.5807  -19.6212  -16.5194 C   0  0  0  0  0  0  0  0  0  0  0  0
   24.2886  -19.4599  -15.4941 O   0  0  0  0  0  0  0  0  0  0  0  0
   22.1842  -19.7568  -16.3272 N   0  0  0  0  0  0  0  0  0  0  0  0
   21.5047  -19.5850  -15.0688 C   0  0  1  0  0  0  0  0  0  0  0  0
   21.1571  -18.1667  -14.7687 C   0  0  0  0  0  0  0  0  0  0  0  0
   20.3821  -17.6048  -15.8991 C   0  0  0  0  0  0  0  0  0  0  0  0
   19.0459  -17.8181  -16.2251 C   0  0  0  0  0  0  0  0  0  0  0  0
   18.7176  -17.1291  -17.3287 N   0  0  0  0  0  0  0  0  0  0  0  0
   19.8156  -16.4484  -17.7582 C   0  0  0  0  0  0  0  0  0  0  0  0
   20.0503  -15.6019  -18.8176 C   0  0  0  0  0  0  0  0  0  0  0  0
   21.2901  -15.0406  -19.0164 C   0  0  0  0  0  0  0  0  0  0  0  0
   22.3385  -15.3140  -18.1523 C   0  0  0  0  0  0  0  0  0  0  0  0
   22.0891  -16.1608  -17.0994 C   0  0  0  0  0  0  0  0  0  0  0  0
   20.8434  -16.7357  -16.8844 C   0  0  0  0  0  0  0  0  0  0  0  0
   20.2657  -20.3992  -15.1020 C   0  0  0  0  0  0  0  0  0  0  0  0
   19.7792  -20.9129  -16.1368 O   0  0  0  0  0  0  0  0  0  0  0  0
   19.5410  -20.6480  -13.9248 O   0  0  0  0  0  0  0  0  0  0  0  0
  1  2  1  0
  3  2  1  0
  4  3  1  0
  5  6  1  6
  5  4  1  0
  7  8  2  0
  7  5  1  0
 10  9  1  6
 10 12  1  0
 11 10  1  0
 12 13  1  1
 13  7  1  0
 14 12  1  0
 14 16  1  0
 15 14  2  0
 17 16  1  0
 17 28  1  0
 17 18  1  6
 19 18  1  0
 20 19  2  0
 21 20  1  0
 22 21  1  0
 22 27  2  0
 23 24  2  0
 23 22  1  0
 24 25  1  0
 25 26  2  0
 26 27  1  0
 27 19  1  0
 28 29  2  0
 28 30  1  0
M  END
$$$$
