MTW.pdb
     RDKit          3D

 30 31  0  0  1  0  0  0  0  0999 V2000
   30.5701  -16.6630  -17.2335 C   0  0  0  0  0  0  0  0  0  0  0  0
   29.8956  -17.7220  -15.9328 S   0  0  0  0  0  0  0  0  0  0  0  0
   28.7894  -18.9837  -16.5690 C   0  0  0  0  0  0  0  0  0  0  0  0
   28.3365  -19.9599  -15.4892 C   0  0  0  0  0  0  0  0  0  0  0  0
   26.9734  -19.5470  -15.0542 C   0  0  2  0  0  0  0  0  0  0  0  0
   27.1195  -18.2901  -14.3069 N   0  0  0  0  0  0  0  0  0  0  0  0
   26.2742  -20.5320  -14.2181 C   0  0  0  0  0  0  0  0  0  0  0  0
   26.8749  -21.5892  -13.8811 O   0  0  0  0  0  0  0  0  0  0  0  0
   26.6699  -21.6352  -11.9339 C   0  0  0  0  0  0  0  0  0  0  0  0
   25.2261  -21.3840  -11.5599 C   0  0  1  0  0  0  0  0  0  0  0  0
   25.0744  -20.1929  -10.8572 O   0  0  0  0  0  0  0  0  0  0  0  0
   24.3412  -21.3042  -12.7913 C   0  0  2  0  0  0  0  0  0  0  0  0
   24.9411  -20.3861  -13.7459 N   0  0  0  0  0  0  0  0  0  0  0  0
   22.9941  -20.8405  -12.3685 C   0  0  0  0  0  0  0  0  0  0  0  0
   22.8807  -19.8052  -11.6659 O   0  0  0  0  0  0  0  0  0  0  0  0
   21.8012  -21.5170  -12.7218 N   0  0  0  0  0  0  0  0  0  0  0  0
   20.4708  -21.0046  -12.5159 C   0  0  1  0  0  0  0  0  0  0  0  0
   20.1942  -19.7472  -13.2675 C   0  0  0  0  0  0  0  0  0  0  0  0
   20.3532  -20.0011  -14.7181 C   0  0  0  0  0  0  0  0  0  0  0  0
   19.6289  -20.8682  -15.5311 C   0  0  0  0  0  0  0  0  0  0  0  0
   20.0810  -20.8138  -16.7932 N   0  0  0  0  0  0  0  0  0  0  0  0
   21.1055  -19.9190  -16.8492 C   0  0  0  0  0  0  0  0  0  0  0  0
   21.9201  -19.4749  -17.8657 C   0  0  0  0  0  0  0  0  0  0  0  0
   22.9008  -18.5394  -17.6319 C   0  0  0  0  0  0  0  0  0  0  0  0
   23.0946  -18.0180  -16.3625 C   0  0  0  0  0  0  0  0  0  0  0  0
   22.2738  -18.4709  -15.3581 C   0  0  0  0  0  0  0  0  0  0  0  0
   21.2791  -19.4148  -15.5772 C   0  0  0  0  0  0  0  0  0  0  0  0
   19.5067  -22.0507  -12.9345 C   0  0  0  0  0  0  0  0  0  0  0  0
   19.8221  -23.1228  -13.5025 O   0  0  0  0  0  0  0  0  0  0  0  0
   18.1303  -21.8880  -12.7068 O   0  0  0  0  0  0  0  0  0  0  0  0
  1  2  1  0
  3  2  1  0
  4  3  1  0
  5  6  1  1
  5  4  1  0
  7  8  2  0
  7  5  1  0
 10  9  1  6
 10 12  1  0
 11 10  1  0
 12 13  1  6
 13  7  1  0
 14 12  1  0
 14 16  1  0
 15 14  2  0
 17 16  1  0
 17 28  1  0
 17 18  1  6
 19 18  1  0
 20 19  2  0
 21 20  1  0
 22 21  1  0
 22 27  2  0
 23 24  2  0
 23 22  1  0
 24 25  1  0
 25 26  2  0
 26 27  1  0
 27 19  1  0
 28 29  2  0
 28 30  1  0
M  END
$$$$
