MTW.pdb
     RDKit          3D

 30 31  0  0  1  0  0  0  0  0999 V2000
   24.0906  -25.7951  -15.6010 C   0  0  0  0  0  0  0  0  0  0  0  0
   24.1594  -25.5653  -17.3929 S   0  0  0  0  0  0  0  0  0  0  0  0
   24.8881  -23.9944  -17.8637 C   0  0  0  0  0  0  0  0  0  0  0  0
   26.1251  -23.6557  -17.0397 C   0  0  0  0  0  0  0  0  0  0  0  0
   26.1527  -22.1777  -16.8587 C   0  0  2  0  0  0  0  0  0  0  0  0
   26.7117  -21.6011  -18.0894 N   0  0  0  0  0  0  0  0  0  0  0  0
   26.9380  -21.7179  -15.7054 C   0  0  0  0  0  0  0  0  0  0  0  0
   28.0973  -21.2574  -15.8953 O   0  0  0  0  0  0  0  0  0  0  0  0
   28.0193  -19.3409  -14.8389 C   0  0  0  0  0  0  0  0  0  0  0  0
   27.3002  -19.6247  -13.5389 C   0  0  1  0  0  0  0  0  0  0  0  0
   26.0028  -19.1224  -13.5461 O   0  0  0  0  0  0  0  0  0  0  0  0
   27.2115  -21.1165  -13.2698 C   0  0  2  0  0  0  0  0  0  0  0  0
   26.4853  -21.7509  -14.3580 N   0  0  0  0  0  0  0  0  0  0  0  0
   26.5197  -21.3157  -11.9697 C   0  0  0  0  0  0  0  0  0  0  0  0
   25.2746  -21.4817  -11.9424 O   0  0  0  0  0  0  0  0  0  0  0  0
   27.2019  -21.3291  -10.7288 N   0  0  0  0  0  0  0  0  0  0  0  0
   26.5819  -21.5616   -9.4496 C   0  0  1  0  0  0  0  0  0  0  0  0
   27.5591  -21.7410   -8.3382 C   0  0  0  0  0  0  0  0  0  0  0  0
   27.5799  -20.5167   -7.5047 C   0  0  0  0  0  0  0  0  0  0  0  0
   26.9332  -19.3046   -7.7280 C   0  0  0  0  0  0  0  0  0  0  0  0
   27.2061  -18.4394   -6.7394 N   0  0  0  0  0  0  0  0  0  0  0  0
   28.0317  -19.0487   -5.8448 C   0  0  0  0  0  0  0  0  0  0  0  0
   28.6163  -18.6424   -4.6670 C   0  0  0  0  0  0  0  0  0  0  0  0
   29.4279  -19.4890   -3.9485 C   0  0  0  0  0  0  0  0  0  0  0  0
   29.6788  -20.7773   -4.3935 C   0  0  0  0  0  0  0  0  0  0  0  0
   29.0882  -21.1686   -5.5708 C   0  0  0  0  0  0  0  0  0  0  0  0
   28.2664  -20.3264   -6.3081 C   0  0  0  0  0  0  0  0  0  0  0  0
   25.7019  -20.4062   -9.1499 C   0  0  0  0  0  0  0  0  0  0  0  0
   25.8380  -19.2615   -9.6425 O   0  0  0  0  0  0  0  0  0  0  0  0
   24.6236  -20.5396   -8.2598 O   0  0  0  0  0  0  0  0  0  0  0  0
  1  2  1  0
  3  2  1  0
  4  3  1  0
  5  6  1  6
  5  4  1  0
  7  8  2  0
  7  5  1  0
 10  9  1  6
 10 12  1  0
 11 10  1  0
 12 13  1  6
 13  7  1  0
 14 12  1  0
 14 16  1  0
 15 14  2  0
 17 16  1  0
 17 28  1  0
 17 18  1  1
 19 18  1  0
 20 19  2  0
 21 20  1  0
 22 21  1  0
 22 27  2  0
 23 24  2  0
 23 22  1  0
 24 25  1  0
 25 26  2  0
 26 27  1  0
 27 19  1  0
 28 29  2  0
 28 30  1  0
M  END
$$$$
