MTW.pdb
     RDKit          3D

 30 31  0  0  1  0  0  0  0  0999 V2000
   28.3878  -14.1775  -15.6675 C   0  0  0  0  0  0  0  0  0  0  0  0
   29.1503  -13.9350  -17.2886 S   0  0  0  0  0  0  0  0  0  0  0  0
   28.9425  -15.3503  -18.3720 C   0  0  0  0  0  0  0  0  0  0  0  0
   27.4839  -15.7729  -18.5053 C   0  0  0  0  0  0  0  0  0  0  0  0
   27.4450  -16.9846  -19.3703 C   0  0  2  0  0  0  0  0  0  0  0  0
   27.2059  -16.5270  -20.7462 N   0  0  0  0  0  0  0  0  0  0  0  0
   26.4186  -17.9678  -18.9990 C   0  0  0  0  0  0  0  0  0  0  0  0
   25.3236  -17.9799  -19.6258 O   0  0  0  0  0  0  0  0  0  0  0  0
   24.6087  -19.7799  -19.9361 C   0  0  0  0  0  0  0  0  0  0  0  0
   25.1152  -20.6695  -18.8227 C   0  0  1  0  0  0  0  0  0  0  0  0
   26.2330  -21.3998  -19.2133 O   0  0  0  0  0  0  0  0  0  0  0  0
   25.5038  -19.8580  -17.5994 C   0  0  2  0  0  0  0  0  0  0  0  0
   26.5634  -18.9314  -17.9637 N   0  0  0  0  0  0  0  0  0  0  0  0
   25.9490  -20.7981  -16.5381 C   0  0  0  0  0  0  0  0  0  0  0  0
   27.1298  -20.7471  -16.1120 O   0  0  0  0  0  0  0  0  0  0  0  0
   25.0958  -21.7729  -15.9657 N   0  0  0  0  0  0  0  0  0  0  0  0
   25.4076  -22.5589  -14.7996 C   0  0  1  0  0  0  0  0  0  0  0  0
   25.5644  -21.7472  -13.5590 C   0  0  0  0  0  0  0  0  0  0  0  0
   24.2312  -21.2893  -13.1040 C   0  0  0  0  0  0  0  0  0  0  0  0
   23.3992  -21.8597  -12.1451 C   0  0  0  0  0  0  0  0  0  0  0  0
   22.2699  -21.1458  -12.0211 N   0  0  0  0  0  0  0  0  0  0  0  0
   22.3233  -20.0951  -12.8850 C   0  0  0  0  0  0  0  0  0  0  0  0
   21.4602  -19.0630  -13.1751 C   0  0  0  0  0  0  0  0  0  0  0  0
   21.7791  -18.1154  -14.1194 C   0  0  0  0  0  0  0  0  0  0  0  0
   22.9817  -18.1755  -14.8056 C   0  0  0  0  0  0  0  0  0  0  0  0
   23.8330  -19.2114  -14.5053 C   0  0  0  0  0  0  0  0  0  0  0  0
   23.5263  -20.1761  -13.5548 C   0  0  0  0  0  0  0  0  0  0  0  0
   24.3179  -23.5463  -14.6075 C   0  0  0  0  0  0  0  0  0  0  0  0
   23.2614  -23.5802  -15.2815 O   0  0  0  0  0  0  0  0  0  0  0  0
   24.4168  -24.5378  -13.6176 O   0  0  0  0  0  0  0  0  0  0  0  0
  1  2  1  0
  3  2  1  0
  4  3  1  0
  5  6  1  6
  5  4  1  0
  7  8  2  0
  7  5  1  0
 10  9  1  6
 10 12  1  0
 11 10  1  0
 12 13  1  6
 13  7  1  0
 14 12  1  0
 14 16  1  0
 15 14  2  0
 17 16  1  0
 17 28  1  0
 17 18  1  1
 19 18  1  0
 20 19  2  0
 21 20  1  0
 22 21  1  0
 22 27  2  0
 23 24  2  0
 23 22  1  0
 24 25  1  0
 25 26  2  0
 26 27  1  0
 27 19  1  0
 28 29  2  0
 28 30  1  0
M  END
$$$$
