VST.pdb
     RDKit          3D

 21 20  0  0  1  0  0  0  0  0999 V2000
    7.2540  -16.5323   12.6392 C   0  0  0  0  0  0  0  0  0  0  0  0
    8.0756  -16.5169   13.9095 C   0  0  2  0  0  0  0  0  0  0  0  0
    7.8049  -17.8209   14.6298 C   0  0  0  0  0  0  0  0  0  0  0  0
    7.6504  -15.3497   14.7741 C   0  0  2  0  0  0  0  0  0  0  0  0
    7.7703  -14.1059   14.0386 N   0  0  0  0  0  0  0  0  0  0  0  0
    8.4023  -15.3062   16.0534 C   0  0  0  0  0  0  0  0  0  0  0  0
    9.6428  -15.0975   16.0628 O   0  0  0  0  0  0  0  0  0  0  0  0
    6.5746  -16.1856   19.8745 O   0  0  0  0  0  0  0  0  0  0  0  0
    7.6378  -15.3258   19.7606 C   0  0  0  0  0  0  0  0  0  0  0  0
    8.5097  -15.6186   18.5610 C   0  0  2  0  0  0  0  0  0  0  0  0
    7.7810  -15.4933   17.3191 N   0  0  0  0  0  0  0  0  0  0  0  0
    9.0885  -16.9690   18.7399 C   0  0  0  0  0  0  0  0  0  0  0  0
    8.5003  -18.0165   18.3972 O   0  0  0  0  0  0  0  0  0  0  0  0
   12.3698  -18.2485   17.6224 C   0  0  0  0  0  0  0  0  0  0  0  0
   12.4241  -18.2603   19.1548 C   0  0  1  0  0  0  0  0  0  0  0  0
   12.9138  -17.0045   19.5438 O   0  0  0  0  0  0  0  0  0  0  0  0
   10.9921  -18.3280   19.6732 C   0  0  2  0  0  0  0  0  0  0  0  0
   10.3776  -17.0581   19.3323 N   0  0  0  0  0  0  0  0  0  0  0  0
   11.0552  -18.3982   21.1609 C   0  0  0  0  0  0  0  0  0  0  0  0
   11.4657  -19.5535   21.8248 O   0  0  0  0  0  0  0  0  0  0  0  0
   10.7407  -17.4164   21.8989 O   0  0  0  0  0  0  0  0  0  0  0  0
  2  1  1  6
  2  4  1  0
  3  2  1  0
  4  5  1  6
  6 11  1  0
  6  4  1  0
  7  6  2  0
  8  9  1  0
 10  9  1  1
 10 11  1  0
 10 12  1  0
 12 18  1  0
 12 13  2  0
 15 16  1  0
 15 14  1  6
 17 15  1  0
 17 18  1  1
 19 17  1  0
 19 20  1  0
 21 19  2  0
M  END
$$$$
