VST.pdb
     RDKit          3D

 21 20  0  0  1  0  0  0  0  0999 V2000
    8.0656  -12.2980   18.2298 C   0  0  0  0  0  0  0  0  0  0  0  0
    8.0022  -13.2952   19.3658 C   0  0  2  0  0  0  0  0  0  0  0  0
    8.8324  -12.7308   20.4994 C   0  0  0  0  0  0  0  0  0  0  0  0
    8.5784  -14.6189   18.9111 C   0  0  2  0  0  0  0  0  0  0  0  0
    7.8824  -15.0944   17.7314 N   0  0  0  0  0  0  0  0  0  0  0  0
    8.5692  -15.6290   19.9990 C   0  0  0  0  0  0  0  0  0  0  0  0
    7.5052  -16.2189   20.3190 O   0  0  0  0  0  0  0  0  0  0  0  0
   12.1171  -17.3013   21.6657 O   0  0  0  0  0  0  0  0  0  0  0  0
   10.8900  -17.9139   21.7076 C   0  0  0  0  0  0  0  0  0  0  0  0
    9.7435  -16.9352   21.8189 C   0  0  2  0  0  0  0  0  0  0  0  0
    9.7362  -15.9845   20.7302 N   0  0  0  0  0  0  0  0  0  0  0  0
    9.8366  -16.2760   23.1407 C   0  0  0  0  0  0  0  0  0  0  0  0
   10.5748  -15.2935   23.3650 O   0  0  0  0  0  0  0  0  0  0  0  0
    7.1938  -14.6499   24.9991 C   0  0  0  0  0  0  0  0  0  0  0  0
    7.5728  -15.8826   25.8285 C   0  0  1  0  0  0  0  0  0  0  0  0
    6.8164  -16.9497   25.3210 O   0  0  0  0  0  0  0  0  0  0  0  0
    9.0277  -16.2216   25.5249 C   0  0  2  0  0  0  0  0  0  0  0  0
    9.0393  -16.8008   24.1941 N   0  0  0  0  0  0  0  0  0  0  0  0
    9.4468  -17.2936   26.4723 C   0  0  0  0  0  0  0  0  0  0  0  0
    9.7305  -18.5877   26.0379 O   0  0  0  0  0  0  0  0  0  0  0  0
    9.5672  -17.0876   27.7175 O   0  0  0  0  0  0  0  0  0  0  0  0
  2  1  1  6
  2  4  1  0
  3  2  1  0
  4  5  1  6
  6 11  1  0
  6  4  1  0
  7  6  2  0
  8  9  1  0
 10  9  1  6
 10 11  1  0
 10 12  1  0
 12 18  1  0
 12 13  2  0
 15 16  1  0
 15 14  1  6
 17 15  1  0
 17 18  1  6
 19 17  1  0
 19 20  1  0
 21 19  2  0
M  END
$$$$
