VST.pdb
     RDKit          3D

 21 20  0  0  1  0  0  0  0  0999 V2000
    8.0676  -12.8457   18.7734 C   0  0  0  0  0  0  0  0  0  0  0  0
    7.8509  -13.5674   20.0853 C   0  0  2  0  0  0  0  0  0  0  0  0
    8.4200  -12.6857   21.1768 C   0  0  0  0  0  0  0  0  0  0  0  0
    8.5781  -14.8946   20.0599 C   0  0  2  0  0  0  0  0  0  0  0  0
    8.1330  -15.6931   18.9344 N   0  0  0  0  0  0  0  0  0  0  0  0
    8.4370  -15.6273   21.3433 C   0  0  0  0  0  0  0  0  0  0  0  0
    7.6240  -16.5810   21.4527 O   0  0  0  0  0  0  0  0  0  0  0  0
   10.1639  -18.3314   24.3375 O   0  0  0  0  0  0  0  0  0  0  0  0
    9.9339  -17.5156   23.2585 C   0  0  0  0  0  0  0  0  0  0  0  0
    9.3345  -16.1821   23.6420 C   0  0  2  0  0  0  0  0  0  0  0  0
    9.1951  -15.3039   22.5025 N   0  0  0  0  0  0  0  0  0  0  0  0
   10.1795  -15.5940   24.7053 C   0  0  0  0  0  0  0  0  0  0  0  0
   11.3875  -15.3186   24.5456 O   0  0  0  0  0  0  0  0  0  0  0  0
    8.9988  -12.6838   27.0029 C   0  0  0  0  0  0  0  0  0  0  0  0
    9.3101  -13.9189   27.8568 C   0  0  1  0  0  0  0  0  0  0  0  0
    8.1234  -14.6642   27.9233 O   0  0  0  0  0  0  0  0  0  0  0  0
   10.3020  -14.7825   27.0861 C   0  0  2  0  0  0  0  0  0  0  0  0
    9.5688  -15.3371   25.9630 N   0  0  0  0  0  0  0  0  0  0  0  0
   10.6832  -15.9238   27.9662 C   0  0  0  0  0  0  0  0  0  0  0  0
   11.4022  -15.7334   29.1455 O   0  0  0  0  0  0  0  0  0  0  0  0
   10.3759  -17.1228   27.6912 O   0  0  0  0  0  0  0  0  0  0  0  0
  2  1  1  6
  2  4  1  0
  3  2  1  0
  4  5  1  6
  6 11  1  0
  6  4  1  0
  7  6  2  0
  8  9  1  0
 10  9  1  6
 10 11  1  0
 10 12  1  0
 12 18  1  0
 12 13  2  0
 15 16  1  0
 15 14  1  6
 17 15  1  0
 17 18  1  6
 19 17  1  0
 19 20  1  0
 21 19  2  0
M  END
$$$$
