VST.pdb
     RDKit          3D

 21 20  0  0  1  0  0  0  0  0999 V2000
    7.8614  -14.9092   15.8252 C   0  0  0  0  0  0  0  0  0  0  0  0
    8.5516  -15.0434   17.1648 C   0  0  2  0  0  0  0  0  0  0  0  0
    8.3341  -16.4658   17.6362 C   0  0  0  0  0  0  0  0  0  0  0  0
    7.9390  -14.0718   18.1504 C   0  0  2  0  0  0  0  0  0  0  0  0
    7.9692  -12.7241   17.6164 N   0  0  0  0  0  0  0  0  0  0  0  0
    8.5908  -14.1499   19.4819 C   0  0  0  0  0  0  0  0  0  0  0  0
    9.7951  -13.8175   19.6283 O   0  0  0  0  0  0  0  0  0  0  0  0
    6.6937  -16.0107   22.8425 O   0  0  0  0  0  0  0  0  0  0  0  0
    7.5417  -14.9513   23.0457 C   0  0  0  0  0  0  0  0  0  0  0  0
    8.5486  -14.7772   21.9318 C   0  0  2  0  0  0  0  0  0  0  0  0
    7.9094  -14.5952   20.6483 N   0  0  0  0  0  0  0  0  0  0  0  0
    9.4515  -15.9498   21.9493 C   0  0  0  0  0  0  0  0  0  0  0  0
    9.2200  -17.0013   21.3157 O   0  0  0  0  0  0  0  0  0  0  0  0
   12.5508  -16.3183   20.7341 C   0  0  0  0  0  0  0  0  0  0  0  0
   12.8503  -16.5594   22.2185 C   0  0  1  0  0  0  0  0  0  0  0  0
   13.1885  -15.3112   22.7624 O   0  0  0  0  0  0  0  0  0  0  0  0
   11.5491  -16.9711   22.8975 C   0  0  2  0  0  0  0  0  0  0  0  0
   10.6350  -15.8560   22.7311 N   0  0  0  0  0  0  0  0  0  0  0  0
   11.8239  -17.0974   24.3572 C   0  0  0  0  0  0  0  0  0  0  0  0
   12.6851  -18.0715   24.8606 O   0  0  0  0  0  0  0  0  0  0  0  0
   11.2921  -16.3301   25.2151 O   0  0  0  0  0  0  0  0  0  0  0  0
  2  1  1  6
  2  4  1  0
  3  2  1  0
  4  5  1  6
  6 11  1  0
  6  4  1  0
  7  6  2  0
  8  9  1  0
 10  9  1  1
 10 11  1  0
 10 12  1  0
 12 18  1  0
 12 13  2  0
 15 16  1  0
 15 14  1  6
 17 15  1  0
 17 18  1  1
 19 17  1  0
 19 20  1  0
 21 19  2  0
M  END
$$$$
