VST.pdb
     RDKit          3D

 21 20  0  0  1  0  0  0  0  0999 V2000
    6.7715  -14.7075   14.8868 C   0  0  0  0  0  0  0  0  0  0  0  0
    7.8384  -14.1232   15.7864 C   0  0  2  0  0  0  0  0  0  0  0  0
    8.7378  -13.2724   14.9147 C   0  0  0  0  0  0  0  0  0  0  0  0
    8.6377  -15.2425   16.4181 C   0  0  2  0  0  0  0  0  0  0  0  0
    7.7504  -16.2383   16.9869 N   0  0  0  0  0  0  0  0  0  0  0  0
    9.6063  -14.7327   17.4211 C   0  0  0  0  0  0  0  0  0  0  0  0
   10.6048  -14.0561   17.0639 O   0  0  0  0  0  0  0  0  0  0  0  0
    9.4314  -15.8789   21.5623 O   0  0  0  0  0  0  0  0  0  0  0  0
    9.9249  -14.6500   21.2032 C   0  0  0  0  0  0  0  0  0  0  0  0
   10.4727  -14.6209   19.7947 C   0  0  2  0  0  0  0  0  0  0  0  0
    9.4684  -14.9721   18.8163 N   0  0  0  0  0  0  0  0  0  0  0  0
   11.6455  -15.5225   19.7455 C   0  0  0  0  0  0  0  0  0  0  0  0
   11.5620  -16.7400   19.4784 O   0  0  0  0  0  0  0  0  0  0  0  0
   14.5300  -15.1460   17.6938 C   0  0  0  0  0  0  0  0  0  0  0  0
   15.1170  -15.0763   19.1087 C   0  0  1  0  0  0  0  0  0  0  0  0
   15.1251  -13.7203   19.4682 O   0  0  0  0  0  0  0  0  0  0  0  0
   14.1337  -15.7529   20.0570 C   0  0  2  0  0  0  0  0  0  0  0  0
   12.9207  -14.9568   20.0183 N   0  0  0  0  0  0  0  0  0  0  0  0
   14.6880  -15.6389   21.4361 C   0  0  0  0  0  0  0  0  0  0  0  0
   15.8165  -16.3538   21.8354 O   0  0  0  0  0  0  0  0  0  0  0  0
   14.1661  -14.8897   22.3158 O   0  0  0  0  0  0  0  0  0  0  0  0
  2  1  1  6
  2  4  1  0
  3  2  1  0
  4  5  1  1
  6 11  1  0
  6  4  1  0
  7  6  2  0
  8  9  1  0
 10  9  1  1
 10 11  1  0
 10 12  1  0
 12 18  1  0
 12 13  2  0
 15 16  1  0
 15 14  1  6
 17 15  1  0
 17 18  1  1
 19 17  1  0
 19 20  1  0
 21 19  2  0
M  END
$$$$
