VST.pdb
     RDKit          3D

 21 20  0  0  1  0  0  0  0  0999 V2000
    7.7473  -12.3174   18.2626 C   0  0  0  0  0  0  0  0  0  0  0  0
    7.7098  -13.3594   19.3588 C   0  0  2  0  0  0  0  0  0  0  0  0
    8.4179  -12.7674   20.5591 C   0  0  0  0  0  0  0  0  0  0  0  0
    8.4299  -14.6078   18.8964 C   0  0  2  0  0  0  0  0  0  0  0  0
    7.8395  -15.1067   17.6697 N   0  0  0  0  0  0  0  0  0  0  0  0
    8.4643  -15.6500   19.9532 C   0  0  0  0  0  0  0  0  0  0  0  0
    7.4297  -16.3033   20.2450 O   0  0  0  0  0  0  0  0  0  0  0  0
   10.8215  -18.7821   22.7247 O   0  0  0  0  0  0  0  0  0  0  0  0
   10.8118  -17.8650   21.7042 C   0  0  0  0  0  0  0  0  0  0  0  0
    9.6706  -16.8789   21.8056 C   0  0  2  0  0  0  0  0  0  0  0  0
    9.6422  -15.9672   20.6844 N   0  0  0  0  0  0  0  0  0  0  0  0
    9.7944  -16.1738   23.1010 C   0  0  0  0  0  0  0  0  0  0  0  0
   10.6212  -15.2602   23.3066 O   0  0  0  0  0  0  0  0  0  0  0  0
    7.4193  -14.1934   24.9932 C   0  0  0  0  0  0  0  0  0  0  0  0
    7.6284  -15.4687   25.8185 C   0  0  1  0  0  0  0  0  0  0  0  0
    6.7147  -16.4131   25.3272 O   0  0  0  0  0  0  0  0  0  0  0  0
    9.0121  -16.0173   25.4895 C   0  0  2  0  0  0  0  0  0  0  0  0
    8.9209  -16.5695   24.1503 N   0  0  0  0  0  0  0  0  0  0  0  0
    9.2762  -17.1557   26.4150 C   0  0  0  0  0  0  0  0  0  0  0  0
    9.4451  -16.9638   27.7856 O   0  0  0  0  0  0  0  0  0  0  0  0
    9.3612  -18.3535   26.0080 O   0  0  0  0  0  0  0  0  0  0  0  0
  2  1  1  6
  2  4  1  0
  3  2  1  0
  4  5  1  6
  6 11  1  0
  6  4  1  0
  7  6  2  0
  8  9  1  0
 10  9  1  6
 10 11  1  0
 10 12  1  0
 12 18  1  0
 12 13  2  0
 15 16  1  0
 15 14  1  6
 17 15  1  0
 17 18  1  6
 19 17  1  0
 19 20  1  0
 21 19  2  0
M  END
$$$$
