GKQ.pdb
     RDKit          3D

 23 22  0  0  1  0  0  0  0  0999 V2000
   18.7793  -18.1915  -13.9427 N   0  0  0  0  0  0  0  0  0  0  0  0
   20.1261  -17.7315  -14.0918 C   0  0  0  0  0  0  0  0  0  0  0  0
   21.0527  -18.8774  -14.3849 C   0  0  0  0  0  0  0  0  0  0  0  0
   21.0779  -19.9005  -13.6765 O   0  0  0  0  0  0  0  0  0  0  0  0
   21.9232  -18.7866  -15.5031 N   0  0  0  0  0  0  0  0  0  0  0  0
   22.8486  -19.8894  -15.8607 C   0  0  1  0  0  0  0  0  0  0  0  0
   23.0742  -19.7517  -17.3301 C   0  0  0  0  0  0  0  0  0  0  0  0
   22.0534  -20.3951  -18.2070 C   0  0  0  0  0  0  0  0  0  0  0  0
   22.4627  -20.2881  -19.6769 C   0  0  0  0  0  0  0  0  0  0  0  0
   21.4682  -20.9259  -20.5886 C   0  0  0  0  0  0  0  0  0  0  0  0
   21.8278  -20.6978  -21.9803 N   0  0  0  0  0  0  0  0  0  0  0  0
   24.0276  -19.7444  -15.0091 C   0  0  0  0  0  0  0  0  0  0  0  0
   24.5419  -18.5859  -14.7936 O   0  0  0  0  0  0  0  0  0  0  0  0
   25.4242  -21.6700   -9.5058 N   0  0  0  0  0  0  0  0  0  0  0  0
   24.3137  -21.2717  -10.3542 C   0  0  0  0  0  0  0  0  0  0  0  0
   23.2090  -21.2517   -9.8085 O   0  0  0  0  0  0  0  0  0  0  0  0
   24.5188  -20.9269  -11.7519 C   0  0  0  0  0  0  0  0  0  0  0  0
   25.8870  -20.9076  -12.2926 C   0  0  0  0  0  0  0  0  0  0  0  0
   26.0493  -20.6297  -13.7586 C   0  0  2  0  0  0  0  0  0  0  0  0
   24.7211  -20.7917  -14.3434 N   0  0  0  0  0  0  0  0  0  0  0  0
   27.1284  -21.2835  -14.4568 C   0  0  0  0  0  0  0  0  0  0  0  0
   28.4319  -21.1147  -13.9475 O   0  0  0  0  0  0  0  0  0  0  0  0
   27.0189  -21.9942  -15.4907 O   0  0  0  0  0  0  0  0  0  0  0  0
  2  1  1  0
  3  2  1  0
  4  3  2  0
  5  3  1  0
  6 12  1  0
  6  5  1  0
  6  7  1  6
  8  7  1  0
  9  8  1  0
 10  9  1  0
 11 10  1  0
 12 20  1  0
 13 12  2  0
 15 17  1  0
 15 14  1  0
 16 15  2  0
 18 17  1  0
 19 18  1  1
 20 19  1  0
 21 22  1  0
 21 19  1  0
 23 21  2  0
M  END
$$$$
