GKQ.pdb
     RDKit          3D

 23 22  0  0  1  0  0  0  0  0999 V2000
   14.9298  -11.1506  -19.0275 N   0  0  0  0  0  0  0  0  0  0  0  0
   15.8904  -10.0991  -19.1672 C   0  0  0  0  0  0  0  0  0  0  0  0
   16.9541  -10.2035  -18.1113 C   0  0  0  0  0  0  0  0  0  0  0  0
   16.8224   -9.6777  -16.9908 O   0  0  0  0  0  0  0  0  0  0  0  0
   18.1425  -10.9236  -18.4038 N   0  0  0  0  0  0  0  0  0  0  0  0
   19.1902  -11.1464  -17.3778 C   0  0  1  0  0  0  0  0  0  0  0  0
   20.0511  -12.2362  -17.9259 C   0  0  0  0  0  0  0  0  0  0  0  0
   21.1766  -12.6765  -17.0517 C   0  0  0  0  0  0  0  0  0  0  0  0
   21.9683  -13.8018  -17.7199 C   0  0  0  0  0  0  0  0  0  0  0  0
   23.1888  -14.1718  -16.9450 C   0  0  0  0  0  0  0  0  0  0  0  0
   23.7856  -15.3878  -17.4775 N   0  0  0  0  0  0  0  0  0  0  0  0
   19.8428   -9.8579  -17.1535 C   0  0  0  0  0  0  0  0  0  0  0  0
   20.0983   -9.0725  -18.1388 O   0  0  0  0  0  0  0  0  0  0  0  0
   19.3698   -5.2657  -18.6274 N   0  0  0  0  0  0  0  0  0  0  0  0
   19.3725   -4.7765  -17.2591 C   0  0  0  0  0  0  0  0  0  0  0  0
   19.3032   -3.5526  -17.1326 O   0  0  0  0  0  0  0  0  0  0  0  0
   19.4549   -5.6910  -16.1317 C   0  0  0  0  0  0  0  0  0  0  0  0
   19.5122   -7.1391  -16.3855 C   0  0  0  0  0  0  0  0  0  0  0  0
   20.5908   -7.9218  -15.6952 C   0  0  2  0  0  0  0  0  0  0  0  0
   20.2549   -9.3280  -15.9005 N   0  0  0  0  0  0  0  0  0  0  0  0
   20.9419   -7.5488  -14.3472 C   0  0  0  0  0  0  0  0  0  0  0  0
   21.8537   -6.4868  -14.1807 O   0  0  0  0  0  0  0  0  0  0  0  0
   20.5120   -8.0882  -13.2934 O   0  0  0  0  0  0  0  0  0  0  0  0
  2  1  1  0
  3  2  1  0
  4  3  2  0
  5  3  1  0
  6 12  1  0
  6  5  1  0
  6  7  1  6
  8  7  1  0
  9  8  1  0
 10  9  1  0
 11 10  1  0
 12 20  1  0
 13 12  2  0
 15 17  1  0
 15 14  1  0
 16 15  2  0
 18 17  1  0
 19 18  1  1
 20 19  1  0
 21 22  1  0
 21 19  1  0
 23 21  2  0
M  END
$$$$
