GKQ.pdb
     RDKit          3D

 23 22  0  0  1  0  0  0  0  0999 V2000
   28.5191  -21.6083  -17.3042 N   0  0  0  0  0  0  0  0  0  0  0  0
   28.1067  -20.7107  -16.2689 C   0  0  0  0  0  0  0  0  0  0  0  0
   26.9615  -21.2878  -15.4861 C   0  0  0  0  0  0  0  0  0  0  0  0
   26.3303  -22.2847  -15.8823 O   0  0  0  0  0  0  0  0  0  0  0  0
   26.5916  -20.6756  -14.2594 N   0  0  0  0  0  0  0  0  0  0  0  0
   25.4671  -21.1903  -13.4405 C   0  0  1  0  0  0  0  0  0  0  0  0
   25.7873  -20.7902  -12.0382 C   0  0  0  0  0  0  0  0  0  0  0  0
   24.8056  -21.2190  -11.0003 C   0  0  0  0  0  0  0  0  0  0  0  0
   25.1920  -20.6588   -9.6304 C   0  0  0  0  0  0  0  0  0  0  0  0
   24.1649  -20.9540   -8.5887 C   0  0  0  0  0  0  0  0  0  0  0  0
   24.5165  -20.3192   -7.3271 N   0  0  0  0  0  0  0  0  0  0  0  0
   24.2411  -20.6323  -14.0081 C   0  0  0  0  0  0  0  0  0  0  0  0
   24.1572  -19.3790  -14.2824 O   0  0  0  0  0  0  0  0  0  0  0  0
   19.6273  -24.8629  -14.3795 N   0  0  0  0  0  0  0  0  0  0  0  0
   19.9972  -23.9500  -15.4478 C   0  0  0  0  0  0  0  0  0  0  0  0
   20.2177  -24.4737  -16.5413 O   0  0  0  0  0  0  0  0  0  0  0  0
   20.0960  -22.5180  -15.2154 C   0  0  0  0  0  0  0  0  0  0  0  0
   21.2406  -21.7786  -15.7701 C   0  0  0  0  0  0  0  0  0  0  0  0
   21.8704  -20.7255  -14.9057 C   0  0  2  0  0  0  0  0  0  0  0  0
   23.0530  -21.3487  -14.3178 N   0  0  0  0  0  0  0  0  0  0  0  0
   21.0211  -20.0010  -13.9929 C   0  0  0  0  0  0  0  0  0  0  0  0
   21.0585  -20.3717  -12.6334 O   0  0  0  0  0  0  0  0  0  0  0  0
   20.2379  -19.0625  -14.2961 O   0  0  0  0  0  0  0  0  0  0  0  0
  2  1  1  0
  3  2  1  0
  4  3  2  0
  5  3  1  0
  6 12  1  0
  6  5  1  0
  6  7  1  1
  8  7  1  0
  9  8  1  0
 10  9  1  0
 11 10  1  0
 12 20  1  0
 13 12  2  0
 15 17  1  0
 15 14  1  0
 16 15  2  0
 18 17  1  0
 19 18  1  1
 20 19  1  0
 21 22  1  0
 21 19  1  0
 23 21  2  0
M  END
$$$$
