GKQ.pdb
     RDKit          3D

 23 22  0  0  1  0  0  0  0  0999 V2000
   18.0804  -13.4159  -15.5903 N   0  0  0  0  0  0  0  0  0  0  0  0
   18.5691  -12.3352  -16.3909 C   0  0  0  0  0  0  0  0  0  0  0  0
   19.6901  -11.6179  -15.6935 C   0  0  0  0  0  0  0  0  0  0  0  0
   19.5680  -11.1744  -14.5369 O   0  0  0  0  0  0  0  0  0  0  0  0
   20.9225  -11.4429  -16.3767 N   0  0  0  0  0  0  0  0  0  0  0  0
   22.0565  -10.7109  -15.7616 C   0  0  1  0  0  0  0  0  0  0  0  0
   23.2825  -11.2880  -16.3883 C   0  0  0  0  0  0  0  0  0  0  0  0
   24.5273  -11.2121  -15.5701 C   0  0  0  0  0  0  0  0  0  0  0  0
   25.6717  -11.9551  -16.2615 C   0  0  0  0  0  0  0  0  0  0  0  0
   26.9558  -11.8409  -15.5097 C   0  0  0  0  0  0  0  0  0  0  0  0
   28.0306  -12.5128  -16.2251 N   0  0  0  0  0  0  0  0  0  0  0  0
   21.8184   -9.2881  -15.9970 C   0  0  0  0  0  0  0  0  0  0  0  0
   21.2473   -8.8893  -17.0776 O   0  0  0  0  0  0  0  0  0  0  0  0
   17.2539   -4.4528  -15.7148 N   0  0  0  0  0  0  0  0  0  0  0  0
   18.0260   -5.6781  -15.5971 C   0  0  0  0  0  0  0  0  0  0  0  0
   17.3695   -6.7210  -15.5906 O   0  0  0  0  0  0  0  0  0  0  0  0
   19.4760   -5.6484  -15.4927 C   0  0  0  0  0  0  0  0  0  0  0  0
   20.2199   -6.9176  -15.4726 C   0  0  0  0  0  0  0  0  0  0  0  0
   21.7117   -6.8447  -15.3242 C   0  0  2  0  0  0  0  0  0  0  0  0
   22.1588   -8.2201  -15.1228 N   0  0  0  0  0  0  0  0  0  0  0  0
   22.2552   -5.8665  -14.4146 C   0  0  0  0  0  0  0  0  0  0  0  0
   22.0563   -4.5059  -14.7248 O   0  0  0  0  0  0  0  0  0  0  0  0
   22.9009   -6.1123  -13.3616 O   0  0  0  0  0  0  0  0  0  0  0  0
  2  1  1  0
  3  2  1  0
  4  3  2  0
  5  3  1  0
  6 12  1  0
  6  5  1  0
  6  7  1  6
  8  7  1  0
  9  8  1  0
 10  9  1  0
 11 10  1  0
 12 20  1  0
 13 12  2  0
 15 17  1  0
 15 14  1  0
 16 15  2  0
 18 17  1  0
 19 18  1  1
 20 19  1  0
 21 22  1  0
 21 19  1  0
 23 21  2  0
M  END
$$$$
