GKQ.pdb
     RDKit          3D

 23 22  0  0  1  0  0  0  0  0999 V2000
   27.4351  -27.3516  -15.8445 N   0  0  0  0  0  0  0  0  0  0  0  0
   27.2457  -26.3320  -16.8306 C   0  0  0  0  0  0  0  0  0  0  0  0
   27.0852  -24.9857  -16.1831 C   0  0  0  0  0  0  0  0  0  0  0  0
   27.0725  -24.8482  -14.9462 O   0  0  0  0  0  0  0  0  0  0  0  0
   26.9443  -23.8397  -17.0096 N   0  0  0  0  0  0  0  0  0  0  0  0
   26.7346  -22.4877  -16.4366 C   0  0  1  0  0  0  0  0  0  0  0  0
   27.2248  -21.5388  -17.4798 C   0  0  0  0  0  0  0  0  0  0  0  0
   27.4025  -20.1249  -17.0395 C   0  0  0  0  0  0  0  0  0  0  0  0
   27.8969  -19.2584  -18.1991 C   0  0  0  0  0  0  0  0  0  0  0  0
   28.1498  -17.8477  -17.7830 C   0  0  0  0  0  0  0  0  0  0  0  0
   28.7191  -17.0828  -18.8826 N   0  0  0  0  0  0  0  0  0  0  0  0
   25.3181  -22.3912  -16.0890 C   0  0  0  0  0  0  0  0  0  0  0  0
   24.4453  -23.1211  -16.6876 O   0  0  0  0  0  0  0  0  0  0  0  0
   21.2102  -24.4720  -15.9964 N   0  0  0  0  0  0  0  0  0  0  0  0
   20.8911  -24.1621  -14.6130 C   0  0  0  0  0  0  0  0  0  0  0  0
   19.7780  -24.5269  -14.2301 O   0  0  0  0  0  0  0  0  0  0  0  0
   21.8388  -23.4644  -13.7589 C   0  0  0  0  0  0  0  0  0  0  0  0
   23.1505  -23.0829  -14.3050 C   0  0  0  0  0  0  0  0  0  0  0  0
   23.3598  -21.6402  -14.6623 C   0  0  2  0  0  0  0  0  0  0  0  0
   24.7473  -21.5377  -15.1059 N   0  0  0  0  0  0  0  0  0  0  0  0
   22.9246  -20.6387  -13.7204 C   0  0  0  0  0  0  0  0  0  0  0  0
   23.7328  -20.4136  -12.5876 O   0  0  0  0  0  0  0  0  0  0  0  0
   21.8794  -19.9418  -13.8101 O   0  0  0  0  0  0  0  0  0  0  0  0
  2  1  1  0
  3  2  1  0
  4  3  2  0
  5  3  1  0
  6 12  1  0
  6  5  1  0
  6  7  1  6
  8  7  1  0
  9  8  1  0
 10  9  1  0
 11 10  1  0
 12 20  1  0
 13 12  2  0
 15 17  1  0
 15 14  1  0
 16 15  2  0
 18 17  1  0
 19 18  1  1
 20 19  1  0
 21 22  1  0
 21 19  1  0
 23 21  2  0
M  END
$$$$
