GIH.pdb
     RDKit          3D

 23 23  0  0  1  0  0  0  0  0999 V2000
   14.0507  -13.7223  -15.0532 N   0  0  0  0  0  0  0  0  0  0  0  0
   13.0003  -12.7987  -14.7668 C   0  0  0  0  0  0  0  0  0  0  0  0
   13.5225  -11.5530  -14.0951 C   0  0  0  0  0  0  0  0  0  0  0  0
   13.7216  -10.5051  -14.7405 O   0  0  0  0  0  0  0  0  0  0  0  0
   11.7050  -11.8273  -10.0598 C   0  0  0  0  0  0  0  0  0  0  0  0
   12.1597  -10.4532  -10.4663 C   0  0  0  0  0  0  0  0  0  0  0  0
   13.6747  -10.4495  -10.5419 C   0  0  2  0  0  0  0  0  0  0  0  0
   14.2339   -9.3712   -9.6564 C   0  0  0  0  0  0  0  0  0  0  0  0
   14.1670  -10.4875  -11.9336 C   0  0  2  0  0  0  0  0  0  0  0  0
   13.7711  -11.6457  -12.6961 N   0  0  0  0  0  0  0  0  0  0  0  0
   15.5725  -10.1453  -12.1623 C   0  0  0  0  0  0  0  0  0  0  0  0
   16.5430  -10.8258  -11.7250 O   0  0  0  0  0  0  0  0  0  0  0  0
   15.9233   -8.9950  -12.9050 N   0  0  0  0  0  0  0  0  0  0  0  0
   17.3439   -8.5949  -13.0521 C   0  0  1  0  0  0  0  0  0  0  0  0
   17.5791   -7.9819  -14.3882 C   0  0  0  0  0  0  0  0  0  0  0  0
   18.9695   -7.5726  -14.5509 C   0  0  0  0  0  0  0  0  0  0  0  0
   20.0786   -8.3189  -14.9150 C   0  0  0  0  0  0  0  0  0  0  0  0
   21.1876   -7.5594  -14.9255 N   0  0  0  0  0  0  0  0  0  0  0  0
   20.8031   -6.3311  -14.5711 C   0  0  0  0  0  0  0  0  0  0  0  0
   19.4872   -6.3246  -14.3455 N   0  0  0  0  0  0  0  0  0  0  0  0
   17.6701   -7.6402  -11.9807 C   0  0  0  0  0  0  0  0  0  0  0  0
   16.8328   -6.6457  -11.5048 O   0  0  0  0  0  0  0  0  0  0  0  0
   18.8018   -7.7077  -11.4315 O   0  0  0  0  0  0  0  0  0  0  0  0
  2  1  1  0
  2  3  1  0
  3 10  1  0
  4  3  2  0
  5  6  1  0
  6  7  1  0
  7  8  1  6
  7  9  1  0
  9 11  1  0
  9 10  1  1
 11 12  2  0
 13 11  1  0
 13 14  1  0
 14 21  1  0
 14 15  1  6
 16 15  1  0
 17 16  2  0
 18 19  1  0
 18 17  1  0
 19 20  2  0
 20 16  1  0
 21 23  2  0
 21 22  1  0
M  END
$$$$
