GIH.pdb
     RDKit          3D

 23 23  0  0  1  0  0  0  0  0999 V2000
   20.8685  -16.5308  -16.0969 N   0  0  0  0  0  0  0  0  0  0  0  0
   21.2354  -15.3511  -16.8125 C   0  0  0  0  0  0  0  0  0  0  0  0
   21.6627  -14.2450  -15.8800 C   0  0  0  0  0  0  0  0  0  0  0  0
   21.0728  -14.0454  -14.7999 O   0  0  0  0  0  0  0  0  0  0  0  0
   25.9217  -14.4521  -15.5257 C   0  0  0  0  0  0  0  0  0  0  0  0
   25.1303  -13.6433  -14.5359 C   0  0  0  0  0  0  0  0  0  0  0  0
   24.6869  -12.3580  -15.2085 C   0  0  2  0  0  0  0  0  0  0  0  0
   25.2322  -11.1707  -14.4652 C   0  0  0  0  0  0  0  0  0  0  0  0
   23.2400  -12.3494  -15.5033 C   0  0  2  0  0  0  0  0  0  0  0  0
   22.7673  -13.4523  -16.3032 N   0  0  0  0  0  0  0  0  0  0  0  0
   22.6449  -11.0805  -15.9283 C   0  0  0  0  0  0  0  0  0  0  0  0
   22.7465  -10.6116  -17.0969 O   0  0  0  0  0  0  0  0  0  0  0  0
   21.9065  -10.2896  -15.0187 N   0  0  0  0  0  0  0  0  0  0  0  0
   21.2565   -9.0333  -15.4649 C   0  0  1  0  0  0  0  0  0  0  0  0
   19.7847   -9.1013  -15.2512 C   0  0  0  0  0  0  0  0  0  0  0  0
   19.1398   -9.9542  -16.2431 C   0  0  0  0  0  0  0  0  0  0  0  0
   19.6313  -10.4568  -17.4369 C   0  0  0  0  0  0  0  0  0  0  0  0
   18.6989  -11.1881  -18.0717 N   0  0  0  0  0  0  0  0  0  0  0  0
   17.6114  -11.1607  -17.2978 C   0  0  0  0  0  0  0  0  0  0  0  0
   17.8594  -10.4308  -16.2077 N   0  0  0  0  0  0  0  0  0  0  0  0
   21.8380   -7.9152  -14.7050 C   0  0  0  0  0  0  0  0  0  0  0  0
   21.7458   -6.5761  -15.0437 O   0  0  0  0  0  0  0  0  0  0  0  0
   22.4824   -8.1671  -13.6523 O   0  0  0  0  0  0  0  0  0  0  0  0
  2  1  1  0
  2  3  1  0
  3 10  1  0
  4  3  2  0
  5  6  1  0
  6  7  1  0
  7  8  1  1
  7  9  1  0
  9 11  1  0
  9 10  1  6
 11 12  2  0
 13 11  1  0
 13 14  1  0
 14 21  1  0
 14 15  1  1
 16 15  1  0
 17 16  2  0
 18 19  1  0
 18 17  1  0
 19 20  2  0
 20 16  1  0
 21 23  2  0
 21 22  1  0
M  END
$$$$
