GIH.pdb
     RDKit          3D

 23 23  0  0  1  0  0  0  0  0999 V2000
   20.4515  -16.4708  -16.2122 N   0  0  0  0  0  0  0  0  0  0  0  0
   20.0061  -15.2146  -16.7241 C   0  0  0  0  0  0  0  0  0  0  0  0
   20.4692  -14.0666  -15.8620 C   0  0  0  0  0  0  0  0  0  0  0  0
   19.8337  -13.7233  -14.8459 O   0  0  0  0  0  0  0  0  0  0  0  0
   24.6281  -14.5385  -15.8498 C   0  0  0  0  0  0  0  0  0  0  0  0
   24.2422  -13.5761  -14.7613 C   0  0  0  0  0  0  0  0  0  0  0  0
   23.6947  -12.3158  -15.4040 C   0  0  2  0  0  0  0  0  0  0  0  0
   24.3217  -11.1017  -14.7776 C   0  0  0  0  0  0  0  0  0  0  0  0
   22.2210  -12.3285  -15.4974 C   0  0  2  0  0  0  0  0  0  0  0  0
   21.6619  -13.4070  -16.2744 N   0  0  0  0  0  0  0  0  0  0  0  0
   21.5513  -11.0568  -15.7789 C   0  0  0  0  0  0  0  0  0  0  0  0
   21.3703  -10.5987  -16.9423 O   0  0  0  0  0  0  0  0  0  0  0  0
   21.0622  -10.2505  -14.7260 N   0  0  0  0  0  0  0  0  0  0  0  0
   20.4059   -8.9514  -15.0115 C   0  0  1  0  0  0  0  0  0  0  0  0
   19.0382   -8.9160  -14.4244 C   0  0  0  0  0  0  0  0  0  0  0  0
   18.0842   -9.6498  -15.2482 C   0  0  0  0  0  0  0  0  0  0  0  0
   18.2729  -10.3105  -16.4512 C   0  0  0  0  0  0  0  0  0  0  0  0
   17.1206  -10.8427  -16.8941 N   0  0  0  0  0  0  0  0  0  0  0  0
   16.1917  -10.5305  -15.9876 C   0  0  0  0  0  0  0  0  0  0  0  0
   16.7505   -9.8215  -15.0039 N   0  0  0  0  0  0  0  0  0  0  0  0
   21.2387   -7.8774  -14.4470 C   0  0  0  0  0  0  0  0  0  0  0  0
   21.1348   -6.5314  -14.7534 O   0  0  0  0  0  0  0  0  0  0  0  0
   22.1328   -8.1779  -13.6120 O   0  0  0  0  0  0  0  0  0  0  0  0
  2  1  1  0
  2  3  1  0
  3 10  1  0
  4  3  2  0
  5  6  1  0
  6  7  1  0
  7  8  1  1
  7  9  1  0
  9 11  1  0
  9 10  1  6
 11 12  2  0
 13 11  1  0
 13 14  1  0
 14 21  1  0
 14 15  1  1
 16 15  1  0
 17 16  2  0
 18 19  1  0
 18 17  1  0
 19 20  2  0
 20 16  1  0
 21 23  2  0
 21 22  1  0
M  END
$$$$
