GIH.pdb
     RDKit          3D

 23 23  0  0  1  0  0  0  0  0999 V2000
   19.4517  -15.9758  -16.4630 N   0  0  0  0  0  0  0  0  0  0  0  0
   19.6087  -14.6849  -17.0523 C   0  0  0  0  0  0  0  0  0  0  0  0
   20.1759  -13.6902  -16.0702 C   0  0  0  0  0  0  0  0  0  0  0  0
   19.5537  -13.3743  -15.0371 O   0  0  0  0  0  0  0  0  0  0  0  0
   24.2097  -14.7471  -15.8551 C   0  0  0  0  0  0  0  0  0  0  0  0
   23.7620  -13.8760  -14.7145 C   0  0  0  0  0  0  0  0  0  0  0  0
   23.5273  -12.4735  -15.2425 C   0  0  2  0  0  0  0  0  0  0  0  0
   24.2570  -11.4719  -14.3917 C   0  0  0  0  0  0  0  0  0  0  0  0
   22.0994  -12.2052  -15.5065 C   0  0  2  0  0  0  0  0  0  0  0  0
   21.4497  -13.1406  -16.3911 N   0  0  0  0  0  0  0  0  0  0  0  0
   21.7159  -10.8238  -15.8058 C   0  0  0  0  0  0  0  0  0  0  0  0
   21.9653  -10.2453  -16.9009 O   0  0  0  0  0  0  0  0  0  0  0  0
   21.0286  -10.0425  -14.8492 N   0  0  0  0  0  0  0  0  0  0  0  0
   20.6573   -8.6377  -15.1470 C   0  0  1  0  0  0  0  0  0  0  0  0
   19.1931   -8.4349  -14.9700 C   0  0  0  0  0  0  0  0  0  0  0  0
   18.4341   -9.0458  -16.0553 C   0  0  0  0  0  0  0  0  0  0  0  0
   18.8794   -9.7005  -17.1922 C   0  0  0  0  0  0  0  0  0  0  0  0
   17.8462  -10.0968  -17.9554 N   0  0  0  0  0  0  0  0  0  0  0  0
   16.7397   -9.7029  -17.3208 C   0  0  0  0  0  0  0  0  0  0  0  0
   17.0744   -9.0769  -16.1900 N   0  0  0  0  0  0  0  0  0  0  0  0
   21.4142   -7.7566  -14.2435 C   0  0  0  0  0  0  0  0  0  0  0  0
   22.2468   -8.1752  -13.2199 O   0  0  0  0  0  0  0  0  0  0  0  0
   21.3147   -6.5091  -14.3883 O   0  0  0  0  0  0  0  0  0  0  0  0
  2  1  1  0
  2  3  1  0
  3 10  1  0
  4  3  2  0
  5  6  1  0
  6  7  1  0
  7  8  1  1
  7  9  1  0
  9 11  1  0
  9 10  1  6
 11 12  2  0
 13 11  1  0
 13 14  1  0
 14 21  1  0
 14 15  1  1
 16 15  1  0
 17 16  2  0
 18 19  1  0
 18 17  1  0
 19 20  2  0
 20 16  1  0
 21 23  2  0
 21 22  1  0
M  END
$$$$
