GIH.pdb
     RDKit          3D

 23 23  0  0  1  0  0  0  0  0999 V2000
   17.5234  -11.4541   11.3661 N   0  0  0  0  0  0  0  0  0  0  0  0
   18.5400  -11.5908   10.3731 C   0  0  0  0  0  0  0  0  0  0  0  0
   18.0690  -12.4214    9.2053 C   0  0  0  0  0  0  0  0  0  0  0  0
   17.0004  -13.0616    9.2559 O   0  0  0  0  0  0  0  0  0  0  0  0
   20.9182  -11.0848    6.1233 C   0  0  0  0  0  0  0  0  0  0  0  0
   19.5235  -11.3047    5.6072 C   0  0  0  0  0  0  0  0  0  0  0  0
   19.2274  -12.7922    5.6372 C   0  0  2  0  0  0  0  0  0  0  0  0
   18.5689  -13.2142    4.3535 C   0  0  0  0  0  0  0  0  0  0  0  0
   18.5659  -13.2073    6.8905 C   0  0  2  0  0  0  0  0  0  0  0  0
   18.9089  -12.4295    8.0554 N   0  0  0  0  0  0  0  0  0  0  0  0
   18.5263  -14.6402    7.1906 C   0  0  0  0  0  0  0  0  0  0  0  0
   19.5014  -15.2870    7.6668 O   0  0  0  0  0  0  0  0  0  0  0  0
   17.3563  -15.3958    6.9493 N   0  0  0  0  0  0  0  0  0  0  0  0
   17.2841  -16.8235    7.3445 C   0  0  1  0  0  0  0  0  0  0  0  0
   16.7662  -16.9561    8.7340 C   0  0  0  0  0  0  0  0  0  0  0  0
   16.6885  -18.3536    9.1439 C   0  0  0  0  0  0  0  0  0  0  0  0
   17.5682  -19.3982    8.9106 C   0  0  0  0  0  0  0  0  0  0  0  0
   17.1093  -20.5428    9.4458 N   0  0  0  0  0  0  0  0  0  0  0  0
   15.9421  -20.2450   10.0212 C   0  0  0  0  0  0  0  0  0  0  0  0
   15.6797  -18.9472    9.8494 N   0  0  0  0  0  0  0  0  0  0  0  0
   16.4034  -17.5232    6.3956 C   0  0  0  0  0  0  0  0  0  0  0  0
   16.4666  -18.8696    6.0797 O   0  0  0  0  0  0  0  0  0  0  0  0
   15.5065  -16.8667    5.8028 O   0  0  0  0  0  0  0  0  0  0  0  0
  2  1  1  0
  2  3  1  0
  3 10  1  0
  4  3  2  0
  5  6  1  0
  6  7  1  0
  7  8  1  6
  7  9  1  0
  9 11  1  0
  9 10  1  1
 11 12  2  0
 13 11  1  0
 13 14  1  0
 14 21  1  0
 14 15  1  1
 16 15  1  0
 17 16  2  0
 18 19  1  0
 18 17  1  0
 19 20  2  0
 20 16  1  0
 21 23  2  0
 21 22  1  0
M  END
$$$$
