GIH.pdb
     RDKit          3D

 23 23  0  0  1  0  0  0  0  0999 V2000
   23.8862  -18.2229  -19.4302 N   0  0  0  0  0  0  0  0  0  0  0  0
   24.6384  -19.3840  -19.7827 C   0  0  0  0  0  0  0  0  0  0  0  0
   25.3678  -19.9569  -18.5931 C   0  0  0  0  0  0  0  0  0  0  0  0
   26.1826  -20.8916  -18.7225 O   0  0  0  0  0  0  0  0  0  0  0  0
   26.8579  -16.3096  -15.0303 C   0  0  0  0  0  0  0  0  0  0  0  0
   26.6132  -17.4200  -16.0137 C   0  0  0  0  0  0  0  0  0  0  0  0
   26.1846  -18.6569  -15.2473 C   0  0  2  0  0  0  0  0  0  0  0  0
   27.1908  -18.9765  -14.1772 C   0  0  0  0  0  0  0  0  0  0  0  0
   25.7934  -19.7641  -16.1426 C   0  0  2  0  0  0  0  0  0  0  0  0
   25.0726  -19.3724  -17.3286 N   0  0  0  0  0  0  0  0  0  0  0  0
   25.2099  -20.9574  -15.5258 C   0  0  0  0  0  0  0  0  0  0  0  0
   25.8697  -21.9958  -15.2388 O   0  0  0  0  0  0  0  0  0  0  0  0
   23.8319  -21.0085  -15.2154 N   0  0  0  0  0  0  0  0  0  0  0  0
   23.3773  -21.0818  -13.8055 C   0  0  1  0  0  0  0  0  0  0  0  0
   24.5031  -20.7874  -12.8769 C   0  0  0  0  0  0  0  0  0  0  0  0
   24.0931  -20.9150  -11.4830 C   0  0  0  0  0  0  0  0  0  0  0  0
   22.8506  -21.2097  -10.9458 C   0  0  0  0  0  0  0  0  0  0  0  0
   22.8944  -21.2088   -9.6023 N   0  0  0  0  0  0  0  0  0  0  0  0
   24.1536  -20.9159   -9.2693 C   0  0  0  0  0  0  0  0  0  0  0  0
   24.8770  -20.7386  -10.3774 N   0  0  0  0  0  0  0  0  0  0  0  0
   22.2864  -20.1119  -13.6191 C   0  0  0  0  0  0  0  0  0  0  0  0
   22.0132  -19.0370  -14.4475 O   0  0  0  0  0  0  0  0  0  0  0  0
   21.5196  -20.2440  -12.6283 O   0  0  0  0  0  0  0  0  0  0  0  0
  2  1  1  0
  2  3  1  0
  3 10  1  0
  4  3  2  0
  5  6  1  0
  6  7  1  0
  7  8  1  6
  7  9  1  0
  9 11  1  0
  9 10  1  6
 11 12  2  0
 13 11  1  0
 13 14  1  0
 14 21  1  0
 14 15  1  1
 16 15  1  0
 17 16  2  0
 18 19  1  0
 18 17  1  0
 19 20  2  0
 20 16  1  0
 21 23  2  0
 21 22  1  0
M  END
$$$$
