GIH.pdb
     RDKit          3D

 23 23  0  0  1  0  0  0  0  0999 V2000
   17.3087  -14.3436  -16.3903 N   0  0  0  0  0  0  0  0  0  0  0  0
   17.0929  -12.9336  -16.4502 C   0  0  0  0  0  0  0  0  0  0  0  0
   18.3346  -12.1642  -16.0740 C   0  0  0  0  0  0  0  0  0  0  0  0
   18.8746  -12.3120  -14.9601 O   0  0  0  0  0  0  0  0  0  0  0  0
   21.2432  -11.2939  -20.0100 C   0  0  0  0  0  0  0  0  0  0  0  0
   21.3768  -11.4172  -18.5177 C   0  0  0  0  0  0  0  0  0  0  0  0
   20.8746  -10.1351  -17.8812 C   0  0  2  0  0  0  0  0  0  0  0  0
   22.0255   -9.2067  -17.6110 C   0  0  0  0  0  0  0  0  0  0  0  0
   19.9502  -10.3909  -16.7584 C   0  0  2  0  0  0  0  0  0  0  0  0
   18.8464  -11.2696  -17.0566 N   0  0  0  0  0  0  0  0  0  0  0  0
   19.5234   -9.2401  -15.9594 C   0  0  0  0  0  0  0  0  0  0  0  0
   18.6052   -8.4444  -16.3055 O   0  0  0  0  0  0  0  0  0  0  0  0
   20.1427   -8.9514  -14.7220 N   0  0  0  0  0  0  0  0  0  0  0  0
   19.7629   -7.7426  -13.9510 C   0  0  1  0  0  0  0  0  0  0  0  0
   19.7845   -8.0261  -12.4897 C   0  0  0  0  0  0  0  0  0  0  0  0
   18.5866   -8.7424  -12.0667 C   0  0  0  0  0  0  0  0  0  0  0  0
   17.4705   -9.1164  -12.7974 C   0  0  0  0  0  0  0  0  0  0  0  0
   16.5738   -9.7459  -12.0185 N   0  0  0  0  0  0  0  0  0  0  0  0
   17.1020   -9.7805  -10.7929 C   0  0  0  0  0  0  0  0  0  0  0  0
   18.2981   -9.1875  -10.8071 N   0  0  0  0  0  0  0  0  0  0  0  0
   20.7087   -6.6651  -14.2827 C   0  0  0  0  0  0  0  0  0  0  0  0
   21.8051   -6.7841  -15.1194 O   0  0  0  0  0  0  0  0  0  0  0  0
   20.5327   -5.5256  -13.7752 O   0  0  0  0  0  0  0  0  0  0  0  0
  2  1  1  0
  2  3  1  0
  3 10  1  0
  4  3  2  0
  5  6  1  0
  6  7  1  0
  7  8  1  1
  7  9  1  0
  9 11  1  0
  9 10  1  6
 11 12  2  0
 13 11  1  0
 13 14  1  0
 14 21  1  0
 14 15  1  1
 16 15  1  0
 17 16  2  0
 18 19  1  0
 18 17  1  0
 19 20  2  0
 20 16  1  0
 21 23  2  0
 21 22  1  0
M  END
$$$$
