GIH.pdb
     RDKit          3D

 23 23  0  0  1  0  0  0  0  0999 V2000
   28.9807  -19.3030  -16.1473 N   0  0  0  0  0  0  0  0  0  0  0  0
   28.3090  -18.9512  -14.9376 C   0  0  0  0  0  0  0  0  0  0  0  0
   27.3551  -20.0332  -14.4960 C   0  0  0  0  0  0  0  0  0  0  0  0
   27.1121  -21.0172  -15.2220 O   0  0  0  0  0  0  0  0  0  0  0  0
   24.6044  -20.6645   -9.2513 C   0  0  0  0  0  0  0  0  0  0  0  0
   25.3393  -20.0325  -10.4004 C   0  0  0  0  0  0  0  0  0  0  0  0
   25.8777  -21.1346  -11.2929 C   0  0  2  0  0  0  0  0  0  0  0  0
   27.2255  -21.5847  -10.8026 C   0  0  0  0  0  0  0  0  0  0  0  0
   25.7714  -20.7975  -12.7267 C   0  0  2  0  0  0  0  0  0  0  0  0
   26.7562  -19.8643  -13.2152 N   0  0  0  0  0  0  0  0  0  0  0  0
   24.4376  -20.4997  -13.2533 C   0  0  0  0  0  0  0  0  0  0  0  0
   23.9166  -19.3489  -13.2409 O   0  0  0  0  0  0  0  0  0  0  0  0
   23.6395  -21.5216  -13.8161 N   0  0  0  0  0  0  0  0  0  0  0  0
   22.3002  -21.2133  -14.3739 C   0  0  1  0  0  0  0  0  0  0  0  0
   21.9133  -22.2249  -15.3953 C   0  0  0  0  0  0  0  0  0  0  0  0
   20.6613  -21.8684  -16.0528 C   0  0  0  0  0  0  0  0  0  0  0  0
   20.3441  -20.7569  -16.8167 C   0  0  0  0  0  0  0  0  0  0  0  0
   19.0630  -20.8007  -17.2217 N   0  0  0  0  0  0  0  0  0  0  0  0
   18.5522  -21.9298  -16.7253 C   0  0  0  0  0  0  0  0  0  0  0  0
   19.4913  -22.5742  -16.0284 N   0  0  0  0  0  0  0  0  0  0  0  0
   21.3296  -21.1981  -13.2678 C   0  0  0  0  0  0  0  0  0  0  0  0
   20.1962  -20.4060  -13.2007 O   0  0  0  0  0  0  0  0  0  0  0  0
   21.5207  -21.9592  -12.2822 O   0  0  0  0  0  0  0  0  0  0  0  0
  2  1  1  0
  2  3  1  0
  3 10  1  0
  4  3  2  0
  5  6  1  0
  6  7  1  0
  7  8  1  1
  7  9  1  0
  9 11  1  0
  9 10  1  1
 11 12  2  0
 13 11  1  0
 13 14  1  0
 14 21  1  0
 14 15  1  6
 16 15  1  0
 17 16  2  0
 18 19  1  0
 18 17  1  0
 19 20  2  0
 20 16  1  0
 21 23  2  0
 21 22  1  0
M  END
$$$$
