LHV.pdb
     RDKit          3D

 26 26  0  0  1  0  0  0  0  0999 V2000
    7.3725  -12.0634   18.7537 C   0  0  0  0  0  0  0  0  0  0  0  0
    8.1187  -13.3308   18.8930 C   0  0  1  0  0  0  0  0  0  0  0  0
    9.6110  -13.0109   18.8462 C   0  0  0  0  0  0  0  0  0  0  0  0
    7.8709  -14.0871   20.1613 C   0  0  0  0  0  0  0  0  0  0  0  0
    8.6415  -15.3667   20.2699 C   0  0  2  0  0  0  0  0  0  0  0  0
    8.0687  -16.3193   19.3552 N   0  0  0  0  0  0  0  0  0  0  0  0
    8.4575  -15.8985   21.6456 C   0  0  0  0  0  0  0  0  0  0  0  0
    7.3179  -16.1949   22.1078 O   0  0  0  0  0  0  0  0  0  0  0  0
    9.5811  -16.0850   22.4770 N   0  0  0  0  0  0  0  0  0  0  0  0
    9.4881  -16.6185   23.8221 C   0  0  1  0  0  0  0  0  0  0  0  0
   10.6292  -17.5854   24.0712 C   0  0  0  0  0  0  0  0  0  0  0  0
   10.4529  -18.8473   23.3251 C   0  0  0  0  0  0  0  0  0  0  0  0
    9.2787  -19.5873   23.4151 C   0  0  0  0  0  0  0  0  0  0  0  0
    9.3889  -20.6795   22.6400 N   0  0  0  0  0  0  0  0  0  0  0  0
   10.6040  -20.6096   22.0874 C   0  0  0  0  0  0  0  0  0  0  0  0
   11.2498  -19.5124   22.4935 N   0  0  0  0  0  0  0  0  0  0  0  0
    9.5438  -15.4856   24.7693 C   0  0  0  0  0  0  0  0  0  0  0  0
   10.5897  -14.8447   24.9138 O   0  0  0  0  0  0  0  0  0  0  0  0
    6.9320  -12.2827   27.5013 C   0  0  0  0  0  0  0  0  0  0  0  0
    7.0302  -13.3922   26.5098 C   0  0  1  0  0  0  0  0  0  0  0  0
    6.5857  -12.9155   25.1672 C   0  0  0  0  0  0  0  0  0  0  0  0
    8.3825  -14.0591   26.4864 C   0  0  2  0  0  0  0  0  0  0  0  0
    8.3736  -15.1331   25.5221 N   0  0  0  0  0  0  0  0  0  0  0  0
    8.8439  -14.4753   27.8150 C   0  0  0  0  0  0  0  0  0  0  0  0
    9.2586  -13.5318   28.7255 O   0  0  0  0  0  0  0  0  0  0  0  0
    8.8684  -15.6770   28.1390 O   0  0  0  0  0  0  0  0  0  0  0  0
  2  1  1  1
  2  3  1  0
  4  2  1  0
  5  6  1  6
  5  4  1  0
  7  5  1  0
  8  7  2  0
  9  7  1  0
 10  9  1  0
 11 12  1  0
 10 11  1  1
 12 16  1  0
 13 12  2  0
 13 14  1  0
 14 15  1  0
 16 15  2  0
 17 10  1  0
 17 18  2  0
 20 19  1  1
 20 22  1  0
 20 21  1  0
 22 23  1  6
 23 17  1  0
 24 22  1  0
 25 24  1  0
 26 24  2  0
M  END
$$$$
