LHV.pdb
     RDKit          3D

 26 26  0  0  1  0  0  0  0  0999 V2000
    7.9976  -11.9597   18.5691 C   0  0  0  0  0  0  0  0  0  0  0  0
    8.4523  -13.3416   18.8258 C   0  0  1  0  0  0  0  0  0  0  0  0
    9.8358  -13.2747   19.4684 C   0  0  0  0  0  0  0  0  0  0  0  0
    7.5813  -14.1459   19.7405 C   0  0  0  0  0  0  0  0  0  0  0  0
    8.1593  -15.4734   20.1234 C   0  0  2  0  0  0  0  0  0  0  0  0
    7.7083  -16.4550   19.1720 N   0  0  0  0  0  0  0  0  0  0  0  0
    7.6076  -15.8488   21.4515 C   0  0  0  0  0  0  0  0  0  0  0  0
    6.3637  -15.9118   21.6724 O   0  0  0  0  0  0  0  0  0  0  0  0
    8.4872  -16.1480   22.5124 N   0  0  0  0  0  0  0  0  0  0  0  0
    8.0290  -16.5379   23.8317 C   0  0  1  0  0  0  0  0  0  0  0  0
    8.4887  -17.9498   24.1387 C   0  0  0  0  0  0  0  0  0  0  0  0
    8.1088  -18.3670   25.5032 C   0  0  0  0  0  0  0  0  0  0  0  0
    7.2086  -17.6295   26.2649 C   0  0  0  0  0  0  0  0  0  0  0  0
    7.0460  -18.2316   27.4552 N   0  0  0  0  0  0  0  0  0  0  0  0
    7.8296  -19.3140   27.4229 C   0  0  0  0  0  0  0  0  0  0  0  0
    8.4716  -19.4030   26.2542 N   0  0  0  0  0  0  0  0  0  0  0  0
    8.5839  -15.5805   24.8111 C   0  0  0  0  0  0  0  0  0  0  0  0
    9.8000  -15.3687   24.8555 O   0  0  0  0  0  0  0  0  0  0  0  0
    7.0776  -12.0573   25.6023 C   0  0  0  0  0  0  0  0  0  0  0  0
    7.2552  -12.8277   26.8667 C   0  0  1  0  0  0  0  0  0  0  0  0
    5.9231  -13.2035   27.4248 C   0  0  0  0  0  0  0  0  0  0  0  0
    8.1945  -13.9994   26.7295 C   0  0  2  0  0  0  0  0  0  0  0  0
    7.7007  -14.8966   25.7124 N   0  0  0  0  0  0  0  0  0  0  0  0
    8.4756  -14.6663   28.0053 C   0  0  0  0  0  0  0  0  0  0  0  0
    9.1775  -14.0059   28.9863 O   0  0  0  0  0  0  0  0  0  0  0  0
    8.0882  -15.8295   28.2209 O   0  0  0  0  0  0  0  0  0  0  0  0
  2  1  1  1
  2  3  1  0
  4  2  1  0
  5  6  1  6
  5  4  1  0
  7  5  1  0
  8  7  2  0
  9  7  1  0
 10  9  1  0
 11 12  1  0
 10 11  1  1
 12 16  1  0
 13 12  2  0
 13 14  1  0
 14 15  1  0
 16 15  2  0
 17 10  1  0
 17 18  2  0
 20 19  1  6
 20 22  1  0
 20 21  1  0
 22 23  1  6
 23 17  1  0
 24 22  1  0
 25 24  1  0
 26 24  2  0
M  END
$$$$
