LHV.pdb
     RDKit          3D

 26 26  0  0  1  0  0  0  0  0999 V2000
    7.8350  -12.3330   18.2768 C   0  0  0  0  0  0  0  0  0  0  0  0
    8.2928  -13.6701   18.7068 C   0  0  1  0  0  0  0  0  0  0  0  0
    9.7848  -13.5831   19.0202 C   0  0  0  0  0  0  0  0  0  0  0  0
    7.6189  -14.2195   19.9258 C   0  0  0  0  0  0  0  0  0  0  0  0
    8.1712  -15.5321   20.3897 C   0  0  2  0  0  0  0  0  0  0  0  0
    7.6212  -16.5730   19.5613 N   0  0  0  0  0  0  0  0  0  0  0  0
    7.6960  -15.7654   21.7786 C   0  0  0  0  0  0  0  0  0  0  0  0
    6.4667  -15.8346   22.0687 O   0  0  0  0  0  0  0  0  0  0  0  0
    8.6343  -15.9170   22.8203 N   0  0  0  0  0  0  0  0  0  0  0  0
    8.2587  -16.2659   24.1766 C   0  0  1  0  0  0  0  0  0  0  0  0
    8.8326  -17.6226   24.5356 C   0  0  0  0  0  0  0  0  0  0  0  0
    8.0976  -18.7216   23.8782 C   0  0  0  0  0  0  0  0  0  0  0  0
    6.7647  -18.9851   24.1756 C   0  0  0  0  0  0  0  0  0  0  0  0
    6.3499  -20.0297   23.4389 N   0  0  0  0  0  0  0  0  0  0  0  0
    7.4058  -20.3976   22.7065 C   0  0  0  0  0  0  0  0  0  0  0  0
    8.4597  -19.6173   22.9641 N   0  0  0  0  0  0  0  0  0  0  0  0
    8.7804  -15.2194   25.0802 C   0  0  0  0  0  0  0  0  0  0  0  0
    9.9798  -14.9246   25.0657 O   0  0  0  0  0  0  0  0  0  0  0  0
    6.7919  -11.8502   25.9772 C   0  0  0  0  0  0  0  0  0  0  0  0
    7.2580  -12.5654   27.1999 C   0  0  1  0  0  0  0  0  0  0  0  0
    6.0907  -13.1491   27.9240 C   0  0  0  0  0  0  0  0  0  0  0  0
    8.3517  -13.5677   26.9295 C   0  0  2  0  0  0  0  0  0  0  0  0
    7.8843  -14.5460   25.9768 N   0  0  0  0  0  0  0  0  0  0  0  0
    8.9032  -14.1639   28.1509 C   0  0  0  0  0  0  0  0  0  0  0  0
    9.6063  -13.3846   29.0395 O   0  0  0  0  0  0  0  0  0  0  0  0
    8.7465  -15.3729   28.4027 O   0  0  0  0  0  0  0  0  0  0  0  0
  2  1  1  1
  2  3  1  0
  4  2  1  0
  5  6  1  6
  5  4  1  0
  7  5  1  0
  8  7  2  0
  9  7  1  0
 10  9  1  0
 11 12  1  0
 10 11  1  1
 12 16  1  0
 13 12  2  0
 13 14  1  0
 14 15  1  0
 16 15  2  0
 17 10  1  0
 17 18  2  0
 20 19  1  6
 20 22  1  0
 20 21  1  0
 22 23  1  6
 23 17  1  0
 24 22  1  0
 25 24  1  0
 26 24  2  0
M  END
$$$$
