LHV.pdb
     RDKit          3D

 26 26  0  0  1  0  0  0  0  0999 V2000
    6.9506  -12.9648   17.6333 C   0  0  0  0  0  0  0  0  0  0  0  0
    7.9727  -13.6807   18.4239 C   0  0  1  0  0  0  0  0  0  0  0  0
    9.2001  -12.7798   18.5404 C   0  0  0  0  0  0  0  0  0  0  0  0
    7.5657  -14.0512   19.8165 C   0  0  0  0  0  0  0  0  0  0  0  0
    8.6283  -14.7651   20.5938 C   0  0  2  0  0  0  0  0  0  0  0  0
    8.9113  -16.0126   19.9337 N   0  0  0  0  0  0  0  0  0  0  0  0
    8.0791  -15.0829   21.9379 C   0  0  0  0  0  0  0  0  0  0  0  0
    7.3931  -14.2518   22.6005 O   0  0  0  0  0  0  0  0  0  0  0  0
    8.3216  -16.3494   22.5085 N   0  0  0  0  0  0  0  0  0  0  0  0
    7.8690  -16.7170   23.8361 C   0  0  1  0  0  0  0  0  0  0  0  0
    8.1279  -18.1914   24.0771 C   0  0  0  0  0  0  0  0  0  0  0  0
    7.6861  -18.6144   25.4210 C   0  0  0  0  0  0  0  0  0  0  0  0
    6.5026  -18.1430   25.9793 C   0  0  0  0  0  0  0  0  0  0  0  0
    6.3472  -18.6856   27.1988 N   0  0  0  0  0  0  0  0  0  0  0  0
    7.4123  -19.4720   27.3832 C   0  0  0  0  0  0  0  0  0  0  0  0
    8.2216  -19.4351   26.3203 N   0  0  0  0  0  0  0  0  0  0  0  0
    8.6019  -15.8883   24.8160 C   0  0  0  0  0  0  0  0  0  0  0  0
    9.8360  -15.9182   24.8583 O   0  0  0  0  0  0  0  0  0  0  0  0
    7.6773  -12.1197   25.5921 C   0  0  0  0  0  0  0  0  0  0  0  0
    7.7683  -12.9188   26.8479 C   0  0  1  0  0  0  0  0  0  0  0  0
    6.4064  -13.1144   27.4262 C   0  0  0  0  0  0  0  0  0  0  0  0
    8.5363  -14.2064   26.6864 C   0  0  2  0  0  0  0  0  0  0  0  0
    7.8707  -15.0469   25.7201 N   0  0  0  0  0  0  0  0  0  0  0  0
    8.8019  -14.8837   27.9600 C   0  0  0  0  0  0  0  0  0  0  0  0
    8.2700  -16.1289   28.2005 O   0  0  0  0  0  0  0  0  0  0  0  0
    9.5058  -14.3496   28.8369 O   0  0  0  0  0  0  0  0  0  0  0  0
  2  1  1  1
  2  3  1  0
  4  2  1  0
  5  6  1  6
  5  4  1  0
  7  5  1  0
  8  7  2  0
  9  7  1  0
 10  9  1  0
 11 12  1  0
 10 11  1  1
 12 16  1  0
 13 12  2  0
 13 14  1  0
 14 15  1  0
 16 15  2  0
 17 10  1  0
 17 18  2  0
 20 19  1  6
 20 22  1  0
 20 21  1  0
 22 23  1  6
 23 17  1  0
 24 22  1  0
 25 24  1  0
 26 24  2  0
M  END
$$$$
