LHV.pdb
     RDKit          3D

 26 26  0  0  1  0  0  0  0  0999 V2000
    7.3268  -11.9290   19.1305 C   0  0  0  0  0  0  0  0  0  0  0  0
    8.2401  -13.0895   19.0908 C   0  0  1  0  0  0  0  0  0  0  0  0
    9.6528  -12.5926   19.3896 C   0  0  0  0  0  0  0  0  0  0  0  0
    7.9400  -14.1782   20.0740 C   0  0  0  0  0  0  0  0  0  0  0  0
    8.9757  -15.2589   20.1236 C   0  0  2  0  0  0  0  0  0  0  0  0
    8.7039  -16.1955   19.0647 N   0  0  0  0  0  0  0  0  0  0  0  0
    8.8233  -15.9825   21.4129 C   0  0  0  0  0  0  0  0  0  0  0  0
    7.7856  -16.6487   21.6945 O   0  0  0  0  0  0  0  0  0  0  0  0
    9.8617  -15.9350   22.3659 N   0  0  0  0  0  0  0  0  0  0  0  0
    9.7786  -16.5892   23.6573 C   0  0  1  0  0  0  0  0  0  0  0  0
   10.9342  -17.5577   23.8176 C   0  0  0  0  0  0  0  0  0  0  0  0
   10.7673  -18.7570   22.9726 C   0  0  0  0  0  0  0  0  0  0  0  0
    9.7280  -19.6567   23.1842 C   0  0  0  0  0  0  0  0  0  0  0  0
    9.8146  -20.6464   22.2793 N   0  0  0  0  0  0  0  0  0  0  0  0
   10.8836  -20.3589   21.5301 C   0  0  0  0  0  0  0  0  0  0  0  0
   11.4618  -19.2257   21.9397 N   0  0  0  0  0  0  0  0  0  0  0  0
    9.8191  -15.5459   24.7031 C   0  0  0  0  0  0  0  0  0  0  0  0
   10.8726  -14.9496   24.9483 O   0  0  0  0  0  0  0  0  0  0  0  0
    7.1633  -12.4442   27.4905 C   0  0  0  0  0  0  0  0  0  0  0  0
    7.2956  -13.4787   26.4246 C   0  0  1  0  0  0  0  0  0  0  0  0
    7.0008  -12.8760   25.0914 C   0  0  0  0  0  0  0  0  0  0  0  0
    8.6087  -14.2190   26.4654 C   0  0  2  0  0  0  0  0  0  0  0  0
    8.6252  -15.2285   25.4339 N   0  0  0  0  0  0  0  0  0  0  0  0
    8.9348  -14.7429   27.7960 C   0  0  0  0  0  0  0  0  0  0  0  0
    9.3602  -13.8885   28.7861 O   0  0  0  0  0  0  0  0  0  0  0  0
    8.8336  -15.9572   28.0506 O   0  0  0  0  0  0  0  0  0  0  0  0
  2  1  1  1
  2  3  1  0
  4  2  1  0
  5  6  1  6
  5  4  1  0
  7  5  1  0
  8  7  2  0
  9  7  1  0
 10  9  1  0
 11 12  1  0
 10 11  1  1
 12 16  1  0
 13 12  2  0
 13 14  1  0
 14 15  1  0
 16 15  2  0
 17 10  1  0
 17 18  2  0
 20 19  1  1
 20 22  1  0
 20 21  1  0
 22 23  1  6
 23 17  1  0
 24 22  1  0
 25 24  1  0
 26 24  2  0
M  END
$$$$
