LHV.pdb
     RDKit          3D

 26 26  0  0  1  0  0  0  0  0999 V2000
    7.0672  -12.4194   18.0983 C   0  0  0  0  0  0  0  0  0  0  0  0
    7.9426  -13.4424   18.7062 C   0  0  1  0  0  0  0  0  0  0  0  0
    9.3396  -12.8442   18.8553 C   0  0  0  0  0  0  0  0  0  0  0  0
    7.5241  -13.9246   20.0607 C   0  0  0  0  0  0  0  0  0  0  0  0
    8.4433  -14.9462   20.6561 C   0  0  2  0  0  0  0  0  0  0  0  0
    8.4382  -16.1091   19.8078 N   0  0  0  0  0  0  0  0  0  0  0  0
    7.8888  -15.3499   21.9747 C   0  0  0  0  0  0  0  0  0  0  0  0
    7.0703  -14.6267   22.6128 O   0  0  0  0  0  0  0  0  0  0  0  0
    8.2781  -16.5780   22.5482 N   0  0  0  0  0  0  0  0  0  0  0  0
    7.8354  -17.0130   23.8587 C   0  0  1  0  0  0  0  0  0  0  0  0
    8.2924  -18.4369   24.1087 C   0  0  0  0  0  0  0  0  0  0  0  0
    7.8266  -18.9420   25.4157 C   0  0  0  0  0  0  0  0  0  0  0  0
    6.9209  -18.2259   26.1911 C   0  0  0  0  0  0  0  0  0  0  0  0
    6.6730  -18.9115   27.3200 N   0  0  0  0  0  0  0  0  0  0  0  0
    7.4109  -20.0230   27.2375 C   0  0  0  0  0  0  0  0  0  0  0  0
    8.1069  -20.0494   26.0969 N   0  0  0  0  0  0  0  0  0  0  0  0
    8.4077  -16.0937   24.8643 C   0  0  0  0  0  0  0  0  0  0  0  0
    9.6285  -15.9143   24.9215 O   0  0  0  0  0  0  0  0  0  0  0  0
    7.2910  -12.3795   27.9858 C   0  0  0  0  0  0  0  0  0  0  0  0
    6.8810  -13.4867   27.0748 C   0  0  1  0  0  0  0  0  0  0  0  0
    6.1290  -12.9346   25.9098 C   0  0  0  0  0  0  0  0  0  0  0  0
    8.0213  -14.3881   26.6734 C   0  0  2  0  0  0  0  0  0  0  0  0
    7.5359  -15.4090   25.7760 N   0  0  0  0  0  0  0  0  0  0  0  0
    8.7622  -14.9264   27.8191 C   0  0  0  0  0  0  0  0  0  0  0  0
    8.6200  -16.2485   28.1701 O   0  0  0  0  0  0  0  0  0  0  0  0
    9.5250  -14.2043   28.4872 O   0  0  0  0  0  0  0  0  0  0  0  0
  2  1  1  1
  2  3  1  0
  4  2  1  0
  5  6  1  6
  5  4  1  0
  7  5  1  0
  8  7  2  0
  9  7  1  0
 10  9  1  0
 11 12  1  0
 10 11  1  1
 12 16  1  0
 13 12  2  0
 13 14  1  0
 14 15  1  0
 16 15  2  0
 17 10  1  0
 17 18  2  0
 20 19  1  6
 20 22  1  0
 20 21  1  0
 22 23  1  1
 23 17  1  0
 24 22  1  0
 25 24  1  0
 26 24  2  0
M  END
$$$$
