LHV.pdb
     RDKit          3D

 26 26  0  0  1  0  0  0  0  0999 V2000
    7.8694  -12.3496   18.5117 C   0  0  0  0  0  0  0  0  0  0  0  0
    8.0831  -13.7894   18.7642 C   0  0  1  0  0  0  0  0  0  0  0  0
    9.5380  -13.9873   19.1833 C   0  0  0  0  0  0  0  0  0  0  0  0
    7.2305  -14.3871   19.8404 C   0  0  0  0  0  0  0  0  0  0  0  0
    7.5293  -15.8263   20.1275 C   0  0  2  0  0  0  0  0  0  0  0  0
    6.7280  -16.6389   19.2502 N   0  0  0  0  0  0  0  0  0  0  0  0
    7.1022  -16.1149   21.5216 C   0  0  0  0  0  0  0  0  0  0  0  0
    5.9041  -15.9758   21.9030 O   0  0  0  0  0  0  0  0  0  0  0  0
    8.0523  -16.5598   22.4639 N   0  0  0  0  0  0  0  0  0  0  0  0
    7.7107  -16.8904   23.8338 C   0  0  1  0  0  0  0  0  0  0  0  0
    8.2069  -18.2843   24.1648 C   0  0  0  0  0  0  0  0  0  0  0  0
    7.9907  -18.6215   25.5860 C   0  0  0  0  0  0  0  0  0  0  0  0
    6.8874  -18.1456   26.2865 C   0  0  0  0  0  0  0  0  0  0  0  0
    6.9399  -18.6028   27.5491 N   0  0  0  0  0  0  0  0  0  0  0  0
    8.0510  -19.3424   27.6200 C   0  0  0  0  0  0  0  0  0  0  0  0
    8.6882  -19.3590   26.4453 N   0  0  0  0  0  0  0  0  0  0  0  0
    8.3382  -15.8860   24.7177 C   0  0  0  0  0  0  0  0  0  0  0  0
    9.5388  -15.6189   24.6040 O   0  0  0  0  0  0  0  0  0  0  0  0
    7.5393  -12.2306   27.9852 C   0  0  0  0  0  0  0  0  0  0  0  0
    7.0323  -13.3184   27.1000 C   0  0  1  0  0  0  0  0  0  0  0  0
    6.2238  -12.7352   25.9894 C   0  0  0  0  0  0  0  0  0  0  0  0
    8.1122  -14.2555   26.6208 C   0  0  2  0  0  0  0  0  0  0  0  0
    7.5438  -15.2212   25.7112 N   0  0  0  0  0  0  0  0  0  0  0  0
    8.8735  -14.8667   27.7154 C   0  0  0  0  0  0  0  0  0  0  0  0
    9.8350  -14.1377   28.3751 O   0  0  0  0  0  0  0  0  0  0  0  0
    8.6653  -16.0437   28.0634 O   0  0  0  0  0  0  0  0  0  0  0  0
  2  1  1  1
  2  3  1  0
  4  2  1  0
  5  6  1  6
  5  4  1  0
  7  5  1  0
  8  7  2  0
  9  7  1  0
 10  9  1  0
 11 12  1  0
 10 11  1  1
 12 16  1  0
 13 12  2  0
 13 14  1  0
 14 15  1  0
 16 15  2  0
 17 10  1  0
 17 18  2  0
 20 19  1  6
 20 22  1  0
 20 21  1  0
 22 23  1  1
 23 17  1  0
 24 22  1  0
 25 24  1  0
 26 24  2  0
M  END
$$$$
