LHV.pdb
     RDKit          3D

 26 26  0  0  1  0  0  0  0  0999 V2000
    6.7074  -12.9899   17.5920 C   0  0  0  0  0  0  0  0  0  0  0  0
    7.8543  -13.5839   18.3091 C   0  0  1  0  0  0  0  0  0  0  0  0
    9.1024  -12.7762   17.9605 C   0  0  0  0  0  0  0  0  0  0  0  0
    7.7424  -13.5973   19.8023 C   0  0  0  0  0  0  0  0  0  0  0  0
    8.9121  -14.2237   20.4968 C   0  0  2  0  0  0  0  0  0  0  0  0
    9.3950  -15.3078   19.6822 N   0  0  0  0  0  0  0  0  0  0  0  0
    8.4292  -14.8045   21.7769 C   0  0  0  0  0  0  0  0  0  0  0  0
    7.3336  -14.4568   22.3051 O   0  0  0  0  0  0  0  0  0  0  0  0
    9.2068  -15.7774   22.4383 N   0  0  0  0  0  0  0  0  0  0  0  0
    8.8521  -16.3250   23.7332 C   0  0  1  0  0  0  0  0  0  0  0  0
    9.6058  -17.6196   23.9673 C   0  0  0  0  0  0  0  0  0  0  0  0
    9.1687  -18.6848   23.0429 C   0  0  0  0  0  0  0  0  0  0  0  0
    7.8486  -18.7801   22.6154 C   0  0  0  0  0  0  0  0  0  0  0  0
    7.7314  -19.8318   21.7872 N   0  0  0  0  0  0  0  0  0  0  0  0
    8.9531  -20.3687   21.7093 C   0  0  0  0  0  0  0  0  0  0  0  0
    9.8224  -19.6860   22.4605 N   0  0  0  0  0  0  0  0  0  0  0  0
    9.1959  -15.3235   24.7641 C   0  0  0  0  0  0  0  0  0  0  0  0
   10.3467  -14.8820   24.8448 O   0  0  0  0  0  0  0  0  0  0  0  0
    7.3575  -12.0361   25.3649 C   0  0  0  0  0  0  0  0  0  0  0  0
    7.3858  -12.8072   26.6410 C   0  0  1  0  0  0  0  0  0  0  0  0
    6.0239  -13.3358   26.9463 C   0  0  0  0  0  0  0  0  0  0  0  0
    8.4575  -13.8674   26.6788 C   0  0  2  0  0  0  0  0  0  0  0  0
    8.1837  -14.8656   25.6728 N   0  0  0  0  0  0  0  0  0  0  0  0
    8.6636  -14.4324   28.0165 C   0  0  0  0  0  0  0  0  0  0  0  0
    8.4340  -15.7696   28.2411 O   0  0  0  0  0  0  0  0  0  0  0  0
    9.0460  -13.7195   28.9627 O   0  0  0  0  0  0  0  0  0  0  0  0
  2  1  1  6
  2  3  1  0
  4  2  1  0
  5  6  1  6
  5  4  1  0
  7  5  1  0
  8  7  2  0
  9  7  1  0
 10  9  1  0
 11 12  1  0
 10 11  1  1
 12 16  1  0
 13 12  2  0
 13 14  1  0
 14 15  1  0
 16 15  2  0
 17 10  1  0
 17 18  2  0
 20 19  1  6
 20 22  1  0
 20 21  1  0
 22 23  1  6
 23 17  1  0
 24 22  1  0
 25 24  1  0
 26 24  2  0
M  END
$$$$
