KYV.pdb
     RDKit          3D

 29 29  0  0  1  0  0  0  0  0999 V2000
    6.3310  -17.0610   19.6118 N   0  0  0  0  0  0  0  0  0  0  0  0
    7.4925  -16.6134   20.3169 C   0  0  1  0  0  0  0  0  0  0  0  0
    7.8062  -15.1948   19.9106 C   0  0  0  0  0  0  0  0  0  0  0  0
    7.2529  -14.9090   18.5358 C   0  0  0  0  0  0  0  0  0  0  0  0
    7.5510  -13.5271   18.0496 C   0  0  0  0  0  0  0  0  0  0  0  0
    8.2262  -13.5422   16.6887 C   0  0  0  0  0  0  0  0  0  0  0  0
    8.5334  -12.2259   16.2050 N   0  0  0  0  0  0  0  0  0  0  0  0
    7.2720  -16.7352   21.7782 C   0  0  0  0  0  0  0  0  0  0  0  0
    6.1248  -16.5685   22.2403 O   0  0  0  0  0  0  0  0  0  0  0  0
    8.5972  -18.6813   30.2864 O   0  0  0  0  0  0  0  0  0  0  0  0
    8.7160  -18.5650   28.9114 C   0  0  0  0  0  0  0  0  0  0  0  0
    7.6298  -18.7615   28.0869 C   0  0  0  0  0  0  0  0  0  0  0  0
    7.7690  -18.6410   26.7189 C   0  0  0  0  0  0  0  0  0  0  0  0
    8.9636  -18.3272   26.1148 C   0  0  0  0  0  0  0  0  0  0  0  0
    9.0806  -18.2050   24.6430 C   0  0  0  0  0  0  0  0  0  0  0  0
    8.1723  -17.1063   24.1088 C   0  0  2  0  0  0  0  0  0  0  0  0
    8.3278  -17.0382   22.6879 N   0  0  0  0  0  0  0  0  0  0  0  0
    8.4706  -15.8064   24.7743 C   0  0  0  0  0  0  0  0  0  0  0  0
    9.5365  -15.1652   24.5315 O   0  0  0  0  0  0  0  0  0  0  0  0
   10.0594  -18.1296   26.9569 C   0  0  0  0  0  0  0  0  0  0  0  0
    9.9397  -18.2458   28.3265 C   0  0  0  0  0  0  0  0  0  0  0  0
    5.8637  -12.7158   25.3423 C   0  0  0  0  0  0  0  0  0  0  0  0
    6.5641  -13.1753   26.6231 C   0  0  2  0  0  0  0  0  0  0  0  0
    6.9272  -11.9157   27.3754 C   0  0  0  0  0  0  0  0  0  0  0  0
    7.8235  -13.9268   26.3223 C   0  0  2  0  0  0  0  0  0  0  0  0
    7.5842  -15.2126   25.7140 N   0  0  0  0  0  0  0  0  0  0  0  0
    8.5676  -14.1073   27.5905 C   0  0  0  0  0  0  0  0  0  0  0  0
    8.4745  -15.2076   28.1870 O   0  0  0  0  0  0  0  0  0  0  0  0
    9.3618  -13.1245   28.1530 O   0  0  0  0  0  0  0  0  0  0  0  0
  2  1  1  6
  3  2  1  0
  4  3  1  0
  5  4  1  0
  6  5  1  0
  7  6  1  0
  8  9  2  0
  8  2  1  0
 10 11  1  0
 11 12  2  0
 12 13  1  0
 14 13  2  0
 14 15  1  0
 16 15  1  1
 16 17  1  0
 17  8  1  0
 18 26  1  0
 18 16  1  0
 19 18  2  0
 20 14  1  0
 21 11  1  0
 21 20  2  0
 23 22  1  6
 23 25  1  0
 23 24  1  0
 25 27  1  0
 25 26  1  1
 27 29  1  0
 28 27  2  0
M  END
$$$$
