KYV.pdb
     RDKit          3D

 29 29  0  0  1  0  0  0  0  0999 V2000
    4.6117  -21.0301   23.5250 N   0  0  0  0  0  0  0  0  0  0  0  0
    5.9313  -20.4901   23.6417 C   0  0  1  0  0  0  0  0  0  0  0  0
    6.7399  -20.8841   22.4306 C   0  0  0  0  0  0  0  0  0  0  0  0
    7.0305  -22.3650   22.4537 C   0  0  0  0  0  0  0  0  0  0  0  0
    7.8812  -22.8226   21.3127 C   0  0  0  0  0  0  0  0  0  0  0  0
    8.1042  -24.3251   21.3436 C   0  0  0  0  0  0  0  0  0  0  0  0
    8.9622  -24.7824   20.2874 N   0  0  0  0  0  0  0  0  0  0  0  0
    5.8600  -19.0180   23.8051 C   0  0  0  0  0  0  0  0  0  0  0  0
    5.0240  -18.3685   23.1444 O   0  0  0  0  0  0  0  0  0  0  0  0
    7.3709  -10.8187   26.7098 O   0  0  0  0  0  0  0  0  0  0  0  0
    7.3424  -12.1966   26.5723 C   0  0  0  0  0  0  0  0  0  0  0  0
    8.5009  -12.9123   26.3634 C   0  0  0  0  0  0  0  0  0  0  0  0
    8.4512  -14.2851   26.2289 C   0  0  0  0  0  0  0  0  0  0  0  0
    7.2782  -14.9995   26.2934 C   0  0  0  0  0  0  0  0  0  0  0  0
    7.2579  -16.4735   26.1452 C   0  0  0  0  0  0  0  0  0  0  0  0
    6.8200  -16.8790   24.7447 C   0  0  2  0  0  0  0  0  0  0  0  0
    6.7162  -18.3054   24.6957 N   0  0  0  0  0  0  0  0  0  0  0  0
    7.7635  -16.3441   23.7224 C   0  0  0  0  0  0  0  0  0  0  0  0
    8.8702  -16.9115   23.4787 O   0  0  0  0  0  0  0  0  0  0  0  0
    6.1086  -14.2672   26.5053 C   0  0  0  0  0  0  0  0  0  0  0  0
    6.1385  -12.8946   26.6421 C   0  0  0  0  0  0  0  0  0  0  0  0
    6.3379  -13.5429   20.7461 C   0  0  0  0  0  0  0  0  0  0  0  0
    7.7918  -13.4793   21.2196 C   0  0  2  0  0  0  0  0  0  0  0  0
    8.6203  -13.1969   19.9874 C   0  0  0  0  0  0  0  0  0  0  0  0
    8.2385  -14.7843   21.8016 C   0  0  2  0  0  0  0  0  0  0  0  0
    7.4806  -15.1745   22.9652 N   0  0  0  0  0  0  0  0  0  0  0  0
    9.6714  -14.6644   22.1585 C   0  0  0  0  0  0  0  0  0  0  0  0
    9.9775  -14.5388   23.3692 O   0  0  0  0  0  0  0  0  0  0  0  0
   10.6919  -14.6837   21.2253 O   0  0  0  0  0  0  0  0  0  0  0  0
  2  1  1  6
  3  2  1  0
  4  3  1  0
  5  4  1  0
  6  5  1  0
  7  6  1  0
  8  9  2  0
  8  2  1  0
 10 11  1  0
 11 12  2  0
 12 13  1  0
 14 13  2  0
 14 15  1  0
 16 15  1  1
 16 17  1  0
 17  8  1  0
 18 26  1  0
 18 16  1  0
 19 18  2  0
 20 14  1  0
 21 11  1  0
 21 20  2  0
 23 22  1  6
 23 25  1  0
 23 24  1  0
 25 27  1  0
 25 26  1  1
 27 29  1  0
 28 27  2  0
M  END
$$$$
