KYV.pdb
     RDKit          3D

 29 29  0  0  1  0  0  0  0  0999 V2000
   11.8474  -17.4574   19.9927 N   0  0  0  0  0  0  0  0  0  0  0  0
   10.9575  -17.8904   21.0257 C   0  0  1  0  0  0  0  0  0  0  0  0
   11.5197  -19.1270   21.6818 C   0  0  0  0  0  0  0  0  0  0  0  0
   11.6440  -20.2441   20.6746 C   0  0  0  0  0  0  0  0  0  0  0  0
   12.1570  -21.5200   21.2610 C   0  0  0  0  0  0  0  0  0  0  0  0
   12.3260  -22.5979   20.2037 C   0  0  0  0  0  0  0  0  0  0  0  0
   12.8799  -23.8129   20.7309 N   0  0  0  0  0  0  0  0  0  0  0  0
   10.7466  -16.7932   22.0007 C   0  0  0  0  0  0  0  0  0  0  0  0
   11.6224  -15.9140   22.1318 O   0  0  0  0  0  0  0  0  0  0  0  0
    7.0840  -12.8874   18.3011 O   0  0  0  0  0  0  0  0  0  0  0  0
    7.2620  -13.4509   19.5537 C   0  0  0  0  0  0  0  0  0  0  0  0
    7.8058  -12.7215   20.5883 C   0  0  0  0  0  0  0  0  0  0  0  0
    7.9750  -13.3016   21.8293 C   0  0  0  0  0  0  0  0  0  0  0  0
    7.6218  -14.6025   22.0998 C   0  0  0  0  0  0  0  0  0  0  0  0
    7.8161  -15.1965   23.4431 C   0  0  0  0  0  0  0  0  0  0  0  0
    9.2687  -15.5957   23.6625 C   0  0  2  0  0  0  0  0  0  0  0  0
    9.5717  -16.6996   22.8037 N   0  0  0  0  0  0  0  0  0  0  0  0
    9.5175  -15.9097   25.0981 C   0  0  0  0  0  0  0  0  0  0  0  0
    9.3021  -17.0652   25.5722 O   0  0  0  0  0  0  0  0  0  0  0  0
    7.0714  -15.3350   21.0463 C   0  0  0  0  0  0  0  0  0  0  0  0
    6.8946  -14.7723   19.7990 C   0  0  0  0  0  0  0  0  0  0  0  0
   10.1664  -12.7424   27.8019 C   0  0  0  0  0  0  0  0  0  0  0  0
    9.7413  -14.1213   28.3118 C   0  0  2  0  0  0  0  0  0  0  0  0
   10.3958  -14.2866   29.6641 C   0  0  0  0  0  0  0  0  0  0  0  0
   10.2291  -15.2147   27.4129 C   0  0  2  0  0  0  0  0  0  0  0  0
   10.0075  -14.9394   26.0145 N   0  0  0  0  0  0  0  0  0  0  0  0
    9.5332  -16.4672   27.7897 C   0  0  0  0  0  0  0  0  0  0  0  0
    8.3534  -16.6370   27.3969 O   0  0  0  0  0  0  0  0  0  0  0  0
   10.1171  -17.4617   28.5532 O   0  0  0  0  0  0  0  0  0  0  0  0
  2  1  1  6
  3  2  1  0
  4  3  1  0
  5  4  1  0
  6  5  1  0
  7  6  1  0
  8  9  2  0
  8  2  1  0
 10 11  1  0
 11 12  2  0
 12 13  1  0
 14 13  2  0
 14 15  1  0
 16 15  1  1
 16 17  1  0
 17  8  1  0
 18 26  1  0
 18 16  1  0
 19 18  2  0
 20 14  1  0
 21 11  1  0
 21 20  2  0
 23 22  1  6
 23 25  1  0
 23 24  1  0
 25 27  1  0
 25 26  1  6
 27 29  1  0
 28 27  2  0
M  END
$$$$
