KYV.pdb
     RDKit          3D

 29 29  0  0  1  0  0  0  0  0999 V2000
    5.9547  -17.5909   20.6836 N   0  0  0  0  0  0  0  0  0  0  0  0
    6.8495  -16.6334   21.2573 C   0  0  1  0  0  0  0  0  0  0  0  0
    6.5273  -15.2629   20.7153 C   0  0  0  0  0  0  0  0  0  0  0  0
    7.1474  -15.0796   19.3516 C   0  0  0  0  0  0  0  0  0  0  0  0
    7.2487  -13.6486   18.9311 C   0  0  0  0  0  0  0  0  0  0  0  0
    8.6667  -13.2782   18.5306 C   0  0  0  0  0  0  0  0  0  0  0  0
    9.1172  -13.9818   17.3632 N   0  0  0  0  0  0  0  0  0  0  0  0
    6.7558  -16.6803   22.7364 C   0  0  0  0  0  0  0  0  0  0  0  0
    5.6318  -16.6893   23.2786 O   0  0  0  0  0  0  0  0  0  0  0  0
    5.5945  -22.3105   26.3447 O   0  0  0  0  0  0  0  0  0  0  0  0
    6.3504  -21.1620   26.1775 C   0  0  0  0  0  0  0  0  0  0  0  0
    6.3687  -20.1787   27.1424 C   0  0  0  0  0  0  0  0  0  0  0  0
    7.1285  -19.0414   26.9568 C   0  0  0  0  0  0  0  0  0  0  0  0
    7.8899  -18.8277   25.8320 C   0  0  0  0  0  0  0  0  0  0  0  0
    8.6953  -17.5958   25.6624 C   0  0  0  0  0  0  0  0  0  0  0  0
    7.8843  -16.4975   24.9888 C   0  0  2  0  0  0  0  0  0  0  0  0
    7.9091  -16.7161   23.5747 N   0  0  0  0  0  0  0  0  0  0  0  0
    8.4059  -15.1525   25.3634 C   0  0  0  0  0  0  0  0  0  0  0  0
    9.6068  -14.8184   25.1343 O   0  0  0  0  0  0  0  0  0  0  0  0
    7.8662  -19.8286   24.8590 C   0  0  0  0  0  0  0  0  0  0  0  0
    7.1128  -20.9721   25.0269 C   0  0  0  0  0  0  0  0  0  0  0  0
    5.8778  -12.4270   27.5551 C   0  0  0  0  0  0  0  0  0  0  0  0
    7.0990  -11.9055   26.7943 C   0  0  2  0  0  0  0  0  0  0  0  0
    6.5937  -11.4798   25.4350 C   0  0  0  0  0  0  0  0  0  0  0  0
    8.1270  -12.9769   26.6031 C   0  0  2  0  0  0  0  0  0  0  0  0
    7.5938  -14.1714   25.9953 N   0  0  0  0  0  0  0  0  0  0  0  0
    8.7018  -13.3071   27.9280 C   0  0  0  0  0  0  0  0  0  0  0  0
    8.4370  -14.4252   28.4329 O   0  0  0  0  0  0  0  0  0  0  0  0
    9.5172  -12.4457   28.6395 O   0  0  0  0  0  0  0  0  0  0  0  0
  2  1  1  6
  3  2  1  0
  4  3  1  0
  5  4  1  0
  6  5  1  0
  7  6  1  0
  8  9  2  0
  8  2  1  0
 10 11  1  0
 11 12  2  0
 12 13  1  0
 14 13  2  0
 14 15  1  0
 16 15  1  1
 16 17  1  0
 17  8  1  0
 18 26  1  0
 18 16  1  0
 19 18  2  0
 20 14  1  0
 21 11  1  0
 21 20  2  0
 23 22  1  1
 23 25  1  0
 23 24  1  0
 25 27  1  0
 25 26  1  1
 27 29  1  0
 28 27  2  0
M  END
$$$$
