KYV.pdb
     RDKit          3D

 29 29  0  0  1  0  0  0  0  0999 V2000
   10.3359  -15.8178   21.1527 N   0  0  0  0  0  0  0  0  0  0  0  0
    9.0372  -16.2721   21.5448 C   0  0  1  0  0  0  0  0  0  0  0  0
    8.6821  -17.5077   20.7556 C   0  0  0  0  0  0  0  0  0  0  0  0
    9.0032  -17.3066   19.2947 C   0  0  0  0  0  0  0  0  0  0  0  0
    8.6956  -18.4995   18.4478 C   0  0  0  0  0  0  0  0  0  0  0  0
    8.9864  -18.2381   16.9797 C   0  0  0  0  0  0  0  0  0  0  0  0
    8.8571  -19.4153   16.1684 N   0  0  0  0  0  0  0  0  0  0  0  0
    9.0116  -16.5218   23.0063 C   0  0  0  0  0  0  0  0  0  0  0  0
    8.1005  -17.2229   23.4917 O   0  0  0  0  0  0  0  0  0  0  0  0
   11.5256  -16.3359   31.5106 O   0  0  0  0  0  0  0  0  0  0  0  0
   11.4547  -16.1402   30.1413 C   0  0  0  0  0  0  0  0  0  0  0  0
   11.1709  -14.8984   29.6164 C   0  0  0  0  0  0  0  0  0  0  0  0
   11.1048  -14.7241   28.2488 C   0  0  0  0  0  0  0  0  0  0  0  0
   11.3118  -15.7481   27.3549 C   0  0  0  0  0  0  0  0  0  0  0  0
   11.2338  -15.5288   25.8917 C   0  0  0  0  0  0  0  0  0  0  0  0
    9.9559  -16.1216   25.3146 C   0  0  2  0  0  0  0  0  0  0  0  0
    9.9956  -15.9885   23.8902 N   0  0  0  0  0  0  0  0  0  0  0  0
    8.7562  -15.4688   25.9113 C   0  0  0  0  0  0  0  0  0  0  0  0
    8.1385  -15.9833   26.8911 O   0  0  0  0  0  0  0  0  0  0  0  0
   11.5988  -17.0033   27.8944 C   0  0  0  0  0  0  0  0  0  0  0  0
   11.6691  -17.1968   29.2587 C   0  0  0  0  0  0  0  0  0  0  0  0
    6.6224  -12.3142   23.8700 C   0  0  0  0  0  0  0  0  0  0  0  0
    6.8066  -12.2469   25.3878 C   0  0  2  0  0  0  0  0  0  0  0  0
    8.0246  -11.3834   25.6229 C   0  0  0  0  0  0  0  0  0  0  0  0
    7.0664  -13.6010   25.9711 C   0  0  2  0  0  0  0  0  0  0  0  0
    8.2370  -14.2395   25.4210 N   0  0  0  0  0  0  0  0  0  0  0  0
    5.8757  -14.4469   25.7231 C   0  0  0  0  0  0  0  0  0  0  0  0
    4.8092  -14.1687   26.3234 O   0  0  0  0  0  0  0  0  0  0  0  0
    5.8776  -15.5296   24.8626 O   0  0  0  0  0  0  0  0  0  0  0  0
  2  1  1  6
  3  2  1  0
  4  3  1  0
  5  4  1  0
  6  5  1  0
  7  6  1  0
  8  9  2  0
  8  2  1  0
 10 11  1  0
 11 12  2  0
 12 13  1  0
 14 13  2  0
 14 15  1  0
 16 15  1  1
 16 17  1  0
 17  8  1  0
 18 26  1  0
 18 16  1  0
 19 18  2  0
 20 14  1  0
 21 11  1  0
 21 20  2  0
 23 22  1  6
 23 25  1  0
 23 24  1  0
 25 27  1  0
 25 26  1  6
 27 29  1  0
 28 27  2  0
M  END
$$$$
