KYV.pdb
     RDKit          3D

 29 29  0  0  1  0  0  0  0  0999 V2000
    6.6678  -17.0464   19.2348 N   0  0  0  0  0  0  0  0  0  0  0  0
    7.3166  -16.0173   19.9876 C   0  0  1  0  0  0  0  0  0  0  0  0
    6.7478  -14.6770   19.5928 C   0  0  0  0  0  0  0  0  0  0  0  0
    7.7628  -13.5860   19.8319 C   0  0  0  0  0  0  0  0  0  0  0  0
    9.0505  -13.8008   19.1035 C   0  0  0  0  0  0  0  0  0  0  0  0
   10.0642  -12.7140   19.4190 C   0  0  0  0  0  0  0  0  0  0  0  0
   11.3468  -12.9589   18.8226 N   0  0  0  0  0  0  0  0  0  0  0  0
    7.1596  -16.2802   21.4384 C   0  0  0  0  0  0  0  0  0  0  0  0
    6.0329  -16.5704   21.8896 O   0  0  0  0  0  0  0  0  0  0  0  0
    9.0228  -18.6157   29.7137 O   0  0  0  0  0  0  0  0  0  0  0  0
    9.0527  -18.3555   28.3537 C   0  0  0  0  0  0  0  0  0  0  0  0
   10.0981  -17.6588   27.7880 C   0  0  0  0  0  0  0  0  0  0  0  0
   10.1092  -17.4097   26.4304 C   0  0  0  0  0  0  0  0  0  0  0  0
    9.1081  -17.8290   25.5863 C   0  0  0  0  0  0  0  0  0  0  0  0
    9.1491  -17.5458   24.1326 C   0  0  0  0  0  0  0  0  0  0  0  0
    8.1485  -16.4622   23.7556 C   0  0  2  0  0  0  0  0  0  0  0  0
    8.2545  -16.2145   22.3501 N   0  0  0  0  0  0  0  0  0  0  0  0
    8.3740  -15.2320   24.5663 C   0  0  0  0  0  0  0  0  0  0  0  0
    9.3689  -14.4743   24.3608 O   0  0  0  0  0  0  0  0  0  0  0  0
    8.0524  -18.5343   26.1670 C   0  0  0  0  0  0  0  0  0  0  0  0
    8.0239  -18.7928   27.5219 C   0  0  0  0  0  0  0  0  0  0  0  0
    5.6138  -12.4705   25.6648 C   0  0  0  0  0  0  0  0  0  0  0  0
    6.4106  -13.0193   26.8506 C   0  0  2  0  0  0  0  0  0  0  0  0
    6.7412  -11.8273   27.7190 C   0  0  0  0  0  0  0  0  0  0  0  0
    7.6928  -13.6517   26.4065 C   0  0  2  0  0  0  0  0  0  0  0  0
    7.4933  -14.8379   25.6105 N   0  0  0  0  0  0  0  0  0  0  0  0
    8.4832  -13.9895   27.6131 C   0  0  0  0  0  0  0  0  0  0  0  0
    8.3732  -15.1425   28.0965 O   0  0  0  0  0  0  0  0  0  0  0  0
    9.3383  -13.0988   28.2363 O   0  0  0  0  0  0  0  0  0  0  0  0
  2  1  1  6
  3  2  1  0
  4  3  1  0
  5  4  1  0
  6  5  1  0
  7  6  1  0
  8  9  2  0
  8  2  1  0
 10 11  1  0
 11 12  2  0
 12 13  1  0
 14 13  2  0
 14 15  1  0
 16 15  1  1
 16 17  1  0
 17  8  1  0
 18 26  1  0
 18 16  1  0
 19 18  2  0
 20 14  1  0
 21 11  1  0
 21 20  2  0
 23 22  1  6
 23 25  1  0
 23 24  1  0
 25 27  1  0
 25 26  1  1
 27 29  1  0
 28 27  2  0
M  END
$$$$
