KYV.pdb
     RDKit          3D

 29 29  0  0  1  0  0  0  0  0999 V2000
   11.3717  -16.6619   19.5854 N   0  0  0  0  0  0  0  0  0  0  0  0
   10.8722  -17.3411   20.7412 C   0  0  1  0  0  0  0  0  0  0  0  0
   11.9220  -18.2980   21.2494 C   0  0  0  0  0  0  0  0  0  0  0  0
   12.0639  -19.4687   20.3076 C   0  0  0  0  0  0  0  0  0  0  0  0
   12.9227  -20.5667   20.8478 C   0  0  0  0  0  0  0  0  0  0  0  0
   12.9406  -21.7736   19.9251 C   0  0  0  0  0  0  0  0  0  0  0  0
   13.8937  -22.7685   20.3283 N   0  0  0  0  0  0  0  0  0  0  0  0
   10.4769  -16.3531   21.7738 C   0  0  0  0  0  0  0  0  0  0  0  0
   11.2367  -15.3965   22.0285 O   0  0  0  0  0  0  0  0  0  0  0  0
    5.5153  -11.5896   27.2907 O   0  0  0  0  0  0  0  0  0  0  0  0
    5.9629  -12.4911   26.3392 C   0  0  0  0  0  0  0  0  0  0  0  0
    5.6908  -13.8368   26.4543 C   0  0  0  0  0  0  0  0  0  0  0  0
    6.1459  -14.7191   25.4952 C   0  0  0  0  0  0  0  0  0  0  0  0
    6.8761  -14.3204   24.4006 C   0  0  0  0  0  0  0  0  0  0  0  0
    7.3505  -15.2924   23.3880 C   0  0  0  0  0  0  0  0  0  0  0  0
    8.8462  -15.5411   23.5236 C   0  0  2  0  0  0  0  0  0  0  0  0
    9.2510  -16.4512   22.4960 N   0  0  0  0  0  0  0  0  0  0  0  0
    9.1750  -16.0441   24.8876 C   0  0  0  0  0  0  0  0  0  0  0  0
    9.1439  -17.2804   25.1649 O   0  0  0  0  0  0  0  0  0  0  0  0
    7.1477  -12.9553   24.2911 C   0  0  0  0  0  0  0  0  0  0  0  0
    6.7012  -12.0585   25.2396 C   0  0  0  0  0  0  0  0  0  0  0  0
   10.6787  -13.3195   27.9233 C   0  0  0  0  0  0  0  0  0  0  0  0
    9.9804  -14.6277   28.3015 C   0  0  2  0  0  0  0  0  0  0  0  0
   10.7152  -15.1589   29.5109 C   0  0  0  0  0  0  0  0  0  0  0  0
   10.0795  -15.6415   27.2044 C   0  0  2  0  0  0  0  0  0  0  0  0
    9.5403  -15.1740   25.9509 N   0  0  0  0  0  0  0  0  0  0  0  0
    9.3542  -16.8596   27.6343 C   0  0  0  0  0  0  0  0  0  0  0  0
    8.1224  -16.9341   27.4056 O   0  0  0  0  0  0  0  0  0  0  0  0
    9.9648  -17.9218   28.2760 O   0  0  0  0  0  0  0  0  0  0  0  0
  2  1  1  6
  3  2  1  0
  4  3  1  0
  5  4  1  0
  6  5  1  0
  7  6  1  0
  8  9  2  0
  8  2  1  0
 10 11  1  0
 11 12  2  0
 12 13  1  0
 14 13  2  0
 14 15  1  0
 16 15  1  1
 16 17  1  0
 17  8  1  0
 18 26  1  0
 18 16  1  0
 19 18  2  0
 20 14  1  0
 21 11  1  0
 21 20  2  0
 23 22  1  6
 23 25  1  0
 23 24  1  0
 25 27  1  0
 25 26  1  6
 27 29  1  0
 28 27  2  0
M  END
$$$$
