VLF.pdb
     RDKit          3D

 27 27  0  0  1  0  0  0  0  0999 V2000
   24.1029  -24.7711  -17.0913 C   0  0  0  0  0  0  0  0  0  0  0  0
   25.1627  -25.8483  -16.9657 C   0  0  1  0  0  0  0  0  0  0  0  0
   25.0515  -26.7597  -18.1458 C   0  0  0  0  0  0  0  0  0  0  0  0
   26.5013  -25.1373  -16.8890 C   0  0  2  0  0  0  0  0  0  0  0  0
   27.5296  -26.1156  -16.6912 N   0  0  0  0  0  0  0  0  0  0  0  0
   26.5238  -24.0582  -15.8978 C   0  0  0  0  0  0  0  0  0  0  0  0
   26.6342  -24.3960  -14.6702 O   0  0  0  0  0  0  0  0  0  0  0  0
   28.2603  -19.2778  -14.2159 C   0  0  0  0  0  0  0  0  0  0  0  0
   27.1720  -19.1496  -15.3479 C   0  0  1  0  0  0  0  0  0  0  0  0
   27.6787  -17.9882  -16.1826 C   0  0  0  0  0  0  0  0  0  0  0  0
   27.1381  -20.4539  -16.0208 C   0  0  0  0  0  0  0  0  0  0  0  0
   26.5552  -21.6040  -15.2824 C   0  0  2  0  0  0  0  0  0  0  0  0
   26.4280  -22.7184  -16.2874 N   0  0  0  0  0  0  0  0  0  0  0  0
   25.2178  -21.3886  -14.7616 C   0  0  0  0  0  0  0  0  0  0  0  0
   24.2117  -21.2969  -15.5721 O   0  0  0  0  0  0  0  0  0  0  0  0
   24.8374  -21.2732  -13.3958 N   0  0  0  0  0  0  0  0  0  0  0  0
   23.4352  -21.0093  -13.0375 C   0  0  1  0  0  0  0  0  0  0  0  0
   23.4546  -21.1029  -11.4962 C   0  0  0  0  0  0  0  0  0  0  0  0
   22.1273  -20.7632  -10.9887 C   0  0  0  0  0  0  0  0  0  0  0  0
   21.0872  -21.6769  -11.1548 C   0  0  0  0  0  0  0  0  0  0  0  0
   19.8209  -21.3989  -10.6819 C   0  0  0  0  0  0  0  0  0  0  0  0
   19.6267  -20.2028  -10.0494 C   0  0  0  0  0  0  0  0  0  0  0  0
   20.6536  -19.2874   -9.8789 C   0  0  0  0  0  0  0  0  0  0  0  0
   21.9151  -19.5695  -10.3524 C   0  0  0  0  0  0  0  0  0  0  0  0
   23.0511  -19.6877  -13.4824 C   0  0  0  0  0  0  0  0  0  0  0  0
   23.8894  -18.7492  -13.4656 O   0  0  0  0  0  0  0  0  0  0  0  0
   21.7938  -19.3890  -13.9366 O   0  0  0  0  0  0  0  0  0  0  0  0
  2  1  1  6
  3  2  1  0
  4  5  1  1
  4  2  1  0
  6  4  1  0
  7  6  2  0
  9  8  1  1
  9 11  1  0
 10  9  1  0
 12 11  1  6
 12 13  1  0
 13  6  1  0
 14 16  1  0
 14 12  1  0
 15 14  2  0
 17 25  1  0
 17 16  1  0
 17 18  1  1
 19 18  1  0
 19 24  2  0
 20 19  1  0
 21 20  2  0
 21 22  1  0
 22 23  2  0
 23 24  1  0
 25 27  1  0
 26 25  2  0
M  END
$$$$
