VLF.pdb
     RDKit          3D

 27 27  0  0  1  0  0  0  0  0999 V2000
   21.8132  -34.6788  -10.7101 C   0  0  0  0  0  0  0  0  0  0  0  0
   20.9577  -35.9249  -10.8317 C   0  0  1  0  0  0  0  0  0  0  0  0
   19.5373  -35.5042  -11.0347 C   0  0  0  0  0  0  0  0  0  0  0  0
   21.5124  -36.7237  -11.9967 C   0  0  2  0  0  0  0  0  0  0  0  0
   20.7330  -37.9168  -12.1473 N   0  0  0  0  0  0  0  0  0  0  0  0
   22.9518  -36.9765  -11.8878 C   0  0  0  0  0  0  0  0  0  0  0  0
   23.3144  -38.0062  -11.2231 O   0  0  0  0  0  0  0  0  0  0  0  0
   26.4406  -38.0891  -14.6039 C   0  0  0  0  0  0  0  0  0  0  0  0
   27.0671  -36.7008  -14.2008 C   0  0  1  0  0  0  0  0  0  0  0  0
   27.6450  -36.1915  -15.5080 C   0  0  0  0  0  0  0  0  0  0  0  0
   25.9643  -35.9115  -13.6386 C   0  0  0  0  0  0  0  0  0  0  0  0
   25.3622  -36.3681  -12.3593 C   0  0  2  0  0  0  0  0  0  0  0  0
   23.8820  -36.1223  -12.4885 N   0  0  0  0  0  0  0  0  0  0  0  0
   25.7826  -35.6309  -11.1819 C   0  0  0  0  0  0  0  0  0  0  0  0
   25.4874  -34.3756  -11.0615 O   0  0  0  0  0  0  0  0  0  0  0  0
   26.5063  -36.1364  -10.0664 N   0  0  0  0  0  0  0  0  0  0  0  0
   26.7871  -35.2694   -8.9115 C   0  0  1  0  0  0  0  0  0  0  0  0
   25.4056  -34.6500   -8.6074 C   0  0  0  0  0  0  0  0  0  0  0  0
   25.4461  -34.0417   -7.2797 C   0  0  0  0  0  0  0  0  0  0  0  0
   25.0409  -34.7961   -6.1793 C   0  0  0  0  0  0  0  0  0  0  0  0
   25.0726  -34.2623   -4.9070 C   0  0  0  0  0  0  0  0  0  0  0  0
   25.5129  -32.9758   -4.7679 C   0  0  0  0  0  0  0  0  0  0  0  0
   25.9181  -32.2171   -5.8550 C   0  0  0  0  0  0  0  0  0  0  0  0
   25.8846  -32.7541   -7.1221 C   0  0  0  0  0  0  0  0  0  0  0  0
   27.2667  -36.0634   -7.8018 C   0  0  0  0  0  0  0  0  0  0  0  0
   27.6221  -35.5020   -6.7330 O   0  0  0  0  0  0  0  0  0  0  0  0
   27.3569  -37.4295   -7.8453 O   0  0  0  0  0  0  0  0  0  0  0  0
  2  1  1  6
  3  2  1  0
  4  5  1  1
  4  2  1  0
  6  4  1  0
  7  6  2  0
  9  8  1  6
  9 11  1  0
 10  9  1  0
 12 11  1  6
 12 13  1  0
 13  6  1  0
 14 16  1  0
 14 12  1  0
 15 14  2  0
 17 25  1  0
 17 16  1  0
 17 18  1  1
 19 18  1  0
 19 24  2  0
 20 19  1  0
 21 20  2  0
 21 22  1  0
 22 23  2  0
 23 24  1  0
 25 27  1  0
 26 25  2  0
M  END
$$$$
