VLF.pdb
     RDKit          3D

 27 27  0  0  1  0  0  0  0  0999 V2000
   26.0895  -32.1320   -6.1611 C   0  0  0  0  0  0  0  0  0  0  0  0
   25.7896  -32.8576   -7.4583 C   0  0  1  0  0  0  0  0  0  0  0  0
   25.3305  -31.8528   -8.4660 C   0  0  0  0  0  0  0  0  0  0  0  0
   27.0671  -33.5673   -7.8674 C   0  0  2  0  0  0  0  0  0  0  0  0
   26.7858  -34.4038   -8.9964 N   0  0  0  0  0  0  0  0  0  0  0  0
   27.7102  -34.2789   -6.7594 C   0  0  0  0  0  0  0  0  0  0  0  0
   27.1657  -35.3683   -6.3717 O   0  0  0  0  0  0  0  0  0  0  0  0
   31.8448  -36.4597   -4.4901 C   0  0  0  0  0  0  0  0  0  0  0  0
   31.9249  -34.9044   -4.2521 C   0  0  1  0  0  0  0  0  0  0  0  0
   33.3972  -34.6001   -4.4572 C   0  0  0  0  0  0  0  0  0  0  0  0
   31.0058  -34.3021   -5.2255 C   0  0  0  0  0  0  0  0  0  0  0  0
   29.5488  -34.5247   -5.0383 C   0  0  2  0  0  0  0  0  0  0  0  0
   28.8700  -33.7802   -6.1577 N   0  0  0  0  0  0  0  0  0  0  0  0
   28.9945  -33.9824   -3.8115 C   0  0  0  0  0  0  0  0  0  0  0  0
   28.9517  -32.7009   -3.6286 O   0  0  0  0  0  0  0  0  0  0  0  0
   28.4437  -34.7132   -2.7225 N   0  0  0  0  0  0  0  0  0  0  0  0
   27.8453  -34.0031   -1.5815 C   0  0  1  0  0  0  0  0  0  0  0  0
   26.6248  -33.3037   -2.2183 C   0  0  0  0  0  0  0  0  0  0  0  0
   25.7728  -32.7831   -1.1517 C   0  0  0  0  0  0  0  0  0  0  0  0
   26.2382  -31.7246   -0.3724 C   0  0  0  0  0  0  0  0  0  0  0  0
   25.4611  -31.1974    0.6390 C   0  0  0  0  0  0  0  0  0  0  0  0
   24.2274  -31.7482    0.8459 C   0  0  0  0  0  0  0  0  0  0  0  0
   23.7550  -32.8005    0.0770 C   0  0  0  0  0  0  0  0  0  0  0  0
   24.5340  -33.3229   -0.9307 C   0  0  0  0  0  0  0  0  0  0  0  0
   27.4417  -34.9503   -0.5656 C   0  0  0  0  0  0  0  0  0  0  0  0
   27.0805  -36.1102   -0.8941 O   0  0  0  0  0  0  0  0  0  0  0  0
   27.4318  -34.6522    0.7713 O   0  0  0  0  0  0  0  0  0  0  0  0
  2  1  1  1
  3  2  1  0
  4  5  1  6
  4  2  1  0
  6  4  1  0
  7  6  2  0
  9  8  1  6
  9 11  1  0
 10  9  1  0
 12 11  1  1
 12 13  1  0
 13  6  1  0
 14 16  1  0
 14 12  1  0
 15 14  2  0
 17 25  1  0
 17 16  1  0
 17 18  1  6
 19 18  1  0
 19 24  2  0
 20 19  1  0
 21 20  2  0
 21 22  1  0
 22 23  2  0
 23 24  1  0
 25 27  1  0
 26 25  2  0
M  END
$$$$
