FDV.pdb
     RDKit          3D

 27 27  0  0  1  0  0  0  0  0999 V2000
    6.1984  -16.6059   24.4651 N   0  0  0  0  0  0  0  0  0  0  0  0
    7.4137  -15.7965   24.4435 C   0  0  1  0  0  0  0  0  0  0  0  0
    7.4657  -14.9355   25.6570 C   0  0  0  0  0  0  0  0  0  0  0  0
    6.7995  -13.6480   25.4515 C   0  0  0  0  0  0  0  0  0  0  0  0
    5.5812  -13.3302   26.0596 C   0  0  0  0  0  0  0  0  0  0  0  0
    4.9580  -12.1195   25.8721 C   0  0  0  0  0  0  0  0  0  0  0  0
    5.5245  -11.1581   25.0616 C   0  0  0  0  0  0  0  0  0  0  0  0
    6.7255  -11.4451   24.4498 C   0  0  0  0  0  0  0  0  0  0  0  0
    7.3515  -12.6796   24.6470 C   0  0  0  0  0  0  0  0  0  0  0  0
    8.5795  -16.6900   24.2603 C   0  0  0  0  0  0  0  0  0  0  0  0
    8.5839  -17.8822   24.6621 O   0  0  0  0  0  0  0  0  0  0  0  0
    9.7788  -16.2582   23.6146 N   0  0  0  0  0  0  0  0  0  0  0  0
   11.0607  -16.8700   23.8645 C   0  0  1  0  0  0  0  0  0  0  0  0
   12.0548  -16.5581   22.7812 C   0  0  0  0  0  0  0  0  0  0  0  0
   11.6416  -17.0472   21.4576 C   0  0  0  0  0  0  0  0  0  0  0  0
   11.1247  -18.1698   21.2278 O   0  0  0  0  0  0  0  0  0  0  0  0
   11.5661  -16.5300   25.2170 C   0  0  0  0  0  0  0  0  0  0  0  0
   12.7239  -16.0524   25.3090 O   0  0  0  0  0  0  0  0  0  0  0  0
   11.8332  -16.2100   20.3671 O   0  0  0  0  0  0  0  0  0  0  0  0
   10.6571  -14.1035   27.4837 C   0  0  0  0  0  0  0  0  0  0  0  0
   10.3599  -15.3614   28.2802 C   0  0  2  0  0  0  0  0  0  0  0  0
   10.6240  -15.1013   29.7357 C   0  0  0  0  0  0  0  0  0  0  0  0
   11.2505  -16.4490   27.7141 C   0  0  2  0  0  0  0  0  0  0  0  0
   10.7698  -16.7361   26.3747 N   0  0  0  0  0  0  0  0  0  0  0  0
   11.1988  -17.6850   28.5661 C   0  0  0  0  0  0  0  0  0  0  0  0
   10.4453  -18.6528   28.2932 O   0  0  0  0  0  0  0  0  0  0  0  0
   11.9885  -17.8087   29.6993 O   0  0  0  0  0  0  0  0  0  0  0  0
  2  1  1  1
  2 10  1  0
  3  4  1  0
  3  2  1  0
  4  9  2  0
  5  4  1  0
  5  6  2  0
  6  7  1  0
  7  8  2  0
  9  8  1  0
 10 11  2  0
 12 10  1  0
 12 13  1  0
 13 17  1  0
 13 14  1  6
 15 14  1  0
 15 19  1  0
 16 15  2  0
 17 24  1  0
 18 17  2  0
 21 20  1  6
 21 22  1  0
 23 21  1  0
 23 24  1  6
 25 23  1  0
 25 27  1  0
 26 25  2  0
M  END
$$$$
