FDV.pdb
     RDKit          3D

 27 27  0  0  1  0  0  0  0  0999 V2000
    6.3724  -17.3856   21.6475 N   0  0  0  0  0  0  0  0  0  0  0  0
    7.4650  -16.4898   22.0170 C   0  0  1  0  0  0  0  0  0  0  0  0
    6.9269  -15.1306   22.2992 C   0  0  0  0  0  0  0  0  0  0  0  0
    7.3799  -14.1412   21.3197 C   0  0  0  0  0  0  0  0  0  0  0  0
    6.9556  -12.8092   21.3502 C   0  0  0  0  0  0  0  0  0  0  0  0
    7.3850  -11.8783   20.4346 C   0  0  0  0  0  0  0  0  0  0  0  0
    8.2663  -12.2335   19.4350 C   0  0  0  0  0  0  0  0  0  0  0  0
    8.7007  -13.5402   19.3817 C   0  0  0  0  0  0  0  0  0  0  0  0
    8.2581  -14.4797   20.3178 C   0  0  0  0  0  0  0  0  0  0  0  0
    8.2304  -17.1021   23.1263 C   0  0  0  0  0  0  0  0  0  0  0  0
    7.6735  -17.7390   24.0574 O   0  0  0  0  0  0  0  0  0  0  0  0
    9.6536  -17.0108   23.2140 N   0  0  0  0  0  0  0  0  0  0  0  0
   10.3975  -17.5134   24.3426 C   0  0  1  0  0  0  0  0  0  0  0  0
   11.5103  -18.4314   23.9207 C   0  0  0  0  0  0  0  0  0  0  0  0
   12.1989  -19.0660   25.0543 C   0  0  0  0  0  0  0  0  0  0  0  0
   11.8391  -18.9901   26.2564 O   0  0  0  0  0  0  0  0  0  0  0  0
   10.8690  -16.4086   25.2129 C   0  0  0  0  0  0  0  0  0  0  0  0
   11.8966  -15.7793   24.8591 O   0  0  0  0  0  0  0  0  0  0  0  0
   13.3389  -19.8113   24.7868 O   0  0  0  0  0  0  0  0  0  0  0  0
    8.4821  -14.2687   27.7118 C   0  0  0  0  0  0  0  0  0  0  0  0
    9.8916  -13.8778   27.3050 C   0  0  2  0  0  0  0  0  0  0  0  0
    9.8645  -13.2909   25.9228 C   0  0  0  0  0  0  0  0  0  0  0  0
   10.7270  -15.1397   27.3835 C   0  0  2  0  0  0  0  0  0  0  0  0
   10.1837  -16.0690   26.4095 N   0  0  0  0  0  0  0  0  0  0  0  0
   10.6755  -15.7346   28.7617 C   0  0  0  0  0  0  0  0  0  0  0  0
   11.1692  -15.1515   29.7594 O   0  0  0  0  0  0  0  0  0  0  0  0
   10.0750  -16.9635   28.9907 O   0  0  0  0  0  0  0  0  0  0  0  0
  2  1  1  1
  2 10  1  0
  3  4  1  0
  3  2  1  0
  4  9  2  0
  5  4  1  0
  5  6  2  0
  6  7  1  0
  7  8  2  0
  9  8  1  0
 10 11  2  0
 12 10  1  0
 12 13  1  0
 13 17  1  0
 13 14  1  6
 15 14  1  0
 15 19  1  0
 16 15  2  0
 17 24  1  0
 18 17  2  0
 21 20  1  6
 21 22  1  0
 23 21  1  0
 23 24  1  6
 25 23  1  0
 25 27  1  0
 26 25  2  0
M  END
$$$$
