FDV.pdb
     RDKit          3D

 27 27  0  0  1  0  0  0  0  0999 V2000
    6.2023  -17.0610   25.4910 N   0  0  0  0  0  0  0  0  0  0  0  0
    6.9115  -16.9582   24.2185 C   0  0  1  0  0  0  0  0  0  0  0  0
    6.5470  -15.6831   23.5417 C   0  0  0  0  0  0  0  0  0  0  0  0
    6.7482  -14.5195   24.4070 C   0  0  0  0  0  0  0  0  0  0  0  0
    7.6829  -13.5216   24.1141 C   0  0  0  0  0  0  0  0  0  0  0  0
    7.8683  -12.4257   24.9229 C   0  0  0  0  0  0  0  0  0  0  0  0
    7.1239  -12.2702   26.0734 C   0  0  0  0  0  0  0  0  0  0  0  0
    6.1952  -13.2391   26.3861 C   0  0  0  0  0  0  0  0  0  0  0  0
    6.0140  -14.3501   25.5569 C   0  0  0  0  0  0  0  0  0  0  0  0
    8.3595  -17.1450   24.4623 C   0  0  0  0  0  0  0  0  0  0  0  0
    8.8136  -18.1308   25.0985 O   0  0  0  0  0  0  0  0  0  0  0  0
    9.3393  -16.2178   23.9911 N   0  0  0  0  0  0  0  0  0  0  0  0
   10.7425  -16.5412   23.9126 C   0  0  1  0  0  0  0  0  0  0  0  0
   11.4245  -15.8220   22.7828 C   0  0  0  0  0  0  0  0  0  0  0  0
   12.8038  -16.2777   22.5548 C   0  0  0  0  0  0  0  0  0  0  0  0
   13.1999  -17.4670   22.6491 O   0  0  0  0  0  0  0  0  0  0  0  0
   11.4189  -16.3273   25.2153 C   0  0  0  0  0  0  0  0  0  0  0  0
   12.6616  -16.5011   25.2680 O   0  0  0  0  0  0  0  0  0  0  0  0
   13.7527  -15.3263   22.2069 O   0  0  0  0  0  0  0  0  0  0  0  0
    9.2497  -15.0096   28.6787 C   0  0  0  0  0  0  0  0  0  0  0  0
   10.7128  -14.7050   28.4112 C   0  0  2  0  0  0  0  0  0  0  0  0
   10.8168  -13.4507   27.5916 C   0  0  0  0  0  0  0  0  0  0  0  0
   11.2797  -15.9145   27.6956 C   0  0  2  0  0  0  0  0  0  0  0  0
   10.6890  -15.9380   26.3697 N   0  0  0  0  0  0  0  0  0  0  0  0
   10.9549  -17.1798   28.4370 C   0  0  0  0  0  0  0  0  0  0  0  0
   10.1632  -18.0396   27.9754 O   0  0  0  0  0  0  0  0  0  0  0  0
   11.5214  -17.4526   29.6731 O   0  0  0  0  0  0  0  0  0  0  0  0
  2  1  1  1
  2 10  1  0
  3  4  1  0
  3  2  1  0
  4  9  2  0
  5  4  1  0
  5  6  2  0
  6  7  1  0
  7  8  2  0
  9  8  1  0
 10 11  2  0
 12 10  1  0
 12 13  1  0
 13 17  1  0
 13 14  1  6
 15 14  1  0
 15 19  1  0
 16 15  2  0
 17 24  1  0
 18 17  2  0
 21 20  1  6
 21 22  1  0
 23 21  1  0
 23 24  1  6
 25 23  1  0
 25 27  1  0
 26 25  2  0
M  END
$$$$
