FDV.pdb
     RDKit          3D

 27 27  0  0  1  0  0  0  0  0999 V2000
    8.0333  -16.7286   26.3052 N   0  0  0  0  0  0  0  0  0  0  0  0
    7.2362  -16.1824   25.2102 C   0  0  1  0  0  0  0  0  0  0  0  0
    7.7231  -14.8181   24.8661 C   0  0  0  0  0  0  0  0  0  0  0  0
    7.4116  -13.8393   25.9094 C   0  0  0  0  0  0  0  0  0  0  0  0
    6.0985  -13.4973   26.2467 C   0  0  0  0  0  0  0  0  0  0  0  0
    5.8049  -12.5829   27.2302 C   0  0  0  0  0  0  0  0  0  0  0  0
    6.8157  -11.9595   27.9314 C   0  0  0  0  0  0  0  0  0  0  0  0
    8.1196  -12.2781   27.6192 C   0  0  0  0  0  0  0  0  0  0  0  0
    8.4078  -13.2097   26.6172 C   0  0  0  0  0  0  0  0  0  0  0  0
    7.2391  -17.1487   24.0890 C   0  0  0  0  0  0  0  0  0  0  0  0
    8.1652  -17.9837   23.9221 O   0  0  0  0  0  0  0  0  0  0  0  0
    6.1897  -17.1980   23.1204 N   0  0  0  0  0  0  0  0  0  0  0  0
    6.2914  -17.9614   21.9011 C   0  0  1  0  0  0  0  0  0  0  0  0
    4.9443  -18.3881   21.3892 C   0  0  0  0  0  0  0  0  0  0  0  0
    4.3330  -19.4591   22.1901 C   0  0  0  0  0  0  0  0  0  0  0  0
    4.9035  -20.0872   23.1176 O   0  0  0  0  0  0  0  0  0  0  0  0
    7.0877  -17.2403   20.8782 C   0  0  0  0  0  0  0  0  0  0  0  0
    7.3182  -17.8268   19.7918 O   0  0  0  0  0  0  0  0  0  0  0  0
    3.0209  -19.8129   21.9075 O   0  0  0  0  0  0  0  0  0  0  0  0
    6.4509  -13.5518   20.3119 C   0  0  0  0  0  0  0  0  0  0  0  0
    7.9612  -13.6959   20.3677 C   0  0  2  0  0  0  0  0  0  0  0  0
    8.5850  -12.7805   19.3534 C   0  0  0  0  0  0  0  0  0  0  0  0
    8.2640  -15.1557   20.0959 C   0  0  2  0  0  0  0  0  0  0  0  0
    7.5763  -15.9280   21.1147 N   0  0  0  0  0  0  0  0  0  0  0  0
    9.7422  -15.4176   20.1478 C   0  0  0  0  0  0  0  0  0  0  0  0
   10.2842  -15.9932   21.1244 O   0  0  0  0  0  0  0  0  0  0  0  0
   10.5761  -15.0308   19.1095 O   0  0  0  0  0  0  0  0  0  0  0  0
  2  1  1  1
  2 10  1  0
  3  4  1  0
  3  2  1  0
  4  9  2  0
  5  4  1  0
  5  6  2  0
  6  7  1  0
  7  8  2  0
  9  8  1  0
 10 11  2  0
 12 10  1  0
 12 13  1  0
 13 17  1  0
 13 14  1  6
 15 14  1  0
 15 19  1  0
 16 15  2  0
 17 24  1  0
 18 17  2  0
 21 20  1  6
 21 22  1  0
 23 21  1  0
 23 24  1  1
 25 23  1  0
 25 27  1  0
 26 25  2  0
M  END
$$$$
