FDV.pdb
     RDKit          3D

 27 27  0  0  1  0  0  0  0  0999 V2000
    5.8221  -17.8805   22.1814 N   0  0  0  0  0  0  0  0  0  0  0  0
    6.8125  -16.8142   22.3027 C   0  0  1  0  0  0  0  0  0  0  0  0
    6.1256  -15.4944   22.3589 C   0  0  0  0  0  0  0  0  0  0  0  0
    6.8481  -14.4618   21.6136 C   0  0  0  0  0  0  0  0  0  0  0  0
    7.1219  -14.5784   20.2474 C   0  0  0  0  0  0  0  0  0  0  0  0
    7.7949  -13.6068   19.5455 C   0  0  0  0  0  0  0  0  0  0  0  0
    8.2315  -12.4614   20.1777 C   0  0  0  0  0  0  0  0  0  0  0  0
    7.9748  -12.3207   21.5243 C   0  0  0  0  0  0  0  0  0  0  0  0
    7.2894  -13.3147   22.2293 C   0  0  0  0  0  0  0  0  0  0  0  0
    7.6941  -17.1098   23.4544 C   0  0  0  0  0  0  0  0  0  0  0  0
    7.2422  -17.3613   24.6012 O   0  0  0  0  0  0  0  0  0  0  0  0
    9.1183  -17.1294   23.3408 N   0  0  0  0  0  0  0  0  0  0  0  0
    9.9816  -17.4889   24.4387 C   0  0  1  0  0  0  0  0  0  0  0  0
   11.1576  -18.3082   23.9861 C   0  0  0  0  0  0  0  0  0  0  0  0
   10.7887  -19.6683   23.5663 C   0  0  0  0  0  0  0  0  0  0  0  0
    9.6585  -20.1952   23.7253 O   0  0  0  0  0  0  0  0  0  0  0  0
   10.3859  -16.2947   25.2202 C   0  0  0  0  0  0  0  0  0  0  0  0
   11.1469  -15.4614   24.6690 O   0  0  0  0  0  0  0  0  0  0  0  0
   11.7589  -20.4410   22.9433 O   0  0  0  0  0  0  0  0  0  0  0  0
    8.3054  -14.6741   28.3011 C   0  0  0  0  0  0  0  0  0  0  0  0
    9.5171  -14.0236   27.6581 C   0  0  2  0  0  0  0  0  0  0  0  0
    9.1041  -13.3668   26.3721 C   0  0  0  0  0  0  0  0  0  0  0  0
   10.5349  -15.1261   27.4459 C   0  0  2  0  0  0  0  0  0  0  0  0
    9.9297  -16.0950   26.5502 N   0  0  0  0  0  0  0  0  0  0  0  0
   10.9045  -15.7756   28.7489 C   0  0  0  0  0  0  0  0  0  0  0  0
   10.5181  -16.9325   29.0513 O   0  0  0  0  0  0  0  0  0  0  0  0
   11.6947  -15.1180   29.6796 O   0  0  0  0  0  0  0  0  0  0  0  0
  2  1  1  1
  2 10  1  0
  3  4  1  0
  3  2  1  0
  4  9  2  0
  5  4  1  0
  5  6  2  0
  6  7  1  0
  7  8  2  0
  9  8  1  0
 10 11  2  0
 12 10  1  0
 12 13  1  0
 13 17  1  0
 13 14  1  6
 15 14  1  0
 15 19  1  0
 16 15  2  0
 17 24  1  0
 18 17  2  0
 21 20  1  6
 21 22  1  0
 23 21  1  0
 23 24  1  6
 25 23  1  0
 25 27  1  0
 26 25  2  0
M  END
$$$$
