FDV.pdb
     RDKit          3D

 27 27  0  0  1  0  0  0  0  0999 V2000
    8.3117  -16.8961   21.3333 N   0  0  0  0  0  0  0  0  0  0  0  0
    9.0286  -15.9248   22.1551 C   0  0  1  0  0  0  0  0  0  0  0  0
    8.1164  -14.8071   22.5230 C   0  0  0  0  0  0  0  0  0  0  0  0
    7.7638  -13.9775   21.3693 C   0  0  0  0  0  0  0  0  0  0  0  0
    6.5295  -14.0830   20.7208 C   0  0  0  0  0  0  0  0  0  0  0  0
    6.1953  -13.3003   19.6414 C   0  0  0  0  0  0  0  0  0  0  0  0
    7.0837  -12.3660   19.1517 C   0  0  0  0  0  0  0  0  0  0  0  0
    8.3078  -12.2410   19.7723 C   0  0  0  0  0  0  0  0  0  0  0  0
    8.6382  -13.0417   20.8697 C   0  0  0  0  0  0  0  0  0  0  0  0
    9.6457  -16.6311   23.3003 C   0  0  0  0  0  0  0  0  0  0  0  0
    8.9609  -17.1549   24.2165 O   0  0  0  0  0  0  0  0  0  0  0  0
   11.0611  -16.7653   23.4422 N   0  0  0  0  0  0  0  0  0  0  0  0
   11.6763  -17.3098   24.6275 C   0  0  1  0  0  0  0  0  0  0  0  0
   13.0236  -17.9099   24.3385 C   0  0  0  0  0  0  0  0  0  0  0  0
   13.0372  -18.7478   23.1302 C   0  0  0  0  0  0  0  0  0  0  0  0
   13.5831  -18.4406   22.0404 O   0  0  0  0  0  0  0  0  0  0  0  0
   11.7211  -16.3080   25.7206 C   0  0  0  0  0  0  0  0  0  0  0  0
   12.6706  -15.4861   25.7260 O   0  0  0  0  0  0  0  0  0  0  0  0
   12.3990  -19.9791   23.1868 O   0  0  0  0  0  0  0  0  0  0  0  0
    8.5868  -14.9909   27.7879 C   0  0  0  0  0  0  0  0  0  0  0  0
    9.9746  -14.4322   28.0470 C   0  0  2  0  0  0  0  0  0  0  0  0
   10.2951  -13.3972   27.0069 C   0  0  0  0  0  0  0  0  0  0  0  0
   10.9267  -15.6104   28.0062 C   0  0  2  0  0  0  0  0  0  0  0  0
   10.7242  -16.2751   26.7315 N   0  0  0  0  0  0  0  0  0  0  0  0
   10.6593  -16.5582   29.1403 C   0  0  0  0  0  0  0  0  0  0  0  0
   10.8941  -16.2515   30.3360 O   0  0  0  0  0  0  0  0  0  0  0  0
   10.1374  -17.8224   28.9109 O   0  0  0  0  0  0  0  0  0  0  0  0
  2  1  1  1
  2 10  1  0
  3  4  1  0
  3  2  1  0
  4  9  2  0
  5  4  1  0
  5  6  2  0
  6  7  1  0
  7  8  2  0
  9  8  1  0
 10 11  2  0
 12 10  1  0
 12 13  1  0
 13 17  1  0
 13 14  1  6
 15 14  1  0
 15 19  1  0
 16 15  2  0
 17 24  1  0
 18 17  2  0
 21 20  1  6
 21 22  1  0
 23 21  1  0
 23 24  1  6
 25 23  1  0
 25 27  1  0
 26 25  2  0
M  END
$$$$
