FDV.pdb
     RDKit          3D

 27 27  0  0  1  0  0  0  0  0999 V2000
    7.5909  -17.0796   21.2444 N   0  0  0  0  0  0  0  0  0  0  0  0
    8.5411  -16.1970   21.9158 C   0  0  1  0  0  0  0  0  0  0  0  0
    7.8590  -14.9356   22.3162 C   0  0  0  0  0  0  0  0  0  0  0  0
    7.6640  -14.0279   21.1841 C   0  0  0  0  0  0  0  0  0  0  0  0
    8.6401  -13.1102   20.7839 C   0  0  0  0  0  0  0  0  0  0  0  0
    8.4603  -12.2617   19.7175 C   0  0  0  0  0  0  0  0  0  0  0  0
    7.2878  -12.2874   18.9918 C   0  0  0  0  0  0  0  0  0  0  0  0
    6.3087  -13.1826   19.3646 C   0  0  0  0  0  0  0  0  0  0  0  0
    6.5012  -14.0415   20.4509 C   0  0  0  0  0  0  0  0  0  0  0  0
    9.1826  -16.9399   23.0237 C   0  0  0  0  0  0  0  0  0  0  0  0
    8.5592  -17.7833   23.7186 O   0  0  0  0  0  0  0  0  0  0  0  0
   10.5534  -16.7490   23.3785 N   0  0  0  0  0  0  0  0  0  0  0  0
   11.1703  -17.4257   24.4928 C   0  0  1  0  0  0  0  0  0  0  0  0
   12.3827  -18.2096   24.0750 C   0  0  0  0  0  0  0  0  0  0  0  0
   13.0126  -18.9381   25.1862 C   0  0  0  0  0  0  0  0  0  0  0  0
   12.3964  -19.5055   26.1235 O   0  0  0  0  0  0  0  0  0  0  0  0
   11.4546  -16.4855   25.6043 C   0  0  0  0  0  0  0  0  0  0  0  0
   12.4046  -15.6765   25.4616 O   0  0  0  0  0  0  0  0  0  0  0  0
   14.3984  -19.0112   25.2119 O   0  0  0  0  0  0  0  0  0  0  0  0
    8.6996  -15.3064   28.3148 C   0  0  0  0  0  0  0  0  0  0  0  0
   10.0543  -14.6396   28.1557 C   0  0  2  0  0  0  0  0  0  0  0  0
   10.0149  -13.7112   26.9758 C   0  0  0  0  0  0  0  0  0  0  0  0
   11.0649  -15.7555   27.9827 C   0  0  2  0  0  0  0  0  0  0  0  0
   10.6800  -16.4955   26.7946 N   0  0  0  0  0  0  0  0  0  0  0  0
   11.0791  -16.6596   29.1821 C   0  0  0  0  0  0  0  0  0  0  0  0
   11.4617  -16.2640   30.3118 O   0  0  0  0  0  0  0  0  0  0  0  0
   10.6663  -17.9804   29.0899 O   0  0  0  0  0  0  0  0  0  0  0  0
  2  1  1  1
  2 10  1  0
  3  4  1  0
  3  2  1  0
  4  9  2  0
  5  4  1  0
  5  6  2  0
  6  7  1  0
  7  8  2  0
  9  8  1  0
 10 11  2  0
 12 10  1  0
 12 13  1  0
 13 17  1  0
 13 14  1  6
 15 14  1  0
 15 19  1  0
 16 15  2  0
 17 24  1  0
 18 17  2  0
 21 20  1  6
 21 22  1  0
 23 21  1  0
 23 24  1  6
 25 23  1  0
 25 27  1  0
 26 25  2  0
M  END
$$$$
