GIW.pdb
     RDKit          3D

 27 28  0  0  1  0  0  0  0  0999 V2000
    6.6111  -19.4421   21.2008 N   0  0  0  0  0  0  0  0  0  0  0  0
    7.7410  -19.6300   20.3373 C   0  0  0  0  0  0  0  0  0  0  0  0
    8.5395  -18.3901   20.3009 C   0  0  0  0  0  0  0  0  0  0  0  0
    9.6525  -18.3892   19.6942 O   0  0  0  0  0  0  0  0  0  0  0  0
    7.9461  -12.3042   20.0575 C   0  0  0  0  0  0  0  0  0  0  0  0
    8.8312  -13.4869   20.3306 C   0  0  0  0  0  0  0  0  0  0  0  0
    8.0304  -14.7551   20.5552 C   0  0  2  0  0  0  0  0  0  0  0  0
    7.0916  -14.6075   21.7323 C   0  0  0  0  0  0  0  0  0  0  0  0
    8.9269  -15.9426   20.8009 C   0  0  2  0  0  0  0  0  0  0  0  0
    8.1415  -17.1755   20.9090 N   0  0  0  0  0  0  0  0  0  0  0  0
    9.6720  -15.7240   22.0659 C   0  0  0  0  0  0  0  0  0  0  0  0
   10.5532  -14.8366   22.1051 O   0  0  0  0  0  0  0  0  0  0  0  0
    9.3882  -16.5025   23.1959 N   0  0  0  0  0  0  0  0  0  0  0  0
   10.1037  -16.2414   24.4594 C   0  0  1  0  0  0  0  0  0  0  0  0
    9.7282  -14.8358   24.8473 C   0  0  0  0  0  0  0  0  0  0  0  0
    8.3652  -14.6497   25.3346 C   0  0  0  0  0  0  0  0  0  0  0  0
    7.3461  -15.6214   25.3821 C   0  0  0  0  0  0  0  0  0  0  0  0
    6.2314  -15.0787   25.8561 N   0  0  0  0  0  0  0  0  0  0  0  0
    6.4332  -13.7938   26.1348 C   0  0  0  0  0  0  0  0  0  0  0  0
    5.6301  -12.8115   26.6482 C   0  0  0  0  0  0  0  0  0  0  0  0
    6.0879  -11.5310   26.8672 C   0  0  0  0  0  0  0  0  0  0  0  0
    7.3880  -11.2607   26.5531 C   0  0  0  0  0  0  0  0  0  0  0  0
    8.2233  -12.2150   26.0370 C   0  0  0  0  0  0  0  0  0  0  0  0
    7.7531  -13.5016   25.8194 C   0  0  0  0  0  0  0  0  0  0  0  0
    9.7685  -17.2798   25.4121 C   0  0  0  0  0  0  0  0  0  0  0  0
   10.4405  -17.3634   26.6245 O   0  0  0  0  0  0  0  0  0  0  0  0
    8.8851  -18.1224   25.1910 O   0  0  0  0  0  0  0  0  0  0  0  0
  2  3  1  0
  2  1  1  0
  3  4  2  0
  6  5  1  0
  7  6  1  0
  7  9  1  0
  7  8  1  1
  9 10  1  1
 10  3  1  0
 11  9  1  0
 12 11  2  0
 13 11  1  0
 14 13  1  0
 14 25  1  0
 14 15  1  1
 16 15  1  0
 17 16  2  0
 18 17  1  0
 19 18  1  0
 19 24  2  0
 20 21  2  0
 20 19  1  0
 21 22  1  0
 22 23  2  0
 23 24  1  0
 24 16  1  0
 25 26  1  0
 27 25  2  0
M  END
$$$$
