GIW.pdb
     RDKit          3D

 27 28  0  0  1  0  0  0  0  0999 V2000
    4.5710  -18.5678   21.0999 N   0  0  0  0  0  0  0  0  0  0  0  0
    4.7934  -17.3445   21.8153 C   0  0  0  0  0  0  0  0  0  0  0  0
    6.1831  -16.8986   21.6005 C   0  0  0  0  0  0  0  0  0  0  0  0
    7.0912  -17.7664   21.4296 O   0  0  0  0  0  0  0  0  0  0  0  0
    7.0789  -12.2865   19.0036 C   0  0  0  0  0  0  0  0  0  0  0  0
    7.1535  -13.6856   19.5453 C   0  0  0  0  0  0  0  0  0  0  0  0
    8.0716  -13.7801   20.7488 C   0  0  2  0  0  0  0  0  0  0  0  0
    9.5117  -13.5304   20.3585 C   0  0  0  0  0  0  0  0  0  0  0  0
    7.9805  -15.1309   21.4129 C   0  0  2  0  0  0  0  0  0  0  0  0
    6.5821  -15.5409   21.5713 N   0  0  0  0  0  0  0  0  0  0  0  0
    8.6215  -15.0497   22.7492 C   0  0  0  0  0  0  0  0  0  0  0  0
    8.1716  -14.2389   23.5892 O   0  0  0  0  0  0  0  0  0  0  0  0
    9.7132  -15.8714   23.0595 N   0  0  0  0  0  0  0  0  0  0  0  0
   10.3152  -15.8064   24.4049 C   0  0  1  0  0  0  0  0  0  0  0  0
    9.2087  -16.1795   25.3554 C   0  0  0  0  0  0  0  0  0  0  0  0
    8.8661  -15.1795   26.3616 C   0  0  0  0  0  0  0  0  0  0  0  0
    9.3720  -15.0955   27.6739 C   0  0  0  0  0  0  0  0  0  0  0  0
    8.8069  -14.0750   28.3074 N   0  0  0  0  0  0  0  0  0  0  0  0
    7.9461  -13.4592   27.5016 C   0  0  0  0  0  0  0  0  0  0  0  0
    7.1350  -12.3680   27.6592 C   0  0  0  0  0  0  0  0  0  0  0  0
    6.3286  -11.9020   26.6444 C   0  0  0  0  0  0  0  0  0  0  0  0
    6.3591  -12.5687   25.4542 C   0  0  0  0  0  0  0  0  0  0  0  0
    7.1561  -13.6644   25.2566 C   0  0  0  0  0  0  0  0  0  0  0  0
    7.9642  -14.1267   26.2846 C   0  0  0  0  0  0  0  0  0  0  0  0
   11.4942  -16.6476   24.4329 C   0  0  0  0  0  0  0  0  0  0  0  0
   11.6910  -17.6129   23.4541 O   0  0  0  0  0  0  0  0  0  0  0  0
   12.3613  -16.5447   25.3143 O   0  0  0  0  0  0  0  0  0  0  0  0
  2  3  1  0
  2  1  1  0
  3  4  2  0
  6  5  1  0
  7  6  1  0
  7  9  1  0
  7  8  1  6
  9 10  1  1
 10  3  1  0
 11  9  1  0
 12 11  2  0
 13 11  1  0
 14 13  1  0
 14 25  1  0
 14 15  1  1
 16 15  1  0
 17 16  2  0
 18 17  1  0
 19 18  1  0
 19 24  2  0
 20 21  2  0
 20 19  1  0
 21 22  1  0
 22 23  2  0
 23 24  1  0
 24 16  1  0
 25 26  1  0
 27 25  2  0
M  END
$$$$
