GIW.pdb
     RDKit          3D

 27 28  0  0  1  0  0  0  0  0999 V2000
    5.8475  -19.6361   26.3990 N   0  0  0  0  0  0  0  0  0  0  0  0
    6.9471  -19.2271   27.2245 C   0  0  0  0  0  0  0  0  0  0  0  0
    7.5072  -17.9661   26.7025 C   0  0  0  0  0  0  0  0  0  0  0  0
    7.0051  -17.4523   25.6581 O   0  0  0  0  0  0  0  0  0  0  0  0
    9.8905  -14.0561   29.9478 C   0  0  0  0  0  0  0  0  0  0  0  0
    9.0814  -14.7567   28.8936 C   0  0  0  0  0  0  0  0  0  0  0  0
    9.9524  -15.2981   27.7763 C   0  0  2  0  0  0  0  0  0  0  0  0
   10.7128  -14.1859   27.0882 C   0  0  0  0  0  0  0  0  0  0  0  0
    9.1373  -16.0344   26.7431 C   0  0  2  0  0  0  0  0  0  0  0  0
    8.5891  -17.2752   27.2987 N   0  0  0  0  0  0  0  0  0  0  0  0
   10.0117  -16.3591   25.5885 C   0  0  0  0  0  0  0  0  0  0  0  0
   10.5972  -17.4647   25.5633 O   0  0  0  0  0  0  0  0  0  0  0  0
   10.1749  -15.4378   24.5455 N   0  0  0  0  0  0  0  0  0  0  0  0
   10.8821  -15.8457   23.3166 C   0  0  1  0  0  0  0  0  0  0  0  0
   10.6234  -14.7440   22.3233 C   0  0  0  0  0  0  0  0  0  0  0  0
    9.2214  -14.4581   22.0364 C   0  0  0  0  0  0  0  0  0  0  0  0
    8.1434  -14.5306   22.9407 C   0  0  0  0  0  0  0  0  0  0  0  0
    7.0121  -14.2317   22.3140 N   0  0  0  0  0  0  0  0  0  0  0  0
    7.2581  -13.9591   21.0355 C   0  0  0  0  0  0  0  0  0  0  0  0
    6.4584  -13.5881   19.9884 C   0  0  0  0  0  0  0  0  0  0  0  0
    6.9653  -13.3384   18.7323 C   0  0  0  0  0  0  0  0  0  0  0  0
    8.3115  -13.4730   18.5541 C   0  0  0  0  0  0  0  0  0  0  0  0
    9.1451  -13.8427   19.5754 C   0  0  0  0  0  0  0  0  0  0  0  0
    8.6254  -14.0926   20.8368 C   0  0  0  0  0  0  0  0  0  0  0  0
   12.2704  -16.1052   23.6378 C   0  0  0  0  0  0  0  0  0  0  0  0
   13.0984  -16.7332   22.7166 O   0  0  0  0  0  0  0  0  0  0  0  0
   12.7700  -15.7849   24.7274 O   0  0  0  0  0  0  0  0  0  0  0  0
  2  3  1  0
  2  1  1  0
  3  4  2  0
  6  5  1  0
  7  6  1  0
  7  9  1  0
  7  8  1  6
  9 10  1  1
 10  3  1  0
 11  9  1  0
 12 11  2  0
 13 11  1  0
 14 13  1  0
 14 25  1  0
 14 15  1  6
 16 15  1  0
 17 16  2  0
 18 17  1  0
 19 18  1  0
 19 24  2  0
 20 21  2  0
 20 19  1  0
 21 22  1  0
 22 23  2  0
 23 24  1  0
 24 16  1  0
 25 26  1  0
 27 25  2  0
M  END
$$$$
