GIW.pdb
     RDKit          3D

 27 28  0  0  1  0  0  0  0  0999 V2000
    8.2313  -19.9986   19.0521 N   0  0  0  0  0  0  0  0  0  0  0  0
    7.5615  -19.0781   19.9249 C   0  0  0  0  0  0  0  0  0  0  0  0
    8.4789  -17.9749   20.2681 C   0  0  0  0  0  0  0  0  0  0  0  0
    9.7042  -18.0707   19.9579 O   0  0  0  0  0  0  0  0  0  0  0  0
    6.7377  -12.8855   19.6342 C   0  0  0  0  0  0  0  0  0  0  0  0
    7.5797  -14.1287   19.6785 C   0  0  0  0  0  0  0  0  0  0  0  0
    8.1952  -14.3487   21.0471 C   0  0  2  0  0  0  0  0  0  0  0  0
    9.1229  -13.2127   21.4182 C   0  0  0  0  0  0  0  0  0  0  0  0
    8.9697  -15.6413   21.1070 C   0  0  2  0  0  0  0  0  0  0  0  0
    8.0782  -16.7919   20.9340 N   0  0  0  0  0  0  0  0  0  0  0  0
    9.6397  -15.7351   22.4282 C   0  0  0  0  0  0  0  0  0  0  0  0
   10.6368  -15.0141   22.6550 O   0  0  0  0  0  0  0  0  0  0  0  0
    9.1580  -16.6192   23.4027 N   0  0  0  0  0  0  0  0  0  0  0  0
    9.8121  -16.6745   24.7240 C   0  0  1  0  0  0  0  0  0  0  0  0
    9.6782  -15.2871   25.2936 C   0  0  0  0  0  0  0  0  0  0  0  0
    8.3184  -14.8429   25.5822 C   0  0  0  0  0  0  0  0  0  0  0  0
    7.1365  -15.5966   25.4392 C   0  0  0  0  0  0  0  0  0  0  0  0
    6.0878  -14.8514   25.7659 N   0  0  0  0  0  0  0  0  0  0  0  0
    6.4878  -13.6342   26.1238 C   0  0  0  0  0  0  0  0  0  0  0  0
    5.8196  -12.5196   26.5534 C   0  0  0  0  0  0  0  0  0  0  0  0
    6.4760  -11.3563   26.8897 C   0  0  0  0  0  0  0  0  0  0  0  0
    7.8362  -11.3425   26.7818 C   0  0  0  0  0  0  0  0  0  0  0  0
    8.5413  -12.4360   26.3555 C   0  0  0  0  0  0  0  0  0  0  0  0
    7.8716  -13.6028   26.0184 C   0  0  0  0  0  0  0  0  0  0  0  0
    9.2172  -17.7445   25.4981 C   0  0  0  0  0  0  0  0  0  0  0  0
    8.2360  -18.5532   24.9395 O   0  0  0  0  0  0  0  0  0  0  0  0
    9.5510  -17.9802   26.6695 O   0  0  0  0  0  0  0  0  0  0  0  0
  2  3  1  0
  2  1  1  0
  3  4  2  0
  6  5  1  0
  7  6  1  0
  7  9  1  0
  7  8  1  6
  9 10  1  1
 10  3  1  0
 11  9  1  0
 12 11  2  0
 13 11  1  0
 14 13  1  0
 14 25  1  0
 14 15  1  1
 16 15  1  0
 17 16  2  0
 18 17  1  0
 19 18  1  0
 19 24  2  0
 20 21  2  0
 20 19  1  0
 21 22  1  0
 22 23  2  0
 23 24  1  0
 24 16  1  0
 25 26  1  0
 27 25  2  0
M  END
$$$$
