GIW.pdb
     RDKit          3D

 27 28  0  0  1  0  0  0  0  0999 V2000
   12.0551  -17.5025   17.9986 N   0  0  0  0  0  0  0  0  0  0  0  0
   10.7580  -17.6309   18.5976 C   0  0  0  0  0  0  0  0  0  0  0  0
   10.5994  -16.6034   19.6443 C   0  0  0  0  0  0  0  0  0  0  0  0
   11.6303  -16.0317   20.1104 O   0  0  0  0  0  0  0  0  0  0  0  0
    6.6471  -12.9691   19.6649 C   0  0  0  0  0  0  0  0  0  0  0  0
    7.9611  -13.6647   19.8801 C   0  0  0  0  0  0  0  0  0  0  0  0
    7.9875  -14.4367   21.1853 C   0  0  2  0  0  0  0  0  0  0  0  0
    7.9176  -13.5033   22.3738 C   0  0  0  0  0  0  0  0  0  0  0  0
    9.2322  -15.2792   21.3078 C   0  0  2  0  0  0  0  0  0  0  0  0
    9.3503  -16.2029   20.1758 N   0  0  0  0  0  0  0  0  0  0  0  0
    9.1590  -16.0576   22.5695 C   0  0  0  0  0  0  0  0  0  0  0  0
    8.5075  -17.1257   22.5861 O   0  0  0  0  0  0  0  0  0  0  0  0
    9.8120  -15.5985   23.7211 N   0  0  0  0  0  0  0  0  0  0  0  0
    9.8692  -16.4585   24.9185 C   0  0  1  0  0  0  0  0  0  0  0  0
    9.5559  -15.5498   26.0775 C   0  0  0  0  0  0  0  0  0  0  0  0
    8.2265  -14.9480   26.0768 C   0  0  0  0  0  0  0  0  0  0  0  0
    7.0027  -15.6060   25.8433 C   0  0  0  0  0  0  0  0  0  0  0  0
    6.0068  -14.7297   25.8909 N   0  0  0  0  0  0  0  0  0  0  0  0
    6.4821  -13.5134   26.1441 C   0  0  0  0  0  0  0  0  0  0  0  0
    5.8859  -12.2920   26.3055 C   0  0  0  0  0  0  0  0  0  0  0  0
    6.6102  -11.1548   26.5871 C   0  0  0  0  0  0  0  0  0  0  0  0
    7.9642  -11.2787   26.7033 C   0  0  0  0  0  0  0  0  0  0  0  0
    8.5985  -12.4822   26.5485 C   0  0  0  0  0  0  0  0  0  0  0  0
    7.8607  -13.6218   26.2644 C   0  0  0  0  0  0  0  0  0  0  0  0
    8.9794  -17.5858   24.7299 C   0  0  0  0  0  0  0  0  0  0  0  0
    9.4776  -18.8821   24.7371 O   0  0  0  0  0  0  0  0  0  0  0  0
    7.7588  -17.4455   24.5572 O   0  0  0  0  0  0  0  0  0  0  0  0
  2  3  1  0
  2  1  1  0
  3  4  2  0
  6  5  1  0
  7  6  1  0
  7  9  1  0
  7  8  1  1
  9 10  1  6
 10  3  1  0
 11  9  1  0
 12 11  2  0
 13 11  1  0
 14 13  1  0
 14 25  1  0
 14 15  1  1
 16 15  1  0
 17 16  2  0
 18 17  1  0
 19 18  1  0
 19 24  2  0
 20 21  2  0
 20 19  1  0
 21 22  1  0
 22 23  2  0
 23 24  1  0
 24 16  1  0
 25 26  1  0
 27 25  2  0
M  END
$$$$
