GIW.pdb
     RDKit          3D

 27 28  0  0  1  0  0  0  0  0999 V2000
    5.2161  -19.9228   20.3281 N   0  0  0  0  0  0  0  0  0  0  0  0
    5.1682  -18.8229   21.2478 C   0  0  0  0  0  0  0  0  0  0  0  0
    6.3832  -18.0012   21.0903 C   0  0  0  0  0  0  0  0  0  0  0  0
    7.4916  -18.5737   20.8652 O   0  0  0  0  0  0  0  0  0  0  0  0
    8.3011  -12.2409   19.7659 C   0  0  0  0  0  0  0  0  0  0  0  0
    8.5941  -13.6358   20.2404 C   0  0  0  0  0  0  0  0  0  0  0  0
    7.3253  -14.4220   20.5091 C   0  0  2  0  0  0  0  0  0  0  0  0
    6.4395  -13.7064   21.5051 C   0  0  0  0  0  0  0  0  0  0  0  0
    7.6275  -15.8013   21.0384 C   0  0  2  0  0  0  0  0  0  0  0  0
    6.3985  -16.5884   21.1749 N   0  0  0  0  0  0  0  0  0  0  0  0
    8.2756  -15.6709   22.3673 C   0  0  0  0  0  0  0  0  0  0  0  0
    7.6274  -15.1666   23.3113 O   0  0  0  0  0  0  0  0  0  0  0  0
    9.5935  -16.1080   22.5560 N   0  0  0  0  0  0  0  0  0  0  0  0
   10.2761  -15.8348   23.8350 C   0  0  1  0  0  0  0  0  0  0  0  0
    9.3778  -16.4107   24.8974 C   0  0  0  0  0  0  0  0  0  0  0  0
    9.8130  -16.2161   26.2768 C   0  0  0  0  0  0  0  0  0  0  0  0
   10.3650  -17.1898   27.1326 C   0  0  0  0  0  0  0  0  0  0  0  0
   10.6094  -16.6538   28.3221 N   0  0  0  0  0  0  0  0  0  0  0  0
   10.2563  -15.3713   28.3250 C   0  0  0  0  0  0  0  0  0  0  0  0
   10.3146  -14.3881   29.2754 C   0  0  0  0  0  0  0  0  0  0  0  0
    9.8941  -13.1008   29.0243 C   0  0  0  0  0  0  0  0  0  0  0  0
    9.4080  -12.8246   27.7795 C   0  0  0  0  0  0  0  0  0  0  0  0
    9.3325  -13.7800   26.8017 C   0  0  0  0  0  0  0  0  0  0  0  0
    9.7578  -15.0738   27.0641 C   0  0  0  0  0  0  0  0  0  0  0  0
   11.6205  -16.3706   23.7737 C   0  0  0  0  0  0  0  0  0  0  0  0
   11.8503  -17.6294   23.2341 O   0  0  0  0  0  0  0  0  0  0  0  0
   12.6046  -15.7416   24.1920 O   0  0  0  0  0  0  0  0  0  0  0  0
  2  3  1  0
  2  1  1  0
  3  4  2  0
  6  5  1  0
  7  6  1  0
  7  9  1  0
  7  8  1  1
  9 10  1  1
 10  3  1  0
 11  9  1  0
 12 11  2  0
 13 11  1  0
 14 13  1  0
 14 25  1  0
 14 15  1  1
 16 15  1  0
 17 16  2  0
 18 17  1  0
 19 18  1  0
 19 24  2  0
 20 21  2  0
 20 19  1  0
 21 22  1  0
 22 23  2  0
 23 24  1  0
 24 16  1  0
 25 26  1  0
 27 25  2  0
M  END
$$$$
