GIW.pdb
     RDKit          3D

 27 28  0  0  1  0  0  0  0  0999 V2000
    4.3944  -18.6918   22.1251 N   0  0  0  0  0  0  0  0  0  0  0  0
    4.8619  -17.5407   22.8422 C   0  0  0  0  0  0  0  0  0  0  0  0
    6.1844  -17.1450   22.3218 C   0  0  0  0  0  0  0  0  0  0  0  0
    6.9470  -18.0318   21.8333 O   0  0  0  0  0  0  0  0  0  0  0  0
    6.8910  -12.4338   19.8777 C   0  0  0  0  0  0  0  0  0  0  0  0
    7.0668  -13.8820   20.2359 C   0  0  0  0  0  0  0  0  0  0  0  0
    8.0819  -14.0727   21.3465 C   0  0  2  0  0  0  0  0  0  0  0  0
    9.4866  -13.7992   20.8559 C   0  0  0  0  0  0  0  0  0  0  0  0
    8.0330  -15.4705   21.9104 C   0  0  2  0  0  0  0  0  0  0  0  0
    6.6717  -15.8161   22.3301 N   0  0  0  0  0  0  0  0  0  0  0  0
    8.9405  -15.5440   23.0826 C   0  0  0  0  0  0  0  0  0  0  0  0
    8.5827  -15.0184   24.1603 O   0  0  0  0  0  0  0  0  0  0  0  0
   10.1776  -16.1936   22.9780 N   0  0  0  0  0  0  0  0  0  0  0  0
   11.0489  -16.2977   24.1640 C   0  0  1  0  0  0  0  0  0  0  0  0
   10.2804  -17.1356   25.1512 C   0  0  0  0  0  0  0  0  0  0  0  0
   10.3618  -16.7153   26.5464 C   0  0  0  0  0  0  0  0  0  0  0  0
   10.8232  -17.4837   27.6334 C   0  0  0  0  0  0  0  0  0  0  0  0
   10.7206  -16.7806   28.7546 N   0  0  0  0  0  0  0  0  0  0  0  0
   10.2166  -15.5777   28.4932 C   0  0  0  0  0  0  0  0  0  0  0  0
    9.9321  -14.4930   29.2780 C   0  0  0  0  0  0  0  0  0  0  0  0
    9.4202  -13.3255   28.7563 C   0  0  0  0  0  0  0  0  0  0  0  0
    9.1993  -13.2763   27.4106 C   0  0  0  0  0  0  0  0  0  0  0  0
    9.4700  -14.3396   26.5916 C   0  0  0  0  0  0  0  0  0  0  0  0
    9.9847  -15.5113   27.1262 C   0  0  0  0  0  0  0  0  0  0  0  0
   12.3394  -16.8127   23.7549 C   0  0  0  0  0  0  0  0  0  0  0  0
   13.4722  -16.5517   24.5147 O   0  0  0  0  0  0  0  0  0  0  0  0
   12.4861  -17.4950   22.7292 O   0  0  0  0  0  0  0  0  0  0  0  0
  2  3  1  0
  2  1  1  0
  3  4  2  0
  6  5  1  0
  7  6  1  0
  7  9  1  0
  7  8  1  6
  9 10  1  1
 10  3  1  0
 11  9  1  0
 12 11  2  0
 13 11  1  0
 14 13  1  0
 14 25  1  0
 14 15  1  1
 16 15  1  0
 17 16  2  0
 18 17  1  0
 19 18  1  0
 19 24  2  0
 20 21  2  0
 20 19  1  0
 21 22  1  0
 22 23  2  0
 23 24  1  0
 24 16  1  0
 25 26  1  0
 27 25  2  0
M  END
$$$$
