TWL.pdb
     RDKit          3D

 30 31  0  0  1  0  0  0  0  0999 V2000
   22.3251  -22.9315  -15.8997 C   0  0  0  0  0  0  0  0  0  0  0  0
   23.3199  -22.7416  -14.7892 C   0  0  1  0  0  0  0  0  0  0  0  0
   22.8499  -23.3477  -13.6321 O   0  0  0  0  0  0  0  0  0  0  0  0
   24.6667  -23.3525  -15.1186 C   0  0  2  0  0  0  0  0  0  0  0  0
   24.5323  -24.8128  -15.2547 N   0  0  0  0  0  0  0  0  0  0  0  0
   25.6514  -23.1290  -14.0388 C   0  0  0  0  0  0  0  0  0  0  0  0
   26.0085  -24.0769  -13.2504 O   0  0  0  0  0  0  0  0  0  0  0  0
   26.2321  -21.8489  -13.8464 N   0  0  0  0  0  0  0  0  0  0  0  0
   27.2601  -21.6031  -12.8220 C   0  0  1  0  0  0  0  0  0  0  0  0
   28.1792  -20.5921  -13.4111 C   0  0  0  0  0  0  0  0  0  0  0  0
   27.5628  -19.2979  -13.7712 C   0  0  0  0  0  0  0  0  0  0  0  0
   26.7020  -18.5464  -12.9474 C   0  0  0  0  0  0  0  0  0  0  0  0
   26.3594  -17.4304  -13.5642 N   0  0  0  0  0  0  0  0  0  0  0  0
   26.9409  -17.3741  -14.7745 C   0  0  0  0  0  0  0  0  0  0  0  0
   26.9028  -16.4393  -15.7972 C   0  0  0  0  0  0  0  0  0  0  0  0
   27.6188  -16.6939  -16.9312 C   0  0  0  0  0  0  0  0  0  0  0  0
   28.3640  -17.8332  -17.0842 C   0  0  0  0  0  0  0  0  0  0  0  0
   28.3985  -18.7513  -16.0734 C   0  0  0  0  0  0  0  0  0  0  0  0
   27.6915  -18.5461  -14.8966 C   0  0  0  0  0  0  0  0  0  0  0  0
   26.6252  -21.2882  -11.5413 C   0  0  0  0  0  0  0  0  0  0  0  0
   25.3503  -21.3427  -11.4122 O   0  0  0  0  0  0  0  0  0  0  0  0
   28.7180  -20.6642   -5.7334 C   0  0  0  0  0  0  0  0  0  0  0  0
   27.5364  -20.5702   -6.6406 C   0  0  1  0  0  0  0  0  0  0  0  0
   26.6486  -19.3764   -6.2821 C   0  0  0  0  0  0  0  0  0  0  0  0
   27.7606  -20.7075   -8.0817 C   0  0  0  0  0  0  0  0  0  0  0  0
   26.6439  -20.7684   -9.0513 C   0  0  2  0  0  0  0  0  0  0  0  0
   27.3305  -20.9182  -10.3731 N   0  0  0  0  0  0  0  0  0  0  0  0
   25.6714  -19.7112   -9.0935 C   0  0  0  0  0  0  0  0  0  0  0  0
   25.8204  -18.6120   -9.6623 O   0  0  0  0  0  0  0  0  0  0  0  0
   24.4345  -19.8689   -8.4646 O   0  0  0  0  0  0  0  0  0  0  0  0
  2  1  1  6
  2  3  1  0
  4  2  1  0
  4  5  1  1
  6  7  2  0
  6  4  1  0
  8  6  1  0
  9  8  1  0
 10 11  1  0
  9 10  1  6
 11 19  1  0
 11 12  2  0
 12 13  1  0
 14 13  1  0
 14 15  2  0
 16 15  1  0
 17 16  2  0
 18 19  2  0
 18 17  1  0
 19 14  1  0
 20 21  2  0
 20  9  1  0
 23 25  1  0
 23 22  1  1
 24 23  1  0
 26 25  1  1
 26 27  1  0
 27 20  1  0
 28 26  1  0
 29 28  2  0
 30 28  1  0
M  END
$$$$
