TWL.pdb
     RDKit          3D

 30 31  0  0  1  0  0  0  0  0999 V2000
   23.4271  -21.4004  -15.4888 C   0  0  0  0  0  0  0  0  0  0  0  0
   23.9292  -21.5011  -14.0758 C   0  0  1  0  0  0  0  0  0  0  0  0
   23.3111  -22.5663  -13.4351 O   0  0  0  0  0  0  0  0  0  0  0  0
   25.4258  -21.7295  -14.0166 C   0  0  2  0  0  0  0  0  0  0  0  0
   25.7594  -23.0174  -14.6482 N   0  0  0  0  0  0  0  0  0  0  0  0
   25.9149  -21.8153  -12.6242 C   0  0  0  0  0  0  0  0  0  0  0  0
   26.4219  -22.8982  -12.1574 O   0  0  0  0  0  0  0  0  0  0  0  0
   25.8358  -20.6916  -11.7618 N   0  0  0  0  0  0  0  0  0  0  0  0
   26.3264  -20.7350  -10.3746 C   0  0  1  0  0  0  0  0  0  0  0  0
   26.9743  -19.4168  -10.1373 C   0  0  0  0  0  0  0  0  0  0  0  0
   27.5394  -19.2140   -8.7867 C   0  0  0  0  0  0  0  0  0  0  0  0
   27.0678  -18.2888   -7.8348 C   0  0  0  0  0  0  0  0  0  0  0  0
   27.7787  -18.3903   -6.7269 N   0  0  0  0  0  0  0  0  0  0  0  0
   28.7192  -19.3400   -6.8666 C   0  0  0  0  0  0  0  0  0  0  0  0
   29.7057  -19.8228   -6.0211 C   0  0  0  0  0  0  0  0  0  0  0  0
   30.5248  -20.8121   -6.4837 C   0  0  0  0  0  0  0  0  0  0  0  0
   30.4002  -21.3337   -7.7443 C   0  0  0  0  0  0  0  0  0  0  0  0
   29.4262  -20.8547   -8.5738 C   0  0  0  0  0  0  0  0  0  0  0  0
   28.5633  -19.8501   -8.1579 C   0  0  0  0  0  0  0  0  0  0  0  0
   25.2458  -21.1396   -9.4740 C   0  0  0  0  0  0  0  0  0  0  0  0
   24.0257  -21.1273   -9.8692 O   0  0  0  0  0  0  0  0  0  0  0  0
   24.8994  -22.8024   -3.4833 C   0  0  0  0  0  0  0  0  0  0  0  0
   24.1540  -22.5236   -4.7461 C   0  0  1  0  0  0  0  0  0  0  0  0
   22.9308  -21.6401   -4.4910 C   0  0  0  0  0  0  0  0  0  0  0  0
   24.9222  -22.1153   -5.9246 C   0  0  0  0  0  0  0  0  0  0  0  0
   24.2887  -21.9090   -7.2463 C   0  0  2  0  0  0  0  0  0  0  0  0
   25.4399  -21.5720   -8.1420 N   0  0  0  0  0  0  0  0  0  0  0  0
   23.2264  -20.9521   -7.3917 C   0  0  0  0  0  0  0  0  0  0  0  0
   22.0093  -21.2197   -7.4208 O   0  0  0  0  0  0  0  0  0  0  0  0
   23.5181  -19.5917   -7.5132 O   0  0  0  0  0  0  0  0  0  0  0  0
  2  1  1  6
  2  3  1  0
  4  2  1  0
  4  5  1  6
  6  7  2  0
  6  4  1  0
  8  6  1  0
  9  8  1  0
 10 11  1  0
  9 10  1  1
 11 19  1  0
 11 12  2  0
 12 13  1  0
 14 13  1  0
 14 15  2  0
 16 15  1  0
 17 16  2  0
 18 19  2  0
 18 17  1  0
 19 14  1  0
 20 21  2  0
 20  9  1  0
 23 25  1  0
 23 22  1  1
 24 23  1  0
 26 25  1  1
 26 27  1  0
 27 20  1  0
 28 26  1  0
 29 28  2  0
 30 28  1  0
M  END
$$$$
