TWL.pdb
     RDKit          3D

 30 31  0  0  1  0  0  0  0  0999 V2000
   29.3316  -19.7026  -16.8327 C   0  0  0  0  0  0  0  0  0  0  0  0
   28.6177  -20.5032  -15.7799 C   0  0  1  0  0  0  0  0  0  0  0  0
   29.4606  -21.4936  -15.2944 O   0  0  0  0  0  0  0  0  0  0  0  0
   28.1845  -19.6469  -14.6074 C   0  0  2  0  0  0  0  0  0  0  0  0
   29.3697  -19.1360  -13.8979 N   0  0  0  0  0  0  0  0  0  0  0  0
   27.4134  -20.4236  -13.6138 C   0  0  0  0  0  0  0  0  0  0  0  0
   26.3901  -21.1196  -13.9547 O   0  0  0  0  0  0  0  0  0  0  0  0
   27.7898  -20.4195  -12.2459 N   0  0  0  0  0  0  0  0  0  0  0  0
   26.9677  -21.0613  -11.2072 C   0  0  1  0  0  0  0  0  0  0  0  0
   27.8229  -21.1066   -9.9905 C   0  0  0  0  0  0  0  0  0  0  0  0
   27.1470  -20.7731   -8.7190 C   0  0  0  0  0  0  0  0  0  0  0  0
   25.7546  -20.7889   -8.5059 C   0  0  0  0  0  0  0  0  0  0  0  0
   25.4938  -20.4698   -7.2516 N   0  0  0  0  0  0  0  0  0  0  0  0
   26.6379  -20.2336   -6.5873 C   0  0  0  0  0  0  0  0  0  0  0  0
   26.9108  -19.8656   -5.2791 C   0  0  0  0  0  0  0  0  0  0  0  0
   28.2154  -19.6931   -4.9161 C   0  0  0  0  0  0  0  0  0  0  0  0
   29.2486  -19.8711   -5.7978 C   0  0  0  0  0  0  0  0  0  0  0  0
   28.9745  -20.2340   -7.0859 C   0  0  0  0  0  0  0  0  0  0  0  0
   27.6673  -20.4249   -7.5122 C   0  0  0  0  0  0  0  0  0  0  0  0
   25.6710  -20.3893  -11.1089 C   0  0  0  0  0  0  0  0  0  0  0  0
   25.5994  -19.1097  -11.0606 O   0  0  0  0  0  0  0  0  0  0  0  0
   22.9966  -19.1893  -15.3087 C   0  0  0  0  0  0  0  0  0  0  0  0
   22.5588  -19.4708  -13.9097 C   0  0  1  0  0  0  0  0  0  0  0  0
   21.1797  -20.1332  -13.8771 C   0  0  0  0  0  0  0  0  0  0  0  0
   23.5196  -20.0984  -12.9994 C   0  0  0  0  0  0  0  0  0  0  0  0
   23.1756  -20.4359  -11.6000 C   0  0  2  0  0  0  0  0  0  0  0  0
   24.4276  -21.0611  -11.0684 N   0  0  0  0  0  0  0  0  0  0  0  0
   22.0309  -21.2587  -11.3205 C   0  0  0  0  0  0  0  0  0  0  0  0
   21.9042  -22.4567  -11.6410 O   0  0  0  0  0  0  0  0  0  0  0  0
   20.9365  -20.7296  -10.6330 O   0  0  0  0  0  0  0  0  0  0  0  0
  2  1  1  6
  2  3  1  0
  4  2  1  0
  4  5  1  1
  6  7  2  0
  6  4  1  0
  8  6  1  0
  9  8  1  0
 10 11  1  0
  9 10  1  1
 11 19  1  0
 11 12  2  0
 12 13  1  0
 14 13  1  0
 14 15  2  0
 16 15  1  0
 17 16  2  0
 18 19  2  0
 18 17  1  0
 19 14  1  0
 20 21  2  0
 20  9  1  0
 23 25  1  0
 23 22  1  6
 24 23  1  0
 26 25  1  6
 26 27  1  0
 27 20  1  0
 28 26  1  0
 29 28  2  0
 30 28  1  0
M  END
$$$$
