TWL.pdb
     RDKit          3D

 30 31  0  0  1  0  0  0  0  0999 V2000
   28.5201  -18.5269  -16.1814 C   0  0  0  0  0  0  0  0  0  0  0  0
   27.3364  -19.3250  -15.7114 C   0  0  1  0  0  0  0  0  0  0  0  0
   26.8964  -20.1543  -16.7340 O   0  0  0  0  0  0  0  0  0  0  0  0
   27.6731  -20.1973  -14.5192 C   0  0  2  0  0  0  0  0  0  0  0  0
   28.6781  -21.2025  -14.9044 N   0  0  0  0  0  0  0  0  0  0  0  0
   26.4965  -20.9542  -14.0413 C   0  0  0  0  0  0  0  0  0  0  0  0
   26.4545  -22.2357  -14.1010 O   0  0  0  0  0  0  0  0  0  0  0  0
   25.3747  -20.2759  -13.4989 N   0  0  0  0  0  0  0  0  0  0  0  0
   24.1964  -20.9968  -12.9903 C   0  0  1  0  0  0  0  0  0  0  0  0
   23.9914  -20.5009  -11.6026 C   0  0  0  0  0  0  0  0  0  0  0  0
   25.2106  -20.0611  -10.8922 C   0  0  0  0  0  0  0  0  0  0  0  0
   25.6472  -18.7275  -10.7686 C   0  0  0  0  0  0  0  0  0  0  0  0
   26.7526  -18.6872  -10.0477 N   0  0  0  0  0  0  0  0  0  0  0  0
   27.1018  -19.9279   -9.6673 C   0  0  0  0  0  0  0  0  0  0  0  0
   28.1590  -20.4236   -8.9205 C   0  0  0  0  0  0  0  0  0  0  0  0
   28.2304  -21.7718   -8.7186 C   0  0  0  0  0  0  0  0  0  0  0  0
   27.2980  -22.6370   -9.2275 C   0  0  0  0  0  0  0  0  0  0  0  0
   26.2578  -22.1436   -9.9627 C   0  0  0  0  0  0  0  0  0  0  0  0
   26.1326  -20.7816  -10.2000 C   0  0  0  0  0  0  0  0  0  0  0  0
   23.0855  -20.8693  -13.9348 C   0  0  0  0  0  0  0  0  0  0  0  0
   22.5411  -19.7290  -14.1544 O   0  0  0  0  0  0  0  0  0  0  0  0
   20.8606  -25.9337  -13.5483 C   0  0  0  0  0  0  0  0  0  0  0  0
   21.2638  -24.7521  -14.3664 C   0  0  1  0  0  0  0  0  0  0  0  0
   20.9411  -24.9601  -15.8477 C   0  0  0  0  0  0  0  0  0  0  0  0
   20.8985  -23.4195  -13.8801 C   0  0  0  0  0  0  0  0  0  0  0  0
   21.0637  -22.2047  -14.7093 C   0  0  2  0  0  0  0  0  0  0  0  0
   22.5377  -21.9462  -14.6691 N   0  0  0  0  0  0  0  0  0  0  0  0
   20.3237  -21.0139  -14.3936 C   0  0  0  0  0  0  0  0  0  0  0  0
   20.5165  -20.2824  -13.4028 O   0  0  0  0  0  0  0  0  0  0  0  0
   19.2901  -20.5866  -15.2301 O   0  0  0  0  0  0  0  0  0  0  0  0
  2  1  1  6
  2  3  1  0
  4  2  1  0
  4  5  1  6
  6  7  2  0
  6  4  1  0
  8  6  1  0
  9  8  1  0
 10 11  1  0
  9 10  1  1
 11 19  1  0
 11 12  2  0
 12 13  1  0
 14 13  1  0
 14 15  2  0
 16 15  1  0
 17 16  2  0
 18 19  2  0
 18 17  1  0
 19 14  1  0
 20 21  2  0
 20  9  1  0
 23 25  1  0
 23 22  1  1
 24 23  1  0
 26 25  1  1
 26 27  1  0
 27 20  1  0
 28 26  1  0
 29 28  2  0
 30 28  1  0
M  END
$$$$
