TWL.pdb
     RDKit          3D

 30 31  0  0  1  0  0  0  0  0999 V2000
   28.9413  -19.5805  -17.8072 C   0  0  0  0  0  0  0  0  0  0  0  0
   28.2762  -20.5269  -16.8476 C   0  0  1  0  0  0  0  0  0  0  0  0
   29.2403  -21.1817  -16.0934 O   0  0  0  0  0  0  0  0  0  0  0  0
   27.3466  -19.8094  -15.8902 C   0  0  2  0  0  0  0  0  0  0  0  0
   28.1230  -18.9066  -15.0234 N   0  0  0  0  0  0  0  0  0  0  0  0
   26.6530  -20.7516  -14.9866 C   0  0  0  0  0  0  0  0  0  0  0  0
   25.8193  -21.6188  -15.4342 O   0  0  0  0  0  0  0  0  0  0  0  0
   26.8950  -20.7204  -13.5890 N   0  0  0  0  0  0  0  0  0  0  0  0
   26.1871  -21.6093  -12.6533 C   0  0  1  0  0  0  0  0  0  0  0  0
   27.0758  -21.7311  -11.4662 C   0  0  0  0  0  0  0  0  0  0  0  0
   26.6064  -21.0502  -10.2413 C   0  0  0  0  0  0  0  0  0  0  0  0
   25.2622  -20.7675   -9.9284 C   0  0  0  0  0  0  0  0  0  0  0  0
   25.1952  -20.1807   -8.7476 N   0  0  0  0  0  0  0  0  0  0  0  0
   26.4274  -20.0434   -8.2291 C   0  0  0  0  0  0  0  0  0  0  0  0
   26.8973  -19.4987   -7.0443 C   0  0  0  0  0  0  0  0  0  0  0  0
   28.2437  -19.5080   -6.8191 C   0  0  0  0  0  0  0  0  0  0  0  0
   29.1314  -20.0338   -7.7204 C   0  0  0  0  0  0  0  0  0  0  0  0
   28.6633  -20.5697   -8.8865 C   0  0  0  0  0  0  0  0  0  0  0  0
   27.3045  -20.5892   -9.1696 C   0  0  0  0  0  0  0  0  0  0  0  0
   24.8217  -21.1268  -12.4406 C   0  0  0  0  0  0  0  0  0  0  0  0
   24.1679  -21.4565  -11.3876 O   0  0  0  0  0  0  0  0  0  0  0  0
   22.5926  -17.1821  -15.9167 C   0  0  0  0  0  0  0  0  0  0  0  0
   22.2408  -18.4329  -15.1819 C   0  0  1  0  0  0  0  0  0  0  0  0
   22.5955  -19.6792  -15.9959 C   0  0  0  0  0  0  0  0  0  0  0  0
   22.6280  -18.5372  -13.7730 C   0  0  0  0  0  0  0  0  0  0  0  0
   22.7217  -19.8391  -13.0751 C   0  0  2  0  0  0  0  0  0  0  0  0
   24.1283  -20.2801  -13.3358 N   0  0  0  0  0  0  0  0  0  0  0  0
   21.7883  -20.8875  -13.3831 C   0  0  0  0  0  0  0  0  0  0  0  0
   22.0185  -21.8708  -14.1140 O   0  0  0  0  0  0  0  0  0  0  0  0
   20.4990  -20.8601  -12.8470 O   0  0  0  0  0  0  0  0  0  0  0  0
  2  1  1  6
  2  3  1  0
  4  2  1  0
  4  5  1  1
  6  7  2  0
  6  4  1  0
  8  6  1  0
  9  8  1  0
 10 11  1  0
  9 10  1  1
 11 19  1  0
 11 12  2  0
 12 13  1  0
 14 13  1  0
 14 15  2  0
 16 15  1  0
 17 16  2  0
 18 19  2  0
 18 17  1  0
 19 14  1  0
 20 21  2  0
 20  9  1  0
 23 25  1  0
 23 22  1  6
 24 23  1  0
 26 25  1  6
 26 27  1  0
 27 20  1  0
 28 26  1  0
 29 28  2  0
 30 28  1  0
M  END
$$$$
