HHS.pdb
     RDKit          3D

 27 28  0  0  1  0  0  0  0  0999 V2000
   12.3903  -14.0638    3.8091 N   0  0  0  0  0  0  0  0  0  0  0  0
   12.9676  -13.2861    4.8776 C   0  0  1  0  0  0  0  0  0  0  0  0
   12.2481  -13.6862    6.1533 C   0  0  0  0  0  0  0  0  0  0  0  0
   10.9901  -12.9269    6.3456 C   0  0  0  0  0  0  0  0  0  0  0  0
   10.6910  -12.0960    7.4225 C   0  0  0  0  0  0  0  0  0  0  0  0
    9.4732  -11.5924    7.2432 N   0  0  0  0  0  0  0  0  0  0  0  0
    8.9646  -12.0637    6.0880 C   0  0  0  0  0  0  0  0  0  0  0  0
    9.9020  -12.8737    5.5567 N   0  0  0  0  0  0  0  0  0  0  0  0
   14.4111  -13.5967    5.0702 C   0  0  0  0  0  0  0  0  0  0  0  0
   14.8754  -14.6708    4.5941 O   0  0  0  0  0  0  0  0  0  0  0  0
   15.3119  -12.7531    5.7632 N   0  0  0  0  0  0  0  0  0  0  0  0
   16.7041  -12.9765    5.9580 C   0  0  1  0  0  0  0  0  0  0  0  0
   17.5277  -11.8072    6.3452 C   0  0  0  0  0  0  0  0  0  0  0  0
   18.9843  -12.0404    6.4150 C   0  0  0  0  0  0  0  0  0  0  0  0
   19.7396  -13.1595    6.1436 C   0  0  0  0  0  0  0  0  0  0  0  0
   21.0485  -12.8621    6.3760 N   0  0  0  0  0  0  0  0  0  0  0  0
   21.1247  -11.5855    6.7855 C   0  0  0  0  0  0  0  0  0  0  0  0
   19.8984  -11.0998    6.8079 N   0  0  0  0  0  0  0  0  0  0  0  0
   16.8442  -14.0999    6.9504 C   0  0  0  0  0  0  0  0  0  0  0  0
   16.0923  -14.2155    7.9517 O   0  0  0  0  0  0  0  0  0  0  0  0
   18.8089  -18.4528    7.9652 O   0  0  0  0  0  0  0  0  0  0  0  0
   18.7008  -17.3747    7.1240 C   0  0  0  0  0  0  0  0  0  0  0  0
   18.0644  -16.1638    7.7660 C   0  0  2  0  0  0  0  0  0  0  0  0
   17.8449  -15.0984    6.8048 N   0  0  0  0  0  0  0  0  0  0  0  0
   18.7426  -15.7210    8.9733 C   0  0  0  0  0  0  0  0  0  0  0  0
   19.4372  -14.6849    8.9698 O   0  0  0  0  0  0  0  0  0  0  0  0
   18.6309  -16.4385   10.1459 O   0  0  0  0  0  0  0  0  0  0  0  0
  2  1  1  6
  3  2  1  0
  4  3  1  0
  5  4  2  0
  6  7  1  0
  6  5  1  0
  7  8  2  0
  8  4  1  0
  9  2  1  0
  9 10  2  0
 11  9  1  0
 12 11  1  0
 12 13  1  1
 13 14  1  0
 14 18  1  0
 14 15  2  0
 15 16  1  0
 17 16  1  0
 18 17  2  0
 19 12  1  0
 20 19  2  0
 22 21  1  0
 23 22  1  6
 23 24  1  0
 24 19  1  0
 25 23  1  0
 25 27  1  0
 26 25  2  0
M  END
$$$$
