HHS.pdb
     RDKit          3D

 27 28  0  0  1  0  0  0  0  0999 V2000
   24.3167  -34.1940   -5.0427 N   0  0  0  0  0  0  0  0  0  0  0  0
   25.7254  -33.8917   -4.9807 C   0  0  1  0  0  0  0  0  0  0  0  0
   25.8820  -32.4343   -5.3767 C   0  0  0  0  0  0  0  0  0  0  0  0
   25.6131  -32.2160   -6.8176 C   0  0  0  0  0  0  0  0  0  0  0  0
   25.2470  -33.1930   -7.7401 C   0  0  0  0  0  0  0  0  0  0  0  0
   25.0947  -32.6167   -8.9290 N   0  0  0  0  0  0  0  0  0  0  0  0
   25.3479  -31.2981   -8.8179 C   0  0  0  0  0  0  0  0  0  0  0  0
   25.6614  -31.0738   -7.5263 N   0  0  0  0  0  0  0  0  0  0  0  0
   26.2611  -34.0324   -3.5985 C   0  0  0  0  0  0  0  0  0  0  0  0
   27.4582  -33.7005   -3.3688 O   0  0  0  0  0  0  0  0  0  0  0  0
   25.5042  -34.5217   -2.5072 N   0  0  0  0  0  0  0  0  0  0  0  0
   25.9548  -34.6822   -1.1665 C   0  0  1  0  0  0  0  0  0  0  0  0
   24.9652  -34.4465   -0.0891 C   0  0  0  0  0  0  0  0  0  0  0  0
   25.0909  -33.1634    0.6310 C   0  0  0  0  0  0  0  0  0  0  0  0
   26.1965  -32.4860    1.0950 C   0  0  0  0  0  0  0  0  0  0  0  0
   25.7760  -31.3442    1.7075 N   0  0  0  0  0  0  0  0  0  0  0  0
   24.4359  -31.2958    1.6356 C   0  0  0  0  0  0  0  0  0  0  0  0
   24.0315  -32.3766    0.9963 N   0  0  0  0  0  0  0  0  0  0  0  0
   26.5671  -36.0533   -1.0596 C   0  0  0  0  0  0  0  0  0  0  0  0
   26.2244  -37.0071   -1.8041 O   0  0  0  0  0  0  0  0  0  0  0  0
   29.5865  -39.1754   -1.3127 O   0  0  0  0  0  0  0  0  0  0  0  0
   28.8344  -38.0292   -1.3611 C   0  0  0  0  0  0  0  0  0  0  0  0
   28.2686  -37.6162   -0.0221 C   0  0  2  0  0  0  0  0  0  0  0  0
   27.5752  -36.3433   -0.1008 N   0  0  0  0  0  0  0  0  0  0  0  0
   29.2341  -37.6812    1.0630 C   0  0  0  0  0  0  0  0  0  0  0  0
   29.4991  -36.6683    1.7409 O   0  0  0  0  0  0  0  0  0  0  0  0
   29.8755  -38.8647    1.3634 O   0  0  0  0  0  0  0  0  0  0  0  0
  2  1  1  1
  3  2  1  0
  4  3  1  0
  5  4  2  0
  6  7  1  0
  6  5  1  0
  7  8  2  0
  8  4  1  0
  9  2  1  0
  9 10  2  0
 11  9  1  0
 12 11  1  0
 12 13  1  1
 13 14  1  0
 14 18  1  0
 14 15  2  0
 15 16  1  0
 17 16  1  0
 18 17  2  0
 19 12  1  0
 20 19  2  0
 22 21  1  0
 23 22  1  6
 23 24  1  0
 24 19  1  0
 25 23  1  0
 25 27  1  0
 26 25  2  0
M  END
$$$$
