HHS.pdb
     RDKit          3D

 27 28  0  0  1  0  0  0  0  0999 V2000
   15.5241  -19.2521    1.9082 N   0  0  0  0  0  0  0  0  0  0  0  0
   15.2440  -19.2411    3.3228 C   0  0  1  0  0  0  0  0  0  0  0  0
   14.9939  -20.6809    3.7346 C   0  0  0  0  0  0  0  0  0  0  0  0
   13.7995  -21.2519    3.0686 C   0  0  0  0  0  0  0  0  0  0  0  0
   12.4805  -20.8521    3.2682 C   0  0  0  0  0  0  0  0  0  0  0  0
   11.6917  -21.5952    2.4972 N   0  0  0  0  0  0  0  0  0  0  0  0
   12.4468  -22.4668    1.8004 C   0  0  0  0  0  0  0  0  0  0  0  0
   13.7259  -22.2425    2.1617 N   0  0  0  0  0  0  0  0  0  0  0  0
   16.4077  -18.7528    4.1133 C   0  0  0  0  0  0  0  0  0  0  0  0
   17.5713  -19.1091    3.7742 O   0  0  0  0  0  0  0  0  0  0  0  0
   16.2933  -17.9015    5.2382 N   0  0  0  0  0  0  0  0  0  0  0  0
   17.3637  -17.3621    6.0060 C   0  0  1  0  0  0  0  0  0  0  0  0
   17.4857  -15.8861    6.0504 C   0  0  0  0  0  0  0  0  0  0  0  0
   17.9070  -15.2368    4.7927 C   0  0  0  0  0  0  0  0  0  0  0  0
   18.2902  -15.7662    3.5805 C   0  0  0  0  0  0  0  0  0  0  0  0
   18.5969  -14.7392    2.7399 N   0  0  0  0  0  0  0  0  0  0  0  0
   18.4139  -13.5844    3.4005 C   0  0  0  0  0  0  0  0  0  0  0  0
   18.0044  -13.8822    4.6186 N   0  0  0  0  0  0  0  0  0  0  0  0
   17.2631  -17.9468    7.3896 C   0  0  0  0  0  0  0  0  0  0  0  0
   16.1603  -18.1677    7.9521 O   0  0  0  0  0  0  0  0  0  0  0  0
   18.6893  -20.7865   10.8218 O   0  0  0  0  0  0  0  0  0  0  0  0
   18.8091  -20.2368    9.5708 C   0  0  0  0  0  0  0  0  0  0  0  0
   18.3827  -18.7888    9.4995 C   0  0  2  0  0  0  0  0  0  0  0  0
   18.4226  -18.2828    8.1396 N   0  0  0  0  0  0  0  0  0  0  0  0
   19.0677  -17.9326   10.4542 C   0  0  0  0  0  0  0  0  0  0  0  0
   19.7232  -16.9444   10.0671 O   0  0  0  0  0  0  0  0  0  0  0  0
   19.0057  -18.1967   11.8065 O   0  0  0  0  0  0  0  0  0  0  0  0
  2  1  1  6
  3  2  1  0
  4  3  1  0
  5  4  2  0
  6  7  1  0
  6  5  1  0
  7  8  2  0
  8  4  1  0
  9  2  1  0
  9 10  2  0
 11  9  1  0
 12 11  1  0
 12 13  1  1
 13 14  1  0
 14 18  1  0
 14 15  2  0
 15 16  1  0
 17 16  1  0
 18 17  2  0
 19 12  1  0
 20 19  2  0
 22 21  1  0
 23 22  1  6
 23 24  1  0
 24 19  1  0
 25 23  1  0
 25 27  1  0
 26 25  2  0
M  END
$$$$
