HHS.pdb
     RDKit          3D

 27 28  0  0  1  0  0  0  0  0999 V2000
   21.6016   -9.7751  -21.0659 N   0  0  0  0  0  0  0  0  0  0  0  0
   22.2038   -8.6715  -20.3594 C   0  0  1  0  0  0  0  0  0  0  0  0
   21.8793   -7.4140  -21.1458 C   0  0  0  0  0  0  0  0  0  0  0  0
   22.7130   -7.2877  -22.3645 C   0  0  0  0  0  0  0  0  0  0  0  0
   22.2675   -6.8985  -23.6253 C   0  0  0  0  0  0  0  0  0  0  0  0
   23.3026   -6.9044  -24.4604 N   0  0  0  0  0  0  0  0  0  0  0  0
   24.4092   -7.2833  -23.7917 C   0  0  0  0  0  0  0  0  0  0  0  0
   24.0302   -7.5121  -22.5186 N   0  0  0  0  0  0  0  0  0  0  0  0
   21.6223   -8.5024  -18.9990 C   0  0  0  0  0  0  0  0  0  0  0  0
   20.3751   -8.6322  -18.8455 O   0  0  0  0  0  0  0  0  0  0  0  0
   22.3883   -8.2008  -17.8477 N   0  0  0  0  0  0  0  0  0  0  0  0
   21.8995   -8.0490  -16.5194 C   0  0  1  0  0  0  0  0  0  0  0  0
   22.5185   -8.8943  -15.4716 C   0  0  0  0  0  0  0  0  0  0  0  0
   21.9486   -8.7598  -14.1159 C   0  0  0  0  0  0  0  0  0  0  0  0
   20.8870   -8.0192  -13.6456 C   0  0  0  0  0  0  0  0  0  0  0  0
   20.7743   -8.2317  -12.3049 N   0  0  0  0  0  0  0  0  0  0  0  0
   21.7403   -9.0863  -11.9306 C   0  0  0  0  0  0  0  0  0  0  0  0
   22.4360   -9.3983  -13.0071 N   0  0  0  0  0  0  0  0  0  0  0  0
   21.9914   -6.5873  -16.1713 C   0  0  0  0  0  0  0  0  0  0  0  0
   22.9942   -5.8851  -16.4593 O   0  0  0  0  0  0  0  0  0  0  0  0
   19.5607   -2.6100  -14.6527 O   0  0  0  0  0  0  0  0  0  0  0  0
   19.5789   -3.9457  -14.9644 C   0  0  0  0  0  0  0  0  0  0  0  0
   20.9693   -4.5085  -15.1475 C   0  0  2  0  0  0  0  0  0  0  0  0
   20.9377   -5.9184  -15.4915 N   0  0  0  0  0  0  0  0  0  0  0  0
   21.8705   -4.2027  -14.0484 C   0  0  0  0  0  0  0  0  0  0  0  0
   21.7999   -4.8315  -12.9734 O   0  0  0  0  0  0  0  0  0  0  0  0
   22.8211   -3.2113  -14.1736 O   0  0  0  0  0  0  0  0  0  0  0  0
  2  1  1  6
  3  2  1  0
  4  3  1  0
  5  4  2  0
  6  7  1  0
  6  5  1  0
  7  8  2  0
  8  4  1  0
  9  2  1  0
  9 10  2  0
 11  9  1  0
 12 11  1  0
 12 13  1  1
 13 14  1  0
 14 18  1  0
 14 15  2  0
 15 16  1  0
 17 16  1  0
 18 17  2  0
 19 12  1  0
 20 19  2  0
 22 21  1  0
 23 22  1  1
 23 24  1  0
 24 19  1  0
 25 23  1  0
 25 27  1  0
 26 25  2  0
M  END
$$$$
