HHS.pdb
     RDKit          3D

 27 28  0  0  1  0  0  0  0  0999 V2000
   19.1091  -11.8786  -16.5032 N   0  0  0  0  0  0  0  0  0  0  0  0
   18.2787  -10.7084  -16.6468 C   0  0  1  0  0  0  0  0  0  0  0  0
   16.8748  -11.1096  -16.2305 C   0  0  0  0  0  0  0  0  0  0  0  0
   16.2495  -12.0390  -17.2007 C   0  0  0  0  0  0  0  0  0  0  0  0
   16.5405  -12.1222  -18.5601 C   0  0  0  0  0  0  0  0  0  0  0  0
   15.7789  -13.0701  -19.0987 N   0  0  0  0  0  0  0  0  0  0  0  0
   15.0001  -13.6102  -18.1411 C   0  0  0  0  0  0  0  0  0  0  0  0
   15.3009  -12.9699  -16.9938 N   0  0  0  0  0  0  0  0  0  0  0  0
   18.7099   -9.6093  -15.7394 C   0  0  0  0  0  0  0  0  0  0  0  0
   18.8794   -9.8588  -14.5126 O   0  0  0  0  0  0  0  0  0  0  0  0
   18.9464   -8.2815  -16.1687 N   0  0  0  0  0  0  0  0  0  0  0  0
   19.4493   -7.2109  -15.3768 C   0  0  1  0  0  0  0  0  0  0  0  0
   20.9201   -7.0353  -15.3349 C   0  0  0  0  0  0  0  0  0  0  0  0
   21.6890   -8.1732  -14.7920 C   0  0  0  0  0  0  0  0  0  0  0  0
   22.5556   -9.0559  -15.3973 C   0  0  0  0  0  0  0  0  0  0  0  0
   22.9980   -9.9374  -14.4577 N   0  0  0  0  0  0  0  0  0  0  0  0
   22.4271   -9.6239  -13.2833 C   0  0  0  0  0  0  0  0  0  0  0  0
   21.6507   -8.5765  -13.4841 N   0  0  0  0  0  0  0  0  0  0  0  0
   18.7587   -5.9529  -15.8316 C   0  0  0  0  0  0  0  0  0  0  0  0
   18.7351   -5.5918  -17.0360 O   0  0  0  0  0  0  0  0  0  0  0  0
   15.4627   -2.5230  -14.8602 O   0  0  0  0  0  0  0  0  0  0  0  0
   16.1414   -3.6642  -14.5159 C   0  0  0  0  0  0  0  0  0  0  0  0
   17.4179   -3.8718  -15.2976 C   0  0  2  0  0  0  0  0  0  0  0  0
   18.0906   -5.0992  -14.9127 N   0  0  0  0  0  0  0  0  0  0  0  0
   18.2932   -2.7110  -15.3019 C   0  0  0  0  0  0  0  0  0  0  0  0
   19.1594   -2.5635  -14.4165 O   0  0  0  0  0  0  0  0  0  0  0  0
   18.1824   -1.7504  -16.2854 O   0  0  0  0  0  0  0  0  0  0  0  0
  2  1  1  1
  3  2  1  0
  4  3  1  0
  5  4  2  0
  6  7  1  0
  6  5  1  0
  7  8  2  0
  8  4  1  0
  9  2  1  0
  9 10  2  0
 11  9  1  0
 12 11  1  0
 12 13  1  6
 13 14  1  0
 14 18  1  0
 14 15  2  0
 15 16  1  0
 17 16  1  0
 18 17  2  0
 19 12  1  0
 20 19  2  0
 22 21  1  0
 23 22  1  1
 23 24  1  0
 24 19  1  0
 25 23  1  0
 25 27  1  0
 26 25  2  0
M  END
$$$$
