HHS.pdb
     RDKit          3D

 27 28  0  0  1  0  0  0  0  0999 V2000
   16.7276  -11.7991  -16.3893 N   0  0  0  0  0  0  0  0  0  0  0  0
   16.8625  -10.7142  -15.4489 C   0  0  1  0  0  0  0  0  0  0  0  0
   17.3575  -11.3179  -14.1467 C   0  0  0  0  0  0  0  0  0  0  0  0
   16.3000  -12.0897  -13.4522 C   0  0  0  0  0  0  0  0  0  0  0  0
   14.9966  -12.2829  -13.9032 C   0  0  0  0  0  0  0  0  0  0  0  0
   14.3462  -13.0258  -13.0123 N   0  0  0  0  0  0  0  0  0  0  0  0
   15.1768  -13.3257  -11.9946 C   0  0  0  0  0  0  0  0  0  0  0  0
   16.3603  -12.7473  -12.2805 N   0  0  0  0  0  0  0  0  0  0  0  0
   17.8822   -9.7230  -15.8904 C   0  0  0  0  0  0  0  0  0  0  0  0
   18.9529  -10.1387  -16.4166 O   0  0  0  0  0  0  0  0  0  0  0  0
   17.7277   -8.3224  -15.7570 N   0  0  0  0  0  0  0  0  0  0  0  0
   18.5859   -7.3198  -16.2902 C   0  0  1  0  0  0  0  0  0  0  0  0
   18.0370   -6.4656  -17.3694 C   0  0  0  0  0  0  0  0  0  0  0  0
   17.7532   -7.1470  -18.6484 C   0  0  0  0  0  0  0  0  0  0  0  0
   18.5937   -7.6433  -19.6198 C   0  0  0  0  0  0  0  0  0  0  0  0
   17.8328   -8.1718  -20.6184 N   0  0  0  0  0  0  0  0  0  0  0  0
   16.5398   -8.0157  -20.2911 C   0  0  0  0  0  0  0  0  0  0  0  0
   16.4950   -7.4073  -19.1215 N   0  0  0  0  0  0  0  0  0  0  0  0
   19.0831   -6.4930  -15.1345 C   0  0  0  0  0  0  0  0  0  0  0  0
   18.3137   -6.0275  -14.2554 O   0  0  0  0  0  0  0  0  0  0  0  0
   22.4792   -5.8115  -11.9206 O   0  0  0  0  0  0  0  0  0  0  0  0
   21.9473   -6.4083  -13.0353 C   0  0  0  0  0  0  0  0  0  0  0  0
   21.0110   -5.5148  -13.8153 C   0  0  2  0  0  0  0  0  0  0  0  0
   20.4631   -6.1927  -14.9760 N   0  0  0  0  0  0  0  0  0  0  0  0
   21.5724   -4.2090  -14.1212 C   0  0  0  0  0  0  0  0  0  0  0  0
   21.9849   -3.9464  -15.2688 O   0  0  0  0  0  0  0  0  0  0  0  0
   21.6595   -3.2356  -13.1481 O   0  0  0  0  0  0  0  0  0  0  0  0
  2  1  1  6
  3  2  1  0
  4  3  1  0
  5  4  2  0
  6  7  1  0
  6  5  1  0
  7  8  2  0
  8  4  1  0
  9  2  1  0
  9 10  2  0
 11  9  1  0
 12 11  1  0
 12 13  1  6
 13 14  1  0
 14 18  1  0
 14 15  2  0
 15 16  1  0
 17 16  1  0
 18 17  2  0
 19 12  1  0
 20 19  2  0
 22 21  1  0
 23 22  1  6
 23 24  1  0
 24 19  1  0
 25 23  1  0
 25 27  1  0
 26 25  2  0
M  END
$$$$
