HHS.pdb
     RDKit          3D

 27 28  0  0  1  0  0  0  0  0999 V2000
   22.2779   -7.8571  -17.6868 N   0  0  0  0  0  0  0  0  0  0  0  0
   21.7464   -8.4418  -16.4805 C   0  0  1  0  0  0  0  0  0  0  0  0
   22.8592   -8.4122  -15.4481 C   0  0  0  0  0  0  0  0  0  0  0  0
   23.8027   -9.5431  -15.6127 C   0  0  0  0  0  0  0  0  0  0  0  0
   23.7957  -10.4717  -16.6506 C   0  0  0  0  0  0  0  0  0  0  0  0
   24.7905  -11.3325  -16.4552 N   0  0  0  0  0  0  0  0  0  0  0  0
   25.4482  -11.0008  -15.3270 C   0  0  0  0  0  0  0  0  0  0  0  0
   24.8325   -9.9100  -14.8290 N   0  0  0  0  0  0  0  0  0  0  0  0
   20.6149   -7.6445  -15.9313 C   0  0  0  0  0  0  0  0  0  0  0  0
   20.6940   -6.3837  -15.9381 O   0  0  0  0  0  0  0  0  0  0  0  0
   19.4373   -8.2165  -15.3934 N   0  0  0  0  0  0  0  0  0  0  0  0
   18.2881   -7.5149  -14.9316 C   0  0  1  0  0  0  0  0  0  0  0  0
   16.9666   -8.1189  -15.2223 C   0  0  0  0  0  0  0  0  0  0  0  0
   15.7916   -7.2948  -14.8744 C   0  0  0  0  0  0  0  0  0  0  0  0
   15.3191   -6.1154  -15.4057 C   0  0  0  0  0  0  0  0  0  0  0  0
   14.1993   -5.7525  -14.7201 N   0  0  0  0  0  0  0  0  0  0  0  0
   13.9646   -6.6778  -13.7756 C   0  0  0  0  0  0  0  0  0  0  0  0
   14.9109   -7.5922  -13.8690 N   0  0  0  0  0  0  0  0  0  0  0  0
   18.4703   -7.2760  -13.4565 C   0  0  0  0  0  0  0  0  0  0  0  0
   19.1852   -8.0170  -12.7345 O   0  0  0  0  0  0  0  0  0  0  0  0
   17.8241   -4.0623   -9.7947 O   0  0  0  0  0  0  0  0  0  0  0  0
   17.5334   -4.4722  -11.0710 C   0  0  0  0  0  0  0  0  0  0  0  0
   18.0697   -5.8447  -11.4059 C   0  0  2  0  0  0  0  0  0  0  0  0
   17.8363   -6.1886  -12.7968 N   0  0  0  0  0  0  0  0  0  0  0  0
   17.6443   -6.8786  -10.4766 C   0  0  0  0  0  0  0  0  0  0  0  0
   16.5932   -7.5202  -10.6756 O   0  0  0  0  0  0  0  0  0  0  0  0
   18.3950   -7.1699   -9.3569 O   0  0  0  0  0  0  0  0  0  0  0  0
  2  1  1  6
  3  2  1  0
  4  3  1  0
  5  4  2  0
  6  7  1  0
  6  5  1  0
  7  8  2  0
  8  4  1  0
  9  2  1  0
  9 10  2  0
 11  9  1  0
 12 11  1  0
 12 13  1  1
 13 14  1  0
 14 18  1  0
 14 15  2  0
 15 16  1  0
 17 16  1  0
 18 17  2  0
 19 12  1  0
 20 19  2  0
 22 21  1  0
 23 22  1  1
 23 24  1  0
 24 19  1  0
 25 23  1  0
 25 27  1  0
 26 25  2  0
M  END
$$$$
