HHS.pdb
     RDKit          3D

 27 28  0  0  1  0  0  0  0  0999 V2000
   26.1496  -19.4661  -16.9855 N   0  0  0  0  0  0  0  0  0  0  0  0
   24.8687  -18.8499  -16.7423 C   0  0  1  0  0  0  0  0  0  0  0  0
   24.2727  -18.5203  -18.0993 C   0  0  0  0  0  0  0  0  0  0  0  0
   25.0413  -17.4683  -18.8053 C   0  0  0  0  0  0  0  0  0  0  0  0
   24.9522  -16.0970  -18.5789 C   0  0  0  0  0  0  0  0  0  0  0  0
   25.7921  -15.4765  -19.4025 N   0  0  0  0  0  0  0  0  0  0  0  0
   26.4275  -16.3921  -20.1597 C   0  0  0  0  0  0  0  0  0  0  0  0
   25.9574  -17.5975  -19.7818 N   0  0  0  0  0  0  0  0  0  0  0  0
   23.9269  -19.7815  -16.0623 C   0  0  0  0  0  0  0  0  0  0  0  0
   23.9185  -20.9988  -16.4002 O   0  0  0  0  0  0  0  0  0  0  0  0
   23.0257  -19.3859  -15.0451 N   0  0  0  0  0  0  0  0  0  0  0  0
   22.2270  -20.2446  -14.2384 C   0  0  1  0  0  0  0  0  0  0  0  0
   22.4379  -20.1831  -12.7730 C   0  0  0  0  0  0  0  0  0  0  0  0
   23.6799  -20.8075  -12.2746 C   0  0  0  0  0  0  0  0  0  0  0  0
   24.7003  -21.4548  -12.9352 C   0  0  0  0  0  0  0  0  0  0  0  0
   25.6186  -21.8619  -12.0151 N   0  0  0  0  0  0  0  0  0  0  0  0
   25.1934  -21.4835  -10.7988 C   0  0  0  0  0  0  0  0  0  0  0  0
   24.0426  -20.8579  -10.9553 N   0  0  0  0  0  0  0  0  0  0  0  0
   20.7877  -19.9877  -14.5975 C   0  0  0  0  0  0  0  0  0  0  0  0
   20.3168  -18.8277  -14.7160 O   0  0  0  0  0  0  0  0  0  0  0  0
   17.8705  -23.1964  -15.1810 O   0  0  0  0  0  0  0  0  0  0  0  0
   17.9442  -22.0620  -15.9486 C   0  0  0  0  0  0  0  0  0  0  0  0
   18.4913  -20.8625  -15.2100 C   0  0  2  0  0  0  0  0  0  0  0  0
   19.8771  -21.0552  -14.8233 N   0  0  0  0  0  0  0  0  0  0  0  0
   17.6438  -20.4160  -14.1164 C   0  0  0  0  0  0  0  0  0  0  0  0
   18.0592  -20.4351  -12.9403 O   0  0  0  0  0  0  0  0  0  0  0  0
   16.3639  -19.9626  -14.3586 O   0  0  0  0  0  0  0  0  0  0  0  0
  2  1  1  6
  3  2  1  0
  4  3  1  0
  5  4  2  0
  6  7  1  0
  6  5  1  0
  7  8  2  0
  8  4  1  0
  9  2  1  0
  9 10  2  0
 11  9  1  0
 12 11  1  0
 12 13  1  1
 13 14  1  0
 14 18  1  0
 14 15  2  0
 15 16  1  0
 17 16  1  0
 18 17  2  0
 19 12  1  0
 20 19  2  0
 22 21  1  0
 23 22  1  1
 23 24  1  0
 24 19  1  0
 25 23  1  0
 25 27  1  0
 26 25  2  0
M  END
$$$$
