HHS.pdb
     RDKit          3D

 27 28  0  0  1  0  0  0  0  0999 V2000
   26.1500   -8.8874  -18.7231 N   0  0  0  0  0  0  0  0  0  0  0  0
   27.1978   -9.1222  -17.7605 C   0  0  1  0  0  0  0  0  0  0  0  0
   26.9541  -10.4995  -17.1699 C   0  0  0  0  0  0  0  0  0  0  0  0
   25.7085  -10.5502  -16.3685 C   0  0  0  0  0  0  0  0  0  0  0  0
   25.5529  -10.0832  -15.0657 C   0  0  0  0  0  0  0  0  0  0  0  0
   24.2978  -10.3028  -14.6844 N   0  0  0  0  0  0  0  0  0  0  0  0
   23.6266  -10.8964  -15.6906 C   0  0  0  0  0  0  0  0  0  0  0  0
   24.5016  -11.0385  -16.7060 N   0  0  0  0  0  0  0  0  0  0  0  0
   28.5417   -9.1495  -18.4013 C   0  0  0  0  0  0  0  0  0  0  0  0
   28.7066   -9.8347  -19.4498 O   0  0  0  0  0  0  0  0  0  0  0  0
   29.6649   -8.4461  -17.9044 N   0  0  0  0  0  0  0  0  0  0  0  0
   30.9512   -8.3663  -18.5087 C   0  0  1  0  0  0  0  0  0  0  0  0
   31.3496   -7.0575  -19.0778 C   0  0  0  0  0  0  0  0  0  0  0  0
   30.6710   -6.6665  -20.3298 C   0  0  0  0  0  0  0  0  0  0  0  0
   29.8646   -7.3806  -21.1878 C   0  0  0  0  0  0  0  0  0  0  0  0
   29.4972   -6.5632  -22.2138 N   0  0  0  0  0  0  0  0  0  0  0  0
   30.0561   -5.3586  -22.0142 C   0  0  0  0  0  0  0  0  0  0  0  0
   30.7523   -5.4222  -20.8954 N   0  0  0  0  0  0  0  0  0  0  0  0
   31.9538   -8.8534  -17.4969 C   0  0  0  0  0  0  0  0  0  0  0  0
   32.0122   -8.3947  -16.3275 O   0  0  0  0  0  0  0  0  0  0  0  0
   34.1355  -12.3772  -18.2215 O   0  0  0  0  0  0  0  0  0  0  0  0
   33.9578  -11.9018  -16.9471 C   0  0  0  0  0  0  0  0  0  0  0  0
   33.8615  -10.3959  -16.8679 C   0  0  2  0  0  0  0  0  0  0  0  0
   32.8966   -9.8681  -17.8153 N   0  0  0  0  0  0  0  0  0  0  0  0
   35.1508   -9.7263  -16.9239 C   0  0  0  0  0  0  0  0  0  0  0  0
   35.3851   -8.8682  -17.7983 O   0  0  0  0  0  0  0  0  0  0  0  0
   36.1397  -10.0275  -16.0108 O   0  0  0  0  0  0  0  0  0  0  0  0
  2  1  1  6
  3  2  1  0
  4  3  1  0
  5  4  2  0
  6  7  1  0
  6  5  1  0
  7  8  2  0
  8  4  1  0
  9  2  1  0
  9 10  2  0
 11  9  1  0
 12 11  1  0
 12 13  1  1
 13 14  1  0
 14 18  1  0
 14 15  2  0
 15 16  1  0
 17 16  1  0
 18 17  2  0
 19 12  1  0
 20 19  2  0
 22 21  1  0
 23 22  1  6
 23 24  1  0
 24 19  1  0
 25 23  1  0
 25 27  1  0
 26 25  2  0
M  END
$$$$
