HHS.pdb
     RDKit          3D

 27 28  0  0  1  0  0  0  0  0999 V2000
   31.0700  -38.6415   -7.6449 N   0  0  0  0  0  0  0  0  0  0  0  0
   30.1497  -37.5657   -7.3707 C   0  0  1  0  0  0  0  0  0  0  0  0
   28.7511  -38.1519   -7.4430 C   0  0  0  0  0  0  0  0  0  0  0  0
   28.3775  -38.5344   -8.8251 C   0  0  0  0  0  0  0  0  0  0  0  0
   28.3996  -39.8229   -9.3531 C   0  0  0  0  0  0  0  0  0  0  0  0
   27.9993  -39.7681  -10.6202 N   0  0  0  0  0  0  0  0  0  0  0  0
   27.7161  -38.4904  -10.9404 C   0  0  0  0  0  0  0  0  0  0  0  0
   27.9524  -37.7552   -9.8357 N   0  0  0  0  0  0  0  0  0  0  0  0
   30.3286  -37.0216   -5.9961 C   0  0  0  0  0  0  0  0  0  0  0  0
   30.7397  -37.7904   -5.0818 O   0  0  0  0  0  0  0  0  0  0  0  0
   30.0639  -35.6773   -5.6412 N   0  0  0  0  0  0  0  0  0  0  0  0
   30.2299  -35.0912   -4.3547 C   0  0  1  0  0  0  0  0  0  0  0  0
   31.5465  -34.4804   -4.0560 C   0  0  0  0  0  0  0  0  0  0  0  0
   32.6471  -35.4257   -3.7809 C   0  0  0  0  0  0  0  0  0  0  0  0
   33.7197  -35.8204   -4.5492 C   0  0  0  0  0  0  0  0  0  0  0  0
   34.4458  -36.7291   -3.8403 N   0  0  0  0  0  0  0  0  0  0  0  0
   33.8503  -36.9088   -2.6501 C   0  0  0  0  0  0  0  0  0  0  0  0
   32.7830  -36.1343   -2.6171 N   0  0  0  0  0  0  0  0  0  0  0  0
   29.1100  -34.1035   -4.1633 C   0  0  0  0  0  0  0  0  0  0  0  0
   28.9275  -33.1294   -4.9373 O   0  0  0  0  0  0  0  0  0  0  0  0
   25.0957  -32.4762   -4.0409 O   0  0  0  0  0  0  0  0  0  0  0  0
   26.1963  -33.2860   -4.1618 C   0  0  0  0  0  0  0  0  0  0  0  0
   27.0399  -33.3563   -2.9101 C   0  0  2  0  0  0  0  0  0  0  0  0
   28.1913  -34.2228   -3.0856 N   0  0  0  0  0  0  0  0  0  0  0  0
   26.2755  -33.6488   -1.7085 C   0  0  0  0  0  0  0  0  0  0  0  0
   26.1911  -34.8156   -1.2758 O   0  0  0  0  0  0  0  0  0  0  0  0
   25.6288  -32.6411   -1.0239 O   0  0  0  0  0  0  0  0  0  0  0  0
  2  1  1  1
  3  2  1  0
  4  3  1  0
  5  4  2  0
  6  7  1  0
  6  5  1  0
  7  8  2  0
  8  4  1  0
  9  2  1  0
  9 10  2  0
 11  9  1  0
 12 11  1  0
 12 13  1  6
 13 14  1  0
 14 18  1  0
 14 15  2  0
 15 16  1  0
 17 16  1  0
 18 17  2  0
 19 12  1  0
 20 19  2  0
 22 21  1  0
 23 22  1  6
 23 24  1  0
 24 19  1  0
 25 23  1  0
 25 27  1  0
 26 25  2  0
M  END
$$$$
