HHS.pdb
     RDKit          3D

 27 28  0  0  1  0  0  0  0  0999 V2000
   16.7949  -13.0168  -16.1348 N   0  0  0  0  0  0  0  0  0  0  0  0
   16.7655  -11.6080  -15.8283 C   0  0  1  0  0  0  0  0  0  0  0  0
   16.2314  -11.4752  -14.4133 C   0  0  0  0  0  0  0  0  0  0  0  0
   14.7842  -11.7836  -14.3322 C   0  0  0  0  0  0  0  0  0  0  0  0
   14.2212  -12.9366  -13.7905 C   0  0  0  0  0  0  0  0  0  0  0  0
   12.8983  -12.8524  -13.8980 N   0  0  0  0  0  0  0  0  0  0  0  0
   12.5752  -11.6863  -14.4904 C   0  0  0  0  0  0  0  0  0  0  0  0
   13.7356  -11.0503  -14.7470 N   0  0  0  0  0  0  0  0  0  0  0  0
   18.1293  -11.0103  -15.8421 C   0  0  0  0  0  0  0  0  0  0  0  0
   19.0850  -11.6530  -15.3227 O   0  0  0  0  0  0  0  0  0  0  0  0
   18.4299   -9.7485  -16.4084 N   0  0  0  0  0  0  0  0  0  0  0  0
   19.7257   -9.1912  -16.5988 C   0  0  1  0  0  0  0  0  0  0  0  0
   20.1781   -8.9964  -17.9963 C   0  0  0  0  0  0  0  0  0  0  0  0
   20.3308  -10.2254  -18.8007 C   0  0  0  0  0  0  0  0  0  0  0  0
   21.1246  -11.3363  -18.6214 C   0  0  0  0  0  0  0  0  0  0  0  0
   20.9055  -12.1937  -19.6570 N   0  0  0  0  0  0  0  0  0  0  0  0
   19.9949  -11.6423  -20.4757 C   0  0  0  0  0  0  0  0  0  0  0  0
   19.6553  -10.4741  -19.9655 N   0  0  0  0  0  0  0  0  0  0  0  0
   19.7801   -7.9043  -15.8194 C   0  0  0  0  0  0  0  0  0  0  0  0
   18.8212   -7.0914  -15.7882 O   0  0  0  0  0  0  0  0  0  0  0  0
   21.5849   -7.4854  -12.2586 O   0  0  0  0  0  0  0  0  0  0  0  0
   21.9539   -6.4758  -13.1107 C   0  0  0  0  0  0  0  0  0  0  0  0
   21.0320   -6.3140  -14.2971 C   0  0  2  0  0  0  0  0  0  0  0  0
   20.9312   -7.5381  -15.0708 N   0  0  0  0  0  0  0  0  0  0  0  0
   21.3250   -5.1423  -15.1064 C   0  0  0  0  0  0  0  0  0  0  0  0
   21.7931   -5.2636  -16.2562 O   0  0  0  0  0  0  0  0  0  0  0  0
   21.0907   -3.8739  -14.6180 O   0  0  0  0  0  0  0  0  0  0  0  0
  2  1  1  1
  3  2  1  0
  4  3  1  0
  5  4  2  0
  6  7  1  0
  6  5  1  0
  7  8  2  0
  8  4  1  0
  9  2  1  0
  9 10  2  0
 11  9  1  0
 12 11  1  0
 12 13  1  6
 13 14  1  0
 14 18  1  0
 14 15  2  0
 15 16  1  0
 17 16  1  0
 18 17  2  0
 19 12  1  0
 20 19  2  0
 22 21  1  0
 23 22  1  1
 23 24  1  0
 24 19  1  0
 25 23  1  0
 25 27  1  0
 26 25  2  0
M  END
$$$$
