REW.pdb
     RDKit          3D

 35 36  0  0  1  0  0  0  0  0999 V2000
    8.4872  -11.6883   20.4899 N   0  0  0  0  0  0  0  0  0  0  0  0
    8.4491  -12.2238   19.1744 C   0  0  0  0  0  0  0  0  0  0  0  0
    9.5013  -12.1481   18.4382 N   0  0  0  0  0  0  0  0  0  0  0  0
    7.2633  -12.8347   18.6784 N   0  0  0  0  0  0  0  0  0  0  0  0
    6.8187  -14.1508   19.1449 C   0  0  0  0  0  0  0  0  0  0  0  0
    7.9838  -15.0909   19.1203 C   0  0  0  0  0  0  0  0  0  0  0  0
    8.2059  -15.7762   20.4106 C   0  0  0  0  0  0  0  0  0  0  0  0
    8.5608  -17.2047   20.2934 C   0  0  2  0  0  0  0  0  0  0  0  0
    7.5567  -18.0464   19.7165 N   0  0  0  0  0  0  0  0  0  0  0  0
    8.9481  -17.7419   21.6329 C   0  0  0  0  0  0  0  0  0  0  0  0
    8.1970  -18.5733   22.2428 O   0  0  0  0  0  0  0  0  0  0  0  0
    9.4324  -12.3790   17.4381 N   0  0  0  0  0  0  0  0  0  0  0  0
   10.1291  -17.3699   22.2774 C   0  0  2  0  0  0  0  0  0  0  0  0
   10.5419  -17.9958   23.5434 C   0  0  0  0  0  0  0  0  0  0  0  0
   11.7679  -18.7831   23.3589 C   0  0  0  0  0  0  0  0  0  0  0  0
   11.8167  -19.8196   22.2960 C   0  0  0  0  0  0  0  0  0  0  0  0
   13.1665  -20.3443   22.0478 O   0  0  0  0  0  0  0  0  0  0  0  0
   14.1965  -19.6429   22.0848 C   0  0  0  0  0  0  0  0  0  0  0  0
   10.5640  -16.9088   24.5286 O   0  0  0  0  0  0  0  0  0  0  0  0
   11.2125  -15.8156   24.3711 O   0  0  0  0  0  0  0  0  0  0  0  0
   13.3026  -21.7038   21.7581 N   0  0  0  0  0  0  0  0  0  0  0  0
    9.8504  -16.9719   25.7722 C   0  0  1  0  0  0  0  0  0  0  0  0
   10.4526  -16.5029   27.0361 C   0  0  0  0  0  0  0  0  0  0  0  0
    9.8487  -15.1743   27.3930 C   0  0  0  0  0  0  0  0  0  0  0  0
    8.5351  -14.9622   26.8003 C   0  0  0  0  0  0  0  0  0  0  0  0
    7.5855  -15.9590   26.5151 N   0  0  0  0  0  0  0  0  0  0  0  0
    6.5144  -15.4115   25.9316 C   0  0  0  0  0  0  0  0  0  0  0  0
    6.6795  -14.0821   25.8016 C   0  0  0  0  0  0  0  0  0  0  0  0
    5.8621  -13.0887   25.2904 C   0  0  0  0  0  0  0  0  0  0  0  0
    6.3391  -11.7965   25.3373 C   0  0  0  0  0  0  0  0  0  0  0  0
    7.5612  -11.4848   25.8600 C   0  0  0  0  0  0  0  0  0  0  0  0
    8.3512  -12.4951   26.3594 C   0  0  0  0  0  0  0  0  0  0  0  0
    7.9309  -13.8043   26.3399 C   0  0  0  0  0  0  0  0  0  0  0  0
   10.3565  -17.4641   28.1178 O   0  0  0  0  0  0  0  0  0  0  0  0
   10.9662  -17.3272   29.3425 O   0  0  0  0  0  0  0  0  0  0  0  0
  2  3  2  0
  2  1  1  0
  4  2  1  0
  5  4  1  0
  6  5  1  0
  7  6  1  0
  8  7  1  0
  8  9  1  1
 10  8  1  0
 10 11  2  0
 12 10  1  0
 13 12  1  0
 13 18  1  0
 13 14  1  6
 15 14  1  0
 16 17  2  0
 16 15  1  0
 18 21  1  0
 18 19  2  0
 20 16  1  0
 21 22  1  0
 22 23  1  1
 23 24  1  0
 24 32  1  0
 25 26  1  0
 25 24  2  0
 26 27  1  0
 27 32  2  0
 27 28  1  0
 28 29  2  0
 29 30  1  0
 31 30  2  0
 32 31  1  0
 33 22  1  0
 33 34  1  0
 35 33  2  0
M  END
$$$$
