REW.pdb
     RDKit          3D

 35 36  0  0  1  0  0  0  0  0999 V2000
    9.8398  -13.1016   18.3633 N   0  0  0  0  0  0  0  0  0  0  0  0
    8.5830  -12.7144   18.9011 C   0  0  0  0  0  0  0  0  0  0  0  0
    8.5053  -11.6314   19.5909 N   0  0  0  0  0  0  0  0  0  0  0  0
    7.4267  -13.5140   18.6801 N   0  0  0  0  0  0  0  0  0  0  0  0
    7.3070  -14.8679   19.2281 C   0  0  0  0  0  0  0  0  0  0  0  0
    6.5521  -14.8012   20.5194 C   0  0  0  0  0  0  0  0  0  0  0  0
    7.2765  -15.4191   21.6496 C   0  0  0  0  0  0  0  0  0  0  0  0
    7.3658  -16.8918   21.5893 C   0  0  2  0  0  0  0  0  0  0  0  0
    6.1209  -17.5917   21.6888 N   0  0  0  0  0  0  0  0  0  0  0  0
    8.2982  -17.3864   22.6470 C   0  0  0  0  0  0  0  0  0  0  0  0
    7.8486  -17.9485   23.7002 O   0  0  0  0  0  0  0  0  0  0  0  0
    7.5831  -11.2999   19.9036 N   0  0  0  0  0  0  0  0  0  0  0  0
    9.6846  -17.2619   22.5426 C   0  0  2  0  0  0  0  0  0  0  0  0
   10.5824  -17.7875   23.5831 C   0  0  0  0  0  0  0  0  0  0  0  0
   11.9252  -18.0273   23.0389 C   0  0  0  0  0  0  0  0  0  0  0  0
   12.5537  -17.0015   22.1677 C   0  0  0  0  0  0  0  0  0  0  0  0
   13.8986  -17.3681   21.7033 O   0  0  0  0  0  0  0  0  0  0  0  0
   14.1130  -18.1976   20.7976 C   0  0  0  0  0  0  0  0  0  0  0  0
   10.4538  -16.8628   24.7149 O   0  0  0  0  0  0  0  0  0  0  0  0
   10.5833  -15.5923   24.6170 O   0  0  0  0  0  0  0  0  0  0  0  0
   14.9961  -16.7507   22.3075 N   0  0  0  0  0  0  0  0  0  0  0  0
   10.1655  -17.3032   26.0500 C   0  0  1  0  0  0  0  0  0  0  0  0
   10.2710  -16.3916   27.2068 C   0  0  0  0  0  0  0  0  0  0  0  0
    8.9009  -16.1950   27.7911 C   0  0  0  0  0  0  0  0  0  0  0  0
    8.0099  -15.4359   26.9241 C   0  0  0  0  0  0  0  0  0  0  0  0
    7.0332  -15.9732   26.0673 N   0  0  0  0  0  0  0  0  0  0  0  0
    6.4356  -14.9895   25.3872 C   0  0  0  0  0  0  0  0  0  0  0  0
    6.9535  -13.7969   25.7353 C   0  0  0  0  0  0  0  0  0  0  0  0
    6.6618  -12.5038   25.3365 C   0  0  0  0  0  0  0  0  0  0  0  0
    7.3804  -11.4870   25.9271 C   0  0  0  0  0  0  0  0  0  0  0  0
    8.3431  -11.7196   26.8667 C   0  0  0  0  0  0  0  0  0  0  0  0
    8.6109  -13.0165   27.2413 C   0  0  0  0  0  0  0  0  0  0  0  0
    7.9282  -14.0739   26.6872 C   0  0  0  0  0  0  0  0  0  0  0  0
   11.2401  -16.8190   28.1974 O   0  0  0  0  0  0  0  0  0  0  0  0
   11.5881  -16.0963   29.3141 O   0  0  0  0  0  0  0  0  0  0  0  0
  2  3  2  0
  2  1  1  0
  4  2  1  0
  5  4  1  0
  6  5  1  0
  7  6  1  0
  8  7  1  0
  8  9  1  1
 10  8  1  0
 10 11  2  0
 12 10  1  0
 13 12  1  0
 13 18  1  0
 13 14  1  6
 15 14  1  0
 16 17  2  0
 16 15  1  0
 18 21  1  0
 18 19  2  0
 20 16  1  0
 21 22  1  0
 22 23  1  1
 23 24  1  0
 24 32  1  0
 25 26  1  0
 25 24  2  0
 26 27  1  0
 27 32  2  0
 27 28  1  0
 28 29  2  0
 29 30  1  0
 31 30  2  0
 32 31  1  0
 33 22  1  0
 33 34  1  0
 35 33  2  0
M  END
$$$$
