REW.pdb
     RDKit          3D

 35 36  0  0  1  0  0  0  0  0999 V2000
    8.7781  -14.8976   16.2684 N   0  0  0  0  0  0  0  0  0  0  0  0
    8.2933  -13.5831   16.0320 C   0  0  0  0  0  0  0  0  0  0  0  0
    8.3589  -13.0974   14.8426 N   0  0  0  0  0  0  0  0  0  0  0  0
    7.7436  -12.8148   17.0963 N   0  0  0  0  0  0  0  0  0  0  0  0
    8.0309  -13.1223   18.5000 C   0  0  0  0  0  0  0  0  0  0  0  0
    7.4434  -14.4590   18.8315 C   0  0  0  0  0  0  0  0  0  0  0  0
    7.5660  -14.8100   20.2618 C   0  0  0  0  0  0  0  0  0  0  0  0
    8.9450  -15.0914   20.7084 C   0  0  2  0  0  0  0  0  0  0  0  0
    9.7933  -15.7176   19.7400 N   0  0  0  0  0  0  0  0  0  0  0  0
    8.9157  -15.9204   21.9513 C   0  0  0  0  0  0  0  0  0  0  0  0
    8.0566  -15.6917   22.8661 O   0  0  0  0  0  0  0  0  0  0  0  0
    8.0778  -12.1208   14.6825 N   0  0  0  0  0  0  0  0  0  0  0  0
    9.8097  -16.9688   22.1749 C   0  0  1  0  0  0  0  0  0  0  0  0
    9.7301  -17.7995   23.3867 C   0  0  0  0  0  0  0  0  0  0  0  0
   10.4637  -19.0585   23.2034 C   0  0  0  0  0  0  0  0  0  0  0  0
   11.8983  -19.1292   23.5822 C   0  0  0  0  0  0  0  0  0  0  0  0
   12.4995  -20.4521   23.3648 O   0  0  0  0  0  0  0  0  0  0  0  0
   11.8874  -21.4128   22.8580 C   0  0  0  0  0  0  0  0  0  0  0  0
   10.1348  -16.9217   24.4904 O   0  0  0  0  0  0  0  0  0  0  0  0
   11.1053  -16.0887   24.4212 O   0  0  0  0  0  0  0  0  0  0  0  0
   13.8303  -20.6421   23.7434 N   0  0  0  0  0  0  0  0  0  0  0  0
    9.4704  -16.9152   25.7626 C   0  0  1  0  0  0  0  0  0  0  0  0
   10.0941  -16.3171   26.9598 C   0  0  0  0  0  0  0  0  0  0  0  0
    9.0390  -15.5795   27.7344 C   0  0  0  0  0  0  0  0  0  0  0  0
    7.9943  -15.0164   26.8899 C   0  0  0  0  0  0  0  0  0  0  0  0
    6.9740  -15.7371   26.2446 N   0  0  0  0  0  0  0  0  0  0  0  0
    6.2224  -14.9056   25.5159 C   0  0  0  0  0  0  0  0  0  0  0  0
    6.6755  -13.6432   25.6288 C   0  0  0  0  0  0  0  0  0  0  0  0
    6.2330  -12.4448   25.0956 C   0  0  0  0  0  0  0  0  0  0  0  0
    6.9274  -11.3069   25.4457 C   0  0  0  0  0  0  0  0  0  0  0  0
    8.0075  -11.3350   26.2801 C   0  0  0  0  0  0  0  0  0  0  0  0
    8.4238  -12.5423   26.7931 C   0  0  0  0  0  0  0  0  0  0  0  0
    7.7726  -13.7124   26.4800 C   0  0  0  0  0  0  0  0  0  0  0  0
   10.8165  -17.2722   27.7778 O   0  0  0  0  0  0  0  0  0  0  0  0
   11.6071  -16.9414   28.8529 O   0  0  0  0  0  0  0  0  0  0  0  0
  2  3  2  0
  2  1  1  0
  4  2  1  0
  5  4  1  0
  6  5  1  0
  7  6  1  0
  8  7  1  0
  8  9  1  6
 10  8  1  0
 10 11  2  0
 12 10  1  0
 13 12  1  0
 13 18  1  0
 13 14  1  6
 15 14  1  0
 16 17  2  0
 16 15  1  0
 18 21  1  0
 18 19  2  0
 20 16  1  0
 21 22  1  0
 22 23  1  1
 23 24  1  0
 24 32  1  0
 25 26  1  0
 25 24  2  0
 26 27  1  0
 27 32  2  0
 27 28  1  0
 28 29  2  0
 29 30  1  0
 31 30  2  0
 32 31  1  0
 33 22  1  0
 33 34  1  0
 35 33  2  0
M  END
$$$$
