REW.pdb
     RDKit          3D

 35 36  0  0  1  0  0  0  0  0999 V2000
    6.8766  -15.0074   17.1640 N   0  0  0  0  0  0  0  0  0  0  0  0
    7.2125  -13.6279   17.2177 C   0  0  0  0  0  0  0  0  0  0  0  0
    7.4473  -12.9987   16.1205 N   0  0  0  0  0  0  0  0  0  0  0  0
    7.2886  -12.9523   18.4679 N   0  0  0  0  0  0  0  0  0  0  0  0
    7.3912  -13.6810   19.7352 C   0  0  0  0  0  0  0  0  0  0  0  0
    8.7647  -14.2669   19.8455 C   0  0  0  0  0  0  0  0  0  0  0  0
    8.7600  -15.6902   20.2431 C   0  0  0  0  0  0  0  0  0  0  0  0
   10.0976  -16.3114   20.3155 C   0  0  2  0  0  0  0  0  0  0  0  0
   10.4430  -17.1659   19.2200 N   0  0  0  0  0  0  0  0  0  0  0  0
   10.2361  -17.0679   21.5967 C   0  0  0  0  0  0  0  0  0  0  0  0
    9.5596  -18.1298   21.8021 O   0  0  0  0  0  0  0  0  0  0  0  0
    7.7000  -12.0021   16.1570 N   0  0  0  0  0  0  0  0  0  0  0  0
   11.0955  -16.6612   22.6187 C   0  0  1  0  0  0  0  0  0  0  0  0
   11.3605  -17.5187   23.7847 C   0  0  0  0  0  0  0  0  0  0  0  0
   12.7465  -18.0039   23.7692 C   0  0  0  0  0  0  0  0  0  0  0  0
   13.8225  -17.1233   23.2465 C   0  0  0  0  0  0  0  0  0  0  0  0
   14.7133  -17.7894   22.2866 O   0  0  0  0  0  0  0  0  0  0  0  0
   14.5720  -18.9730   21.9214 C   0  0  0  0  0  0  0  0  0  0  0  0
   10.9153  -16.7448   24.9489 O   0  0  0  0  0  0  0  0  0  0  0  0
   11.4942  -15.6795   25.3619 O   0  0  0  0  0  0  0  0  0  0  0  0
   15.7740  -17.0549   21.7518 N   0  0  0  0  0  0  0  0  0  0  0  0
    9.7757  -17.1147   25.7390 C   0  0  1  0  0  0  0  0  0  0  0  0
    9.7248  -16.8609   27.1926 C   0  0  0  0  0  0  0  0  0  0  0  0
    8.3003  -16.5872   27.5837 C   0  0  0  0  0  0  0  0  0  0  0  0
    7.6167  -15.6831   26.6689 C   0  0  0  0  0  0  0  0  0  0  0  0
    6.7818  -16.0605   25.6025 N   0  0  0  0  0  0  0  0  0  0  0  0
    6.3647  -14.9731   24.9460 C   0  0  0  0  0  0  0  0  0  0  0  0
    6.8720  -13.8614   25.5103 C   0  0  0  0  0  0  0  0  0  0  0  0
    6.7211  -12.5171   25.2165 C   0  0  0  0  0  0  0  0  0  0  0  0
    7.3737  -11.6185   26.0326 C   0  0  0  0  0  0  0  0  0  0  0  0
    8.1414  -12.0126   27.0905 C   0  0  0  0  0  0  0  0  0  0  0  0
    8.2729  -13.3566   27.3560 C   0  0  0  0  0  0  0  0  0  0  0  0
    7.6470  -14.3016   26.5773 C   0  0  0  0  0  0  0  0  0  0  0  0
   10.3256  -17.9141   27.9882 O   0  0  0  0  0  0  0  0  0  0  0  0
   10.5793  -17.8280   29.3368 O   0  0  0  0  0  0  0  0  0  0  0  0
  2  3  2  0
  2  1  1  0
  4  2  1  0
  5  4  1  0
  6  5  1  0
  7  6  1  0
  8  7  1  0
  8  9  1  6
 10  8  1  0
 10 11  2  0
 12 10  1  0
 13 12  1  0
 13 18  1  0
 13 14  1  6
 15 14  1  0
 16 17  2  0
 16 15  1  0
 18 21  1  0
 18 19  2  0
 20 16  1  0
 21 22  1  0
 22 23  1  1
 23 24  1  0
 24 32  1  0
 25 26  1  0
 25 24  2  0
 26 27  1  0
 27 32  2  0
 27 28  1  0
 28 29  2  0
 29 30  1  0
 31 30  2  0
 32 31  1  0
 33 22  1  0
 33 34  1  0
 35 33  2  0
M  END
$$$$
