REW.pdb
     RDKit          3D

 35 36  0  0  1  0  0  0  0  0999 V2000
    8.3624  -15.5676   16.9741 N   0  0  0  0  0  0  0  0  0  0  0  0
    8.2430  -14.3452   16.2600 C   0  0  0  0  0  0  0  0  0  0  0  0
    8.5230  -14.3249   15.0045 N   0  0  0  0  0  0  0  0  0  0  0  0
    7.8202  -13.1599   16.9245 N   0  0  0  0  0  0  0  0  0  0  0  0
    7.1772  -13.1994   18.2408 C   0  0  0  0  0  0  0  0  0  0  0  0
    8.2384  -13.2706   19.2947 C   0  0  0  0  0  0  0  0  0  0  0  0
    7.8395  -14.0747   20.4687 C   0  0  0  0  0  0  0  0  0  0  0  0
    7.8032  -15.5315   20.2308 C   0  0  2  0  0  0  0  0  0  0  0  0
    6.4995  -16.0987   20.0630 N   0  0  0  0  0  0  0  0  0  0  0  0
    8.5146  -16.2430   21.3356 C   0  0  0  0  0  0  0  0  0  0  0  0
    7.8669  -16.7223   22.3245 O   0  0  0  0  0  0  0  0  0  0  0  0
    8.4893  -13.4310   14.4966 N   0  0  0  0  0  0  0  0  0  0  0  0
    9.8995  -16.4177   21.3457 C   0  0  1  0  0  0  0  0  0  0  0  0
   10.5632  -17.2250   22.3814 C   0  0  0  0  0  0  0  0  0  0  0  0
   11.8594  -17.7220   21.9022 C   0  0  0  0  0  0  0  0  0  0  0  0
   12.7178  -18.5201   22.8146 C   0  0  0  0  0  0  0  0  0  0  0  0
   13.9918  -18.9345   22.2112 O   0  0  0  0  0  0  0  0  0  0  0  0
   14.8016  -18.1390   21.6956 C   0  0  0  0  0  0  0  0  0  0  0  0
   10.5488  -16.3969   23.5923 O   0  0  0  0  0  0  0  0  0  0  0  0
   11.0791  -15.2334   23.6680 O   0  0  0  0  0  0  0  0  0  0  0  0
   14.3142  -20.2934   22.2192 N   0  0  0  0  0  0  0  0  0  0  0  0
    9.9298  -16.8196   24.8162 C   0  0  1  0  0  0  0  0  0  0  0  0
   10.5064  -16.4831   26.1332 C   0  0  0  0  0  0  0  0  0  0  0  0
    9.9888  -15.1373   26.5553 C   0  0  0  0  0  0  0  0  0  0  0  0
    8.5444  -15.0081   26.4180 C   0  0  0  0  0  0  0  0  0  0  0  0
    7.6413  -16.0537   26.1577 N   0  0  0  0  0  0  0  0  0  0  0  0
    6.4014  -15.5656   26.0484 C   0  0  0  0  0  0  0  0  0  0  0  0
    6.4059  -14.2309   26.2224 C   0  0  0  0  0  0  0  0  0  0  0  0
    5.3909  -13.2896   26.2248 C   0  0  0  0  0  0  0  0  0  0  0  0
    5.7482  -11.9810   26.4683 C   0  0  0  0  0  0  0  0  0  0  0  0
    7.0400  -11.6047   26.6996 C   0  0  0  0  0  0  0  0  0  0  0  0
    8.0269  -12.5640   26.6894 C   0  0  0  0  0  0  0  0  0  0  0  0
    7.7332  -13.8862   26.4514 C   0  0  0  0  0  0  0  0  0  0  0  0
   10.2878  -17.5024   27.1413 O   0  0  0  0  0  0  0  0  0  0  0  0
   10.7630  -17.4426   28.4301 O   0  0  0  0  0  0  0  0  0  0  0  0
  2  3  2  0
  2  1  1  0
  4  2  1  0
  5  4  1  0
  6  5  1  0
  7  6  1  0
  8  7  1  0
  8  9  1  1
 10  8  1  0
 10 11  2  0
 12 10  1  0
 13 12  1  0
 13 18  1  0
 13 14  1  6
 15 14  1  0
 16 17  2  0
 16 15  1  0
 18 21  1  0
 18 19  2  0
 20 16  1  0
 21 22  1  0
 22 23  1  1
 23 24  1  0
 24 32  1  0
 25 26  1  0
 25 24  2  0
 26 27  1  0
 27 32  2  0
 27 28  1  0
 28 29  2  0
 29 30  1  0
 31 30  2  0
 32 31  1  0
 33 22  1  0
 33 34  1  0
 35 33  2  0
M  END
$$$$
