REW.pdb
     RDKit          3D

 35 36  0  0  1  0  0  0  0  0999 V2000
    8.3883  -16.4597   16.5796 N   0  0  0  0  0  0  0  0  0  0  0  0
    8.0430  -15.3847   15.7171 C   0  0  0  0  0  0  0  0  0  0  0  0
    7.5780  -15.6471   14.5467 N   0  0  0  0  0  0  0  0  0  0  0  0
    8.2100  -14.0368   16.1420 N   0  0  0  0  0  0  0  0  0  0  0  0
    8.6701  -13.7038   17.4930 C   0  0  0  0  0  0  0  0  0  0  0  0
    7.4817  -13.6127   18.3992 C   0  0  0  0  0  0  0  0  0  0  0  0
    7.5167  -14.5924   19.5050 C   0  0  0  0  0  0  0  0  0  0  0  0
    8.2097  -14.1210   20.7206 C   0  0  2  0  0  0  0  0  0  0  0  0
    9.3193  -13.2439   20.4995 N   0  0  0  0  0  0  0  0  0  0  0  0
    8.6578  -15.2915   21.5344 C   0  0  0  0  0  0  0  0  0  0  0  0
    7.8147  -16.1482   21.9616 O   0  0  0  0  0  0  0  0  0  0  0  0
    7.2799  -14.8724   13.9392 N   0  0  0  0  0  0  0  0  0  0  0  0
    9.9967  -15.5062   21.8655 C   0  0  1  0  0  0  0  0  0  0  0  0
   10.4210  -16.7050   22.6056 C   0  0  0  0  0  0  0  0  0  0  0  0
   11.7305  -17.1721   22.1323 C   0  0  0  0  0  0  0  0  0  0  0  0
   12.3513  -18.3653   22.7624 C   0  0  0  0  0  0  0  0  0  0  0  0
   13.6761  -18.6951   22.2193 O   0  0  0  0  0  0  0  0  0  0  0  0
   14.3960  -19.6101   22.6654 C   0  0  0  0  0  0  0  0  0  0  0  0
   10.2861  -16.3573   24.0245 O   0  0  0  0  0  0  0  0  0  0  0  0
   10.6761  -15.2458   24.5274 O   0  0  0  0  0  0  0  0  0  0  0  0
   14.1528  -17.9446   21.1422 N   0  0  0  0  0  0  0  0  0  0  0  0
    9.6957  -17.2411   24.9890 C   0  0  1  0  0  0  0  0  0  0  0  0
    9.7252  -16.9420   26.4346 C   0  0  0  0  0  0  0  0  0  0  0  0
    8.3136  -16.9093   26.9481 C   0  0  0  0  0  0  0  0  0  0  0  0
    7.5553  -15.7604   26.4719 C   0  0  0  0  0  0  0  0  0  0  0  0
    6.4703  -15.7979   25.5785 N   0  0  0  0  0  0  0  0  0  0  0  0
    6.0477  -14.5550   25.3256 C   0  0  0  0  0  0  0  0  0  0  0  0
    6.7899  -13.6603   26.0041 C   0  0  0  0  0  0  0  0  0  0  0  0
    6.7338  -12.2798   26.0905 C   0  0  0  0  0  0  0  0  0  0  0  0
    7.6473  -11.6646   26.9190 C   0  0  0  0  0  0  0  0  0  0  0  0
    8.5768  -12.3644   27.6332 C   0  0  0  0  0  0  0  0  0  0  0  0
    8.6079  -13.7360   27.5249 C   0  0  0  0  0  0  0  0  0  0  0  0
    7.7231  -14.4073   26.7139 C   0  0  0  0  0  0  0  0  0  0  0  0
   10.5718  -17.8394   27.1969 O   0  0  0  0  0  0  0  0  0  0  0  0
   10.8063  -17.7350   28.5477 O   0  0  0  0  0  0  0  0  0  0  0  0
  2  3  2  0
  2  1  1  0
  4  2  1  0
  5  4  1  0
  6  5  1  0
  7  6  1  0
  8  7  1  0
  8  9  1  6
 10  8  1  0
 10 11  2  0
 12 10  1  0
 13 12  1  0
 13 18  1  0
 13 14  1  1
 15 14  1  0
 16 17  2  0
 16 15  1  0
 18 21  1  0
 18 19  2  0
 20 16  1  0
 21 22  1  0
 22 23  1  1
 23 24  1  0
 24 32  1  0
 25 26  1  0
 25 24  2  0
 26 27  1  0
 27 32  2  0
 27 28  1  0
 28 29  2  0
 29 30  1  0
 31 30  2  0
 32 31  1  0
 33 22  1  0
 33 34  1  0
 35 33  2  0
M  END
$$$$
