REW.pdb
     RDKit          3D

 35 36  0  0  1  0  0  0  0  0999 V2000
    8.1155  -12.5706   14.7393 N   0  0  0  0  0  0  0  0  0  0  0  0
    8.1984  -13.6223   15.6910 C   0  0  0  0  0  0  0  0  0  0  0  0
    8.3845  -14.8261   15.2774 N   0  0  0  0  0  0  0  0  0  0  0  0
    8.0767  -13.3476   17.0820 N   0  0  0  0  0  0  0  0  0  0  0  0
    8.1702  -14.4071   18.0901 C   0  0  0  0  0  0  0  0  0  0  0  0
    7.8671  -13.8224   19.4348 C   0  0  0  0  0  0  0  0  0  0  0  0
    7.8668  -14.8264   20.5192 C   0  0  0  0  0  0  0  0  0  0  0  0
    8.7679  -15.9741   20.2928 C   0  0  2  0  0  0  0  0  0  0  0  0
    8.2779  -16.9783   19.3978 N   0  0  0  0  0  0  0  0  0  0  0  0
    9.1221  -16.6055   21.6000 C   0  0  0  0  0  0  0  0  0  0  0  0
    8.3518  -17.4702   22.1351 O   0  0  0  0  0  0  0  0  0  0  0  0
    8.5329  -15.5764   15.9653 N   0  0  0  0  0  0  0  0  0  0  0  0
   10.2915  -16.2890   22.2934 C   0  0  1  0  0  0  0  0  0  0  0  0
   10.8029  -17.1528   23.3692 C   0  0  0  0  0  0  0  0  0  0  0  0
   12.2060  -17.5115   23.1255 C   0  0  0  0  0  0  0  0  0  0  0  0
   12.5598  -18.2916   21.9120 C   0  0  0  0  0  0  0  0  0  0  0  0
   13.9957  -18.5812   21.7968 O   0  0  0  0  0  0  0  0  0  0  0  0
   14.8364  -18.2529   22.6570 C   0  0  0  0  0  0  0  0  0  0  0  0
   10.4779  -16.4559   24.6187 O   0  0  0  0  0  0  0  0  0  0  0  0
   10.7010  -15.2110   24.8208 O   0  0  0  0  0  0  0  0  0  0  0  0
   14.4419  -19.2645   20.6635 N   0  0  0  0  0  0  0  0  0  0  0  0
    9.8710  -17.1136   25.7407 C   0  0  1  0  0  0  0  0  0  0  0  0
    9.7606  -16.4560   27.0581 C   0  0  0  0  0  0  0  0  0  0  0  0
    8.3113  -16.4057   27.4509 C   0  0  0  0  0  0  0  0  0  0  0  0
    7.4946  -15.6206   26.5354 C   0  0  0  0  0  0  0  0  0  0  0  0
    6.5650  -16.1297   25.6116 N   0  0  0  0  0  0  0  0  0  0  0  0
    6.0334  -15.1278   24.9038 C   0  0  0  0  0  0  0  0  0  0  0  0
    6.5520  -13.9495   25.2966 C   0  0  0  0  0  0  0  0  0  0  0  0
    6.3136  -12.6471   24.8925 C   0  0  0  0  0  0  0  0  0  0  0  0
    7.0130  -11.6508   25.5386 C   0  0  0  0  0  0  0  0  0  0  0  0
    7.9074  -11.9118   26.5364 C   0  0  0  0  0  0  0  0  0  0  0  0
    8.1234  -13.2173   26.9148 C   0  0  0  0  0  0  0  0  0  0  0  0
    7.4566  -14.2552   26.3071 C   0  0  0  0  0  0  0  0  0  0  0  0
   10.5917  -17.0605   28.0812 O   0  0  0  0  0  0  0  0  0  0  0  0
   10.7786  -16.5458   29.3424 O   0  0  0  0  0  0  0  0  0  0  0  0
  2  3  2  0
  2  1  1  0
  4  2  1  0
  5  4  1  0
  6  5  1  0
  7  6  1  0
  8  7  1  0
  8  9  1  6
 10  8  1  0
 10 11  2  0
 12 10  1  0
 13 12  1  0
 13 18  1  0
 13 14  1  1
 15 14  1  0
 16 17  2  0
 16 15  1  0
 18 21  1  0
 18 19  2  0
 20 16  1  0
 21 22  1  0
 22 23  1  1
 23 24  1  0
 24 32  1  0
 25 26  1  0
 25 24  2  0
 26 27  1  0
 27 32  2  0
 27 28  1  0
 28 29  2  0
 29 30  1  0
 31 30  2  0
 32 31  1  0
 33 22  1  0
 33 34  1  0
 35 33  2  0
M  END
$$$$
