REW.pdb
     RDKit          3D

 35 36  0  0  1  0  0  0  0  0999 V2000
    7.6784  -13.0310   15.0460 N   0  0  0  0  0  0  0  0  0  0  0  0
    8.5377  -14.1364   15.2877 C   0  0  0  0  0  0  0  0  0  0  0  0
    9.1722  -14.6623   14.2999 N   0  0  0  0  0  0  0  0  0  0  0  0
    8.6934  -14.6547   16.6039 N   0  0  0  0  0  0  0  0  0  0  0  0
    7.8344  -14.2245   17.7105 C   0  0  0  0  0  0  0  0  0  0  0  0
    8.2571  -14.9397   18.9562 C   0  0  0  0  0  0  0  0  0  0  0  0
    7.1471  -15.1572   19.9073 C   0  0  0  0  0  0  0  0  0  0  0  0
    7.4482  -14.7711   21.3003 C   0  0  2  0  0  0  0  0  0  0  0  0
    8.1085  -13.5115   21.4643 N   0  0  0  0  0  0  0  0  0  0  0  0
    8.2542  -15.8426   21.9600 C   0  0  0  0  0  0  0  0  0  0  0  0
    7.9064  -17.0667   21.8709 O   0  0  0  0  0  0  0  0  0  0  0  0
    9.8015  -15.4575   14.4732 N   0  0  0  0  0  0  0  0  0  0  0  0
    9.4081  -15.5677   22.6958 C   0  0  1  0  0  0  0  0  0  0  0  0
   10.2319  -16.6472   23.2623 C   0  0  0  0  0  0  0  0  0  0  0  0
   11.4471  -16.8485   22.4624 C   0  0  0  0  0  0  0  0  0  0  0  0
   12.4261  -17.8882   22.8711 C   0  0  0  0  0  0  0  0  0  0  0  0
   13.5781  -17.9994   21.9661 O   0  0  0  0  0  0  0  0  0  0  0  0
   13.9994  -19.0832   21.5162 C   0  0  0  0  0  0  0  0  0  0  0  0
   10.3902  -16.3148   24.6824 O   0  0  0  0  0  0  0  0  0  0  0  0
   11.2126  -15.4374   25.1230 O   0  0  0  0  0  0  0  0  0  0  0  0
   14.2345  -16.8265   21.5866 N   0  0  0  0  0  0  0  0  0  0  0  0
    9.6268  -16.9490   25.7192 C   0  0  1  0  0  0  0  0  0  0  0  0
   10.0434  -16.8909   27.1346 C   0  0  0  0  0  0  0  0  0  0  0  0
    8.9835  -16.1709   27.9190 C   0  0  0  0  0  0  0  0  0  0  0  0
    8.0338  -15.4542   27.0787 C   0  0  0  0  0  0  0  0  0  0  0  0
    7.0538  -16.0364   26.2556 N   0  0  0  0  0  0  0  0  0  0  0  0
    6.3935  -15.0821   25.5918 C   0  0  0  0  0  0  0  0  0  0  0  0
    6.8712  -13.8671   25.9191 C   0  0  0  0  0  0  0  0  0  0  0  0
    6.5121  -12.5894   25.5257 C   0  0  0  0  0  0  0  0  0  0  0  0
    7.2054  -11.5402   26.0895 C   0  0  0  0  0  0  0  0  0  0  0  0
    8.2067  -11.7274   26.9984 C   0  0  0  0  0  0  0  0  0  0  0  0
    8.5413  -13.0101   27.3684 C   0  0  0  0  0  0  0  0  0  0  0  0
    7.8867  -14.0980   26.8401 C   0  0  0  0  0  0  0  0  0  0  0  0
   10.3667  -18.1870   27.6992 O   0  0  0  0  0  0  0  0  0  0  0  0
   10.2350  -19.3842   27.0360 O   0  0  0  0  0  0  0  0  0  0  0  0
  2  3  2  0
  2  1  1  0
  4  2  1  0
  5  4  1  0
  6  5  1  0
  7  6  1  0
  8  7  1  0
  8  9  1  6
 10  8  1  0
 10 11  2  0
 12 10  1  0
 13 12  1  0
 13 18  1  0
 13 14  1  6
 15 14  1  0
 16 17  2  0
 16 15  1  0
 18 21  1  0
 18 19  2  0
 20 16  1  0
 21 22  1  0
 22 23  1  1
 23 24  1  0
 24 32  1  0
 25 26  1  0
 25 24  2  0
 26 27  1  0
 27 32  2  0
 27 28  1  0
 28 29  2  0
 29 30  1  0
 31 30  2  0
 32 31  1  0
 33 22  1  0
 33 34  1  0
 35 33  2  0
M  END
$$$$
