REW.pdb
     RDKit          3D

 35 36  0  0  1  0  0  0  0  0999 V2000
    8.3120  -12.8612   18.2467 N   0  0  0  0  0  0  0  0  0  0  0  0
    7.9230  -12.3371   19.5088 C   0  0  0  0  0  0  0  0  0  0  0  0
    8.3062  -11.1545   19.8394 N   0  0  0  0  0  0  0  0  0  0  0  0
    7.1212  -13.1102   20.3946 N   0  0  0  0  0  0  0  0  0  0  0  0
    6.7202  -14.4831   20.0750 C   0  0  0  0  0  0  0  0  0  0  0  0
    6.9932  -15.3545   21.2617 C   0  0  0  0  0  0  0  0  0  0  0  0
    8.1761  -16.2228   21.0861 C   0  0  0  0  0  0  0  0  0  0  0  0
    7.9318  -17.6541   21.3545 C   0  0  2  0  0  0  0  0  0  0  0  0
    6.5563  -18.0475   21.4085 N   0  0  0  0  0  0  0  0  0  0  0  0
    8.6119  -18.0548   22.6233 C   0  0  0  0  0  0  0  0  0  0  0  0
    7.9359  -18.4800   23.6180 O   0  0  0  0  0  0  0  0  0  0  0  0
    8.0269  -10.7729   20.7529 N   0  0  0  0  0  0  0  0  0  0  0  0
    9.9966  -17.9861   22.7860 C   0  0  2  0  0  0  0  0  0  0  0  0
   10.6522  -18.4946   24.0011 C   0  0  0  0  0  0  0  0  0  0  0  0
   12.0187  -18.9442   23.7054 C   0  0  0  0  0  0  0  0  0  0  0  0
   13.0064  -17.9734   23.1685 C   0  0  0  0  0  0  0  0  0  0  0  0
   14.3131  -18.5718   22.8630 O   0  0  0  0  0  0  0  0  0  0  0  0
   15.0064  -19.1793   23.7024 C   0  0  0  0  0  0  0  0  0  0  0  0
   10.4767  -17.4438   25.0098 O   0  0  0  0  0  0  0  0  0  0  0  0
   10.7254  -16.2049   24.8008 O   0  0  0  0  0  0  0  0  0  0  0  0
   14.8029  -18.4566   21.5601 N   0  0  0  0  0  0  0  0  0  0  0  0
   10.0025  -17.7118   26.3376 C   0  0  1  0  0  0  0  0  0  0  0  0
   10.1486  -16.7256   27.4267 C   0  0  0  0  0  0  0  0  0  0  0  0
    8.7801  -16.2915   27.8695 C   0  0  0  0  0  0  0  0  0  0  0  0
    8.0793  -15.4940   26.8722 C   0  0  0  0  0  0  0  0  0  0  0  0
    7.1678  -15.9780   25.9174 N   0  0  0  0  0  0  0  0  0  0  0  0
    6.7557  -14.9755   25.1347 C   0  0  0  0  0  0  0  0  0  0  0  0
    7.3394  -13.8207   25.5055 C   0  0  0  0  0  0  0  0  0  0  0  0
    7.2246  -12.5257   25.0301 C   0  0  0  0  0  0  0  0  0  0  0  0
    7.9600  -11.5531   25.6725 C   0  0  0  0  0  0  0  0  0  0  0  0
    8.7733  -11.8301   26.7333 C   0  0  0  0  0  0  0  0  0  0  0  0
    8.8671  -13.1279   27.1818 C   0  0  0  0  0  0  0  0  0  0  0  0
    8.1588  -14.1424   26.5816 C   0  0  0  0  0  0  0  0  0  0  0  0
   10.9655  -17.1940   28.5295 O   0  0  0  0  0  0  0  0  0  0  0  0
   11.2907  -16.4449   29.6357 O   0  0  0  0  0  0  0  0  0  0  0  0
  2  3  2  0
  2  1  1  0
  4  2  1  0
  5  4  1  0
  6  5  1  0
  7  6  1  0
  8  7  1  0
  8  9  1  1
 10  8  1  0
 10 11  2  0
 12 10  1  0
 13 12  1  0
 13 18  1  0
 13 14  1  6
 15 14  1  0
 16 17  2  0
 16 15  1  0
 18 21  1  0
 18 19  2  0
 20 16  1  0
 21 22  1  0
 22 23  1  1
 23 24  1  0
 24 32  1  0
 25 26  1  0
 25 24  2  0
 26 27  1  0
 27 32  2  0
 27 28  1  0
 28 29  2  0
 29 30  1  0
 31 30  2  0
 32 31  1  0
 33 22  1  0
 33 34  1  0
 35 33  2  0
M  END
$$$$
