REW.pdb
     RDKit          3D

 35 36  0  0  1  0  0  0  0  0999 V2000
    5.9820  -12.9260   19.1994 N   0  0  0  0  0  0  0  0  0  0  0  0
    7.3891  -13.1160   19.1479 C   0  0  0  0  0  0  0  0  0  0  0  0
    8.1535  -12.0906   19.0095 N   0  0  0  0  0  0  0  0  0  0  0  0
    7.9447  -14.4224   19.2475 N   0  0  0  0  0  0  0  0  0  0  0  0
    7.1077  -15.6023   19.4820 C   0  0  0  0  0  0  0  0  0  0  0  0
    6.6931  -15.6221   20.9206 C   0  0  0  0  0  0  0  0  0  0  0  0
    7.4864  -16.5602   21.7419 C   0  0  0  0  0  0  0  0  0  0  0  0
    8.5611  -17.2592   21.0093 C   0  0  2  0  0  0  0  0  0  0  0  0
    8.1787  -18.4794   20.3655 N   0  0  0  0  0  0  0  0  0  0  0  0
    9.7112  -17.5221   21.9264 C   0  0  0  0  0  0  0  0  0  0  0  0
   10.1036  -18.7146   22.1531 O   0  0  0  0  0  0  0  0  0  0  0  0
    9.1603  -12.2320   18.8526 N   0  0  0  0  0  0  0  0  0  0  0  0
   10.4045  -16.4975   22.5728 C   0  0  2  0  0  0  0  0  0  0  0  0
   11.6532  -16.7597   23.3055 C   0  0  0  0  0  0  0  0  0  0  0  0
   12.7544  -15.9549   22.7612 C   0  0  0  0  0  0  0  0  0  0  0  0
   12.8935  -15.8085   21.2896 C   0  0  0  0  0  0  0  0  0  0  0  0
   13.9979  -14.9265   20.8880 O   0  0  0  0  0  0  0  0  0  0  0  0
   13.8341  -13.8461   20.2878 C   0  0  0  0  0  0  0  0  0  0  0  0
   11.3166  -16.5953   24.7241 O   0  0  0  0  0  0  0  0  0  0  0  0
   12.1606  -16.2470   25.6224 O   0  0  0  0  0  0  0  0  0  0  0  0
   15.3017  -15.3186   21.1992 N   0  0  0  0  0  0  0  0  0  0  0  0
    9.9946  -16.8104   25.2396 C   0  0  1  0  0  0  0  0  0  0  0  0
    9.7045  -16.7345   26.6853 C   0  0  0  0  0  0  0  0  0  0  0  0
    8.2218  -16.5778   26.8710 C   0  0  0  0  0  0  0  0  0  0  0  0
    7.6361  -15.5720   25.9953 C   0  0  0  0  0  0  0  0  0  0  0  0
    6.9162  -15.8218   24.8137 N   0  0  0  0  0  0  0  0  0  0  0  0
    6.5687  -14.6649   24.2410 C   0  0  0  0  0  0  0  0  0  0  0  0
    7.0142  -13.6269   24.9729 C   0  0  0  0  0  0  0  0  0  0  0  0
    6.8938  -12.2570   24.8143 C   0  0  0  0  0  0  0  0  0  0  0  0
    7.4580  -11.4599   25.7867 C   0  0  0  0  0  0  0  0  0  0  0  0
    8.1124  -11.9753   26.8684 C   0  0  0  0  0  0  0  0  0  0  0  0
    8.2164  -13.3416   26.9972 C   0  0  0  0  0  0  0  0  0  0  0  0
    7.6749  -14.1892   26.0593 C   0  0  0  0  0  0  0  0  0  0  0  0
   10.2442  -17.8451   27.4458 O   0  0  0  0  0  0  0  0  0  0  0  0
   10.2911  -17.9038   28.8187 O   0  0  0  0  0  0  0  0  0  0  0  0
  2  3  2  0
  2  1  1  0
  4  2  1  0
  5  4  1  0
  6  5  1  0
  7  6  1  0
  8  7  1  0
  8  9  1  1
 10  8  1  0
 10 11  2  0
 12 10  1  0
 13 12  1  0
 13 18  1  0
 13 14  1  6
 15 14  1  0
 16 17  2  0
 16 15  1  0
 18 21  1  0
 18 19  2  0
 20 16  1  0
 21 22  1  0
 22 23  1  1
 23 24  1  0
 24 32  1  0
 25 26  1  0
 25 24  2  0
 26 27  1  0
 27 32  2  0
 27 28  1  0
 28 29  2  0
 29 30  1  0
 31 30  2  0
 32 31  1  0
 33 22  1  0
 33 34  1  0
 35 33  2  0
M  END
$$$$
