REW.pdb
     RDKit          3D

 35 36  0  0  1  0  0  0  0  0999 V2000
    7.2768  -14.4905   16.2709 N   0  0  0  0  0  0  0  0  0  0  0  0
    7.3924  -13.2214   16.8992 C   0  0  0  0  0  0  0  0  0  0  0  0
    7.4775  -12.1671   16.1671 N   0  0  0  0  0  0  0  0  0  0  0  0
    7.4143  -13.1186   18.3184 N   0  0  0  0  0  0  0  0  0  0  0  0
    8.5288  -13.6406   19.1140 C   0  0  0  0  0  0  0  0  0  0  0  0
    8.1746  -15.0119   19.6000 C   0  0  0  0  0  0  0  0  0  0  0  0
    9.2385  -15.6326   20.4166 C   0  0  0  0  0  0  0  0  0  0  0  0
    8.9620  -17.0228   20.8304 C   0  0  2  0  0  0  0  0  0  0  0  0
    7.5798  -17.3938   20.8680 N   0  0  0  0  0  0  0  0  0  0  0  0
    9.5826  -17.2873   22.1638 C   0  0  0  0  0  0  0  0  0  0  0  0
    9.0358  -18.0929   22.9879 O   0  0  0  0  0  0  0  0  0  0  0  0
    7.6532  -11.2576   16.6146 N   0  0  0  0  0  0  0  0  0  0  0  0
   10.7704  -16.6785   22.5722 C   0  0  2  0  0  0  0  0  0  0  0  0
   11.5163  -17.1621   23.7447 C   0  0  0  0  0  0  0  0  0  0  0  0
   12.9608  -16.9767   23.5549 C   0  0  0  0  0  0  0  0  0  0  0  0
   13.9026  -17.4685   24.5929 C   0  0  0  0  0  0  0  0  0  0  0  0
   15.3150  -17.2290   24.2667 O   0  0  0  0  0  0  0  0  0  0  0  0
   15.9658  -17.9284   23.4656 C   0  0  0  0  0  0  0  0  0  0  0  0
   10.8863  -16.5179   24.9026 O   0  0  0  0  0  0  0  0  0  0  0  0
   10.8849  -15.2529   25.1028 O   0  0  0  0  0  0  0  0  0  0  0  0
   15.9622  -16.1572   24.8854 N   0  0  0  0  0  0  0  0  0  0  0  0
   10.2041  -17.2559   25.9272 C   0  0  1  0  0  0  0  0  0  0  0  0
    9.8913  -16.6537   27.2385 C   0  0  0  0  0  0  0  0  0  0  0  0
    8.4052  -16.7102   27.4519 C   0  0  0  0  0  0  0  0  0  0  0  0
    7.6575  -15.8903   26.5083 C   0  0  0  0  0  0  0  0  0  0  0  0
    6.8909  -16.3623   25.4284 N   0  0  0  0  0  0  0  0  0  0  0  0
    6.3837  -15.3302   24.7466 C   0  0  0  0  0  0  0  0  0  0  0  0
    6.7635  -14.1665   25.3063 C   0  0  0  0  0  0  0  0  0  0  0  0
    6.4866  -12.8477   24.9895 C   0  0  0  0  0  0  0  0  0  0  0  0
    7.0261  -11.8785   25.8073 C   0  0  0  0  0  0  0  0  0  0  0  0
    7.8030  -12.1809   26.8884 C   0  0  0  0  0  0  0  0  0  0  0  0
    8.0613  -13.5016   27.1765 C   0  0  0  0  0  0  0  0  0  0  0  0
    7.5521  -14.5139   26.3973 C   0  0  0  0  0  0  0  0  0  0  0  0
   10.6321  -17.2396   28.3390 O   0  0  0  0  0  0  0  0  0  0  0  0
   10.5989  -16.7829   29.6355 O   0  0  0  0  0  0  0  0  0  0  0  0
  2  3  2  0
  2  1  1  0
  4  2  1  0
  5  4  1  0
  6  5  1  0
  7  6  1  0
  8  7  1  0
  8  9  1  1
 10  8  1  0
 10 11  2  0
 12 10  1  0
 13 12  1  0
 13 18  1  0
 13 14  1  6
 15 14  1  0
 16 17  2  0
 16 15  1  0
 18 21  1  0
 18 19  2  0
 20 16  1  0
 21 22  1  0
 22 23  1  1
 23 24  1  0
 24 32  1  0
 25 26  1  0
 25 24  2  0
 26 27  1  0
 27 32  2  0
 27 28  1  0
 28 29  2  0
 29 30  1  0
 31 30  2  0
 32 31  1  0
 33 22  1  0
 33 34  1  0
 35 33  2  0
M  END
$$$$
