SHN.pdb
     RDKit          3D

 25 25  0  0  1  0  0  0  0  0999 V2000
    9.5604  -17.4644   25.5607 O   0  0  0  0  0  0  0  0  0  0  0  0
    8.2714  -17.1368   25.9155 C   0  0  0  0  0  0  0  0  0  0  0  0
    7.3276  -17.5282   24.8263 C   0  0  2  0  0  0  0  0  0  0  0  0
    7.1526  -18.9957   24.7952 N   0  0  0  0  0  0  0  0  0  0  0  0
    7.7467  -17.0804   23.4854 C   0  0  0  0  0  0  0  0  0  0  0  0
    8.0290  -17.9441   22.5878 O   0  0  0  0  0  0  0  0  0  0  0  0
    7.8467  -15.7225   23.1494 N   0  0  0  0  0  0  0  0  0  0  0  0
    8.1241  -15.3636   21.7481 C   0  0  1  0  0  0  0  0  0  0  0  0
    7.6963  -13.9326   21.4934 C   0  0  0  0  0  0  0  0  0  0  0  0
    7.9211  -13.5571   20.0841 C   0  0  0  0  0  0  0  0  0  0  0  0
    6.9913  -13.4002   19.0882 C   0  0  0  0  0  0  0  0  0  0  0  0
    7.6225  -13.0678   17.9470 N   0  0  0  0  0  0  0  0  0  0  0  0
    8.9422  -13.0194   18.2382 C   0  0  0  0  0  0  0  0  0  0  0  0
    9.1393  -13.3134   19.5289 N   0  0  0  0  0  0  0  0  0  0  0  0
    9.5610  -15.5978   21.5192 C   0  0  0  0  0  0  0  0  0  0  0  0
    9.9937  -15.4263   20.3525 O   0  0  0  0  0  0  0  0  0  0  0  0
   14.0036  -14.2481   19.7454 N   0  0  0  0  0  0  0  0  0  0  0  0
   12.8530  -14.9901   20.1943 C   0  0  0  0  0  0  0  0  0  0  0  0
   12.3299  -15.7370   19.3371 O   0  0  0  0  0  0  0  0  0  0  0  0
   12.3554  -14.8552   21.5693 C   0  0  0  0  0  0  0  0  0  0  0  0
   11.8962  -16.1550   22.1486 C   0  0  2  0  0  0  0  0  0  0  0  0
   10.4884  -15.9987   22.5045 N   0  0  0  0  0  0  0  0  0  0  0  0
   12.6882  -16.6476   23.2802 C   0  0  0  0  0  0  0  0  0  0  0  0
   13.3539  -17.7289   23.1018 O   0  0  0  0  0  0  0  0  0  0  0  0
   12.8023  -16.0758   24.5294 O   0  0  0  0  0  0  0  0  0  0  0  0
  1  2  1  0
  2  3  1  0
  3  5  1  0
  3  4  1  6
  5  6  2  0
  7  5  1  0
  7  8  1  0
  8 15  1  0
  8  9  1  1
 10  9  1  0
 11 10  2  0
 12 13  1  0
 12 11  1  0
 13 14  2  0
 14 10  1  0
 15 16  2  0
 18 17  1  0
 19 18  2  0
 20 18  1  0
 21 20  1  1
 21 23  1  0
 22 21  1  0
 22 15  1  0
 23 25  1  0
 24 23  2  0
M  END
$$$$
