SHN.pdb
     RDKit          3D

 25 25  0  0  1  0  0  0  0  0999 V2000
    9.1903  -20.9270   18.9128 O   0  0  0  0  0  0  0  0  0  0  0  0
   10.3095  -20.1354   19.0386 C   0  0  0  0  0  0  0  0  0  0  0  0
   10.0215  -18.7608   18.5308 C   0  0  2  0  0  0  0  0  0  0  0  0
   10.7908  -18.4925   17.2975 N   0  0  0  0  0  0  0  0  0  0  0  0
   10.3144  -17.6927   19.5043 C   0  0  0  0  0  0  0  0  0  0  0  0
   11.3856  -17.0065   19.3897 O   0  0  0  0  0  0  0  0  0  0  0  0
    9.4490  -17.3929   20.5664 N   0  0  0  0  0  0  0  0  0  0  0  0
    9.7633  -16.2381   21.4248 C   0  0  1  0  0  0  0  0  0  0  0  0
    8.4951  -15.4657   21.7259 C   0  0  0  0  0  0  0  0  0  0  0  0
    8.1688  -14.5368   20.6266 C   0  0  0  0  0  0  0  0  0  0  0  0
    8.8999  -14.2658   19.4984 C   0  0  0  0  0  0  0  0  0  0  0  0
    8.2482  -13.3458   18.7637 N   0  0  0  0  0  0  0  0  0  0  0  0
    7.1145  -13.0485   19.4382 C   0  0  0  0  0  0  0  0  0  0  0  0
    7.0518  -13.7619   20.5690 N   0  0  0  0  0  0  0  0  0  0  0  0
   10.4315  -16.7645   22.6284 C   0  0  0  0  0  0  0  0  0  0  0  0
    9.8762  -17.7213   23.2232 O   0  0  0  0  0  0  0  0  0  0  0  0
   14.4474  -17.7670   22.7985 N   0  0  0  0  0  0  0  0  0  0  0  0
   14.4845  -16.5302   23.5367 C   0  0  0  0  0  0  0  0  0  0  0  0
   15.3751  -15.7240   23.1859 O   0  0  0  0  0  0  0  0  0  0  0  0
   13.5282  -16.2667   24.6195 C   0  0  0  0  0  0  0  0  0  0  0  0
   12.1908  -16.8889   24.3745 C   0  0  2  0  0  0  0  0  0  0  0  0
   11.6435  -16.2802   23.1651 N   0  0  0  0  0  0  0  0  0  0  0  0
   11.2493  -16.8046   25.4956 C   0  0  0  0  0  0  0  0  0  0  0  0
   10.4865  -15.7751   25.5429 O   0  0  0  0  0  0  0  0  0  0  0  0
   11.0865  -17.7154   26.5176 O   0  0  0  0  0  0  0  0  0  0  0  0
  1  2  1  0
  2  3  1  0
  3  5  1  0
  3  4  1  6
  5  6  2  0
  7  5  1  0
  7  8  1  0
  8 15  1  0
  8  9  1  1
 10  9  1  0
 11 10  2  0
 12 13  1  0
 12 11  1  0
 13 14  2  0
 14 10  1  0
 15 16  2  0
 18 17  1  0
 19 18  2  0
 20 18  1  0
 21 20  1  1
 21 23  1  0
 22 21  1  0
 22 15  1  0
 23 25  1  0
 24 23  2  0
M  END
$$$$
