SHN.pdb
     RDKit          3D

 25 25  0  0  1  0  0  0  0  0999 V2000
    7.6474  -14.4357   16.7771 O   0  0  0  0  0  0  0  0  0  0  0  0
    8.3891  -14.6037   17.9245 C   0  0  0  0  0  0  0  0  0  0  0  0
    7.9484  -13.6265   18.9643 C   0  0  2  0  0  0  0  0  0  0  0  0
    8.2915  -12.2474   18.5574 N   0  0  0  0  0  0  0  0  0  0  0  0
    8.5247  -13.8757   20.2984 C   0  0  0  0  0  0  0  0  0  0  0  0
    9.6503  -13.3584   20.6097 O   0  0  0  0  0  0  0  0  0  0  0  0
    7.8752  -14.6682   21.2559 N   0  0  0  0  0  0  0  0  0  0  0  0
    8.5839  -14.9789   22.5091 C   0  0  1  0  0  0  0  0  0  0  0  0
    7.5803  -15.3165   23.5929 C   0  0  0  0  0  0  0  0  0  0  0  0
    7.0978  -14.0946   24.2651 C   0  0  0  0  0  0  0  0  0  0  0  0
    7.5171  -12.8019   24.0809 C   0  0  0  0  0  0  0  0  0  0  0  0
    6.8256  -11.9945   24.9062 N   0  0  0  0  0  0  0  0  0  0  0  0
    5.9792  -12.7887   25.6001 C   0  0  0  0  0  0  0  0  0  0  0  0
    6.1319  -14.0638   25.2231 N   0  0  0  0  0  0  0  0  0  0  0  0
    9.5221  -16.0764   22.2135 C   0  0  0  0  0  0  0  0  0  0  0  0
    9.3610  -16.6963   21.1330 O   0  0  0  0  0  0  0  0  0  0  0  0
   13.8050  -15.2876   19.6415 N   0  0  0  0  0  0  0  0  0  0  0  0
   13.5889  -15.7484   20.9894 C   0  0  0  0  0  0  0  0  0  0  0  0
   14.5779  -16.2861   21.5362 O   0  0  0  0  0  0  0  0  0  0  0  0
   12.2858  -15.5823   21.6458 C   0  0  0  0  0  0  0  0  0  0  0  0
   11.8914  -16.7737   22.4587 C   0  0  2  0  0  0  0  0  0  0  0  0
   10.5856  -16.4858   23.0460 N   0  0  0  0  0  0  0  0  0  0  0  0
   12.8637  -17.1830   23.4772 C   0  0  0  0  0  0  0  0  0  0  0  0
   13.3374  -16.2646   24.2364 O   0  0  0  0  0  0  0  0  0  0  0  0
   13.3334  -18.4567   23.7170 O   0  0  0  0  0  0  0  0  0  0  0  0
  1  2  1  0
  2  3  1  0
  3  5  1  0
  3  4  1  6
  5  6  2  0
  7  5  1  0
  7  8  1  0
  8 15  1  0
  8  9  1  1
 10  9  1  0
 11 10  2  0
 12 13  1  0
 12 11  1  0
 13 14  2  0
 14 10  1  0
 15 16  2  0
 18 17  1  0
 19 18  2  0
 20 18  1  0
 21 20  1  1
 21 23  1  0
 22 21  1  0
 22 15  1  0
 23 25  1  0
 24 23  2  0
M  END
$$$$
