SHN.pdb
     RDKit          3D

 25 25  0  0  1  0  0  0  0  0999 V2000
   13.1422  -17.7412   16.9319 O   0  0  0  0  0  0  0  0  0  0  0  0
   13.3921  -16.7945   15.9643 C   0  0  0  0  0  0  0  0  0  0  0  0
   12.3662  -15.7114   16.0338 C   0  0  2  0  0  0  0  0  0  0  0  0
   12.6408  -14.6721   15.0191 N   0  0  0  0  0  0  0  0  0  0  0  0
   12.2751  -15.0611   17.3540 C   0  0  0  0  0  0  0  0  0  0  0  0
   13.0621  -14.0971   17.6418 O   0  0  0  0  0  0  0  0  0  0  0  0
   11.3422  -15.4626   18.3211 N   0  0  0  0  0  0  0  0  0  0  0  0
   11.3445  -14.7800   19.6262 C   0  0  1  0  0  0  0  0  0  0  0  0
    9.9823  -14.9152   20.2754 C   0  0  0  0  0  0  0  0  0  0  0  0
    8.9634  -14.1519   19.5291 C   0  0  0  0  0  0  0  0  0  0  0  0
    8.6264  -12.8292   19.6623 C   0  0  0  0  0  0  0  0  0  0  0  0
    7.6357  -12.5397   18.7988 N   0  0  0  0  0  0  0  0  0  0  0  0
    7.3607  -13.6837   18.1323 C   0  0  0  0  0  0  0  0  0  0  0  0
    8.1567  -14.6696   18.5632 N   0  0  0  0  0  0  0  0  0  0  0  0
   12.4361  -15.3715   20.4204 C   0  0  0  0  0  0  0  0  0  0  0  0
   12.4842  -16.6248   20.4894 O   0  0  0  0  0  0  0  0  0  0  0  0
   16.5921  -15.9121   23.7811 N   0  0  0  0  0  0  0  0  0  0  0  0
   16.7810  -15.0204   22.6652 C   0  0  0  0  0  0  0  0  0  0  0  0
   17.9717  -14.8157   22.3392 O   0  0  0  0  0  0  0  0  0  0  0  0
   15.6331  -14.4116   21.9809 C   0  0  0  0  0  0  0  0  0  0  0  0
   14.4883  -15.3594   21.8161 C   0  0  2  0  0  0  0  0  0  0  0  0
   13.4302  -14.6436   21.1084 N   0  0  0  0  0  0  0  0  0  0  0  0
   13.9952  -15.9631   23.0582 C   0  0  0  0  0  0  0  0  0  0  0  0
   14.7867  -16.7612   23.6753 O   0  0  0  0  0  0  0  0  0  0  0  0
   12.7640  -15.7697   23.6474 O   0  0  0  0  0  0  0  0  0  0  0  0
  1  2  1  0
  2  3  1  0
  3  5  1  0
  3  4  1  6
  5  6  2  0
  7  5  1  0
  7  8  1  0
  8 15  1  0
  8  9  1  1
 10  9  1  0
 11 10  2  0
 12 13  1  0
 12 11  1  0
 13 14  2  0
 14 10  1  0
 15 16  2  0
 18 17  1  0
 19 18  2  0
 20 18  1  0
 21 20  1  1
 21 23  1  0
 22 21  1  0
 22 15  1  0
 23 25  1  0
 24 23  2  0
M  END
$$$$
