WPV.pdb
     RDKit          3D

 29 31  0  0  1  0  0  0  0  0999 V2000
    6.2914  -17.6586   24.3982 N   0  0  0  0  0  0  0  0  0  0  0  0
    6.9655  -16.5350   23.8408 C   0  0  1  0  0  0  0  0  0  0  0  0
    7.6913  -15.7830   24.9397 C   0  0  0  0  0  0  0  0  0  0  0  0
    6.8168  -14.8699   25.6832 C   0  0  0  0  0  0  0  0  0  0  0  0
    5.5416  -15.1527   26.1403 C   0  0  0  0  0  0  0  0  0  0  0  0
    5.0707  -14.0714   26.7694 N   0  0  0  0  0  0  0  0  0  0  0  0
    5.9796  -13.0866   26.7476 C   0  0  0  0  0  0  0  0  0  0  0  0
    6.0215  -11.7857   27.2340 C   0  0  0  0  0  0  0  0  0  0  0  0
    7.1260  -10.9905   27.0516 C   0  0  0  0  0  0  0  0  0  0  0  0
    8.2256  -11.4857   26.3704 C   0  0  0  0  0  0  0  0  0  0  0  0
    8.2128  -12.7757   25.8754 C   0  0  0  0  0  0  0  0  0  0  0  0
    7.0836  -13.5728   26.0681 C   0  0  0  0  0  0  0  0  0  0  0  0
    7.8592  -16.8005   22.7173 C   0  0  0  0  0  0  0  0  0  0  0  0
    8.4704  -17.8958   22.6287 O   0  0  0  0  0  0  0  0  0  0  0  0
    8.0971  -15.8492   21.6592 N   0  0  0  0  0  0  0  0  0  0  0  0
    7.4118  -14.5968   21.5960 C   0  0  0  0  0  0  0  0  0  0  0  0
    7.7541  -13.9716   20.2811 C   0  0  0  0  0  0  0  0  0  0  0  0
    9.0739  -14.6051   19.9540 C   0  0  0  0  0  0  0  0  0  0  0  0
    8.9935  -15.9851   20.5608 C   0  0  1  0  0  0  0  0  0  0  0  0
   10.3633  -16.3856   20.9149 C   0  0  0  0  0  0  0  0  0  0  0  0
   10.9755  -15.8368   21.8356 O   0  0  0  0  0  0  0  0  0  0  0  0
   11.4605  -19.7946   21.8927 C   0  0  0  0  0  0  0  0  0  0  0  0
   12.2329  -19.4665   20.6478 C   0  0  1  0  0  0  0  0  0  0  0  0
   11.5689  -20.1590   19.4830 C   0  0  0  0  0  0  0  0  0  0  0  0
   12.2725  -17.9638   20.4596 C   0  0  2  0  0  0  0  0  0  0  0  0
   10.9594  -17.4309   20.1571 N   0  0  0  0  0  0  0  0  0  0  0  0
   13.2829  -17.5602   19.4618 C   0  0  0  0  0  0  0  0  0  0  0  0
   14.4694  -17.3320   19.7737 O   0  0  0  0  0  0  0  0  0  0  0  0
   12.9029  -17.4314   18.1425 O   0  0  0  0  0  0  0  0  0  0  0  0
  2  1  1  1
  3  2  1  0
  4  3  1  0
  4 12  1  0
  5  6  1  0
  5  4  2  0
  6  7  1  0
  7  8  2  0
  7 12  1  0
  8  9  1  0
  9 10  2  0
 11 10  1  0
 12 11  2  0
 13  2  1  0
 13 15  1  0
 14 13  2  0
 15 19  1  0
 16 15  1  0
 16 17  1  0
 17 18  1  0
 19 18  1  0
 19 20  1  1
 20 21  2  0
 23 22  1  1
 23 25  1  0
 24 23  1  0
 25 26  1  6
 26 20  1  0
 27 25  1  0
 28 27  2  0
 29 27  1  0
M  END
$$$$
