WPV.pdb
     RDKit          3D

 29 31  0  0  1  0  0  0  0  0999 V2000
    6.4442  -17.6045   24.2006 N   0  0  0  0  0  0  0  0  0  0  0  0
    6.9928  -16.4354   23.6009 C   0  0  1  0  0  0  0  0  0  0  0  0
    7.7953  -15.6657   24.6321 C   0  0  0  0  0  0  0  0  0  0  0  0
    6.9655  -14.7912   25.4677 C   0  0  0  0  0  0  0  0  0  0  0  0
    5.7217  -15.1010   25.9891 C   0  0  0  0  0  0  0  0  0  0  0  0
    5.2874  -14.0512   26.6934 N   0  0  0  0  0  0  0  0  0  0  0  0
    6.1904  -13.0614   26.6597 C   0  0  0  0  0  0  0  0  0  0  0  0
    6.2584  -11.7831   27.2000 C   0  0  0  0  0  0  0  0  0  0  0  0
    7.3474  -10.9745   26.9858 C   0  0  0  0  0  0  0  0  0  0  0  0
    8.4044  -11.4329   26.2172 C   0  0  0  0  0  0  0  0  0  0  0  0
    8.3648  -12.6999   25.6669 C   0  0  0  0  0  0  0  0  0  0  0  0
    7.2519  -13.5109   25.8928 C   0  0  0  0  0  0  0  0  0  0  0  0
    7.7695  -16.6301   22.3801 C   0  0  0  0  0  0  0  0  0  0  0  0
    8.3890  -17.7057   22.1786 O   0  0  0  0  0  0  0  0  0  0  0  0
    7.8775  -15.6281   21.3479 N   0  0  0  0  0  0  0  0  0  0  0  0
    7.1029  -14.4274   21.3713 C   0  0  0  0  0  0  0  0  0  0  0  0
    7.3230  -13.7340   20.0645 C   0  0  0  0  0  0  0  0  0  0  0  0
    8.6629  -14.2582   19.6403 C   0  0  0  0  0  0  0  0  0  0  0  0
    8.7156  -15.6605   20.1969 C   0  0  1  0  0  0  0  0  0  0  0  0
   10.1286  -15.9722   20.4585 C   0  0  0  0  0  0  0  0  0  0  0  0
   10.8006  -15.2980   21.2443 O   0  0  0  0  0  0  0  0  0  0  0  0
   11.3852  -18.9002   22.0251 C   0  0  0  0  0  0  0  0  0  0  0  0
   11.9930  -18.9644   20.6537 C   0  0  1  0  0  0  0  0  0  0  0  0
   11.1730  -19.9156   19.8170 C   0  0  0  0  0  0  0  0  0  0  0  0
   12.0288  -17.5745   20.0519 C   0  0  2  0  0  0  0  0  0  0  0  0
   10.6952  -17.0816   19.7723 N   0  0  0  0  0  0  0  0  0  0  0  0
   12.9082  -17.5096   18.8680 C   0  0  0  0  0  0  0  0  0  0  0  0
   14.1504  -17.5850   18.9591 O   0  0  0  0  0  0  0  0  0  0  0  0
   12.3382  -17.3609   17.6213 O   0  0  0  0  0  0  0  0  0  0  0  0
  2  1  1  1
  3  2  1  0
  4  3  1  0
  4 12  1  0
  5  6  1  0
  5  4  2  0
  6  7  1  0
  7  8  2  0
  7 12  1  0
  8  9  1  0
  9 10  2  0
 11 10  1  0
 12 11  2  0
 13  2  1  0
 13 15  1  0
 14 13  2  0
 15 19  1  0
 16 15  1  0
 16 17  1  0
 17 18  1  0
 19 18  1  0
 19 20  1  1
 20 21  2  0
 23 22  1  1
 23 25  1  0
 24 23  1  0
 25 26  1  6
 26 20  1  0
 27 25  1  0
 28 27  2  0
 29 27  1  0
M  END
$$$$
