WPV.pdb
     RDKit          3D

 29 31  0  0  1  0  0  0  0  0999 V2000
    6.3158  -18.1187   24.8729 N   0  0  0  0  0  0  0  0  0  0  0  0
    6.9314  -16.9540   24.3323 C   0  0  1  0  0  0  0  0  0  0  0  0
    7.7099  -16.2407   25.4208 C   0  0  0  0  0  0  0  0  0  0  0  0
    7.0081  -15.0674   25.9521 C   0  0  0  0  0  0  0  0  0  0  0  0
    5.6896  -15.0254   26.3701 C   0  0  0  0  0  0  0  0  0  0  0  0
    5.4196  -13.7841   26.7863 N   0  0  0  0  0  0  0  0  0  0  0  0
    6.5026  -13.0046   26.6613 C   0  0  0  0  0  0  0  0  0  0  0  0
    6.7821  -11.6708   26.9328 C   0  0  0  0  0  0  0  0  0  0  0  0
    8.0248  -11.1385   26.6922 C   0  0  0  0  0  0  0  0  0  0  0  0
    9.0266  -11.9387   26.1685 C   0  0  0  0  0  0  0  0  0  0  0  0
    8.7780  -13.2688   25.8885 C   0  0  0  0  0  0  0  0  0  0  0  0
    7.5104  -13.7966   26.1380 C   0  0  0  0  0  0  0  0  0  0  0  0
    7.7578  -17.1435   23.1437 C   0  0  0  0  0  0  0  0  0  0  0  0
    8.4289  -18.1957   22.9902 O   0  0  0  0  0  0  0  0  0  0  0  0
    7.8592  -16.1622   22.0913 N   0  0  0  0  0  0  0  0  0  0  0  0
    6.9762  -15.0415   22.0104 C   0  0  0  0  0  0  0  0  0  0  0  0
    7.2413  -14.3634   20.7040 C   0  0  0  0  0  0  0  0  0  0  0  0
    8.6559  -14.7665   20.4099 C   0  0  0  0  0  0  0  0  0  0  0  0
    8.7922  -16.1427   21.0153 C   0  0  1  0  0  0  0  0  0  0  0  0
   10.2006  -16.3102   21.4034 C   0  0  0  0  0  0  0  0  0  0  0  0
   10.7171  -15.5993   22.2702 O   0  0  0  0  0  0  0  0  0  0  0  0
   11.6824  -19.3663   22.7484 C   0  0  0  0  0  0  0  0  0  0  0  0
   12.4579  -19.1039   21.4899 C   0  0  1  0  0  0  0  0  0  0  0  0
   11.9359  -20.0225   20.4125 C   0  0  0  0  0  0  0  0  0  0  0  0
   12.3145  -17.6461   21.1033 C   0  0  2  0  0  0  0  0  0  0  0  0
   10.9486  -17.3234   20.7428 N   0  0  0  0  0  0  0  0  0  0  0  0
   13.2762  -17.2578   20.0528 C   0  0  0  0  0  0  0  0  0  0  0  0
   12.9335  -17.1060   18.8626 O   0  0  0  0  0  0  0  0  0  0  0  0
   14.5959  -17.0566   20.3983 O   0  0  0  0  0  0  0  0  0  0  0  0
  2  1  1  1
  3  2  1  0
  4  3  1  0
  4 12  1  0
  5  6  1  0
  5  4  2  0
  6  7  1  0
  7  8  2  0
  7 12  1  0
  8  9  1  0
  9 10  2  0
 11 10  1  0
 12 11  2  0
 13  2  1  0
 13 15  1  0
 14 13  2  0
 15 19  1  0
 16 15  1  0
 16 17  1  0
 17 18  1  0
 19 18  1  0
 19 20  1  1
 20 21  2  0
 23 22  1  1
 23 25  1  0
 24 23  1  0
 25 26  1  6
 26 20  1  0
 27 25  1  0
 28 27  2  0
 29 27  1  0
M  END
$$$$
