WPV.pdb
     RDKit          3D

 29 31  0  0  1  0  0  0  0  0999 V2000
    6.3699  -17.5788   24.1036 N   0  0  0  0  0  0  0  0  0  0  0  0
    6.9524  -16.3899   23.5796 C   0  0  1  0  0  0  0  0  0  0  0  0
    7.7314  -15.6830   24.6720 C   0  0  0  0  0  0  0  0  0  0  0  0
    6.8887  -14.8289   25.5157 C   0  0  0  0  0  0  0  0  0  0  0  0
    5.6764  -15.1827   26.0815 C   0  0  0  0  0  0  0  0  0  0  0  0
    5.2166  -14.1387   26.7782 N   0  0  0  0  0  0  0  0  0  0  0  0
    6.0727  -13.1107   26.6971 C   0  0  0  0  0  0  0  0  0  0  0  0
    6.0993  -11.8195   27.2098 C   0  0  0  0  0  0  0  0  0  0  0  0
    7.1437  -10.9679   26.9459 C   0  0  0  0  0  0  0  0  0  0  0  0
    8.1966  -11.3950   26.1539 C   0  0  0  0  0  0  0  0  0  0  0  0
    8.1976  -12.6737   25.6302 C   0  0  0  0  0  0  0  0  0  0  0  0
    7.1297  -13.5285   25.9065 C   0  0  0  0  0  0  0  0  0  0  0  0
    7.7652  -16.5361   22.3756 C   0  0  0  0  0  0  0  0  0  0  0  0
    8.3642  -17.6148   22.1331 O   0  0  0  0  0  0  0  0  0  0  0  0
    7.9334  -15.4807   21.4067 N   0  0  0  0  0  0  0  0  0  0  0  0
    7.2247  -14.2434   21.5011 C   0  0  0  0  0  0  0  0  0  0  0  0
    7.4897  -13.4849   20.2396 C   0  0  0  0  0  0  0  0  0  0  0  0
    8.8019  -14.0543   19.7878 C   0  0  0  0  0  0  0  0  0  0  0  0
    8.7754  -15.4886   20.2581 C   0  0  1  0  0  0  0  0  0  0  0  0
   10.1679  -15.8919   20.5040 C   0  0  0  0  0  0  0  0  0  0  0  0
   10.7840  -15.5005   21.4995 O   0  0  0  0  0  0  0  0  0  0  0  0
   11.4022  -18.1537   22.0060 C   0  0  0  0  0  0  0  0  0  0  0  0
   11.9717  -18.5720   20.6813 C   0  0  1  0  0  0  0  0  0  0  0  0
   11.0763  -19.6367   20.0966 C   0  0  0  0  0  0  0  0  0  0  0  0
   12.0759  -17.3643   19.7726 C   0  0  2  0  0  0  0  0  0  0  0  0
   10.7814  -16.7517   19.5518 N   0  0  0  0  0  0  0  0  0  0  0  0
   12.7654  -17.6851   18.5074 C   0  0  0  0  0  0  0  0  0  0  0  0
   12.1446  -17.8613   17.4394 O   0  0  0  0  0  0  0  0  0  0  0  0
   14.1401  -17.7935   18.5060 O   0  0  0  0  0  0  0  0  0  0  0  0
  2  1  1  1
  3  2  1  0
  4  3  1  0
  4 12  1  0
  5  6  1  0
  5  4  2  0
  6  7  1  0
  7  8  2  0
  7 12  1  0
  8  9  1  0
  9 10  2  0
 11 10  1  0
 12 11  2  0
 13  2  1  0
 13 15  1  0
 14 13  2  0
 15 19  1  0
 16 15  1  0
 16 17  1  0
 17 18  1  0
 19 18  1  0
 19 20  1  1
 20 21  2  0
 23 22  1  1
 23 25  1  0
 24 23  1  0
 25 26  1  6
 26 20  1  0
 27 25  1  0
 28 27  2  0
 29 27  1  0
M  END
$$$$
