WPV.pdb
     RDKit          3D

 29 31  0  0  1  0  0  0  0  0999 V2000
    6.2255  -17.9393   24.6900 N   0  0  0  0  0  0  0  0  0  0  0  0
    6.8820  -16.7927   24.1592 C   0  0  1  0  0  0  0  0  0  0  0  0
    7.6348  -16.0815   25.2671 C   0  0  0  0  0  0  0  0  0  0  0  0
    6.9088  -14.9247   25.8021 C   0  0  0  0  0  0  0  0  0  0  0  0
    5.5508  -14.8621   26.0611 C   0  0  0  0  0  0  0  0  0  0  0  0
    5.2694  -13.6460   26.5393 N   0  0  0  0  0  0  0  0  0  0  0  0
    6.3825  -12.9028   26.6075 C   0  0  0  0  0  0  0  0  0  0  0  0
    6.6667  -11.6053   27.0157 C   0  0  0  0  0  0  0  0  0  0  0  0
    7.9449  -11.1060   26.9689 C   0  0  0  0  0  0  0  0  0  0  0  0
    8.9788  -11.9035   26.5071 C   0  0  0  0  0  0  0  0  0  0  0  0
    8.7265  -13.1979   26.0944 C   0  0  0  0  0  0  0  0  0  0  0  0
    7.4226  -13.6923   26.1474 C   0  0  0  0  0  0  0  0  0  0  0  0
    7.7464  -17.0112   23.0031 C   0  0  0  0  0  0  0  0  0  0  0  0
    8.4247  -18.0649   22.8993 O   0  0  0  0  0  0  0  0  0  0  0  0
    7.8791  -16.0580   21.9285 N   0  0  0  0  0  0  0  0  0  0  0  0
    6.9775  -14.9606   21.7713 C   0  0  0  0  0  0  0  0  0  0  0  0
    7.2927  -14.3138   20.4601 C   0  0  0  0  0  0  0  0  0  0  0  0
    8.7285  -14.6928   20.2479 C   0  0  0  0  0  0  0  0  0  0  0  0
    8.8639  -16.0477   20.8996 C   0  0  1  0  0  0  0  0  0  0  0  0
   10.2545  -16.1719   21.3611 C   0  0  0  0  0  0  0  0  0  0  0  0
   10.6352  -15.6353   22.4054 O   0  0  0  0  0  0  0  0  0  0  0  0
   11.5167  -19.4974   21.9196 C   0  0  0  0  0  0  0  0  0  0  0  0
   12.2941  -18.2620   22.2713 C   0  0  1  0  0  0  0  0  0  0  0  0
   13.6364  -18.6866   22.8147 C   0  0  0  0  0  0  0  0  0  0  0  0
   12.4366  -17.3883   21.0418 C   0  0  2  0  0  0  0  0  0  0  0  0
   11.1477  -16.9348   20.5594 N   0  0  0  0  0  0  0  0  0  0  0  0
   13.2276  -18.0495   19.9852 C   0  0  0  0  0  0  0  0  0  0  0  0
   12.7029  -18.7891   19.1280 O   0  0  0  0  0  0  0  0  0  0  0  0
   14.5903  -17.8429   19.9444 O   0  0  0  0  0  0  0  0  0  0  0  0
  2  1  1  1
  3  2  1  0
  4  3  1  0
  4 12  1  0
  5  6  1  0
  5  4  2  0
  6  7  1  0
  7  8  2  0
  7 12  1  0
  8  9  1  0
  9 10  2  0
 11 10  1  0
 12 11  2  0
 13  2  1  0
 13 15  1  0
 14 13  2  0
 15 19  1  0
 16 15  1  0
 16 17  1  0
 17 18  1  0
 19 18  1  0
 19 20  1  1
 20 21  2  0
 23 22  1  6
 23 25  1  0
 24 23  1  0
 25 26  1  6
 26 20  1  0
 27 25  1  0
 28 27  2  0
 29 27  1  0
M  END
$$$$
