WPV.pdb
     RDKit          3D

 29 31  0  0  1  0  0  0  0  0999 V2000
    6.9385  -17.6574   24.8299 N   0  0  0  0  0  0  0  0  0  0  0  0
    7.2351  -16.5278   24.0154 C   0  0  1  0  0  0  0  0  0  0  0  0
    8.0006  -15.5028   24.8297 C   0  0  0  0  0  0  0  0  0  0  0  0
    7.1279  -14.6490   25.6425 C   0  0  0  0  0  0  0  0  0  0  0  0
    5.8608  -14.9731   26.0948 C   0  0  0  0  0  0  0  0  0  0  0  0
    5.3889  -13.9401   26.8000 N   0  0  0  0  0  0  0  0  0  0  0  0
    6.2893  -12.9480   26.8330 C   0  0  0  0  0  0  0  0  0  0  0  0
    6.3264  -11.6819   27.4043 C   0  0  0  0  0  0  0  0  0  0  0  0
    7.4220  -10.8664   27.2622 C   0  0  0  0  0  0  0  0  0  0  0  0
    8.5172  -11.3053   26.5367 C   0  0  0  0  0  0  0  0  0  0  0  0
    8.5089  -12.5597   25.9572 C   0  0  0  0  0  0  0  0  0  0  0  0
    7.3888  -13.3779   26.1097 C   0  0  0  0  0  0  0  0  0  0  0  0
    7.9124  -16.7945   22.7498 C   0  0  0  0  0  0  0  0  0  0  0  0
    8.5093  -17.8847   22.5589 O   0  0  0  0  0  0  0  0  0  0  0  0
    7.9432  -15.8502   21.6596 N   0  0  0  0  0  0  0  0  0  0  0  0
    7.1298  -14.6754   21.6495 C   0  0  0  0  0  0  0  0  0  0  0  0
    7.2717  -14.0512   20.2978 C   0  0  0  0  0  0  0  0  0  0  0  0
    8.6100  -14.5560   19.8458 C   0  0  0  0  0  0  0  0  0  0  0  0
    8.7335  -15.9218   20.4769 C   0  0  1  0  0  0  0  0  0  0  0  0
   10.1660  -16.1731   20.6940 C   0  0  0  0  0  0  0  0  0  0  0  0
   10.8733  -15.3700   21.3092 O   0  0  0  0  0  0  0  0  0  0  0  0
   11.3400  -20.1060   20.9392 C   0  0  0  0  0  0  0  0  0  0  0  0
   12.1028  -18.9237   21.4631 C   0  0  1  0  0  0  0  0  0  0  0  0
   13.5150  -19.3655   21.7593 C   0  0  0  0  0  0  0  0  0  0  0  0
   12.0665  -17.8063   20.4408 C   0  0  2  0  0  0  0  0  0  0  0  0
   10.7091  -17.3780   20.1690 N   0  0  0  0  0  0  0  0  0  0  0  0
   12.7970  -18.1633   19.2087 C   0  0  0  0  0  0  0  0  0  0  0  0
   12.2354  -18.7145   18.2402 O   0  0  0  0  0  0  0  0  0  0  0  0
   14.1437  -17.8785   19.1256 O   0  0  0  0  0  0  0  0  0  0  0  0
  2  1  1  1
  3  2  1  0
  4  3  1  0
  4 12  1  0
  5  6  1  0
  5  4  2  0
  6  7  1  0
  7  8  2  0
  7 12  1  0
  8  9  1  0
  9 10  2  0
 11 10  1  0
 12 11  2  0
 13  2  1  0
 13 15  1  0
 14 13  2  0
 15 19  1  0
 16 15  1  0
 16 17  1  0
 17 18  1  0
 19 18  1  0
 19 20  1  1
 20 21  2  0
 23 22  1  6
 23 25  1  0
 24 23  1  0
 25 26  1  6
 26 20  1  0
 27 25  1  0
 28 27  2  0
 29 27  1  0
M  END
$$$$
