WPV.pdb
     RDKit          3D

 29 31  0  0  1  0  0  0  0  0999 V2000
    6.4987  -18.4706   25.0983 N   0  0  0  0  0  0  0  0  0  0  0  0
    6.9533  -17.2904   24.4442 C   0  0  1  0  0  0  0  0  0  0  0  0
    7.7248  -16.4313   25.4274 C   0  0  0  0  0  0  0  0  0  0  0  0
    6.9481  -15.2902   25.9236 C   0  0  0  0  0  0  0  0  0  0  0  0
    5.6089  -15.3044   26.2719 C   0  0  0  0  0  0  0  0  0  0  0  0
    5.2662  -14.0771   26.6759 N   0  0  0  0  0  0  0  0  0  0  0  0
    6.3210  -13.2530   26.6095 C   0  0  0  0  0  0  0  0  0  0  0  0
    6.5304  -11.9100   26.8981 C   0  0  0  0  0  0  0  0  0  0  0  0
    7.7608  -11.3258   26.7241 C   0  0  0  0  0  0  0  0  0  0  0  0
    8.8210  -12.0818   26.2521 C   0  0  0  0  0  0  0  0  0  0  0  0
    8.6427  -13.4198   25.9567 C   0  0  0  0  0  0  0  0  0  0  0  0
    7.3868  -14.0005   26.1382 C   0  0  0  0  0  0  0  0  0  0  0  0
    7.7139  -17.4777   23.2122 C   0  0  0  0  0  0  0  0  0  0  0  0
    8.3755  -18.5298   23.0204 O   0  0  0  0  0  0  0  0  0  0  0  0
    7.7583  -16.4944   22.1576 N   0  0  0  0  0  0  0  0  0  0  0  0
    6.9928  -15.2889   22.2108 C   0  0  0  0  0  0  0  0  0  0  0  0
    7.1293  -14.6196   20.8803 C   0  0  0  0  0  0  0  0  0  0  0  0
    8.4357  -15.1591   20.3778 C   0  0  0  0  0  0  0  0  0  0  0  0
    8.5183  -16.5518   20.9544 C   0  0  1  0  0  0  0  0  0  0  0  0
    9.9440  -16.8675   21.1277 C   0  0  0  0  0  0  0  0  0  0  0  0
   10.6767  -17.0832   20.1581 O   0  0  0  0  0  0  0  0  0  0  0  0
   13.8741  -16.2275   23.8400 C   0  0  0  0  0  0  0  0  0  0  0  0
   12.4545  -15.9228   23.4578 C   0  0  1  0  0  0  0  0  0  0  0  0
   12.4541  -14.6951   22.5803 C   0  0  0  0  0  0  0  0  0  0  0  0
   11.8543  -17.1199   22.7494 C   0  0  2  0  0  0  0  0  0  0  0  0
   10.4502  -16.9153   22.4558 N   0  0  0  0  0  0  0  0  0  0  0  0
   12.0934  -18.3746   23.4897 C   0  0  0  0  0  0  0  0  0  0  0  0
   11.1731  -18.9929   24.0623 O   0  0  0  0  0  0  0  0  0  0  0  0
   13.3751  -18.8793   23.5501 O   0  0  0  0  0  0  0  0  0  0  0  0
  2  1  1  1
  3  2  1  0
  4  3  1  0
  4 12  1  0
  5  6  1  0
  5  4  2  0
  6  7  1  0
  7  8  2  0
  7 12  1  0
  8  9  1  0
  9 10  2  0
 11 10  1  0
 12 11  2  0
 13  2  1  0
 13 15  1  0
 14 13  2  0
 15 19  1  0
 16 15  1  0
 16 17  1  0
 17 18  1  0
 19 18  1  0
 19 20  1  1
 20 21  2  0
 23 22  1  6
 23 25  1  0
 24 23  1  0
 25 26  1  1
 26 20  1  0
 27 25  1  0
 28 27  2  0
 29 27  1  0
M  END
$$$$
