ADC.pdb
     RDKit          3D

 20 19  0  0  1  0  0  0  0  0999 V2000
   15.2869   -9.0437  -10.1925 C   0  0  0  0  0  0  0  0  0  0  0  0
   15.0851   -9.8758  -11.4421 C   0  0  2  0  0  0  0  0  0  0  0  0
   14.8806  -11.2412  -11.0077 N   0  0  0  0  0  0  0  0  0  0  0  0
   16.3434   -9.8156  -12.2109 C   0  0  0  0  0  0  0  0  0  0  0  0
   17.3336  -10.4654  -11.8094 O   0  0  0  0  0  0  0  0  0  0  0  0
   16.4361   -9.0306  -13.3941 N   0  0  0  0  0  0  0  0  0  0  0  0
   17.6586   -8.9427  -14.1722 C   0  0  1  0  0  0  0  0  0  0  0  0
   17.4131   -9.2813  -15.6050 C   0  0  0  0  0  0  0  0  0  0  0  0
   18.6168   -9.3647  -16.4360 C   0  0  0  0  0  0  0  0  0  0  0  0
   18.5084   -8.9736  -17.6361 O   0  0  0  0  0  0  0  0  0  0  0  0
   18.2861   -7.5893  -14.0139 C   0  0  0  0  0  0  0  0  0  0  0  0
   17.5854   -6.5499  -13.9507 O   0  0  0  0  0  0  0  0  0  0  0  0
   19.8404   -9.8239  -16.0368 O   0  0  0  0  0  0  0  0  0  0  0  0
   19.6861   -7.4964  -13.9362 N   0  0  0  0  0  0  0  0  0  0  0  0
   20.4048   -6.2603  -13.7129 C   0  0  1  0  0  0  0  0  0  0  0  0
   21.7766   -6.5199  -13.0940 C   0  0  0  0  0  0  0  0  0  0  0  0
   22.5800   -4.9526  -12.7551 S   0  0  0  0  0  0  0  0  0  0  0  0
   20.6534   -5.5614  -14.9970 C   0  0  0  0  0  0  0  0  0  0  0  0
   21.0361   -6.2370  -15.9815 O   0  0  0  0  0  0  0  0  0  0  0  0
   20.4795   -4.2051  -15.1433 O   0  0  0  0  0  0  0  0  0  0  0  0
  2  1  1  1
  2  4  1  0
  2  3  1  0
  4  5  2  0
  6  4  1  0
  6  7  1  0
  8  9  1  0
  7  8  1  6
  9 10  2  0
 11  7  1  0
 11 12  2  0
 13  9  1  0
 14 11  1  0
 15 14  1  0
 15 18  1  0
 15 16  1  6
 17 16  1  0
 18 19  2  0
 18 20  1  0
M  END
$$$$
