ADC.pdb
     RDKit          3D

 20 19  0  0  1  0  0  0  0  0999 V2000
   32.1469   -9.8911  -19.2561 C   0  0  0  0  0  0  0  0  0  0  0  0
   32.7793   -8.5991  -19.7309 C   0  0  2  0  0  0  0  0  0  0  0  0
   34.1808   -8.6633  -19.3757 N   0  0  0  0  0  0  0  0  0  0  0  0
   32.1547   -7.5035  -18.9644 C   0  0  0  0  0  0  0  0  0  0  0  0
   30.9137   -7.3567  -19.0137 O   0  0  0  0  0  0  0  0  0  0  0  0
   32.9475   -6.6220  -18.1777 N   0  0  0  0  0  0  0  0  0  0  0  0
   32.3759   -5.4963  -17.4608 C   0  0  1  0  0  0  0  0  0  0  0  0
   33.0380   -5.3059  -16.1368 C   0  0  0  0  0  0  0  0  0  0  0  0
   32.6582   -6.2789  -15.1094 C   0  0  0  0  0  0  0  0  0  0  0  0
   33.5282   -6.5452  -14.2279 O   0  0  0  0  0  0  0  0  0  0  0  0
   32.4319   -4.2549  -18.3011 C   0  0  0  0  0  0  0  0  0  0  0  0
   33.4656   -3.9500  -18.9446 O   0  0  0  0  0  0  0  0  0  0  0  0
   31.4564   -6.9228  -15.0155 O   0  0  0  0  0  0  0  0  0  0  0  0
   31.2992   -3.4254  -18.3609 N   0  0  0  0  0  0  0  0  0  0  0  0
   31.2207   -2.2175  -19.1541 C   0  0  1  0  0  0  0  0  0  0  0  0
   30.2559   -2.3848  -20.3261 C   0  0  0  0  0  0  0  0  0  0  0  0
   30.9696   -3.5120  -21.5248 S   0  0  0  0  0  0  0  0  0  0  0  0
   30.6972   -1.0925  -18.3420 C   0  0  0  0  0  0  0  0  0  0  0  0
   29.9130   -1.3501  -17.3981 O   0  0  0  0  0  0  0  0  0  0  0  0
   31.0408    0.2162  -18.5879 O   0  0  0  0  0  0  0  0  0  0  0  0
  2  1  1  1
  2  4  1  0
  2  3  1  0
  4  5  2  0
  6  4  1  0
  6  7  1  0
  8  9  1  0
  7  8  1  1
  9 10  2  0
 11  7  1  0
 11 12  2  0
 13  9  1  0
 14 11  1  0
 15 14  1  0
 15 18  1  0
 15 16  1  6
 17 16  1  0
 18 19  2  0
 18 20  1  0
M  END
$$$$
