ADC.pdb
     RDKit          3D

 20 19  0  0  1  0  0  0  0  0999 V2000
   15.8649  -10.9526  -15.6165 C   0  0  0  0  0  0  0  0  0  0  0  0
   17.2022  -11.1415  -14.9305 C   0  0  2  0  0  0  0  0  0  0  0  0
   16.9992  -12.1130  -13.8770 N   0  0  0  0  0  0  0  0  0  0  0  0
   17.5576   -9.8502  -14.3106 C   0  0  0  0  0  0  0  0  0  0  0  0
   17.7455   -8.8545  -15.0436 O   0  0  0  0  0  0  0  0  0  0  0  0
   17.6866   -9.7322  -12.8984 N   0  0  0  0  0  0  0  0  0  0  0  0
   17.9683   -8.4647  -12.2490 C   0  0  1  0  0  0  0  0  0  0  0  0
   17.5127   -8.4723  -10.8277 C   0  0  0  0  0  0  0  0  0  0  0  0
   16.0593   -8.4727  -10.6439 C   0  0  0  0  0  0  0  0  0  0  0  0
   15.3709   -7.9120  -11.5477 O   0  0  0  0  0  0  0  0  0  0  0  0
   19.4242   -8.1239  -12.3709 C   0  0  0  0  0  0  0  0  0  0  0  0
   20.3029   -8.7999  -11.7825 O   0  0  0  0  0  0  0  0  0  0  0  0
   15.3810   -9.0200   -9.5912 O   0  0  0  0  0  0  0  0  0  0  0  0
   19.7988   -7.0244  -13.1617 N   0  0  0  0  0  0  0  0  0  0  0  0
   21.1701   -6.6291  -13.4019 C   0  0  1  0  0  0  0  0  0  0  0  0
   21.6260   -7.0297  -14.8033 C   0  0  0  0  0  0  0  0  0  0  0  0
   21.6504   -8.8186  -14.9298 S   0  0  0  0  0  0  0  0  0  0  0  0
   21.3098   -5.1547  -13.3248 C   0  0  0  0  0  0  0  0  0  0  0  0
   22.4620   -4.6663  -13.2452 O   0  0  0  0  0  0  0  0  0  0  0  0
   20.2246   -4.3101  -13.3376 O   0  0  0  0  0  0  0  0  0  0  0  0
  2  1  1  1
  2  4  1  0
  2  3  1  0
  4  5  2  0
  6  4  1  0
  6  7  1  0
  8  9  1  0
  7  8  1  1
  9 10  2  0
 11  7  1  0
 11 12  2  0
 13  9  1  0
 14 11  1  0
 15 14  1  0
 15 18  1  0
 15 16  1  6
 17 16  1  0
 18 19  2  0
 18 20  1  0
M  END
$$$$
