ADC.pdb
     RDKit          3D

 20 19  0  0  1  0  0  0  0  0999 V2000
   16.6796  -10.5426  -16.2646 C   0  0  0  0  0  0  0  0  0  0  0  0
   17.8281  -10.9495  -17.1646 C   0  0  2  0  0  0  0  0  0  0  0  0
   17.9447  -12.3890  -17.0702 N   0  0  0  0  0  0  0  0  0  0  0  0
   19.0527  -10.3457  -16.6044 C   0  0  0  0  0  0  0  0  0  0  0  0
   19.6107  -10.8948  -15.6291 O   0  0  0  0  0  0  0  0  0  0  0  0
   19.5968   -9.1546  -17.1613 N   0  0  0  0  0  0  0  0  0  0  0  0
   20.8033   -8.5367  -16.6414 C   0  0  1  0  0  0  0  0  0  0  0  0
   21.7046   -8.0964  -17.7467 C   0  0  0  0  0  0  0  0  0  0  0  0
   22.4832   -9.1673  -18.3739 C   0  0  0  0  0  0  0  0  0  0  0  0
   22.6122   -9.1150  -19.6330 O   0  0  0  0  0  0  0  0  0  0  0  0
   20.4586   -7.4090  -15.7141 C   0  0  0  0  0  0  0  0  0  0  0  0
   19.6112   -6.5397  -16.0326 O   0  0  0  0  0  0  0  0  0  0  0  0
   23.0804  -10.2130  -17.7276 O   0  0  0  0  0  0  0  0  0  0  0  0
   21.1035   -7.3354  -14.4678 N   0  0  0  0  0  0  0  0  0  0  0  0
   20.9119   -6.2596  -13.5189 C   0  0  1  0  0  0  0  0  0  0  0  0
   21.1319   -6.7382  -12.0854 C   0  0  0  0  0  0  0  0  0  0  0  0
   19.8937   -7.9690  -11.6750 S   0  0  0  0  0  0  0  0  0  0  0  0
   21.8976   -5.1762  -13.7514 C   0  0  0  0  0  0  0  0  0  0  0  0
   22.7982   -5.3598  -14.6043 O   0  0  0  0  0  0  0  0  0  0  0  0
   21.8573   -3.9841  -13.0670 O   0  0  0  0  0  0  0  0  0  0  0  0
  2  1  1  1
  2  4  1  0
  2  3  1  0
  4  5  2  0
  6  4  1  0
  6  7  1  0
  8  9  1  0
  7  8  1  6
  9 10  2  0
 11  7  1  0
 11 12  2  0
 13  9  1  0
 14 11  1  0
 15 14  1  0
 15 18  1  0
 15 16  1  1
 17 16  1  0
 18 19  2  0
 18 20  1  0
M  END
$$$$
