ADC.pdb
     RDKit          3D

 20 19  0  0  1  0  0  0  0  0999 V2000
   18.4646  -12.3777  -18.4752 C   0  0  0  0  0  0  0  0  0  0  0  0
   19.4195  -11.8157  -17.4423 C   0  0  2  0  0  0  0  0  0  0  0  0
   18.9477  -12.2621  -16.1488 N   0  0  0  0  0  0  0  0  0  0  0  0
   19.3025  -10.3456  -17.4983 C   0  0  0  0  0  0  0  0  0  0  0  0
   19.7172   -9.7403  -18.5111 O   0  0  0  0  0  0  0  0  0  0  0  0
   18.7268   -9.6200  -16.4182 N   0  0  0  0  0  0  0  0  0  0  0  0
   18.7019   -8.1688  -16.3852 C   0  0  1  0  0  0  0  0  0  0  0  0
   17.3563   -7.6599  -15.9876 C   0  0  0  0  0  0  0  0  0  0  0  0
   17.2574   -6.2034  -15.8641 C   0  0  0  0  0  0  0  0  0  0  0  0
   17.2692   -5.5384  -16.9423 O   0  0  0  0  0  0  0  0  0  0  0  0
   19.7876   -7.6447  -15.4922 C   0  0  0  0  0  0  0  0  0  0  0  0
   20.2936   -8.3599  -14.5935 O   0  0  0  0  0  0  0  0  0  0  0  0
   17.1540   -5.4996  -14.6972 O   0  0  0  0  0  0  0  0  0  0  0  0
   20.2381   -6.3263  -15.6753 N   0  0  0  0  0  0  0  0  0  0  0  0
   21.3693   -5.7527  -14.9784 C   0  0  1  0  0  0  0  0  0  0  0  0
   22.6884   -6.1610  -15.6309 C   0  0  0  0  0  0  0  0  0  0  0  0
   24.0345   -5.2606  -14.8602 S   0  0  0  0  0  0  0  0  0  0  0  0
   21.3197   -4.2715  -15.0323 C   0  0  0  0  0  0  0  0  0  0  0  0
   20.8589   -3.7255  -16.0627 O   0  0  0  0  0  0  0  0  0  0  0  0
   21.7597   -3.4814  -13.9962 O   0  0  0  0  0  0  0  0  0  0  0  0
  2  1  1  6
  2  4  1  0
  2  3  1  0
  4  5  2  0
  6  4  1  0
  6  7  1  0
  8  9  1  0
  7  8  1  1
  9 10  2  0
 11  7  1  0
 11 12  2  0
 13  9  1  0
 14 11  1  0
 15 14  1  0
 15 18  1  0
 15 16  1  6
 17 16  1  0
 18 19  2  0
 18 20  1  0
M  END
$$$$
