ADC.pdb
     RDKit          3D

 20 19  0  0  1  0  0  0  0  0999 V2000
   16.9339   -9.1431  -16.2376 C   0  0  0  0  0  0  0  0  0  0  0  0
   18.1044   -9.5852  -15.3838 C   0  0  2  0  0  0  0  0  0  0  0  0
   17.5854  -10.5297  -14.4178 N   0  0  0  0  0  0  0  0  0  0  0  0
   18.5857   -8.3939  -14.6577 C   0  0  0  0  0  0  0  0  0  0  0  0
   17.8659   -7.8926  -13.7662 O   0  0  0  0  0  0  0  0  0  0  0  0
   19.8506   -7.8178  -14.9626 N   0  0  0  0  0  0  0  0  0  0  0  0
   20.3102   -6.5862  -14.3464 C   0  0  1  0  0  0  0  0  0  0  0  0
   21.7968   -6.5694  -14.2150 C   0  0  0  0  0  0  0  0  0  0  0  0
   22.3440   -5.3968  -13.5280 C   0  0  0  0  0  0  0  0  0  0  0  0
   22.9854   -4.5678  -14.2395 O   0  0  0  0  0  0  0  0  0  0  0  0
   19.7993   -5.3968  -15.1046 C   0  0  0  0  0  0  0  0  0  0  0  0
   19.9606   -5.2969  -16.3453 O   0  0  0  0  0  0  0  0  0  0  0  0
   22.2263   -5.1167  -12.1955 O   0  0  0  0  0  0  0  0  0  0  0  0
   19.1291   -4.3817  -14.4012 N   0  0  0  0  0  0  0  0  0  0  0  0
   18.5839   -3.1920  -15.0192 C   0  0  1  0  0  0  0  0  0  0  0  0
   17.1996   -2.8630  -14.4645 C   0  0  0  0  0  0  0  0  0  0  0  0
   16.5791   -1.3805  -15.2605 S   0  0  0  0  0  0  0  0  0  0  0  0
   19.4382   -2.0148  -14.7300 C   0  0  0  0  0  0  0  0  0  0  0  0
   20.0761   -1.9892  -13.6508 O   0  0  0  0  0  0  0  0  0  0  0  0
   19.5536   -0.9566  -15.6007 O   0  0  0  0  0  0  0  0  0  0  0  0
  2  1  1  6
  2  4  1  0
  2  3  1  0
  4  5  2  0
  6  4  1  0
  6  7  1  0
  8  9  1  0
  7  8  1  6
  9 10  2  0
 11  7  1  0
 11 12  2  0
 13  9  1  0
 14 11  1  0
 15 14  1  0
 15 18  1  0
 15 16  1  1
 17 16  1  0
 18 19  2  0
 18 20  1  0
M  END
$$$$
