ADC.pdb
     RDKit          3D

 20 19  0  0  1  0  0  0  0  0999 V2000
   17.4401  -11.9192  -17.6174 C   0  0  0  0  0  0  0  0  0  0  0  0
   18.0968  -11.5373  -16.3069 C   0  0  2  0  0  0  0  0  0  0  0  0
   17.0829  -11.6531  -15.2806 N   0  0  0  0  0  0  0  0  0  0  0  0
   18.4888  -10.1187  -16.4158 C   0  0  0  0  0  0  0  0  0  0  0  0
   19.5255   -9.8206  -17.0486 O   0  0  0  0  0  0  0  0  0  0  0  0
   17.7026   -9.0982  -15.8113 N   0  0  0  0  0  0  0  0  0  0  0  0
   18.0901   -7.6995  -15.8439 C   0  0  1  0  0  0  0  0  0  0  0  0
   16.8945   -6.8065  -15.8179 C   0  0  0  0  0  0  0  0  0  0  0  0
   16.1206   -6.7721  -17.0614 C   0  0  0  0  0  0  0  0  0  0  0  0
   14.9332   -7.2100  -17.0054 O   0  0  0  0  0  0  0  0  0  0  0  0
   19.0454   -7.3926  -14.7286 C   0  0  0  0  0  0  0  0  0  0  0  0
   18.7198   -7.5589  -13.5280 O   0  0  0  0  0  0  0  0  0  0  0  0
   16.5607   -6.3130  -18.2710 O   0  0  0  0  0  0  0  0  0  0  0  0
   20.3262   -6.9103  -15.0470 N   0  0  0  0  0  0  0  0  0  0  0  0
   21.3582   -6.6443  -14.0678 C   0  0  1  0  0  0  0  0  0  0  0  0
   22.6398   -7.4097  -14.3902 C   0  0  0  0  0  0  0  0  0  0  0  0
   22.3235   -9.1712  -14.2725 S   0  0  0  0  0  0  0  0  0  0  0  0
   21.7212   -5.2064  -14.0690 C   0  0  0  0  0  0  0  0  0  0  0  0
   21.3591   -4.4988  -15.0387 O   0  0  0  0  0  0  0  0  0  0  0  0
   22.4374   -4.6265  -13.0483 O   0  0  0  0  0  0  0  0  0  0  0  0
  2  1  1  6
  2  4  1  0
  2  3  1  0
  4  5  2  0
  6  4  1  0
  6  7  1  0
  8  9  1  0
  7  8  1  1
  9 10  2  0
 11  7  1  0
 11 12  2  0
 13  9  1  0
 14 11  1  0
 15 14  1  0
 15 18  1  0
 15 16  1  6
 17 16  1  0
 18 19  2  0
 18 20  1  0
M  END
$$$$
