WYI.pdb
     RDKit          3D

 35 37  0  0  1  0  0  0  0  0999 V2000
    5.7586  -17.9584   23.6404 N   0  0  0  0  0  0  0  0  0  0  0  0
    6.5665  -16.8006   23.9469 C   0  0  1  0  0  0  0  0  0  0  0  0
    6.6218  -16.5138   25.4422 C   0  0  0  0  0  0  0  0  0  0  0  0
    5.9271  -15.2351   25.7344 C   0  0  0  0  0  0  0  0  0  0  0  0
    4.6315  -15.0496   26.1339 C   0  0  0  0  0  0  0  0  0  0  0  0
    4.4202  -13.7285   26.2742 N   0  0  0  0  0  0  0  0  0  0  0  0
    5.5277  -13.0231   25.9836 C   0  0  0  0  0  0  0  0  0  0  0  0
    5.8617  -11.6901   25.9604 C   0  0  0  0  0  0  0  0  0  0  0  0
    7.1202  -11.3219   25.6055 C   0  0  0  0  0  0  0  0  0  0  0  0
    8.0994  -12.2337   25.2604 C   0  0  0  0  0  0  0  0  0  0  0  0
    7.7711  -13.5719   25.2802 C   0  0  0  0  0  0  0  0  0  0  0  0
    6.4995  -13.9671   25.6373 C   0  0  0  0  0  0  0  0  0  0  0  0
    7.9128  -16.8869   23.3791 C   0  0  0  0  0  0  0  0  0  0  0  0
    8.3417  -18.0286   23.0471 O   0  0  0  0  0  0  0  0  0  0  0  0
    7.4380  -13.8693   17.1229 O   0  0  0  0  0  0  0  0  0  0  0  0
    8.1907  -14.0542   18.3012 C   0  0  0  0  0  0  0  0  0  0  0  0
    7.9338  -13.2717   19.4058 C   0  0  0  0  0  0  0  0  0  0  0  0
    8.6532  -13.4284   20.5695 C   0  0  0  0  0  0  0  0  0  0  0  0
    9.6545  -14.3724   20.6760 C   0  0  0  0  0  0  0  0  0  0  0  0
   10.4584  -14.5972   21.8793 C   0  0  0  0  0  0  0  0  0  0  0  0
   10.0546  -15.7837   22.6821 C   0  0  2  0  0  0  0  0  0  0  0  0
    8.7087  -15.7327   23.2082 N   0  0  0  0  0  0  0  0  0  0  0  0
   11.0370  -15.9582   23.8287 C   0  0  0  0  0  0  0  0  0  0  0  0
   12.2689  -15.9263   23.5916 O   0  0  0  0  0  0  0  0  0  0  0  0
    9.8973  -15.1491   19.5596 C   0  0  0  0  0  0  0  0  0  0  0  0
    9.1774  -14.9945   18.3852 C   0  0  0  0  0  0  0  0  0  0  0  0
    9.4266  -13.9064   28.5930 C   0  0  0  0  0  0  0  0  0  0  0  0
   10.2114  -14.3755   27.4141 C   0  0  0  0  0  0  0  0  0  0  0  0
   10.6926  -15.7848   27.4725 C   0  0  2  0  0  0  0  0  0  0  0  0
   11.6271  -15.9441   28.6572 C   0  0  0  0  0  0  0  0  0  0  0  0
   11.4159  -16.2754   26.2573 C   0  0  2  0  0  0  0  0  0  0  0  0
   10.5191  -16.1526   25.1317 N   0  0  0  0  0  0  0  0  0  0  0  0
   11.8669  -17.6858   26.4281 C   0  0  0  0  0  0  0  0  0  0  0  0
   13.0105  -18.0419   27.1119 O   0  0  0  0  0  0  0  0  0  0  0  0
   11.1791  -18.6030   25.9289 O   0  0  0  0  0  0  0  0  0  0  0  0
  2  1  1  1
  2  3  1  0
  3  4  1  0
  4  5  2  0
  5  6  1  0
  7  6  1  0
  8  7  2  0
  9  8  1  0
 10 11  1  0
 10  9  2  0
 11 12  2  0
 12  4  1  0
 12  7  1  0
 13  2  1  0
 13 22  1  0
 14 13  2  0
 15 16  1  0
 16 17  2  0
 17 18  1  0
 19 20  1  0
 19 18  2  0
 21 20  1  1
 21 22  1  0
 21 23  1  0
 23 32  1  0
 23 24  2  0
 25 19  1  0
 26 25  2  0
 26 16  1  0
 28 27  1  0
 29 28  1  0
 29 30  1  1
 31 29  1  0
 31 32  1  6
 33 31  1  0
 33 34  1  0
 35 33  2  0
M  END
$$$$
