WYI.pdb
     RDKit          3D

 35 37  0  0  1  0  0  0  0  0999 V2000
    5.7994  -18.0056   23.9950 N   0  0  0  0  0  0  0  0  0  0  0  0
    6.5839  -16.8131   24.2186 C   0  0  1  0  0  0  0  0  0  0  0  0
    6.6181  -16.4108   25.6877 C   0  0  0  0  0  0  0  0  0  0  0  0
    5.7824  -15.2020   25.8970 C   0  0  0  0  0  0  0  0  0  0  0  0
    4.4528  -15.1387   26.2143 C   0  0  0  0  0  0  0  0  0  0  0  0
    4.1023  -13.8427   26.2986 N   0  0  0  0  0  0  0  0  0  0  0  0
    5.1494  -13.0363   26.0498 C   0  0  0  0  0  0  0  0  0  0  0  0
    5.3492  -11.6773   26.0023 C   0  0  0  0  0  0  0  0  0  0  0  0
    6.5839  -11.1925   25.7092 C   0  0  0  0  0  0  0  0  0  0  0  0
    7.6686  -12.0089   25.4516 C   0  0  0  0  0  0  0  0  0  0  0  0
    7.4751  -13.3726   25.4962 C   0  0  0  0  0  0  0  0  0  0  0  0
    6.2300  -13.8854   25.7917 C   0  0  0  0  0  0  0  0  0  0  0  0
    7.9375  -16.9188   23.6720 C   0  0  0  0  0  0  0  0  0  0  0  0
    8.4415  -18.0727   23.5616 O   0  0  0  0  0  0  0  0  0  0  0  0
    7.2787  -13.8883   17.2524 O   0  0  0  0  0  0  0  0  0  0  0  0
    8.0565  -14.0827   18.4128 C   0  0  0  0  0  0  0  0  0  0  0  0
    8.1036  -13.0990   19.3763 C   0  0  0  0  0  0  0  0  0  0  0  0
    8.8553  -13.2599   20.5188 C   0  0  0  0  0  0  0  0  0  0  0  0
    9.5867  -14.4085   20.7443 C   0  0  0  0  0  0  0  0  0  0  0  0
   10.4058  -14.6506   21.9339 C   0  0  0  0  0  0  0  0  0  0  0  0
    9.9972  -15.8351   22.7374 C   0  0  2  0  0  0  0  0  0  0  0  0
    8.6590  -15.7692   23.2810 N   0  0  0  0  0  0  0  0  0  0  0  0
   10.9921  -16.0266   23.8705 C   0  0  0  0  0  0  0  0  0  0  0  0
   12.2212  -16.0009   23.6190 O   0  0  0  0  0  0  0  0  0  0  0  0
    9.5266  -15.3848   19.7687 C   0  0  0  0  0  0  0  0  0  0  0  0
    8.7730  -15.2273   18.6159 C   0  0  0  0  0  0  0  0  0  0  0  0
   10.4945  -13.4253   28.4573 C   0  0  0  0  0  0  0  0  0  0  0  0
   10.9398  -14.2217   27.2769 C   0  0  0  0  0  0  0  0  0  0  0  0
   10.9331  -15.7017   27.4512 C   0  0  2  0  0  0  0  0  0  0  0  0
   11.8201  -16.0696   28.6260 C   0  0  0  0  0  0  0  0  0  0  0  0
   11.3946  -16.4972   26.2703 C   0  0  2  0  0  0  0  0  0  0  0  0
   10.4884  -16.2294   25.1778 N   0  0  0  0  0  0  0  0  0  0  0  0
   11.4376  -17.9542   26.5821 C   0  0  0  0  0  0  0  0  0  0  0  0
   10.5885  -18.8800   26.0126 O   0  0  0  0  0  0  0  0  0  0  0  0
   12.2849  -18.3703   27.4022 O   0  0  0  0  0  0  0  0  0  0  0  0
  2  1  1  1
  2  3  1  0
  3  4  1  0
  4  5  2  0
  5  6  1  0
  7  6  1  0
  8  7  2  0
  9  8  1  0
 10 11  1  0
 10  9  2  0
 11 12  2  0
 12  4  1  0
 12  7  1  0
 13  2  1  0
 13 22  1  0
 14 13  2  0
 15 16  1  0
 16 17  2  0
 17 18  1  0
 19 20  1  0
 19 18  2  0
 21 20  1  1
 21 22  1  0
 21 23  1  0
 23 32  1  0
 23 24  2  0
 25 19  1  0
 26 25  2  0
 26 16  1  0
 28 27  1  0
 29 28  1  0
 29 30  1  1
 31 29  1  0
 31 32  1  6
 33 31  1  0
 33 34  1  0
 35 33  2  0
M  END
$$$$
