WYI.pdb
     RDKit          3D

 35 37  0  0  1  0  0  0  0  0999 V2000
    5.5402  -17.6044   23.5654 N   0  0  0  0  0  0  0  0  0  0  0  0
    6.5248  -16.6000   23.8957 C   0  0  1  0  0  0  0  0  0  0  0  0
    6.7156  -16.4502   25.3998 C   0  0  0  0  0  0  0  0  0  0  0  0
    6.0600  -15.2034   25.8676 C   0  0  0  0  0  0  0  0  0  0  0  0
    4.7462  -15.0131   26.1998 C   0  0  0  0  0  0  0  0  0  0  0  0
    4.5863  -13.7272   26.5609 N   0  0  0  0  0  0  0  0  0  0  0  0
    5.7456  -13.0500   26.4829 C   0  0  0  0  0  0  0  0  0  0  0  0
    6.1425  -11.7566   26.7250 C   0  0  0  0  0  0  0  0  0  0  0  0
    7.4416  -11.4086   26.5339 C   0  0  0  0  0  0  0  0  0  0  0  0
    8.4019  -12.3028   26.1010 C   0  0  0  0  0  0  0  0  0  0  0  0
    8.0107  -13.6012   25.8551 C   0  0  0  0  0  0  0  0  0  0  0  0
    6.6971  -13.9753   26.0426 C   0  0  0  0  0  0  0  0  0  0  0  0
    7.8058  -16.8248   23.2242 C   0  0  0  0  0  0  0  0  0  0  0  0
    8.1434  -18.0183   22.9804 O   0  0  0  0  0  0  0  0  0  0  0  0
    7.3438  -13.9979   16.8530 O   0  0  0  0  0  0  0  0  0  0  0  0
    8.1274  -14.2112   18.0062 C   0  0  0  0  0  0  0  0  0  0  0  0
    8.3163  -13.1830   18.9035 C   0  0  0  0  0  0  0  0  0  0  0  0
    9.0774  -13.3611   20.0373 C   0  0  0  0  0  0  0  0  0  0  0  0
    9.6771  -14.5718   20.3196 C   0  0  0  0  0  0  0  0  0  0  0  0
   10.4970  -14.8355   21.5041 C   0  0  0  0  0  0  0  0  0  0  0  0
    9.9900  -15.9282   22.3783 C   0  0  2  0  0  0  0  0  0  0  0  0
    8.6395  -15.7441   22.8608 N   0  0  0  0  0  0  0  0  0  0  0  0
   10.9304  -16.0862   23.5620 C   0  0  0  0  0  0  0  0  0  0  0  0
   12.1568  -16.2512   23.3538 O   0  0  0  0  0  0  0  0  0  0  0  0
    9.4757  -15.5919   19.4100 C   0  0  0  0  0  0  0  0  0  0  0  0
    8.7120  -15.4176   18.2664 C   0  0  0  0  0  0  0  0  0  0  0  0
    9.7241  -13.1002   27.8562 C   0  0  0  0  0  0  0  0  0  0  0  0
   10.4554  -13.8888   26.8223 C   0  0  0  0  0  0  0  0  0  0  0  0
   10.6404  -15.3373   27.1199 C   0  0  2  0  0  0  0  0  0  0  0  0
   11.5300  -15.4863   28.3400 C   0  0  0  0  0  0  0  0  0  0  0  0
   11.2417  -16.1551   26.0198 C   0  0  2  0  0  0  0  0  0  0  0  0
   10.3806  -16.0416   24.8657 N   0  0  0  0  0  0  0  0  0  0  0  0
   11.3999  -17.5799   26.4285 C   0  0  0  0  0  0  0  0  0  0  0  0
   12.4941  -18.0565   27.1199 O   0  0  0  0  0  0  0  0  0  0  0  0
   10.4984  -18.3949   26.1343 O   0  0  0  0  0  0  0  0  0  0  0  0
  2  1  1  1
  2  3  1  0
  3  4  1  0
  4  5  2  0
  5  6  1  0
  7  6  1  0
  8  7  2  0
  9  8  1  0
 10 11  1  0
 10  9  2  0
 11 12  2  0
 12  4  1  0
 12  7  1  0
 13  2  1  0
 13 22  1  0
 14 13  2  0
 15 16  1  0
 16 17  2  0
 17 18  1  0
 19 20  1  0
 19 18  2  0
 21 20  1  1
 21 22  1  0
 21 23  1  0
 23 32  1  0
 23 24  2  0
 25 19  1  0
 26 25  2  0
 26 16  1  0
 28 27  1  0
 29 28  1  0
 29 30  1  1
 31 29  1  0
 31 32  1  6
 33 31  1  0
 33 34  1  0
 35 33  2  0
M  END
$$$$
