WYI.pdb
     RDKit          3D

 35 37  0  0  1  0  0  0  0  0999 V2000
    5.8814  -17.6838   24.0526 N   0  0  0  0  0  0  0  0  0  0  0  0
    6.8129  -16.5882   24.1909 C   0  0  1  0  0  0  0  0  0  0  0  0
    6.9700  -16.1423   25.6392 C   0  0  0  0  0  0  0  0  0  0  0  0
    6.0183  -15.0415   25.9319 C   0  0  0  0  0  0  0  0  0  0  0  0
    4.7617  -15.1308   26.4663 C   0  0  0  0  0  0  0  0  0  0  0  0
    4.2516  -13.8889   26.5501 N   0  0  0  0  0  0  0  0  0  0  0  0
    5.1216  -12.9715   26.0916 C   0  0  0  0  0  0  0  0  0  0  0  0
    5.1191  -11.6044   25.9497 C   0  0  0  0  0  0  0  0  0  0  0  0
    6.2102  -10.9838   25.4304 C   0  0  0  0  0  0  0  0  0  0  0  0
    7.3425  -11.6672   25.0303 C   0  0  0  0  0  0  0  0  0  0  0  0
    7.3514  -13.0384   25.1685 C   0  0  0  0  0  0  0  0  0  0  0  0
    6.2544  -13.6880   25.6932 C   0  0  0  0  0  0  0  0  0  0  0  0
    8.1144  -16.8759   23.5864 C   0  0  0  0  0  0  0  0  0  0  0  0
    8.4795  -18.0840   23.5172 O   0  0  0  0  0  0  0  0  0  0  0  0
    7.2839  -13.8733   17.4077 O   0  0  0  0  0  0  0  0  0  0  0  0
    8.1623  -14.1697   18.4707 C   0  0  0  0  0  0  0  0  0  0  0  0
    8.3531  -13.2477   19.4765 C   0  0  0  0  0  0  0  0  0  0  0  0
    9.2055  -13.5085   20.5262 C   0  0  0  0  0  0  0  0  0  0  0  0
    9.8981  -14.6992   20.6132 C   0  0  0  0  0  0  0  0  0  0  0  0
   10.8180  -15.0467   21.6983 C   0  0  0  0  0  0  0  0  0  0  0  0
   10.2955  -16.0621   22.6529 C   0  0  2  0  0  0  0  0  0  0  0  0
    8.9378  -15.8379   23.0967 N   0  0  0  0  0  0  0  0  0  0  0  0
   11.2167  -16.1208   23.8605 C   0  0  0  0  0  0  0  0  0  0  0  0
   12.2706  -15.4398   23.8621 O   0  0  0  0  0  0  0  0  0  0  0  0
    9.6935  -15.6125   19.5970 C   0  0  0  0  0  0  0  0  0  0  0  0
    8.8380  -15.3545   18.5373 C   0  0  0  0  0  0  0  0  0  0  0  0
    9.8272  -14.0363   28.0376 C   0  0  0  0  0  0  0  0  0  0  0  0
   10.6942  -14.7385   27.0471 C   0  0  0  0  0  0  0  0  0  0  0  0
   10.7971  -16.2167   27.2058 C   0  0  2  0  0  0  0  0  0  0  0  0
   11.4022  -16.5320   28.5610 C   0  0  0  0  0  0  0  0  0  0  0  0
   11.6129  -16.9262   26.1706 C   0  0  2  0  0  0  0  0  0  0  0  0
   10.8466  -16.9500   24.9464 N   0  0  0  0  0  0  0  0  0  0  0  0
   11.9607  -18.3079   26.6086 C   0  0  0  0  0  0  0  0  0  0  0  0
   12.9701  -18.5911   27.5049 O   0  0  0  0  0  0  0  0  0  0  0  0
   11.3087  -19.2690   26.1451 O   0  0  0  0  0  0  0  0  0  0  0  0
  2  1  1  1
  2  3  1  0
  3  4  1  0
  4  5  2  0
  5  6  1  0
  7  6  1  0
  8  7  2  0
  9  8  1  0
 10 11  1  0
 10  9  2  0
 11 12  2  0
 12  4  1  0
 12  7  1  0
 13  2  1  0
 13 22  1  0
 14 13  2  0
 15 16  1  0
 16 17  2  0
 17 18  1  0
 19 20  1  0
 19 18  2  0
 21 20  1  6
 21 22  1  0
 21 23  1  0
 23 32  1  0
 23 24  2  0
 25 19  1  0
 26 25  2  0
 26 16  1  0
 28 27  1  0
 29 28  1  0
 29 30  1  1
 31 29  1  0
 31 32  1  6
 33 31  1  0
 33 34  1  0
 35 33  2  0
M  END
$$$$
