WYI.pdb
     RDKit          3D

 35 37  0  0  1  0  0  0  0  0999 V2000
    5.6947  -19.2811   21.4982 N   0  0  0  0  0  0  0  0  0  0  0  0
    6.3072  -18.0355   21.8990 C   0  0  1  0  0  0  0  0  0  0  0  0
    5.5038  -16.8236   21.4440 C   0  0  0  0  0  0  0  0  0  0  0  0
    6.3833  -15.8893   20.6977 C   0  0  0  0  0  0  0  0  0  0  0  0
    6.8623  -16.0168   19.4223 C   0  0  0  0  0  0  0  0  0  0  0  0
    7.6288  -14.9448   19.1523 N   0  0  0  0  0  0  0  0  0  0  0  0
    7.6796  -14.1041   20.2007 C   0  0  0  0  0  0  0  0  0  0  0  0
    8.2927  -12.9024   20.4636 C   0  0  0  0  0  0  0  0  0  0  0  0
    8.1190  -12.3137   21.6755 C   0  0  0  0  0  0  0  0  0  0  0  0
    7.3445  -12.8699   22.6755 C   0  0  0  0  0  0  0  0  0  0  0  0
    6.7277  -14.0754   22.4192 C   0  0  0  0  0  0  0  0  0  0  0  0
    6.8910  -14.6898   21.1959 C   0  0  0  0  0  0  0  0  0  0  0  0
    6.5760  -17.9771   23.3366 C   0  0  0  0  0  0  0  0  0  0  0  0
    5.5982  -17.7794   24.1128 O   0  0  0  0  0  0  0  0  0  0  0  0
    4.2737  -23.1334   26.2824 O   0  0  0  0  0  0  0  0  0  0  0  0
    5.3374  -22.2133   26.1757 C   0  0  0  0  0  0  0  0  0  0  0  0
    6.1431  -22.2272   25.0582 C   0  0  0  0  0  0  0  0  0  0  0  0
    7.1899  -21.3421   24.9268 C   0  0  0  0  0  0  0  0  0  0  0  0
    7.4712  -20.4087   25.9039 C   0  0  0  0  0  0  0  0  0  0  0  0
    8.5639  -19.4363   25.8326 C   0  0  0  0  0  0  0  0  0  0  0  0
    8.1838  -18.1176   25.2564 C   0  0  2  0  0  0  0  0  0  0  0  0
    7.8856  -18.1351   23.8417 N   0  0  0  0  0  0  0  0  0  0  0  0
    9.3031  -17.1243   25.5228 C   0  0  0  0  0  0  0  0  0  0  0  0
   10.3066  -17.1141   24.7696 O   0  0  0  0  0  0  0  0  0  0  0  0
    6.6522  -20.4080   27.0165 C   0  0  0  0  0  0  0  0  0  0  0  0
    5.5984  -21.2978   27.1547 C   0  0  0  0  0  0  0  0  0  0  0  0
    8.0725  -12.3343   28.1710 C   0  0  0  0  0  0  0  0  0  0  0  0
    8.5042  -13.7438   27.9414 C   0  0  0  0  0  0  0  0  0  0  0  0
    9.6135  -13.9331   26.9644 C   0  0  2  0  0  0  0  0  0  0  0  0
    9.1079  -13.6191   25.5687 C   0  0  0  0  0  0  0  0  0  0  0  0
   10.2209  -15.3007   26.9278 C   0  0  2  0  0  0  0  0  0  0  0  0
    9.1688  -16.2417   26.6213 N   0  0  0  0  0  0  0  0  0  0  0  0
   10.8759  -15.6372   28.2238 C   0  0  0  0  0  0  0  0  0  0  0  0
   12.0078  -15.0031   28.6920 O   0  0  0  0  0  0  0  0  0  0  0  0
   10.3810  -16.5408   28.9324 O   0  0  0  0  0  0  0  0  0  0  0  0
  2  1  1  1
  2  3  1  0
  3  4  1  0
  4  5  2  0
  5  6  1  0
  7  6  1  0
  8  7  2  0
  9  8  1  0
 10 11  1  0
 10  9  2  0
 11 12  2  0
 12  4  1  0
 12  7  1  0
 13  2  1  0
 13 22  1  0
 14 13  2  0
 15 16  1  0
 16 17  2  0
 17 18  1  0
 19 20  1  0
 19 18  2  0
 21 20  1  6
 21 22  1  0
 21 23  1  0
 23 32  1  0
 23 24  2  0
 25 19  1  0
 26 25  2  0
 26 16  1  0
 28 27  1  0
 29 28  1  0
 29 30  1  6
 31 29  1  0
 31 32  1  1
 33 31  1  0
 33 34  1  0
 35 33  2  0
M  END
$$$$
