WYI.pdb
     RDKit          3D

 35 37  0  0  1  0  0  0  0  0999 V2000
    6.4296  -20.2322   21.5377 N   0  0  0  0  0  0  0  0  0  0  0  0
    6.0706  -18.9516   22.1020 C   0  0  1  0  0  0  0  0  0  0  0  0
    4.9812  -19.0712   23.1604 C   0  0  0  0  0  0  0  0  0  0  0  0
    3.7626  -19.6707   22.5613 C   0  0  0  0  0  0  0  0  0  0  0  0
    3.0218  -20.7225   23.0276 C   0  0  0  0  0  0  0  0  0  0  0  0
    2.0093  -20.9368   22.1683 N   0  0  0  0  0  0  0  0  0  0  0  0
    2.0453  -20.0661   21.1440 C   0  0  0  0  0  0  0  0  0  0  0  0
    1.2827  -19.8408   20.0229 C   0  0  0  0  0  0  0  0  0  0  0  0
    1.6226  -18.8368   19.1734 C   0  0  0  0  0  0  0  0  0  0  0  0
    2.7143  -18.0157   19.3811 C   0  0  0  0  0  0  0  0  0  0  0  0
    3.4841  -18.2366   20.5026 C   0  0  0  0  0  0  0  0  0  0  0  0
    3.1568  -19.2504   21.3777 C   0  0  0  0  0  0  0  0  0  0  0  0
    7.2276  -18.2203   22.6204 C   0  0  0  0  0  0  0  0  0  0  0  0
    8.3319  -18.8318   22.6860 O   0  0  0  0  0  0  0  0  0  0  0  0
    7.7198  -12.5796   18.0763 O   0  0  0  0  0  0  0  0  0  0  0  0
    7.8000  -13.0858   19.3903 C   0  0  0  0  0  0  0  0  0  0  0  0
    9.0244  -13.1694   20.0166 C   0  0  0  0  0  0  0  0  0  0  0  0
    9.1340  -13.6606   21.2984 C   0  0  0  0  0  0  0  0  0  0  0  0
    8.0265  -14.0851   22.0044 C   0  0  0  0  0  0  0  0  0  0  0  0
    8.0656  -14.6160   23.3687 C   0  0  0  0  0  0  0  0  0  0  0  0
    8.2545  -16.0898   23.4553 C   0  0  2  0  0  0  0  0  0  0  0  0
    7.1152  -16.8749   23.0355 N   0  0  0  0  0  0  0  0  0  0  0  0
    8.6182  -16.4551   24.8853 C   0  0  0  0  0  0  0  0  0  0  0  0
    7.7678  -16.2968   25.7943 O   0  0  0  0  0  0  0  0  0  0  0  0
    6.8071  -13.9926   21.3618 C   0  0  0  0  0  0  0  0  0  0  0  0
    6.6913  -13.5006   20.0710 C   0  0  0  0  0  0  0  0  0  0  0  0
   12.3626  -20.4372   25.2977 C   0  0  0  0  0  0  0  0  0  0  0  0
   11.2005  -19.5171   25.4680 C   0  0  0  0  0  0  0  0  0  0  0  0
   11.4294  -18.3369   26.3487 C   0  0  2  0  0  0  0  0  0  0  0  0
   11.7767  -18.8168   27.7456 C   0  0  0  0  0  0  0  0  0  0  0  0
   10.2810  -17.3846   26.4706 C   0  0  2  0  0  0  0  0  0  0  0  0
    9.9147  -16.9637   25.1383 N   0  0  0  0  0  0  0  0  0  0  0  0
   10.6368  -16.2130   27.3207 C   0  0  0  0  0  0  0  0  0  0  0  0
   10.5316  -16.2103   28.6959 O   0  0  0  0  0  0  0  0  0  0  0  0
   11.0543  -15.1720   26.7678 O   0  0  0  0  0  0  0  0  0  0  0  0
  2  1  1  1
  2  3  1  0
  3  4  1  0
  4  5  2  0
  5  6  1  0
  7  6  1  0
  8  7  2  0
  9  8  1  0
 10 11  1  0
 10  9  2  0
 11 12  2  0
 12  4  1  0
 12  7  1  0
 13  2  1  0
 13 22  1  0
 14 13  2  0
 15 16  1  0
 16 17  2  0
 17 18  1  0
 19 20  1  0
 19 18  2  0
 21 20  1  1
 21 22  1  0
 21 23  1  0
 23 32  1  0
 23 24  2  0
 25 19  1  0
 26 25  2  0
 26 16  1  0
 28 27  1  0
 29 28  1  0
 29 30  1  1
 31 29  1  0
 31 32  1  6
 33 31  1  0
 33 34  1  0
 35 33  2  0
M  END
$$$$
