WYI.pdb
     RDKit          3D

 35 37  0  0  1  0  0  0  0  0999 V2000
    5.7648  -17.7020   23.9007 N   0  0  0  0  0  0  0  0  0  0  0  0
    6.7071  -16.6370   24.1566 C   0  0  1  0  0  0  0  0  0  0  0  0
    6.9771  -16.4493   25.6442 C   0  0  0  0  0  0  0  0  0  0  0  0
    6.3130  -15.2111   26.1229 C   0  0  0  0  0  0  0  0  0  0  0  0
    4.9925  -15.0252   26.4296 C   0  0  0  0  0  0  0  0  0  0  0  0
    4.8264  -13.7467   26.8137 N   0  0  0  0  0  0  0  0  0  0  0  0
    5.9881  -13.0704   26.7757 C   0  0  0  0  0  0  0  0  0  0  0  0
    6.3814  -11.7830   27.0534 C   0  0  0  0  0  0  0  0  0  0  0  0
    7.6850  -11.4336   26.8987 C   0  0  0  0  0  0  0  0  0  0  0  0
    8.6534  -12.3206   26.4689 C   0  0  0  0  0  0  0  0  0  0  0  0
    8.2659  -13.6128   26.1873 C   0  0  0  0  0  0  0  0  0  0  0  0
    6.9479  -13.9881   26.3376 C   0  0  0  0  0  0  0  0  0  0  0  0
    7.9571  -16.8002   23.4129 C   0  0  0  0  0  0  0  0  0  0  0  0
    8.3467  -17.9765   23.1635 O   0  0  0  0  0  0  0  0  0  0  0  0
    7.3398  -14.5050   16.8577 O   0  0  0  0  0  0  0  0  0  0  0  0
    8.1259  -14.5644   18.0273 C   0  0  0  0  0  0  0  0  0  0  0  0
    8.7501  -15.7434   18.3718 C   0  0  0  0  0  0  0  0  0  0  0  0
    9.5225  -15.8320   19.5084 C   0  0  0  0  0  0  0  0  0  0  0  0
    9.7030  -14.7476   20.3431 C   0  0  0  0  0  0  0  0  0  0  0  0
   10.5101  -14.7663   21.5649 C   0  0  0  0  0  0  0  0  0  0  0  0
   10.0871  -15.7773   22.5721 C   0  0  2  0  0  0  0  0  0  0  0  0
    8.7057  -15.6804   22.9880 N   0  0  0  0  0  0  0  0  0  0  0  0
   10.9889  -15.6638   23.7904 C   0  0  0  0  0  0  0  0  0  0  0  0
   11.7051  -14.6431   23.9309 O   0  0  0  0  0  0  0  0  0  0  0  0
    9.0713  -13.5734   19.9816 C   0  0  0  0  0  0  0  0  0  0  0  0
    8.2912  -13.4792   18.8396 C   0  0  0  0  0  0  0  0  0  0  0  0
   10.3631  -13.1618   27.7385 C   0  0  0  0  0  0  0  0  0  0  0  0
   11.2261  -14.1785   27.0697 C   0  0  0  0  0  0  0  0  0  0  0  0
   10.5529  -15.4517   26.6863 C   0  0  2  0  0  0  0  0  0  0  0  0
    9.8988  -16.0591   27.9133 C   0  0  0  0  0  0  0  0  0  0  0  0
   11.4366  -16.4973   26.0811 C   0  0  2  0  0  0  0  0  0  0  0  0
   10.9861  -16.7247   24.7276 N   0  0  0  0  0  0  0  0  0  0  0  0
   11.4028  -17.7596   26.8731 C   0  0  0  0  0  0  0  0  0  0  0  0
   10.8382  -18.9314   26.4143 O   0  0  0  0  0  0  0  0  0  0  0  0
   11.9107  -17.7679   28.0157 O   0  0  0  0  0  0  0  0  0  0  0  0
  2  1  1  1
  2  3  1  0
  3  4  1  0
  4  5  2  0
  5  6  1  0
  7  6  1  0
  8  7  2  0
  9  8  1  0
 10 11  1  0
 10  9  2  0
 11 12  2  0
 12  4  1  0
 12  7  1  0
 13  2  1  0
 13 22  1  0
 14 13  2  0
 15 16  1  0
 16 17  2  0
 17 18  1  0
 19 20  1  0
 19 18  2  0
 21 20  1  6
 21 22  1  0
 21 23  1  0
 23 32  1  0
 23 24  2  0
 25 19  1  0
 26 25  2  0
 26 16  1  0
 28 27  1  0
 29 28  1  0
 29 30  1  1
 31 29  1  0
 31 32  1  6
 33 31  1  0
 33 34  1  0
 35 33  2  0
M  END
$$$$
