QKV.pdb
     RDKit          3D

 26 25  0  0  1  0  0  0  0  0999 V2000
   13.9691  -13.1478  -15.7898 N   0  0  0  0  0  0  0  0  0  0  0  0
   15.2250  -13.0469  -15.0843 C   0  0  0  0  0  0  0  0  0  0  0  0
   15.2242  -12.4894  -13.9600 O   0  0  0  0  0  0  0  0  0  0  0  0
   16.4720  -13.5748  -15.6627 C   0  0  0  0  0  0  0  0  0  0  0  0
   17.6126  -12.6392  -15.6158 C   0  0  0  0  0  0  0  0  0  0  0  0
   17.4661  -11.3787  -16.4169 C   0  0  2  0  0  0  0  0  0  0  0  0
   17.2637  -11.6555  -17.7840 N   0  0  0  0  0  0  0  0  0  0  0  0
   18.6462  -10.4916  -16.1283 C   0  0  0  0  0  0  0  0  0  0  0  0
   19.3486  -10.7180  -15.0839 O   0  0  0  0  0  0  0  0  0  0  0  0
   19.0494   -9.4193  -16.9182 N   0  0  0  0  0  0  0  0  0  0  0  0
   20.2494   -8.6437  -16.7260 C   0  0  1  0  0  0  0  0  0  0  0  0
   20.5957   -7.8417  -17.9819 C   0  0  0  0  0  0  0  0  0  0  0  0
   21.0214   -8.7402  -19.1037 C   0  0  0  0  0  0  0  0  0  0  0  0
   21.3276   -7.8794  -20.3088 C   0  0  0  0  0  0  0  0  0  0  0  0
   21.7420   -8.6676  -21.5099 C   0  0  0  0  0  0  0  0  0  0  0  0
   21.8936   -7.7361  -22.6137 N   0  0  0  0  0  0  0  0  0  0  0  0
   20.2079   -7.7192  -15.6059 C   0  0  0  0  0  0  0  0  0  0  0  0
   19.2245   -6.9712  -15.4333 O   0  0  0  0  0  0  0  0  0  0  0  0
   22.8420   -8.3926  -12.5653 C   0  0  0  0  0  0  0  0  0  0  0  0
   21.5142   -7.6832  -12.3165 C   0  0  2  0  0  0  0  0  0  0  0  0
   20.4440   -8.7283  -12.1583 C   0  0  0  0  0  0  0  0  0  0  0  0
   21.2680   -6.7866  -13.5166 C   0  0  2  0  0  0  0  0  0  0  0  0
   21.2774   -7.6446  -14.6868 N   0  0  0  0  0  0  0  0  0  0  0  0
   22.3078   -5.7319  -13.6128 C   0  0  0  0  0  0  0  0  0  0  0  0
   23.2036   -5.8314  -14.4857 O   0  0  0  0  0  0  0  0  0  0  0  0
   22.3218   -4.6423  -12.7714 O   0  0  0  0  0  0  0  0  0  0  0  0
  2  1  1  0
  3  2  2  0
  4  2  1  0
  5  4  1  0
  6  5  1  0
  6  8  1  0
  6  7  1  6
  8  9  2  0
 10  8  1  0
 10 11  1  0
 11 12  1  6
 12 13  1  0
 13 14  1  0
 15 14  1  0
 16 15  1  0
 17 11  1  0
 17 18  2  0
 20 19  1  6
 20 22  1  0
 21 20  1  0
 22 24  1  0
 22 23  1  6
 23 17  1  0
 24 26  1  0
 25 24  2  0
M  END
$$$$
