QKV.pdb
     RDKit          3D

 26 25  0  0  1  0  0  0  0  0999 V2000
   20.8791  -15.1387  -16.4589 N   0  0  0  0  0  0  0  0  0  0  0  0
   19.6499  -15.7821  -16.0585 C   0  0  0  0  0  0  0  0  0  0  0  0
   18.5716  -15.1812  -16.2845 O   0  0  0  0  0  0  0  0  0  0  0  0
   19.6550  -17.0993  -15.4004 C   0  0  0  0  0  0  0  0  0  0  0  0
   20.9990  -17.6667  -15.1770 C   0  0  0  0  0  0  0  0  0  0  0  0
   21.6472  -18.3164  -16.3643 C   0  0  2  0  0  0  0  0  0  0  0  0
   20.7485  -19.1612  -17.0463 N   0  0  0  0  0  0  0  0  0  0  0  0
   22.9116  -18.9908  -15.9065 C   0  0  0  0  0  0  0  0  0  0  0  0
   22.8249  -20.0163  -15.1475 O   0  0  0  0  0  0  0  0  0  0  0  0
   24.1989  -18.5851  -16.2451 N   0  0  0  0  0  0  0  0  0  0  0  0
   25.4182  -19.1979  -15.7803 C   0  0  1  0  0  0  0  0  0  0  0  0
   26.6315  -18.6610  -16.5418 C   0  0  0  0  0  0  0  0  0  0  0  0
   27.8887  -19.3687  -16.1353 C   0  0  0  0  0  0  0  0  0  0  0  0
   27.8764  -20.7481  -16.7551 C   0  0  0  0  0  0  0  0  0  0  0  0
   29.0785  -21.5656  -16.4050 C   0  0  0  0  0  0  0  0  0  0  0  0
   28.9139  -22.8711  -17.0195 N   0  0  0  0  0  0  0  0  0  0  0  0
   25.6799  -19.0400  -14.3597 C   0  0  0  0  0  0  0  0  0  0  0  0
   25.8136  -17.9053  -13.8589 O   0  0  0  0  0  0  0  0  0  0  0  0
   25.4731  -20.6440   -9.8520 C   0  0  0  0  0  0  0  0  0  0  0  0
   25.1620  -20.8771  -11.3276 C   0  0  2  0  0  0  0  0  0  0  0  0
   25.2550  -22.3532  -11.6014 C   0  0  0  0  0  0  0  0  0  0  0  0
   26.1840  -20.0810  -12.1190 C   0  0  2  0  0  0  0  0  0  0  0  0
   25.7891  -20.1647  -13.5127 N   0  0  0  0  0  0  0  0  0  0  0  0
   27.5514  -20.6200  -11.9127 C   0  0  0  0  0  0  0  0  0  0  0  0
   28.0370  -21.4032  -12.7642 O   0  0  0  0  0  0  0  0  0  0  0  0
   28.3084  -20.2872  -10.8120 O   0  0  0  0  0  0  0  0  0  0  0  0
  2  1  1  0
  3  2  2  0
  4  2  1  0
  5  4  1  0
  6  5  1  0
  6  8  1  0
  6  7  1  1
  8  9  2  0
 10  8  1  0
 10 11  1  0
 11 12  1  6
 12 13  1  0
 13 14  1  0
 15 14  1  0
 16 15  1  0
 17 11  1  0
 17 18  2  0
 20 19  1  1
 20 22  1  0
 21 20  1  0
 22 24  1  0
 22 23  1  6
 23 17  1  0
 24 26  1  0
 25 24  2  0
M  END
$$$$
