QKV.pdb
     RDKit          3D

 26 25  0  0  1  0  0  0  0  0999 V2000
   17.6080  -17.0046  -16.6363 N   0  0  0  0  0  0  0  0  0  0  0  0
   18.2943  -18.2477  -16.3739 C   0  0  0  0  0  0  0  0  0  0  0  0
   18.1725  -18.7565  -15.2332 O   0  0  0  0  0  0  0  0  0  0  0  0
   19.1171  -18.9001  -17.4060 C   0  0  0  0  0  0  0  0  0  0  0  0
   20.3925  -19.4548  -16.9119 C   0  0  0  0  0  0  0  0  0  0  0  0
   21.3965  -18.4579  -16.4118 C   0  0  2  0  0  0  0  0  0  0  0  0
   21.7278  -17.5147  -17.4053 N   0  0  0  0  0  0  0  0  0  0  0  0
   22.5719  -19.2084  -15.8475 C   0  0  0  0  0  0  0  0  0  0  0  0
   22.3561  -20.1933  -15.0609 O   0  0  0  0  0  0  0  0  0  0  0  0
   23.9062  -18.9163  -16.1133 N   0  0  0  0  0  0  0  0  0  0  0  0
   25.0412  -19.5967  -15.5414 C   0  0  1  0  0  0  0  0  0  0  0  0
   26.3342  -19.2199  -16.2668 C   0  0  0  0  0  0  0  0  0  0  0  0
   27.5052  -19.9860  -15.7296 C   0  0  0  0  0  0  0  0  0  0  0  0
   27.7342  -21.1861  -16.6209 C   0  0  0  0  0  0  0  0  0  0  0  0
   28.8480  -22.0674  -16.1532 C   0  0  0  0  0  0  0  0  0  0  0  0
   28.9253  -23.1956  -17.0645 N   0  0  0  0  0  0  0  0  0  0  0  0
   25.2438  -19.3625  -14.1217 C   0  0  0  0  0  0  0  0  0  0  0  0
   25.3430  -18.2018  -13.6754 O   0  0  0  0  0  0  0  0  0  0  0  0
   24.4567  -22.3814  -11.3880 C   0  0  0  0  0  0  0  0  0  0  0  0
   24.4595  -20.8946  -11.0447 C   0  0  2  0  0  0  0  0  0  0  0  0
   23.1356  -20.3129  -11.4588 C   0  0  0  0  0  0  0  0  0  0  0  0
   25.6206  -20.2752  -11.8015 C   0  0  2  0  0  0  0  0  0  0  0  0
   25.3331  -20.4407  -13.2141 N   0  0  0  0  0  0  0  0  0  0  0  0
   26.9021  -20.9263  -11.4321 C   0  0  0  0  0  0  0  0  0  0  0  0
   27.4738  -21.6717  -12.2640 O   0  0  0  0  0  0  0  0  0  0  0  0
   27.4875  -20.7385  -10.2002 O   0  0  0  0  0  0  0  0  0  0  0  0
  2  1  1  0
  3  2  2  0
  4  2  1  0
  5  4  1  0
  6  5  1  0
  6  8  1  0
  6  7  1  6
  8  9  2  0
 10  8  1  0
 10 11  1  0
 11 12  1  6
 12 13  1  0
 13 14  1  0
 15 14  1  0
 16 15  1  0
 17 11  1  0
 17 18  2  0
 20 19  1  6
 20 22  1  0
 21 20  1  0
 22 24  1  0
 22 23  1  6
 23 17  1  0
 24 26  1  0
 25 24  2  0
M  END
$$$$
