QKV.pdb
     RDKit          3D

 26 25  0  0  1  0  0  0  0  0999 V2000
   22.7494   -9.2823  -20.6393 N   0  0  0  0  0  0  0  0  0  0  0  0
   23.4871  -10.4929  -20.3650 C   0  0  0  0  0  0  0  0  0  0  0  0
   24.7385  -10.4502  -20.4493 O   0  0  0  0  0  0  0  0  0  0  0  0
   22.7985  -11.7429  -20.0025 C   0  0  0  0  0  0  0  0  0  0  0  0
   21.3277  -11.6361  -19.9417 C   0  0  0  0  0  0  0  0  0  0  0  0
   20.6837  -12.1040  -18.6695 C   0  0  2  0  0  0  0  0  0  0  0  0
   19.7817  -13.1612  -18.9049 N   0  0  0  0  0  0  0  0  0  0  0  0
   20.0812  -10.9132  -17.9752 C   0  0  0  0  0  0  0  0  0  0  0  0
   19.6069   -9.9597  -18.6833 O   0  0  0  0  0  0  0  0  0  0  0  0
   19.9936  -10.7550  -16.5955 N   0  0  0  0  0  0  0  0  0  0  0  0
   19.3801   -9.6396  -15.9189 C   0  0  1  0  0  0  0  0  0  0  0  0
   18.2189  -10.1002  -15.0357 C   0  0  0  0  0  0  0  0  0  0  0  0
   16.9182  -10.0620  -15.7797 C   0  0  0  0  0  0  0  0  0  0  0  0
   15.8389  -10.6110  -14.8737 C   0  0  0  0  0  0  0  0  0  0  0  0
   14.4837  -10.6212  -15.5055 C   0  0  0  0  0  0  0  0  0  0  0  0
   13.5687  -11.2481  -14.5682 N   0  0  0  0  0  0  0  0  0  0  0  0
   20.2811   -8.8532  -15.0937 C   0  0  0  0  0  0  0  0  0  0  0  0
   21.1312   -9.4098  -14.3698 O   0  0  0  0  0  0  0  0  0  0  0  0
   22.3213   -6.1619  -16.4830 C   0  0  0  0  0  0  0  0  0  0  0  0
   21.5659   -5.4944  -15.3375 C   0  0  2  0  0  0  0  0  0  0  0  0
   22.4806   -4.4898  -14.6920 C   0  0  0  0  0  0  0  0  0  0  0  0
   21.1611   -6.6006  -14.3799 C   0  0  2  0  0  0  0  0  0  0  0  0
   20.2170   -7.4425  -15.0907 N   0  0  0  0  0  0  0  0  0  0  0  0
   20.5592   -6.0389  -13.1449 C   0  0  0  0  0  0  0  0  0  0  0  0
   19.3602   -5.6691  -13.1601 O   0  0  0  0  0  0  0  0  0  0  0  0
   21.2768   -5.9097  -11.9771 O   0  0  0  0  0  0  0  0  0  0  0  0
  2  1  1  0
  3  2  2  0
  4  2  1  0
  5  4  1  0
  6  5  1  0
  6  8  1  0
  6  7  1  6
  8  9  2  0
 10  8  1  0
 10 11  1  0
 11 12  1  1
 12 13  1  0
 13 14  1  0
 15 14  1  0
 16 15  1  0
 17 11  1  0
 17 18  2  0
 20 19  1  6
 20 22  1  0
 21 20  1  0
 22 24  1  0
 22 23  1  6
 23 17  1  0
 24 26  1  0
 25 24  2  0
M  END
$$$$
