QKV.pdb
     RDKit          3D

 26 25  0  0  1  0  0  0  0  0999 V2000
   18.2533  -18.4684  -18.1775 N   0  0  0  0  0  0  0  0  0  0  0  0
   19.4850  -18.4888  -18.9308 C   0  0  0  0  0  0  0  0  0  0  0  0
   19.4155  -18.3380  -20.1747 O   0  0  0  0  0  0  0  0  0  0  0  0
   20.7847  -18.6852  -18.2671 C   0  0  0  0  0  0  0  0  0  0  0  0
   20.6956  -19.0007  -16.8280 C   0  0  0  0  0  0  0  0  0  0  0  0
   21.6463  -18.2641  -15.9305 C   0  0  2  0  0  0  0  0  0  0  0  0
   22.1356  -17.0937  -16.5446 N   0  0  0  0  0  0  0  0  0  0  0  0
   22.7129  -19.2233  -15.4774 C   0  0  0  0  0  0  0  0  0  0  0  0
   22.3622  -20.3120  -14.9054 O   0  0  0  0  0  0  0  0  0  0  0  0
   24.0815  -19.0236  -15.6300 N   0  0  0  0  0  0  0  0  0  0  0  0
   25.1134  -19.9234  -15.1785 C   0  0  1  0  0  0  0  0  0  0  0  0
   26.3084  -19.9172  -16.1336 C   0  0  0  0  0  0  0  0  0  0  0  0
   26.4521  -21.2328  -16.8374 C   0  0  0  0  0  0  0  0  0  0  0  0
   27.6528  -21.1505  -17.7531 C   0  0  0  0  0  0  0  0  0  0  0  0
   27.8480  -22.3771  -18.5857 C   0  0  0  0  0  0  0  0  0  0  0  0
   29.0595  -22.1894  -19.3641 N   0  0  0  0  0  0  0  0  0  0  0  0
   25.6131  -19.6596  -13.8399 C   0  0  0  0  0  0  0  0  0  0  0  0
   25.8605  -18.4939  -13.4705 O   0  0  0  0  0  0  0  0  0  0  0  0
   24.0833  -20.6461  -10.7717 C   0  0  0  0  0  0  0  0  0  0  0  0
   25.4702  -21.2678  -10.6370 C   0  0  2  0  0  0  0  0  0  0  0  0
   25.9134  -21.1259   -9.2066 C   0  0  0  0  0  0  0  0  0  0  0  0
   26.3781  -20.5192  -11.5961 C   0  0  2  0  0  0  0  0  0  0  0  0
   25.8307  -20.7138  -12.9258 N   0  0  0  0  0  0  0  0  0  0  0  0
   27.7720  -21.0213  -11.5080 C   0  0  0  0  0  0  0  0  0  0  0  0
   28.1504  -21.9224  -12.2948 O   0  0  0  0  0  0  0  0  0  0  0  0
   28.6682  -20.5281  -10.5865 O   0  0  0  0  0  0  0  0  0  0  0  0
  2  1  1  0
  3  2  2  0
  4  2  1  0
  5  4  1  0
  6  5  1  0
  6  8  1  0
  6  7  1  6
  8  9  2  0
 10  8  1  0
 10 11  1  0
 11 12  1  6
 12 13  1  0
 13 14  1  0
 15 14  1  0
 16 15  1  0
 17 11  1  0
 17 18  2  0
 20 19  1  1
 20 22  1  0
 21 20  1  0
 22 24  1  0
 22 23  1  6
 23 17  1  0
 24 26  1  0
 25 24  2  0
M  END
$$$$
