QKV.pdb
     RDKit          3D

 26 25  0  0  1  0  0  0  0  0999 V2000
   18.5196  -15.0627  -17.3537 N   0  0  0  0  0  0  0  0  0  0  0  0
   19.9335  -15.3216  -17.2166 C   0  0  0  0  0  0  0  0  0  0  0  0
   20.6400  -15.2884  -18.2533 O   0  0  0  0  0  0  0  0  0  0  0  0
   20.5330  -15.6210  -15.9055 C   0  0  0  0  0  0  0  0  0  0  0  0
   20.5951  -17.0580  -15.5746 C   0  0  0  0  0  0  0  0  0  0  0  0
   21.2873  -17.9367  -16.5750 C   0  0  2  0  0  0  0  0  0  0  0  0
   20.3703  -18.5225  -17.4707 N   0  0  0  0  0  0  0  0  0  0  0  0
   22.1467  -18.9210  -15.8296 C   0  0  0  0  0  0  0  0  0  0  0  0
   21.6108  -19.6469  -14.9234 O   0  0  0  0  0  0  0  0  0  0  0  0
   23.5077  -19.1145  -16.0456 N   0  0  0  0  0  0  0  0  0  0  0  0
   24.3096  -20.1535  -15.4490 C   0  0  1  0  0  0  0  0  0  0  0  0
   25.4708  -20.5485  -16.3633 C   0  0  0  0  0  0  0  0  0  0  0  0
   26.2567  -21.6875  -15.7871 C   0  0  0  0  0  0  0  0  0  0  0  0
   27.4026  -21.9937  -16.7252 C   0  0  0  0  0  0  0  0  0  0  0  0
   28.2231  -23.1674  -16.2948 C   0  0  0  0  0  0  0  0  0  0  0  0
   29.3499  -23.2709  -17.2050 N   0  0  0  0  0  0  0  0  0  0  0  0
   24.8618  -19.8281  -14.1450 C   0  0  0  0  0  0  0  0  0  0  0  0
   25.5009  -18.7712  -13.9696 O   0  0  0  0  0  0  0  0  0  0  0  0
   23.9025  -22.2778  -10.8677 C   0  0  0  0  0  0  0  0  0  0  0  0
   24.2367  -20.7975  -10.7093 C   0  0  2  0  0  0  0  0  0  0  0  0
   22.9761  -20.0045  -10.9204 C   0  0  0  0  0  0  0  0  0  0  0  0
   25.2970  -20.4770  -11.7475 C   0  0  2  0  0  0  0  0  0  0  0  0
   24.6889  -20.6982  -13.0463 N   0  0  0  0  0  0  0  0  0  0  0  0
   26.4966  -21.3308  -11.5614 C   0  0  0  0  0  0  0  0  0  0  0  0
   27.3091  -21.0561  -10.6455 O   0  0  0  0  0  0  0  0  0  0  0  0
   26.7488  -22.4200  -12.3648 O   0  0  0  0  0  0  0  0  0  0  0  0
  2  1  1  0
  3  2  2  0
  4  2  1  0
  5  4  1  0
  6  5  1  0
  6  8  1  0
  6  7  1  1
  8  9  2  0
 10  8  1  0
 10 11  1  0
 11 12  1  6
 12 13  1  0
 13 14  1  0
 15 14  1  0
 16 15  1  0
 17 11  1  0
 17 18  2  0
 20 19  1  6
 20 22  1  0
 21 20  1  0
 22 24  1  0
 22 23  1  6
 23 17  1  0
 24 26  1  0
 25 24  2  0
M  END
$$$$
