QKV.pdb
     RDKit          3D

 26 25  0  0  1  0  0  0  0  0999 V2000
   18.2877  -12.2518  -16.0800 N   0  0  0  0  0  0  0  0  0  0  0  0
   17.8995  -13.2652  -15.1275 C   0  0  0  0  0  0  0  0  0  0  0  0
   18.1334  -14.4638  -15.4168 O   0  0  0  0  0  0  0  0  0  0  0  0
   17.2447  -12.9106  -13.8572 C   0  0  0  0  0  0  0  0  0  0  0  0
   17.1137  -11.4598  -13.6202 C   0  0  0  0  0  0  0  0  0  0  0  0
   15.8857  -11.0201  -12.8781 C   0  0  2  0  0  0  0  0  0  0  0  0
   14.7131  -11.2948  -13.6102 N   0  0  0  0  0  0  0  0  0  0  0  0
   16.0552   -9.5764  -12.4907 C   0  0  0  0  0  0  0  0  0  0  0  0
   16.0359   -8.6844  -13.4069 O   0  0  0  0  0  0  0  0  0  0  0  0
   16.2361   -9.1161  -11.1900 N   0  0  0  0  0  0  0  0  0  0  0  0
   16.4450   -7.7410  -10.8110 C   0  0  1  0  0  0  0  0  0  0  0  0
   16.0091   -7.4940   -9.3656 C   0  0  0  0  0  0  0  0  0  0  0  0
   16.2485   -6.0715   -8.9583 C   0  0  0  0  0  0  0  0  0  0  0  0
   14.9085   -5.4261   -8.6846 C   0  0  0  0  0  0  0  0  0  0  0  0
   15.0176   -4.0102   -8.2164 C   0  0  0  0  0  0  0  0  0  0  0  0
   13.6707   -3.5246   -7.9735 N   0  0  0  0  0  0  0  0  0  0  0  0
   17.8122   -7.2687  -10.9496 C   0  0  0  0  0  0  0  0  0  0  0  0
   18.6744   -7.5539  -10.0942 O   0  0  0  0  0  0  0  0  0  0  0  0
   21.5849   -6.3446  -13.5606 C   0  0  0  0  0  0  0  0  0  0  0  0
   20.1638   -6.8565  -13.3446 C   0  0  2  0  0  0  0  0  0  0  0  0
   19.4194   -6.7443  -14.6469 C   0  0  0  0  0  0  0  0  0  0  0  0
   19.5507   -5.9931  -12.2568 C   0  0  2  0  0  0  0  0  0  0  0  0
   18.1979   -6.4770  -12.0535 N   0  0  0  0  0  0  0  0  0  0  0  0
   19.5580   -4.5616  -12.6487 C   0  0  0  0  0  0  0  0  0  0  0  0
   18.5088   -4.0443  -13.1025 O   0  0  0  0  0  0  0  0  0  0  0  0
   20.6841   -3.7785  -12.5301 O   0  0  0  0  0  0  0  0  0  0  0  0
  2  1  1  0
  3  2  2  0
  4  2  1  0
  5  4  1  0
  6  5  1  0
  6  8  1  0
  6  7  1  6
  8  9  2  0
 10  8  1  0
 10 11  1  0
 11 12  1  1
 12 13  1  0
 13 14  1  0
 15 14  1  0
 16 15  1  0
 17 11  1  0
 17 18  2  0
 20 19  1  6
 20 22  1  0
 21 20  1  0
 22 24  1  0
 22 23  1  6
 23 17  1  0
 24 26  1  0
 25 24  2  0
M  END
$$$$
