PEA.pdb
     RDKit          3D

 22 22  0  0  1  0  0  0  0  0999 V2000
    9.0630  -14.5985   19.5810 N   0  0  0  0  0  0  0  0  0  0  0  0
    9.0938  -14.1992   18.2050 C   0  0  0  0  0  0  0  0  0  0  0  0
    7.8476  -13.4041   17.9086 C   0  0  0  0  0  0  0  0  0  0  0  0
    7.0500  -13.5615   19.2102 C   0  0  0  0  0  0  0  0  0  0  0  0
    8.1961  -13.6453   20.2024 C   0  0  1  0  0  0  0  0  0  0  0  0
    7.7539  -14.0496   21.5508 C   0  0  0  0  0  0  0  0  0  0  0  0
    6.8743  -13.3579   22.1584 O   0  0  0  0  0  0  0  0  0  0  0  0
    8.3316  -15.2151   22.1389 N   0  0  0  0  0  0  0  0  0  0  0  0
    7.8997  -15.6397   23.4308 C   0  0  1  0  0  0  0  0  0  0  0  0
    8.2976  -17.0127   23.8225 C   0  0  0  0  0  0  0  0  0  0  0  0
    9.7044  -17.1956   24.2208 C   0  0  0  0  0  0  0  0  0  0  0  0
   10.1883  -18.4942   24.6199 C   0  0  0  0  0  0  0  0  0  0  0  0
    9.5142  -19.4720   24.9648 O   0  0  0  0  0  0  0  0  0  0  0  0
    8.3302  -14.6185   24.4383 C   0  0  0  0  0  0  0  0  0  0  0  0
    9.5342  -14.2750   24.4768 O   0  0  0  0  0  0  0  0  0  0  0  0
   11.5892  -18.6887   24.6231 O   0  0  0  0  0  0  0  0  0  0  0  0
    6.5891  -12.2651   26.7015 C   0  0  0  0  0  0  0  0  0  0  0  0
    7.7830  -13.1021   26.2954 C   0  0  2  0  0  0  0  0  0  0  0  0
    7.3547  -14.0811   25.3083 N   0  0  0  0  0  0  0  0  0  0  0  0
    8.2761  -13.8372   27.4958 C   0  0  0  0  0  0  0  0  0  0  0  0
    8.0956  -15.0774   27.6383 O   0  0  0  0  0  0  0  0  0  0  0  0
    8.9502  -13.1392   28.4802 O   0  0  0  0  0  0  0  0  0  0  0  0
  1  5  1  0
  2  1  1  0
  3  4  1  0
  3  2  1  0
  4  5  1  0
  5  6  1  1
  6  7  2  0
  8  9  1  0
  8  6  1  0
  9 14  1  0
  9 10  1  1
 11 10  1  0
 11 12  1  0
 12 13  2  0
 12 16  1  0
 14 15  2  0
 14 19  1  0
 18 17  1  1
 18 20  1  0
 19 18  1  0
 20 22  1  0
 21 20  2  0
M  END
$$$$
