PEA.pdb
     RDKit          3D

 22 22  0  0  1  0  0  0  0  0999 V2000
    7.5666  -14.9673   19.8908 N   0  0  0  0  0  0  0  0  0  0  0  0
    7.4630  -13.9603   18.8766 C   0  0  0  0  0  0  0  0  0  0  0  0
    7.8348  -12.6304   19.4818 C   0  0  0  0  0  0  0  0  0  0  0  0
    7.9780  -12.9837   20.9684 C   0  0  0  0  0  0  0  0  0  0  0  0
    8.4777  -14.4118   20.8435 C   0  0  1  0  0  0  0  0  0  0  0  0
    8.4834  -15.1283   22.1334 C   0  0  0  0  0  0  0  0  0  0  0  0
    7.3837  -15.3475   22.7364 O   0  0  0  0  0  0  0  0  0  0  0  0
    9.7341  -15.5581   22.6711 N   0  0  0  0  0  0  0  0  0  0  0  0
    9.7626  -16.2598   23.9132 C   0  0  1  0  0  0  0  0  0  0  0  0
   10.5547  -17.5126   23.9256 C   0  0  0  0  0  0  0  0  0  0  0  0
   10.6060  -18.2394   25.2064 C   0  0  0  0  0  0  0  0  0  0  0  0
   11.3798  -19.4500   25.3294 C   0  0  0  0  0  0  0  0  0  0  0  0
   11.4620  -20.1902   26.3168 O   0  0  0  0  0  0  0  0  0  0  0  0
   10.1920  -15.3102   24.9889 C   0  0  0  0  0  0  0  0  0  0  0  0
   11.2583  -14.6696   24.8418 O   0  0  0  0  0  0  0  0  0  0  0  0
   12.1361  -19.8507   24.2034 O   0  0  0  0  0  0  0  0  0  0  0  0
    8.6905  -13.3663   27.5774 C   0  0  0  0  0  0  0  0  0  0  0  0
    9.8236  -14.2956   27.1986 C   0  0  2  0  0  0  0  0  0  0  0  0
    9.3714  -15.1749   26.1315 N   0  0  0  0  0  0  0  0  0  0  0  0
   10.1616  -15.1371   28.3826 C   0  0  0  0  0  0  0  0  0  0  0  0
   10.5802  -14.6333   29.4605 O   0  0  0  0  0  0  0  0  0  0  0  0
   10.0119  -16.5085   28.2960 O   0  0  0  0  0  0  0  0  0  0  0  0
  1  5  1  0
  2  1  1  0
  3  4  1  0
  3  2  1  0
  4  5  1  0
  5  6  1  1
  6  7  2  0
  8  9  1  0
  8  6  1  0
  9 14  1  0
  9 10  1  6
 11 10  1  0
 11 12  1  0
 12 13  2  0
 12 16  1  0
 14 15  2  0
 14 19  1  0
 18 17  1  1
 18 20  1  0
 19 18  1  0
 20 22  1  0
 21 20  2  0
M  END
$$$$
