PEA.pdb
     RDKit          3D

 22 22  0  0  1  0  0  0  0  0999 V2000
    9.2530  -14.6477   19.9720 N   0  0  0  0  0  0  0  0  0  0  0  0
    9.0044  -14.0571   18.6902 C   0  0  0  0  0  0  0  0  0  0  0  0
    7.7823  -13.1805   18.7951 C   0  0  0  0  0  0  0  0  0  0  0  0
    7.2855  -13.4917   20.2134 C   0  0  0  0  0  0  0  0  0  0  0  0
    8.6151  -13.7606   20.8953 C   0  0  1  0  0  0  0  0  0  0  0  0
    8.4572  -14.3364   22.2447 C   0  0  0  0  0  0  0  0  0  0  0  0
    7.7434  -13.7306   23.1078 O   0  0  0  0  0  0  0  0  0  0  0  0
    9.1160  -15.5669   22.5443 N   0  0  0  0  0  0  0  0  0  0  0  0
    8.9340  -16.1694   23.8249 C   0  0  1  0  0  0  0  0  0  0  0  0
    9.2700  -17.6104   23.9109 C   0  0  0  0  0  0  0  0  0  0  0  0
   10.7043  -17.9440   23.9635 C   0  0  0  0  0  0  0  0  0  0  0  0
   11.1316  -19.3145   24.1001 C   0  0  0  0  0  0  0  0  0  0  0  0
   11.5204  -19.8796   25.1292 O   0  0  0  0  0  0  0  0  0  0  0  0
    9.6708  -15.3565   24.8446 C   0  0  0  0  0  0  0  0  0  0  0  0
   10.8240  -14.9479   24.5759 O   0  0  0  0  0  0  0  0  0  0  0  0
   11.1097  -20.1172   22.9357 O   0  0  0  0  0  0  0  0  0  0  0  0
    8.8360  -13.2492   27.6323 C   0  0  0  0  0  0  0  0  0  0  0  0
    9.7590  -14.3071   27.0669 C   0  0  2  0  0  0  0  0  0  0  0  0
    9.0307  -15.0822   26.0743 N   0  0  0  0  0  0  0  0  0  0  0  0
   10.1593  -15.2257   28.1717 C   0  0  0  0  0  0  0  0  0  0  0  0
    9.7896  -16.4311   28.2030 O   0  0  0  0  0  0  0  0  0  0  0  0
   10.9583  -14.7417   29.1905 O   0  0  0  0  0  0  0  0  0  0  0  0
  1  5  1  0
  2  1  1  0
  3  4  1  0
  3  2  1  0
  4  5  1  0
  5  6  1  1
  6  7  2  0
  8  9  1  0
  8  6  1  0
  9 14  1  0
  9 10  1  6
 11 10  1  0
 11 12  1  0
 12 13  2  0
 12 16  1  0
 14 15  2  0
 14 19  1  0
 18 17  1  1
 18 20  1  0
 19 18  1  0
 20 22  1  0
 21 20  2  0
M  END
$$$$
