PEA.pdb
     RDKit          3D

 22 22  0  0  1  0  0  0  0  0999 V2000
    8.3355  -15.1463   20.2916 N   0  0  0  0  0  0  0  0  0  0  0  0
    8.2957  -14.6699   18.9406 C   0  0  0  0  0  0  0  0  0  0  0  0
    7.9029  -13.2144   18.9569 C   0  0  0  0  0  0  0  0  0  0  0  0
    7.5588  -12.9920   20.4359 C   0  0  0  0  0  0  0  0  0  0  0  0
    8.5346  -13.9649   21.0733 C   0  0  1  0  0  0  0  0  0  0  0  0
    8.2798  -14.1667   22.5126 C   0  0  0  0  0  0  0  0  0  0  0  0
    8.3358  -13.1731   23.3069 O   0  0  0  0  0  0  0  0  0  0  0  0
    7.9753  -15.4825   22.9750 N   0  0  0  0  0  0  0  0  0  0  0  0
    7.5749  -15.6773   24.3306 C   0  0  1  0  0  0  0  0  0  0  0  0
    6.9320  -16.9787   24.6303 C   0  0  0  0  0  0  0  0  0  0  0  0
    7.8079  -18.1630   24.5937 C   0  0  0  0  0  0  0  0  0  0  0  0
    7.3041  -19.4572   24.9819 C   0  0  0  0  0  0  0  0  0  0  0  0
    7.9449  -20.5094   25.0906 O   0  0  0  0  0  0  0  0  0  0  0  0
    8.7508  -15.4111   25.2193 C   0  0  0  0  0  0  0  0  0  0  0  0
    9.8957  -15.7253   24.8201 O   0  0  0  0  0  0  0  0  0  0  0  0
    5.9237  -19.5519   25.2748 O   0  0  0  0  0  0  0  0  0  0  0  0
    9.3494  -13.3620   28.2193 C   0  0  0  0  0  0  0  0  0  0  0  0
    9.6666  -14.5459   27.3313 C   0  0  2  0  0  0  0  0  0  0  0  0
    8.5187  -14.8126   26.4783 N   0  0  0  0  0  0  0  0  0  0  0  0
    9.8903  -15.7401   28.1965 C   0  0  0  0  0  0  0  0  0  0  0  0
    9.0834  -16.7093   28.2161 O   0  0  0  0  0  0  0  0  0  0  0  0
   11.0142  -15.7857   28.9998 O   0  0  0  0  0  0  0  0  0  0  0  0
  1  5  1  0
  2  1  1  0
  3  4  1  0
  3  2  1  0
  4  5  1  0
  5  6  1  1
  6  7  2  0
  8  9  1  0
  8  6  1  0
  9 14  1  0
  9 10  1  6
 11 10  1  0
 11 12  1  0
 12 13  2  0
 12 16  1  0
 14 15  2  0
 14 19  1  0
 18 17  1  1
 18 20  1  0
 19 18  1  0
 20 22  1  0
 21 20  2  0
M  END
$$$$
