PEA.pdb
     RDKit          3D

 22 22  0  0  1  0  0  0  0  0999 V2000
    9.1421  -14.6592   19.9572 N   0  0  0  0  0  0  0  0  0  0  0  0
    8.9464  -13.9901   18.7051 C   0  0  0  0  0  0  0  0  0  0  0  0
    7.8571  -12.9619   18.8763 C   0  0  0  0  0  0  0  0  0  0  0  0
    7.3557  -13.2595   20.2958 C   0  0  0  0  0  0  0  0  0  0  0  0
    8.6519  -13.7318   20.9297 C   0  0  1  0  0  0  0  0  0  0  0  0
    8.4486  -14.3341   22.2613 C   0  0  0  0  0  0  0  0  0  0  0  0
    7.7502  -13.7190   23.1303 O   0  0  0  0  0  0  0  0  0  0  0  0
    9.0471  -15.6005   22.5372 N   0  0  0  0  0  0  0  0  0  0  0  0
    8.8863  -16.1890   23.8271 C   0  0  1  0  0  0  0  0  0  0  0  0
    9.2051  -17.6337   23.9187 C   0  0  0  0  0  0  0  0  0  0  0  0
    8.8421  -18.4571   22.7520 C   0  0  0  0  0  0  0  0  0  0  0  0
    9.6790  -19.5593   22.3463 C   0  0  0  0  0  0  0  0  0  0  0  0
   10.2082  -19.7321   21.2420 O   0  0  0  0  0  0  0  0  0  0  0  0
    9.6569  -15.3771   24.8223 C   0  0  0  0  0  0  0  0  0  0  0  0
   10.8018  -14.9711   24.5169 O   0  0  0  0  0  0  0  0  0  0  0  0
    9.9334  -20.5652   23.3075 O   0  0  0  0  0  0  0  0  0  0  0  0
    8.9172  -13.2313   27.5919 C   0  0  0  0  0  0  0  0  0  0  0  0
    9.8133  -14.3170   27.0358 C   0  0  2  0  0  0  0  0  0  0  0  0
    9.0566  -15.1006   26.0715 N   0  0  0  0  0  0  0  0  0  0  0  0
   10.2152  -15.2182   28.1542 C   0  0  0  0  0  0  0  0  0  0  0  0
    9.8535  -16.4256   28.1998 O   0  0  0  0  0  0  0  0  0  0  0  0
   11.0067  -14.7155   29.1697 O   0  0  0  0  0  0  0  0  0  0  0  0
  1  5  1  0
  2  1  1  0
  3  4  1  0
  3  2  1  0
  4  5  1  0
  5  6  1  1
  6  7  2  0
  8  9  1  0
  8  6  1  0
  9 14  1  0
  9 10  1  6
 11 10  1  0
 11 12  1  0
 12 13  2  0
 12 16  1  0
 14 15  2  0
 14 19  1  0
 18 17  1  1
 18 20  1  0
 19 18  1  0
 20 22  1  0
 21 20  2  0
M  END
$$$$
