ERF.pdb
     RDKit          3D

 32 32  0  0  1  0  0  0  0  0999 V2000
    5.5561  -15.5400   19.5874 N   0  0  0  0  0  0  0  0  0  0  0  0
    6.7802  -16.0876   20.0907 C   0  0  1  0  0  0  0  0  0  0  0  0
    7.9971  -15.3413   19.6165 C   0  0  0  0  0  0  0  0  0  0  0  0
    7.8101  -13.8663   19.7238 C   0  0  0  0  0  0  0  0  0  0  0  0
    9.0170  -13.1242   19.3653 C   0  0  0  0  0  0  0  0  0  0  0  0
   10.0993  -13.6497   19.0255 O   0  0  0  0  0  0  0  0  0  0  0  0
    6.7129  -16.1556   21.5695 C   0  0  0  0  0  0  0  0  0  0  0  0
    6.0703  -15.2910   22.1964 O   0  0  0  0  0  0  0  0  0  0  0  0
    8.9733  -11.7188   19.4004 O   0  0  0  0  0  0  0  0  0  0  0  0
    7.0801  -23.5509   26.4106 N   0  0  0  0  0  0  0  0  0  0  0  0
    6.5912  -22.5437   27.2771 C   0  0  0  0  0  0  0  0  0  0  0  0
    6.1116  -22.8586   28.4435 N   0  0  0  0  0  0  0  0  0  0  0  0
    6.6130  -21.1636   26.8891 N   0  0  0  0  0  0  0  0  0  0  0  0
    7.0108  -20.7854   25.5464 C   0  0  0  0  0  0  0  0  0  0  0  0
    6.9130  -19.3083   25.3228 C   0  0  0  0  0  0  0  0  0  0  0  0
    7.2193  -18.9257   23.8963 C   0  0  0  0  0  0  0  0  0  0  0  0
    7.1308  -17.4414   23.6546 C   0  0  2  0  0  0  0  0  0  0  0  0
    7.3787  -17.1990   22.2406 N   0  0  0  0  0  0  0  0  0  0  0  0
    8.1981  -16.7795   24.4703 C   0  0  0  0  0  0  0  0  0  0  0  0
    9.3858  -16.6738   24.0471 O   0  0  0  0  0  0  0  0  0  0  0  0
    5.8204  -22.0967   29.0946 N   0  0  0  0  0  0  0  0  0  0  0  0
    7.8867  -16.2611   25.7342 C   0  0  2  0  0  0  0  0  0  0  0  0
    8.8909  -15.5651   26.5530 C   0  0  0  0  0  0  0  0  0  0  0  0
    8.1211  -14.7636   27.5584 C   0  0  0  0  0  0  0  0  0  0  0  0
    7.4028  -13.6302   26.9384 C   0  0  0  0  0  0  0  0  0  0  0  0
    6.0196  -13.6004   26.9450 C   0  0  0  0  0  0  0  0  0  0  0  0
    5.3623  -12.5515   26.3767 C   0  0  0  0  0  0  0  0  0  0  0  0
    6.0753  -11.5168   25.7935 C   0  0  0  0  0  0  0  0  0  0  0  0
    7.4567  -11.5296   25.7779 C   0  0  0  0  0  0  0  0  0  0  0  0
    8.1025  -12.6077   26.3624 C   0  0  0  0  0  0  0  0  0  0  0  0
    9.7697  -16.5829   27.1370 O   0  0  0  0  0  0  0  0  0  0  0  0
    9.5370  -17.8214   27.0341 O   0  0  0  0  0  0  0  0  0  0  0  0
  2  1  1  1
  2  3  1  0
  3  4  1  0
  5  4  1  0
  6  5  2  0
  7  2  1  0
  8  7  2  0
  9  5  1  0
 10 11  1  0
 11 13  1  0
 11 12  2  0
 13 14  1  0
 14 15  1  0
 15 16  1  0
 17 16  1  6
 17 18  1  0
 18  7  1  0
 19 21  1  0
 19 17  1  0
 20 19  2  0
 22 30  1  0
 22 21  1  0
 22 23  1  6
 24 23  1  0
 24 25  2  0
 26 25  1  0
 27 26  2  0
 28 29  2  0
 28 27  1  0
 29 24  1  0
 30 32  1  0
 31 30  2  0
M  END
$$$$
