ERF.pdb
     RDKit          3D

 32 32  0  0  1  0  0  0  0  0999 V2000
    9.7318  -14.3365   19.4710 N   0  0  0  0  0  0  0  0  0  0  0  0
    8.5188  -13.7924   20.0039 C   0  0  1  0  0  0  0  0  0  0  0  0
    7.4497  -13.6072   18.9620 C   0  0  0  0  0  0  0  0  0  0  0  0
    7.9919  -12.9660   17.7303 C   0  0  0  0  0  0  0  0  0  0  0  0
    8.5280  -13.9422   16.7840 C   0  0  0  0  0  0  0  0  0  0  0  0
    9.7212  -14.3133   16.7460 O   0  0  0  0  0  0  0  0  0  0  0  0
    8.0562  -14.6398   21.1282 C   0  0  0  0  0  0  0  0  0  0  0  0
    6.9509  -14.4108   21.6568 O   0  0  0  0  0  0  0  0  0  0  0  0
    7.6518  -14.5131   15.8434 O   0  0  0  0  0  0  0  0  0  0  0  0
    7.5975  -20.6657   19.4478 N   0  0  0  0  0  0  0  0  0  0  0  0
    8.2409  -19.8836   18.4586 C   0  0  0  0  0  0  0  0  0  0  0  0
    7.7668  -19.8367   17.2492 N   0  0  0  0  0  0  0  0  0  0  0  0
    9.4224  -19.1320   18.7667 N   0  0  0  0  0  0  0  0  0  0  0  0
    9.7500  -18.8121   20.1431 C   0  0  0  0  0  0  0  0  0  0  0  0
    8.5437  -18.4067   20.9317 C   0  0  0  0  0  0  0  0  0  0  0  0
    8.8978  -17.9678   22.3307 C   0  0  0  0  0  0  0  0  0  0  0  0
    8.4242  -16.5729   22.6459 C   0  0  2  0  0  0  0  0  0  0  0  0
    8.8769  -15.6910   21.5796 N   0  0  0  0  0  0  0  0  0  0  0  0
    9.0525  -16.1566   23.9399 C   0  0  0  0  0  0  0  0  0  0  0  0
   10.2823  -15.8695   24.0174 O   0  0  0  0  0  0  0  0  0  0  0  0
    8.2725  -19.2775   16.5276 N   0  0  0  0  0  0  0  0  0  0  0  0
    8.2704  -16.0795   25.1000 C   0  0  1  0  0  0  0  0  0  0  0  0
    8.8390  -15.6571   26.3889 C   0  0  0  0  0  0  0  0  0  0  0  0
    7.7203  -14.9993   27.1385 C   0  0  0  0  0  0  0  0  0  0  0  0
    7.4082  -13.6544   26.6105 C   0  0  0  0  0  0  0  0  0  0  0  0
    6.1174  -13.1623   26.6891 C   0  0  0  0  0  0  0  0  0  0  0  0
    5.8357  -11.9206   26.2055 C   0  0  0  0  0  0  0  0  0  0  0  0
    6.8376  -11.1513   25.6366 C   0  0  0  0  0  0  0  0  0  0  0  0
    8.1320  -11.6263   25.5499 C   0  0  0  0  0  0  0  0  0  0  0  0
    8.3936  -12.8926   26.0488 C   0  0  0  0  0  0  0  0  0  0  0  0
    9.3865  -16.8487   27.0441 O   0  0  0  0  0  0  0  0  0  0  0  0
    9.1410  -18.0206   26.6378 O   0  0  0  0  0  0  0  0  0  0  0  0
  2  1  1  6
  2  3  1  0
  3  4  1  0
  5  4  1  0
  6  5  2  0
  7  2  1  0
  8  7  2  0
  9  5  1  0
 10 11  1  0
 11 13  1  0
 11 12  2  0
 13 14  1  0
 14 15  1  0
 15 16  1  0
 17 16  1  6
 17 18  1  0
 18  7  1  0
 19 21  1  0
 19 17  1  0
 20 19  2  0
 22 30  1  0
 22 21  1  0
 22 23  1  1
 24 23  1  0
 24 25  2  0
 26 25  1  0
 27 26  2  0
 28 29  2  0
 28 27  1  0
 29 24  1  0
 30 32  1  0
 31 30  2  0
M  END
$$$$
