ERF.pdb
     RDKit          3D

 32 32  0  0  1  0  0  0  0  0999 V2000
    5.7874  -17.4195   20.5624 N   0  0  0  0  0  0  0  0  0  0  0  0
    7.0177  -17.4895   21.2926 C   0  0  1  0  0  0  0  0  0  0  0  0
    8.1007  -16.6272   20.7042 C   0  0  0  0  0  0  0  0  0  0  0  0
    7.5469  -15.6393   19.7349 C   0  0  0  0  0  0  0  0  0  0  0  0
    8.5857  -14.8032   19.1369 C   0  0  0  0  0  0  0  0  0  0  0  0
    9.8058  -14.8937   19.3938 O   0  0  0  0  0  0  0  0  0  0  0  0
    6.7603  -17.1626   22.7149 C   0  0  0  0  0  0  0  0  0  0  0  0
    5.8634  -16.3475   23.0062 O   0  0  0  0  0  0  0  0  0  0  0  0
    8.2009  -13.8227   18.2047 O   0  0  0  0  0  0  0  0  0  0  0  0
    5.2516  -22.7767   24.1026 N   0  0  0  0  0  0  0  0  0  0  0  0
    6.6506  -22.9393   23.9594 C   0  0  0  0  0  0  0  0  0  0  0  0
    7.1356  -23.5671   22.9296 N   0  0  0  0  0  0  0  0  0  0  0  0
    7.5572  -22.4198   24.9411 N   0  0  0  0  0  0  0  0  0  0  0  0
    7.1915  -21.2646   25.7386 C   0  0  0  0  0  0  0  0  0  0  0  0
    7.3553  -19.9820   24.9840 C   0  0  0  0  0  0  0  0  0  0  0  0
    7.1346  -18.7731   25.8588 C   0  0  0  0  0  0  0  0  0  0  0  0
    7.3099  -17.4729   25.1185 C   0  0  2  0  0  0  0  0  0  0  0  0
    7.5367  -17.7806   23.7137 N   0  0  0  0  0  0  0  0  0  0  0  0
    8.5150  -16.7840   25.6805 C   0  0  0  0  0  0  0  0  0  0  0  0
    9.6748  -16.9990   25.2230 O   0  0  0  0  0  0  0  0  0  0  0  0
    8.1700  -23.5968   22.7947 N   0  0  0  0  0  0  0  0  0  0  0  0
    8.3678  -15.8776   26.7389 C   0  0  1  0  0  0  0  0  0  0  0  0
    9.5067  -15.1072   27.2607 C   0  0  0  0  0  0  0  0  0  0  0  0
    8.9156  -13.9498   28.0071 C   0  0  0  0  0  0  0  0  0  0  0  0
    7.8926  -13.2365   27.2136 C   0  0  0  0  0  0  0  0  0  0  0  0
    8.1790  -12.8260   25.9237 C   0  0  0  0  0  0  0  0  0  0  0  0
    7.2314  -12.1733   25.1949 C   0  0  0  0  0  0  0  0  0  0  0  0
    5.9841  -11.9206   25.7421 C   0  0  0  0  0  0  0  0  0  0  0  0
    5.6804  -12.3232   27.0282 C   0  0  0  0  0  0  0  0  0  0  0  0
    6.6612  -12.9854   27.7498 C   0  0  0  0  0  0  0  0  0  0  0  0
   10.3121  -16.0110   28.0875 O   0  0  0  0  0  0  0  0  0  0  0  0
   11.3790  -15.6418   28.6565 O   0  0  0  0  0  0  0  0  0  0  0  0
  2  1  1  6
  2  3  1  0
  3  4  1  0
  5  4  1  0
  6  5  2  0
  7  2  1  0
  8  7  2  0
  9  5  1  0
 10 11  1  0
 11 13  1  0
 11 12  2  0
 13 14  1  0
 14 15  1  0
 15 16  1  0
 17 16  1  1
 17 18  1  0
 18  7  1  0
 19 21  1  0
 19 17  1  0
 20 19  2  0
 22 30  1  0
 22 21  1  0
 22 23  1  6
 24 23  1  0
 24 25  2  0
 26 25  1  0
 27 26  2  0
 28 29  2  0
 28 27  1  0
 29 24  1  0
 30 32  1  0
 31 30  2  0
M  END
$$$$
