ERF.pdb
     RDKit          3D

 32 32  0  0  1  0  0  0  0  0999 V2000
    9.5855  -14.5337   18.6260 N   0  0  0  0  0  0  0  0  0  0  0  0
   10.3636  -15.1813   19.6393 C   0  0  1  0  0  0  0  0  0  0  0  0
   11.5493  -14.3674   20.0803 C   0  0  0  0  0  0  0  0  0  0  0  0
   12.8170  -14.8839   19.4901 C   0  0  0  0  0  0  0  0  0  0  0  0
   13.9756  -14.0759   19.8647 C   0  0  0  0  0  0  0  0  0  0  0  0
   14.6645  -14.2555   20.8923 O   0  0  0  0  0  0  0  0  0  0  0  0
    9.4833  -15.5395   20.7764 C   0  0  0  0  0  0  0  0  0  0  0  0
    8.4221  -14.9104   20.9547 O   0  0  0  0  0  0  0  0  0  0  0  0
   14.3546  -13.0175   19.0193 O   0  0  0  0  0  0  0  0  0  0  0  0
   11.2753  -23.0715   21.7274 N   0  0  0  0  0  0  0  0  0  0  0  0
   10.0041  -22.5331   21.4136 C   0  0  0  0  0  0  0  0  0  0  0  0
    8.9987  -23.3218   21.1756 N   0  0  0  0  0  0  0  0  0  0  0  0
    9.7995  -21.1154   21.3507 N   0  0  0  0  0  0  0  0  0  0  0  0
    8.4736  -20.5753   21.1170 C   0  0  0  0  0  0  0  0  0  0  0  0
    8.4476  -19.0813   21.2089 C   0  0  0  0  0  0  0  0  0  0  0  0
    8.9085  -18.5845   22.5564 C   0  0  0  0  0  0  0  0  0  0  0  0
    8.9405  -17.0812   22.6484 C   0  0  2  0  0  0  0  0  0  0  0  0
    9.8637  -16.5869   21.6369 N   0  0  0  0  0  0  0  0  0  0  0  0
    9.4472  -16.7155   24.0093 C   0  0  0  0  0  0  0  0  0  0  0  0
   10.6856  -16.6418   24.2578 O   0  0  0  0  0  0  0  0  0  0  0  0
    8.0798  -22.9055   20.9083 N   0  0  0  0  0  0  0  0  0  0  0  0
    8.5380  -16.4466   25.0410 C   0  0  2  0  0  0  0  0  0  0  0  0
    8.9881  -16.1274   26.4043 C   0  0  0  0  0  0  0  0  0  0  0  0
    7.8305  -15.4512   27.0741 C   0  0  0  0  0  0  0  0  0  0  0  0
    7.6043  -14.0855   26.5558 C   0  0  0  0  0  0  0  0  0  0  0  0
    8.5665  -13.1080   26.7376 C   0  0  0  0  0  0  0  0  0  0  0  0
    8.3555  -11.8523   26.2539 C   0  0  0  0  0  0  0  0  0  0  0  0
    7.1816  -11.5533   25.5817 C   0  0  0  0  0  0  0  0  0  0  0  0
    6.2101  -12.5168   25.3908 C   0  0  0  0  0  0  0  0  0  0  0  0
    6.4479  -13.7868   25.8922 C   0  0  0  0  0  0  0  0  0  0  0  0
    9.4047  -17.3815   27.0389 O   0  0  0  0  0  0  0  0  0  0  0  0
   10.0555  -17.4112   28.1224 O   0  0  0  0  0  0  0  0  0  0  0  0
  2  1  1  6
  2  3  1  0
  3  4  1  0
  5  4  1  0
  6  5  2  0
  7  2  1  0
  8  7  2  0
  9  5  1  0
 10 11  1  0
 11 13  1  0
 11 12  2  0
 13 14  1  0
 14 15  1  0
 15 16  1  0
 17 16  1  1
 17 18  1  0
 18  7  1  0
 19 21  1  0
 19 17  1  0
 20 19  2  0
 22 30  1  0
 22 21  1  0
 22 23  1  6
 24 23  1  0
 24 25  2  0
 26 25  1  0
 27 26  2  0
 28 29  2  0
 28 27  1  0
 29 24  1  0
 30 32  1  0
 31 30  2  0
M  END
$$$$
