ERF.pdb
     RDKit          3D

 32 32  0  0  1  0  0  0  0  0999 V2000
    9.4904  -13.8796   19.7564 N   0  0  0  0  0  0  0  0  0  0  0  0
    8.2016  -13.7060   20.3567 C   0  0  1  0  0  0  0  0  0  0  0  0
    7.0766  -13.7582   19.3595 C   0  0  0  0  0  0  0  0  0  0  0  0
    7.4769  -13.1648   18.0519 C   0  0  0  0  0  0  0  0  0  0  0  0
    8.0324  -14.1589   17.1359 C   0  0  0  0  0  0  0  0  0  0  0  0
    7.6832  -15.3585   17.0928 O   0  0  0  0  0  0  0  0  0  0  0  0
    8.0292  -14.7028   21.4396 C   0  0  0  0  0  0  0  0  0  0  0  0
    6.9298  -14.7974   22.0193 O   0  0  0  0  0  0  0  0  0  0  0  0
    9.0313  -13.7521   16.2330 O   0  0  0  0  0  0  0  0  0  0  0  0
    8.4778  -20.5950   19.6842 N   0  0  0  0  0  0  0  0  0  0  0  0
    9.5286  -20.2243   18.8108 C   0  0  0  0  0  0  0  0  0  0  0  0
    9.4325  -20.4541   17.5351 N   0  0  0  0  0  0  0  0  0  0  0  0
   10.7145  -19.5928   19.3112 N   0  0  0  0  0  0  0  0  0  0  0  0
   10.7985  -19.1866   20.7012 C   0  0  0  0  0  0  0  0  0  0  0  0
    9.7584  -18.1702   21.0569 C   0  0  0  0  0  0  0  0  0  0  0  0
    9.8953  -17.6877   22.4795 C   0  0  0  0  0  0  0  0  0  0  0  0
    8.9544  -16.5584   22.8094 C   0  0  2  0  0  0  0  0  0  0  0  0
    9.1141  -15.5269   21.7945 N   0  0  0  0  0  0  0  0  0  0  0  0
    9.3472  -16.0098   24.1463 C   0  0  0  0  0  0  0  0  0  0  0  0
   10.3583  -15.2619   24.2846 O   0  0  0  0  0  0  0  0  0  0  0  0
   10.1891  -20.1167   16.9005 N   0  0  0  0  0  0  0  0  0  0  0  0
    8.5851  -16.3253   25.2790 C   0  0  1  0  0  0  0  0  0  0  0  0
    8.9401  -15.8215   26.6144 C   0  0  0  0  0  0  0  0  0  0  0  0
    7.6692  -15.2947   27.2088 C   0  0  0  0  0  0  0  0  0  0  0  0
    7.3226  -13.9547   26.6902 C   0  0  0  0  0  0  0  0  0  0  0  0
    6.2344  -13.7977   25.8503 C   0  0  0  0  0  0  0  0  0  0  0  0
    5.9161  -12.5600   25.3789 C   0  0  0  0  0  0  0  0  0  0  0  0
    6.6787  -11.4608   25.7385 C   0  0  0  0  0  0  0  0  0  0  0  0
    7.7686  -11.5988   26.5763 C   0  0  0  0  0  0  0  0  0  0  0  0
    8.0723  -12.8681   27.0428 C   0  0  0  0  0  0  0  0  0  0  0  0
    9.5422  -16.9302   27.3611 O   0  0  0  0  0  0  0  0  0  0  0  0
    9.5091  -18.1246   26.9480 O   0  0  0  0  0  0  0  0  0  0  0  0
  2  1  1  6
  2  3  1  0
  3  4  1  0
  5  4  1  0
  6  5  2  0
  7  2  1  0
  8  7  2  0
  9  5  1  0
 10 11  1  0
 11 13  1  0
 11 12  2  0
 13 14  1  0
 14 15  1  0
 15 16  1  0
 17 16  1  6
 17 18  1  0
 18  7  1  0
 19 21  1  0
 19 17  1  0
 20 19  2  0
 22 30  1  0
 22 21  1  0
 22 23  1  1
 24 23  1  0
 24 25  2  0
 26 25  1  0
 27 26  2  0
 28 29  2  0
 28 27  1  0
 29 24  1  0
 30 32  1  0
 31 30  2  0
M  END
$$$$
