ERF.pdb
     RDKit          3D

 32 32  0  0  1  0  0  0  0  0999 V2000
    7.4615  -20.3029   23.3227 N   0  0  0  0  0  0  0  0  0  0  0  0
    8.8039  -20.4109   22.8351 C   0  0  1  0  0  0  0  0  0  0  0  0
    8.9338  -21.3602   21.6754 C   0  0  0  0  0  0  0  0  0  0  0  0
    7.9348  -22.4636   21.7576 C   0  0  0  0  0  0  0  0  0  0  0  0
    8.0442  -23.3985   20.6397 C   0  0  0  0  0  0  0  0  0  0  0  0
    7.3936  -23.3125   19.5756 O   0  0  0  0  0  0  0  0  0  0  0  0
    9.3135  -19.0592   22.5045 C   0  0  0  0  0  0  0  0  0  0  0  0
   10.4292  -18.9380   21.9621 O   0  0  0  0  0  0  0  0  0  0  0  0
    8.9406  -24.4763   20.7543 O   0  0  0  0  0  0  0  0  0  0  0  0
    9.2632  -13.7245   17.9420 N   0  0  0  0  0  0  0  0  0  0  0  0
    8.3291  -13.0185   18.7378 C   0  0  0  0  0  0  0  0  0  0  0  0
    8.4220  -11.7285   18.8684 N   0  0  0  0  0  0  0  0  0  0  0  0
    7.2681  -13.7063   19.4137 N   0  0  0  0  0  0  0  0  0  0  0  0
    7.1676  -13.6589   20.8600 C   0  0  0  0  0  0  0  0  0  0  0  0
    8.2816  -14.4027   21.5287 C   0  0  0  0  0  0  0  0  0  0  0  0
    7.8840  -15.8082   21.9050 C   0  0  0  0  0  0  0  0  0  0  0  0
    9.0127  -16.5924   22.5218 C   0  0  2  0  0  0  0  0  0  0  0  0
    8.5252  -17.9335   22.8107 N   0  0  0  0  0  0  0  0  0  0  0  0
    9.3977  -15.9140   23.8001 C   0  0  0  0  0  0  0  0  0  0  0  0
   10.0317  -14.8191   23.8046 O   0  0  0  0  0  0  0  0  0  0  0  0
    7.7833  -11.2388   19.5327 N   0  0  0  0  0  0  0  0  0  0  0  0
    9.0534  -16.4958   25.0275 C   0  0  1  0  0  0  0  0  0  0  0  0
    9.4903  -15.9167   26.3069 C   0  0  0  0  0  0  0  0  0  0  0  0
    8.2375  -15.5802   27.0575 C   0  0  0  0  0  0  0  0  0  0  0  0
    7.7197  -14.2403   26.7090 C   0  0  0  0  0  0  0  0  0  0  0  0
    6.4023  -14.0885   26.3142 C   0  0  0  0  0  0  0  0  0  0  0  0
    5.9285  -12.8511   25.9987 C   0  0  0  0  0  0  0  0  0  0  0  0
    6.7618  -11.7469   26.0727 C   0  0  0  0  0  0  0  0  0  0  0  0
    8.0798  -11.8796   26.4651 C   0  0  0  0  0  0  0  0  0  0  0  0
    8.5384  -13.1488   26.7808 C   0  0  0  0  0  0  0  0  0  0  0  0
   10.3458  -16.9043   26.9716 O   0  0  0  0  0  0  0  0  0  0  0  0
   10.8170  -16.7243   28.1309 O   0  0  0  0  0  0  0  0  0  0  0  0
  2  1  1  6
  2  3  1  0
  3  4  1  0
  5  4  1  0
  6  5  2  0
  7  2  1  0
  8  7  2  0
  9  5  1  0
 10 11  1  0
 11 13  1  0
 11 12  2  0
 13 14  1  0
 14 15  1  0
 15 16  1  0
 17 16  1  1
 17 18  1  0
 18  7  1  0
 19 21  1  0
 19 17  1  0
 20 19  2  0
 22 30  1  0
 22 21  1  0
 22 23  1  6
 24 23  1  0
 24 25  2  0
 26 25  1  0
 27 26  2  0
 28 29  2  0
 28 27  1  0
 29 24  1  0
 30 32  1  0
 31 30  2  0
M  END
$$$$
