LHE.pdb
     RDKit          3D

 28 28  0  0  1  0  0  0  0  0999 V2000
   16.2766  -13.7500  -18.0327 C   0  0  0  0  0  0  0  0  0  0  0  0
   15.8355  -13.8655  -16.5964 C   0  0  2  0  0  0  0  0  0  0  0  0
   14.3344  -13.8844  -16.4614 C   0  0  0  0  0  0  0  0  0  0  0  0
   16.4915  -12.8503  -15.7188 C   0  0  0  0  0  0  0  0  0  0  0  0
   17.9827  -12.8105  -15.8065 C   0  0  2  0  0  0  0  0  0  0  0  0
   18.5590  -13.9595  -15.1699 N   0  0  0  0  0  0  0  0  0  0  0  0
   18.4433  -11.5389  -15.1713 C   0  0  0  0  0  0  0  0  0  0  0  0
   18.2294  -11.3245  -13.9359 O   0  0  0  0  0  0  0  0  0  0  0  0
   19.1252  -10.5183  -15.8684 N   0  0  0  0  0  0  0  0  0  0  0  0
   19.4385   -9.2341  -15.2992 C   0  0  1  0  0  0  0  0  0  0  0  0
   20.8500   -8.8639  -15.7370 C   0  0  0  0  0  0  0  0  0  0  0  0
   21.2301   -7.5622  -15.1348 C   0  0  0  0  0  0  0  0  0  0  0  0
   21.6285   -7.3321  -13.8338 C   0  0  0  0  0  0  0  0  0  0  0  0
   21.8779   -6.0325  -13.7071 N   0  0  0  0  0  0  0  0  0  0  0  0
   21.6472   -5.4433  -14.8912 C   0  0  0  0  0  0  0  0  0  0  0  0
   21.2462   -6.3647  -15.7904 N   0  0  0  0  0  0  0  0  0  0  0  0
   18.4604   -8.1963  -15.5992 C   0  0  0  0  0  0  0  0  0  0  0  0
   17.9750   -8.1461  -16.7830 O   0  0  0  0  0  0  0  0  0  0  0  0
   17.9801   -7.2168  -14.6962 N   0  0  0  0  0  0  0  0  0  0  0  0
   17.1813   -6.0648  -15.1152 C   0  0  1  0  0  0  0  0  0  0  0  0
   16.1637   -5.7137  -14.0903 C   0  0  0  0  0  0  0  0  0  0  0  0
   15.3395   -4.5260  -14.4328 C   0  0  0  0  0  0  0  0  0  0  0  0
   14.3152   -4.2368  -13.3713 C   0  0  0  0  0  0  0  0  0  0  0  0
   14.2981   -5.0485  -12.4112 O   0  0  0  0  0  0  0  0  0  0  0  0
   18.0132   -4.9247  -15.4816 C   0  0  0  0  0  0  0  0  0  0  0  0
   17.7097   -4.0645  -16.4981 O   0  0  0  0  0  0  0  0  0  0  0  0
   13.4446   -3.1804  -13.4044 O   0  0  0  0  0  0  0  0  0  0  0  0
   19.0941   -4.7054  -14.8251 O   0  0  0  0  0  0  0  0  0  0  0  0
  2  1  1  6
  2  3  1  0
  4  2  1  0
  5  4  1  0
  5  6  1  1
  7  8  2  0
  7  5  1  0
  9  7  1  0
 10  9  1  0
 11 12  1  0
 10 11  1  6
 12 16  1  0
 13 12  2  0
 13 14  1  0
 14 15  1  0
 16 15  2  0
 17 10  1  0
 17 18  2  0
 19 17  1  0
 20 19  1  0
 20 21  1  1
 22 21  1  0
 23 22  1  0
 24 23  2  0
 25 20  1  0
 26 25  1  0
 27 23  1  0
 28 25  2  0
M  END
$$$$
