LHE.pdb
     RDKit          3D

 28 28  0  0  1  0  0  0  0  0999 V2000
   16.5743  -14.3669  -15.7022 C   0  0  0  0  0  0  0  0  0  0  0  0
   17.9105  -14.8782  -16.1755 C   0  0  2  0  0  0  0  0  0  0  0  0
   18.2069  -16.2620  -15.6569 C   0  0  0  0  0  0  0  0  0  0  0  0
   19.0137  -13.9051  -15.9166 C   0  0  0  0  0  0  0  0  0  0  0  0
   18.7616  -12.5191  -16.4151 C   0  0  2  0  0  0  0  0  0  0  0  0
   18.5065  -12.5263  -17.8267 N   0  0  0  0  0  0  0  0  0  0  0  0
   19.9554  -11.6876  -16.0746 C   0  0  0  0  0  0  0  0  0  0  0  0
   20.3099  -11.5399  -14.8620 O   0  0  0  0  0  0  0  0  0  0  0  0
   20.7501  -11.0283  -17.0373 N   0  0  0  0  0  0  0  0  0  0  0  0
   21.8749  -10.1929  -16.7079 C   0  0  1  0  0  0  0  0  0  0  0  0
   23.0615  -10.6626  -17.5399 C   0  0  0  0  0  0  0  0  0  0  0  0
   22.6986  -10.6384  -18.9784 C   0  0  0  0  0  0  0  0  0  0  0  0
   21.4609  -10.3564  -19.5195 C   0  0  0  0  0  0  0  0  0  0  0  0
   21.5648  -10.4411  -20.8420 N   0  0  0  0  0  0  0  0  0  0  0  0
   22.8316  -10.7678  -21.1437 C   0  0  0  0  0  0  0  0  0  0  0  0
   23.5531  -10.8957  -20.0117 N   0  0  0  0  0  0  0  0  0  0  0  0
   21.6152   -8.7654  -16.8443 C   0  0  0  0  0  0  0  0  0  0  0  0
   20.6759   -8.3936  -17.6309 O   0  0  0  0  0  0  0  0  0  0  0  0
   22.3094   -7.7244  -16.1810 N   0  0  0  0  0  0  0  0  0  0  0  0
   21.9203   -6.3171  -16.2734 C   0  0  1  0  0  0  0  0  0  0  0  0
   22.0864   -5.6255  -14.9683 C   0  0  0  0  0  0  0  0  0  0  0  0
   21.6457   -4.2068  -14.9708 C   0  0  0  0  0  0  0  0  0  0  0  0
   21.9006   -3.5444  -13.6457 C   0  0  0  0  0  0  0  0  0  0  0  0
   22.4466   -4.2751  -12.7803 O   0  0  0  0  0  0  0  0  0  0  0  0
   22.6109   -5.6271  -17.3566 C   0  0  0  0  0  0  0  0  0  0  0  0
   22.0672   -4.5893  -18.0585 O   0  0  0  0  0  0  0  0  0  0  0  0
   21.5796   -2.2451  -13.3564 O   0  0  0  0  0  0  0  0  0  0  0  0
   23.7934   -6.0052  -17.6824 O   0  0  0  0  0  0  0  0  0  0  0  0
  2  1  1  1
  2  3  1  0
  4  2  1  0
  5  4  1  0
  5  6  1  6
  7  8  2  0
  7  5  1  0
  9  7  1  0
 10  9  1  0
 11 12  1  0
 10 11  1  6
 12 16  1  0
 13 12  2  0
 13 14  1  0
 14 15  1  0
 16 15  2  0
 17 10  1  0
 17 18  2  0
 19 17  1  0
 20 19  1  0
 20 21  1  1
 22 21  1  0
 23 22  1  0
 24 23  2  0
 25 20  1  0
 26 25  1  0
 27 23  1  0
 28 25  2  0
M  END
$$$$
