LHE.pdb
     RDKit          3D

 28 28  0  0  1  0  0  0  0  0999 V2000
   28.3208  -22.9318  -18.3103 C   0  0  0  0  0  0  0  0  0  0  0  0
   27.0257  -23.6155  -18.6652 C   0  0  2  0  0  0  0  0  0  0  0  0
   26.6466  -23.4035  -20.1085 C   0  0  0  0  0  0  0  0  0  0  0  0
   25.9261  -23.2757  -17.7131 C   0  0  0  0  0  0  0  0  0  0  0  0
   26.2416  -23.5193  -16.2729 C   0  0  2  0  0  0  0  0  0  0  0  0
   26.6296  -24.8841  -16.0624 N   0  0  0  0  0  0  0  0  0  0  0  0
   25.0312  -23.1604  -15.4737 C   0  0  0  0  0  0  0  0  0  0  0  0
   24.1172  -24.0216  -15.2715 O   0  0  0  0  0  0  0  0  0  0  0  0
   24.8192  -21.8863  -14.9040 N   0  0  0  0  0  0  0  0  0  0  0  0
   23.7121  -21.5720  -14.0397 C   0  0  1  0  0  0  0  0  0  0  0  0
   24.0774  -20.3188  -13.2543 C   0  0  0  0  0  0  0  0  0  0  0  0
   22.9933  -20.0041  -12.2913 C   0  0  0  0  0  0  0  0  0  0  0  0
   22.5914  -20.7657  -11.2131 C   0  0  0  0  0  0  0  0  0  0  0  0
   21.5933  -20.1263  -10.6112 N   0  0  0  0  0  0  0  0  0  0  0  0
   21.3596  -18.9869  -11.2817 C   0  0  0  0  0  0  0  0  0  0  0  0
   22.2098  -18.8864  -12.3235 N   0  0  0  0  0  0  0  0  0  0  0  0
   22.4334  -21.4575  -14.7293 C   0  0  0  0  0  0  0  0  0  0  0  0
   22.3971  -20.8100  -15.8333 O   0  0  0  0  0  0  0  0  0  0  0  0
   21.2000  -22.0013  -14.2951 N   0  0  0  0  0  0  0  0  0  0  0  0
   19.9476  -21.8346  -15.0329 C   0  0  1  0  0  0  0  0  0  0  0  0
   18.9788  -22.9114  -14.6997 C   0  0  0  0  0  0  0  0  0  0  0  0
   17.7257  -22.8707  -15.4966 C   0  0  0  0  0  0  0  0  0  0  0  0
   16.7910  -23.9855  -15.1180 C   0  0  0  0  0  0  0  0  0  0  0  0
   17.1881  -24.7179  -14.1762 O   0  0  0  0  0  0  0  0  0  0  0  0
   19.3785  -20.5040  -14.8538 C   0  0  0  0  0  0  0  0  0  0  0  0
   18.7898  -19.7931  -15.8604 O   0  0  0  0  0  0  0  0  0  0  0  0
   15.5870  -24.2246  -15.7247 O   0  0  0  0  0  0  0  0  0  0  0  0
   19.4282  -19.9560  -13.6943 O   0  0  0  0  0  0  0  0  0  0  0  0
  2  1  1  1
  2  3  1  0
  4  2  1  0
  5  4  1  0
  5  6  1  6
  7  8  2  0
  7  5  1  0
  9  7  1  0
 10  9  1  0
 11 12  1  0
 10 11  1  6
 12 16  1  0
 13 12  2  0
 13 14  1  0
 14 15  1  0
 16 15  2  0
 17 10  1  0
 17 18  2  0
 19 17  1  0
 20 19  1  0
 20 21  1  1
 22 21  1  0
 23 22  1  0
 24 23  2  0
 25 20  1  0
 26 25  1  0
 27 23  1  0
 28 25  2  0
M  END
$$$$
