LHE.pdb
     RDKit          3D

 28 28  0  0  1  0  0  0  0  0999 V2000
   19.0791  -25.1607   -8.0722 C   0  0  0  0  0  0  0  0  0  0  0  0
   17.6200  -25.5352   -8.1148 C   0  0  2  0  0  0  0  0  0  0  0  0
   17.0398  -25.4082   -9.5001 C   0  0  0  0  0  0  0  0  0  0  0  0
   16.8208  -24.8197   -7.0754 C   0  0  0  0  0  0  0  0  0  0  0  0
   17.3499  -24.9357   -5.6828 C   0  0  2  0  0  0  0  0  0  0  0  0
   17.5561  -26.3111   -5.3315 N   0  0  0  0  0  0  0  0  0  0  0  0
   16.3730  -24.2730   -4.7668 C   0  0  0  0  0  0  0  0  0  0  0  0
   16.0000  -23.0764   -4.9835 O   0  0  0  0  0  0  0  0  0  0  0  0
   15.8114  -24.9017   -3.6345 N   0  0  0  0  0  0  0  0  0  0  0  0
   14.8925  -24.2548   -2.7353 C   0  0  1  0  0  0  0  0  0  0  0  0
   13.6312  -25.1066   -2.6680 C   0  0  0  0  0  0  0  0  0  0  0  0
   12.7614  -24.7963   -3.8293 C   0  0  0  0  0  0  0  0  0  0  0  0
   12.5503  -25.5819   -4.9440 C   0  0  0  0  0  0  0  0  0  0  0  0
   11.7034  -24.9391   -5.7419 N   0  0  0  0  0  0  0  0  0  0  0  0
   11.3786  -23.7744   -5.1584 C   0  0  0  0  0  0  0  0  0  0  0  0
   12.0177  -23.6609   -3.9764 N   0  0  0  0  0  0  0  0  0  0  0  0
   15.4521  -23.9638   -1.4215 C   0  0  0  0  0  0  0  0  0  0  0  0
   16.3086  -24.7811   -0.9340 O   0  0  0  0  0  0  0  0  0  0  0  0
   15.1398  -22.8451   -0.6112 N   0  0  0  0  0  0  0  0  0  0  0  0
   15.7968  -22.5749    0.6679 C   0  0  1  0  0  0  0  0  0  0  0  0
   15.4949  -21.2013    1.1487 C   0  0  0  0  0  0  0  0  0  0  0  0
   16.1304  -20.8574    2.4468 C   0  0  0  0  0  0  0  0  0  0  0  0
   15.7918  -19.4574    2.8766 C   0  0  0  0  0  0  0  0  0  0  0  0
   14.5697  -19.2428    3.0806 O   0  0  0  0  0  0  0  0  0  0  0  0
   15.4893  -23.5908    1.6678 C   0  0  0  0  0  0  0  0  0  0  0  0
   16.4081  -24.0848    2.5493 O   0  0  0  0  0  0  0  0  0  0  0  0
   16.7113  -18.4571    3.0468 O   0  0  0  0  0  0  0  0  0  0  0  0
   14.2960  -24.0585    1.7343 O   0  0  0  0  0  0  0  0  0  0  0  0
  2  1  1  6
  2  3  1  0
  4  2  1  0
  5  4  1  0
  5  6  1  1
  7  8  2  0
  7  5  1  0
  9  7  1  0
 10  9  1  0
 11 12  1  0
 10 11  1  1
 12 16  1  0
 13 12  2  0
 13 14  1  0
 14 15  1  0
 16 15  2  0
 17 10  1  0
 17 18  2  0
 19 17  1  0
 20 19  1  0
 20 21  1  1
 22 21  1  0
 23 22  1  0
 24 23  2  0
 25 20  1  0
 26 25  1  0
 27 23  1  0
 28 25  2  0
M  END
$$$$
