LHE.pdb
     RDKit          3D

 28 28  0  0  1  0  0  0  0  0999 V2000
   26.3653  -20.5078   -7.2817 C   0  0  0  0  0  0  0  0  0  0  0  0
   27.4177  -20.3762   -8.3521 C   0  0  2  0  0  0  0  0  0  0  0  0
   28.5544  -19.4827   -7.9263 C   0  0  0  0  0  0  0  0  0  0  0  0
   26.8364  -19.9972   -9.6748 C   0  0  0  0  0  0  0  0  0  0  0  0
   25.7391  -20.8881  -10.1597 C   0  0  2  0  0  0  0  0  0  0  0  0
   26.2044  -22.2382  -10.2951 N   0  0  0  0  0  0  0  0  0  0  0  0
   25.2483  -20.3408  -11.4606 C   0  0  0  0  0  0  0  0  0  0  0  0
   24.9450  -19.1100  -11.5653 O   0  0  0  0  0  0  0  0  0  0  0  0
   25.0905  -21.1195  -12.6274 N   0  0  0  0  0  0  0  0  0  0  0  0
   24.6432  -20.5880  -13.8879 C   0  0  1  0  0  0  0  0  0  0  0  0
   25.4334  -21.2811  -14.9907 C   0  0  0  0  0  0  0  0  0  0  0  0
   26.8107  -20.7310  -15.0340 C   0  0  0  0  0  0  0  0  0  0  0  0
   27.2273  -19.5805  -15.6721 C   0  0  0  0  0  0  0  0  0  0  0  0
   28.5336  -19.4486  -15.4640 N   0  0  0  0  0  0  0  0  0  0  0  0
   28.9459  -20.4831  -14.7141 C   0  0  0  0  0  0  0  0  0  0  0  0
   27.9024  -21.2901  -14.4344 N   0  0  0  0  0  0  0  0  0  0  0  0
   23.2018  -20.6651  -14.0877 C   0  0  0  0  0  0  0  0  0  0  0  0
   22.5829  -21.6928  -13.6402 O   0  0  0  0  0  0  0  0  0  0  0  0
   22.3972  -19.6988  -14.7393 N   0  0  0  0  0  0  0  0  0  0  0  0
   20.9348  -19.7441  -14.7406 C   0  0  1  0  0  0  0  0  0  0  0  0
   20.3537  -18.3761  -14.7452 C   0  0  0  0  0  0  0  0  0  0  0  0
   18.8698  -18.3454  -14.8106 C   0  0  0  0  0  0  0  0  0  0  0  0
   18.2560  -18.2531  -13.4416 C   0  0  0  0  0  0  0  0  0  0  0  0
   18.2729  -17.1066  -12.9255 O   0  0  0  0  0  0  0  0  0  0  0  0
   20.4127  -20.5704  -15.8227 C   0  0  0  0  0  0  0  0  0  0  0  0
   19.2827  -21.3299  -15.7148 O   0  0  0  0  0  0  0  0  0  0  0  0
   17.7072  -19.3111  -12.7674 O   0  0  0  0  0  0  0  0  0  0  0  0
   21.0387  -20.5987  -16.9428 O   0  0  0  0  0  0  0  0  0  0  0  0
  2  1  1  1
  2  3  1  0
  4  2  1  0
  5  4  1  0
  5  6  1  6
  7  8  2  0
  7  5  1  0
  9  7  1  0
 10  9  1  0
 11 12  1  0
 10 11  1  6
 12 16  1  0
 13 12  2  0
 13 14  1  0
 14 15  1  0
 16 15  2  0
 17 10  1  0
 17 18  2  0
 19 17  1  0
 20 19  1  0
 20 21  1  6
 22 21  1  0
 23 22  1  0
 24 23  2  0
 25 20  1  0
 26 25  1  0
 27 23  1  0
 28 25  2  0
M  END
$$$$
