LHE.pdb
     RDKit          3D

 28 28  0  0  1  0  0  0  0  0999 V2000
   26.5867  -25.0844  -15.6155 C   0  0  0  0  0  0  0  0  0  0  0  0
   25.3922  -24.6740  -16.4375 C   0  0  2  0  0  0  0  0  0  0  0  0
   25.7849  -24.1862  -17.8085 C   0  0  0  0  0  0  0  0  0  0  0  0
   24.5023  -23.7217  -15.7078 C   0  0  0  0  0  0  0  0  0  0  0  0
   23.2720  -23.3133  -16.4510 C   0  0  2  0  0  0  0  0  0  0  0  0
   23.3358  -21.9272  -16.8148 N   0  0  0  0  0  0  0  0  0  0  0  0
   22.0946  -23.6005  -15.5770 C   0  0  0  0  0  0  0  0  0  0  0  0
   21.8429  -22.8584  -14.5751 O   0  0  0  0  0  0  0  0  0  0  0  0
   21.2061  -24.6765  -15.7899 N   0  0  0  0  0  0  0  0  0  0  0  0
   20.0103  -24.8898  -15.0179 C   0  0  1  0  0  0  0  0  0  0  0  0
   18.9009  -25.2920  -15.9815 C   0  0  0  0  0  0  0  0  0  0  0  0
   18.0715  -24.1051  -16.3052 C   0  0  0  0  0  0  0  0  0  0  0  0
   18.1974  -22.8344  -15.7820 C   0  0  0  0  0  0  0  0  0  0  0  0
   17.2619  -22.0701  -16.3368 N   0  0  0  0  0  0  0  0  0  0  0  0
   16.5547  -22.8259  -17.1918 C   0  0  0  0  0  0  0  0  0  0  0  0
   17.0334  -24.0865  -17.1919 N   0  0  0  0  0  0  0  0  0  0  0  0
   20.1738  -25.8294  -13.9160 C   0  0  0  0  0  0  0  0  0  0  0  0
   20.7070  -26.9666  -14.1645 O   0  0  0  0  0  0  0  0  0  0  0  0
   19.7962  -25.6090  -12.5690 N   0  0  0  0  0  0  0  0  0  0  0  0
   20.0046  -26.5944  -11.5078 C   0  0  1  0  0  0  0  0  0  0  0  0
   19.7446  -26.0059  -10.1679 C   0  0  0  0  0  0  0  0  0  0  0  0
   18.3113  -25.7278   -9.8930 C   0  0  0  0  0  0  0  0  0  0  0  0
   18.1006  -25.2404   -8.4868 C   0  0  0  0  0  0  0  0  0  0  0  0
   18.6045  -25.9638   -7.5903 O   0  0  0  0  0  0  0  0  0  0  0  0
   19.2384  -27.8143  -11.7340 C   0  0  0  0  0  0  0  0  0  0  0  0
   19.6348  -29.0464  -11.2980 O   0  0  0  0  0  0  0  0  0  0  0  0
   17.4178  -24.1000   -8.1579 O   0  0  0  0  0  0  0  0  0  0  0  0
   18.1309  -27.7440  -12.3787 O   0  0  0  0  0  0  0  0  0  0  0  0
  2  1  1  1
  2  3  1  0
  4  2  1  0
  5  4  1  0
  5  6  1  1
  7  8  2  0
  7  5  1  0
  9  7  1  0
 10  9  1  0
 11 12  1  0
 10 11  1  6
 12 16  1  0
 13 12  2  0
 13 14  1  0
 14 15  1  0
 16 15  2  0
 17 10  1  0
 17 18  2  0
 19 17  1  0
 20 19  1  0
 20 21  1  1
 22 21  1  0
 23 22  1  0
 24 23  2  0
 25 20  1  0
 26 25  1  0
 27 23  1  0
 28 25  2  0
M  END
$$$$
