LHE.pdb
     RDKit          3D

 28 28  0  0  1  0  0  0  0  0999 V2000
   23.6186  -12.0646  -13.7690 C   0  0  0  0  0  0  0  0  0  0  0  0
   23.6942  -12.0158  -15.2733 C   0  0  2  0  0  0  0  0  0  0  0  0
   24.9425  -12.6741  -15.8025 C   0  0  0  0  0  0  0  0  0  0  0  0
   23.4865  -10.6361  -15.8066 C   0  0  0  0  0  0  0  0  0  0  0  0
   22.2743   -9.9346  -15.2856 C   0  0  2  0  0  0  0  0  0  0  0  0
   21.0874  -10.6821  -15.5861 N   0  0  0  0  0  0  0  0  0  0  0  0
   22.2375   -8.5719  -15.8973 C   0  0  0  0  0  0  0  0  0  0  0  0
   23.2246   -7.7811  -15.7624 O   0  0  0  0  0  0  0  0  0  0  0  0
   21.1454   -8.0783  -16.6432 N   0  0  0  0  0  0  0  0  0  0  0  0
   21.1103   -6.7671  -17.2357 C   0  0  1  0  0  0  0  0  0  0  0  0
   20.6192   -6.9186  -18.6699 C   0  0  0  0  0  0  0  0  0  0  0  0
   21.7112   -7.4656  -19.5124 C   0  0  0  0  0  0  0  0  0  0  0  0
   22.8133   -6.7862  -19.9901 C   0  0  0  0  0  0  0  0  0  0  0  0
   23.5435   -7.6408  -20.6996 N   0  0  0  0  0  0  0  0  0  0  0  0
   22.9302   -8.8349  -20.6794 C   0  0  0  0  0  0  0  0  0  0  0  0
   21.7966   -8.7549  -19.9534 N   0  0  0  0  0  0  0  0  0  0  0  0
   20.3435   -5.7904  -16.4730 C   0  0  0  0  0  0  0  0  0  0  0  0
   19.4185   -6.2188  -15.6982 O   0  0  0  0  0  0  0  0  0  0  0  0
   20.5205   -4.3856  -16.5004 N   0  0  0  0  0  0  0  0  0  0  0  0
   19.6774   -3.4577  -15.7463 C   0  0  1  0  0  0  0  0  0  0  0  0
   20.2693   -2.0947  -15.7169 C   0  0  0  0  0  0  0  0  0  0  0  0
   19.4907   -1.1100  -14.9223 C   0  0  0  0  0  0  0  0  0  0  0  0
   20.0875    0.2671  -15.0069 C   0  0  0  0  0  0  0  0  0  0  0  0
   21.1556    0.3461  -15.6655 O   0  0  0  0  0  0  0  0  0  0  0  0
   18.3009   -3.4524  -16.2277 C   0  0  0  0  0  0  0  0  0  0  0  0
   17.2156   -3.3176  -15.4096 O   0  0  0  0  0  0  0  0  0  0  0  0
   19.5444    1.3821  -14.4265 O   0  0  0  0  0  0  0  0  0  0  0  0
   18.0801   -3.5836  -17.4852 O   0  0  0  0  0  0  0  0  0  0  0  0
  2  1  1  1
  2  3  1  0
  4  2  1  0
  5  4  1  0
  5  6  1  6
  7  8  2  0
  7  5  1  0
  9  7  1  0
 10  9  1  0
 11 12  1  0
 10 11  1  6
 12 16  1  0
 13 12  2  0
 13 14  1  0
 14 15  1  0
 16 15  2  0
 17 10  1  0
 17 18  2  0
 19 17  1  0
 20 19  1  0
 20 21  1  6
 22 21  1  0
 23 22  1  0
 24 23  2  0
 25 20  1  0
 26 25  1  0
 27 23  1  0
 28 25  2  0
M  END
$$$$
