LHE.pdb
     RDKit          3D

 28 28  0  0  1  0  0  0  0  0999 V2000
   28.7783  -11.3299  -16.0532 C   0  0  0  0  0  0  0  0  0  0  0  0
   27.8707  -11.9382  -17.0911 C   0  0  2  0  0  0  0  0  0  0  0  0
   28.4956  -11.9410  -18.4627 C   0  0  0  0  0  0  0  0  0  0  0  0
   26.5032  -11.3377  -17.0699 C   0  0  0  0  0  0  0  0  0  0  0  0
   25.8502  -11.3042  -15.7263 C   0  0  2  0  0  0  0  0  0  0  0  0
   25.8133  -12.6161  -15.1474 N   0  0  0  0  0  0  0  0  0  0  0  0
   24.4779  -10.7391  -15.8998 C   0  0  0  0  0  0  0  0  0  0  0  0
   24.3198   -9.5786  -16.3958 O   0  0  0  0  0  0  0  0  0  0  0  0
   23.2979  -11.4253  -15.5401 N   0  0  0  0  0  0  0  0  0  0  0  0
   21.9764  -10.8760  -15.6927 C   0  0  1  0  0  0  0  0  0  0  0  0
   20.9752  -11.9806  -15.3790 C   0  0  0  0  0  0  0  0  0  0  0  0
   19.6025  -11.5054  -15.6809 C   0  0  0  0  0  0  0  0  0  0  0  0
   19.2347  -10.2508  -16.1226 C   0  0  0  0  0  0  0  0  0  0  0  0
   17.9138  -10.2415  -16.2713 N   0  0  0  0  0  0  0  0  0  0  0  0
   17.4448  -11.4538  -15.9356 C   0  0  0  0  0  0  0  0  0  0  0  0
   18.4661  -12.2536  -15.5673 N   0  0  0  0  0  0  0  0  0  0  0  0
   21.7442   -9.6627  -14.9197 C   0  0  0  0  0  0  0  0  0  0  0  0
   21.9795   -9.6923  -13.6615 O   0  0  0  0  0  0  0  0  0  0  0  0
   21.2755   -8.4268  -15.4282 N   0  0  0  0  0  0  0  0  0  0  0  0
   21.1196   -7.2290  -14.6025 C   0  0  1  0  0  0  0  0  0  0  0  0
   21.8217   -6.0652  -15.2040 C   0  0  0  0  0  0  0  0  0  0  0  0
   21.7097   -4.8120  -14.4140 C   0  0  0  0  0  0  0  0  0  0  0  0
   22.3594   -3.6530  -15.1170 C   0  0  0  0  0  0  0  0  0  0  0  0
   23.2682   -3.9630  -15.9288 O   0  0  0  0  0  0  0  0  0  0  0  0
   19.7197   -6.9409  -14.3130 C   0  0  0  0  0  0  0  0  0  0  0  0
   18.7119   -7.1055  -15.2199 O   0  0  0  0  0  0  0  0  0  0  0  0
   22.0203   -2.3410  -14.9207 O   0  0  0  0  0  0  0  0  0  0  0  0
   19.4011   -6.5055  -13.1485 O   0  0  0  0  0  0  0  0  0  0  0  0
  2  1  1  1
  2  3  1  0
  4  2  1  0
  5  4  1  0
  5  6  1  6
  7  8  2  0
  7  5  1  0
  9  7  1  0
 10  9  1  0
 11 12  1  0
 10 11  1  1
 12 16  1  0
 13 12  2  0
 13 14  1  0
 14 15  1  0
 16 15  2  0
 17 10  1  0
 17 18  2  0
 19 17  1  0
 20 19  1  0
 20 21  1  6
 22 21  1  0
 23 22  1  0
 24 23  2  0
 25 20  1  0
 26 25  1  0
 27 23  1  0
 28 25  2  0
M  END
$$$$
