DRK.pdb
     RDKit          3D

 29 28  0  0  1  0  0  0  0  0999 V2000
   12.2275  -16.8702   19.7673 N   0  0  0  0  0  0  0  0  0  0  0  0
   13.0314  -16.1592   20.7839 C   0  0  1  0  0  0  0  0  0  0  0  0
   13.7353  -15.0028   20.1264 C   0  0  0  0  0  0  0  0  0  0  0  0
   14.2656  -15.3240   18.8036 C   0  0  0  0  0  0  0  0  0  0  0  0
   14.5263  -16.5470   18.5689 O   0  0  0  0  0  0  0  0  0  0  0  0
   12.1430  -15.7569   21.9058 C   0  0  0  0  0  0  0  0  0  0  0  0
   12.4590  -15.0182   22.8580 O   0  0  0  0  0  0  0  0  0  0  0  0
   14.5138  -14.4457   17.7893 O   0  0  0  0  0  0  0  0  0  0  0  0
    8.4802  -13.7824   17.8282 N   0  0  0  0  0  0  0  0  0  0  0  0
    8.0919  -12.7250   18.6768 C   0  0  0  0  0  0  0  0  0  0  0  0
    8.4300  -11.5183   18.3827 N   0  0  0  0  0  0  0  0  0  0  0  0
    7.3354  -12.9139   19.8579 N   0  0  0  0  0  0  0  0  0  0  0  0
    7.3111  -14.0965   20.6572 C   0  0  0  0  0  0  0  0  0  0  0  0
    8.5678  -14.3207   21.4491 C   0  0  0  0  0  0  0  0  0  0  0  0
    8.5536  -15.5928   22.2484 C   0  0  0  0  0  0  0  0  0  0  0  0
    9.8486  -15.8895   22.9554 C   0  0  2  0  0  0  0  0  0  0  0  0
   10.8030  -16.2480   21.9140 N   0  0  0  0  0  0  0  0  0  0  0  0
    9.7310  -16.9986   23.9533 C   0  0  0  0  0  0  0  0  0  0  0  0
    9.1115  -18.0594   23.6971 O   0  0  0  0  0  0  0  0  0  0  0  0
    8.1649  -10.7195   18.9898 N   0  0  0  0  0  0  0  0  0  0  0  0
   10.3175  -16.8961   25.2375 C   0  0  1  0  0  0  0  0  0  0  0  0
   10.6712  -18.0540   26.0646 C   0  0  0  0  0  0  0  0  0  0  0  0
   11.3703  -19.1211   25.3230 C   0  0  0  0  0  0  0  0  0  0  0  0
   11.4461  -20.4927   25.7697 C   0  0  0  0  0  0  0  0  0  0  0  0
   12.1303  -21.6102   25.1885 C   0  0  0  0  0  0  0  0  0  0  0  0
   12.2837  -22.9381   25.7685 N   0  0  0  0  0  0  0  0  0  0  0  0
   13.1590  -23.7169   24.8357 C   0  0  0  0  0  0  0  0  0  0  0  0
   11.2344  -17.5580   27.3123 O   0  0  0  0  0  0  0  0  0  0  0  0
   11.4464  -18.3843   28.3987 O   0  0  0  0  0  0  0  0  0  0  0  0
  2  1  1  6
  2  3  1  0
  4  3  1  0
  4  8  1  0
  5  4  2  0
  6  2  1  0
  6  7  2  0
  9 10  1  0
 10 12  1  0
 11 10  2  0
 12 13  1  0
 13 14  1  0
 15 14  1  0
 16 15  1  6
 16 17  1  0
 17  6  1  0
 18 16  1  0
 19 18  2  0
 20 18  1  0
 21 22  1  6
 21 20  1  0
 22 23  1  0
 23 24  1  0
 25 24  1  0
 26 25  1  0
 27 28  1  0
 27 21  1  0
 29 27  2  0
M  END
$$$$
