DRK.pdb
     RDKit          3D

 29 28  0  0  1  0  0  0  0  0999 V2000
   11.5274  -17.2559   18.3418 N   0  0  0  0  0  0  0  0  0  0  0  0
   12.5869  -16.6425   19.1703 C   0  0  1  0  0  0  0  0  0  0  0  0
   13.5539  -15.9227   18.2693 C   0  0  0  0  0  0  0  0  0  0  0  0
   14.0387  -16.7461   17.1644 C   0  0  0  0  0  0  0  0  0  0  0  0
   13.3182  -17.7389   16.8264 O   0  0  0  0  0  0  0  0  0  0  0  0
   11.9541  -15.7643   20.1893 C   0  0  0  0  0  0  0  0  0  0  0  0
   12.5354  -14.8932   20.8642 O   0  0  0  0  0  0  0  0  0  0  0  0
   15.1897  -16.5628   16.4547 O   0  0  0  0  0  0  0  0  0  0  0  0
    8.2043  -12.6824   17.3214 N   0  0  0  0  0  0  0  0  0  0  0  0
    7.3554  -13.8072   17.3773 C   0  0  0  0  0  0  0  0  0  0  0  0
    7.3191  -14.6248   16.3837 N   0  0  0  0  0  0  0  0  0  0  0  0
    6.5233  -14.0989   18.4843 N   0  0  0  0  0  0  0  0  0  0  0  0
    6.7537  -13.6972   19.8346 C   0  0  0  0  0  0  0  0  0  0  0  0
    8.1840  -13.8334   20.2735 C   0  0  0  0  0  0  0  0  0  0  0  0
    8.4455  -15.0674   21.0897 C   0  0  0  0  0  0  0  0  0  0  0  0
    9.8777  -15.2254   21.5240 C   0  0  2  0  0  0  0  0  0  0  0  0
   10.5559  -15.9136   20.4330 N   0  0  0  0  0  0  0  0  0  0  0  0
   10.0226  -16.0023   22.7950 C   0  0  0  0  0  0  0  0  0  0  0  0
   10.0672  -17.2563   22.8052 O   0  0  0  0  0  0  0  0  0  0  0  0
    7.8218  -14.4226   15.4987 N   0  0  0  0  0  0  0  0  0  0  0  0
   10.1152  -15.3499   24.0478 C   0  0  2  0  0  0  0  0  0  0  0  0
   10.2314  -16.0579   25.3265 C   0  0  0  0  0  0  0  0  0  0  0  0
   10.5143  -15.1713   26.4716 C   0  0  0  0  0  0  0  0  0  0  0  0
   10.7019  -15.6416   27.8246 C   0  0  0  0  0  0  0  0  0  0  0  0
   11.0588  -14.9145   29.0072 C   0  0  0  0  0  0  0  0  0  0  0  0
   11.2725  -15.4647   30.3394 N   0  0  0  0  0  0  0  0  0  0  0  0
   11.5752  -14.3070   31.2400 C   0  0  0  0  0  0  0  0  0  0  0  0
    9.1362  -17.0136   25.4106 O   0  0  0  0  0  0  0  0  0  0  0  0
    7.8935  -16.7518   24.8676 O   0  0  0  0  0  0  0  0  0  0  0  0
  2  1  1  6
  2  3  1  0
  4  3  1  0
  4  8  1  0
  5  4  2  0
  6  2  1  0
  6  7  2  0
  9 10  1  0
 10 12  1  0
 11 10  2  0
 12 13  1  0
 13 14  1  0
 15 14  1  0
 16 15  1  6
 16 17  1  0
 17  6  1  0
 18 16  1  0
 19 18  2  0
 20 18  1  0
 21 22  1  6
 21 20  1  0
 22 23  1  0
 23 24  1  0
 25 24  1  0
 26 25  1  0
 27 28  1  0
 27 21  1  0
 29 27  2  0
M  END
$$$$
