DRK.pdb
     RDKit          3D

 29 28  0  0  1  0  0  0  0  0999 V2000
    9.6968  -19.2353   20.7194 N   0  0  0  0  0  0  0  0  0  0  0  0
   10.4386  -18.1729   20.0078 C   0  0  1  0  0  0  0  0  0  0  0  0
    9.8478  -18.0030   18.6342 C   0  0  0  0  0  0  0  0  0  0  0  0
   10.6013  -18.6932   17.5902 C   0  0  0  0  0  0  0  0  0  0  0  0
   11.6145  -19.3676   17.9612 O   0  0  0  0  0  0  0  0  0  0  0  0
   10.4093  -16.9330   20.8274 C   0  0  0  0  0  0  0  0  0  0  0  0
   11.4032  -16.3368   21.2845 O   0  0  0  0  0  0  0  0  0  0  0  0
   10.3327  -18.6889   16.2524 O   0  0  0  0  0  0  0  0  0  0  0  0
    7.8807  -14.8620   17.0400 N   0  0  0  0  0  0  0  0  0  0  0  0
    7.6827  -13.4687   16.9491 C   0  0  0  0  0  0  0  0  0  0  0  0
    7.9067  -12.8673   15.8333 N   0  0  0  0  0  0  0  0  0  0  0  0
    7.2418  -12.6737   18.0339 N   0  0  0  0  0  0  0  0  0  0  0  0
    6.9968  -13.1321   19.3635 C   0  0  0  0  0  0  0  0  0  0  0  0
    8.1551  -13.8670   19.9760 C   0  0  0  0  0  0  0  0  0  0  0  0
    7.8809  -14.3650   21.3666 C   0  0  0  0  0  0  0  0  0  0  0  0
    9.0043  -15.1681   21.9650 C   0  0  2  0  0  0  0  0  0  0  0  0
    9.1402  -16.3549   21.1302 N   0  0  0  0  0  0  0  0  0  0  0  0
    8.7510  -15.5619   23.3865 C   0  0  0  0  0  0  0  0  0  0  0  0
    7.6558  -15.3317   23.9542 O   0  0  0  0  0  0  0  0  0  0  0  0
    7.8406  -11.8347   15.7530 N   0  0  0  0  0  0  0  0  0  0  0  0
    9.7440  -16.2146   24.1557 C   0  0  1  0  0  0  0  0  0  0  0  0
    9.4906  -16.8161   25.4686 C   0  0  0  0  0  0  0  0  0  0  0  0
    9.0580  -18.2253   25.4017 C   0  0  0  0  0  0  0  0  0  0  0  0
    7.7375  -18.6416   24.9895 C   0  0  0  0  0  0  0  0  0  0  0  0
    7.2062  -19.9606   24.8090 C   0  0  0  0  0  0  0  0  0  0  0  0
    5.8792  -20.3078   24.3173 N   0  0  0  0  0  0  0  0  0  0  0  0
    5.7959  -21.8031   24.3218 C   0  0  0  0  0  0  0  0  0  0  0  0
   10.5857  -16.4415   26.3519 O   0  0  0  0  0  0  0  0  0  0  0  0
   11.7633  -15.9041   25.8699 O   0  0  0  0  0  0  0  0  0  0  0  0
  2  1  1  1
  2  3  1  0
  4  3  1  0
  4  8  1  0
  5  4  2  0
  6  2  1  0
  6  7  2  0
  9 10  1  0
 10 12  1  0
 11 10  2  0
 12 13  1  0
 13 14  1  0
 15 14  1  0
 16 15  1  6
 16 17  1  0
 17  6  1  0
 18 16  1  0
 19 18  2  0
 20 18  1  0
 21 22  1  1
 21 20  1  0
 22 23  1  0
 23 24  1  0
 25 24  1  0
 26 25  1  0
 27 28  1  0
 27 21  1  0
 29 27  2  0
M  END
$$$$
