DRK.pdb
     RDKit          3D

 29 28  0  0  1  0  0  0  0  0999 V2000
   11.4425  -16.9087   19.5508 N   0  0  0  0  0  0  0  0  0  0  0  0
   12.3643  -16.3014   20.5341 C   0  0  1  0  0  0  0  0  0  0  0  0
   13.1009  -15.1668   19.8747 C   0  0  0  0  0  0  0  0  0  0  0  0
   14.3550  -15.5772   19.2478 C   0  0  0  0  0  0  0  0  0  0  0  0
   14.6036  -16.8247   19.2193 O   0  0  0  0  0  0  0  0  0  0  0  0
   11.5875  -15.8915   21.7335 C   0  0  0  0  0  0  0  0  0  0  0  0
   12.0671  -15.5376   22.8275 O   0  0  0  0  0  0  0  0  0  0  0  0
   15.2931  -14.7591   18.6888 O   0  0  0  0  0  0  0  0  0  0  0  0
    8.3721  -11.6470   18.8487 N   0  0  0  0  0  0  0  0  0  0  0  0
    7.8848  -12.9209   18.4901 C   0  0  0  0  0  0  0  0  0  0  0  0
    8.1941  -13.4194   17.3443 N   0  0  0  0  0  0  0  0  0  0  0  0
    7.0588  -13.7027   19.3325 N   0  0  0  0  0  0  0  0  0  0  0  0
    6.8139  -13.4669   20.7190 C   0  0  0  0  0  0  0  0  0  0  0  0
    7.9981  -13.7441   21.6009 C   0  0  0  0  0  0  0  0  0  0  0  0
    7.9932  -15.1243   22.1945 C   0  0  0  0  0  0  0  0  0  0  0  0
    9.3138  -15.5468   22.7797 C   0  0  2  0  0  0  0  0  0  0  0  0
   10.1630  -15.8950   21.6476 N   0  0  0  0  0  0  0  0  0  0  0  0
    9.1956  -16.7096   23.7145 C   0  0  0  0  0  0  0  0  0  0  0  0
    8.9938  -17.8768   23.3002 O   0  0  0  0  0  0  0  0  0  0  0  0
    7.8709  -14.3638   17.0607 N   0  0  0  0  0  0  0  0  0  0  0  0
    9.3066  -16.5396   25.1153 C   0  0  1  0  0  0  0  0  0  0  0  0
    9.0574  -17.6096   26.0864 C   0  0  0  0  0  0  0  0  0  0  0  0
    9.9450  -17.5599   27.2642 C   0  0  0  0  0  0  0  0  0  0  0  0
    9.9543  -18.5608   28.3059 C   0  0  0  0  0  0  0  0  0  0  0  0
   10.7794  -18.6617   29.4736 C   0  0  0  0  0  0  0  0  0  0  0  0
   10.7536  -19.7226   30.4721 N   0  0  0  0  0  0  0  0  0  0  0  0
   11.7468  -19.3449   31.5275 C   0  0  0  0  0  0  0  0  0  0  0  0
    7.6177  -17.7171   26.2751 O   0  0  0  0  0  0  0  0  0  0  0  0
    7.0246  -18.8771   26.7339 O   0  0  0  0  0  0  0  0  0  0  0  0
  2  1  1  6
  2  3  1  0
  4  3  1  0
  4  8  1  0
  5  4  2  0
  6  2  1  0
  6  7  2  0
  9 10  1  0
 10 12  1  0
 11 10  2  0
 12 13  1  0
 13 14  1  0
 15 14  1  0
 16 15  1  6
 16 17  1  0
 17  6  1  0
 18 16  1  0
 19 18  2  0
 20 18  1  0
 21 22  1  6
 21 20  1  0
 22 23  1  0
 23 24  1  0
 25 24  1  0
 26 25  1  0
 27 28  1  0
 27 21  1  0
 29 27  2  0
M  END
$$$$
