DRK.pdb
     RDKit          3D

 29 28  0  0  1  0  0  0  0  0999 V2000
   10.5731  -20.4956   17.4857 N   0  0  0  0  0  0  0  0  0  0  0  0
   11.8259  -19.7137   17.5534 C   0  0  1  0  0  0  0  0  0  0  0  0
   12.1457  -19.1866   16.1805 C   0  0  0  0  0  0  0  0  0  0  0  0
   13.4645  -18.5646   16.0917 C   0  0  0  0  0  0  0  0  0  0  0  0
   13.6411  -17.4916   16.7523 O   0  0  0  0  0  0  0  0  0  0  0  0
   11.6750  -18.6499   18.5808 C   0  0  0  0  0  0  0  0  0  0  0  0
   12.6030  -18.1040   19.2077 O   0  0  0  0  0  0  0  0  0  0  0  0
   14.5312  -19.0145   15.3695 O   0  0  0  0  0  0  0  0  0  0  0  0
    7.6033  -12.4709   22.7935 N   0  0  0  0  0  0  0  0  0  0  0  0
    7.6174  -12.6629   21.3964 C   0  0  0  0  0  0  0  0  0  0  0  0
    8.4438  -11.9927   20.6719 N   0  0  0  0  0  0  0  0  0  0  0  0
    6.7599  -13.5686   20.7275 N   0  0  0  0  0  0  0  0  0  0  0  0
    7.1709  -14.6384   19.8762 C   0  0  0  0  0  0  0  0  0  0  0  0
    8.3778  -15.3817   20.3739 C   0  0  0  0  0  0  0  0  0  0  0  0
    8.8420  -16.4639   19.4409 C   0  0  0  0  0  0  0  0  0  0  0  0
   10.1080  -17.1509   19.8771 C   0  0  2  0  0  0  0  0  0  0  0  0
   10.3584  -18.1964   18.8932 N   0  0  0  0  0  0  0  0  0  0  0  0
   10.0111  -17.7432   21.2481 C   0  0  0  0  0  0  0  0  0  0  0  0
    9.2713  -18.7261   21.4959 O   0  0  0  0  0  0  0  0  0  0  0  0
    8.4817  -12.1146   19.6421 N   0  0  0  0  0  0  0  0  0  0  0  0
   10.7549  -17.2151   22.3304 C   0  0  2  0  0  0  0  0  0  0  0  0
   10.7553  -17.7958   23.6767 C   0  0  0  0  0  0  0  0  0  0  0  0
   12.0987  -18.1655   24.1626 C   0  0  0  0  0  0  0  0  0  0  0  0
   12.3483  -18.7756   25.4480 C   0  0  0  0  0  0  0  0  0  0  0  0
   13.5780  -19.2403   26.0195 C   0  0  0  0  0  0  0  0  0  0  0  0
   13.7463  -19.9117   27.3017 N   0  0  0  0  0  0  0  0  0  0  0  0
   15.2085  -20.2012   27.4476 C   0  0  0  0  0  0  0  0  0  0  0  0
    9.8861  -16.9830   24.5155 O   0  0  0  0  0  0  0  0  0  0  0  0
    9.3310  -17.4706   25.6825 O   0  0  0  0  0  0  0  0  0  0  0  0
  2  1  1  6
  2  3  1  0
  4  3  1  0
  4  8  1  0
  5  4  2  0
  6  2  1  0
  6  7  2  0
  9 10  1  0
 10 12  1  0
 11 10  2  0
 12 13  1  0
 13 14  1  0
 15 14  1  0
 16 15  1  6
 16 17  1  0
 17  6  1  0
 18 16  1  0
 19 18  2  0
 20 18  1  0
 21 22  1  6
 21 20  1  0
 22 23  1  0
 23 24  1  0
 25 24  1  0
 26 25  1  0
 27 28  1  0
 27 21  1  0
 29 27  2  0
M  END
$$$$
