DRK.pdb
     RDKit          3D

 29 28  0  0  1  0  0  0  0  0999 V2000
    9.0801  -18.1957   18.6972 N   0  0  0  0  0  0  0  0  0  0  0  0
    8.5642  -16.8190   18.8514 C   0  0  1  0  0  0  0  0  0  0  0  0
    7.7384  -16.4703   17.6426 C   0  0  0  0  0  0  0  0  0  0  0  0
    8.4912  -16.5240   16.3918 C   0  0  0  0  0  0  0  0  0  0  0  0
    7.9312  -16.0319   15.3608 O   0  0  0  0  0  0  0  0  0  0  0  0
    7.8159  -16.7255   20.1325 C   0  0  0  0  0  0  0  0  0  0  0  0
    7.1908  -15.7284   20.5413 O   0  0  0  0  0  0  0  0  0  0  0  0
    9.7369  -17.0510   16.2118 O   0  0  0  0  0  0  0  0  0  0  0  0
    4.0355  -23.3246   24.4338 N   0  0  0  0  0  0  0  0  0  0  0  0
    5.2481  -22.7522   23.9970 C   0  0  0  0  0  0  0  0  0  0  0  0
    6.2142  -22.5970   24.8333 N   0  0  0  0  0  0  0  0  0  0  0  0
    5.4729  -22.3295   22.6651 N   0  0  0  0  0  0  0  0  0  0  0  0
    6.6545  -21.6953   22.1755 C   0  0  0  0  0  0  0  0  0  0  0  0
    6.4597  -20.2537   21.8007 C   0  0  0  0  0  0  0  0  0  0  0  0
    7.1178  -19.2934   22.7503 C   0  0  0  0  0  0  0  0  0  0  0  0
    7.1196  -17.8646   22.2774 C   0  0  2  0  0  0  0  0  0  0  0  0
    7.7968  -17.8684   20.9870 N   0  0  0  0  0  0  0  0  0  0  0  0
    7.8135  -16.9350   23.2230 C   0  0  0  0  0  0  0  0  0  0  0  0
    9.0644  -16.8448   23.2672 O   0  0  0  0  0  0  0  0  0  0  0  0
    7.1471  -22.2625   24.5254 N   0  0  0  0  0  0  0  0  0  0  0  0
    7.0823  -16.1133   24.1139 C   0  0  2  0  0  0  0  0  0  0  0  0
    7.6968  -15.0932   24.9692 C   0  0  0  0  0  0  0  0  0  0  0  0
    6.8519  -13.9002   25.1700 C   0  0  0  0  0  0  0  0  0  0  0  0
    7.2331  -12.7749   25.9917 C   0  0  0  0  0  0  0  0  0  0  0  0
    6.5148  -11.5703   26.2877 C   0  0  0  0  0  0  0  0  0  0  0  0
    6.9697  -10.4646   27.1207 N   0  0  0  0  0  0  0  0  0  0  0  0
    5.8551   -9.4650   27.1557 C   0  0  0  0  0  0  0  0  0  0  0  0
    8.2766  -15.7660   26.1230 O   0  0  0  0  0  0  0  0  0  0  0  0
    9.4393  -15.3211   26.7213 O   0  0  0  0  0  0  0  0  0  0  0  0
  2  1  1  6
  2  3  1  0
  4  3  1  0
  4  8  1  0
  5  4  2  0
  6  2  1  0
  6  7  2  0
  9 10  1  0
 10 12  1  0
 11 10  2  0
 12 13  1  0
 13 14  1  0
 15 14  1  0
 16 15  1  1
 16 17  1  0
 17  6  1  0
 18 16  1  0
 19 18  2  0
 20 18  1  0
 21 22  1  6
 21 20  1  0
 22 23  1  0
 23 24  1  0
 25 24  1  0
 26 25  1  0
 27 28  1  0
 27 21  1  0
 29 27  2  0
M  END
$$$$
