DRK.pdb
     RDKit          3D

 29 28  0  0  1  0  0  0  0  0999 V2000
   12.9469  -16.2120   19.3777 N   0  0  0  0  0  0  0  0  0  0  0  0
   13.3724  -15.0918   20.2434 C   0  0  1  0  0  0  0  0  0  0  0  0
   14.0418  -14.0463   19.3927 C   0  0  0  0  0  0  0  0  0  0  0  0
   15.3885  -14.4206   18.9679 C   0  0  0  0  0  0  0  0  0  0  0  0
   15.8471  -15.5217   19.4106 O   0  0  0  0  0  0  0  0  0  0  0  0
   12.1918  -14.5858   20.9917 C   0  0  0  0  0  0  0  0  0  0  0  0
   12.1894  -13.6307   21.7917 O   0  0  0  0  0  0  0  0  0  0  0  0
   16.2108  -13.7089   18.1438 O   0  0  0  0  0  0  0  0  0  0  0  0
    9.2218  -14.5310   16.0407 N   0  0  0  0  0  0  0  0  0  0  0  0
    7.8647  -14.1870   16.2103 C   0  0  0  0  0  0  0  0  0  0  0  0
    7.2730  -13.4774   15.3140 N   0  0  0  0  0  0  0  0  0  0  0  0
    7.0961  -14.5843   17.3304 N   0  0  0  0  0  0  0  0  0  0  0  0
    7.5278  -15.4539   18.3770 C   0  0  0  0  0  0  0  0  0  0  0  0
    8.6372  -14.8889   19.2177 C   0  0  0  0  0  0  0  0  0  0  0  0
    8.5758  -15.3163   20.6567 C   0  0  0  0  0  0  0  0  0  0  0  0
    9.7273  -14.8271   21.4932 C   0  0  2  0  0  0  0  0  0  0  0  0
   10.9373  -15.2361   20.7914 N   0  0  0  0  0  0  0  0  0  0  0  0
    9.7214  -15.3847   22.8821 C   0  0  0  0  0  0  0  0  0  0  0  0
   10.5667  -16.2310   23.2614 O   0  0  0  0  0  0  0  0  0  0  0  0
    6.2925  -13.1603   15.4361 N   0  0  0  0  0  0  0  0  0  0  0  0
    8.7544  -14.9780   23.8324 C   0  0  2  0  0  0  0  0  0  0  0  0
    8.7229  -15.4590   25.2172 C   0  0  0  0  0  0  0  0  0  0  0  0
    7.7448  -14.7538   26.0678 C   0  0  0  0  0  0  0  0  0  0  0  0
    7.5578  -13.3214   26.0588 C   0  0  0  0  0  0  0  0  0  0  0  0
    6.4130  -12.5435   26.4313 C   0  0  0  0  0  0  0  0  0  0  0  0
    6.3131  -11.0899   26.4491 N   0  0  0  0  0  0  0  0  0  0  0  0
    4.9064  -10.7597   26.8429 C   0  0  0  0  0  0  0  0  0  0  0  0
    8.7309  -16.9147   25.1861 O   0  0  0  0  0  0  0  0  0  0  0  0
    8.3296  -17.6248   24.0714 O   0  0  0  0  0  0  0  0  0  0  0  0
  2  1  1  6
  2  3  1  0
  4  3  1  0
  4  8  1  0
  5  4  2  0
  6  2  1  0
  6  7  2  0
  9 10  1  0
 10 12  1  0
 11 10  2  0
 12 13  1  0
 13 14  1  0
 15 14  1  0
 16 15  1  6
 16 17  1  0
 17  6  1  0
 18 16  1  0
 19 18  2  0
 20 18  1  0
 21 22  1  6
 21 20  1  0
 22 23  1  0
 23 24  1  0
 25 24  1  0
 26 25  1  0
 27 28  1  0
 27 21  1  0
 29 27  2  0
M  END
$$$$
