DRK.pdb
     RDKit          3D

 29 28  0  0  1  0  0  0  0  0999 V2000
   10.8225  -18.4250   17.3809 N   0  0  0  0  0  0  0  0  0  0  0  0
   10.4206  -19.2864   18.5130 C   0  0  1  0  0  0  0  0  0  0  0  0
   11.2822  -20.5203   18.5157 C   0  0  0  0  0  0  0  0  0  0  0  0
   11.3973  -21.1492   17.2022 C   0  0  0  0  0  0  0  0  0  0  0  0
   10.8176  -20.5658   16.2314 O   0  0  0  0  0  0  0  0  0  0  0  0
   10.5029  -18.4985   19.7710 C   0  0  0  0  0  0  0  0  0  0  0  0
   11.4487  -17.7619   20.1101 O   0  0  0  0  0  0  0  0  0  0  0  0
   12.0625  -22.3032   16.9061 O   0  0  0  0  0  0  0  0  0  0  0  0
    8.0767  -11.7247   21.0389 N   0  0  0  0  0  0  0  0  0  0  0  0
    8.2595  -12.6216   19.9660 C   0  0  0  0  0  0  0  0  0  0  0  0
    8.7811  -12.1992   18.8676 N   0  0  0  0  0  0  0  0  0  0  0  0
    7.8975  -13.9885   20.0251 N   0  0  0  0  0  0  0  0  0  0  0  0
    8.2242  -14.8971   21.0766 C   0  0  0  0  0  0  0  0  0  0  0  0
    7.6531  -16.2739   20.8893 C   0  0  0  0  0  0  0  0  0  0  0  0
    7.9905  -17.2197   22.0068 C   0  0  0  0  0  0  0  0  0  0  0  0
    9.3754  -17.8028   21.9222 C   0  0  2  0  0  0  0  0  0  0  0  0
    9.4119  -18.5764   20.6877 N   0  0  0  0  0  0  0  0  0  0  0  0
    9.7166  -18.6749   23.0895 C   0  0  0  0  0  0  0  0  0  0  0  0
    8.9684  -19.6121   23.4592 O   0  0  0  0  0  0  0  0  0  0  0  0
    8.9129  -12.8300   18.0542 N   0  0  0  0  0  0  0  0  0  0  0  0
   10.9059  -18.4771   23.8311 C   0  0  2  0  0  0  0  0  0  0  0  0
   11.3075  -19.3178   24.9633 C   0  0  0  0  0  0  0  0  0  0  0  0
   12.5857  -20.0246   24.7530 C   0  0  0  0  0  0  0  0  0  0  0  0
   12.9114  -20.7547   23.5498 C   0  0  0  0  0  0  0  0  0  0  0  0
   14.1187  -21.4388   23.1906 C   0  0  0  0  0  0  0  0  0  0  0  0
   14.3562  -22.2135   21.9795 N   0  0  0  0  0  0  0  0  0  0  0  0
   15.7445  -22.7649   22.0863 C   0  0  0  0  0  0  0  0  0  0  0  0
   11.1017  -18.5525   26.1847 O   0  0  0  0  0  0  0  0  0  0  0  0
   11.2282  -19.1237   27.4359 O   0  0  0  0  0  0  0  0  0  0  0  0
  2  1  1  6
  2  3  1  0
  4  3  1  0
  4  8  1  0
  5  4  2  0
  6  2  1  0
  6  7  2  0
  9 10  1  0
 10 12  1  0
 11 10  2  0
 12 13  1  0
 13 14  1  0
 15 14  1  0
 16 15  1  1
 16 17  1  0
 17  6  1  0
 18 16  1  0
 19 18  2  0
 20 18  1  0
 21 22  1  6
 21 20  1  0
 22 23  1  0
 23 24  1  0
 25 24  1  0
 26 25  1  0
 27 28  1  0
 27 21  1  0
 29 27  2  0
M  END
$$$$
