DRK.pdb
     RDKit          3D

 29 28  0  0  1  0  0  0  0  0999 V2000
   11.8303  -18.2460   20.7771 N   0  0  0  0  0  0  0  0  0  0  0  0
   12.8033  -18.2315   21.8899 C   0  0  1  0  0  0  0  0  0  0  0  0
   14.1457  -17.8083   21.3573 C   0  0  0  0  0  0  0  0  0  0  0  0
   14.6673  -18.7016   20.3258 C   0  0  0  0  0  0  0  0  0  0  0  0
   13.9057  -19.6460   19.9426 O   0  0  0  0  0  0  0  0  0  0  0  0
   12.2860  -17.3519   22.9709 C   0  0  0  0  0  0  0  0  0  0  0  0
   12.9693  -16.5900   23.6814 O   0  0  0  0  0  0  0  0  0  0  0  0
   15.8923  -18.6305   19.7288 O   0  0  0  0  0  0  0  0  0  0  0  0
    6.4515  -12.9462   19.7961 N   0  0  0  0  0  0  0  0  0  0  0  0
    7.8403  -13.0450   19.5719 C   0  0  0  0  0  0  0  0  0  0  0  0
    8.3472  -12.5454   18.4993 N   0  0  0  0  0  0  0  0  0  0  0  0
    8.7308  -13.6730   20.4750 N   0  0  0  0  0  0  0  0  0  0  0  0
    8.3637  -14.3687   21.6663 C   0  0  0  0  0  0  0  0  0  0  0  0
    9.5298  -14.9480   22.4156 C   0  0  0  0  0  0  0  0  0  0  0  0
    9.1265  -15.8148   23.5746 C   0  0  0  0  0  0  0  0  0  0  0  0
   10.2762  -16.5117   24.2509 C   0  0  2  0  0  0  0  0  0  0  0  0
   10.8838  -17.3635   23.2364 N   0  0  0  0  0  0  0  0  0  0  0  0
    9.8535  -17.3317   25.4293 C   0  0  0  0  0  0  0  0  0  0  0  0
    9.2962  -18.4480   25.2957 O   0  0  0  0  0  0  0  0  0  0  0  0
    9.3626  -12.6168   18.2973 N   0  0  0  0  0  0  0  0  0  0  0  0
   10.0657  -16.8784   26.7533 C   0  0  1  0  0  0  0  0  0  0  0  0
   10.2496  -17.7739   27.8996 C   0  0  0  0  0  0  0  0  0  0  0  0
   11.1622  -18.9018   27.6305 C   0  0  0  0  0  0  0  0  0  0  0  0
   11.5175  -19.8997   28.6128 C   0  0  0  0  0  0  0  0  0  0  0  0
   12.3484  -21.0604   28.4821 C   0  0  0  0  0  0  0  0  0  0  0  0
   12.6190  -22.0605   29.5067 N   0  0  0  0  0  0  0  0  0  0  0  0
   13.3849  -23.1622   28.8414 C   0  0  0  0  0  0  0  0  0  0  0  0
   10.4537  -16.9506   29.0831 O   0  0  0  0  0  0  0  0  0  0  0  0
   10.2243  -17.4317   30.3573 O   0  0  0  0  0  0  0  0  0  0  0  0
  2  1  1  6
  2  3  1  0
  4  3  1  0
  4  8  1  0
  5  4  2  0
  6  2  1  0
  6  7  2  0
  9 10  1  0
 10 12  1  0
 11 10  2  0
 12 13  1  0
 13 14  1  0
 15 14  1  0
 16 15  1  6
 16 17  1  0
 17  6  1  0
 18 16  1  0
 19 18  2  0
 20 18  1  0
 21 22  1  6
 21 20  1  0
 22 23  1  0
 23 24  1  0
 25 24  1  0
 26 25  1  0
 27 28  1  0
 27 21  1  0
 29 27  2  0
M  END
$$$$
