DRK.pdb
     RDKit          3D

 29 28  0  0  1  0  0  0  0  0999 V2000
   10.8881  -18.9025   19.9239 N   0  0  0  0  0  0  0  0  0  0  0  0
   12.1011  -18.0742   20.0914 C   0  0  1  0  0  0  0  0  0  0  0  0
   12.5695  -17.6174   18.7361 C   0  0  0  0  0  0  0  0  0  0  0  0
   13.1073  -18.6988   17.9144 C   0  0  0  0  0  0  0  0  0  0  0  0
   12.3690  -19.7226   17.7543 O   0  0  0  0  0  0  0  0  0  0  0  0
   11.7972  -16.9581   21.0251 C   0  0  0  0  0  0  0  0  0  0  0  0
   12.5715  -16.0312   21.3308 O   0  0  0  0  0  0  0  0  0  0  0  0
   14.3250  -18.7274   17.2993 O   0  0  0  0  0  0  0  0  0  0  0  0
    6.8646  -12.3287   19.8001 N   0  0  0  0  0  0  0  0  0  0  0  0
    7.6826  -13.1260   18.9730 C   0  0  0  0  0  0  0  0  0  0  0  0
    7.2528  -13.4883   17.8150 N   0  0  0  0  0  0  0  0  0  0  0  0
    8.9765  -13.5610   19.3465 N   0  0  0  0  0  0  0  0  0  0  0  0
    9.3345  -14.1482   20.5976 C   0  0  0  0  0  0  0  0  0  0  0  0
    8.2967  -15.0842   21.1486 C   0  0  0  0  0  0  0  0  0  0  0  0
    8.6739  -15.6843   22.4733 C   0  0  0  0  0  0  0  0  0  0  0  0
   10.1496  -15.9284   22.6401 C   0  0  2  0  0  0  0  0  0  0  0  0
   10.5089  -16.9238   21.6381 N   0  0  0  0  0  0  0  0  0  0  0  0
   10.5121  -16.4167   24.0075 C   0  0  0  0  0  0  0  0  0  0  0  0
    9.7837  -16.1976   25.0056 O   0  0  0  0  0  0  0  0  0  0  0  0
    7.8082  -14.1178   17.2050 N   0  0  0  0  0  0  0  0  0  0  0  0
   11.7009  -17.1510   24.2338 C   0  0  1  0  0  0  0  0  0  0  0  0
   12.0292  -17.7936   25.5102 C   0  0  0  0  0  0  0  0  0  0  0  0
   11.0893  -18.8644   25.8941 C   0  0  0  0  0  0  0  0  0  0  0  0
   11.2527  -19.6953   27.0644 C   0  0  0  0  0  0  0  0  0  0  0  0
   10.4825  -20.8212   27.5047 C   0  0  0  0  0  0  0  0  0  0  0  0
   10.6816  -21.5918   28.7252 N   0  0  0  0  0  0  0  0  0  0  0  0
    9.5220  -22.5333   28.8341 C   0  0  0  0  0  0  0  0  0  0  0  0
   13.4615  -18.0549   25.5248 O   0  0  0  0  0  0  0  0  0  0  0  0
   14.1512  -18.2850   26.6992 O   0  0  0  0  0  0  0  0  0  0  0  0
  2  1  1  6
  2  3  1  0
  4  3  1  0
  4  8  1  0
  5  4  2  0
  6  2  1  0
  6  7  2  0
  9 10  1  0
 10 12  1  0
 11 10  2  0
 12 13  1  0
 13 14  1  0
 15 14  1  0
 16 15  1  1
 16 17  1  0
 17  6  1  0
 18 16  1  0
 19 18  2  0
 20 18  1  0
 21 22  1  1
 21 20  1  0
 22 23  1  0
 23 24  1  0
 25 24  1  0
 26 25  1  0
 27 28  1  0
 27 21  1  0
 29 27  2  0
M  END
$$$$
