IQN.pdb
     RDKit          3D

 26 25  0  0  1  0  0  0  0  0999 V2000
    6.6218  -11.7482   27.4205 C   0  0  0  0  0  0  0  0  0  0  0  0
    5.9927  -12.9317   26.6889 C   0  0  0  0  0  0  0  0  0  0  0  0
    7.0676  -13.6295   25.8893 C   0  0  2  0  0  0  0  0  0  0  0  0
    7.7827  -12.6574   24.9621 C   0  0  0  0  0  0  0  0  0  0  0  0
    6.5719  -14.8331   25.1277 C   0  0  2  0  0  0  0  0  0  0  0  0
    5.8649  -15.6657   26.0666 N   0  0  0  0  0  0  0  0  0  0  0  0
    7.5948  -15.5291   24.3613 C   0  0  0  0  0  0  0  0  0  0  0  0
    8.0603  -16.6073   24.8049 O   0  0  0  0  0  0  0  0  0  0  0  0
    8.3730  -17.8101   19.7483 N   0  0  0  0  0  0  0  0  0  0  0  0
    7.1663  -17.0738   19.8494 C   0  0  0  0  0  0  0  0  0  0  0  0
    6.0622  -17.5926   19.5650 O   0  0  0  0  0  0  0  0  0  0  0  0
    7.2431  -15.6648   20.3030 C   0  0  0  0  0  0  0  0  0  0  0  0
    8.6350  -15.3793   20.7626 C   0  0  0  0  0  0  0  0  0  0  0  0
    8.8987  -15.7871   22.1988 C   0  0  2  0  0  0  0  0  0  0  0  0
    8.0913  -15.0339   23.1225 N   0  0  0  0  0  0  0  0  0  0  0  0
   10.3387  -15.5939   22.4211 C   0  0  0  0  0  0  0  0  0  0  0  0
   11.1581  -15.8070   21.5202 O   0  0  0  0  0  0  0  0  0  0  0  0
   13.0877  -17.7171   26.0767 N   0  0  0  0  0  0  0  0  0  0  0  0
   11.6725  -17.9890   25.9320 C   0  0  0  0  0  0  0  0  0  0  0  0
   11.1739  -18.9804   26.5076 O   0  0  0  0  0  0  0  0  0  0  0  0
   10.8474  -17.0972   25.1122 C   0  0  0  0  0  0  0  0  0  0  0  0
   11.6370  -15.9929   24.5005 C   0  0  2  0  0  0  0  0  0  0  0  0
   10.7878  -15.1558   23.6928 N   0  0  0  0  0  0  0  0  0  0  0  0
   12.7816  -16.5367   23.7075 C   0  0  0  0  0  0  0  0  0  0  0  0
   12.4872  -17.2289   22.5450 O   0  0  0  0  0  0  0  0  0  0  0  0
   13.9846  -16.4003   24.0364 O   0  0  0  0  0  0  0  0  0  0  0  0
  1  2  1  0
  2  3  1  0
  3  5  1  0
  3  4  1  6
  5  7  1  0
  5  6  1  1
  7  8  2  0
 10  9  1  0
 11 10  2  0
 12 10  1  0
 14 13  1  6
 13 12  1  0
 15 14  1  0
 15  7  1  0
 16 14  1  0
 17 16  2  0
 19 18  1  0
 19 20  2  0
 21 19  1  0
 22 21  1  6
 22 23  1  0
 23 16  1  0
 24 25  1  0
 24 22  1  0
 26 24  2  0
M  END
$$$$
