IQN.pdb
     RDKit          3D

 26 25  0  0  1  0  0  0  0  0999 V2000
    5.8447  -11.5343   26.6237 C   0  0  0  0  0  0  0  0  0  0  0  0
    5.5931  -12.8238   25.8454 C   0  0  0  0  0  0  0  0  0  0  0  0
    6.8865  -13.6006   25.7706 C   0  0  2  0  0  0  0  0  0  0  0  0
    8.0110  -12.7446   25.2060 C   0  0  0  0  0  0  0  0  0  0  0  0
    6.7699  -14.9012   25.0162 C   0  0  2  0  0  0  0  0  0  0  0  0
    5.5478  -15.5310   25.4457 N   0  0  0  0  0  0  0  0  0  0  0  0
    7.9451  -15.7560   25.0963 C   0  0  0  0  0  0  0  0  0  0  0  0
    8.1829  -16.3657   26.1675 O   0  0  0  0  0  0  0  0  0  0  0  0
   11.2042  -18.0507   20.5083 N   0  0  0  0  0  0  0  0  0  0  0  0
   10.2185  -17.0382   20.3993 C   0  0  0  0  0  0  0  0  0  0  0  0
    9.5690  -16.8744   19.3408 O   0  0  0  0  0  0  0  0  0  0  0  0
    9.9732  -16.1719   21.5766 C   0  0  0  0  0  0  0  0  0  0  0  0
   10.7888  -16.6713   22.7236 C   0  0  0  0  0  0  0  0  0  0  0  0
   10.0203  -16.7536   24.0279 C   0  0  2  0  0  0  0  0  0  0  0  0
    8.8403  -15.9294   24.0031 N   0  0  0  0  0  0  0  0  0  0  0  0
   10.9628  -16.3571   25.0838 C   0  0  0  0  0  0  0  0  0  0  0  0
   11.7081  -15.3810   24.9408 O   0  0  0  0  0  0  0  0  0  0  0  0
   10.6324  -14.1478   28.8672 N   0  0  0  0  0  0  0  0  0  0  0  0
   10.3956  -15.5099   28.4357 C   0  0  0  0  0  0  0  0  0  0  0  0
    9.2827  -15.8200   27.9583 O   0  0  0  0  0  0  0  0  0  0  0  0
   11.4651  -16.5036   28.5664 C   0  0  0  0  0  0  0  0  0  0  0  0
   12.0532  -16.8836   27.2523 C   0  0  2  0  0  0  0  0  0  0  0  0
   11.0124  -17.1117   26.2834 N   0  0  0  0  0  0  0  0  0  0  0  0
   12.9387  -18.0795   27.3945 C   0  0  0  0  0  0  0  0  0  0  0  0
   14.0321  -17.9736   28.2374 O   0  0  0  0  0  0  0  0  0  0  0  0
   12.7457  -19.1650   26.7959 O   0  0  0  0  0  0  0  0  0  0  0  0
  1  2  1  0
  2  3  1  0
  3  5  1  0
  3  4  1  6
  5  7  1  0
  5  6  1  1
  7  8  2  0
 10  9  1  0
 11 10  2  0
 12 10  1  0
 14 13  1  6
 13 12  1  0
 15 14  1  0
 15  7  1  0
 16 14  1  0
 17 16  2  0
 19 18  1  0
 19 20  2  0
 21 19  1  0
 22 21  1  1
 22 23  1  0
 23 16  1  0
 24 25  1  0
 24 22  1  0
 26 24  2  0
M  END
$$$$
