IQN.pdb
     RDKit          3D

 26 25  0  0  1  0  0  0  0  0999 V2000
    6.9163  -11.6353   26.8908 C   0  0  0  0  0  0  0  0  0  0  0  0
    6.2521  -12.7476   26.0824 C   0  0  0  0  0  0  0  0  0  0  0  0
    7.3017  -13.7720   25.7207 C   0  0  2  0  0  0  0  0  0  0  0  0
    8.4609  -13.1315   24.9710 C   0  0  0  0  0  0  0  0  0  0  0  0
    6.7576  -14.9552   24.9602 C   0  0  2  0  0  0  0  0  0  0  0  0
    5.6753  -15.4978   25.7405 N   0  0  0  0  0  0  0  0  0  0  0  0
    7.7594  -15.9334   24.5631 C   0  0  0  0  0  0  0  0  0  0  0  0
    8.1120  -16.8129   25.3865 O   0  0  0  0  0  0  0  0  0  0  0  0
    8.9558  -17.8550   19.2517 N   0  0  0  0  0  0  0  0  0  0  0  0
   10.2453  -18.2394   19.6965 C   0  0  0  0  0  0  0  0  0  0  0  0
   10.8971  -19.1319   19.1070 O   0  0  0  0  0  0  0  0  0  0  0  0
   10.8078  -17.5547   20.8846 C   0  0  0  0  0  0  0  0  0  0  0  0
    9.8005  -16.5832   21.4057 C   0  0  0  0  0  0  0  0  0  0  0  0
    9.3773  -16.8522   22.8365 C   0  0  2  0  0  0  0  0  0  0  0  0
    8.3586  -15.9329   23.2718 N   0  0  0  0  0  0  0  0  0  0  0  0
   10.5997  -16.7647   23.6479 C   0  0  0  0  0  0  0  0  0  0  0  0
   11.1657  -15.6814   23.8352 O   0  0  0  0  0  0  0  0  0  0  0  0
   10.0618  -19.7673   27.0881 N   0  0  0  0  0  0  0  0  0  0  0  0
   11.1479  -18.8096   27.0568 C   0  0  0  0  0  0  0  0  0  0  0  0
   11.1426  -17.8463   27.8535 O   0  0  0  0  0  0  0  0  0  0  0  0
   12.2360  -18.9852   26.0907 C   0  0  0  0  0  0  0  0  0  0  0  0
   12.2856  -17.8896   25.0835 C   0  0  2  0  0  0  0  0  0  0  0  0
   11.1328  -17.9466   24.2221 N   0  0  0  0  0  0  0  0  0  0  0  0
   13.5569  -17.9485   24.2993 C   0  0  0  0  0  0  0  0  0  0  0  0
   14.7475  -17.8133   24.9932 O   0  0  0  0  0  0  0  0  0  0  0  0
   13.6023  -18.1127   23.0563 O   0  0  0  0  0  0  0  0  0  0  0  0
  1  2  1  0
  2  3  1  0
  3  5  1  0
  3  4  1  6
  5  7  1  0
  5  6  1  1
  7  8  2  0
 10  9  1  0
 11 10  2  0
 12 10  1  0
 14 13  1  6
 13 12  1  0
 15 14  1  0
 15  7  1  0
 16 14  1  0
 17 16  2  0
 19 18  1  0
 19 20  2  0
 21 19  1  0
 22 21  1  1
 22 23  1  0
 23 16  1  0
 24 25  1  0
 24 22  1  0
 26 24  2  0
M  END
$$$$
