IQN.pdb
     RDKit          3D

 26 25  0  0  1  0  0  0  0  0999 V2000
    6.7376  -11.5219   27.9305 C   0  0  0  0  0  0  0  0  0  0  0  0
    6.0029  -12.6606   27.2266 C   0  0  0  0  0  0  0  0  0  0  0  0
    6.9677  -13.3496   26.2906 C   0  0  2  0  0  0  0  0  0  0  0  0
    7.6174  -12.3550   25.3396 C   0  0  0  0  0  0  0  0  0  0  0  0
    6.3579  -14.5007   25.5307 C   0  0  2  0  0  0  0  0  0  0  0  0
    5.8804  -15.4461   26.5069 N   0  0  0  0  0  0  0  0  0  0  0  0
    7.2196  -15.0774   24.5094 C   0  0  0  0  0  0  0  0  0  0  0  0
    7.8988  -16.0953   24.7892 O   0  0  0  0  0  0  0  0  0  0  0  0
    8.0709  -12.6230   18.7889 N   0  0  0  0  0  0  0  0  0  0  0  0
    8.6588  -13.8931   18.5659 C   0  0  0  0  0  0  0  0  0  0  0  0
    9.1059  -14.2140   17.4406 O   0  0  0  0  0  0  0  0  0  0  0  0
    8.7324  -14.8390   19.7046 C   0  0  0  0  0  0  0  0  0  0  0  0
    8.0862  -14.2130   20.8966 C   0  0  0  0  0  0  0  0  0  0  0  0
    8.1246  -15.0826   22.1379 C   0  0  2  0  0  0  0  0  0  0  0  0
    7.3237  -14.5307   23.1991 N   0  0  0  0  0  0  0  0  0  0  0  0
    9.5419  -15.2062   22.5071 C   0  0  0  0  0  0  0  0  0  0  0  0
   10.1852  -14.2289   22.9069 O   0  0  0  0  0  0  0  0  0  0  0  0
   10.5735  -16.6680   25.4801 N   0  0  0  0  0  0  0  0  0  0  0  0
   11.0937  -17.9186   24.9671 C   0  0  0  0  0  0  0  0  0  0  0  0
   11.0875  -18.9336   25.6967 O   0  0  0  0  0  0  0  0  0  0  0  0
   11.6198  -17.9738   23.6002 C   0  0  0  0  0  0  0  0  0  0  0  0
   11.5131  -16.6663   22.8957 C   0  0  2  0  0  0  0  0  0  0  0  0
   10.1751  -16.4705   22.4001 N   0  0  0  0  0  0  0  0  0  0  0  0
   12.5218  -16.5735   21.7963 C   0  0  0  0  0  0  0  0  0  0  0  0
   12.0508  -16.4697   20.4984 O   0  0  0  0  0  0  0  0  0  0  0  0
   13.7620  -16.5844   21.9854 O   0  0  0  0  0  0  0  0  0  0  0  0
  1  2  1  0
  2  3  1  0
  3  5  1  0
  3  4  1  6
  5  7  1  0
  5  6  1  1
  7  8  2  0
 10  9  1  0
 11 10  2  0
 12 10  1  0
 14 13  1  6
 13 12  1  0
 15 14  1  0
 15  7  1  0
 16 14  1  0
 17 16  2  0
 19 18  1  0
 19 20  2  0
 21 19  1  0
 22 21  1  6
 22 23  1  0
 23 16  1  0
 24 25  1  0
 24 22  1  0
 26 24  2  0
M  END
$$$$
