IQN.pdb
     RDKit          3D

 26 25  0  0  1  0  0  0  0  0999 V2000
    6.5893  -11.4628   27.9667 C   0  0  0  0  0  0  0  0  0  0  0  0
    5.8829  -12.5919   27.2196 C   0  0  0  0  0  0  0  0  0  0  0  0
    6.8629  -13.2175   26.2553 C   0  0  2  0  0  0  0  0  0  0  0  0
    7.4544  -12.1751   25.3174 C   0  0  0  0  0  0  0  0  0  0  0  0
    6.2928  -14.3778   25.4787 C   0  0  2  0  0  0  0  0  0  0  0  0
    5.8661  -15.3614   26.4406 N   0  0  0  0  0  0  0  0  0  0  0  0
    7.1660  -14.8977   24.4369 C   0  0  0  0  0  0  0  0  0  0  0  0
    8.0638  -15.7182   24.7479 O   0  0  0  0  0  0  0  0  0  0  0  0
    7.4741  -12.7130   18.5762 N   0  0  0  0  0  0  0  0  0  0  0  0
    8.1314  -13.9510   18.3665 C   0  0  0  0  0  0  0  0  0  0  0  0
    8.5210  -14.2953   17.2270 O   0  0  0  0  0  0  0  0  0  0  0  0
    8.3480  -14.8344   19.5367 C   0  0  0  0  0  0  0  0  0  0  0  0
    7.6946  -14.2232   20.7324 C   0  0  0  0  0  0  0  0  0  0  0  0
    7.8064  -15.0676   21.9866 C   0  0  2  0  0  0  0  0  0  0  0  0
    7.0423  -14.5113   23.0724 N   0  0  0  0  0  0  0  0  0  0  0  0
    9.2410  -15.1558   22.2938 C   0  0  0  0  0  0  0  0  0  0  0  0
    9.8162  -14.2585   22.9206 O   0  0  0  0  0  0  0  0  0  0  0  0
   11.6804  -16.2986   26.2865 N   0  0  0  0  0  0  0  0  0  0  0  0
   11.8194  -16.1814   24.8496 C   0  0  0  0  0  0  0  0  0  0  0  0
   12.7036  -15.4359   24.3753 O   0  0  0  0  0  0  0  0  0  0  0  0
   10.9202  -16.9388   23.9744 C   0  0  0  0  0  0  0  0  0  0  0  0
   11.1834  -16.6854   22.5309 C   0  0  2  0  0  0  0  0  0  0  0  0
    9.9709  -16.2918   21.8607 N   0  0  0  0  0  0  0  0  0  0  0  0
   11.7990  -17.8854   21.8862 C   0  0  0  0  0  0  0  0  0  0  0  0
   13.0914  -18.2207   22.2531 O   0  0  0  0  0  0  0  0  0  0  0  0
   11.2119  -18.5991   21.0378 O   0  0  0  0  0  0  0  0  0  0  0  0
  1  2  1  0
  2  3  1  0
  3  5  1  0
  3  4  1  6
  5  7  1  0
  5  6  1  1
  7  8  2  0
 10  9  1  0
 11 10  2  0
 12 10  1  0
 14 13  1  6
 13 12  1  0
 15 14  1  0
 15  7  1  0
 16 14  1  0
 17 16  2  0
 19 18  1  0
 19 20  2  0
 21 19  1  0
 22 21  1  1
 22 23  1  0
 23 16  1  0
 24 25  1  0
 24 22  1  0
 26 24  2  0
M  END
$$$$
