IQN.pdb
     RDKit          3D

 26 25  0  0  1  0  0  0  0  0999 V2000
    7.6181  -11.8193   27.5559 C   0  0  0  0  0  0  0  0  0  0  0  0
    6.7254  -12.8930   26.9376 C   0  0  0  0  0  0  0  0  0  0  0  0
    7.4895  -13.5720   25.8255 C   0  0  2  0  0  0  0  0  0  0  0  0
    8.0484  -12.5552   24.8407 C   0  0  0  0  0  0  0  0  0  0  0  0
    6.6983  -14.6367   25.1082 C   0  0  2  0  0  0  0  0  0  0  0  0
    6.2271  -15.5595   26.1088 N   0  0  0  0  0  0  0  0  0  0  0  0
    7.3955  -15.2639   23.9952 C   0  0  0  0  0  0  0  0  0  0  0  0
    7.7839  -16.4520   24.1116 O   0  0  0  0  0  0  0  0  0  0  0  0
    7.8015  -12.5163   18.3757 N   0  0  0  0  0  0  0  0  0  0  0  0
    8.2752  -13.8010   18.0101 C   0  0  0  0  0  0  0  0  0  0  0  0
    8.5917  -14.0650   16.8273 O   0  0  0  0  0  0  0  0  0  0  0  0
    8.3879  -14.8319   19.0691 C   0  0  0  0  0  0  0  0  0  0  0  0
    7.9715  -14.2344   20.3728 C   0  0  0  0  0  0  0  0  0  0  0  0
    7.9736  -15.2209   21.5240 C   0  0  2  0  0  0  0  0  0  0  0  0
    7.6560  -14.5809   22.7738 N   0  0  0  0  0  0  0  0  0  0  0  0
    9.3069  -15.8395   21.5302 C   0  0  0  0  0  0  0  0  0  0  0  0
    9.6315  -16.6659   20.6697 O   0  0  0  0  0  0  0  0  0  0  0  0
   12.3165  -13.1207   20.6639 N   0  0  0  0  0  0  0  0  0  0  0  0
   12.5333  -14.5299   20.9186 C   0  0  0  0  0  0  0  0  0  0  0  0
   12.6781  -15.3145   19.9562 O   0  0  0  0  0  0  0  0  0  0  0  0
   12.5789  -15.0137   22.3014 C   0  0  0  0  0  0  0  0  0  0  0  0
   11.5499  -16.0546   22.5749 C   0  0  2  0  0  0  0  0  0  0  0  0
   10.2308  -15.4774   22.5432 N   0  0  0  0  0  0  0  0  0  0  0  0
   11.8177  -16.7340   23.8792 C   0  0  0  0  0  0  0  0  0  0  0  0
   13.0334  -17.3794   24.0305 O   0  0  0  0  0  0  0  0  0  0  0  0
   11.0065  -16.7505   24.8361 O   0  0  0  0  0  0  0  0  0  0  0  0
  1  2  1  0
  2  3  1  0
  3  5  1  0
  3  4  1  6
  5  7  1  0
  5  6  1  1
  7  8  2  0
 10  9  1  0
 11 10  2  0
 12 10  1  0
 14 13  1  6
 13 12  1  0
 15 14  1  0
 15  7  1  0
 16 14  1  0
 17 16  2  0
 19 18  1  0
 19 20  2  0
 21 19  1  0
 22 21  1  1
 22 23  1  0
 23 16  1  0
 24 25  1  0
 24 22  1  0
 26 24  2  0
M  END
$$$$
