IQN.pdb
     RDKit          3D

 26 25  0  0  1  0  0  0  0  0999 V2000
    9.1739  -12.7317   27.4307 C   0  0  0  0  0  0  0  0  0  0  0  0
    8.4685  -13.9810   26.9078 C   0  0  0  0  0  0  0  0  0  0  0  0
    7.2979  -13.5512   26.0552 C   0  0  2  0  0  0  0  0  0  0  0  0
    6.3770  -12.6103   26.8184 C   0  0  0  0  0  0  0  0  0  0  0  0
    6.5222  -14.7022   25.4657 C   0  0  2  0  0  0  0  0  0  0  0  0
    6.2739  -15.6360   26.5339 N   0  0  0  0  0  0  0  0  0  0  0  0
    7.1231  -15.2942   24.2796 C   0  0  0  0  0  0  0  0  0  0  0  0
    7.3511  -16.5286   24.2638 O   0  0  0  0  0  0  0  0  0  0  0  0
    8.6886  -12.3244   18.3813 N   0  0  0  0  0  0  0  0  0  0  0  0
    7.9218  -13.5162   18.3951 C   0  0  0  0  0  0  0  0  0  0  0  0
    7.0051  -13.7093   17.5636 O   0  0  0  0  0  0  0  0  0  0  0  0
    8.2334  -14.5359   19.4247 C   0  0  0  0  0  0  0  0  0  0  0  0
    7.7877  -14.0303   20.7573 C   0  0  0  0  0  0  0  0  0  0  0  0
    7.8395  -15.0755   21.8544 C   0  0  2  0  0  0  0  0  0  0  0  0
    7.4644  -14.5258   23.1309 N   0  0  0  0  0  0  0  0  0  0  0  0
    9.2103  -15.6059   21.8497 C   0  0  0  0  0  0  0  0  0  0  0  0
    9.6712  -16.1753   20.8537 O   0  0  0  0  0  0  0  0  0  0  0  0
   13.8765  -17.0601   23.1912 N   0  0  0  0  0  0  0  0  0  0  0  0
   13.7212  -15.6202   23.1777 C   0  0  0  0  0  0  0  0  0  0  0  0
   14.7367  -14.8913   23.1742 O   0  0  0  0  0  0  0  0  0  0  0  0
   12.3750  -15.0406   23.1688 C   0  0  0  0  0  0  0  0  0  0  0  0
   11.3090  -16.0774   23.0913 C   0  0  2  0  0  0  0  0  0  0  0  0
   10.0112  -15.4583   23.0106 N   0  0  0  0  0  0  0  0  0  0  0  0
   11.3960  -17.0142   24.2530 C   0  0  0  0  0  0  0  0  0  0  0  0
   12.5228  -17.8129   24.3521 O   0  0  0  0  0  0  0  0  0  0  0  0
   10.5100  -17.1144   25.1356 O   0  0  0  0  0  0  0  0  0  0  0  0
  1  2  1  0
  2  3  1  0
  3  5  1  0
  3  4  1  1
  5  7  1  0
  5  6  1  1
  7  8  2  0
 10  9  1  0
 11 10  2  0
 12 10  1  0
 14 13  1  6
 13 12  1  0
 15 14  1  0
 15  7  1  0
 16 14  1  0
 17 16  2  0
 19 18  1  0
 19 20  2  0
 21 19  1  0
 22 21  1  1
 22 23  1  0
 23 16  1  0
 24 25  1  0
 24 22  1  0
 26 24  2  0
M  END
$$$$
