IQN.pdb
     RDKit          3D

 26 25  0  0  1  0  0  0  0  0999 V2000
    7.6267  -12.2575   27.9146 C   0  0  0  0  0  0  0  0  0  0  0  0
    6.7821  -13.3051   27.1926 C   0  0  0  0  0  0  0  0  0  0  0  0
    7.6193  -13.9291   26.1011 C   0  0  2  0  0  0  0  0  0  0  0  0
    8.2217  -12.8663   25.1936 C   0  0  0  0  0  0  0  0  0  0  0  0
    6.8857  -14.9716   25.2953 C   0  0  2  0  0  0  0  0  0  0  0  0
    6.4012  -15.9602   26.2240 N   0  0  0  0  0  0  0  0  0  0  0  0
    7.6426  -15.5182   24.1788 C   0  0  0  0  0  0  0  0  0  0  0  0
    8.1652  -16.6536   24.2949 O   0  0  0  0  0  0  0  0  0  0  0  0
    7.1086  -13.0377   18.5133 N   0  0  0  0  0  0  0  0  0  0  0  0
    7.7679  -14.2405   18.1566 C   0  0  0  0  0  0  0  0  0  0  0  0
    7.7806  -14.6483   16.9723 O   0  0  0  0  0  0  0  0  0  0  0  0
    8.4466  -15.0094   19.2265 C   0  0  0  0  0  0  0  0  0  0  0  0
    8.0702  -14.4318   20.5512 C   0  0  0  0  0  0  0  0  0  0  0  0
    8.1634  -15.4210   21.6964 C   0  0  2  0  0  0  0  0  0  0  0  0
    7.8150  -14.8134   22.9540 N   0  0  0  0  0  0  0  0  0  0  0  0
    9.5400  -15.9359   21.6811 C   0  0  0  0  0  0  0  0  0  0  0  0
    9.8796  -16.8274   20.8946 O   0  0  0  0  0  0  0  0  0  0  0  0
   12.3178  -15.7060   19.9426 N   0  0  0  0  0  0  0  0  0  0  0  0
   13.0598  -14.8223   20.8180 C   0  0  0  0  0  0  0  0  0  0  0  0
   13.9017  -14.0372   20.3306 O   0  0  0  0  0  0  0  0  0  0  0  0
   12.8118  -14.8633   22.2619 C   0  0  0  0  0  0  0  0  0  0  0  0
   11.8303  -15.9167   22.6416 C   0  0  2  0  0  0  0  0  0  0  0  0
   10.4885  -15.3963   22.5866 N   0  0  0  0  0  0  0  0  0  0  0  0
   12.1458  -16.4719   23.9932 C   0  0  0  0  0  0  0  0  0  0  0  0
   11.4230  -15.9898   25.0713 O   0  0  0  0  0  0  0  0  0  0  0  0
   13.0233  -17.3441   24.2011 O   0  0  0  0  0  0  0  0  0  0  0  0
  1  2  1  0
  2  3  1  0
  3  5  1  0
  3  4  1  6
  5  7  1  0
  5  6  1  1
  7  8  2  0
 10  9  1  0
 11 10  2  0
 12 10  1  0
 14 13  1  6
 13 12  1  0
 15 14  1  0
 15  7  1  0
 16 14  1  0
 17 16  2  0
 19 18  1  0
 19 20  2  0
 21 19  1  0
 22 21  1  1
 22 23  1  0
 23 16  1  0
 24 25  1  0
 24 22  1  0
 26 24  2  0
M  END
$$$$
