VYM.pdb
     RDKit          3D

 28 28  0  0  1  0  0  0  0  0999 V2000
    7.4833  -13.1841   19.9777 C   0  0  0  0  0  0  0  0  0  0  0  0
    8.6583  -13.8366   19.3305 C   0  0  2  0  0  0  0  0  0  0  0  0
    8.9332  -13.1829   18.0165 C   0  0  0  0  0  0  0  0  0  0  0  0
    8.5758  -15.3341   19.2579 C   0  0  2  0  0  0  0  0  0  0  0  0
    7.7249  -15.6864   18.1611 N   0  0  0  0  0  0  0  0  0  0  0  0
    8.0700  -15.9515   20.5097 C   0  0  0  0  0  0  0  0  0  0  0  0
    6.8450  -16.0604   20.7677 O   0  0  0  0  0  0  0  0  0  0  0  0
    7.8932  -20.4413   28.1322 O   0  0  0  0  0  0  0  0  0  0  0  0
    8.2708  -19.8974   26.9045 C   0  0  0  0  0  0  0  0  0  0  0  0
    7.4186  -19.9123   25.8112 C   0  0  0  0  0  0  0  0  0  0  0  0
    7.7938  -19.3727   24.5943 C   0  0  0  0  0  0  0  0  0  0  0  0
    9.0350  -18.7951   24.4156 C   0  0  0  0  0  0  0  0  0  0  0  0
    9.3757  -18.2362   23.1010 C   0  0  0  0  0  0  0  0  0  0  0  0
    8.5977  -16.9690   22.7628 C   0  0  2  0  0  0  0  0  0  0  0  0
    8.9919  -16.4515   21.4794 N   0  0  0  0  0  0  0  0  0  0  0  0
    8.7630  -15.9015   23.7724 C   0  0  0  0  0  0  0  0  0  0  0  0
    9.8626  -15.3048   23.9065 O   0  0  0  0  0  0  0  0  0  0  0  0
    9.8850  -18.7770   25.4954 C   0  0  0  0  0  0  0  0  0  0  0  0
    9.5098  -19.3212   26.7269 C   0  0  0  0  0  0  0  0  0  0  0  0
    6.5547   -9.9642   27.4366 C   0  0  0  0  0  0  0  0  0  0  0  0
    6.7429  -11.2813   26.1839 S   0  0  0  0  0  0  0  0  0  0  0  0
    6.3509  -12.8631   26.9589 C   0  0  0  0  0  0  0  0  0  0  0  0
    6.3985  -14.0176   25.9868 C   0  0  0  0  0  0  0  0  0  0  0  0
    7.8219  -14.3723   25.5691 C   0  0  2  0  0  0  0  0  0  0  0  0
    7.6960  -15.4884   24.6427 N   0  0  0  0  0  0  0  0  0  0  0  0
    8.5323  -14.7446   26.8179 C   0  0  0  0  0  0  0  0  0  0  0  0
    8.5310  -16.0451   27.2745 O   0  0  0  0  0  0  0  0  0  0  0  0
    9.1451  -13.8888   27.4813 O   0  0  0  0  0  0  0  0  0  0  0  0
  2  1  1  6
  3  2  1  0
  4  5  1  6
  4  2  1  0
  6  4  1  0
  7  6  2  0
  9 10  2  0
  9  8  1  0
 11 10  1  0
 12 11  2  0
 14 13  1  1
 13 12  1  0
 14 15  1  0
 15  6  1  0
 16 17  2  0
 16 14  1  0
 18 12  1  0
 18 19  2  0
 19  9  1  0
 20 21  1  0
 21 22  1  0
 24 23  1  1
 23 22  1  0
 24 25  1  0
 25 16  1  0
 26 24  1  0
 27 26  1  0
 28 26  2  0
M  END
$$$$
