VYM.pdb
     RDKit          3D

 28 28  0  0  1  0  0  0  0  0999 V2000
    8.0973  -20.3802   24.5681 C   0  0  0  0  0  0  0  0  0  0  0  0
    6.8066  -19.6844   24.2939 C   0  0  2  0  0  0  0  0  0  0  0  0
    5.6685  -20.5985   24.6084 C   0  0  0  0  0  0  0  0  0  0  0  0
    6.7184  -19.0506   22.9355 C   0  0  2  0  0  0  0  0  0  0  0  0
    6.5867  -20.0910   21.9600 N   0  0  0  0  0  0  0  0  0  0  0  0
    7.8907  -18.1991   22.6123 C   0  0  0  0  0  0  0  0  0  0  0  0
    8.8354  -18.5909   21.8823 O   0  0  0  0  0  0  0  0  0  0  0  0
    7.6028  -13.2107   17.1586 O   0  0  0  0  0  0  0  0  0  0  0  0
    7.7974  -13.5262   18.5034 C   0  0  0  0  0  0  0  0  0  0  0  0
    8.7875  -14.4091   18.9058 C   0  0  0  0  0  0  0  0  0  0  0  0
    8.9798  -14.7213   20.2393 C   0  0  0  0  0  0  0  0  0  0  0  0
    8.1929  -14.1663   21.2287 C   0  0  0  0  0  0  0  0  0  0  0  0
    8.4465  -14.5338   22.6278 C   0  0  0  0  0  0  0  0  0  0  0  0
    9.0122  -15.9406   22.7903 C   0  0  2  0  0  0  0  0  0  0  0  0
    7.9745  -16.8742   23.1395 N   0  0  0  0  0  0  0  0  0  0  0  0
   10.0807  -16.0206   23.8092 C   0  0  0  0  0  0  0  0  0  0  0  0
   11.0578  -15.2284   23.7830 O   0  0  0  0  0  0  0  0  0  0  0  0
    7.2093  -13.2901   20.8368 C   0  0  0  0  0  0  0  0  0  0  0  0
    7.0116  -12.9719   19.4903 C   0  0  0  0  0  0  0  0  0  0  0  0
    8.3773  -12.5705   28.0285 C   0  0  0  0  0  0  0  0  0  0  0  0
    9.7786  -13.6760   28.4207 S   0  0  0  0  0  0  0  0  0  0  0  0
    9.2485  -15.3808   28.1582 C   0  0  0  0  0  0  0  0  0  0  0  0
    9.1752  -15.7513   26.6962 C   0  0  0  0  0  0  0  0  0  0  0  0
   10.3347  -16.6408   26.2592 C   0  0  2  0  0  0  0  0  0  0  0  0
   10.0652  -16.9889   24.8715 N   0  0  0  0  0  0  0  0  0  0  0  0
   10.3053  -17.8203   27.1596 C   0  0  0  0  0  0  0  0  0  0  0  0
   10.9829  -17.8141   28.3598 O   0  0  0  0  0  0  0  0  0  0  0  0
    9.6674  -18.8425   26.8495 O   0  0  0  0  0  0  0  0  0  0  0  0
  2  1  1  6
  3  2  1  0
  4  5  1  6
  4  2  1  0
  6  4  1  0
  7  6  2  0
  9 10  2  0
  9  8  1  0
 11 10  1  0
 12 11  2  0
 14 13  1  1
 13 12  1  0
 14 15  1  0
 15  6  1  0
 16 17  2  0
 16 14  1  0
 18 12  1  0
 18 19  2  0
 19  9  1  0
 20 21  1  0
 21 22  1  0
 24 23  1  1
 23 22  1  0
 24 25  1  0
 25 16  1  0
 26 24  1  0
 27 26  1  0
 28 26  2  0
M  END
$$$$
