VYM.pdb
     RDKit          3D

 28 28  0  0  1  0  0  0  0  0999 V2000
    7.7483  -13.5069   18.0121 C   0  0  0  0  0  0  0  0  0  0  0  0
    7.5092  -13.8716   19.4387 C   0  0  2  0  0  0  0  0  0  0  0  0
    7.0205  -12.6749   20.1862 C   0  0  0  0  0  0  0  0  0  0  0  0
    8.6590  -14.5736   20.1019 C   0  0  2  0  0  0  0  0  0  0  0  0
    9.0248  -15.7001   19.2966 N   0  0  0  0  0  0  0  0  0  0  0  0
    8.3514  -15.0184   21.4845 C   0  0  0  0  0  0  0  0  0  0  0  0
    7.9247  -14.2370   22.3712 O   0  0  0  0  0  0  0  0  0  0  0  0
    7.4063  -20.7589   28.2714 O   0  0  0  0  0  0  0  0  0  0  0  0
    7.6239  -20.1883   27.0173 C   0  0  0  0  0  0  0  0  0  0  0  0
    8.9020  -19.9087   26.5590 C   0  0  0  0  0  0  0  0  0  0  0  0
    9.1168  -19.3430   25.3154 C   0  0  0  0  0  0  0  0  0  0  0  0
    8.0661  -19.0319   24.4755 C   0  0  0  0  0  0  0  0  0  0  0  0
    8.3567  -18.4354   23.1654 C   0  0  0  0  0  0  0  0  0  0  0  0
    8.2152  -16.9172   23.1476 C   0  0  2  0  0  0  0  0  0  0  0  0
    8.5387  -16.3863   21.8500 N   0  0  0  0  0  0  0  0  0  0  0  0
    9.0618  -16.2451   24.1564 C   0  0  0  0  0  0  0  0  0  0  0  0
   10.3020  -16.1253   23.9814 O   0  0  0  0  0  0  0  0  0  0  0  0
    6.7962  -19.3065   24.9235 C   0  0  0  0  0  0  0  0  0  0  0  0
    6.5748  -19.8781   26.1796 C   0  0  0  0  0  0  0  0  0  0  0  0
    6.2580  -10.5694   25.4711 C   0  0  0  0  0  0  0  0  0  0  0  0
    6.7207  -11.8054   26.7350 S   0  0  0  0  0  0  0  0  0  0  0  0
    7.9406  -12.9242   26.0163 C   0  0  0  0  0  0  0  0  0  0  0  0
    8.4302  -13.9628   26.9969 C   0  0  0  0  0  0  0  0  0  0  0  0
    9.3486  -14.9932   26.3478 C   0  0  2  0  0  0  0  0  0  0  0  0
    8.5275  -15.6969   25.3731 N   0  0  0  0  0  0  0  0  0  0  0  0
    9.8120  -15.8760   27.4473 C   0  0  0  0  0  0  0  0  0  0  0  0
    9.3589  -17.1732   27.5547 O   0  0  0  0  0  0  0  0  0  0  0  0
   10.6206  -15.4629   28.2979 O   0  0  0  0  0  0  0  0  0  0  0  0
  2  1  1  6
  3  2  1  0
  4  5  1  6
  4  2  1  0
  6  4  1  0
  7  6  2  0
  9 10  2  0
  9  8  1  0
 11 10  1  0
 12 11  2  0
 14 13  1  6
 13 12  1  0
 14 15  1  0
 15  6  1  0
 16 17  2  0
 16 14  1  0
 18 12  1  0
 18 19  2  0
 19  9  1  0
 20 21  1  0
 21 22  1  0
 24 23  1  1
 23 22  1  0
 24 25  1  0
 25 16  1  0
 26 24  1  0
 27 26  1  0
 28 26  2  0
M  END
$$$$
