VYM.pdb
     RDKit          3D

 28 28  0  0  1  0  0  0  0  0999 V2000
    9.6197  -17.5542   18.6096 C   0  0  0  0  0  0  0  0  0  0  0  0
   10.3496  -18.7420   19.1404 C   0  0  2  0  0  0  0  0  0  0  0  0
    9.8454  -19.9788   18.4729 C   0  0  0  0  0  0  0  0  0  0  0  0
   10.3839  -18.8319   20.6389 C   0  0  2  0  0  0  0  0  0  0  0  0
    9.0947  -19.2579   21.0948 N   0  0  0  0  0  0  0  0  0  0  0  0
   10.7538  -17.5508   21.2915 C   0  0  0  0  0  0  0  0  0  0  0  0
   11.8771  -17.0089   21.1384 O   0  0  0  0  0  0  0  0  0  0  0  0
    6.5472  -13.2776   17.7727 O   0  0  0  0  0  0  0  0  0  0  0  0
    7.0650  -13.6658   19.0084 C   0  0  0  0  0  0  0  0  0  0  0  0
    8.1979  -13.0694   19.5403 C   0  0  0  0  0  0  0  0  0  0  0  0
    8.7105  -13.4548   20.7656 C   0  0  0  0  0  0  0  0  0  0  0  0
    8.1155  -14.4515   21.5130 C   0  0  0  0  0  0  0  0  0  0  0  0
    8.7040  -14.8157   22.8082 C   0  0  0  0  0  0  0  0  0  0  0  0
   10.0231  -15.5704   22.6821 C   0  0  2  0  0  0  0  0  0  0  0  0
    9.8128  -16.8840   22.1342 N   0  0  0  0  0  0  0  0  0  0  0  0
   10.7380  -15.7054   23.9693 C   0  0  0  0  0  0  0  0  0  0  0  0
   11.8134  -15.0864   24.1782 O   0  0  0  0  0  0  0  0  0  0  0  0
    6.9920  -15.0471   20.9916 C   0  0  0  0  0  0  0  0  0  0  0  0
    6.4706  -14.6606   19.7537 C   0  0  0  0  0  0  0  0  0  0  0  0
   10.0915  -12.4561   27.9478 C   0  0  0  0  0  0  0  0  0  0  0  0
   10.5077  -13.6582   29.2598 S   0  0  0  0  0  0  0  0  0  0  0  0
   10.9570  -15.2210   28.4773 C   0  0  0  0  0  0  0  0  0  0  0  0
   10.2889  -15.4169   27.1374 C   0  0  0  0  0  0  0  0  0  0  0  0
   10.8866  -16.5785   26.3500 C   0  0  2  0  0  0  0  0  0  0  0  0
   10.2545  -16.5348   25.0392 N   0  0  0  0  0  0  0  0  0  0  0  0
   10.5413  -17.8060   27.1095 C   0  0  0  0  0  0  0  0  0  0  0  0
    9.6814  -18.7468   26.5850 O   0  0  0  0  0  0  0  0  0  0  0  0
   11.0213  -18.0124   28.2386 O   0  0  0  0  0  0  0  0  0  0  0  0
  2  1  1  1
  3  2  1  0
  4  5  1  1
  4  2  1  0
  6  4  1  0
  7  6  2  0
  9 10  2  0
  9  8  1  0
 11 10  1  0
 12 11  2  0
 14 13  1  1
 13 12  1  0
 14 15  1  0
 15  6  1  0
 16 17  2  0
 16 14  1  0
 18 12  1  0
 18 19  2  0
 19  9  1  0
 20 21  1  0
 21 22  1  0
 24 23  1  1
 23 22  1  0
 24 25  1  0
 25 16  1  0
 26 24  1  0
 27 26  1  0
 28 26  2  0
M  END
$$$$
