VYM.pdb
     RDKit          3D

 28 28  0  0  1  0  0  0  0  0999 V2000
    7.3712  -12.9295   20.4624 C   0  0  0  0  0  0  0  0  0  0  0  0
    8.5045  -13.7533   19.9503 C   0  0  2  0  0  0  0  0  0  0  0  0
    8.8545  -13.3175   18.5657 C   0  0  0  0  0  0  0  0  0  0  0  0
    8.3077  -15.2355   20.0885 C   0  0  2  0  0  0  0  0  0  0  0  0
    7.3108  -15.6480   19.1465 N   0  0  0  0  0  0  0  0  0  0  0  0
    7.9098  -15.6455   21.4588 C   0  0  0  0  0  0  0  0  0  0  0  0
    6.7369  -15.5214   21.8922 O   0  0  0  0  0  0  0  0  0  0  0  0
    4.5951  -20.9431   20.9531 O   0  0  0  0  0  0  0  0  0  0  0  0
    5.6093  -20.2662   21.6306 C   0  0  0  0  0  0  0  0  0  0  0  0
    5.4485  -19.8403   22.9400 C   0  0  0  0  0  0  0  0  0  0  0  0
    6.4546  -19.1694   23.6111 C   0  0  0  0  0  0  0  0  0  0  0  0
    7.6642  -18.8944   23.0050 C   0  0  0  0  0  0  0  0  0  0  0  0
    8.6957  -18.1811   23.7692 C   0  0  0  0  0  0  0  0  0  0  0  0
    8.5779  -16.6638   23.6739 C   0  0  2  0  0  0  0  0  0  0  0  0
    8.8802  -16.2078   22.3431 N   0  0  0  0  0  0  0  0  0  0  0  0
    9.4578  -15.9538   24.6267 C   0  0  0  0  0  0  0  0  0  0  0  0
   10.7065  -15.9504   24.4722 O   0  0  0  0  0  0  0  0  0  0  0  0
    7.8304  -19.3138   21.7069 C   0  0  0  0  0  0  0  0  0  0  0  0
    6.8163  -19.9921   21.0251 C   0  0  0  0  0  0  0  0  0  0  0  0
    5.7369  -12.7093   26.6058 C   0  0  0  0  0  0  0  0  0  0  0  0
    7.1147  -11.5670   26.9750 S   0  0  0  0  0  0  0  0  0  0  0  0
    8.6643  -12.3908   26.5547 C   0  0  0  0  0  0  0  0  0  0  0  0
    8.9643  -13.5655   27.4546 C   0  0  0  0  0  0  0  0  0  0  0  0
    9.8125  -14.6292   26.7648 C   0  0  2  0  0  0  0  0  0  0  0  0
    8.9478  -15.2369   25.7635 N   0  0  0  0  0  0  0  0  0  0  0  0
   10.2129  -15.5839   27.8283 C   0  0  0  0  0  0  0  0  0  0  0  0
   11.1689  -15.2463   28.7619 O   0  0  0  0  0  0  0  0  0  0  0  0
    9.6936  -16.7122   27.8997 O   0  0  0  0  0  0  0  0  0  0  0  0
  2  1  1  6
  3  2  1  0
  4  5  1  6
  4  2  1  0
  6  4  1  0
  7  6  2  0
  9 10  2  0
  9  8  1  0
 11 10  1  0
 12 11  2  0
 14 13  1  6
 13 12  1  0
 14 15  1  0
 15  6  1  0
 16 17  2  0
 16 14  1  0
 18 12  1  0
 18 19  2  0
 19  9  1  0
 20 21  1  0
 21 22  1  0
 24 23  1  1
 23 22  1  0
 24 25  1  0
 25 16  1  0
 26 24  1  0
 27 26  1  0
 28 26  2  0
M  END
$$$$
