WTH.pdb
     RDKit          3D

 32 34  0  0  1  0  0  0  0  0999 V2000
   14.9794  -17.5088    5.4780 N   0  0  0  0  0  0  0  0  0  0  0  0
   16.3327  -17.3610    5.9547 C   0  0  1  0  0  0  0  0  0  0  0  0
   16.8084  -15.9525    5.7986 C   0  0  0  0  0  0  0  0  0  0  0  0
   17.3579  -15.7268    4.4446 C   0  0  0  0  0  0  0  0  0  0  0  0
   17.1775  -16.5557    3.3494 C   0  0  0  0  0  0  0  0  0  0  0  0
   17.8418  -15.9748    2.3356 N   0  0  0  0  0  0  0  0  0  0  0  0
   18.4225  -14.8327    2.7444 C   0  0  0  0  0  0  0  0  0  0  0  0
   19.2039  -13.8688    2.1251 C   0  0  0  0  0  0  0  0  0  0  0  0
   19.6649  -12.7822    2.8174 C   0  0  0  0  0  0  0  0  0  0  0  0
   19.3657  -12.6113    4.1571 C   0  0  0  0  0  0  0  0  0  0  0  0
   18.5917  -13.5545    4.7940 C   0  0  0  0  0  0  0  0  0  0  0  0
   18.1327  -14.6461    4.0850 C   0  0  0  0  0  0  0  0  0  0  0  0
   16.3447  -17.7195    7.4106 C   0  0  0  0  0  0  0  0  0  0  0  0
   15.4963  -17.2686    8.2211 O   0  0  0  0  0  0  0  0  0  0  0  0
   15.2360  -20.4974    9.1207 C   0  0  0  0  0  0  0  0  0  0  0  0
   16.7135  -20.4241    9.4363 C   0  0  1  0  0  0  0  0  0  0  0  0
   17.3291  -21.2345    8.4689 O   0  0  0  0  0  0  0  0  0  0  0  0
   17.2498  -19.0059    9.3498 C   0  0  2  0  0  0  0  0  0  0  0  0
   17.3249  -18.5942    7.9510 N   0  0  0  0  0  0  0  0  0  0  0  0
   18.6529  -19.0448    9.8344 C   0  0  0  0  0  0  0  0  0  0  0  0
   19.5580  -19.2024    8.9451 O   0  0  0  0  0  0  0  0  0  0  0  0
   19.0709  -18.9227   11.1630 N   0  0  0  0  0  0  0  0  0  0  0  0
   20.5142  -19.0431   11.4391 C   0  0  1  0  0  0  0  0  0  0  0  0
   21.0857  -17.6749   11.7568 C   0  0  0  0  0  0  0  0  0  0  0  0
   21.9638  -17.2390   10.6746 C   0  0  0  0  0  0  0  0  0  0  0  0
   22.2581  -17.9442    9.5335 C   0  0  0  0  0  0  0  0  0  0  0  0
   23.0886  -17.2018    8.8136 N   0  0  0  0  0  0  0  0  0  0  0  0
   23.3348  -16.0475    9.4548 C   0  0  0  0  0  0  0  0  0  0  0  0
   22.6279  -16.0912   10.6060 N   0  0  0  0  0  0  0  0  0  0  0  0
   20.7233  -20.0368   12.5036 C   0  0  0  0  0  0  0  0  0  0  0  0
   19.7558  -20.6083   13.0423 O   0  0  0  0  0  0  0  0  0  0  0  0
   22.0039  -20.3422   12.9129 O   0  0  0  0  0  0  0  0  0  0  0  0
  2  1  1  1
  2 13  1  0
  2  3  1  0
  4  5  2  0
  4  3  1  0
  6  5  1  0
  7 12  2  0
  7  6  1  0
  8  7  1  0
  9 10  1  0
  9  8  2  0
 10 11  2  0
 11 12  1  0
 12  4  1  0
 13 14  2  0
 16 15  1  6
 16 17  1  0
 16 18  1  0
 18 19  1  6
 19 13  1  0
 20 22  1  0
 20 18  1  0
 21 20  2  0
 23 22  1  0
 23 30  1  0
 23 24  1  1
 25 29  1  0
 25 24  1  0
 26 25  2  0
 27 26  1  0
 27 28  1  0
 28 29  2  0
 30 32  1  0
 31 30  2  0
M  END
$$$$
