WTH.pdb
     RDKit          3D

 32 34  0  0  1  0  0  0  0  0999 V2000
   27.4005  -22.4420  -12.7447 N   0  0  0  0  0  0  0  0  0  0  0  0
   26.4241  -21.5405  -12.1839 C   0  0  1  0  0  0  0  0  0  0  0  0
   27.0577  -20.2540  -11.7624 C   0  0  0  0  0  0  0  0  0  0  0  0
   27.9744  -20.4646  -10.6215 C   0  0  0  0  0  0  0  0  0  0  0  0
   29.3164  -20.7962  -10.7122 C   0  0  0  0  0  0  0  0  0  0  0  0
   29.7586  -20.8871   -9.4462 N   0  0  0  0  0  0  0  0  0  0  0  0
   28.7637  -20.6299   -8.5787 C   0  0  0  0  0  0  0  0  0  0  0  0
   28.6726  -20.5880   -7.1956 C   0  0  0  0  0  0  0  0  0  0  0  0
   27.4904  -20.2883   -6.5749 C   0  0  0  0  0  0  0  0  0  0  0  0
   26.3490  -20.0178   -7.3081 C   0  0  0  0  0  0  0  0  0  0  0  0
   26.4142  -20.0532   -8.6824 C   0  0  0  0  0  0  0  0  0  0  0  0
   27.6123  -20.3567   -9.2968 C   0  0  0  0  0  0  0  0  0  0  0  0
   25.4045  -21.2552  -13.2457 C   0  0  0  0  0  0  0  0  0  0  0  0
   25.7261  -20.9318  -14.4171 O   0  0  0  0  0  0  0  0  0  0  0  0
   23.2017  -23.7121  -14.6698 C   0  0  0  0  0  0  0  0  0  0  0  0
   22.3085  -22.5939  -14.1804 C   0  0  1  0  0  0  0  0  0  0  0  0
   21.8733  -23.0094  -12.9117 O   0  0  0  0  0  0  0  0  0  0  0  0
   23.0488  -21.2722  -14.0733 C   0  0  2  0  0  0  0  0  0  0  0  0
   24.0118  -21.3367  -12.9778 N   0  0  0  0  0  0  0  0  0  0  0  0
   22.0500  -20.2493  -13.6722 C   0  0  0  0  0  0  0  0  0  0  0  0
   22.0069  -19.9526  -12.4293 O   0  0  0  0  0  0  0  0  0  0  0  0
   21.1621  -19.5843  -14.5234 N   0  0  0  0  0  0  0  0  0  0  0  0
   20.2559  -18.5885  -13.9227 C   0  0  1  0  0  0  0  0  0  0  0  0
   20.3256  -17.2968  -14.7140 C   0  0  0  0  0  0  0  0  0  0  0  0
   19.3909  -16.3221  -14.1587 C   0  0  0  0  0  0  0  0  0  0  0  0
   18.9619  -16.2592  -12.8556 C   0  0  0  0  0  0  0  0  0  0  0  0
   18.1229  -15.2359  -12.7650 N   0  0  0  0  0  0  0  0  0  0  0  0
   18.0013  -14.6433  -13.9642 C   0  0  0  0  0  0  0  0  0  0  0  0
   18.7954  -15.3323  -14.8136 N   0  0  0  0  0  0  0  0  0  0  0  0
   18.9023  -19.1573  -13.8306 C   0  0  0  0  0  0  0  0  0  0  0  0
   18.4957  -19.9772  -14.6764 O   0  0  0  0  0  0  0  0  0  0  0  0
   18.0706  -18.7812  -12.7975 O   0  0  0  0  0  0  0  0  0  0  0  0
  2  1  1  6
  2 13  1  0
  2  3  1  0
  4  5  2  0
  4  3  1  0
  6  5  1  0
  7 12  2  0
  7  6  1  0
  8  7  1  0
  9 10  1  0
  9  8  2  0
 10 11  2  0
 11 12  1  0
 12  4  1  0
 13 14  2  0
 16 15  1  1
 16 17  1  0
 16 18  1  0
 18 19  1  1
 19 13  1  0
 20 22  1  0
 20 18  1  0
 21 20  2  0
 23 22  1  0
 23 30  1  0
 23 24  1  6
 25 29  1  0
 25 24  1  0
 26 25  2  0
 27 26  1  0
 27 28  1  0
 28 29  2  0
 30 32  1  0
 31 30  2  0
M  END
$$$$
