WTH.pdb
     RDKit          3D

 32 34  0  0  1  0  0  0  0  0999 V2000
   27.0267  -21.4443  -12.8255 N   0  0  0  0  0  0  0  0  0  0  0  0
   26.1081  -21.0901  -11.7713 C   0  0  1  0  0  0  0  0  0  0  0  0
   26.6463  -19.9697  -10.9411 C   0  0  0  0  0  0  0  0  0  0  0  0
   27.7800  -20.4256  -10.1084 C   0  0  0  0  0  0  0  0  0  0  0  0
   29.0371  -20.7745  -10.5739 C   0  0  0  0  0  0  0  0  0  0  0  0
   29.7476  -21.1226   -9.4873 N   0  0  0  0  0  0  0  0  0  0  0  0
   28.9984  -21.0078   -8.3764 C   0  0  0  0  0  0  0  0  0  0  0  0
   29.2277  -21.2319   -7.0272 C   0  0  0  0  0  0  0  0  0  0  0  0
   28.2437  -21.0220   -6.0997 C   0  0  0  0  0  0  0  0  0  0  0  0
   26.9892  -20.5795   -6.4791 C   0  0  0  0  0  0  0  0  0  0  0  0
   26.7373  -20.3498   -7.8126 C   0  0  0  0  0  0  0  0  0  0  0  0
   27.7379  -20.5653   -8.7386 C   0  0  0  0  0  0  0  0  0  0  0  0
   24.8270  -20.6479  -12.4127 C   0  0  0  0  0  0  0  0  0  0  0  0
   24.6956  -19.5146  -12.9407 O   0  0  0  0  0  0  0  0  0  0  0  0
   21.4146  -20.6944  -15.3758 C   0  0  0  0  0  0  0  0  0  0  0  0
   22.6909  -20.9827  -14.6170 C   0  0  1  0  0  0  0  0  0  0  0  0
   23.5463  -19.9145  -14.9317 O   0  0  0  0  0  0  0  0  0  0  0  0
   22.4650  -21.0483  -13.1166 C   0  0  2  0  0  0  0  0  0  0  0  0
   23.6876  -21.4953  -12.4555 N   0  0  0  0  0  0  0  0  0  0  0  0
   21.4633  -22.1179  -12.8774 C   0  0  0  0  0  0  0  0  0  0  0  0
   21.9169  -23.3083  -12.7675 O   0  0  0  0  0  0  0  0  0  0  0  0
   20.0811  -21.9429  -12.7592 N   0  0  0  0  0  0  0  0  0  0  0  0
   19.3701  -22.7687  -11.7662 C   0  0  1  0  0  0  0  0  0  0  0  0
   19.9865  -22.5583  -10.3968 C   0  0  0  0  0  0  0  0  0  0  0  0
   19.1980  -23.2542   -9.3839 C   0  0  0  0  0  0  0  0  0  0  0  0
   18.0226  -23.9327   -9.5942 C   0  0  0  0  0  0  0  0  0  0  0  0
   17.6310  -24.4169   -8.4232 N   0  0  0  0  0  0  0  0  0  0  0  0
   18.5149  -24.0715   -7.4726 C   0  0  0  0  0  0  0  0  0  0  0  0
   19.4781  -23.3513   -8.0895 N   0  0  0  0  0  0  0  0  0  0  0  0
   17.9316  -22.4660  -11.8238 C   0  0  0  0  0  0  0  0  0  0  0  0
   17.0833  -23.3598  -11.6383 O   0  0  0  0  0  0  0  0  0  0  0  0
   17.5129  -21.1789  -12.0858 O   0  0  0  0  0  0  0  0  0  0  0  0
  2  1  1  6
  2 13  1  0
  2  3  1  0
  4  5  2  0
  4  3  1  0
  6  5  1  0
  7 12  2  0
  7  6  1  0
  8  7  1  0
  9 10  1  0
  9  8  2  0
 10 11  2  0
 11 12  1  0
 12  4  1  0
 13 14  2  0
 16 15  1  6
 16 17  1  0
 16 18  1  0
 18 19  1  1
 19 13  1  0
 20 22  1  0
 20 18  1  0
 21 20  2  0
 23 22  1  0
 23 30  1  0
 23 24  1  1
 25 29  1  0
 25 24  1  0
 26 25  2  0
 27 26  1  0
 27 28  1  0
 28 29  2  0
 30 32  1  0
 31 30  2  0
M  END
$$$$
