WTH.pdb
     RDKit          3D

 32 34  0  0  1  0  0  0  0  0999 V2000
   28.5281  -22.4227  -10.5192 N   0  0  0  0  0  0  0  0  0  0  0  0
   27.5765  -21.4370  -10.0682 C   0  0  1  0  0  0  0  0  0  0  0  0
   28.2626  -20.2991   -9.3835 C   0  0  0  0  0  0  0  0  0  0  0  0
   27.5950  -19.9707   -8.1057 C   0  0  0  0  0  0  0  0  0  0  0  0
   26.2790  -19.5626   -7.9617 C   0  0  0  0  0  0  0  0  0  0  0  0
   26.0945  -19.3759   -6.6435 N   0  0  0  0  0  0  0  0  0  0  0  0
   27.2241  -19.6462   -5.9655 C   0  0  0  0  0  0  0  0  0  0  0  0
   27.5782  -19.6183   -4.6250 C   0  0  0  0  0  0  0  0  0  0  0  0
   28.8416  -19.9558   -4.2215 C   0  0  0  0  0  0  0  0  0  0  0  0
   29.8050  -20.3355   -5.1387 C   0  0  0  0  0  0  0  0  0  0  0  0
   29.4776  -20.3711   -6.4750 C   0  0  0  0  0  0  0  0  0  0  0  0
   28.2001  -20.0284   -6.8695 C   0  0  0  0  0  0  0  0  0  0  0  0
   26.8551  -20.9147  -11.2745 C   0  0  0  0  0  0  0  0  0  0  0  0
   27.4097  -20.1645  -12.1170 O   0  0  0  0  0  0  0  0  0  0  0  0
   26.3056  -22.4354  -14.1237 C   0  0  0  0  0  0  0  0  0  0  0  0
   24.8961  -22.0324  -13.7510 C   0  0  1  0  0  0  0  0  0  0  0  0
   24.3449  -23.1711  -13.1417 O   0  0  0  0  0  0  0  0  0  0  0  0
   24.8699  -20.8585  -12.7877 C   0  0  2  0  0  0  0  0  0  0  0  0
   25.4966  -21.2444  -11.5269 N   0  0  0  0  0  0  0  0  0  0  0  0
   23.4443  -20.5963  -12.4656 C   0  0  0  0  0  0  0  0  0  0  0  0
   23.1817  -20.2921  -11.2519 O   0  0  0  0  0  0  0  0  0  0  0  0
   22.3724  -20.6483  -13.3620 N   0  0  0  0  0  0  0  0  0  0  0  0
   21.2598  -19.7040  -13.1523 C   0  0  1  0  0  0  0  0  0  0  0  0
   21.7346  -18.2909  -13.4300 C   0  0  0  0  0  0  0  0  0  0  0  0
   20.6354  -17.3495  -13.2361 C   0  0  0  0  0  0  0  0  0  0  0  0
   19.9376  -17.1444  -12.0712 C   0  0  0  0  0  0  0  0  0  0  0  0
   19.0262  -16.2122  -12.3155 N   0  0  0  0  0  0  0  0  0  0  0  0
   19.1176  -15.8150  -13.5954 C   0  0  0  0  0  0  0  0  0  0  0  0
   20.1211  -16.5325  -14.1478 N   0  0  0  0  0  0  0  0  0  0  0  0
   20.1111  -20.1175  -13.9731 C   0  0  0  0  0  0  0  0  0  0  0  0
   18.9472  -19.8300  -13.6330 O   0  0  0  0  0  0  0  0  0  0  0  0
   20.3206  -20.8318  -15.1334 O   0  0  0  0  0  0  0  0  0  0  0  0
  2  1  1  6
  2 13  1  0
  2  3  1  0
  4  5  2  0
  4  3  1  0
  6  5  1  0
  7 12  2  0
  7  6  1  0
  8  7  1  0
  9 10  1  0
  9  8  2  0
 10 11  2  0
 11 12  1  0
 12  4  1  0
 13 14  2  0
 16 15  1  1
 16 17  1  0
 16 18  1  0
 18 19  1  1
 19 13  1  0
 20 22  1  0
 20 18  1  0
 21 20  2  0
 23 22  1  0
 23 30  1  0
 23 24  1  6
 25 29  1  0
 25 24  1  0
 26 25  2  0
 27 26  1  0
 27 28  1  0
 28 29  2  0
 30 32  1  0
 31 30  2  0
M  END
$$$$
