WTH.pdb
     RDKit          3D

 32 34  0  0  1  0  0  0  0  0999 V2000
   26.6422  -20.3729   -9.9909 N   0  0  0  0  0  0  0  0  0  0  0  0
   25.6114  -20.6302   -9.0152 C   0  0  1  0  0  0  0  0  0  0  0  0
   25.6664  -19.6380   -7.8986 C   0  0  0  0  0  0  0  0  0  0  0  0
   27.0239  -19.5717   -7.3163 C   0  0  0  0  0  0  0  0  0  0  0  0
   28.1549  -19.0879   -7.9532 C   0  0  0  0  0  0  0  0  0  0  0  0
   29.1573  -19.2121   -7.0664 N   0  0  0  0  0  0  0  0  0  0  0  0
   28.7075  -19.7459   -5.9169 C   0  0  0  0  0  0  0  0  0  0  0  0
   29.2998  -20.0803   -4.7084 C   0  0  0  0  0  0  0  0  0  0  0  0
   28.5663  -20.6250   -3.6896 C   0  0  0  0  0  0  0  0  0  0  0  0
   27.2106  -20.8592   -3.8337 C   0  0  0  0  0  0  0  0  0  0  0  0
   26.5998  -20.5357   -5.0240 C   0  0  0  0  0  0  0  0  0  0  0  0
   27.3505  -19.9869   -6.0440 C   0  0  0  0  0  0  0  0  0  0  0  0
   24.2873  -20.5088   -9.7085 C   0  0  0  0  0  0  0  0  0  0  0  0
   24.0616  -19.6291  -10.5777 O   0  0  0  0  0  0  0  0  0  0  0  0
   22.9723  -20.3427  -12.2033 C   0  0  0  0  0  0  0  0  0  0  0  0
   22.1172  -21.4284  -11.5884 C   0  0  1  0  0  0  0  0  0  0  0  0
   22.8145  -22.6212  -11.8384 O   0  0  0  0  0  0  0  0  0  0  0  0
   21.9296  -21.2348  -10.0938 C   0  0  2  0  0  0  0  0  0  0  0  0
   23.2124  -21.3897   -9.4142 N   0  0  0  0  0  0  0  0  0  0  0  0
   21.0823  -22.3568   -9.6163 C   0  0  0  0  0  0  0  0  0  0  0  0
   21.5284  -23.0229   -8.6203 O   0  0  0  0  0  0  0  0  0  0  0  0
   19.8499  -22.7457  -10.1501 N   0  0  0  0  0  0  0  0  0  0  0  0
   18.9845  -23.6018   -9.3184 C   0  0  1  0  0  0  0  0  0  0  0  0
   18.7846  -22.9549   -7.9615 C   0  0  0  0  0  0  0  0  0  0  0  0
   17.8252  -23.7282   -7.1781 C   0  0  0  0  0  0  0  0  0  0  0  0
   17.0976  -24.8062   -7.6194 C   0  0  0  0  0  0  0  0  0  0  0  0
   16.3481  -25.2185   -6.6058 N   0  0  0  0  0  0  0  0  0  0  0  0
   16.5716  -24.4417   -5.5330 C   0  0  0  0  0  0  0  0  0  0  0  0
   17.4901  -23.5245   -5.9095 N   0  0  0  0  0  0  0  0  0  0  0  0
   17.7308  -23.8708  -10.0395 C   0  0  0  0  0  0  0  0  0  0  0  0
   16.8919  -24.6721   -9.5843 O   0  0  0  0  0  0  0  0  0  0  0  0
   17.4770  -23.2305  -11.2337 O   0  0  0  0  0  0  0  0  0  0  0  0
  2  1  1  6
  2 13  1  0
  2  3  1  0
  4  5  2  0
  4  3  1  0
  6  5  1  0
  7 12  2  0
  7  6  1  0
  8  7  1  0
  9 10  1  0
  9  8  2  0
 10 11  2  0
 11 12  1  0
 12  4  1  0
 13 14  2  0
 16 15  1  1
 16 17  1  0
 16 18  1  0
 18 19  1  1
 19 13  1  0
 20 22  1  0
 20 18  1  0
 21 20  2  0
 23 22  1  0
 23 30  1  0
 23 24  1  1
 25 29  1  0
 25 24  1  0
 26 25  2  0
 27 26  1  0
 27 28  1  0
 28 29  2  0
 30 32  1  0
 31 30  2  0
M  END
$$$$
