WTH.pdb
     RDKit          3D

 32 34  0  0  1  0  0  0  0  0999 V2000
   26.7065  -22.3565  -14.1859 N   0  0  0  0  0  0  0  0  0  0  0  0
   25.8691  -21.4187  -13.4789 C   0  0  1  0  0  0  0  0  0  0  0  0
   26.5679  -20.1116  -13.2854 C   0  0  0  0  0  0  0  0  0  0  0  0
   27.7244  -20.2595  -12.3761 C   0  0  0  0  0  0  0  0  0  0  0  0
   29.0565  -20.2704  -12.7562 C   0  0  0  0  0  0  0  0  0  0  0  0
   29.7608  -20.4241  -11.6218 N   0  0  0  0  0  0  0  0  0  0  0  0
   28.9370  -20.5087  -10.5621 C   0  0  0  0  0  0  0  0  0  0  0  0
   29.1286  -20.6676   -9.1978 C   0  0  0  0  0  0  0  0  0  0  0  0
   28.0659  -20.7208   -8.3374 C   0  0  0  0  0  0  0  0  0  0  0  0
   26.7669  -20.6177   -8.8018 C   0  0  0  0  0  0  0  0  0  0  0  0
   26.5511  -20.4593  -10.1519 C   0  0  0  0  0  0  0  0  0  0  0  0
   27.6312  -20.4072  -11.0097 C   0  0  0  0  0  0  0  0  0  0  0  0
   24.6381  -21.1942  -14.3051 C   0  0  0  0  0  0  0  0  0  0  0  0
   24.6875  -20.9991  -15.5460 O   0  0  0  0  0  0  0  0  0  0  0  0
   21.8842  -23.5395  -14.8900 C   0  0  0  0  0  0  0  0  0  0  0  0
   21.2570  -22.2659  -14.3681 C   0  0  1  0  0  0  0  0  0  0  0  0
   21.0520  -22.5000  -12.9988 O   0  0  0  0  0  0  0  0  0  0  0  0
   22.1584  -21.0594  -14.5639 C   0  0  2  0  0  0  0  0  0  0  0  0
   23.3432  -21.1902  -13.7210 N   0  0  0  0  0  0  0  0  0  0  0  0
   21.4210  -19.8807  -14.0426 C   0  0  0  0  0  0  0  0  0  0  0  0
   22.0739  -19.0956  -13.2731 O   0  0  0  0  0  0  0  0  0  0  0  0
   20.0898  -19.5522  -14.3170 N   0  0  0  0  0  0  0  0  0  0  0  0
   19.6437  -18.1840  -13.9969 C   0  0  1  0  0  0  0  0  0  0  0  0
   20.4867  -17.1833  -14.7633 C   0  0  0  0  0  0  0  0  0  0  0  0
   19.9170  -15.8456  -14.6278 C   0  0  0  0  0  0  0  0  0  0  0  0
   18.8422  -15.4958  -13.8477 C   0  0  0  0  0  0  0  0  0  0  0  0
   18.6467  -14.1935  -14.0057 N   0  0  0  0  0  0  0  0  0  0  0  0
   19.5589  -13.6996  -14.8590 C   0  0  0  0  0  0  0  0  0  0  0  0
   20.3361  -14.7403  -15.2326 N   0  0  0  0  0  0  0  0  0  0  0  0
   18.2006  -18.0703  -14.2591 C   0  0  0  0  0  0  0  0  0  0  0  0
   17.4262  -17.6302  -13.3875 O   0  0  0  0  0  0  0  0  0  0  0  0
   17.6948  -18.4543  -15.4828 O   0  0  0  0  0  0  0  0  0  0  0  0
  2  1  1  6
  2 13  1  0
  2  3  1  0
  4  5  2  0
  4  3  1  0
  6  5  1  0
  7 12  2  0
  7  6  1  0
  8  7  1  0
  9 10  1  0
  9  8  2  0
 10 11  2  0
 11 12  1  0
 12  4  1  0
 13 14  2  0
 16 15  1  1
 16 17  1  0
 16 18  1  0
 18 19  1  1
 19 13  1  0
 20 22  1  0
 20 18  1  0
 21 20  2  0
 23 22  1  0
 23 30  1  0
 23 24  1  6
 25 29  1  0
 25 24  1  0
 26 25  2  0
 27 26  1  0
 27 28  1  0
 28 29  2  0
 30 32  1  0
 31 30  2  0
M  END
$$$$
