NWA.pdb
     RDKit          3D

 28 29  0  0  1  0  0  0  0  0999 V2000
    6.7796  -13.4169   18.8327 N   0  0  0  0  0  0  0  0  0  0  0  0
    7.9563  -14.0379   19.3439 C   0  0  0  0  0  0  0  0  0  0  0  0
    8.7224  -14.6346   18.5516 O   0  0  0  0  0  0  0  0  0  0  0  0
    8.2694  -13.9842   20.7813 C   0  0  0  0  0  0  0  0  0  0  0  0
    8.7919  -15.3650   21.1630 C   0  0  2  0  0  0  0  0  0  0  0  0
    7.6564  -16.2295   21.2287 N   0  0  0  0  0  0  0  0  0  0  0  0
    9.5066  -15.2975   22.4954 C   0  0  0  0  0  0  0  0  0  0  0  0
   10.4380  -14.5014   22.6232 O   0  0  0  0  0  0  0  0  0  0  0  0
    9.0883  -16.1448   23.5422 N   0  0  0  0  0  0  0  0  0  0  0  0
    9.7070  -16.3017   24.8238 C   0  0  1  0  0  0  0  0  0  0  0  0
    8.7087  -16.2588   25.9434 C   0  0  0  0  0  0  0  0  0  0  0  0
    7.5997  -15.3416   25.7934 C   0  0  0  0  0  0  0  0  0  0  0  0
    6.3305  -15.7319   25.3990 C   0  0  0  0  0  0  0  0  0  0  0  0
    5.5596  -14.6414   25.4056 N   0  0  0  0  0  0  0  0  0  0  0  0
    6.2425  -13.5438   25.7805 C   0  0  0  0  0  0  0  0  0  0  0  0
    5.8957  -12.2090   25.9329 C   0  0  0  0  0  0  0  0  0  0  0  0
    6.8172  -11.2747   26.3307 C   0  0  0  0  0  0  0  0  0  0  0  0
    8.0979  -11.7001   26.5765 C   0  0  0  0  0  0  0  0  0  0  0  0
    8.4333  -13.0222   26.4243 C   0  0  0  0  0  0  0  0  0  0  0  0
    7.5388  -13.9985   26.0251 C   0  0  0  0  0  0  0  0  0  0  0  0
   10.8261  -17.2097   24.9495 C   0  0  0  0  0  0  0  0  0  0  0  0
   11.3498  -17.4978   26.0389 O   0  0  0  0  0  0  0  0  0  0  0  0
   12.3276  -19.9683   22.9977 C   0  0  0  0  0  0  0  0  0  0  0  0
   12.4644  -18.8656   24.0198 C   0  0  2  0  0  0  0  0  0  0  0  0
   11.4135  -17.8529   23.8092 N   0  0  0  0  0  0  0  0  0  0  0  0
   13.7602  -18.1515   23.8793 C   0  0  0  0  0  0  0  0  0  0  0  0
   13.8634  -16.8255   23.5057 O   0  0  0  0  0  0  0  0  0  0  0  0
   14.8363  -18.7798   24.1112 O   0  0  0  0  0  0  0  0  0  0  0  0
  2  1  1  0
  2  3  2  0
  4  5  1  0
  4  2  1  0
  5  7  1  0
  5  6  1  1
  7  8  2  0
  9 10  1  0
  9  7  1  0
 10 11  1  1
 11 12  1  0
 12 20  1  0
 13 12  2  0
 13 14  1  0
 14 15  1  0
 15 16  1  0
 16 17  2  0
 18 17  1  0
 19 18  2  0
 20 15  2  0
 20 19  1  0
 21 22  2  0
 21 10  1  0
 24 23  1  6
 24 25  1  0
 24 26  1  0
 25 21  1  0
 26 27  1  0
 28 26  2  0
M  END
$$$$
