NWA.pdb
     RDKit          3D

 28 29  0  0  1  0  0  0  0  0999 V2000
   12.3293  -18.9302   18.4679 N   0  0  0  0  0  0  0  0  0  0  0  0
   12.9150  -17.8460   19.1841 C   0  0  0  0  0  0  0  0  0  0  0  0
   14.1633  -17.7378   19.2102 O   0  0  0  0  0  0  0  0  0  0  0  0
   12.0696  -16.8670   19.8871 C   0  0  0  0  0  0  0  0  0  0  0  0
   11.7319  -17.4796   21.2420 C   0  0  2  0  0  0  0  0  0  0  0  0
   10.7212  -18.4618   21.0076 N   0  0  0  0  0  0  0  0  0  0  0  0
   11.2419  -16.4047   22.1881 C   0  0  0  0  0  0  0  0  0  0  0  0
   11.9757  -15.4413   22.4138 O   0  0  0  0  0  0  0  0  0  0  0  0
    9.9693  -16.5398   22.7804 N   0  0  0  0  0  0  0  0  0  0  0  0
    9.3746  -15.6733   23.7527 C   0  0  1  0  0  0  0  0  0  0  0  0
    7.8822  -15.8218   23.8057 C   0  0  0  0  0  0  0  0  0  0  0  0
    7.1823  -15.0264   24.7912 C   0  0  0  0  0  0  0  0  0  0  0  0
    6.4139  -15.5687   25.8082 C   0  0  0  0  0  0  0  0  0  0  0  0
    5.9544  -14.5531   26.5437 N   0  0  0  0  0  0  0  0  0  0  0  0
    6.3710  -13.3622   26.0744 C   0  0  0  0  0  0  0  0  0  0  0  0
    6.1624  -12.0511   26.4774 C   0  0  0  0  0  0  0  0  0  0  0  0
    6.7154  -10.9992   25.7932 C   0  0  0  0  0  0  0  0  0  0  0  0
    7.4860  -11.2821   24.6943 C   0  0  0  0  0  0  0  0  0  0  0  0
    7.6885  -12.5817   24.3021 C   0  0  0  0  0  0  0  0  0  0  0  0
    7.1511  -13.6730   24.9600 C   0  0  0  0  0  0  0  0  0  0  0  0
   10.0756  -15.4376   24.9958 C   0  0  0  0  0  0  0  0  0  0  0  0
   10.8166  -14.4581   25.1842 O   0  0  0  0  0  0  0  0  0  0  0  0
    9.7176  -14.7833   27.9913 C   0  0  0  0  0  0  0  0  0  0  0  0
   10.5215  -15.9241   27.4156 C   0  0  2  0  0  0  0  0  0  0  0  0
    9.9579  -16.3287   26.1144 N   0  0  0  0  0  0  0  0  0  0  0  0
   10.4579  -17.1275   28.2854 C   0  0  0  0  0  0  0  0  0  0  0  0
   10.9648  -17.1676   29.5699 O   0  0  0  0  0  0  0  0  0  0  0  0
    9.9125  -18.1807   27.8382 O   0  0  0  0  0  0  0  0  0  0  0  0
  2  1  1  0
  2  3  2  0
  4  5  1  0
  4  2  1  0
  5  7  1  0
  5  6  1  6
  7  8  2  0
  9 10  1  0
  9  7  1  0
 10 11  1  1
 11 12  1  0
 12 20  1  0
 13 12  2  0
 13 14  1  0
 14 15  1  0
 15 16  1  0
 16 17  2  0
 18 17  1  0
 19 18  2  0
 20 15  2  0
 20 19  1  0
 21 22  2  0
 21 10  1  0
 24 23  1  1
 24 25  1  0
 24 26  1  0
 25 21  1  0
 26 27  1  0
 28 26  2  0
M  END
$$$$
