NWA.pdb
     RDKit          3D

 28 29  0  0  1  0  0  0  0  0999 V2000
    8.4200  -12.9031   18.3999 N   0  0  0  0  0  0  0  0  0  0  0  0
    7.7429  -13.8874   19.1772 C   0  0  0  0  0  0  0  0  0  0  0  0
    7.0193  -14.7295   18.5959 O   0  0  0  0  0  0  0  0  0  0  0  0
    7.8862  -13.9161   20.6421 C   0  0  0  0  0  0  0  0  0  0  0  0
    8.5990  -15.2204   20.9825 C   0  0  2  0  0  0  0  0  0  0  0  0
    7.5901  -16.2281   21.0709 N   0  0  0  0  0  0  0  0  0  0  0  0
    9.3450  -15.0760   22.2914 C   0  0  0  0  0  0  0  0  0  0  0  0
   10.2197  -14.2128   22.3772 O   0  0  0  0  0  0  0  0  0  0  0  0
    9.0193  -15.9305   23.3648 N   0  0  0  0  0  0  0  0  0  0  0  0
    9.6810  -16.0139   24.6317 C   0  0  1  0  0  0  0  0  0  0  0  0
    8.7109  -16.0419   25.7763 C   0  0  0  0  0  0  0  0  0  0  0  0
    7.5956  -15.1225   25.7085 C   0  0  0  0  0  0  0  0  0  0  0  0
    6.3124  -15.4997   25.3482 C   0  0  0  0  0  0  0  0  0  0  0  0
    5.5409  -14.4127   25.4308 N   0  0  0  0  0  0  0  0  0  0  0  0
    6.2366  -13.3297   25.8244 C   0  0  0  0  0  0  0  0  0  0  0  0
    5.8944  -12.0036   26.0461 C   0  0  0  0  0  0  0  0  0  0  0  0
    6.8296  -11.0840   26.4463 C   0  0  0  0  0  0  0  0  0  0  0  0
    8.1195  -11.5156   26.6236 C   0  0  0  0  0  0  0  0  0  0  0  0
    8.4504  -12.8292   26.4031 C   0  0  0  0  0  0  0  0  0  0  0  0
    7.5421  -13.7905   25.9986 C   0  0  0  0  0  0  0  0  0  0  0  0
   10.8782  -16.8185   24.7397 C   0  0  0  0  0  0  0  0  0  0  0  0
   11.6803  -16.7222   25.6838 O   0  0  0  0  0  0  0  0  0  0  0  0
   13.6535  -17.5979   23.5891 C   0  0  0  0  0  0  0  0  0  0  0  0
   12.5006  -18.5278   23.8811 C   0  0  2  0  0  0  0  0  0  0  0  0
   11.2242  -17.8006   23.7523 N   0  0  0  0  0  0  0  0  0  0  0  0
   12.5493  -19.0322   25.2783 C   0  0  0  0  0  0  0  0  0  0  0  0
   13.6280  -19.7161   25.8049 O   0  0  0  0  0  0  0  0  0  0  0  0
   11.5555  -18.8316   26.0389 O   0  0  0  0  0  0  0  0  0  0  0  0
  2  1  1  0
  2  3  2  0
  4  5  1  0
  4  2  1  0
  5  7  1  0
  5  6  1  1
  7  8  2  0
  9 10  1  0
  9  7  1  0
 10 11  1  1
 11 12  1  0
 12 20  1  0
 13 12  2  0
 13 14  1  0
 14 15  1  0
 15 16  1  0
 16 17  2  0
 18 17  1  0
 19 18  2  0
 20 15  2  0
 20 19  1  0
 21 22  2  0
 21 10  1  0
 24 23  1  1
 24 25  1  0
 24 26  1  0
 25 21  1  0
 26 27  1  0
 28 26  2  0
M  END
$$$$
