NWA.pdb
     RDKit          3D

 28 29  0  0  1  0  0  0  0  0999 V2000
    6.0678  -15.2125   19.5742 N   0  0  0  0  0  0  0  0  0  0  0  0
    7.4842  -15.1662   19.7263 C   0  0  0  0  0  0  0  0  0  0  0  0
    8.2108  -15.4344   18.7410 O   0  0  0  0  0  0  0  0  0  0  0  0
    8.0889  -14.8119   21.0209 C   0  0  0  0  0  0  0  0  0  0  0  0
    8.8646  -16.0390   21.4873 C   0  0  2  0  0  0  0  0  0  0  0  0
    7.9105  -17.0899   21.6499 N   0  0  0  0  0  0  0  0  0  0  0  0
    9.5750  -15.7380   22.7894 C   0  0  0  0  0  0  0  0  0  0  0  0
   10.4174  -14.8394   22.8052 O   0  0  0  0  0  0  0  0  0  0  0  0
    9.2541  -16.4927   23.9365 N   0  0  0  0  0  0  0  0  0  0  0  0
    9.9298  -16.4722   25.1987 C   0  0  1  0  0  0  0  0  0  0  0  0
    8.9795  -16.2953   26.3466 C   0  0  0  0  0  0  0  0  0  0  0  0
    7.8153  -15.4698   26.1081 C   0  0  0  0  0  0  0  0  0  0  0  0
    6.5739  -15.9776   25.7620 C   0  0  0  0  0  0  0  0  0  0  0  0
    5.7359  -14.9428   25.6598 N   0  0  0  0  0  0  0  0  0  0  0  0
    6.3477  -13.7716   25.9166 C   0  0  0  0  0  0  0  0  0  0  0  0
    5.9174  -12.4527   25.9323 C   0  0  0  0  0  0  0  0  0  0  0  0
    6.7776  -11.4264   26.2274 C   0  0  0  0  0  0  0  0  0  0  0  0
    8.0820  -11.7430   26.5098 C   0  0  0  0  0  0  0  0  0  0  0  0
    8.5002  -13.0501   26.4930 C   0  0  0  0  0  0  0  0  0  0  0  0
    7.6696  -14.1165   26.2006 C   0  0  0  0  0  0  0  0  0  0  0  0
   11.0697  -17.3415   25.3918 C   0  0  0  0  0  0  0  0  0  0  0  0
   11.6961  -17.4149   26.4624 O   0  0  0  0  0  0  0  0  0  0  0  0
   12.7887  -20.1679   23.5960 C   0  0  0  0  0  0  0  0  0  0  0  0
   12.7299  -19.0516   24.6107 C   0  0  2  0  0  0  0  0  0  0  0  0
   11.5593  -18.1945   24.3469 N   0  0  0  0  0  0  0  0  0  0  0  0
   13.9198  -18.1664   24.5149 C   0  0  0  0  0  0  0  0  0  0  0  0
   15.1106  -18.4160   25.1694 O   0  0  0  0  0  0  0  0  0  0  0  0
   13.8534  -17.1232   23.7981 O   0  0  0  0  0  0  0  0  0  0  0  0
  2  1  1  0
  2  3  2  0
  4  5  1  0
  4  2  1  0
  5  7  1  0
  5  6  1  1
  7  8  2  0
  9 10  1  0
  9  7  1  0
 10 11  1  1
 11 12  1  0
 12 20  1  0
 13 12  2  0
 13 14  1  0
 14 15  1  0
 15 16  1  0
 16 17  2  0
 18 17  1  0
 19 18  2  0
 20 15  2  0
 20 19  1  0
 21 22  2  0
 21 10  1  0
 24 23  1  6
 24 25  1  0
 24 26  1  0
 25 21  1  0
 26 27  1  0
 28 26  2  0
M  END
$$$$
