NWA.pdb
     RDKit          3D

 28 29  0  0  1  0  0  0  0  0999 V2000
   11.0144  -16.9891   17.4531 N   0  0  0  0  0  0  0  0  0  0  0  0
   11.4217  -16.5038   18.7299 C   0  0  0  0  0  0  0  0  0  0  0  0
   12.6238  -16.6131   19.0670 O   0  0  0  0  0  0  0  0  0  0  0  0
   10.4472  -15.8854   19.6437 C   0  0  0  0  0  0  0  0  0  0  0  0
   10.4678  -16.7129   20.9242 C   0  0  2  0  0  0  0  0  0  0  0  0
    9.7375  -17.9100   20.6507 N   0  0  0  0  0  0  0  0  0  0  0  0
    9.8350  -15.9316   22.0554 C   0  0  0  0  0  0  0  0  0  0  0  0
    8.8334  -15.2560   21.8148 O   0  0  0  0  0  0  0  0  0  0  0  0
   10.4097  -15.9989   23.3414 N   0  0  0  0  0  0  0  0  0  0  0  0
    9.7442  -15.8045   24.5942 C   0  0  1  0  0  0  0  0  0  0  0  0
    8.3414  -16.3372   24.5786 C   0  0  0  0  0  0  0  0  0  0  0  0
    7.2985  -15.4411   25.0295 C   0  0  0  0  0  0  0  0  0  0  0  0
    5.9808  -15.8281   25.2099 C   0  0  0  0  0  0  0  0  0  0  0  0
    5.3133  -14.7647   25.6652 N   0  0  0  0  0  0  0  0  0  0  0  0
    6.1104  -13.6881   25.7975 C   0  0  0  0  0  0  0  0  0  0  0  0
    5.8915  -12.3835   26.2158 C   0  0  0  0  0  0  0  0  0  0  0  0
    6.9092  -11.4650   26.2460 C   0  0  0  0  0  0  0  0  0  0  0  0
    8.1567  -11.8758   25.8504 C   0  0  0  0  0  0  0  0  0  0  0  0
    8.3658  -13.1682   25.4386 C   0  0  0  0  0  0  0  0  0  0  0  0
    7.3708  -14.1275   25.3910 C   0  0  0  0  0  0  0  0  0  0  0  0
   10.5067  -15.9423   25.8157 C   0  0  0  0  0  0  0  0  0  0  0  0
   11.3698  -16.8202   25.9840 O   0  0  0  0  0  0  0  0  0  0  0  0
   10.9161  -14.0889   29.0926 C   0  0  0  0  0  0  0  0  0  0  0  0
   11.1799  -15.2121   28.1188 C   0  0  2  0  0  0  0  0  0  0  0  0
   10.3196  -15.0589   26.9310 N   0  0  0  0  0  0  0  0  0  0  0  0
   10.8394  -16.5335   28.7076 C   0  0  0  0  0  0  0  0  0  0  0  0
   11.6851  -17.2363   29.5440 O   0  0  0  0  0  0  0  0  0  0  0  0
    9.7168  -17.0559   28.4369 O   0  0  0  0  0  0  0  0  0  0  0  0
  2  1  1  0
  2  3  2  0
  4  5  1  0
  4  2  1  0
  5  7  1  0
  5  6  1  6
  7  8  2  0
  9 10  1  0
  9  7  1  0
 10 11  1  1
 11 12  1  0
 12 20  1  0
 13 12  2  0
 13 14  1  0
 14 15  1  0
 15 16  1  0
 16 17  2  0
 18 17  1  0
 19 18  2  0
 20 15  2  0
 20 19  1  0
 21 22  2  0
 21 10  1  0
 24 23  1  1
 24 25  1  0
 24 26  1  0
 25 21  1  0
 26 27  1  0
 28 26  2  0
M  END
$$$$
