NWA.pdb
     RDKit          3D

 28 29  0  0  1  0  0  0  0  0999 V2000
   11.7890  -16.5316   18.2045 N   0  0  0  0  0  0  0  0  0  0  0  0
   12.3730  -16.5123   19.5045 C   0  0  0  0  0  0  0  0  0  0  0  0
   13.4745  -17.0822   19.6851 O   0  0  0  0  0  0  0  0  0  0  0  0
   11.6941  -15.8365   20.6224 C   0  0  0  0  0  0  0  0  0  0  0  0
   11.7974  -16.7724   21.8218 C   0  0  2  0  0  0  0  0  0  0  0  0
   11.0046  -17.9207   21.5153 N   0  0  0  0  0  0  0  0  0  0  0  0
   11.2932  -16.0752   23.0669 C   0  0  0  0  0  0  0  0  0  0  0  0
   11.7905  -14.9914   23.3759 O   0  0  0  0  0  0  0  0  0  0  0  0
   10.2776  -16.6856   23.8316 N   0  0  0  0  0  0  0  0  0  0  0  0
    9.7047  -16.1980   25.0498 C   0  0  1  0  0  0  0  0  0  0  0  0
    8.2099  -16.3297   25.0648 C   0  0  0  0  0  0  0  0  0  0  0  0
    7.4488  -15.1676   24.6599 C   0  0  0  0  0  0  0  0  0  0  0  0
    6.7891  -15.0686   23.4459 C   0  0  0  0  0  0  0  0  0  0  0  0
    6.1662  -13.8874   23.4275 N   0  0  0  0  0  0  0  0  0  0  0  0
    6.3738  -13.1905   24.5603 C   0  0  0  0  0  0  0  0  0  0  0  0
    5.9571  -11.9439   25.0045 C   0  0  0  0  0  0  0  0  0  0  0  0
    6.3332  -11.4630   26.2323 C   0  0  0  0  0  0  0  0  0  0  0  0
    7.1362  -12.2547   27.0134 C   0  0  0  0  0  0  0  0  0  0  0  0
    7.5438  -13.4870   26.5675 C   0  0  0  0  0  0  0  0  0  0  0  0
    7.1904  -14.0122   25.3380 C   0  0  0  0  0  0  0  0  0  0  0  0
   10.4159  -16.4182   26.2900 C   0  0  0  0  0  0  0  0  0  0  0  0
   11.1194  -17.4201   26.5026 O   0  0  0  0  0  0  0  0  0  0  0  0
   10.9663  -14.6250   29.5811 C   0  0  0  0  0  0  0  0  0  0  0  0
   11.0579  -15.7967   28.6336 C   0  0  2  0  0  0  0  0  0  0  0  0
   10.3609  -15.4790   27.3735 N   0  0  0  0  0  0  0  0  0  0  0  0
   10.3817  -16.9985   29.1878 C   0  0  0  0  0  0  0  0  0  0  0  0
    9.0594  -17.3120   28.9392 O   0  0  0  0  0  0  0  0  0  0  0  0
   11.0407  -17.7870   29.9298 O   0  0  0  0  0  0  0  0  0  0  0  0
  2  1  1  0
  2  3  2  0
  4  5  1  0
  4  2  1  0
  5  7  1  0
  5  6  1  6
  7  8  2  0
  9 10  1  0
  9  7  1  0
 10 11  1  1
 11 12  1  0
 12 20  1  0
 13 12  2  0
 13 14  1  0
 14 15  1  0
 15 16  1  0
 16 17  2  0
 18 17  1  0
 19 18  2  0
 20 15  2  0
 20 19  1  0
 21 22  2  0
 21 10  1  0
 24 23  1  1
 24 25  1  0
 24 26  1  0
 25 21  1  0
 26 27  1  0
 28 26  2  0
M  END
$$$$
