NWA.pdb
     RDKit          3D

 28 29  0  0  1  0  0  0  0  0999 V2000
   10.6557  -16.6807   17.8182 N   0  0  0  0  0  0  0  0  0  0  0  0
   11.2902  -16.8121   19.0877 C   0  0  0  0  0  0  0  0  0  0  0  0
   12.2786  -17.5747   19.1976 O   0  0  0  0  0  0  0  0  0  0  0  0
   10.7930  -16.0671   20.2561 C   0  0  0  0  0  0  0  0  0  0  0  0
   10.7665  -17.0526   21.4194 C   0  0  2  0  0  0  0  0  0  0  0  0
    9.6347  -17.8999   21.2134 N   0  0  0  0  0  0  0  0  0  0  0  0
   10.6584  -16.3033   22.7298 C   0  0  0  0  0  0  0  0  0  0  0  0
   11.4367  -15.3718   22.9403 O   0  0  0  0  0  0  0  0  0  0  0  0
    9.6776  -16.6939   23.6648 N   0  0  0  0  0  0  0  0  0  0  0  0
    9.4744  -16.1565   24.9763 C   0  0  1  0  0  0  0  0  0  0  0  0
    8.1294  -16.5193   25.5344 C   0  0  0  0  0  0  0  0  0  0  0  0
    7.1041  -15.4998   25.4795 C   0  0  0  0  0  0  0  0  0  0  0  0
    5.8270  -15.7229   24.9917 C   0  0  0  0  0  0  0  0  0  0  0  0
    5.1450  -14.5827   25.1277 N   0  0  0  0  0  0  0  0  0  0  0  0
    5.8949  -13.6095   25.6774 C   0  0  0  0  0  0  0  0  0  0  0  0
    5.6482  -12.2844   26.0064 C   0  0  0  0  0  0  0  0  0  0  0  0
    6.6218  -11.4956   26.5633 C   0  0  0  0  0  0  0  0  0  0  0  0
    7.8526  -12.0577   26.7886 C   0  0  0  0  0  0  0  0  0  0  0  0
    8.0891  -13.3694   26.4612 C   0  0  0  0  0  0  0  0  0  0  0  0
    7.1391  -14.2016   25.8977 C   0  0  0  0  0  0  0  0  0  0  0  0
   10.5951  -16.1077   25.8895 C   0  0  0  0  0  0  0  0  0  0  0  0
   11.5507  -15.3253   25.7530 O   0  0  0  0  0  0  0  0  0  0  0  0
   10.8867  -15.3196   28.8257 C   0  0  0  0  0  0  0  0  0  0  0  0
   11.4933  -16.5471   28.1897 C   0  0  2  0  0  0  0  0  0  0  0  0
   10.6790  -16.9683   27.0347 N   0  0  0  0  0  0  0  0  0  0  0  0
   11.5032  -17.6982   29.1297 C   0  0  0  0  0  0  0  0  0  0  0  0
   10.7807  -18.8574   28.9233 O   0  0  0  0  0  0  0  0  0  0  0  0
   12.2074  -17.6267   30.1812 O   0  0  0  0  0  0  0  0  0  0  0  0
  2  1  1  0
  2  3  2  0
  4  5  1  0
  4  2  1  0
  5  7  1  0
  5  6  1  6
  7  8  2  0
  9 10  1  0
  9  7  1  0
 10 11  1  1
 11 12  1  0
 12 20  1  0
 13 12  2  0
 13 14  1  0
 14 15  1  0
 15 16  1  0
 16 17  2  0
 18 17  1  0
 19 18  2  0
 20 15  2  0
 20 19  1  0
 21 22  2  0
 21 10  1  0
 24 23  1  1
 24 25  1  0
 24 26  1  0
 25 21  1  0
 26 27  1  0
 28 26  2  0
M  END
$$$$
