NWA.pdb
     RDKit          3D

 28 29  0  0  1  0  0  0  0  0999 V2000
   12.9305  -18.7073   19.8516 N   0  0  0  0  0  0  0  0  0  0  0  0
   13.0089  -17.2983   19.6514 C   0  0  0  0  0  0  0  0  0  0  0  0
   13.4503  -16.8623   18.5625 O   0  0  0  0  0  0  0  0  0  0  0  0
   12.5816  -16.3652   20.7069 C   0  0  0  0  0  0  0  0  0  0  0  0
   11.1673  -16.7760   21.1021 C   0  0  2  0  0  0  0  0  0  0  0  0
   10.3204  -16.4419   20.0010 N   0  0  0  0  0  0  0  0  0  0  0  0
   10.7475  -16.0431   22.3579 C   0  0  0  0  0  0  0  0  0  0  0  0
   11.2102  -14.9204   22.5657 O   0  0  0  0  0  0  0  0  0  0  0  0
    9.8473  -16.6654   23.2472 N   0  0  0  0  0  0  0  0  0  0  0  0
    9.3900  -16.1587   24.5059 C   0  0  1  0  0  0  0  0  0  0  0  0
    7.9607  -16.5260   24.7783 C   0  0  0  0  0  0  0  0  0  0  0  0
    7.0806  -15.4559   25.1956 C   0  0  0  0  0  0  0  0  0  0  0  0
    5.7315  -15.6310   25.4563 C   0  0  0  0  0  0  0  0  0  0  0  0
    5.2466  -14.4507   25.8503 N   0  0  0  0  0  0  0  0  0  0  0  0
    6.1953  -13.4960   25.8660 C   0  0  0  0  0  0  0  0  0  0  0  0
    6.1866  -12.1462   26.1868 C   0  0  0  0  0  0  0  0  0  0  0  0
    7.3258  -11.3873   26.1049 C   0  0  0  0  0  0  0  0  0  0  0  0
    8.4805  -12.0046   25.6962 C   0  0  0  0  0  0  0  0  0  0  0  0
    8.4816  -13.3405   25.3813 C   0  0  0  0  0  0  0  0  0  0  0  0
    7.3582  -14.1442   25.4482 C   0  0  0  0  0  0  0  0  0  0  0  0
   10.3085  -16.1396   25.6232 C   0  0  0  0  0  0  0  0  0  0  0  0
   11.3149  -16.8654   25.6896 O   0  0  0  0  0  0  0  0  0  0  0  0
   10.7233  -14.2733   28.8953 C   0  0  0  0  0  0  0  0  0  0  0  0
   11.0978  -15.2955   27.8492 C   0  0  2  0  0  0  0  0  0  0  0  0
   10.1205  -15.2652   26.7454 N   0  0  0  0  0  0  0  0  0  0  0  0
   11.0575  -16.6758   28.3987 C   0  0  0  0  0  0  0  0  0  0  0  0
   12.0901  -17.2382   29.1240 O   0  0  0  0  0  0  0  0  0  0  0  0
   10.0273  -17.3867   28.1992 O   0  0  0  0  0  0  0  0  0  0  0  0
  2  1  1  0
  2  3  2  0
  4  5  1  0
  4  2  1  0
  5  7  1  0
  5  6  1  6
  7  8  2  0
  9 10  1  0
  9  7  1  0
 10 11  1  1
 11 12  1  0
 12 20  1  0
 13 12  2  0
 13 14  1  0
 14 15  1  0
 15 16  1  0
 16 17  2  0
 18 17  1  0
 19 18  2  0
 20 15  2  0
 20 19  1  0
 21 22  2  0
 21 10  1  0
 24 23  1  1
 24 25  1  0
 24 26  1  0
 25 21  1  0
 26 27  1  0
 28 26  2  0
M  END
$$$$
