NWA.pdb
     RDKit          3D

 28 29  0  0  1  0  0  0  0  0999 V2000
    6.4434  -14.9029   19.6375 N   0  0  0  0  0  0  0  0  0  0  0  0
    7.8288  -15.0603   19.9331 C   0  0  0  0  0  0  0  0  0  0  0  0
    8.6004  -15.4670   19.0331 O   0  0  0  0  0  0  0  0  0  0  0  0
    8.3494  -14.7537   21.2755 C   0  0  0  0  0  0  0  0  0  0  0  0
    8.9918  -16.0355   21.7946 C   0  0  2  0  0  0  0  0  0  0  0  0
    7.9389  -16.9889   21.9478 N   0  0  0  0  0  0  0  0  0  0  0  0
    9.6857  -15.7693   23.1129 C   0  0  0  0  0  0  0  0  0  0  0  0
   10.6593  -15.0146   23.1228 O   0  0  0  0  0  0  0  0  0  0  0  0
    9.2007  -16.3918   24.2817 N   0  0  0  0  0  0  0  0  0  0  0  0
    9.8416  -16.4419   25.5611 C   0  0  1  0  0  0  0  0  0  0  0  0
    8.9120  -16.0590   26.6751 C   0  0  0  0  0  0  0  0  0  0  0  0
    7.7241  -15.3188   26.3080 C   0  0  0  0  0  0  0  0  0  0  0  0
    6.5578  -15.9157   25.8582 C   0  0  0  0  0  0  0  0  0  0  0  0
    5.6670  -14.9422   25.6526 N   0  0  0  0  0  0  0  0  0  0  0  0
    6.1729  -13.7279   25.9379 C   0  0  0  0  0  0  0  0  0  0  0  0
    5.6570  -12.4411   25.8813 C   0  0  0  0  0  0  0  0  0  0  0  0
    6.4153  -11.3537   26.2317 C   0  0  0  0  0  0  0  0  0  0  0  0
    7.7047  -11.5760   26.6436 C   0  0  0  0  0  0  0  0  0  0  0  0
    8.2078  -12.8518   26.6978 C   0  0  0  0  0  0  0  0  0  0  0  0
    7.4813  -13.9771   26.3538 C   0  0  0  0  0  0  0  0  0  0  0  0
   10.8070  -17.4887   25.8150 C   0  0  0  0  0  0  0  0  0  0  0  0
   11.4071  -17.6136   26.8959 O   0  0  0  0  0  0  0  0  0  0  0  0
   11.9441  -20.7012   24.2317 C   0  0  0  0  0  0  0  0  0  0  0  0
   12.1217  -19.5201   25.1552 C   0  0  2  0  0  0  0  0  0  0  0  0
   11.1392  -18.4717   24.8238 N   0  0  0  0  0  0  0  0  0  0  0  0
   13.4612  -18.8977   24.9904 C   0  0  0  0  0  0  0  0  0  0  0  0
   14.5984  -19.3557   25.6274 O   0  0  0  0  0  0  0  0  0  0  0  0
   13.5820  -17.8924   24.2280 O   0  0  0  0  0  0  0  0  0  0  0  0
  2  1  1  0
  2  3  2  0
  4  5  1  0
  4  2  1  0
  5  7  1  0
  5  6  1  1
  7  8  2  0
  9 10  1  0
  9  7  1  0
 10 11  1  1
 11 12  1  0
 12 20  1  0
 13 12  2  0
 13 14  1  0
 14 15  1  0
 15 16  1  0
 16 17  2  0
 18 17  1  0
 19 18  2  0
 20 15  2  0
 20 19  1  0
 21 22  2  0
 21 10  1  0
 24 23  1  6
 24 25  1  0
 24 26  1  0
 25 21  1  0
 26 27  1  0
 28 26  2  0
M  END
$$$$
