NWA.pdb
     RDKit          3D

 28 29  0  0  1  0  0  0  0  0999 V2000
   12.3644  -16.2140   18.5787 N   0  0  0  0  0  0  0  0  0  0  0  0
   11.1315  -16.4641   19.2487 C   0  0  0  0  0  0  0  0  0  0  0  0
   10.2595  -17.1603   18.6782 O   0  0  0  0  0  0  0  0  0  0  0  0
   10.8807  -15.9120   20.5902 C   0  0  0  0  0  0  0  0  0  0  0  0
   10.7905  -17.1023   21.5390 C   0  0  2  0  0  0  0  0  0  0  0  0
    9.6616  -17.8731   21.1237 N   0  0  0  0  0  0  0  0  0  0  0  0
   10.6284  -16.6173   22.9635 C   0  0  0  0  0  0  0  0  0  0  0  0
   11.4563  -15.8227   23.4116 O   0  0  0  0  0  0  0  0  0  0  0  0
    9.5427  -17.0893   23.7297 N   0  0  0  0  0  0  0  0  0  0  0  0
    9.2846  -16.8253   25.1130 C   0  0  1  0  0  0  0  0  0  0  0  0
    7.9074  -16.2726   25.3364 C   0  0  0  0  0  0  0  0  0  0  0  0
    7.6197  -14.9816   24.7497 C   0  0  0  0  0  0  0  0  0  0  0  0
    7.5106  -14.7671   23.3855 C   0  0  0  0  0  0  0  0  0  0  0  0
    7.2036  -13.4794   23.2092 N   0  0  0  0  0  0  0  0  0  0  0  0
    7.1030  -12.8207   24.3787 C   0  0  0  0  0  0  0  0  0  0  0  0
    6.8183  -11.5042   24.7118 C   0  0  0  0  0  0  0  0  0  0  0  0
    6.7880  -11.0909   26.0189 C   0  0  0  0  0  0  0  0  0  0  0  0
    7.0469  -12.0216   26.9928 C   0  0  0  0  0  0  0  0  0  0  0  0
    7.3270  -13.3222   26.6557 C   0  0  0  0  0  0  0  0  0  0  0  0
    7.3692  -13.7838   25.3527 C   0  0  0  0  0  0  0  0  0  0  0  0
    9.8193  -17.7314   26.1058 C   0  0  0  0  0  0  0  0  0  0  0  0
    9.5216  -17.6734   27.3108 O   0  0  0  0  0  0  0  0  0  0  0  0
   11.1318  -21.1242   26.3154 C   0  0  0  0  0  0  0  0  0  0  0  0
   11.2011  -19.7010   26.8142 C   0  0  2  0  0  0  0  0  0  0  0  0
   10.7395  -18.7772   25.7615 N   0  0  0  0  0  0  0  0  0  0  0  0
   12.5977  -19.3028   27.1297 C   0  0  0  0  0  0  0  0  0  0  0  0
   13.3535  -18.4710   26.3263 O   0  0  0  0  0  0  0  0  0  0  0  0
   13.1374  -19.7420   28.1892 O   0  0  0  0  0  0  0  0  0  0  0  0
  2  1  1  0
  2  3  2  0
  4  5  1  0
  4  2  1  0
  5  7  1  0
  5  6  1  6
  7  8  2  0
  9 10  1  0
  9  7  1  0
 10 11  1  6
 11 12  1  0
 12 20  1  0
 13 12  2  0
 13 14  1  0
 14 15  1  0
 15 16  1  0
 16 17  2  0
 18 17  1  0
 19 18  2  0
 20 15  2  0
 20 19  1  0
 21 22  2  0
 21 10  1  0
 24 23  1  6
 24 25  1  0
 24 26  1  0
 25 21  1  0
 26 27  1  0
 28 26  2  0
M  END
$$$$
