QLY.pdb
     RDKit          3D

 30 30  0  0  1  0  0  0  0  0999 V2000
   29.3057  -18.5424  -16.6050 N   0  0  0  0  0  0  0  0  0  0  0  0
   29.1861  -19.0911  -17.9318 C   0  0  0  0  0  0  0  0  0  0  0  0
   30.0432  -18.7780  -18.7662 O   0  0  0  0  0  0  0  0  0  0  0  0
   28.0839  -20.0007  -18.2931 C   0  0  0  0  0  0  0  0  0  0  0  0
   27.2357  -20.3780  -17.1436 C   0  0  0  0  0  0  0  0  0  0  0  0
   27.6665  -21.5297  -16.3100 C   0  0  2  0  0  0  0  0  0  0  0  0
   27.9516  -22.7537  -17.0037 N   0  0  0  0  0  0  0  0  0  0  0  0
   26.7084  -21.8201  -15.1988 C   0  0  0  0  0  0  0  0  0  0  0  0
   25.8186  -22.6803  -15.3937 O   0  0  0  0  0  0  0  0  0  0  0  0
   25.6365  -19.8368   -9.3531 C   0  0  0  0  0  0  0  0  0  0  0  0
   25.1911  -20.5710  -10.5877 C   0  0  2  0  0  0  0  0  0  0  0  0
   24.9135  -22.0226  -10.2262 C   0  0  0  0  0  0  0  0  0  0  0  0
   26.2499  -20.5833  -11.6608 C   0  0  0  0  0  0  0  0  0  0  0  0
   25.7422  -21.2458  -12.9345 C   0  0  2  0  0  0  0  0  0  0  0  0
   26.7531  -21.1772  -13.9434 N   0  0  0  0  0  0  0  0  0  0  0  0
   24.4935  -20.5489  -13.3176 C   0  0  0  0  0  0  0  0  0  0  0  0
   24.5357  -19.3185  -13.5391 O   0  0  0  0  0  0  0  0  0  0  0  0
   19.8739  -26.5074  -13.6683 O   0  0  0  0  0  0  0  0  0  0  0  0
   20.2168  -25.2179  -14.0052 C   0  0  0  0  0  0  0  0  0  0  0  0
   21.4444  -24.9628  -14.5472 C   0  0  0  0  0  0  0  0  0  0  0  0
   21.8514  -23.7087  -14.9052 C   0  0  0  0  0  0  0  0  0  0  0  0
   21.0091  -22.6137  -14.7268 C   0  0  0  0  0  0  0  0  0  0  0  0
   21.4627  -21.2652  -15.0895 C   0  0  0  0  0  0  0  0  0  0  0  0
   22.0252  -20.5620  -13.8941 C   0  0  2  0  0  0  0  0  0  0  0  0
   23.2581  -21.2232  -13.4416 N   0  0  0  0  0  0  0  0  0  0  0  0
   21.0555  -20.5437  -12.7988 C   0  0  0  0  0  0  0  0  0  0  0  0
   19.8820  -19.8114  -12.7892 O   0  0  0  0  0  0  0  0  0  0  0  0
   19.7747  -22.8724  -14.1812 C   0  0  0  0  0  0  0  0  0  0  0  0
   19.3762  -24.1367  -13.8253 C   0  0  0  0  0  0  0  0  0  0  0  0
   21.2806  -21.2454  -11.7544 O   0  0  0  0  0  0  0  0  0  0  0  0
  1  2  1  0
  2  4  1  0
  3  2  2  0
  4  5  1  0
  5  6  1  0
  6  7  1  6
  6  8  1  0
  8  9  2  0
 11 10  1  1
 12 11  1  0
 13 11  1  0
 14 13  1  1
 15  8  1  0
 15 14  1  0
 16 25  1  0
 16 14  1  0
 17 16  2  0
 19 18  1  0
 20 19  2  0
 21 20  1  0
 22 21  2  0
 22 28  1  0
 23 22  1  0
 24 23  1  6
 24 26  1  0
 24 25  1  0
 26 27  1  0
 28 29  2  0
 29 19  1  0
 30 26  2  0
M  END
$$$$
