QLY.pdb
     RDKit          3D

 30 30  0  0  1  0  0  0  0  0999 V2000
   17.8646  -11.9703  -19.7468 N   0  0  0  0  0  0  0  0  0  0  0  0
   18.2526  -13.2818  -20.1994 C   0  0  0  0  0  0  0  0  0  0  0  0
   17.4995  -13.8683  -20.9855 O   0  0  0  0  0  0  0  0  0  0  0  0
   19.5068  -13.9125  -19.7497 C   0  0  0  0  0  0  0  0  0  0  0  0
   20.2875  -13.0672  -18.8229 C   0  0  0  0  0  0  0  0  0  0  0  0
   21.5641  -13.6120  -18.2931 C   0  0  2  0  0  0  0  0  0  0  0  0
   21.4976  -14.8934  -17.6494 N   0  0  0  0  0  0  0  0  0  0  0  0
   22.2590  -12.6522  -17.3804 C   0  0  0  0  0  0  0  0  0  0  0  0
   21.8160  -12.5152  -16.2165 O   0  0  0  0  0  0  0  0  0  0  0  0
   27.7800   -9.9120  -16.8098 C   0  0  0  0  0  0  0  0  0  0  0  0
   26.3290   -9.9897  -16.4218 C   0  0  2  0  0  0  0  0  0  0  0  0
   26.2273  -10.4800  -14.9851 C   0  0  0  0  0  0  0  0  0  0  0  0
   25.5597  -10.9682  -17.2724 C   0  0  0  0  0  0  0  0  0  0  0  0
   24.0752  -10.9516  -16.9332 C   0  0  2  0  0  0  0  0  0  0  0  0
   23.3865  -11.8932  -17.7600 N   0  0  0  0  0  0  0  0  0  0  0  0
   23.6029   -9.5612  -17.1217 C   0  0  0  0  0  0  0  0  0  0  0  0
   23.7412   -9.0266  -18.2442 O   0  0  0  0  0  0  0  0  0  0  0  0
   19.3898   -1.9314  -16.0738 O   0  0  0  0  0  0  0  0  0  0  0  0
   19.9556   -3.1587  -15.8141 C   0  0  0  0  0  0  0  0  0  0  0  0
   19.6786   -4.2188  -16.6298 C   0  0  0  0  0  0  0  0  0  0  0  0
   20.2044   -5.4642  -16.4322 C   0  0  0  0  0  0  0  0  0  0  0  0
   21.0653   -5.7077  -15.3645 C   0  0  0  0  0  0  0  0  0  0  0  0
   21.6060   -7.0545  -15.1430 C   0  0  0  0  0  0  0  0  0  0  0  0
   22.5446   -7.4309  -16.2462 C   0  0  2  0  0  0  0  0  0  0  0  0
   23.0027   -8.8182  -16.0806 N   0  0  0  0  0  0  0  0  0  0  0  0
   23.7032   -6.5378  -16.2691 C   0  0  0  0  0  0  0  0  0  0  0  0
   23.8908   -5.5032  -17.1678 O   0  0  0  0  0  0  0  0  0  0  0  0
   21.3424   -4.6399  -14.5450 C   0  0  0  0  0  0  0  0  0  0  0  0
   20.8085   -3.3926  -14.7531 C   0  0  0  0  0  0  0  0  0  0  0  0
   24.6333   -6.7003  -15.4075 O   0  0  0  0  0  0  0  0  0  0  0  0
  1  2  1  0
  2  4  1  0
  3  2  2  0
  4  5  1  0
  5  6  1  0
  6  7  1  1
  6  8  1  0
  8  9  2  0
 11 10  1  6
 12 11  1  0
 13 11  1  0
 14 13  1  6
 15  8  1  0
 15 14  1  0
 16 25  1  0
 16 14  1  0
 17 16  2  0
 19 18  1  0
 20 19  2  0
 21 20  1  0
 22 21  2  0
 22 28  1  0
 23 22  1  0
 24 23  1  1
 24 26  1  0
 24 25  1  0
 26 27  1  0
 28 29  2  0
 29 19  1  0
 30 26  2  0
M  END
$$$$
