QLY.pdb
     RDKit          3D

 30 30  0  0  1  0  0  0  0  0999 V2000
   17.7984  -18.2565  -18.6297 N   0  0  0  0  0  0  0  0  0  0  0  0
   18.1466  -18.3575  -20.0241 C   0  0  0  0  0  0  0  0  0  0  0  0
   17.6396  -19.2739  -20.6816 O   0  0  0  0  0  0  0  0  0  0  0  0
   19.0731  -17.4024  -20.6582 C   0  0  0  0  0  0  0  0  0  0  0  0
   19.5302  -16.3355  -19.7439 C   0  0  0  0  0  0  0  0  0  0  0  0
   20.4059  -15.2717  -20.2995 C   0  0  2  0  0  0  0  0  0  0  0  0
   21.6532  -15.6983  -20.8677 N   0  0  0  0  0  0  0  0  0  0  0  0
   20.6766  -14.1817  -19.3118 C   0  0  0  0  0  0  0  0  0  0  0  0
   19.6981  -13.5925  -18.7969 O   0  0  0  0  0  0  0  0  0  0  0  0
   23.4509  -14.2525  -15.6017 C   0  0  0  0  0  0  0  0  0  0  0  0
   24.1069  -14.1228  -16.9488 C   0  0  2  0  0  0  0  0  0  0  0  0
   25.6173  -14.1416  -16.7667 C   0  0  0  0  0  0  0  0  0  0  0  0
   23.7656  -12.8219  -17.6299 C   0  0  0  0  0  0  0  0  0  0  0  0
   22.2866  -12.7528  -17.9863 C   0  0  2  0  0  0  0  0  0  0  0  0
   21.9746  -13.7817  -18.9291 N   0  0  0  0  0  0  0  0  0  0  0  0
   22.0295  -11.3916  -18.5084 C   0  0  0  0  0  0  0  0  0  0  0  0
   22.5513  -11.0562  -19.5947 O   0  0  0  0  0  0  0  0  0  0  0  0
   18.7139   -3.8031  -20.9707 O   0  0  0  0  0  0  0  0  0  0  0  0
   19.0065   -5.0889  -20.5772 C   0  0  0  0  0  0  0  0  0  0  0  0
   18.1836   -5.7318  -19.6965 C   0  0  0  0  0  0  0  0  0  0  0  0
   18.4122   -7.0071  -19.2630 C   0  0  0  0  0  0  0  0  0  0  0  0
   19.5213   -7.7194  -19.7133 C   0  0  0  0  0  0  0  0  0  0  0  0
   19.7751   -9.0799  -19.2232 C   0  0  0  0  0  0  0  0  0  0  0  0
   20.9677   -9.0977  -18.3193 C   0  0  2  0  0  0  0  0  0  0  0  0
   21.2173  -10.4597  -17.8243 N   0  0  0  0  0  0  0  0  0  0  0  0
   20.7709   -8.1979  -17.1826 C   0  0  0  0  0  0  0  0  0  0  0  0
   21.0875   -6.8515  -17.1715 O   0  0  0  0  0  0  0  0  0  0  0  0
   20.3480   -7.0708  -20.5989 C   0  0  0  0  0  0  0  0  0  0  0  0
   20.1085   -5.7891  -21.0280 C   0  0  0  0  0  0  0  0  0  0  0  0
   20.2723   -8.6600  -16.1001 O   0  0  0  0  0  0  0  0  0  0  0  0
  1  2  1  0
  2  4  1  0
  3  2  2  0
  4  5  1  0
  5  6  1  0
  6  7  1  1
  6  8  1  0
  8  9  2  0
 11 10  1  1
 12 11  1  0
 13 11  1  0
 14 13  1  6
 15  8  1  0
 15 14  1  0
 16 25  1  0
 16 14  1  0
 17 16  2  0
 19 18  1  0
 20 19  2  0
 21 20  1  0
 22 21  2  0
 22 28  1  0
 23 22  1  0
 24 23  1  6
 24 26  1  0
 24 25  1  0
 26 27  1  0
 28 29  2  0
 29 19  1  0
 30 26  2  0
M  END
$$$$
