QLY.pdb
     RDKit          3D

 30 30  0  0  1  0  0  0  0  0999 V2000
   18.7032  -30.7879  -15.6200 N   0  0  0  0  0  0  0  0  0  0  0  0
   19.2793  -32.0154  -15.1332 C   0  0  0  0  0  0  0  0  0  0  0  0
   18.6595  -33.0657  -15.3373 O   0  0  0  0  0  0  0  0  0  0  0  0
   20.5677  -32.0313  -14.4172 C   0  0  0  0  0  0  0  0  0  0  0  0
   21.6708  -32.6123  -15.2099 C   0  0  0  0  0  0  0  0  0  0  0  0
   22.4257  -31.7096  -16.1168 C   0  0  2  0  0  0  0  0  0  0  0  0
   23.4762  -32.3083  -16.8907 N   0  0  0  0  0  0  0  0  0  0  0  0
   22.9758  -30.5149  -15.4048 C   0  0  0  0  0  0  0  0  0  0  0  0
   24.0142  -30.6603  -14.7190 O   0  0  0  0  0  0  0  0  0  0  0  0
   22.4075  -24.5109  -15.3153 C   0  0  0  0  0  0  0  0  0  0  0  0
   23.4069  -25.6310  -15.2252 C   0  0  2  0  0  0  0  0  0  0  0  0
   24.6595  -25.2386  -15.9946 C   0  0  0  0  0  0  0  0  0  0  0  0
   22.8958  -26.9067  -15.8450 C   0  0  0  0  0  0  0  0  0  0  0  0
   22.8982  -28.0518  -14.8411 C   0  0  2  0  0  0  0  0  0  0  0  0
   22.3880  -29.2334  -15.4640 N   0  0  0  0  0  0  0  0  0  0  0  0
   22.0895  -27.6132  -13.6812 C   0  0  0  0  0  0  0  0  0  0  0  0
   22.4511  -26.5980  -13.0461 O   0  0  0  0  0  0  0  0  0  0  0  0
   16.9869  -24.6747   -7.6055 O   0  0  0  0  0  0  0  0  0  0  0  0
   17.7024  -25.0889   -8.7057 C   0  0  0  0  0  0  0  0  0  0  0  0
   19.0092  -25.4602   -8.5635 C   0  0  0  0  0  0  0  0  0  0  0  0
   19.7790  -25.8815   -9.6107 C   0  0  0  0  0  0  0  0  0  0  0  0
   19.2478  -25.9505  -10.8966 C   0  0  0  0  0  0  0  0  0  0  0  0
   20.0881  -26.3791  -12.0216 C   0  0  0  0  0  0  0  0  0  0  0  0
   20.1073  -27.8722  -12.1229 C   0  0  2  0  0  0  0  0  0  0  0  0
   20.9261  -28.2994  -13.2671 N   0  0  0  0  0  0  0  0  0  0  0  0
   18.7510  -28.3995  -12.2743 C   0  0  0  0  0  0  0  0  0  0  0  0
   18.2580  -29.0076  -13.4146 O   0  0  0  0  0  0  0  0  0  0  0  0
   17.9331  -25.5762  -11.0375 C   0  0  0  0  0  0  0  0  0  0  0  0
   17.1689  -25.1546   -9.9780 C   0  0  0  0  0  0  0  0  0  0  0  0
   17.9322  -28.3049  -11.2973 O   0  0  0  0  0  0  0  0  0  0  0  0
  1  2  1  0
  2  4  1  0
  3  2  2  0
  4  5  1  0
  5  6  1  0
  6  7  1  1
  6  8  1  0
  8  9  2  0
 11 10  1  6
 12 11  1  0
 13 11  1  0
 14 13  1  6
 15  8  1  0
 15 14  1  0
 16 25  1  0
 16 14  1  0
 17 16  2  0
 19 18  1  0
 20 19  2  0
 21 20  1  0
 22 21  2  0
 22 28  1  0
 23 22  1  0
 24 23  1  6
 24 26  1  0
 24 25  1  0
 26 27  1  0
 28 29  2  0
 29 19  1  0
 30 26  2  0
M  END
$$$$
