QLY.pdb
     RDKit          3D

 30 30  0  0  1  0  0  0  0  0999 V2000
   18.4286  -14.8827  -19.9877 N   0  0  0  0  0  0  0  0  0  0  0  0
   19.7689  -15.2118  -20.4012 C   0  0  0  0  0  0  0  0  0  0  0  0
   20.0955  -16.4044  -20.4072 O   0  0  0  0  0  0  0  0  0  0  0  0
   20.7272  -14.1691  -20.8101 C   0  0  0  0  0  0  0  0  0  0  0  0
   21.2947  -13.4169  -19.6720 C   0  0  0  0  0  0  0  0  0  0  0  0
   22.3823  -14.0574  -18.8884 C   0  0  2  0  0  0  0  0  0  0  0  0
   22.0598  -15.2934  -18.2333 N   0  0  0  0  0  0  0  0  0  0  0  0
   22.9876  -13.1270  -17.8860 C   0  0  0  0  0  0  0  0  0  0  0  0
   22.4289  -13.0135  -16.7703 O   0  0  0  0  0  0  0  0  0  0  0  0
   28.3176   -9.9966  -17.0603 C   0  0  0  0  0  0  0  0  0  0  0  0
   26.9444  -10.3924  -16.5919 C   0  0  2  0  0  0  0  0  0  0  0  0
   27.0732  -11.1930  -15.3045 C   0  0  0  0  0  0  0  0  0  0  0  0
   26.2320  -11.2747  -17.5851 C   0  0  0  0  0  0  0  0  0  0  0  0
   24.7688  -11.4658  -17.2088 C   0  0  2  0  0  0  0  0  0  0  0  0
   24.1537  -12.3706  -18.1295 N   0  0  0  0  0  0  0  0  0  0  0  0
   24.1423  -10.1244  -17.2090 C   0  0  0  0  0  0  0  0  0  0  0  0
   23.9234   -9.5637  -18.3056 O   0  0  0  0  0  0  0  0  0  0  0  0
   19.0558   -3.4500  -14.6010 O   0  0  0  0  0  0  0  0  0  0  0  0
   19.9602   -4.4872  -14.5948 C   0  0  0  0  0  0  0  0  0  0  0  0
   19.5521   -5.7442  -14.9401 C   0  0  0  0  0  0  0  0  0  0  0  0
   20.3946   -6.8196  -14.9562 C   0  0  0  0  0  0  0  0  0  0  0  0
   21.7364   -6.6724  -14.6126 C   0  0  0  0  0  0  0  0  0  0  0  0
   22.6302   -7.8372  -14.6068 C   0  0  0  0  0  0  0  0  0  0  0  0
   23.0534   -8.1804  -16.0007 C   0  0  2  0  0  0  0  0  0  0  0  0
   23.7836   -9.4566  -16.0168 N   0  0  0  0  0  0  0  0  0  0  0  0
   23.9039   -7.1288  -16.5587 C   0  0  0  0  0  0  0  0  0  0  0  0
   23.4812   -6.1490  -17.4387 O   0  0  0  0  0  0  0  0  0  0  0  0
   22.1449   -5.4072  -14.2653 C   0  0  0  0  0  0  0  0  0  0  0  0
   21.2896   -4.3337  -14.2527 C   0  0  0  0  0  0  0  0  0  0  0  0
   25.1384   -7.0849  -16.2301 O   0  0  0  0  0  0  0  0  0  0  0  0
  1  2  1  0
  2  4  1  0
  3  2  2  0
  4  5  1  0
  5  6  1  0
  6  7  1  1
  6  8  1  0
  8  9  2  0
 11 10  1  6
 12 11  1  0
 13 11  1  0
 14 13  1  6
 15  8  1  0
 15 14  1  0
 16 25  1  0
 16 14  1  0
 17 16  2  0
 19 18  1  0
 20 19  2  0
 21 20  1  0
 22 21  2  0
 22 28  1  0
 23 22  1  0
 24 23  1  1
 24 26  1  0
 24 25  1  0
 26 27  1  0
 28 29  2  0
 29 19  1  0
 30 26  2  0
M  END
$$$$
