QLY.pdb
     RDKit          3D

 30 30  0  0  1  0  0  0  0  0999 V2000
   26.4584  -20.9510  -19.0906 N   0  0  0  0  0  0  0  0  0  0  0  0
   27.3764  -19.8818  -18.7913 C   0  0  0  0  0  0  0  0  0  0  0  0
   28.1974  -19.5646  -19.6599 O   0  0  0  0  0  0  0  0  0  0  0  0
   27.3447  -19.1787  -17.4961 C   0  0  0  0  0  0  0  0  0  0  0  0
   26.3222  -19.7058  -16.5689 C   0  0  0  0  0  0  0  0  0  0  0  0
   26.7885  -20.4320  -15.3596 C   0  0  2  0  0  0  0  0  0  0  0  0
   27.7342  -21.4911  -15.5713 N   0  0  0  0  0  0  0  0  0  0  0  0
   25.6553  -20.9580  -14.5374 C   0  0  0  0  0  0  0  0  0  0  0  0
   24.9987  -21.9267  -14.9847 O   0  0  0  0  0  0  0  0  0  0  0  0
   26.3263  -22.3951  -10.8315 C   0  0  0  0  0  0  0  0  0  0  0  0
   26.0219  -20.9310  -10.6726 C   0  0  2  0  0  0  0  0  0  0  0  0
   26.2577  -20.5318   -9.2234 C   0  0  0  0  0  0  0  0  0  0  0  0
   24.5832  -20.6072  -10.9859 C   0  0  0  0  0  0  0  0  0  0  0  0
   24.2473  -20.9188  -12.4381 C   0  0  2  0  0  0  0  0  0  0  0  0
   25.2865  -20.4216  -13.2853 N   0  0  0  0  0  0  0  0  0  0  0  0
   22.9287  -20.3071  -12.7191 C   0  0  0  0  0  0  0  0  0  0  0  0
   22.8496  -19.0615  -12.8018 O   0  0  0  0  0  0  0  0  0  0  0  0
   16.3128  -18.4616  -17.7831 O   0  0  0  0  0  0  0  0  0  0  0  0
   17.4386  -18.8833  -17.1133 C   0  0  0  0  0  0  0  0  0  0  0  0
   17.7769  -20.2067  -17.1230 C   0  0  0  0  0  0  0  0  0  0  0  0
   18.8792  -20.6955  -16.4807 C   0  0  0  0  0  0  0  0  0  0  0  0
   19.7224  -19.8419  -15.7731 C   0  0  0  0  0  0  0  0  0  0  0  0
   20.8907  -20.3776  -15.0635 C   0  0  0  0  0  0  0  0  0  0  0  0
   20.5745  -20.5869  -13.6157 C   0  0  2  0  0  0  0  0  0  0  0  0
   21.7589  -21.0791  -12.8967 N   0  0  0  0  0  0  0  0  0  0  0  0
   19.4792  -21.5437  -13.4568 C   0  0  0  0  0  0  0  0  0  0  0  0
   19.5909  -22.9129  -13.6185 O   0  0  0  0  0  0  0  0  0  0  0  0
   19.3801  -18.5110  -15.7643 C   0  0  0  0  0  0  0  0  0  0  0  0
   18.2701  -18.0308  -16.4134 C   0  0  0  0  0  0  0  0  0  0  0  0
   18.3157  -21.1143  -13.1472 O   0  0  0  0  0  0  0  0  0  0  0  0
  1  2  1  0
  2  4  1  0
  3  2  2  0
  4  5  1  0
  5  6  1  0
  6  7  1  6
  6  8  1  0
  8  9  2  0
 11 10  1  1
 12 11  1  0
 13 11  1  0
 14 13  1  1
 15  8  1  0
 15 14  1  0
 16 25  1  0
 16 14  1  0
 17 16  2  0
 19 18  1  0
 20 19  2  0
 21 20  1  0
 22 21  2  0
 22 28  1  0
 23 22  1  0
 24 23  1  6
 24 26  1  0
 24 25  1  0
 26 27  1  0
 28 29  2  0
 29 19  1  0
 30 26  2  0
M  END
$$$$
