SGD.pdb
     RDKit          3D

 19 18  0  0  1  0  0  0  0  0999 V2000
   18.0444  -13.2492  -16.6518 O   0  0  0  0  0  0  0  0  0  0  0  0
   18.4834  -12.3433  -15.6900 C   0  0  0  0  0  0  0  0  0  0  0  0
   19.1059  -11.1685  -16.3750 C   0  0  2  0  0  0  0  0  0  0  0  0
   20.3261  -11.5311  -17.0786 N   0  0  0  0  0  0  0  0  0  0  0  0
   19.3821  -10.0945  -15.3871 C   0  0  0  0  0  0  0  0  0  0  0  0
   18.4124   -9.6104  -14.7589 O   0  0  0  0  0  0  0  0  0  0  0  0
   20.7022   -9.6338  -15.1629 N   0  0  0  0  0  0  0  0  0  0  0  0
   20.9485   -8.6341  -14.1367 C   0  0  0  0  0  0  0  0  0  0  0  0
   20.9624   -7.2991  -14.7464 C   0  0  0  0  0  0  0  0  0  0  0  0
   21.0192   -7.1355  -16.0037 O   0  0  0  0  0  0  0  0  0  0  0  0
   20.9120   -6.1642  -13.9256 N   0  0  0  0  0  0  0  0  0  0  0  0
   20.9949   -4.7850  -14.4719 C   0  0  1  0  0  0  0  0  0  0  0  0
   20.3485   -3.8878  -13.4602 C   0  0  0  0  0  0  0  0  0  0  0  0
   20.3122   -2.5021  -13.9311 C   0  0  0  0  0  0  0  0  0  0  0  0
   21.0988   -1.6494  -13.4905 O   0  0  0  0  0  0  0  0  0  0  0  0
   22.4368   -4.4388  -14.5789 C   0  0  0  0  0  0  0  0  0  0  0  0
   23.2807   -4.7329  -13.7201 O   0  0  0  0  0  0  0  0  0  0  0  0
   19.3806   -2.1099  -14.8956 O   0  0  0  0  0  0  0  0  0  0  0  0
   22.9063   -3.7344  -15.7110 O   0  0  0  0  0  0  0  0  0  0  0  0
  2  1  1  0
  3  2  1  0
  3  4  1  1
  5  3  1  0
  6  5  2  0
  7  5  1  0
  8  7  1  0
  9  8  1  0
  9 10  2  0
 11  9  1  0
 12 11  1  0
 12 13  1  1
 14 13  1  0
 15 14  2  0
 16 12  1  0
 17 16  2  0
 18 14  1  0
 19 16  1  0
M  END
$$$$
