SGD.pdb
     RDKit          3D

 19 18  0  0  1  0  0  0  0  0999 V2000
   11.9815  -11.3579   -8.7259 O   0  0  0  0  0  0  0  0  0  0  0  0
   12.4355  -10.0419   -8.7065 C   0  0  0  0  0  0  0  0  0  0  0  0
   13.5933   -9.9118   -9.6444 C   0  0  2  0  0  0  0  0  0  0  0  0
   14.7008  -10.7755   -9.2663 N   0  0  0  0  0  0  0  0  0  0  0  0
   14.0414   -8.4970   -9.7020 C   0  0  0  0  0  0  0  0  0  0  0  0
   13.1998   -7.6268  -10.0242 O   0  0  0  0  0  0  0  0  0  0  0  0
   15.3793   -8.1444   -9.4008 N   0  0  0  0  0  0  0  0  0  0  0  0
   15.7766   -6.7464   -9.4295 C   0  0  0  0  0  0  0  0  0  0  0  0
   17.2117   -6.6508   -9.7222 C   0  0  0  0  0  0  0  0  0  0  0  0
   18.0926   -7.0550   -8.9028 O   0  0  0  0  0  0  0  0  0  0  0  0
   17.6332   -6.0984  -10.9393 N   0  0  0  0  0  0  0  0  0  0  0  0
   19.0446   -6.1711  -11.3977 C   0  0  1  0  0  0  0  0  0  0  0  0
   19.3368   -7.6202  -11.6450 C   0  0  0  0  0  0  0  0  0  0  0  0
   20.6095   -7.7890  -12.3485 C   0  0  0  0  0  0  0  0  0  0  0  0
   21.6309   -7.1819  -11.9905 O   0  0  0  0  0  0  0  0  0  0  0  0
   19.1293   -5.4309  -12.6842 C   0  0  0  0  0  0  0  0  0  0  0  0
   20.1928   -5.0306  -13.1792 O   0  0  0  0  0  0  0  0  0  0  0  0
   20.6982   -8.6461  -13.4483 O   0  0  0  0  0  0  0  0  0  0  0  0
   17.9493   -5.1503  -13.4103 O   0  0  0  0  0  0  0  0  0  0  0  0
  2  1  1  0
  3  2  1  0
  3  4  1  1
  5  3  1  0
  6  5  2  0
  7  5  1  0
  8  7  1  0
  9  8  1  0
  9 10  2  0
 11  9  1  0
 12 11  1  0
 12 13  1  6
 14 13  1  0
 15 14  2  0
 16 12  1  0
 17 16  2  0
 18 14  1  0
 19 16  1  0
M  END
$$$$
