SGD.pdb
     RDKit          3D

 19 18  0  0  1  0  0  0  0  0999 V2000
   17.9426  -13.9685  -15.4835 O   0  0  0  0  0  0  0  0  0  0  0  0
   18.8728  -13.0002  -15.8514 C   0  0  0  0  0  0  0  0  0  0  0  0
   18.3317  -11.6488  -15.5076 C   0  0  2  0  0  0  0  0  0  0  0  0
   17.1208  -11.3409  -16.2522 N   0  0  0  0  0  0  0  0  0  0  0  0
   19.3654  -10.6117  -15.7557 C   0  0  0  0  0  0  0  0  0  0  0  0
   20.4418  -10.6911  -15.1199 O   0  0  0  0  0  0  0  0  0  0  0  0
   19.1395   -9.5663  -16.6837 N   0  0  0  0  0  0  0  0  0  0  0  0
   20.1811   -8.5806  -16.9216 C   0  0  0  0  0  0  0  0  0  0  0  0
   19.8420   -7.3323  -16.2280 C   0  0  0  0  0  0  0  0  0  0  0  0
   18.6612   -7.0807  -15.8369 O   0  0  0  0  0  0  0  0  0  0  0  0
   20.8439   -6.3828  -15.9854 N   0  0  0  0  0  0  0  0  0  0  0  0
   20.5766   -5.1146  -15.2589 C   0  0  1  0  0  0  0  0  0  0  0  0
   21.8500   -4.7507  -14.5570 C   0  0  0  0  0  0  0  0  0  0  0  0
   21.9913   -5.4925  -13.3028 C   0  0  0  0  0  0  0  0  0  0  0  0
   23.0210   -5.4088  -12.6154 O   0  0  0  0  0  0  0  0  0  0  0  0
   20.2697   -4.0779  -16.2793 C   0  0  0  0  0  0  0  0  0  0  0  0
   20.5752   -4.1788  -17.4762 O   0  0  0  0  0  0  0  0  0  0  0  0
   20.9580   -6.3178  -12.8522 O   0  0  0  0  0  0  0  0  0  0  0  0
   19.5923   -2.8974  -15.8974 O   0  0  0  0  0  0  0  0  0  0  0  0
  2  1  1  0
  3  2  1  0
  3  4  1  6
  5  3  1  0
  6  5  2  0
  7  5  1  0
  8  7  1  0
  9  8  1  0
  9 10  2  0
 11  9  1  0
 12 11  1  0
 12 13  1  6
 14 13  1  0
 15 14  2  0
 16 12  1  0
 17 16  2  0
 18 14  1  0
 19 16  1  0
M  END
$$$$
