SGD.pdb
     RDKit          3D

 19 18  0  0  1  0  0  0  0  0999 V2000
   28.5106  -14.0151  -18.0401 O   0  0  0  0  0  0  0  0  0  0  0  0
   27.5401  -13.6506  -17.1109 C   0  0  0  0  0  0  0  0  0  0  0  0
   27.4145  -12.1602  -17.0962 C   0  0  2  0  0  0  0  0  0  0  0  0
   28.6820  -11.5092  -16.8042 N   0  0  0  0  0  0  0  0  0  0  0  0
   26.3856  -11.7488  -16.1074 C   0  0  0  0  0  0  0  0  0  0  0  0
   26.5112  -12.1498  -14.9273 O   0  0  0  0  0  0  0  0  0  0  0  0
   25.2969  -10.9276  -16.4888 N   0  0  0  0  0  0  0  0  0  0  0  0
   24.3099  -10.5376  -15.4954 C   0  0  0  0  0  0  0  0  0  0  0  0
   23.3623   -9.5890  -16.0923 C   0  0  0  0  0  0  0  0  0  0  0  0
   23.5201   -9.1301  -17.2650 O   0  0  0  0  0  0  0  0  0  0  0  0
   22.2466   -9.1705  -15.3546 N   0  0  0  0  0  0  0  0  0  0  0  0
   21.2513   -8.2096  -15.8965 C   0  0  1  0  0  0  0  0  0  0  0  0
   19.9001   -8.7490  -15.5361 C   0  0  0  0  0  0  0  0  0  0  0  0
   18.8337   -7.9068  -16.0806 C   0  0  0  0  0  0  0  0  0  0  0  0
   19.0429   -7.1300  -17.0255 O   0  0  0  0  0  0  0  0  0  0  0  0
   21.4614   -6.9151  -15.1965 C   0  0  0  0  0  0  0  0  0  0  0  0
   21.9525   -6.8176  -14.0627 O   0  0  0  0  0  0  0  0  0  0  0  0
   17.5465   -7.9627  -15.5402 O   0  0  0  0  0  0  0  0  0  0  0  0
   21.0909   -5.7072  -15.8306 O   0  0  0  0  0  0  0  0  0  0  0  0
  2  1  1  0
  3  2  1  0
  3  4  1  1
  5  3  1  0
  6  5  2  0
  7  5  1  0
  8  7  1  0
  9  8  1  0
  9 10  2  0
 11  9  1  0
 12 11  1  0
 12 13  1  1
 14 13  1  0
 15 14  2  0
 16 12  1  0
 17 16  2  0
 18 14  1  0
 19 16  1  0
M  END
$$$$
