YAN.pdb
     RDKit          3D

 26 26  0  0  1  0  0  0  0  0999 V2000
   27.3932  -13.2666  -16.9142 O   0  0  0  0  0  0  0  0  0  0  0  0
   26.9403  -14.5000  -16.4638 C   0  0  0  0  0  0  0  0  0  0  0  0
   26.3864  -15.4368  -17.3265 C   0  0  0  0  0  0  0  0  0  0  0  0
   25.9366  -16.6607  -16.8822 C   0  0  0  0  0  0  0  0  0  0  0  0
   26.0210  -17.0038  -15.5504 C   0  0  0  0  0  0  0  0  0  0  0  0
   25.5510  -18.3151  -15.0067 C   0  0  0  0  0  0  0  0  0  0  0  0
   26.7964  -19.0367  -14.5460 C   0  0  2  0  0  0  0  0  0  0  0  0
   27.5826  -19.4012  -15.7025 N   0  0  0  0  0  0  0  0  0  0  0  0
   26.5156  -20.2243  -13.7114 C   0  0  0  0  0  0  0  0  0  0  0  0
   26.3231  -21.3323  -14.2781 O   0  0  0  0  0  0  0  0  0  0  0  0
   26.5782  -16.0548  -14.6993 C   0  0  0  0  0  0  0  0  0  0  0  0
   27.0274  -14.8353  -15.1361 C   0  0  0  0  0  0  0  0  0  0  0  0
   26.2454  -20.8056  -10.0050 C   0  0  0  0  0  0  0  0  0  0  0  0
   25.9877  -21.2289  -11.4448 C   0  0  2  0  0  0  0  0  0  0  0  0
   26.4519  -20.1807  -12.2971 N   0  0  0  0  0  0  0  0  0  0  0  0
   24.4967  -21.4104  -11.5872 C   0  0  0  0  0  0  0  0  0  0  0  0
   23.8845  -22.2698  -10.9033 O   0  0  0  0  0  0  0  0  0  0  0  0
   19.5902  -20.7519  -13.1313 N   0  0  0  0  0  0  0  0  0  0  0  0
   20.2333  -19.5284  -12.8306 C   0  0  0  0  0  0  0  0  0  0  0  0
   19.5883  -18.4478  -12.7880 O   0  0  0  0  0  0  0  0  0  0  0  0
   21.6707  -19.5035  -12.5627 C   0  0  0  0  0  0  0  0  0  0  0  0
   22.3403  -20.8663  -12.6895 C   0  0  2  0  0  0  0  0  0  0  0  0
   23.7478  -20.6244  -12.4889 N   0  0  0  0  0  0  0  0  0  0  0  0
   22.0664  -21.5092  -13.9905 C   0  0  0  0  0  0  0  0  0  0  0  0
   23.0771  -21.7929  -14.8836 O   0  0  0  0  0  0  0  0  0  0  0  0
   20.8894  -21.8061  -14.2951 O   0  0  0  0  0  0  0  0  0  0  0  0
  2  1  1  0
  3  2  2  0
  4  3  1  0
  5  4  2  0
  5 11  1  0
  6  5  1  0
  7  6  1  0
  7  9  1  0
  7  8  1  6
  9 10  2  0
 11 12  2  0
 12  2  1  0
 14 13  1  1
 15 14  1  0
 15  9  1  0
 16 14  1  0
 16 17  2  0
 18 19  1  0
 19 20  2  0
 19 21  1  0
 22 21  1  6
 22 23  1  0
 22 24  1  0
 23 16  1  0
 24 26  2  0
 24 25  1  0
M  END
$$$$
