YAN.pdb
     RDKit          3D

 26 26  0  0  1  0  0  0  0  0999 V2000
   28.4895  -19.4052   -4.1938 O   0  0  0  0  0  0  0  0  0  0  0  0
   28.0842  -19.8571   -5.4431 C   0  0  0  0  0  0  0  0  0  0  0  0
   26.9157  -20.5878   -5.6145 C   0  0  0  0  0  0  0  0  0  0  0  0
   26.5117  -21.0368   -6.8525 C   0  0  0  0  0  0  0  0  0  0  0  0
   27.2609  -20.7743   -7.9788 C   0  0  0  0  0  0  0  0  0  0  0  0
   26.8763  -21.2336   -9.3489 C   0  0  0  0  0  0  0  0  0  0  0  0
   25.9618  -20.1627   -9.8974 C   0  0  2  0  0  0  0  0  0  0  0  0
   24.6532  -20.3132   -9.3030 N   0  0  0  0  0  0  0  0  0  0  0  0
   25.8676  -20.1663  -11.3729 C   0  0  0  0  0  0  0  0  0  0  0  0
   24.8737  -20.7168  -11.9160 O   0  0  0  0  0  0  0  0  0  0  0  0
   28.4283  -20.0413   -7.7905 C   0  0  0  0  0  0  0  0  0  0  0  0
   28.8351  -19.5920   -6.5607 C   0  0  0  0  0  0  0  0  0  0  0  0
   28.0667  -18.8605  -14.1312 C   0  0  0  0  0  0  0  0  0  0  0  0
   26.7286  -19.3805  -13.6238 C   0  0  2  0  0  0  0  0  0  0  0  0
   26.8438  -19.5778  -12.2136 N   0  0  0  0  0  0  0  0  0  0  0  0
   26.4739  -20.6914  -14.3260 C   0  0  0  0  0  0  0  0  0  0  0  0
   27.3338  -21.6086  -14.3090 O   0  0  0  0  0  0  0  0  0  0  0  0
   24.8687  -25.3667  -14.1525 N   0  0  0  0  0  0  0  0  0  0  0  0
   24.0766  -24.2295  -13.8692 C   0  0  0  0  0  0  0  0  0  0  0  0
   22.8472  -24.3389  -13.6203 O   0  0  0  0  0  0  0  0  0  0  0  0
   24.6827  -22.8987  -13.8620 C   0  0  0  0  0  0  0  0  0  0  0  0
   24.7921  -22.2688  -15.2451 C   0  0  2  0  0  0  0  0  0  0  0  0
   25.2679  -20.9260  -15.0206 N   0  0  0  0  0  0  0  0  0  0  0  0
   23.5089  -22.2890  -15.9759 C   0  0  0  0  0  0  0  0  0  0  0  0
   22.6093  -21.2489  -15.8858 O   0  0  0  0  0  0  0  0  0  0  0  0
   23.2262  -23.2724  -16.6965 O   0  0  0  0  0  0  0  0  0  0  0  0
  2  1  1  0
  3  2  2  0
  4  3  1  0
  5  4  2  0
  5 11  1  0
  6  5  1  0
  7  6  1  0
  7  9  1  0
  7  8  1  1
  9 10  2  0
 11 12  2  0
 12  2  1  0
 14 13  1  6
 15 14  1  0
 15  9  1  0
 16 14  1  0
 16 17  2  0
 18 19  1  0
 19 20  2  0
 19 21  1  0
 22 21  1  1
 22 23  1  0
 22 24  1  0
 23 16  1  0
 24 26  2  0
 24 25  1  0
M  END
$$$$
