YAN.pdb
     RDKit          3D

 26 26  0  0  1  0  0  0  0  0999 V2000
   15.3481  -16.5500  -15.7965 O   0  0  0  0  0  0  0  0  0  0  0  0
   16.1677  -15.4290  -15.8260 C   0  0  0  0  0  0  0  0  0  0  0  0
   15.7827  -14.2562  -16.4624 C   0  0  0  0  0  0  0  0  0  0  0  0
   16.5938  -13.1433  -16.4928 C   0  0  0  0  0  0  0  0  0  0  0  0
   17.8308  -13.1533  -15.8860 C   0  0  0  0  0  0  0  0  0  0  0  0
   18.7565  -11.9789  -15.8840 C   0  0  0  0  0  0  0  0  0  0  0  0
   19.1133  -11.7372  -17.3326 C   0  0  2  0  0  0  0  0  0  0  0  0
   19.9403  -12.8261  -17.8002 N   0  0  0  0  0  0  0  0  0  0  0  0
   19.7799  -10.4385  -17.5672 C   0  0  0  0  0  0  0  0  0  0  0  0
   20.9903  -10.3107  -17.2438 O   0  0  0  0  0  0  0  0  0  0  0  0
   18.2018  -14.3352  -15.2528 C   0  0  0  0  0  0  0  0  0  0  0  0
   17.3985  -15.4458  -15.2194 C   0  0  0  0  0  0  0  0  0  0  0  0
   18.6637   -7.1792  -19.0806 C   0  0  0  0  0  0  0  0  0  0  0  0
   19.6881   -8.0250  -18.3364 C   0  0  2  0  0  0  0  0  0  0  0  0
   19.1235   -9.3227  -18.1418 N   0  0  0  0  0  0  0  0  0  0  0  0
   19.9353   -7.3473  -17.0113 C   0  0  0  0  0  0  0  0  0  0  0  0
   19.3611   -7.7473  -15.9666 O   0  0  0  0  0  0  0  0  0  0  0  0
   21.6136   -4.8969  -12.9944 N   0  0  0  0  0  0  0  0  0  0  0  0
   21.9678   -6.2074  -13.3919 C   0  0  0  0  0  0  0  0  0  0  0  0
   22.5837   -6.9797  -12.6112 O   0  0  0  0  0  0  0  0  0  0  0  0
   21.6189   -6.6862  -14.7289 C   0  0  0  0  0  0  0  0  0  0  0  0
   21.0450   -5.6045  -15.6357 C   0  0  2  0  0  0  0  0  0  0  0  0
   20.8143   -6.2482  -16.9054 N   0  0  0  0  0  0  0  0  0  0  0  0
   21.9428   -4.4383  -15.7585 C   0  0  0  0  0  0  0  0  0  0  0  0
   21.6309   -3.2228  -15.1887 O   0  0  0  0  0  0  0  0  0  0  0  0
   23.0147   -4.5507  -16.3947 O   0  0  0  0  0  0  0  0  0  0  0  0
  2  1  1  0
  3  2  2  0
  4  3  1  0
  5  4  2  0
  5 11  1  0
  6  5  1  0
  7  6  1  0
  7  9  1  0
  7  8  1  1
  9 10  2  0
 11 12  2  0
 12  2  1  0
 14 13  1  6
 15 14  1  0
 15  9  1  0
 16 14  1  0
 16 17  2  0
 18 19  1  0
 19 20  2  0
 19 21  1  0
 22 21  1  1
 22 23  1  0
 22 24  1  0
 23 16  1  0
 24 26  2  0
 24 25  1  0
M  END
$$$$
