YAN.pdb
     RDKit          3D

 26 26  0  0  1  0  0  0  0  0999 V2000
   41.8427  -11.7845   -7.2547 O   0  0  0  0  0  0  0  0  0  0  0  0
   40.7859  -11.1415   -7.8863 C   0  0  0  0  0  0  0  0  0  0  0  0
   39.7783  -10.5100   -7.1689 C   0  0  0  0  0  0  0  0  0  0  0  0
   38.7294   -9.8715   -7.7932 C   0  0  0  0  0  0  0  0  0  0  0  0
   38.6407   -9.8358   -9.1678 C   0  0  0  0  0  0  0  0  0  0  0  0
   37.5285   -9.1598   -9.9038 C   0  0  0  0  0  0  0  0  0  0  0  0
   38.1184   -7.8803  -10.4506 C   0  0  2  0  0  0  0  0  0  0  0  0
   38.3852   -6.9796   -9.3524 N   0  0  0  0  0  0  0  0  0  0  0  0
   37.2673   -7.2253  -11.4668 C   0  0  0  0  0  0  0  0  0  0  0  0
   36.2803   -6.5435  -11.0834 O   0  0  0  0  0  0  0  0  0  0  0  0
   39.6577  -10.4728   -9.8718 C   0  0  0  0  0  0  0  0  0  0  0  0
   40.7039  -11.1096   -9.2557 C   0  0  0  0  0  0  0  0  0  0  0  0
   37.5802   -5.8247  -14.7117 C   0  0  0  0  0  0  0  0  0  0  0  0
   36.6990   -6.7578  -13.8924 C   0  0  2  0  0  0  0  0  0  0  0  0
   37.5064   -7.3247  -12.8592 N   0  0  0  0  0  0  0  0  0  0  0  0
   36.2054   -7.8304  -14.8318 C   0  0  0  0  0  0  0  0  0  0  0  0
   36.9176   -8.8323  -15.0961 O   0  0  0  0  0  0  0  0  0  0  0  0
   30.8987   -9.8022  -17.1748 N   0  0  0  0  0  0  0  0  0  0  0  0
   32.3105   -9.7384  -17.1137 C   0  0  0  0  0  0  0  0  0  0  0  0
   33.0269  -10.5165  -17.7969 O   0  0  0  0  0  0  0  0  0  0  0  0
   32.9621   -8.7572  -16.2471 C   0  0  0  0  0  0  0  0  0  0  0  0
   34.4816   -8.7548  -16.3598 C   0  0  2  0  0  0  0  0  0  0  0  0
   34.9349   -7.7411  -15.4398 N   0  0  0  0  0  0  0  0  0  0  0  0
   34.9433   -8.5001  -17.7394 C   0  0  0  0  0  0  0  0  0  0  0  0
   35.5158   -9.4929  -18.5049 O   0  0  0  0  0  0  0  0  0  0  0  0
   34.8139   -7.3564  -18.2307 O   0  0  0  0  0  0  0  0  0  0  0  0
  2  1  1  0
  3  2  2  0
  4  3  1  0
  5  4  2  0
  5 11  1  0
  6  5  1  0
  7  6  1  0
  7  9  1  0
  7  8  1  1
  9 10  2  0
 11 12  2  0
 12  2  1  0
 14 13  1  6
 15 14  1  0
 15  9  1  0
 16 14  1  0
 16 17  2  0
 18 19  1  0
 19 20  2  0
 19 21  1  0
 22 21  1  6
 22 23  1  0
 22 24  1  0
 23 16  1  0
 24 26  2  0
 24 25  1  0
M  END
$$$$
