YAN.pdb
     RDKit          3D

 26 26  0  0  1  0  0  0  0  0999 V2000
   19.8944  -22.2867   -6.5730 O   0  0  0  0  0  0  0  0  0  0  0  0
   20.7684  -21.8959   -7.5793 C   0  0  0  0  0  0  0  0  0  0  0  0
   22.0081  -22.4985   -7.7480 C   0  0  0  0  0  0  0  0  0  0  0  0
   22.8765  -22.1127   -8.7453 C   0  0  0  0  0  0  0  0  0  0  0  0
   22.5428  -21.1032   -9.6218 C   0  0  0  0  0  0  0  0  0  0  0  0
   23.4408  -20.6393  -10.7238 C   0  0  0  0  0  0  0  0  0  0  0  0
   24.8497  -20.8511  -10.2196 C   0  0  2  0  0  0  0  0  0  0  0  0
   25.0130  -20.1420   -8.9710 N   0  0  0  0  0  0  0  0  0  0  0  0
   25.8902  -20.4462  -11.1889 C   0  0  0  0  0  0  0  0  0  0  0  0
   26.3442  -19.2727  -11.1367 O   0  0  0  0  0  0  0  0  0  0  0  0
   21.2977  -20.5097   -9.4396 C   0  0  0  0  0  0  0  0  0  0  0  0
   20.4296  -20.8898   -8.4488 C   0  0  0  0  0  0  0  0  0  0  0  0
   28.0403  -21.7835  -13.8537 C   0  0  0  0  0  0  0  0  0  0  0  0
   26.8259  -20.9390  -13.4925 C   0  0  2  0  0  0  0  0  0  0  0  0
   26.4075  -21.3161  -12.1797 N   0  0  0  0  0  0  0  0  0  0  0  0
   25.7543  -21.2580  -14.5055 C   0  0  0  0  0  0  0  0  0  0  0  0
   24.9429  -22.1984  -14.3099 O   0  0  0  0  0  0  0  0  0  0  0  0
   21.8298  -19.0433  -16.7461 N   0  0  0  0  0  0  0  0  0  0  0  0
   22.3748  -18.7769  -15.4682 C   0  0  0  0  0  0  0  0  0  0  0  0
   21.7464  -18.0851  -14.6245 O   0  0  0  0  0  0  0  0  0  0  0  0
   23.6889  -19.3077  -15.1078 C   0  0  0  0  0  0  0  0  0  0  0  0
   24.3349  -20.1408  -16.2080 C   0  0  2  0  0  0  0  0  0  0  0  0
   25.6314  -20.5136  -15.6982 N   0  0  0  0  0  0  0  0  0  0  0  0
   24.4300  -19.4079  -17.4867 C   0  0  0  0  0  0  0  0  0  0  0  0
   25.1657  -18.2482  -17.6022 O   0  0  0  0  0  0  0  0  0  0  0  0
   23.8297  -19.8460  -18.4936 O   0  0  0  0  0  0  0  0  0  0  0  0
  2  1  1  0
  3  2  2  0
  4  3  1  0
  5  4  2  0
  5 11  1  0
  6  5  1  0
  7  6  1  0
  7  9  1  0
  7  8  1  1
  9 10  2  0
 11 12  2  0
 12  2  1  0
 14 13  1  6
 15 14  1  0
 15  9  1  0
 16 14  1  0
 16 17  2  0
 18 19  1  0
 19 20  2  0
 19 21  1  0
 22 21  1  1
 22 23  1  0
 22 24  1  0
 23 16  1  0
 24 26  2  0
 24 25  1  0
M  END
$$$$
