YAN.pdb
     RDKit          3D

 26 26  0  0  1  0  0  0  0  0999 V2000
   26.3279  -21.5229   -9.3227 O   0  0  0  0  0  0  0  0  0  0  0  0
   25.9559  -21.1602  -10.6108 C   0  0  0  0  0  0  0  0  0  0  0  0
   25.9973  -19.8405  -11.0412 C   0  0  0  0  0  0  0  0  0  0  0  0
   25.6290  -19.4784  -12.3183 C   0  0  0  0  0  0  0  0  0  0  0  0
   25.2012  -20.4233  -13.2254 C   0  0  0  0  0  0  0  0  0  0  0  0
   24.7885  -20.0940  -14.6244 C   0  0  0  0  0  0  0  0  0  0  0  0
   25.5090  -21.0865  -15.5075 C   0  0  2  0  0  0  0  0  0  0  0  0
   26.9280  -20.8177  -15.4552 N   0  0  0  0  0  0  0  0  0  0  0  0
   25.0301  -21.0880  -16.9063 C   0  0  0  0  0  0  0  0  0  0  0  0
   25.4363  -20.1878  -17.6876 O   0  0  0  0  0  0  0  0  0  0  0  0
   25.1655  -21.7405  -12.7789 C   0  0  0  0  0  0  0  0  0  0  0  0
   25.5309  -22.1064  -11.5092 C   0  0  0  0  0  0  0  0  0  0  0  0
   23.4468  -23.4021  -19.2633 C   0  0  0  0  0  0  0  0  0  0  0  0
   23.4600  -21.9971  -18.6765 C   0  0  2  0  0  0  0  0  0  0  0  0
   24.1321  -22.0568  -17.4173 N   0  0  0  0  0  0  0  0  0  0  0  0
   22.0199  -21.5861  -18.4928 C   0  0  0  0  0  0  0  0  0  0  0  0
   21.2620  -21.4347  -19.4846 O   0  0  0  0  0  0  0  0  0  0  0  0
   17.2307  -21.2220  -16.4279 N   0  0  0  0  0  0  0  0  0  0  0  0
   18.2374  -21.2868  -15.4363 C   0  0  0  0  0  0  0  0  0  0  0  0
   17.9788  -21.0366  -14.2297 O   0  0  0  0  0  0  0  0  0  0  0  0
   19.6054  -21.6491  -15.8047 C   0  0  0  0  0  0  0  0  0  0  0  0
   20.1189  -20.9222  -17.0415 C   0  0  2  0  0  0  0  0  0  0  0  0
   21.4829  -21.3599  -17.2074 N   0  0  0  0  0  0  0  0  0  0  0  0
   20.0176  -19.4543  -16.9142 C   0  0  0  0  0  0  0  0  0  0  0  0
   21.1315  -18.6450  -16.9745 O   0  0  0  0  0  0  0  0  0  0  0  0
   18.8951  -18.9267  -16.7474 O   0  0  0  0  0  0  0  0  0  0  0  0
  2  1  1  0
  3  2  2  0
  4  3  1  0
  5  4  2  0
  5 11  1  0
  6  5  1  0
  7  6  1  0
  7  9  1  0
  7  8  1  6
  9 10  2  0
 11 12  2  0
 12  2  1  0
 14 13  1  1
 15 14  1  0
 15  9  1  0
 16 14  1  0
 16 17  2  0
 18 19  1  0
 19 20  2  0
 19 21  1  0
 22 21  1  1
 22 23  1  0
 22 24  1  0
 23 16  1  0
 24 26  2  0
 24 25  1  0
M  END
$$$$
