YAN.pdb
     RDKit          3D

 26 26  0  0  1  0  0  0  0  0999 V2000
   38.4310  -10.3464  -11.2800 O   0  0  0  0  0  0  0  0  0  0  0  0
   37.5744  -10.4311  -12.3701 C   0  0  0  0  0  0  0  0  0  0  0  0
   36.7372   -9.3823  -12.7273 C   0  0  0  0  0  0  0  0  0  0  0  0
   35.8870   -9.4640  -13.8081 C   0  0  0  0  0  0  0  0  0  0  0  0
   35.8358  -10.6023  -14.5828 C   0  0  0  0  0  0  0  0  0  0  0  0
   34.9354  -10.7523  -15.7672 C   0  0  0  0  0  0  0  0  0  0  0  0
   35.8433  -10.7377  -16.9754 C   0  0  2  0  0  0  0  0  0  0  0  0
   36.3952   -9.4113  -17.1318 N   0  0  0  0  0  0  0  0  0  0  0  0
   35.1758  -11.1745  -18.2202 C   0  0  0  0  0  0  0  0  0  0  0  0
   34.3680  -10.3895  -18.7832 O   0  0  0  0  0  0  0  0  0  0  0  0
   36.6805  -11.6436  -14.2121 C   0  0  0  0  0  0  0  0  0  0  0  0
   37.5286  -11.5677  -13.1375 C   0  0  0  0  0  0  0  0  0  0  0  0
   35.4562  -14.2313  -20.3898 C   0  0  0  0  0  0  0  0  0  0  0  0
   34.7548  -12.9404  -19.9893 C   0  0  2  0  0  0  0  0  0  0  0  0
   35.4000  -12.4391  -18.8175 N   0  0  0  0  0  0  0  0  0  0  0  0
   33.3183  -13.2960  -19.6957 C   0  0  0  0  0  0  0  0  0  0  0  0
   32.9906  -13.7875  -18.5858 O   0  0  0  0  0  0  0  0  0  0  0  0
   27.8348  -12.6509  -22.1076 N   0  0  0  0  0  0  0  0  0  0  0  0
   28.6546  -12.5696  -20.9577 C   0  0  0  0  0  0  0  0  0  0  0  0
   28.1644  -12.6621  -19.8016 O   0  0  0  0  0  0  0  0  0  0  0  0
   30.0970  -12.3751  -21.0994 C   0  0  0  0  0  0  0  0  0  0  0  0
   30.9301  -13.4159  -20.3614 C   0  0  2  0  0  0  0  0  0  0  0  0
   32.3036  -13.0888  -20.6546 N   0  0  0  0  0  0  0  0  0  0  0  0
   30.5896  -14.7962  -20.7615 C   0  0  0  0  0  0  0  0  0  0  0  0
   31.3999  -15.5248  -21.6054 O   0  0  0  0  0  0  0  0  0  0  0  0
   29.5407  -15.3224  -20.3267 O   0  0  0  0  0  0  0  0  0  0  0  0
  2  1  1  0
  3  2  2  0
  4  3  1  0
  5  4  2  0
  5 11  1  0
  6  5  1  0
  7  6  1  0
  7  9  1  0
  7  8  1  6
  9 10  2  0
 11 12  2  0
 12  2  1  0
 14 13  1  1
 15 14  1  0
 15  9  1  0
 16 14  1  0
 16 17  2  0
 18 19  1  0
 19 20  2  0
 19 21  1  0
 22 21  1  6
 22 23  1  0
 22 24  1  0
 23 16  1  0
 24 26  2  0
 24 25  1  0
M  END
$$$$
