KEV.pdb
     RDKit          3D

 26 25  0  0  1  0  0  0  0  0999 V2000
   27.9806  -21.7230  -18.5229 N   0  0  0  0  0  0  0  0  0  0  0  0
   27.9492  -22.2648  -17.1999 C   0  0  1  0  0  0  0  0  0  0  0  0
   29.2595  -22.6406  -16.6085 C   0  0  0  0  0  0  0  0  0  0  0  0
   29.9963  -23.7761  -17.1808 C   0  0  0  0  0  0  0  0  0  0  0  0
   31.3501  -23.5534  -17.7257 C   0  0  0  0  0  0  0  0  0  0  0  0
   32.0023  -24.7879  -18.2972 C   0  0  0  0  0  0  0  0  0  0  0  0
   33.3228  -24.4045  -18.7779 N   0  0  0  0  0  0  0  0  0  0  0  0
   27.1409  -21.3880  -16.3229 C   0  0  0  0  0  0  0  0  0  0  0  0
   27.7659  -20.4656  -15.6863 O   0  0  0  0  0  0  0  0  0  0  0  0
   25.7619  -21.4421  -16.0984 N   0  0  0  0  0  0  0  0  0  0  0  0
   25.0311  -20.4872  -15.2801 C   0  0  1  0  0  0  0  0  0  0  0  0
   23.9672  -19.8636  -16.1507 C   0  0  0  0  0  0  0  0  0  0  0  0
   23.0420  -18.9641  -15.4009 C   0  0  0  0  0  0  0  0  0  0  0  0
   21.9993  -18.4401  -16.3130 C   0  0  0  0  0  0  0  0  0  0  0  0
   20.9755  -19.1325  -16.5204 O   0  0  0  0  0  0  0  0  0  0  0  0
   24.4777  -21.0964  -14.0639 C   0  0  0  0  0  0  0  0  0  0  0  0
   23.8679  -22.1892  -14.1817 O   0  0  0  0  0  0  0  0  0  0  0  0
   22.0985  -17.2166  -16.9522 O   0  0  0  0  0  0  0  0  0  0  0  0
   26.2357  -21.2449  -10.5650 C   0  0  0  0  0  0  0  0  0  0  0  0
   24.7844  -20.8813  -10.3495 C   0  0  1  0  0  0  0  0  0  0  0  0
   24.7022  -19.4173   -9.9623 C   0  0  0  0  0  0  0  0  0  0  0  0
   24.0167  -21.1807  -11.5962 C   0  0  2  0  0  0  0  0  0  0  0  0
   24.5861  -20.5323  -12.7647 N   0  0  0  0  0  0  0  0  0  0  0  0
   22.5962  -20.7774  -11.4041 C   0  0  0  0  0  0  0  0  0  0  0  0
   22.1570  -19.8268  -12.0753 O   0  0  0  0  0  0  0  0  0  0  0  0
   21.7607  -21.4162  -10.5164 O   0  0  0  0  0  0  0  0  0  0  0  0
  2  1  1  6
  3  2  1  0
  4  3  1  0
  5  4  1  0
  5  6  1  0
  7  6  1  0
  8  2  1  0
  8 10  1  0
  9  8  2  0
 11 10  1  0
 12 13  1  0
 11 12  1  6
 13 14  1  0
 14 18  1  0
 15 14  2  0
 16 11  1  0
 17 16  2  0
 20 19  1  6
 20 22  1  0
 21 20  1  0
 22 23  1  6
 22 24  1  0
 23 16  1  0
 24 26  1  0
 25 24  2  0
M  END
$$$$
