KEV.pdb
     RDKit          3D

 26 25  0  0  1  0  0  0  0  0999 V2000
   15.1484  -11.5809  -16.4378 N   0  0  0  0  0  0  0  0  0  0  0  0
   16.3133  -11.4999  -15.6123 C   0  0  1  0  0  0  0  0  0  0  0  0
   17.2571  -12.6451  -15.6871 C   0  0  0  0  0  0  0  0  0  0  0  0
   16.8021  -13.9000  -16.3016 C   0  0  0  0  0  0  0  0  0  0  0  0
   16.5212  -15.0633  -15.4372 C   0  0  0  0  0  0  0  0  0  0  0  0
   15.9911  -16.2706  -16.1704 C   0  0  0  0  0  0  0  0  0  0  0  0
   15.7072  -17.2978  -15.1774 N   0  0  0  0  0  0  0  0  0  0  0  0
   16.9691  -10.1870  -15.8057 C   0  0  0  0  0  0  0  0  0  0  0  0
   17.6130  -10.0138  -16.9021 O   0  0  0  0  0  0  0  0  0  0  0  0
   16.9749   -9.0978  -14.9290 N   0  0  0  0  0  0  0  0  0  0  0  0
   17.7038   -7.8623  -15.1687 C   0  0  1  0  0  0  0  0  0  0  0  0
   16.7405   -6.7189  -14.9607 C   0  0  0  0  0  0  0  0  0  0  0  0
   17.3713   -5.3766  -15.1266 C   0  0  0  0  0  0  0  0  0  0  0  0
   16.3641   -4.3148  -14.8991 C   0  0  0  0  0  0  0  0  0  0  0  0
   16.3813   -3.6892  -13.8134 O   0  0  0  0  0  0  0  0  0  0  0  0
   18.9046   -7.7463  -14.3313 C   0  0  0  0  0  0  0  0  0  0  0  0
   18.8127   -8.0880  -13.1252 O   0  0  0  0  0  0  0  0  0  0  0  0
   15.3984   -3.9758  -15.8307 O   0  0  0  0  0  0  0  0  0  0  0  0
   22.9030   -7.9607  -15.6486 C   0  0  0  0  0  0  0  0  0  0  0  0
   22.3427   -8.2581  -14.2766 C   0  0  1  0  0  0  0  0  0  0  0  0
   23.4870   -8.2978  -13.2822 C   0  0  0  0  0  0  0  0  0  0  0  0
   21.3272   -7.2182  -13.9291 C   0  0  2  0  0  0  0  0  0  0  0  0
   20.1616   -7.2734  -14.7943 N   0  0  0  0  0  0  0  0  0  0  0  0
   21.9658   -5.8741  -13.9832 C   0  0  0  0  0  0  0  0  0  0  0  0
   21.7090   -5.1377  -14.9521 O   0  0  0  0  0  0  0  0  0  0  0  0
   22.8232   -5.4239  -13.0053 O   0  0  0  0  0  0  0  0  0  0  0  0
  2  1  1  6
  3  2  1  0
  4  3  1  0
  5  4  1  0
  5  6  1  0
  7  6  1  0
  8  2  1  0
  8 10  1  0
  9  8  2  0
 11 10  1  0
 12 13  1  0
 11 12  1  1
 13 14  1  0
 14 18  1  0
 15 14  2  0
 16 11  1  0
 17 16  2  0
 20 19  1  6
 20 22  1  0
 21 20  1  0
 22 23  1  6
 22 24  1  0
 23 16  1  0
 24 26  1  0
 25 24  2  0
M  END
$$$$
