KEV.pdb
     RDKit          3D

 26 25  0  0  1  0  0  0  0  0999 V2000
   27.5402  -21.1939  -11.2833 N   0  0  0  0  0  0  0  0  0  0  0  0
   26.1460  -21.0984  -10.9800 C   0  0  1  0  0  0  0  0  0  0  0  0
   25.7951  -20.4992   -9.6663 C   0  0  0  0  0  0  0  0  0  0  0  0
   24.3850  -20.4716   -9.2534 C   0  0  0  0  0  0  0  0  0  0  0  0
   23.8678  -21.5508   -8.3891 C   0  0  0  0  0  0  0  0  0  0  0  0
   22.4039  -21.4265   -8.0460 C   0  0  0  0  0  0  0  0  0  0  0  0
   22.0769  -22.5023   -7.1200 N   0  0  0  0  0  0  0  0  0  0  0  0
   25.4315  -20.4759  -12.1172 C   0  0  0  0  0  0  0  0  0  0  0  0
   25.6920  -19.2439  -12.3642 O   0  0  0  0  0  0  0  0  0  0  0  0
   24.4941  -21.0720  -12.9662 N   0  0  0  0  0  0  0  0  0  0  0  0
   23.8504  -20.3891  -14.0774 C   0  0  1  0  0  0  0  0  0  0  0  0
   24.1283  -21.1910  -15.3258 C   0  0  0  0  0  0  0  0  0  0  0  0
   23.5238  -20.5994  -16.5553 C   0  0  0  0  0  0  0  0  0  0  0  0
   23.7842  -21.4790  -17.7182 C   0  0  0  0  0  0  0  0  0  0  0  0
   24.5958  -22.4251  -17.5895 O   0  0  0  0  0  0  0  0  0  0  0  0
   22.4147  -20.1778  -13.8519 C   0  0  0  0  0  0  0  0  0  0  0  0
   21.7992  -21.0280  -13.1602 O   0  0  0  0  0  0  0  0  0  0  0  0
   23.1726  -21.3083  -18.9480 O   0  0  0  0  0  0  0  0  0  0  0  0
   18.4910  -17.2359  -13.7292 C   0  0  0  0  0  0  0  0  0  0  0  0
   19.9748  -17.4925  -13.5979 C   0  0  1  0  0  0  0  0  0  0  0  0
   20.3824  -17.2618  -12.1555 C   0  0  0  0  0  0  0  0  0  0  0  0
   20.2708  -18.8846  -14.0537 C   0  0  2  0  0  0  0  0  0  0  0  0
   21.6768  -19.0772  -14.3638 N   0  0  0  0  0  0  0  0  0  0  0  0
   19.4181  -19.2048  -15.2317 C   0  0  0  0  0  0  0  0  0  0  0  0
   19.9350  -19.1648  -16.3623 O   0  0  0  0  0  0  0  0  0  0  0  0
   18.0889  -19.5407  -15.1118 O   0  0  0  0  0  0  0  0  0  0  0  0
  2  1  1  6
  3  2  1  0
  4  3  1  0
  5  4  1  0
  5  6  1  0
  7  6  1  0
  8  2  1  0
  8 10  1  0
  9  8  2  0
 11 10  1  0
 12 13  1  0
 11 12  1  6
 13 14  1  0
 14 18  1  0
 15 14  2  0
 16 11  1  0
 17 16  2  0
 20 19  1  1
 20 22  1  0
 21 20  1  0
 22 23  1  6
 22 24  1  0
 23 16  1  0
 24 26  1  0
 25 24  2  0
M  END
$$$$
