KEV.pdb
     RDKit          3D

 26 25  0  0  1  0  0  0  0  0999 V2000
   26.4913  -21.4936  -14.0924 N   0  0  0  0  0  0  0  0  0  0  0  0
   27.2356  -20.3572  -13.6456 C   0  0  1  0  0  0  0  0  0  0  0  0
   27.3395  -19.2200  -14.5964 C   0  0  0  0  0  0  0  0  0  0  0  0
   27.6473  -19.5000  -16.0058 C   0  0  0  0  0  0  0  0  0  0  0  0
   28.4775  -20.6738  -16.3409 C   0  0  0  0  0  0  0  0  0  0  0  0
   28.7909  -20.8162  -17.8097 C   0  0  0  0  0  0  0  0  0  0  0  0
   29.6732  -21.9653  -17.9612 N   0  0  0  0  0  0  0  0  0  0  0  0
   26.7679  -19.9547  -12.3001 C   0  0  0  0  0  0  0  0  0  0  0  0
   26.7561  -18.6982  -12.0396 O   0  0  0  0  0  0  0  0  0  0  0  0
   26.3327  -20.7857  -11.2632 N   0  0  0  0  0  0  0  0  0  0  0  0
   25.7706  -20.3018  -10.0121 C   0  0  1  0  0  0  0  0  0  0  0  0
   24.3467  -20.7966   -9.9323 C   0  0  0  0  0  0  0  0  0  0  0  0
   23.6520  -20.3983   -8.6730 C   0  0  0  0  0  0  0  0  0  0  0  0
   22.2924  -20.9848   -8.6403 C   0  0  0  0  0  0  0  0  0  0  0  0
   21.4603  -20.6282   -9.5068 O   0  0  0  0  0  0  0  0  0  0  0  0
   26.5705  -20.6978   -8.8459 C   0  0  0  0  0  0  0  0  0  0  0  0
   27.0698  -21.8514   -8.8426 O   0  0  0  0  0  0  0  0  0  0  0  0
   21.8913  -21.9130   -7.6952 O   0  0  0  0  0  0  0  0  0  0  0  0
   29.0657  -19.6961   -4.7164 C   0  0  0  0  0  0  0  0  0  0  0  0
   28.3385  -19.1724   -5.9337 C   0  0  1  0  0  0  0  0  0  0  0  0
   29.3444  -18.5043   -6.8510 C   0  0  0  0  0  0  0  0  0  0  0  0
   27.6286  -20.3050   -6.6019 C   0  0  2  0  0  0  0  0  0  0  0  0
   26.8165  -19.8638   -7.7226 N   0  0  0  0  0  0  0  0  0  0  0  0
   26.7994  -21.0240   -5.5954 C   0  0  0  0  0  0  0  0  0  0  0  0
   25.5687  -21.0703   -5.7696 O   0  0  0  0  0  0  0  0  0  0  0  0
   27.3450  -21.6334   -4.4886 O   0  0  0  0  0  0  0  0  0  0  0  0
  2  1  1  6
  3  2  1  0
  4  3  1  0
  5  4  1  0
  5  6  1  0
  7  6  1  0
  8  2  1  0
  8 10  1  0
  9  8  2  0
 11 10  1  0
 12 13  1  0
 11 12  1  1
 13 14  1  0
 14 18  1  0
 15 14  2  0
 16 11  1  0
 17 16  2  0
 20 19  1  1
 20 22  1  0
 21 20  1  0
 22 23  1  6
 22 24  1  0
 23 16  1  0
 24 26  1  0
 25 24  2  0
M  END
$$$$
