KEV.pdb
     RDKit          3D

 26 25  0  0  1  0  0  0  0  0999 V2000
   23.5502  -21.6703  -13.0805 N   0  0  0  0  0  0  0  0  0  0  0  0
   24.7032  -20.9160  -13.4631 C   0  0  1  0  0  0  0  0  0  0  0  0
   25.9108  -21.6978  -13.8352 C   0  0  0  0  0  0  0  0  0  0  0  0
   26.0050  -23.1017  -13.4111 C   0  0  0  0  0  0  0  0  0  0  0  0
   25.0266  -23.6258  -12.4377 C   0  0  0  0  0  0  0  0  0  0  0  0
   25.2592  -25.0600  -12.0317 C   0  0  0  0  0  0  0  0  0  0  0  0
   24.3951  -25.8952  -12.8549 N   0  0  0  0  0  0  0  0  0  0  0  0
   24.3230  -19.9074  -14.4778 C   0  0  0  0  0  0  0  0  0  0  0  0
   25.2455  -19.5070  -15.2748 O   0  0  0  0  0  0  0  0  0  0  0  0
   23.0661  -19.3282  -14.6769 N   0  0  0  0  0  0  0  0  0  0  0  0
   22.7744  -18.3494  -15.7124 C   0  0  1  0  0  0  0  0  0  0  0  0
   21.2932  -18.4159  -15.9960 C   0  0  0  0  0  0  0  0  0  0  0  0
   20.8587  -17.4975  -17.0892 C   0  0  0  0  0  0  0  0  0  0  0  0
   19.4071  -17.6582  -17.3352 C   0  0  0  0  0  0  0  0  0  0  0  0
   18.7621  -18.4706  -16.6320 O   0  0  0  0  0  0  0  0  0  0  0  0
   23.2180  -16.9974  -15.3492 C   0  0  0  0  0  0  0  0  0  0  0  0
   22.8198  -16.5246  -14.2547 O   0  0  0  0  0  0  0  0  0  0  0  0
   18.7219  -16.9523  -18.3087 O   0  0  0  0  0  0  0  0  0  0  0  0
   26.6547  -15.5240  -14.9426 C   0  0  0  0  0  0  0  0  0  0  0  0
   25.9172  -14.6082  -15.8925 C   0  0  1  0  0  0  0  0  0  0  0  0
   26.4123  -14.8690  -17.3020 C   0  0  0  0  0  0  0  0  0  0  0  0
   24.4481  -14.8455  -15.7560 C   0  0  2  0  0  0  0  0  0  0  0  0
   24.0663  -16.1897  -16.1529 N   0  0  0  0  0  0  0  0  0  0  0  0
   23.7123  -13.8266  -16.5546 C   0  0  0  0  0  0  0  0  0  0  0  0
   23.1152  -14.1995  -17.5801 O   0  0  0  0  0  0  0  0  0  0  0  0
   23.6715  -12.4978  -16.1987 O   0  0  0  0  0  0  0  0  0  0  0  0
  2  1  1  6
  3  2  1  0
  4  3  1  0
  5  4  1  0
  5  6  1  0
  7  6  1  0
  8  2  1  0
  8 10  1  0
  9  8  2  0
 11 10  1  0
 12 13  1  0
 11 12  1  1
 13 14  1  0
 14 18  1  0
 15 14  2  0
 16 11  1  0
 17 16  2  0
 20 19  1  1
 20 22  1  0
 21 20  1  0
 22 23  1  6
 22 24  1  0
 23 16  1  0
 24 26  1  0
 25 24  2  0
M  END
$$$$
