KEV.pdb
     RDKit          3D

 26 25  0  0  1  0  0  0  0  0999 V2000
   25.1890  -36.5695  -12.2020 N   0  0  0  0  0  0  0  0  0  0  0  0
   26.0624  -35.6094  -11.6017 C   0  0  1  0  0  0  0  0  0  0  0  0
   25.8078  -34.1842  -11.9365 C   0  0  0  0  0  0  0  0  0  0  0  0
   26.2445  -33.6740  -13.2436 C   0  0  0  0  0  0  0  0  0  0  0  0
   27.6175  -33.9600  -13.7047 C   0  0  0  0  0  0  0  0  0  0  0  0
   27.9454  -33.4028  -15.0678 C   0  0  0  0  0  0  0  0  0  0  0  0
   29.3694  -33.6088  -15.2955 N   0  0  0  0  0  0  0  0  0  0  0  0
   26.1527  -35.8617  -10.1458 C   0  0  0  0  0  0  0  0  0  0  0  0
   25.0487  -36.0379   -9.5159 O   0  0  0  0  0  0  0  0  0  0  0  0
   27.3080  -35.9314   -9.3613 N   0  0  0  0  0  0  0  0  0  0  0  0
   27.3078  -36.2032   -7.9325 C   0  0  1  0  0  0  0  0  0  0  0  0
   28.5173  -37.0551   -7.6320 C   0  0  0  0  0  0  0  0  0  0  0  0
   28.5878  -37.5010   -6.2095 C   0  0  0  0  0  0  0  0  0  0  0  0
   29.8198  -38.2932   -5.9902 C   0  0  0  0  0  0  0  0  0  0  0  0
   30.7909  -37.7513   -5.4126 O   0  0  0  0  0  0  0  0  0  0  0  0
   27.2693  -34.9761   -7.1266 C   0  0  0  0  0  0  0  0  0  0  0  0
   28.2717  -34.2187   -7.1648 O   0  0  0  0  0  0  0  0  0  0  0  0
   29.9542  -39.6104   -6.3932 O   0  0  0  0  0  0  0  0  0  0  0  0
   24.5347  -32.1752   -6.8328 C   0  0  0  0  0  0  0  0  0  0  0  0
   24.8753  -32.6974   -5.4558 C   0  0  1  0  0  0  0  0  0  0  0  0
   23.7700  -33.6318   -5.0030 C   0  0  0  0  0  0  0  0  0  0  0  0
   26.2050  -33.3774   -5.5077 C   0  0  2  0  0  0  0  0  0  0  0  0
   26.1748  -34.5895   -6.3078 N   0  0  0  0  0  0  0  0  0  0  0  0
   26.6598  -33.6680   -4.1199 C   0  0  0  0  0  0  0  0  0  0  0  0
   26.9088  -32.7092   -3.3678 O   0  0  0  0  0  0  0  0  0  0  0  0
   26.8123  -34.9511   -3.6462 O   0  0  0  0  0  0  0  0  0  0  0  0
  2  1  1  1
  3  2  1  0
  4  3  1  0
  5  4  1  0
  5  6  1  0
  7  6  1  0
  8  2  1  0
  8 10  1  0
  9  8  2  0
 11 10  1  0
 12 13  1  0
 11 12  1  1
 13 14  1  0
 14 18  1  0
 15 14  2  0
 16 11  1  0
 17 16  2  0
 20 19  1  6
 20 22  1  0
 21 20  1  0
 22 23  1  6
 22 24  1  0
 23 16  1  0
 24 26  1  0
 25 24  2  0
M  END
$$$$
