KEV.pdb
     RDKit          3D

 26 25  0  0  1  0  0  0  0  0999 V2000
   42.5355  -13.8739  -10.1025 N   0  0  0  0  0  0  0  0  0  0  0  0
   42.6588  -13.0130   -8.9674 C   0  0  1  0  0  0  0  0  0  0  0  0
   43.7780  -13.3054   -8.0347 C   0  0  0  0  0  0  0  0  0  0  0  0
   44.3690  -14.6509   -8.0360 C   0  0  0  0  0  0  0  0  0  0  0  0
   45.4507  -14.9619   -7.0808 C   0  0  0  0  0  0  0  0  0  0  0  0
   46.0085  -16.3582   -7.2044 C   0  0  0  0  0  0  0  0  0  0  0  0
   47.0113  -16.5246   -6.1611 N   0  0  0  0  0  0  0  0  0  0  0  0
   42.6179  -11.6005   -9.4083 C   0  0  0  0  0  0  0  0  0  0  0  0
   43.3326  -11.2877  -10.4271 O   0  0  0  0  0  0  0  0  0  0  0  0
   41.8878  -10.5503   -8.8433 N   0  0  0  0  0  0  0  0  0  0  0  0
   41.9453   -9.1740   -9.3100 C   0  0  1  0  0  0  0  0  0  0  0  0
   40.7411   -8.9423  -10.1904 C   0  0  0  0  0  0  0  0  0  0  0  0
   39.4669   -9.4377   -9.5918 C   0  0  0  0  0  0  0  0  0  0  0  0
   38.3390   -9.1679  -10.5130 C   0  0  0  0  0  0  0  0  0  0  0  0
   38.5758   -8.6101  -11.6099 O   0  0  0  0  0  0  0  0  0  0  0  0
   42.0298   -8.2090   -8.2062 C   0  0  0  0  0  0  0  0  0  0  0  0
   41.5934   -8.5649   -7.0825 O   0  0  0  0  0  0  0  0  0  0  0  0
   37.0279   -9.5026  -10.2222 O   0  0  0  0  0  0  0  0  0  0  0  0
   44.0480   -4.3810   -8.3937 C   0  0  0  0  0  0  0  0  0  0  0  0
   43.9627   -5.2551   -7.1635 C   0  0  1  0  0  0  0  0  0  0  0  0
   44.0957   -4.3778   -5.9336 C   0  0  0  0  0  0  0  0  0  0  0  0
   42.6699   -6.0044   -7.1867 C   0  0  2  0  0  0  0  0  0  0  0  0
   42.5716   -6.9012   -8.3252 N   0  0  0  0  0  0  0  0  0  0  0  0
   41.5416   -5.0327   -7.1768 C   0  0  0  0  0  0  0  0  0  0  0  0
   40.9562   -4.7976   -8.2488 O   0  0  0  0  0  0  0  0  0  0  0  0
   41.1289   -4.3918   -6.0309 O   0  0  0  0  0  0  0  0  0  0  0  0
  2  1  1  6
  3  2  1  0
  4  3  1  0
  5  4  1  0
  5  6  1  0
  7  6  1  0
  8  2  1  0
  8 10  1  0
  9  8  2  0
 11 10  1  0
 12 13  1  0
 11 12  1  1
 13 14  1  0
 14 18  1  0
 15 14  2  0
 16 11  1  0
 17 16  2  0
 20 19  1  6
 20 22  1  0
 21 20  1  0
 22 23  1  6
 22 24  1  0
 23 16  1  0
 24 26  1  0
 25 24  2  0
M  END
$$$$
