KAR.pdb
     RDKit          3D

 26 25  0  0  1  0  0  0  0  0999 V2000
   27.8092  -17.4756  -18.8206 N   0  0  0  0  0  0  0  0  0  0  0  0
   26.9140  -18.5503  -18.5666 C   0  0  1  0  0  0  0  0  0  0  0  0
   27.5350  -19.8837  -18.3599 C   0  0  0  0  0  0  0  0  0  0  0  0
   28.4291  -20.4085  -19.4070 C   0  0  0  0  0  0  0  0  0  0  0  0
   28.9719  -21.7769  -19.2611 C   0  0  0  0  0  0  0  0  0  0  0  0
   29.8488  -22.2695  -20.3628 C   0  0  0  0  0  0  0  0  0  0  0  0
   30.3850  -23.5915  -20.1860 N   0  0  0  0  0  0  0  0  0  0  0  0
   25.9187  -18.3032  -17.4911 C   0  0  0  0  0  0  0  0  0  0  0  0
   26.2879  -17.8486  -16.3534 O   0  0  0  0  0  0  0  0  0  0  0  0
   22.2757  -17.9128  -17.1666 C   0  0  0  0  0  0  0  0  0  0  0  0
   23.6083  -18.2220  -16.5202 C   0  0  2  0  0  0  0  0  0  0  0  0
   24.5341  -18.5383  -17.6189 N   0  0  0  0  0  0  0  0  0  0  0  0
   23.5350  -19.4330  -15.6410 C   0  0  0  0  0  0  0  0  0  0  0  0
   23.4765  -20.5909  -16.1466 O   0  0  0  0  0  0  0  0  0  0  0  0
   21.8363  -20.6282   -8.4957 N   0  0  0  0  0  0  0  0  0  0  0  0
   22.9558  -21.3220   -7.9136 C   0  0  0  0  0  0  0  0  0  0  0  0
   22.7907  -21.9323   -6.7678 N   0  0  0  0  0  0  0  0  0  0  0  0
   24.1893  -21.3188   -8.5985 N   0  0  0  0  0  0  0  0  0  0  0  0
   24.3621  -20.2826   -9.6495 C   0  0  0  0  0  0  0  0  0  0  0  0
   23.6910  -20.8186  -10.8515 C   0  0  0  0  0  0  0  0  0  0  0  0
   23.9597  -20.1599  -12.1161 C   0  0  0  0  0  0  0  0  0  0  0  0
   23.3481  -20.5977  -13.3865 C   0  0  2  0  0  0  0  0  0  0  0  0
   23.5277  -19.3481  -14.2439 N   0  0  0  0  0  0  0  0  0  0  0  0
   21.9476  -20.9304  -13.3750 C   0  0  0  0  0  0  0  0  0  0  0  0
   21.6527  -22.1904  -13.3987 O   0  0  0  0  0  0  0  0  0  0  0  0
   20.8491  -20.0912  -13.3290 O   0  0  0  0  0  0  0  0  0  0  0  0
  2  8  1  0
  2  1  1  1
  3  2  1  0
  4  3  1  0
  5  4  1  0
  6  5  1  0
  7  6  1  0
  8  9  2  0
 11 10  1  6
 12 11  1  0
 12  8  1  0
 13 14  2  0
 13 11  1  0
 15 16  1  0
 16 17  2  0
 18 16  1  0
 18 19  1  0
 19 20  1  0
 20 21  1  0
 22 21  1  1
 22 24  1  0
 22 23  1  0
 23 13  1  0
 24 26  1  0
 25 24  2  0
M  END
$$$$
