KAR.pdb
     RDKit          3D

 26 25  0  0  1  0  0  0  0  0999 V2000
   14.7781  -25.2027   -8.4607 N   0  0  0  0  0  0  0  0  0  0  0  0
   16.0313  -24.5431   -8.3359 C   0  0  1  0  0  0  0  0  0  0  0  0
   16.9697  -25.1064   -7.3318 C   0  0  0  0  0  0  0  0  0  0  0  0
   16.5986  -25.0298   -5.9078 C   0  0  0  0  0  0  0  0  0  0  0  0
   17.5493  -25.5385   -4.8949 C   0  0  0  0  0  0  0  0  0  0  0  0
   17.9998  -26.9521   -5.0510 C   0  0  0  0  0  0  0  0  0  0  0  0
   18.9326  -27.4195   -4.0621 N   0  0  0  0  0  0  0  0  0  0  0  0
   16.7583  -24.3205   -9.6127 C   0  0  0  0  0  0  0  0  0  0  0  0
   17.3149  -25.2968  -10.2245 O   0  0  0  0  0  0  0  0  0  0  0  0
   16.6747  -22.4958  -12.5479 C   0  0  0  0  0  0  0  0  0  0  0  0
   17.6654  -22.9244  -11.4878 C   0  0  2  0  0  0  0  0  0  0  0  0
   16.8974  -23.0656  -10.2409 N   0  0  0  0  0  0  0  0  0  0  0  0
   18.7122  -21.8798  -11.2466 C   0  0  0  0  0  0  0  0  0  0  0  0
   18.4901  -20.9193  -10.4544 O   0  0  0  0  0  0  0  0  0  0  0  0
   26.3631  -22.6818  -14.6204 N   0  0  0  0  0  0  0  0  0  0  0  0
   25.1329  -22.2546  -15.2349 C   0  0  0  0  0  0  0  0  0  0  0  0
   24.9657  -22.4601  -16.5164 N   0  0  0  0  0  0  0  0  0  0  0  0
   24.1531  -21.6306  -14.4343 N   0  0  0  0  0  0  0  0  0  0  0  0
   24.5546  -21.2790  -13.0474 C   0  0  0  0  0  0  0  0  0  0  0  0
   23.3938  -20.5768  -12.4626 C   0  0  0  0  0  0  0  0  0  0  0  0
   22.1705  -21.3377  -12.2901 C   0  0  0  0  0  0  0  0  0  0  0  0
   20.9404  -20.7484  -11.7251 C   0  0  2  0  0  0  0  0  0  0  0  0
   19.9640  -21.9120  -11.8720 N   0  0  0  0  0  0  0  0  0  0  0  0
   20.3755  -19.6076  -12.3972 C   0  0  0  0  0  0  0  0  0  0  0  0
   19.6780  -19.8498  -13.4602 O   0  0  0  0  0  0  0  0  0  0  0  0
   20.4567  -18.2674  -12.0650 O   0  0  0  0  0  0  0  0  0  0  0  0
  2  8  1  0
  2  1  1  6
  3  2  1  0
  4  3  1  0
  5  4  1  0
  6  5  1  0
  7  6  1  0
  8  9  2  0
 11 10  1  6
 12 11  1  0
 12  8  1  0
 13 14  2  0
 13 11  1  0
 15 16  1  0
 16 17  2  0
 18 16  1  0
 18 19  1  0
 19 20  1  0
 20 21  1  0
 22 21  1  6
 22 24  1  0
 22 23  1  0
 23 13  1  0
 24 26  1  0
 25 24  2  0
M  END
$$$$
