KAR.pdb
     RDKit          3D

 26 25  0  0  1  0  0  0  0  0999 V2000
   25.7411  -22.8163  -13.1825 N   0  0  0  0  0  0  0  0  0  0  0  0
   25.1456  -21.9316  -14.1224 C   0  0  1  0  0  0  0  0  0  0  0  0
   25.0526  -22.4276  -15.5194 C   0  0  0  0  0  0  0  0  0  0  0  0
   24.8684  -23.8732  -15.7373 C   0  0  0  0  0  0  0  0  0  0  0  0
   23.5607  -24.4826  -15.4103 C   0  0  0  0  0  0  0  0  0  0  0  0
   23.4297  -25.9503  -15.6437 C   0  0  0  0  0  0  0  0  0  0  0  0
   22.1701  -26.5296  -15.2640 N   0  0  0  0  0  0  0  0  0  0  0  0
   23.8320  -21.3681  -13.7159 C   0  0  0  0  0  0  0  0  0  0  0  0
   23.3409  -21.6262  -12.5629 O   0  0  0  0  0  0  0  0  0  0  0  0
   21.4141  -18.8432  -14.9790 C   0  0  0  0  0  0  0  0  0  0  0  0
   21.7816  -19.9582  -14.0246 C   0  0  2  0  0  0  0  0  0  0  0  0
   23.0380  -20.5335  -14.5293 N   0  0  0  0  0  0  0  0  0  0  0  0
   20.7605  -21.0548  -14.0273 C   0  0  0  0  0  0  0  0  0  0  0  0
   20.8158  -21.9815  -14.8862 O   0  0  0  0  0  0  0  0  0  0  0  0
   18.5069  -24.7333   -7.0036 N   0  0  0  0  0  0  0  0  0  0  0  0
   18.9021  -25.7163   -7.9787 C   0  0  0  0  0  0  0  0  0  0  0  0
   19.1306  -26.9415   -7.5796 N   0  0  0  0  0  0  0  0  0  0  0  0
   19.0288  -25.3239   -9.3280 N   0  0  0  0  0  0  0  0  0  0  0  0
   18.6278  -23.9307   -9.6544 C   0  0  0  0  0  0  0  0  0  0  0  0
   18.7902  -23.8018  -11.1170 C   0  0  0  0  0  0  0  0  0  0  0  0
   18.4967  -22.5106  -11.7103 C   0  0  0  0  0  0  0  0  0  0  0  0
   18.6847  -22.2350  -13.1485 C   0  0  2  0  0  0  0  0  0  0  0  0
   19.7144  -21.1098  -13.0989 N   0  0  0  0  0  0  0  0  0  0  0  0
   17.5470  -21.7629  -13.8935 C   0  0  0  0  0  0  0  0  0  0  0  0
   17.3213  -20.4890  -13.8584 O   0  0  0  0  0  0  0  0  0  0  0  0
   16.6490  -22.4773  -14.6658 O   0  0  0  0  0  0  0  0  0  0  0  0
  2  8  1  0
  2  1  1  1
  3  2  1  0
  4  3  1  0
  5  4  1  0
  6  5  1  0
  7  6  1  0
  8  9  2  0
 11 10  1  6
 12 11  1  0
 12  8  1  0
 13 14  2  0
 13 11  1  0
 15 16  1  0
 16 17  2  0
 18 16  1  0
 18 19  1  0
 19 20  1  0
 20 21  1  0
 22 21  1  1
 22 24  1  0
 22 23  1  0
 23 13  1  0
 24 26  1  0
 25 24  2  0
M  END
$$$$
