KAR.pdb
     RDKit          3D

 26 25  0  0  1  0  0  0  0  0999 V2000
   40.9807  -31.9534    2.7738 N   0  0  0  0  0  0  0  0  0  0  0  0
   40.0368  -31.5861    1.7762 C   0  0  1  0  0  0  0  0  0  0  0  0
   40.4321  -31.8574    0.3704 C   0  0  0  0  0  0  0  0  0  0  0  0
   41.7702  -31.4298   -0.0746 C   0  0  0  0  0  0  0  0  0  0  0  0
   42.1400  -31.6089   -1.4958 C   0  0  0  0  0  0  0  0  0  0  0  0
   43.4801  -31.0988   -1.9075 C   0  0  0  0  0  0  0  0  0  0  0  0
   43.7373  -31.0995   -3.3218 N   0  0  0  0  0  0  0  0  0  0  0  0
   38.6547  -32.0844    1.9996 C   0  0  0  0  0  0  0  0  0  0  0  0
   38.4388  -33.3235    2.2348 O   0  0  0  0  0  0  0  0  0  0  0  0
   35.2604  -30.6609    2.5182 C   0  0  0  0  0  0  0  0  0  0  0  0
   36.1716  -31.8378    2.2465 C   0  0  2  0  0  0  0  0  0  0  0  0
   37.5020  -31.2725    1.9727 N   0  0  0  0  0  0  0  0  0  0  0  0
   35.7537  -32.5972    1.0243 C   0  0  0  0  0  0  0  0  0  0  0  0
   36.0194  -32.1531   -0.1297 O   0  0  0  0  0  0  0  0  0  0  0  0
   32.3436  -40.1505    0.6343 N   0  0  0  0  0  0  0  0  0  0  0  0
   32.8204  -40.1520   -0.7244 C   0  0  0  0  0  0  0  0  0  0  0  0
   32.2140  -40.9091   -1.6029 N   0  0  0  0  0  0  0  0  0  0  0  0
   33.9231  -39.3382   -1.0596 N   0  0  0  0  0  0  0  0  0  0  0  0
   34.4170  -38.4205   -0.0002 C   0  0  0  0  0  0  0  0  0  0  0  0
   34.2642  -37.0581   -0.5505 C   0  0  0  0  0  0  0  0  0  0  0  0
   34.7195  -35.9515    0.2702 C   0  0  0  0  0  0  0  0  0  0  0  0
   34.6424  -34.5462   -0.1759 C   0  0  2  0  0  0  0  0  0  0  0  0
   35.0622  -33.8122    1.0944 N   0  0  0  0  0  0  0  0  0  0  0  0
   33.3550  -34.0409   -0.5755 C   0  0  0  0  0  0  0  0  0  0  0  0
   32.6952  -33.3717    0.3144 O   0  0  0  0  0  0  0  0  0  0  0  0
   32.7101  -34.1543   -1.7938 O   0  0  0  0  0  0  0  0  0  0  0  0
  2  8  1  0
  2  1  1  1
  3  2  1  0
  4  3  1  0
  5  4  1  0
  6  5  1  0
  7  6  1  0
  8  9  2  0
 11 10  1  6
 12 11  1  0
 12  8  1  0
 13 14  2  0
 13 11  1  0
 15 16  1  0
 16 17  2  0
 18 16  1  0
 18 19  1  0
 19 20  1  0
 20 21  1  0
 22 21  1  1
 22 24  1  0
 22 23  1  0
 23 13  1  0
 24 26  1  0
 25 24  2  0
M  END
$$$$
