KAR.pdb
     RDKit          3D

 26 25  0  0  1  0  0  0  0  0999 V2000
   23.5494  -13.6399  -19.4298 N   0  0  0  0  0  0  0  0  0  0  0  0
   23.1379  -14.9993  -19.4893 C   0  0  1  0  0  0  0  0  0  0  0  0
   24.2100  -15.9969  -19.7372 C   0  0  0  0  0  0  0  0  0  0  0  0
   24.7888  -16.0797  -21.0898 C   0  0  0  0  0  0  0  0  0  0  0  0
   25.1696  -14.8281  -21.7803 C   0  0  0  0  0  0  0  0  0  0  0  0
   25.7231  -14.9664  -23.1587 C   0  0  0  0  0  0  0  0  0  0  0  0
   26.3585  -16.2226  -23.4498 N   0  0  0  0  0  0  0  0  0  0  0  0
   22.2994  -15.4564  -18.3506 C   0  0  0  0  0  0  0  0  0  0  0  0
   22.8328  -15.7491  -17.2250 O   0  0  0  0  0  0  0  0  0  0  0  0
   18.6734  -15.7145  -17.5460 C   0  0  0  0  0  0  0  0  0  0  0  0
   20.1273  -15.9475  -17.1982 C   0  0  2  0  0  0  0  0  0  0  0  0
   20.8981  -15.6050  -18.4035 N   0  0  0  0  0  0  0  0  0  0  0  0
   20.4041  -17.3875  -16.8906 C   0  0  0  0  0  0  0  0  0  0  0  0
   20.6708  -18.2028  -17.8199 O   0  0  0  0  0  0  0  0  0  0  0  0
   26.0344  -20.8378  -11.8658 N   0  0  0  0  0  0  0  0  0  0  0  0
   25.2164  -22.0000  -12.0976 C   0  0  0  0  0  0  0  0  0  0  0  0
   25.6438  -23.1636  -11.6783 N   0  0  0  0  0  0  0  0  0  0  0  0
   23.9849  -21.8427  -12.7679 N   0  0  0  0  0  0  0  0  0  0  0  0
   23.6512  -20.4703  -13.2298 C   0  0  0  0  0  0  0  0  0  0  0  0
   22.3886  -20.6004  -13.9856 C   0  0  0  0  0  0  0  0  0  0  0  0
   21.8006  -19.3853  -14.5178 C   0  0  0  0  0  0  0  0  0  0  0  0
   20.5649  -19.3876  -15.3259 C   0  0  2  0  0  0  0  0  0  0  0  0
   20.3826  -17.8950  -15.5862 N   0  0  0  0  0  0  0  0  0  0  0  0
   19.3621  -19.8803  -14.7073 C   0  0  0  0  0  0  0  0  0  0  0  0
   18.6198  -19.0054  -14.1086 O   0  0  0  0  0  0  0  0  0  0  0  0
   18.8644  -21.1702  -14.6661 O   0  0  0  0  0  0  0  0  0  0  0  0
  2  8  1  0
  2  1  1  1
  3  2  1  0
  4  3  1  0
  5  4  1  0
  6  5  1  0
  7  6  1  0
  8  9  2  0
 11 10  1  6
 12 11  1  0
 12  8  1  0
 13 14  2  0
 13 11  1  0
 15 16  1  0
 16 17  2  0
 18 16  1  0
 18 19  1  0
 19 20  1  0
 20 21  1  0
 22 21  1  1
 22 24  1  0
 22 23  1  0
 23 13  1  0
 24 26  1  0
 25 24  2  0
M  END
$$$$
