KAR.pdb
     RDKit          3D

 26 25  0  0  1  0  0  0  0  0999 V2000
   22.7099  -15.4013  -18.6462 N   0  0  0  0  0  0  0  0  0  0  0  0
   22.7337  -16.5589  -17.8213 C   0  0  1  0  0  0  0  0  0  0  0  0
   22.1036  -17.7787  -18.3881 C   0  0  0  0  0  0  0  0  0  0  0  0
   20.7878  -17.6484  -19.0383 C   0  0  0  0  0  0  0  0  0  0  0  0
   20.6078  -18.1978  -20.4000 C   0  0  0  0  0  0  0  0  0  0  0  0
   19.2747  -17.9866  -21.0356 C   0  0  0  0  0  0  0  0  0  0  0  0
   19.1159  -18.5512  -22.3480 N   0  0  0  0  0  0  0  0  0  0  0  0
   24.0657  -16.9110  -17.2645 C   0  0  0  0  0  0  0  0  0  0  0  0
   24.5960  -18.0485  -17.5134 O   0  0  0  0  0  0  0  0  0  0  0  0
   26.8470  -15.1785  -15.5107 C   0  0  0  0  0  0  0  0  0  0  0  0
   26.1897  -16.4440  -16.0163 C   0  0  2  0  0  0  0  0  0  0  0  0
   24.8351  -16.0607  -16.4437 N   0  0  0  0  0  0  0  0  0  0  0  0
   26.0385  -17.4665  -14.9315 C   0  0  0  0  0  0  0  0  0  0  0  0
   24.9280  -17.6228  -14.3468 O   0  0  0  0  0  0  0  0  0  0  0  0
   23.8268  -21.5483   -9.3831 N   0  0  0  0  0  0  0  0  0  0  0  0
   23.2173  -20.3638   -9.9300 C   0  0  0  0  0  0  0  0  0  0  0  0
   22.1729  -19.8577   -9.3255 N   0  0  0  0  0  0  0  0  0  0  0  0
   23.7673  -19.7921  -11.0967 N   0  0  0  0  0  0  0  0  0  0  0  0
   23.4675  -20.4817  -12.3785 C   0  0  0  0  0  0  0  0  0  0  0  0
   24.7801  -20.7732  -12.9905 C   0  0  0  0  0  0  0  0  0  0  0  0
   25.4511  -19.6873  -13.6805 C   0  0  0  0  0  0  0  0  0  0  0  0
   26.8778  -19.3719  -13.4689 C   0  0  2  0  0  0  0  0  0  0  0  0
   27.0959  -18.2849  -14.5175 N   0  0  0  0  0  0  0  0  0  0  0  0
   27.8369  -20.4184  -13.7084 C   0  0  0  0  0  0  0  0  0  0  0  0
   28.2613  -20.5462  -14.9243 O   0  0  0  0  0  0  0  0  0  0  0  0
   28.3930  -21.3167  -12.8157 O   0  0  0  0  0  0  0  0  0  0  0  0
  2  8  1  0
  2  1  1  6
  3  2  1  0
  4  3  1  0
  5  4  1  0
  6  5  1  0
  7  6  1  0
  8  9  2  0
 11 10  1  1
 12 11  1  0
 12  8  1  0
 13 14  2  0
 13 11  1  0
 15 16  1  0
 16 17  2  0
 18 16  1  0
 18 19  1  0
 19 20  1  0
 20 21  1  0
 22 21  1  6
 22 24  1  0
 22 23  1  0
 23 13  1  0
 24 26  1  0
 25 24  2  0
M  END
$$$$
