KAR.pdb
     RDKit          3D

 26 25  0  0  1  0  0  0  0  0999 V2000
   27.1602  -11.3823  -16.4585 N   0  0  0  0  0  0  0  0  0  0  0  0
   26.4175  -10.5796  -17.3668 C   0  0  1  0  0  0  0  0  0  0  0  0
   25.7077  -11.3052  -18.4512 C   0  0  0  0  0  0  0  0  0  0  0  0
   26.4696  -12.2727  -19.2604 C   0  0  0  0  0  0  0  0  0  0  0  0
   25.7879  -12.9600  -20.3790 C   0  0  0  0  0  0  0  0  0  0  0  0
   26.5985  -13.9456  -21.1518 C   0  0  0  0  0  0  0  0  0  0  0  0
   25.9080  -14.6165  -22.2193 N   0  0  0  0  0  0  0  0  0  0  0  0
   25.4847   -9.6097  -16.7364 C   0  0  0  0  0  0  0  0  0  0  0  0
   24.6872   -9.9820  -15.8076 O   0  0  0  0  0  0  0  0  0  0  0  0
   24.8390   -5.9515  -16.7482 C   0  0  0  0  0  0  0  0  0  0  0  0
   24.3911   -7.3693  -16.4684 C   0  0  2  0  0  0  0  0  0  0  0  0
   25.3949   -8.2473  -17.0894 N   0  0  0  0  0  0  0  0  0  0  0  0
   23.0744   -7.6767  -17.1141 C   0  0  0  0  0  0  0  0  0  0  0  0
   23.0225   -8.0434  -18.3234 O   0  0  0  0  0  0  0  0  0  0  0  0
   16.2096  -11.4602  -13.7401 N   0  0  0  0  0  0  0  0  0  0  0  0
   15.7041  -11.1011  -15.0397 C   0  0  0  0  0  0  0  0  0  0  0  0
   14.5259  -11.5420  -15.4001 N   0  0  0  0  0  0  0  0  0  0  0  0
   16.4964  -10.2877  -15.8771 N   0  0  0  0  0  0  0  0  0  0  0  0
   17.9083  -10.0833  -15.4610 C   0  0  0  0  0  0  0  0  0  0  0  0
   18.4950   -9.1807  -16.4727 C   0  0  0  0  0  0  0  0  0  0  0  0
   19.8630   -8.7441  -16.2649 C   0  0  0  0  0  0  0  0  0  0  0  0
   20.5322   -7.7745  -17.1548 C   0  0  2  0  0  0  0  0  0  0  0  0
   21.8589   -7.5765  -16.4272 N   0  0  0  0  0  0  0  0  0  0  0  0
   19.9186   -6.4826  -17.3183 C   0  0  0  0  0  0  0  0  0  0  0  0
   20.4337   -5.5081  -16.6402 O   0  0  0  0  0  0  0  0  0  0  0  0
   18.8492   -6.1164  -18.1155 O   0  0  0  0  0  0  0  0  0  0  0  0
  2  8  1  0
  2  1  1  1
  3  2  1  0
  4  3  1  0
  5  4  1  0
  6  5  1  0
  7  6  1  0
  8  9  2  0
 11 10  1  6
 12 11  1  0
 12  8  1  0
 13 14  2  0
 13 11  1  0
 15 16  1  0
 16 17  2  0
 18 16  1  0
 18 19  1  0
 19 20  1  0
 20 21  1  0
 22 21  1  1
 22 24  1  0
 22 23  1  0
 23 13  1  0
 24 26  1  0
 25 24  2  0
M  END
$$$$
