KAR.pdb
     RDKit          3D

 26 25  0  0  1  0  0  0  0  0999 V2000
   19.4909  -18.9784   10.8709 N   0  0  0  0  0  0  0  0  0  0  0  0
   19.4533  -20.3372   10.4548 C   0  0  1  0  0  0  0  0  0  0  0  0
   18.2793  -21.1272   10.9063 C   0  0  0  0  0  0  0  0  0  0  0  0
   18.2042  -21.5194   12.3247 C   0  0  0  0  0  0  0  0  0  0  0  0
   18.5914  -22.8954   12.7055 C   0  0  0  0  0  0  0  0  0  0  0  0
   18.3917  -23.2752   14.1343 C   0  0  0  0  0  0  0  0  0  0  0  0
   18.7386  -24.6289   14.4716 N   0  0  0  0  0  0  0  0  0  0  0  0
   19.6606  -20.5588    9.0000 C   0  0  0  0  0  0  0  0  0  0  0  0
   19.0391  -19.8469    8.1374 O   0  0  0  0  0  0  0  0  0  0  0  0
   21.8409  -22.6402    6.8041 C   0  0  0  0  0  0  0  0  0  0  0  0
   20.7077  -21.6578    7.0042 C   0  0  2  0  0  0  0  0  0  0  0  0
   20.5238  -21.5337    8.4586 N   0  0  0  0  0  0  0  0  0  0  0  0
   19.4185  -22.1693    6.4374 C   0  0  0  0  0  0  0  0  0  0  0  0
   18.6454  -22.8812    7.1410 O   0  0  0  0  0  0  0  0  0  0  0  0
   13.8207  -17.7820    1.8878 N   0  0  0  0  0  0  0  0  0  0  0  0
   13.2676  -19.1018    1.7272 C   0  0  0  0  0  0  0  0  0  0  0  0
   12.1263  -19.2333    1.1005 N   0  0  0  0  0  0  0  0  0  0  0  0
   13.9749  -20.2045    2.2507 N   0  0  0  0  0  0  0  0  0  0  0  0
   15.3148  -19.9204    2.8272 C   0  0  0  0  0  0  0  0  0  0  0  0
   15.7934  -21.2061    3.3753 C   0  0  0  0  0  0  0  0  0  0  0  0
   17.1226  -21.2308    3.9567 C   0  0  0  0  0  0  0  0  0  0  0  0
   17.6923  -22.4380    4.5875 C   0  0  2  0  0  0  0  0  0  0  0  0
   19.0109  -21.8917    5.1274 N   0  0  0  0  0  0  0  0  0  0  0  0
   17.9919  -23.5595    3.7362 C   0  0  0  0  0  0  0  0  0  0  0  0
   19.2013  -23.6330    3.2813 O   0  0  0  0  0  0  0  0  0  0  0  0
   17.1701  -24.5966    3.3335 O   0  0  0  0  0  0  0  0  0  0  0  0
  2  8  1  0
  2  1  1  6
  3  2  1  0
  4  3  1  0
  5  4  1  0
  6  5  1  0
  7  6  1  0
  8  9  2  0
 11 10  1  1
 12 11  1  0
 12  8  1  0
 13 14  2  0
 13 11  1  0
 15 16  1  0
 16 17  2  0
 18 16  1  0
 18 19  1  0
 19 20  1  0
 20 21  1  0
 22 21  1  6
 22 24  1  0
 22 23  1  0
 23 13  1  0
 24 26  1  0
 25 24  2  0
M  END
$$$$
