KAR.pdb
     RDKit          3D

 26 25  0  0  1  0  0  0  0  0999 V2000
   21.6296  -20.7932  -17.4885 N   0  0  0  0  0  0  0  0  0  0  0  0
   21.8660  -21.0389  -16.1084 C   0  0  1  0  0  0  0  0  0  0  0  0
   23.2251  -20.7082  -15.6087 C   0  0  0  0  0  0  0  0  0  0  0  0
   24.3481  -20.7427  -16.5621 C   0  0  0  0  0  0  0  0  0  0  0  0
   24.2976  -19.8698  -17.7553 C   0  0  0  0  0  0  0  0  0  0  0  0
   25.4551  -19.9511  -18.6929 C   0  0  0  0  0  0  0  0  0  0  0  0
   25.3563  -19.1373  -19.8738 N   0  0  0  0  0  0  0  0  0  0  0  0
   20.8532  -20.4688  -15.1824 C   0  0  0  0  0  0  0  0  0  0  0  0
   21.0286  -20.5160  -13.9158 O   0  0  0  0  0  0  0  0  0  0  0  0
   18.0488  -18.1107  -15.2981 C   0  0  0  0  0  0  0  0  0  0  0  0
   18.7183  -19.2826  -14.6143 C   0  0  2  0  0  0  0  0  0  0  0  0
   19.6551  -19.8507  -15.5962 N   0  0  0  0  0  0  0  0  0  0  0  0
   17.7373  -20.3598  -14.2644 C   0  0  0  0  0  0  0  0  0  0  0  0
   17.5732  -21.3524  -15.0307 O   0  0  0  0  0  0  0  0  0  0  0  0
   18.2042  -24.9244   -7.7295 N   0  0  0  0  0  0  0  0  0  0  0  0
   18.3939  -25.3673   -9.0864 C   0  0  0  0  0  0  0  0  0  0  0  0
   19.2413  -26.3372   -9.3187 N   0  0  0  0  0  0  0  0  0  0  0  0
   17.6604  -24.7406  -10.1158 N   0  0  0  0  0  0  0  0  0  0  0  0
   16.7044  -23.6818   -9.6995 C   0  0  0  0  0  0  0  0  0  0  0  0
   16.0490  -23.2258  -10.9424 C   0  0  0  0  0  0  0  0  0  0  0  0
   16.5900  -22.0442  -11.5878 C   0  0  0  0  0  0  0  0  0  0  0  0
   15.9712  -21.4373  -12.7831 C   0  0  2  0  0  0  0  0  0  0  0  0
   16.9677  -20.3246  -13.0957 N   0  0  0  0  0  0  0  0  0  0  0  0
   14.6707  -20.8389  -12.6322 C   0  0  0  0  0  0  0  0  0  0  0  0
   14.6232  -19.5457  -12.6564 O   0  0  0  0  0  0  0  0  0  0  0  0
   13.4395  -21.4492  -12.4749 O   0  0  0  0  0  0  0  0  0  0  0  0
  2  8  1  0
  2  1  1  6
  3  2  1  0
  4  3  1  0
  5  4  1  0
  6  5  1  0
  7  6  1  0
  8  9  2  0
 11 10  1  6
 12 11  1  0
 12  8  1  0
 13 14  2  0
 13 11  1  0
 15 16  1  0
 16 17  2  0
 18 16  1  0
 18 19  1  0
 19 20  1  0
 20 21  1  0
 22 21  1  1
 22 24  1  0
 22 23  1  0
 23 13  1  0
 24 26  1  0
 25 24  2  0
M  END
$$$$
