KAR.pdb
     RDKit          3D

 26 25  0  0  1  0  0  0  0  0999 V2000
   22.2027  -15.6069  -19.0487 N   0  0  0  0  0  0  0  0  0  0  0  0
   23.3706  -16.3613  -18.7523 C   0  0  1  0  0  0  0  0  0  0  0  0
   24.5482  -15.5865  -18.2842 C   0  0  0  0  0  0  0  0  0  0  0  0
   24.8196  -14.2804  -18.9100 C   0  0  0  0  0  0  0  0  0  0  0  0
   25.8557  -14.1955  -19.9625 C   0  0  0  0  0  0  0  0  0  0  0  0
   26.0738  -12.8549  -20.5797 C   0  0  0  0  0  0  0  0  0  0  0  0
   27.0555  -12.8063  -21.6286 N   0  0  0  0  0  0  0  0  0  0  0  0
   23.1605  -17.5232  -17.8500 C   0  0  0  0  0  0  0  0  0  0  0  0
   22.5681  -17.3763  -16.7254 O   0  0  0  0  0  0  0  0  0  0  0  0
   23.0721  -21.1697  -18.0391 C   0  0  0  0  0  0  0  0  0  0  0  0
   23.3171  -19.9385  -17.1945 C   0  0  2  0  0  0  0  0  0  0  0  0
   23.5782  -18.8393  -18.1368 N   0  0  0  0  0  0  0  0  0  0  0  0
   24.5362  -20.0839  -16.3357 C   0  0  0  0  0  0  0  0  0  0  0  0
   25.6763  -19.7634  -16.7796 O   0  0  0  0  0  0  0  0  0  0  0  0
   23.6439  -20.2369   -9.7810 N   0  0  0  0  0  0  0  0  0  0  0  0
   24.7059  -20.7358   -8.9463 C   0  0  0  0  0  0  0  0  0  0  0  0
   24.4036  -21.2344   -7.7747 N   0  0  0  0  0  0  0  0  0  0  0  0
   26.0329  -20.6692   -9.4208 N   0  0  0  0  0  0  0  0  0  0  0  0
   26.2197  -20.1420  -10.7976 C   0  0  0  0  0  0  0  0  0  0  0  0
   26.0002  -21.2925  -11.6979 C   0  0  0  0  0  0  0  0  0  0  0  0
   25.1769  -21.0738  -12.8725 C   0  0  0  0  0  0  0  0  0  0  0  0
   25.7448  -20.7028  -14.1838 C   0  0  2  0  0  0  0  0  0  0  0  0
   24.4782  -20.5714  -15.0248 N   0  0  0  0  0  0  0  0  0  0  0  0
   26.6105  -21.6537  -14.8309 C   0  0  0  0  0  0  0  0  0  0  0  0
   26.0513  -22.7291  -15.2845 O   0  0  0  0  0  0  0  0  0  0  0  0
   27.9734  -21.5842  -15.0563 O   0  0  0  0  0  0  0  0  0  0  0  0
  2  8  1  0
  2  1  1  1
  3  2  1  0
  4  3  1  0
  5  4  1  0
  6  5  1  0
  7  6  1  0
  8  9  2  0
 11 10  1  6
 12 11  1  0
 12  8  1  0
 13 14  2  0
 13 11  1  0
 15 16  1  0
 16 17  2  0
 18 16  1  0
 18 19  1  0
 19 20  1  0
 20 21  1  0
 22 21  1  1
 22 24  1  0
 22 23  1  0
 23 13  1  0
 24 26  1  0
 25 24  2  0
M  END
$$$$
