NEA.pdb
     RDKit          3D

 23 22  0  0  1  0  0  0  0  0999 V2000
    8.3871  -13.2870   15.9107 N   0  0  0  0  0  0  0  0  0  0  0  0
    7.3440  -14.2122   16.1921 C   0  0  0  0  0  0  0  0  0  0  0  0
    6.5097  -14.5229   15.3134 O   0  0  0  0  0  0  0  0  0  0  0  0
    7.2760  -14.7945   17.5547 C   0  0  0  0  0  0  0  0  0  0  0  0
    8.3921  -14.2493   18.3894 C   0  0  2  0  0  0  0  0  0  0  0  0
    9.6838  -14.3916   17.8052 N   0  0  0  0  0  0  0  0  0  0  0  0
    8.3139  -14.8698   19.7536 C   0  0  0  0  0  0  0  0  0  0  0  0
    7.2539  -14.7797   20.4557 O   0  0  0  0  0  0  0  0  0  0  0  0
    9.4416  -15.5673   20.2660 N   0  0  0  0  0  0  0  0  0  0  0  0
    9.4430  -16.2247   21.5445 C   0  0  1  0  0  0  0  0  0  0  0  0
   10.4713  -17.3321   21.6334 C   0  0  0  0  0  0  0  0  0  0  0  0
   10.3420  -18.0012   22.9791 C   0  0  0  0  0  0  0  0  0  0  0  0
   11.2971  -19.1047   23.1515 C   0  0  0  0  0  0  0  0  0  0  0  0
   12.1352  -19.2866   22.2198 O   0  0  0  0  0  0  0  0  0  0  0  0
    9.5321  -15.2735   22.6768 C   0  0  0  0  0  0  0  0  0  0  0  0
   10.6004  -14.6441   22.8496 O   0  0  0  0  0  0  0  0  0  0  0  0
   11.3391  -19.9471   24.2533 O   0  0  0  0  0  0  0  0  0  0  0  0
    7.1429  -13.4468   24.8577 C   0  0  0  0  0  0  0  0  0  0  0  0
    8.4461  -14.1422   24.6500 C   0  0  2  0  0  0  0  0  0  0  0  0
    8.4555  -15.0703   23.5444 N   0  0  0  0  0  0  0  0  0  0  0  0
    8.7406  -14.9312   25.8907 C   0  0  0  0  0  0  0  0  0  0  0  0
    8.8742  -14.3679   27.0102 O   0  0  0  0  0  0  0  0  0  0  0  0
    8.8806  -16.3185   25.8706 O   0  0  0  0  0  0  0  0  0  0  0  0
  2  1  1  0
  2  3  2  0
  4  2  1  0
  5  4  1  0
  5  6  1  6
  7  9  1  0
  7  5  1  0
  8  7  2  0
 10 15  1  0
 10  9  1  0
 10 11  1  6
 12 11  1  0
 13 12  1  0
 13 14  2  0
 15 16  2  0
 17 13  1  0
 19 18  1  1
 20 19  1  0
 20 15  1  0
 21 23  1  0
 21 19  1  0
 22 21  2  0
M  END
$$$$
