NEA.pdb
     RDKit          3D

 23 22  0  0  1  0  0  0  0  0999 V2000
    7.3570  -12.1166   18.3459 N   0  0  0  0  0  0  0  0  0  0  0  0
    7.5599  -13.5244   18.3384 C   0  0  0  0  0  0  0  0  0  0  0  0
    7.7803  -14.1337   17.2685 O   0  0  0  0  0  0  0  0  0  0  0  0
    7.5019  -14.2450   19.6337 C   0  0  0  0  0  0  0  0  0  0  0  0
    8.8122  -14.1072   20.3434 C   0  0  2  0  0  0  0  0  0  0  0  0
    9.9436  -14.4811   19.5622 N   0  0  0  0  0  0  0  0  0  0  0  0
    8.7369  -14.8679   21.6349 C   0  0  0  0  0  0  0  0  0  0  0  0
    7.7359  -14.7413   22.4137 O   0  0  0  0  0  0  0  0  0  0  0  0
    9.8006  -15.7414   21.9904 N   0  0  0  0  0  0  0  0  0  0  0  0
    9.8679  -16.4212   23.2554 C   0  0  1  0  0  0  0  0  0  0  0  0
   10.7727  -17.6344   23.2218 C   0  0  0  0  0  0  0  0  0  0  0  0
   10.2789  -18.5728   22.1490 C   0  0  0  0  0  0  0  0  0  0  0  0
   11.1355  -19.7578   22.0019 C   0  0  0  0  0  0  0  0  0  0  0  0
   10.9300  -20.7154   22.8047 O   0  0  0  0  0  0  0  0  0  0  0  0
   10.1817  -15.5086   24.3794 C   0  0  0  0  0  0  0  0  0  0  0  0
   11.2796  -14.9070   24.3758 O   0  0  0  0  0  0  0  0  0  0  0  0
   12.1397  -19.8929   21.0539 O   0  0  0  0  0  0  0  0  0  0  0  0
    8.2515  -13.6087   26.8876 C   0  0  0  0  0  0  0  0  0  0  0  0
    9.4722  -14.3833   26.5203 C   0  0  2  0  0  0  0  0  0  0  0  0
    9.2824  -15.3111   25.4308 N   0  0  0  0  0  0  0  0  0  0  0  0
    9.8754  -15.1879   27.7196 C   0  0  0  0  0  0  0  0  0  0  0  0
    9.8764  -16.4480   27.6942 O   0  0  0  0  0  0  0  0  0  0  0  0
   10.2676  -14.5886   28.9161 O   0  0  0  0  0  0  0  0  0  0  0  0
  2  1  1  0
  2  3  2  0
  4  2  1  0
  5  4  1  0
  5  6  1  6
  7  9  1  0
  7  5  1  0
  8  7  2  0
 10 15  1  0
 10  9  1  0
 10 11  1  6
 12 11  1  0
 13 12  1  0
 13 14  2  0
 15 16  2  0
 17 13  1  0
 19 18  1  1
 20 19  1  0
 20 15  1  0
 21 23  1  0
 21 19  1  0
 22 21  2  0
M  END
$$$$
