NEA.pdb
     RDKit          3D

 23 22  0  0  1  0  0  0  0  0999 V2000
   12.9516  -19.0897   14.8837 N   0  0  0  0  0  0  0  0  0  0  0  0
   13.6506  -18.2877   15.8277 C   0  0  0  0  0  0  0  0  0  0  0  0
   14.8128  -17.8890   15.5928 O   0  0  0  0  0  0  0  0  0  0  0  0
   12.9618  -17.9403   17.0947 C   0  0  0  0  0  0  0  0  0  0  0  0
   11.6896  -18.7208   17.2041 C   0  0  2  0  0  0  0  0  0  0  0  0
   10.7514  -18.4603   16.1641 N   0  0  0  0  0  0  0  0  0  0  0  0
   11.1054  -18.4910   18.5673 C   0  0  0  0  0  0  0  0  0  0  0  0
   10.2528  -17.5651   18.7682 O   0  0  0  0  0  0  0  0  0  0  0  0
   11.5123  -19.3211   19.6472 N   0  0  0  0  0  0  0  0  0  0  0  0
   10.8985  -19.2752   20.9463 C   0  0  1  0  0  0  0  0  0  0  0  0
   11.1688  -20.5184   21.7669 C   0  0  0  0  0  0  0  0  0  0  0  0
   10.2579  -20.5082   22.9692 C   0  0  0  0  0  0  0  0  0  0  0  0
   10.4668  -21.6722   23.8416 C   0  0  0  0  0  0  0  0  0  0  0  0
   10.9503  -21.4468   24.9900 O   0  0  0  0  0  0  0  0  0  0  0  0
   11.2108  -18.0284   21.6830 C   0  0  0  0  0  0  0  0  0  0  0  0
   12.4030  -17.6517   21.7475 O   0  0  0  0  0  0  0  0  0  0  0  0
   10.1722  -22.9826   23.4930 O   0  0  0  0  0  0  0  0  0  0  0  0
    9.1370  -15.2536   23.2208 C   0  0  0  0  0  0  0  0  0  0  0  0
   10.4011  -15.9839   22.9148 C   0  0  2  0  0  0  0  0  0  0  0  0
   10.2079  -17.2755   22.2997 N   0  0  0  0  0  0  0  0  0  0  0  0
   11.1151  -16.2160   24.2128 C   0  0  0  0  0  0  0  0  0  0  0  0
   11.5712  -15.2569   24.8914 O   0  0  0  0  0  0  0  0  0  0  0  0
   11.3098  -17.4952   24.7328 O   0  0  0  0  0  0  0  0  0  0  0  0
  2  1  1  0
  2  3  2  0
  4  2  1  0
  5  4  1  0
  5  6  1  6
  7  9  1  0
  7  5  1  0
  8  7  2  0
 10 15  1  0
 10  9  1  0
 10 11  1  1
 12 11  1  0
 13 12  1  0
 13 14  2  0
 15 16  2  0
 17 13  1  0
 19 18  1  1
 20 19  1  0
 20 15  1  0
 21 23  1  0
 21 19  1  0
 22 21  2  0
M  END
$$$$
