NEA.pdb
     RDKit          3D

 23 22  0  0  1  0  0  0  0  0999 V2000
   12.6289  -13.5125   19.5576 N   0  0  0  0  0  0  0  0  0  0  0  0
   11.6054  -14.4958   19.4637 C   0  0  0  0  0  0  0  0  0  0  0  0
   11.3714  -15.0746   18.3798 O   0  0  0  0  0  0  0  0  0  0  0  0
   10.8267  -14.8120   20.6860 C   0  0  0  0  0  0  0  0  0  0  0  0
   11.5419  -15.8605   21.4789 C   0  0  2  0  0  0  0  0  0  0  0  0
   11.7131  -17.0979   20.7937 N   0  0  0  0  0  0  0  0  0  0  0  0
   10.8341  -16.0308   22.7913 C   0  0  0  0  0  0  0  0  0  0  0  0
    9.8432  -15.2923   23.1032 O   0  0  0  0  0  0  0  0  0  0  0  0
   11.2796  -17.0322   23.6967 N   0  0  0  0  0  0  0  0  0  0  0  0
   10.6703  -17.2571   24.9793 C   0  0  1  0  0  0  0  0  0  0  0  0
   10.9517  -18.6398   25.5278 C   0  0  0  0  0  0  0  0  0  0  0  0
   10.3268  -18.7504   26.8962 C   0  0  0  0  0  0  0  0  0  0  0  0
   10.5822  -20.0532   27.5264 C   0  0  0  0  0  0  0  0  0  0  0  0
   10.1533  -20.2114   28.7072 O   0  0  0  0  0  0  0  0  0  0  0  0
   10.9774  -16.1850   25.9545 C   0  0  0  0  0  0  0  0  0  0  0  0
   12.1759  -15.9449   26.2254 O   0  0  0  0  0  0  0  0  0  0  0  0
   11.2528  -21.1054   26.9192 O   0  0  0  0  0  0  0  0  0  0  0  0
    9.1613  -13.3589   27.6099 C   0  0  0  0  0  0  0  0  0  0  0  0
   10.1658  -14.4615   27.6049 C   0  0  2  0  0  0  0  0  0  0  0  0
    9.9627  -15.4465   26.5694 N   0  0  0  0  0  0  0  0  0  0  0  0
   10.0606  -15.1754   28.9193 C   0  0  0  0  0  0  0  0  0  0  0  0
   10.3278  -14.5938   30.0051 O   0  0  0  0  0  0  0  0  0  0  0  0
    9.6645  -16.5094   29.0083 O   0  0  0  0  0  0  0  0  0  0  0  0
  2  1  1  0
  2  3  2  0
  4  2  1  0
  5  4  1  0
  5  6  1  6
  7  9  1  0
  7  5  1  0
  8  7  2  0
 10 15  1  0
 10  9  1  0
 10 11  1  1
 12 11  1  0
 13 12  1  0
 13 14  2  0
 15 16  2  0
 17 13  1  0
 19 18  1  1
 20 19  1  0
 20 15  1  0
 21 23  1  0
 21 19  1  0
 22 21  2  0
M  END
$$$$
