NEA.pdb
     RDKit          3D

 23 22  0  0  1  0  0  0  0  0999 V2000
    7.1669  -18.7988   17.1474 N   0  0  0  0  0  0  0  0  0  0  0  0
    7.2722  -17.5725   17.8604 C   0  0  0  0  0  0  0  0  0  0  0  0
    7.8019  -16.5693   17.3335 O   0  0  0  0  0  0  0  0  0  0  0  0
    6.7370  -17.5205   19.2429 C   0  0  0  0  0  0  0  0  0  0  0  0
    7.5028  -16.5112   20.0394 C   0  0  2  0  0  0  0  0  0  0  0  0
    8.3643  -15.6836   19.2630 N   0  0  0  0  0  0  0  0  0  0  0  0
    8.2378  -17.2269   21.1349 C   0  0  0  0  0  0  0  0  0  0  0  0
    7.6492  -18.0903   21.8647 O   0  0  0  0  0  0  0  0  0  0  0  0
    9.6108  -16.9337   21.3578 N   0  0  0  0  0  0  0  0  0  0  0  0
   10.3731  -17.5151   22.4290 C   0  0  1  0  0  0  0  0  0  0  0  0
   11.8582  -17.5548   22.1378 C   0  0  0  0  0  0  0  0  0  0  0  0
   12.0768  -18.3242   20.8589 C   0  0  0  0  0  0  0  0  0  0  0  0
   13.4957  -18.3978   20.4836 C   0  0  0  0  0  0  0  0  0  0  0  0
   14.2668  -17.5297   20.9889 O   0  0  0  0  0  0  0  0  0  0  0  0
   10.0676  -16.9064   23.7447 C   0  0  0  0  0  0  0  0  0  0  0  0
   10.4378  -15.7305   23.9627 O   0  0  0  0  0  0  0  0  0  0  0  0
   14.0366  -19.3435   19.6243 O   0  0  0  0  0  0  0  0  0  0  0  0
    7.6143  -16.9746   26.3311 C   0  0  0  0  0  0  0  0  0  0  0  0
    9.0729  -17.1121   26.0515 C   0  0  2  0  0  0  0  0  0  0  0  0
    9.3812  -17.6156   24.7341 N   0  0  0  0  0  0  0  0  0  0  0  0
    9.6327  -18.0911   27.0398 C   0  0  0  0  0  0  0  0  0  0  0  0
   10.1080  -19.1981   26.6696 O   0  0  0  0  0  0  0  0  0  0  0  0
    9.6567  -17.8295   28.4093 O   0  0  0  0  0  0  0  0  0  0  0  0
  2  1  1  0
  2  3  2  0
  4  2  1  0
  5  4  1  0
  5  6  1  6
  7  9  1  0
  7  5  1  0
  8  7  2  0
 10 15  1  0
 10  9  1  0
 10 11  1  6
 12 11  1  0
 13 12  1  0
 13 14  2  0
 15 16  2  0
 17 13  1  0
 19 18  1  6
 20 19  1  0
 20 15  1  0
 21 23  1  0
 21 19  1  0
 22 21  2  0
M  END
$$$$
