NEA.pdb
     RDKit          3D

 23 22  0  0  1  0  0  0  0  0999 V2000
    8.5236  -14.0664   18.4118 N   0  0  0  0  0  0  0  0  0  0  0  0
    8.4631  -13.0674   19.4225 C   0  0  0  0  0  0  0  0  0  0  0  0
    8.4604  -11.8530   19.1228 O   0  0  0  0  0  0  0  0  0  0  0  0
    8.4042  -13.5086   20.8375 C   0  0  0  0  0  0  0  0  0  0  0  0
    8.4355  -15.0035   20.8985 C   0  0  2  0  0  0  0  0  0  0  0  0
    7.3389  -15.6393   20.2479 N   0  0  0  0  0  0  0  0  0  0  0  0
    8.5629  -15.4193   22.3349 C   0  0  0  0  0  0  0  0  0  0  0  0
    7.5734  -15.3315   23.1336 O   0  0  0  0  0  0  0  0  0  0  0  0
    9.8078  -15.9177   22.8068 N   0  0  0  0  0  0  0  0  0  0  0  0
    9.9862  -16.4603   24.1260 C   0  0  1  0  0  0  0  0  0  0  0  0
   10.9934  -17.5898   24.1644 C   0  0  0  0  0  0  0  0  0  0  0  0
   11.0082  -18.1737   25.5551 C   0  0  0  0  0  0  0  0  0  0  0  0
   11.9947  -19.2532   25.7002 C   0  0  0  0  0  0  0  0  0  0  0  0
   12.0348  -20.1193   24.7774 O   0  0  0  0  0  0  0  0  0  0  0  0
   10.2625  -15.4172   25.1411 C   0  0  0  0  0  0  0  0  0  0  0  0
   11.3346  -14.7750   25.0658 O   0  0  0  0  0  0  0  0  0  0  0  0
   12.8721  -19.3821   26.7674 O   0  0  0  0  0  0  0  0  0  0  0  0
    8.2607  -13.3839   27.5074 C   0  0  0  0  0  0  0  0  0  0  0  0
    9.5187  -14.1070   27.1618 C   0  0  2  0  0  0  0  0  0  0  0  0
    9.3563  -15.1421   26.1689 N   0  0  0  0  0  0  0  0  0  0  0  0
   10.0179  -14.7689   28.4113 C   0  0  0  0  0  0  0  0  0  0  0  0
   10.0806  -16.0239   28.5088 O   0  0  0  0  0  0  0  0  0  0  0  0
   10.4358  -14.0361   29.5216 O   0  0  0  0  0  0  0  0  0  0  0  0
  2  1  1  0
  2  3  2  0
  4  2  1  0
  5  4  1  0
  5  6  1  1
  7  9  1  0
  7  5  1  0
  8  7  2  0
 10 15  1  0
 10  9  1  0
 10 11  1  6
 12 11  1  0
 13 12  1  0
 13 14  2  0
 15 16  2  0
 17 13  1  0
 19 18  1  1
 20 19  1  0
 20 15  1  0
 21 23  1  0
 21 19  1  0
 22 21  2  0
M  END
$$$$
