NEA.pdb
     RDKit          3D

 23 22  0  0  1  0  0  0  0  0999 V2000
    7.4943  -11.9825   18.6915 N   0  0  0  0  0  0  0  0  0  0  0  0
    8.0680  -13.2007   19.1497 C   0  0  0  0  0  0  0  0  0  0  0  0
    8.7196  -13.9333   18.3730 O   0  0  0  0  0  0  0  0  0  0  0  0
    7.8700  -13.5744   20.5715 C   0  0  0  0  0  0  0  0  0  0  0  0
    7.9330  -15.0630   20.7122 C   0  0  2  0  0  0  0  0  0  0  0  0
    6.9044  -15.7612   20.0163 N   0  0  0  0  0  0  0  0  0  0  0  0
    7.9620  -15.4026   22.1738 C   0  0  0  0  0  0  0  0  0  0  0  0
    6.9331  -15.2342   22.9071 O   0  0  0  0  0  0  0  0  0  0  0  0
    9.1572  -15.9195   22.7440 N   0  0  0  0  0  0  0  0  0  0  0  0
    9.2492  -16.3565   24.1105 C   0  0  1  0  0  0  0  0  0  0  0  0
   10.2069  -17.5146   24.2926 C   0  0  0  0  0  0  0  0  0  0  0  0
   10.1947  -17.9248   25.7442 C   0  0  0  0  0  0  0  0  0  0  0  0
   11.0906  -19.0579   26.0149 C   0  0  0  0  0  0  0  0  0  0  0  0
   11.8488  -19.4261   25.0699 O   0  0  0  0  0  0  0  0  0  0  0  0
    9.5177  -15.2432   25.0504 C   0  0  0  0  0  0  0  0  0  0  0  0
   10.5649  -14.5730   24.9039 O   0  0  0  0  0  0  0  0  0  0  0  0
   11.1583  -19.7395   27.2216 O   0  0  0  0  0  0  0  0  0  0  0  0
    7.5249  -13.2829   27.5468 C   0  0  0  0  0  0  0  0  0  0  0  0
    8.8017  -13.8522   27.0266 C   0  0  2  0  0  0  0  0  0  0  0  0
    8.6311  -14.9333   26.0854 N   0  0  0  0  0  0  0  0  0  0  0  0
    9.5617  -14.4019   28.1965 C   0  0  0  0  0  0  0  0  0  0  0  0
    9.7885  -15.6365   28.3101 O   0  0  0  0  0  0  0  0  0  0  0  0
   10.0537  -13.5822   29.2117 O   0  0  0  0  0  0  0  0  0  0  0  0
  2  1  1  0
  2  3  2  0
  4  2  1  0
  5  4  1  0
  5  6  1  1
  7  9  1  0
  7  5  1  0
  8  7  2  0
 10 15  1  0
 10  9  1  0
 10 11  1  6
 12 11  1  0
 13 12  1  0
 13 14  2  0
 15 16  2  0
 17 13  1  0
 19 18  1  1
 20 19  1  0
 20 15  1  0
 21 23  1  0
 21 19  1  0
 22 21  2  0
M  END
$$$$
