WCG.pdb
     RDKit          3D

 25 26  0  0  1  0  0  0  0  0999 V2000
    6.4544  -18.2014   23.9856 N   0  0  0  0  0  0  0  0  0  0  0  0
    7.0373  -16.9198   23.7712 C   0  0  1  0  0  0  0  0  0  0  0  0
    7.8818  -16.4234   24.9251 C   0  0  0  0  0  0  0  0  0  0  0  0
    7.1303  -15.4835   25.7690 C   0  0  0  0  0  0  0  0  0  0  0  0
    5.9832  -15.7724   26.4901 C   0  0  0  0  0  0  0  0  0  0  0  0
    5.5648  -14.6654   27.1059 N   0  0  0  0  0  0  0  0  0  0  0  0
    6.4171  -13.6747   26.7968 C   0  0  0  0  0  0  0  0  0  0  0  0
    6.4294  -12.3654   27.1769 C   0  0  0  0  0  0  0  0  0  0  0  0
    7.4251  -11.5308   26.7311 C   0  0  0  0  0  0  0  0  0  0  0  0
    8.4170  -12.0047   25.8997 C   0  0  0  0  0  0  0  0  0  0  0  0
    8.4230  -13.3174   25.5054 C   0  0  0  0  0  0  0  0  0  0  0  0
    7.4180  -14.1526   25.9561 C   0  0  0  0  0  0  0  0  0  0  0  0
    7.8913  -16.8696   22.5511 C   0  0  0  0  0  0  0  0  0  0  0  0
    8.4005  -17.9538   22.1011 O   0  0  0  0  0  0  0  0  0  0  0  0
    8.1936  -15.6915   21.8286 N   0  0  0  0  0  0  0  0  0  0  0  0
    8.8961  -15.7383   20.5451 C   0  0  1  0  0  0  0  0  0  0  0  0
    8.4876  -14.5041   19.7658 C   0  0  0  0  0  0  0  0  0  0  0  0
    6.7218  -14.2681   19.7169 S   0  0  0  0  0  0  0  0  0  0  0  0
   10.3422  -15.8850   20.7338 C   0  0  0  0  0  0  0  0  0  0  0  0
   11.0827  -15.8805   19.6895 O   0  0  0  0  0  0  0  0  0  0  0  0
   11.0173  -16.0313   21.9547 N   0  0  0  0  0  0  0  0  0  0  0  0
   12.4589  -16.1686   22.0661 C   0  0  0  0  0  0  0  0  0  0  0  0
   12.8729  -16.0833   23.5057 C   0  0  0  0  0  0  0  0  0  0  0  0
   14.2197  -16.0085   23.8285 O   0  0  0  0  0  0  0  0  0  0  0  0
   11.9672  -16.0824   24.3805 O   0  0  0  0  0  0  0  0  0  0  0  0
  2  1  1  1
  2 13  1  0
  3  2  1  0
  4  3  1  0
  5  4  2  0
  6  7  1  0
  6  5  1  0
  7 12  2  0
  8  9  2  0
  8  7  1  0
  9 10  1  0
 10 11  2  0
 12  4  1  0
 12 11  1  0
 13 14  2  0
 15 16  1  0
 15 13  1  0
 16 17  1  1
 17 18  1  0
 19 16  1  0
 19 20  2  0
 21 19  1  0
 22 21  1  0
 23 22  1  0
 24 23  1  0
 25 23  2  0
M  END
$$$$
