WCG.pdb
     RDKit          3D

 25 26  0  0  1  0  0  0  0  0999 V2000
    8.6657  -17.5541   23.7146 N   0  0  0  0  0  0  0  0  0  0  0  0
    9.7045  -16.6943   23.2562 C   0  0  1  0  0  0  0  0  0  0  0  0
    9.3781  -15.2200   23.3595 C   0  0  0  0  0  0  0  0  0  0  0  0
    8.3170  -14.8423   22.4153 C   0  0  0  0  0  0  0  0  0  0  0  0
    6.9690  -15.1353   22.5430 C   0  0  0  0  0  0  0  0  0  0  0  0
    6.3173  -14.6637   21.4788 N   0  0  0  0  0  0  0  0  0  0  0  0
    7.2159  -14.0751   20.6729 C   0  0  0  0  0  0  0  0  0  0  0  0
    7.0527  -13.4431   19.4758 C   0  0  0  0  0  0  0  0  0  0  0  0
    8.1389  -12.9029   18.8314 C   0  0  0  0  0  0  0  0  0  0  0  0
    9.3982  -12.9929   19.3845 C   0  0  0  0  0  0  0  0  0  0  0  0
    9.5841  -13.6242   20.5867 C   0  0  0  0  0  0  0  0  0  0  0  0
    8.4878  -14.1671   21.2303 C   0  0  0  0  0  0  0  0  0  0  0  0
   10.9920  -16.9086   23.9752 C   0  0  0  0  0  0  0  0  0  0  0  0
   11.0683  -16.6160   25.2186 O   0  0  0  0  0  0  0  0  0  0  0  0
   12.1687  -17.4233   23.3822 N   0  0  0  0  0  0  0  0  0  0  0  0
   13.4164  -17.5483   24.1376 C   0  0  1  0  0  0  0  0  0  0  0  0
   13.3992  -18.9073   24.8087 C   0  0  0  0  0  0  0  0  0  0  0  0
   12.0187  -19.9136   24.3010 S   0  0  0  0  0  0  0  0  0  0  0  0
   14.5832  -17.3087   23.2834 C   0  0  0  0  0  0  0  0  0  0  0  0
   14.6570  -17.9550   22.1808 O   0  0  0  0  0  0  0  0  0  0  0  0
   15.6471  -16.4325   23.5446 N   0  0  0  0  0  0  0  0  0  0  0  0
   17.0319  -16.8569   23.6510 C   0  0  0  0  0  0  0  0  0  0  0  0
   17.9173  -15.6672   23.8789 C   0  0  0  0  0  0  0  0  0  0  0  0
   18.4405  -15.4339   25.1420 O   0  0  0  0  0  0  0  0  0  0  0  0
   18.1560  -14.9137   22.8987 O   0  0  0  0  0  0  0  0  0  0  0  0
  2  1  1  1
  2 13  1  0
  3  2  1  0
  4  3  1  0
  5  4  2  0
  6  7  1  0
  6  5  1  0
  7 12  2  0
  8  9  2  0
  8  7  1  0
  9 10  1  0
 10 11  2  0
 12  4  1  0
 12 11  1  0
 13 14  2  0
 15 16  1  0
 15 13  1  0
 16 17  1  6
 17 18  1  0
 19 16  1  0
 19 20  2  0
 21 19  1  0
 22 21  1  0
 23 22  1  0
 24 23  1  0
 25 23  2  0
M  END
$$$$
