WCG.pdb
     RDKit          3D

 25 26  0  0  1  0  0  0  0  0999 V2000
    6.9312  -18.1597   24.5789 N   0  0  0  0  0  0  0  0  0  0  0  0
    7.2866  -16.8457   24.1602 C   0  0  1  0  0  0  0  0  0  0  0  0
    8.0780  -16.0625   25.1856 C   0  0  0  0  0  0  0  0  0  0  0  0
    7.2158  -15.1286   25.9235 C   0  0  0  0  0  0  0  0  0  0  0  0
    6.0961  -15.4656   26.6666 C   0  0  0  0  0  0  0  0  0  0  0  0
    5.5501  -14.3535   27.1615 N   0  0  0  0  0  0  0  0  0  0  0  0
    6.2940  -13.3125   26.7535 C   0  0  0  0  0  0  0  0  0  0  0  0
    6.1575  -11.9774   26.9943 C   0  0  0  0  0  0  0  0  0  0  0  0
    7.0630  -11.0891   26.4672 C   0  0  0  0  0  0  0  0  0  0  0  0
    8.1132  -11.5347   25.6938 C   0  0  0  0  0  0  0  0  0  0  0  0
    8.2684  -12.8724   25.4393 C   0  0  0  0  0  0  0  0  0  0  0  0
    7.3537  -13.7619   25.9712 C   0  0  0  0  0  0  0  0  0  0  0  0
    8.0768  -16.8351   22.8968 C   0  0  0  0  0  0  0  0  0  0  0  0
    8.6301  -17.9178   22.4981 O   0  0  0  0  0  0  0  0  0  0  0  0
    8.2710  -15.6974   22.0788 N   0  0  0  0  0  0  0  0  0  0  0  0
    8.9478  -15.7905   20.7841 C   0  0  1  0  0  0  0  0  0  0  0  0
    8.3886  -14.6886   19.9063 C   0  0  0  0  0  0  0  0  0  0  0  0
    6.6151  -14.7617   19.7474 S   0  0  0  0  0  0  0  0  0  0  0  0
   10.4049  -15.7602   20.9408 C   0  0  0  0  0  0  0  0  0  0  0  0
   11.1185  -15.7652   19.8780 O   0  0  0  0  0  0  0  0  0  0  0  0
   11.1171  -15.7243   22.1488 N   0  0  0  0  0  0  0  0  0  0  0  0
   12.5658  -15.6576   22.2274 C   0  0  0  0  0  0  0  0  0  0  0  0
   13.1305  -17.0268   22.4675 C   0  0  0  0  0  0  0  0  0  0  0  0
   14.4180  -17.1598   22.9656 O   0  0  0  0  0  0  0  0  0  0  0  0
   12.4020  -18.0195   22.2036 O   0  0  0  0  0  0  0  0  0  0  0  0
  2  1  1  1
  2 13  1  0
  3  2  1  0
  4  3  1  0
  5  4  2  0
  6  7  1  0
  6  5  1  0
  7 12  2  0
  8  9  2  0
  8  7  1  0
  9 10  1  0
 10 11  2  0
 12  4  1  0
 12 11  1  0
 13 14  2  0
 15 16  1  0
 15 13  1  0
 16 17  1  6
 17 18  1  0
 19 16  1  0
 19 20  2  0
 21 19  1  0
 22 21  1  0
 23 22  1  0
 24 23  1  0
 25 23  2  0
M  END
$$$$
