WCG.pdb
     RDKit          3D

 25 26  0  0  1  0  0  0  0  0999 V2000
    7.8683  -16.6807   23.1701 N   0  0  0  0  0  0  0  0  0  0  0  0
    8.9976  -16.1258   23.8374 C   0  0  1  0  0  0  0  0  0  0  0  0
    8.8391  -16.0212   25.3390 C   0  0  0  0  0  0  0  0  0  0  0  0
    7.6144  -15.2909   25.6954 C   0  0  0  0  0  0  0  0  0  0  0  0
    6.3612  -15.8473   25.8934 C   0  0  0  0  0  0  0  0  0  0  0  0
    5.4904  -14.8744   26.1674 N   0  0  0  0  0  0  0  0  0  0  0  0
    6.1564  -13.7084   26.1501 C   0  0  0  0  0  0  0  0  0  0  0  0
    5.7207  -12.4356   26.3723 C   0  0  0  0  0  0  0  0  0  0  0  0
    6.6050  -11.3865   26.3067 C   0  0  0  0  0  0  0  0  0  0  0  0
    7.9344  -11.6073   26.0175 C   0  0  0  0  0  0  0  0  0  0  0  0
    8.3928  -12.8789   25.7906 C   0  0  0  0  0  0  0  0  0  0  0  0
    7.4985  -13.9308   25.8567 C   0  0  0  0  0  0  0  0  0  0  0  0
   10.2523  -16.8881   23.5822 C   0  0  0  0  0  0  0  0  0  0  0  0
   10.1781  -18.1308   23.2867 O   0  0  0  0  0  0  0  0  0  0  0  0
   11.5541  -16.3374   23.6402 N   0  0  0  0  0  0  0  0  0  0  0  0
   12.7478  -17.1790   23.5406 C   0  0  1  0  0  0  0  0  0  0  0  0
   13.9041  -16.2735   23.1659 C   0  0  0  0  0  0  0  0  0  0  0  0
   14.2152  -15.0077   24.3812 S   0  0  0  0  0  0  0  0  0  0  0  0
   12.9574  -17.9542   24.7668 C   0  0  0  0  0  0  0  0  0  0  0  0
   12.6726  -17.3935   25.8820 O   0  0  0  0  0  0  0  0  0  0  0  0
   13.4435  -19.2671   24.8554 N   0  0  0  0  0  0  0  0  0  0  0  0
   13.5626  -19.9988   26.1042 C   0  0  0  0  0  0  0  0  0  0  0  0
   14.8431  -19.6311   26.7945 C   0  0  0  0  0  0  0  0  0  0  0  0
   14.8435  -19.4029   28.1625 O   0  0  0  0  0  0  0  0  0  0  0  0
   15.8858  -19.5426   26.0942 O   0  0  0  0  0  0  0  0  0  0  0  0
  2  1  1  1
  2 13  1  0
  3  2  1  0
  4  3  1  0
  5  4  2  0
  6  7  1  0
  6  5  1  0
  7 12  2  0
  8  9  2  0
  8  7  1  0
  9 10  1  0
 10 11  2  0
 12  4  1  0
 12 11  1  0
 13 14  2  0
 15 16  1  0
 15 13  1  0
 16 17  1  1
 17 18  1  0
 19 16  1  0
 19 20  2  0
 21 19  1  0
 22 21  1  0
 23 22  1  0
 24 23  1  0
 25 23  2  0
M  END
$$$$
