WCG.pdb
     RDKit          3D

 25 26  0  0  1  0  0  0  0  0999 V2000
    6.7504  -18.4886   25.1593 N   0  0  0  0  0  0  0  0  0  0  0  0
    7.1325  -17.1850   24.7314 C   0  0  1  0  0  0  0  0  0  0  0  0
    7.7378  -16.3284   25.8226 C   0  0  0  0  0  0  0  0  0  0  0  0
    6.8941  -15.1603   26.1121 C   0  0  0  0  0  0  0  0  0  0  0  0
    5.5112  -15.1533   26.1956 C   0  0  0  0  0  0  0  0  0  0  0  0
    5.0951  -13.9092   26.4381 N   0  0  0  0  0  0  0  0  0  0  0  0
    6.1787  -13.1195   26.5124 C   0  0  0  0  0  0  0  0  0  0  0  0
    6.2851  -11.7805   26.7466 C   0  0  0  0  0  0  0  0  0  0  0  0
    7.5232  -11.1869   26.7851 C   0  0  0  0  0  0  0  0  0  0  0  0
    8.6649  -11.9336   26.5886 C   0  0  0  0  0  0  0  0  0  0  0  0
    8.5802  -13.2808   26.3514 C   0  0  0  0  0  0  0  0  0  0  0  0
    7.3318  -13.8729   26.3127 C   0  0  0  0  0  0  0  0  0  0  0  0
    8.1060  -17.2088   23.6035 C   0  0  0  0  0  0  0  0  0  0  0  0
    8.8012  -18.2638   23.4016 O   0  0  0  0  0  0  0  0  0  0  0  0
    8.3313  -16.1333   22.7125 N   0  0  0  0  0  0  0  0  0  0  0  0
    9.2965  -16.2350   21.6165 C   0  0  1  0  0  0  0  0  0  0  0  0
    8.8800  -15.2325   20.5586 C   0  0  0  0  0  0  0  0  0  0  0  0
    7.1540  -15.3523   20.1314 S   0  0  0  0  0  0  0  0  0  0  0  0
   10.6707  -16.0713   22.0992 C   0  0  0  0  0  0  0  0  0  0  0  0
   10.9396  -15.0263   22.7882 O   0  0  0  0  0  0  0  0  0  0  0  0
   11.7436  -16.9498   21.8870 N   0  0  0  0  0  0  0  0  0  0  0  0
   13.0558  -16.7769   22.4849 C   0  0  0  0  0  0  0  0  0  0  0  0
   13.9430  -15.9975   21.5593 C   0  0  0  0  0  0  0  0  0  0  0  0
   15.2376  -15.6883   21.9491 O   0  0  0  0  0  0  0  0  0  0  0  0
   13.4709  -15.6483   20.4454 O   0  0  0  0  0  0  0  0  0  0  0  0
  2  1  1  1
  2 13  1  0
  3  2  1  0
  4  3  1  0
  5  4  2  0
  6  7  1  0
  6  5  1  0
  7 12  2  0
  8  9  2  0
  8  7  1  0
  9 10  1  0
 10 11  2  0
 12  4  1  0
 12 11  1  0
 13 14  2  0
 15 16  1  0
 15 13  1  0
 16 17  1  6
 17 18  1  0
 19 16  1  0
 19 20  2  0
 21 19  1  0
 22 21  1  0
 23 22  1  0
 24 23  1  0
 25 23  2  0
M  END
$$$$
