CYQ.pdb
     RDKit          3D

 28 28  0  0  1  0  0  0  0  0999 V2000
   28.0823  -21.6346  -16.5970 N   0  0  0  0  0  0  0  0  0  0  0  0
   27.1862  -20.5923  -16.1529 C   0  0  1  0  0  0  0  0  0  0  0  0
   26.2054  -20.2027  -17.2238 C   0  0  0  0  0  0  0  0  0  0  0  0
   25.4489  -18.6225  -16.7756 S   0  0  0  0  0  0  0  0  0  0  0  0
   26.4483  -21.0569  -14.9482 C   0  0  0  0  0  0  0  0  0  0  0  0
   26.1082  -22.2637  -14.8365 O   0  0  0  0  0  0  0  0  0  0  0  0
   31.1540  -21.8578  -10.0735 O   0  0  0  0  0  0  0  0  0  0  0  0
   29.8785  -21.4118  -10.3937 C   0  0  0  0  0  0  0  0  0  0  0  0
   28.7683  -21.7456   -9.6567 C   0  0  0  0  0  0  0  0  0  0  0  0
   27.5078  -21.2805  -10.0074 C   0  0  0  0  0  0  0  0  0  0  0  0
   27.3190  -20.4676  -11.1059 C   0  0  0  0  0  0  0  0  0  0  0  0
   26.0058  -19.9701  -11.4996 C   0  0  0  0  0  0  0  0  0  0  0  0
   25.3850  -20.6230  -12.6930 C   0  0  2  0  0  0  0  0  0  0  0  0
   26.1037  -20.1690  -13.8922 N   0  0  0  0  0  0  0  0  0  0  0  0
   23.9559  -20.2540  -12.7658 C   0  0  0  0  0  0  0  0  0  0  0  0
   23.5844  -19.1442  -13.2456 O   0  0  0  0  0  0  0  0  0  0  0  0
   28.4476  -20.1408  -11.8372 C   0  0  0  0  0  0  0  0  0  0  0  0
   29.6952  -20.5967  -11.4962 C   0  0  0  0  0  0  0  0  0  0  0  0
   20.0636  -23.9857  -15.2850 N   0  0  0  0  0  0  0  0  0  0  0  0
   19.1708  -22.9775  -14.8976 C   0  0  0  0  0  0  0  0  0  0  0  0
   17.9927  -22.9865  -15.2743 O   0  0  0  0  0  0  0  0  0  0  0  0
   19.6507  -21.8806  -14.0194 C   0  0  0  0  0  0  0  0  0  0  0  0
   21.0832  -22.0741  -13.6070 C   0  0  0  0  0  0  0  0  0  0  0  0
   21.5253  -20.9159  -12.7892 C   0  0  2  0  0  0  0  0  0  0  0  0
   22.9002  -21.0861  -12.3173 N   0  0  0  0  0  0  0  0  0  0  0  0
   20.6800  -20.7610  -11.5954 C   0  0  0  0  0  0  0  0  0  0  0  0
   20.9877  -21.4631  -10.5621 O   0  0  0  0  0  0  0  0  0  0  0  0
   19.5790  -19.9205  -11.4802 O   0  0  0  0  0  0  0  0  0  0  0  0
  2  3  1  0
  2  1  1  6
  4  3  1  0
  5  2  1  0
  6  5  2  0
  8  9  2  0
  8  7  1  0
 10  9  1  0
 11 10  2  0
 13 12  1  1
 12 11  1  0
 13 14  1  0
 14  5  1  0
 15 25  1  0
 15 13  1  0
 16 15  2  0
 17 11  1  0
 17 18  2  0
 18  8  1  0
 20 19  1  0
 21 20  2  0
 22 20  1  0
 24 23  1  1
 23 22  1  0
 24 25  1  0
 26 24  1  0
 26 28  1  0
 27 26  2  0
M  END
$$$$
