CYQ.pdb
     RDKit          3D

 28 28  0  0  1  0  0  0  0  0999 V2000
   16.8575  -10.9306  -12.4386 N   0  0  0  0  0  0  0  0  0  0  0  0
   17.4857   -9.8336  -11.7397 C   0  0  1  0  0  0  0  0  0  0  0  0
   18.4700   -9.1043  -12.6113 C   0  0  0  0  0  0  0  0  0  0  0  0
   19.9045  -10.1697  -12.8899 S   0  0  0  0  0  0  0  0  0  0  0  0
   16.4406   -8.8858  -11.2695 C   0  0  0  0  0  0  0  0  0  0  0  0
   15.4549   -8.6108  -12.0023 O   0  0  0  0  0  0  0  0  0  0  0  0
   10.7699   -5.0121   -5.7455 O   0  0  0  0  0  0  0  0  0  0  0  0
   11.8750   -5.6475   -6.2961 C   0  0  0  0  0  0  0  0  0  0  0  0
   13.1658   -5.2930   -5.9875 C   0  0  0  0  0  0  0  0  0  0  0  0
   14.2469   -5.9516   -6.5582 C   0  0  0  0  0  0  0  0  0  0  0  0
   14.0701   -6.9847   -7.4552 C   0  0  0  0  0  0  0  0  0  0  0  0
   15.1875   -7.6892   -8.0733 C   0  0  0  0  0  0  0  0  0  0  0  0
   15.4647   -7.3568   -9.5047 C   0  0  2  0  0  0  0  0  0  0  0  0
   16.5138   -8.2632   -9.9930 N   0  0  0  0  0  0  0  0  0  0  0  0
   15.8988   -5.9478   -9.6056 C   0  0  0  0  0  0  0  0  0  0  0  0
   16.9756   -5.5494   -9.0750 O   0  0  0  0  0  0  0  0  0  0  0  0
   12.7638   -7.3294   -7.7551 C   0  0  0  0  0  0  0  0  0  0  0  0
   11.6918   -6.6830   -7.1949 C   0  0  0  0  0  0  0  0  0  0  0  0
   15.5316   -2.4990  -14.4832 N   0  0  0  0  0  0  0  0  0  0  0  0
   16.3799   -3.5500  -14.1103 C   0  0  0  0  0  0  0  0  0  0  0  0
   17.0369   -4.1723  -14.9536 O   0  0  0  0  0  0  0  0  0  0  0  0
   16.4898   -3.9209  -12.6766 C   0  0  0  0  0  0  0  0  0  0  0  0
   15.5923   -3.0849  -11.8076 C   0  0  0  0  0  0  0  0  0  0  0  0
   15.6656   -3.5705  -10.4059 C   0  0  2  0  0  0  0  0  0  0  0  0
   15.1691   -4.9422  -10.2869 N   0  0  0  0  0  0  0  0  0  0  0  0
   14.8405   -2.7387   -9.5166 C   0  0  0  0  0  0  0  0  0  0  0  0
   15.2262   -1.5272   -9.3197 O   0  0  0  0  0  0  0  0  0  0  0  0
   13.6773   -3.1418   -8.8714 O   0  0  0  0  0  0  0  0  0  0  0  0
  2  3  1  0
  2  1  1  6
  4  3  1  0
  5  2  1  0
  6  5  2  0
  8  9  2  0
  8  7  1  0
 10  9  1  0
 11 10  2  0
 13 12  1  1
 12 11  1  0
 13 14  1  0
 14  5  1  0
 15 25  1  0
 15 13  1  0
 16 15  2  0
 17 11  1  0
 17 18  2  0
 18  8  1  0
 20 19  1  0
 21 20  2  0
 22 20  1  0
 24 23  1  6
 23 22  1  0
 24 25  1  0
 26 24  1  0
 26 28  1  0
 27 26  2  0
M  END
$$$$
