CYQ.pdb
     RDKit          3D

 28 28  0  0  1  0  0  0  0  0999 V2000
   25.3708  -24.3370  -16.1672 N   0  0  0  0  0  0  0  0  0  0  0  0
   24.7289  -23.0431  -16.1515 C   0  0  1  0  0  0  0  0  0  0  0  0
   23.6876  -22.9211  -17.2292 C   0  0  0  0  0  0  0  0  0  0  0  0
   24.5177  -22.7772  -18.8294 S   0  0  0  0  0  0  0  0  0  0  0  0
   24.0976  -22.8222  -14.8232 C   0  0  0  0  0  0  0  0  0  0  0  0
   23.8176  -23.7997  -14.0814 O   0  0  0  0  0  0  0  0  0  0  0  0
   29.6345  -21.1236  -11.8186 O   0  0  0  0  0  0  0  0  0  0  0  0
   28.2780  -20.8793  -11.9873 C   0  0  0  0  0  0  0  0  0  0  0  0
   27.7648  -20.2867  -13.1153 C   0  0  0  0  0  0  0  0  0  0  0  0
   26.4016  -20.0581  -13.2489 C   0  0  0  0  0  0  0  0  0  0  0  0
   25.5101  -20.4150  -12.2585 C   0  0  0  0  0  0  0  0  0  0  0  0
   24.0750  -20.1813  -12.3708 C   0  0  0  0  0  0  0  0  0  0  0  0
   23.2752  -21.2819  -12.9912 C   0  0  2  0  0  0  0  0  0  0  0  0
   23.7908  -21.5176  -14.3474 N   0  0  0  0  0  0  0  0  0  0  0  0
   21.8507  -20.8904  -13.0313 C   0  0  0  0  0  0  0  0  0  0  0  0
   21.2228  -20.5764  -11.9792 O   0  0  0  0  0  0  0  0  0  0  0  0
   26.0435  -21.0109  -11.1290 C   0  0  0  0  0  0  0  0  0  0  0  0
   27.3886  -21.2395  -10.9909 C   0  0  0  0  0  0  0  0  0  0  0  0
   18.1551  -19.0415  -17.8771 N   0  0  0  0  0  0  0  0  0  0  0  0
   17.2769  -19.0900  -16.7863 C   0  0  0  0  0  0  0  0  0  0  0  0
   16.0880  -18.7708  -16.9070 O   0  0  0  0  0  0  0  0  0  0  0  0
   17.7857  -19.5330  -15.4635 C   0  0  0  0  0  0  0  0  0  0  0  0
   19.2543  -19.8512  -15.5019 C   0  0  0  0  0  0  0  0  0  0  0  0
   19.6666  -20.4504  -14.2071 C   0  0  2  0  0  0  0  0  0  0  0  0
   21.0794  -20.8325  -14.2185 N   0  0  0  0  0  0  0  0  0  0  0  0
   18.8963  -21.6707  -13.9225 C   0  0  0  0  0  0  0  0  0  0  0  0
   19.3351  -22.7725  -14.4213 O   0  0  0  0  0  0  0  0  0  0  0  0
   17.7371  -21.7430  -13.1589 O   0  0  0  0  0  0  0  0  0  0  0  0
  2  3  1  0
  2  1  1  1
  4  3  1  0
  5  2  1  0
  6  5  2  0
  8  9  2  0
  8  7  1  0
 10  9  1  0
 11 10  2  0
 13 12  1  6
 12 11  1  0
 13 14  1  0
 14  5  1  0
 15 25  1  0
 15 13  1  0
 16 15  2  0
 17 11  1  0
 17 18  2  0
 18  8  1  0
 20 19  1  0
 21 20  2  0
 22 20  1  0
 24 23  1  6
 23 22  1  0
 24 25  1  0
 26 24  1  0
 26 28  1  0
 27 26  2  0
M  END
$$$$
