CYQ.pdb
     RDKit          3D

 28 28  0  0  1  0  0  0  0  0999 V2000
   28.2933  -23.0438  -15.8996 N   0  0  0  0  0  0  0  0  0  0  0  0
   28.9144  -22.4342  -17.0525 C   0  0  1  0  0  0  0  0  0  0  0  0
   28.8739  -23.3373  -18.2539 C   0  0  0  0  0  0  0  0  0  0  0  0
   29.5466  -24.9515  -17.7937 S   0  0  0  0  0  0  0  0  0  0  0  0
   28.2216  -21.1565  -17.3676 C   0  0  0  0  0  0  0  0  0  0  0  0
   27.1735  -20.8321  -16.7507 O   0  0  0  0  0  0  0  0  0  0  0  0
   27.0297  -13.1957  -21.3378 O   0  0  0  0  0  0  0  0  0  0  0  0
   27.5212  -14.4084  -20.8728 C   0  0  0  0  0  0  0  0  0  0  0  0
   27.5970  -15.5305  -21.6616 C   0  0  0  0  0  0  0  0  0  0  0  0
   28.0945  -16.7267  -21.1618 C   0  0  0  0  0  0  0  0  0  0  0  0
   28.5313  -16.8373  -19.8579 C   0  0  0  0  0  0  0  0  0  0  0  0
   29.0528  -18.0825  -19.3062 C   0  0  0  0  0  0  0  0  0  0  0  0
   28.0536  -18.9822  -18.6518 C   0  0  2  0  0  0  0  0  0  0  0  0
   28.7094  -20.2656  -18.3630 N   0  0  0  0  0  0  0  0  0  0  0  0
   26.9000  -19.1732  -19.5554 C   0  0  0  0  0  0  0  0  0  0  0  0
   26.7877  -20.2091  -20.2723 O   0  0  0  0  0  0  0  0  0  0  0  0
   28.4483  -15.6977  -19.0769 C   0  0  0  0  0  0  0  0  0  0  0  0
   27.9580  -14.5134  -19.5645 C   0  0  0  0  0  0  0  0  0  0  0  0
   21.7550  -20.3907  -18.2914 N   0  0  0  0  0  0  0  0  0  0  0  0
   21.5216  -20.3551  -19.6726 C   0  0  0  0  0  0  0  0  0  0  0  0
   20.4202  -20.6633  -20.1436 O   0  0  0  0  0  0  0  0  0  0  0  0
   22.6178  -19.9397  -20.5839 C   0  0  0  0  0  0  0  0  0  0  0  0
   23.9086  -19.7142  -19.8473 C   0  0  0  0  0  0  0  0  0  0  0  0
   24.6240  -18.5566  -20.4421 C   0  0  2  0  0  0  0  0  0  0  0  0
   25.8436  -18.2396  -19.6976 N   0  0  0  0  0  0  0  0  0  0  0  0
   23.7835  -17.3497  -20.4191 C   0  0  0  0  0  0  0  0  0  0  0  0
   22.7934  -17.3073  -21.2396 O   0  0  0  0  0  0  0  0  0  0  0  0
   23.9593  -16.2502  -19.5872 O   0  0  0  0  0  0  0  0  0  0  0  0
  2  3  1  0
  2  1  1  1
  4  3  1  0
  5  2  1  0
  6  5  2  0
  8  9  2  0
  8  7  1  0
 10  9  1  0
 11 10  2  0
 13 12  1  6
 12 11  1  0
 13 14  1  0
 14  5  1  0
 15 25  1  0
 15 13  1  0
 16 15  2  0
 17 11  1  0
 17 18  2  0
 18  8  1  0
 20 19  1  0
 21 20  2  0
 22 20  1  0
 24 23  1  1
 23 22  1  0
 24 25  1  0
 26 24  1  0
 26 28  1  0
 27 26  2  0
M  END
$$$$
