CYQ.pdb
     RDKit          3D

 28 28  0  0  1  0  0  0  0  0999 V2000
   21.1658  -11.5710  -16.5344 N   0  0  0  0  0  0  0  0  0  0  0  0
   21.9351  -10.7116  -15.6649 C   0  0  1  0  0  0  0  0  0  0  0  0
   23.2045  -10.2432  -16.3203 C   0  0  0  0  0  0  0  0  0  0  0  0
   24.3690  -11.6249  -16.3915 S   0  0  0  0  0  0  0  0  0  0  0  0
   21.1110   -9.5350  -15.2799 C   0  0  0  0  0  0  0  0  0  0  0  0
   20.2738   -9.0532  -16.0869 O   0  0  0  0  0  0  0  0  0  0  0  0
   16.4499   -4.3520   -9.7309 O   0  0  0  0  0  0  0  0  0  0  0  0
   17.2693   -5.2807  -10.3587 C   0  0  0  0  0  0  0  0  0  0  0  0
   16.9505   -5.8575  -11.5640 C   0  0  0  0  0  0  0  0  0  0  0  0
   17.7951   -6.7833  -12.1623 C   0  0  0  0  0  0  0  0  0  0  0  0
   18.9842   -7.1606  -11.5734 C   0  0  0  0  0  0  0  0  0  0  0  0
   19.8865   -8.1344  -12.1771 C   0  0  0  0  0  0  0  0  0  0  0  0
   20.3416   -7.8355  -13.5698 C   0  0  2  0  0  0  0  0  0  0  0  0
   21.2354   -8.9184  -14.0045 N   0  0  0  0  0  0  0  0  0  0  0  0
   21.0439   -6.5353  -13.5877 C   0  0  0  0  0  0  0  0  0  0  0  0
   22.1996   -6.4027  -13.0912 O   0  0  0  0  0  0  0  0  0  0  0  0
   19.2903   -6.5701  -10.3598 C   0  0  0  0  0  0  0  0  0  0  0  0
   18.4606   -5.6552   -9.7637 C   0  0  0  0  0  0  0  0  0  0  0  0
   23.4079   -3.8679  -17.8127 N   0  0  0  0  0  0  0  0  0  0  0  0
   22.0292   -4.1075  -17.8841 C   0  0  0  0  0  0  0  0  0  0  0  0
   21.4613   -4.2587  -18.9726 O   0  0  0  0  0  0  0  0  0  0  0  0
   21.2388   -4.1805  -16.6292 C   0  0  0  0  0  0  0  0  0  0  0  0
   22.1009   -4.0127  -15.4092 C   0  0  0  0  0  0  0  0  0  0  0  0
   21.2576   -4.0984  -14.1897 C   0  0  2  0  0  0  0  0  0  0  0  0
   20.5023   -5.3514  -14.1469 N   0  0  0  0  0  0  0  0  0  0  0  0
   20.2742   -3.0052  -14.1515 C   0  0  0  0  0  0  0  0  0  0  0  0
   19.0332   -3.3269  -14.2591 O   0  0  0  0  0  0  0  0  0  0  0  0
   20.5638   -1.6537  -14.0054 O   0  0  0  0  0  0  0  0  0  0  0  0
  2  3  1  0
  2  1  1  6
  4  3  1  0
  5  2  1  0
  6  5  2  0
  8  9  2  0
  8  7  1  0
 10  9  1  0
 11 10  2  0
 13 12  1  1
 12 11  1  0
 13 14  1  0
 14  5  1  0
 15 25  1  0
 15 13  1  0
 16 15  2  0
 17 11  1  0
 17 18  2  0
 18  8  1  0
 20 19  1  0
 21 20  2  0
 22 20  1  0
 24 23  1  6
 23 22  1  0
 24 25  1  0
 26 24  1  0
 26 28  1  0
 27 26  2  0
M  END
$$$$
