CYQ.pdb
     RDKit          3D

 28 28  0  0  1  0  0  0  0  0999 V2000
   20.3394   -8.2230  -12.9649 N   0  0  0  0  0  0  0  0  0  0  0  0
   18.9553   -7.9281  -13.2540 C   0  0  1  0  0  0  0  0  0  0  0  0
   18.3637   -8.9118  -14.2250 C   0  0  0  0  0  0  0  0  0  0  0  0
   19.3836   -8.9437  -15.7180 S   0  0  0  0  0  0  0  0  0  0  0  0
   18.1728   -7.9462  -11.9894 C   0  0  0  0  0  0  0  0  0  0  0  0
   18.7542   -8.1010  -10.8838 O   0  0  0  0  0  0  0  0  0  0  0  0
   13.5744   -4.4103   -5.6412 O   0  0  0  0  0  0  0  0  0  0  0  0
   14.3063   -4.9176   -6.7066 C   0  0  0  0  0  0  0  0  0  0  0  0
   14.9847   -6.1103   -6.6405 C   0  0  0  0  0  0  0  0  0  0  0  0
   15.7067   -6.5864   -7.7269 C   0  0  0  0  0  0  0  0  0  0  0  0
   15.7725   -5.8842   -8.9126 C   0  0  0  0  0  0  0  0  0  0  0  0
   16.5279   -6.3584  -10.0664 C   0  0  0  0  0  0  0  0  0  0  0  0
   16.0031   -7.5875  -10.7371 C   0  0  2  0  0  0  0  0  0  0  0  0
   16.7592   -7.7917  -11.9810 N   0  0  0  0  0  0  0  0  0  0  0  0
   14.5629   -7.4148  -11.0199 C   0  0  0  0  0  0  0  0  0  0  0  0
   14.1493   -6.5261  -11.8192 O   0  0  0  0  0  0  0  0  0  0  0  0
   15.0836   -4.6849   -8.9625 C   0  0  0  0  0  0  0  0  0  0  0  0
   14.3686   -4.2093   -7.8932 C   0  0  0  0  0  0  0  0  0  0  0  0
    9.9254  -10.8201   -8.5194 N   0  0  0  0  0  0  0  0  0  0  0  0
   10.6843  -11.2764   -9.6054 C   0  0  0  0  0  0  0  0  0  0  0  0
   10.7155  -12.4760   -9.9054 O   0  0  0  0  0  0  0  0  0  0  0  0
   11.4635  -10.3000  -10.4082 C   0  0  0  0  0  0  0  0  0  0  0  0
   11.2565   -8.8883   -9.9351 C   0  0  0  0  0  0  0  0  0  0  0  0
   12.1246   -7.9706  -10.7161 C   0  0  2  0  0  0  0  0  0  0  0  0
   13.5420   -8.2066  -10.4380 N   0  0  0  0  0  0  0  0  0  0  0  0
   11.8499   -6.5668  -10.3735 C   0  0  0  0  0  0  0  0  0  0  0  0
   12.4850   -6.0716   -9.3702 O   0  0  0  0  0  0  0  0  0  0  0  0
   10.9678   -5.7235  -11.0387 O   0  0  0  0  0  0  0  0  0  0  0  0
  2  3  1  0
  2  1  1  1
  4  3  1  0
  5  2  1  0
  6  5  2  0
  8  9  2  0
  8  7  1  0
 10  9  1  0
 11 10  2  0
 13 12  1  6
 12 11  1  0
 13 14  1  0
 14  5  1  0
 15 25  1  0
 15 13  1  0
 16 15  2  0
 17 11  1  0
 17 18  2  0
 18  8  1  0
 20 19  1  0
 21 20  2  0
 22 20  1  0
 24 23  1  1
 23 22  1  0
 24 25  1  0
 26 24  1  0
 26 28  1  0
 27 26  2  0
M  END
$$$$
