CYQ.pdb
     RDKit          3D

 28 28  0  0  1  0  0  0  0  0999 V2000
   22.1684  -11.8425  -17.6856 N   0  0  0  0  0  0  0  0  0  0  0  0
   22.4750  -10.4316  -17.6447 C   0  0  1  0  0  0  0  0  0  0  0  0
   22.3586   -9.7934  -19.0011 C   0  0  0  0  0  0  0  0  0  0  0  0
   23.5393  -10.5824  -20.1207 S   0  0  0  0  0  0  0  0  0  0  0  0
   21.5521   -9.7539  -16.6957 C   0  0  0  0  0  0  0  0  0  0  0  0
   20.3313  -10.0593  -16.6678 O   0  0  0  0  0  0  0  0  0  0  0  0
   19.0942   -5.1027   -9.4611 O   0  0  0  0  0  0  0  0  0  0  0  0
   19.7642   -5.7830  -10.4693 C   0  0  0  0  0  0  0  0  0  0  0  0
   19.6410   -7.1378  -10.6599 C   0  0  0  0  0  0  0  0  0  0  0  0
   20.3270   -7.7844  -11.6795 C   0  0  0  0  0  0  0  0  0  0  0  0
   21.1573   -7.0959  -12.5395 C   0  0  0  0  0  0  0  0  0  0  0  0
   21.8936   -7.7510  -13.6145 C   0  0  0  0  0  0  0  0  0  0  0  0
   21.1058   -8.0936  -14.8385 C   0  0  2  0  0  0  0  0  0  0  0  0
   22.0066   -8.7498  -15.7970 N   0  0  0  0  0  0  0  0  0  0  0  0
   20.5341   -6.8589  -15.4152 C   0  0  0  0  0  0  0  0  0  0  0  0
   21.2549   -6.0250  -16.0355 O   0  0  0  0  0  0  0  0  0  0  0  0
   21.2702   -5.7320  -12.3338 C   0  0  0  0  0  0  0  0  0  0  0  0
   20.5955   -5.0875  -11.3289 C   0  0  0  0  0  0  0  0  0  0  0  0
   14.7303   -5.6882  -17.5469 N   0  0  0  0  0  0  0  0  0  0  0  0
   15.3563   -4.4383  -17.6446 C   0  0  0  0  0  0  0  0  0  0  0  0
   14.7884   -3.4781  -18.1791 O   0  0  0  0  0  0  0  0  0  0  0  0
   16.7254   -4.2668  -17.0960 C   0  0  0  0  0  0  0  0  0  0  0  0
   17.2555   -5.5388  -16.4953 C   0  0  0  0  0  0  0  0  0  0  0  0
   18.6297   -5.3097  -15.9806 C   0  0  2  0  0  0  0  0  0  0  0  0
   19.1645   -6.5059  -15.3285 N   0  0  0  0  0  0  0  0  0  0  0  0
   18.6439   -4.2338  -14.9778 C   0  0  0  0  0  0  0  0  0  0  0  0
   18.4163   -4.5662  -13.7559 O   0  0  0  0  0  0  0  0  0  0  0  0
   18.8853   -2.8884  -15.2297 O   0  0  0  0  0  0  0  0  0  0  0  0
  2  3  1  0
  2  1  1  6
  4  3  1  0
  5  2  1  0
  6  5  2  0
  8  9  2  0
  8  7  1  0
 10  9  1  0
 11 10  2  0
 13 12  1  1
 12 11  1  0
 13 14  1  0
 14  5  1  0
 15 25  1  0
 15 13  1  0
 16 15  2  0
 17 11  1  0
 17 18  2  0
 18  8  1  0
 20 19  1  0
 21 20  2  0
 22 20  1  0
 24 23  1  1
 23 22  1  0
 24 25  1  0
 26 24  1  0
 26 28  1  0
 27 26  2  0
M  END
$$$$
