CYQ.pdb
     RDKit          3D

 28 28  0  0  1  0  0  0  0  0999 V2000
   21.7677  -19.2093  -15.4025 N   0  0  0  0  0  0  0  0  0  0  0  0
   21.3148  -18.2604  -16.3928 C   0  0  1  0  0  0  0  0  0  0  0  0
   19.8377  -18.3782  -16.6475 C   0  0  0  0  0  0  0  0  0  0  0  0
   19.4515  -20.0963  -17.0591 S   0  0  0  0  0  0  0  0  0  0  0  0
   21.6318  -16.8813  -15.9353 C   0  0  0  0  0  0  0  0  0  0  0  0
   21.5075  -16.5691  -14.7223 O   0  0  0  0  0  0  0  0  0  0  0  0
   27.7939  -17.8951  -14.9204 O   0  0  0  0  0  0  0  0  0  0  0  0
   26.8353  -16.9895  -15.3556 C   0  0  0  0  0  0  0  0  0  0  0  0
   26.3837  -15.9535  -14.5747 C   0  0  0  0  0  0  0  0  0  0  0  0
   25.4235  -15.0669  -15.0440 C   0  0  0  0  0  0  0  0  0  0  0  0
   24.8854  -15.1895  -16.3083 C   0  0  0  0  0  0  0  0  0  0  0  0
   23.8720  -14.2761  -16.8236 C   0  0  0  0  0  0  0  0  0  0  0  0
   22.4669  -14.5344  -16.3818 C   0  0  2  0  0  0  0  0  0  0  0  0
   22.0807  -15.8776  -16.8372 N   0  0  0  0  0  0  0  0  0  0  0  0
   21.5748  -13.5072  -16.9588 C   0  0  0  0  0  0  0  0  0  0  0  0
   20.9607  -13.7025  -18.0471 O   0  0  0  0  0  0  0  0  0  0  0  0
   25.3512  -16.2383  -17.0818 C   0  0  0  0  0  0  0  0  0  0  0  0
   26.2993  -17.1172  -16.6244 C   0  0  0  0  0  0  0  0  0  0  0  0
   17.1227  -10.4207  -14.3398 N   0  0  0  0  0  0  0  0  0  0  0  0
   17.1381   -9.8121  -15.6019 C   0  0  0  0  0  0  0  0  0  0  0  0
   16.2424   -9.0320  -15.9472 O   0  0  0  0  0  0  0  0  0  0  0  0
   18.2506  -10.1111  -16.5388 C   0  0  0  0  0  0  0  0  0  0  0  0
   19.1855  -11.1524  -15.9900 C   0  0  0  0  0  0  0  0  0  0  0  0
   20.3460  -11.3087  -16.9036 C   0  0  2  0  0  0  0  0  0  0  0  0
   21.3324  -12.2449  -16.3625 N   0  0  0  0  0  0  0  0  0  0  0  0
   21.0377  -10.0256  -17.1005 C   0  0  0  0  0  0  0  0  0  0  0  0
   22.0744   -9.7991  -16.3731 O   0  0  0  0  0  0  0  0  0  0  0  0
   20.6751   -9.0351  -18.0057 O   0  0  0  0  0  0  0  0  0  0  0  0
  2  3  1  0
  2  1  1  1
  4  3  1  0
  5  2  1  0
  6  5  2  0
  8  9  2  0
  8  7  1  0
 10  9  1  0
 11 10  2  0
 13 12  1  6
 12 11  1  0
 13 14  1  0
 14  5  1  0
 15 25  1  0
 15 13  1  0
 16 15  2  0
 17 11  1  0
 17 18  2  0
 18  8  1  0
 20 19  1  0
 21 20  2  0
 22 20  1  0
 24 23  1  1
 23 22  1  0
 24 25  1  0
 26 24  1  0
 26 28  1  0
 27 26  2  0
M  END
$$$$
