CYQ.pdb
     RDKit          3D

 28 28  0  0  1  0  0  0  0  0999 V2000
   28.4479  -11.5885  -17.8197 N   0  0  0  0  0  0  0  0  0  0  0  0
   27.1720  -11.5058  -17.1476 C   0  0  1  0  0  0  0  0  0  0  0  0
   27.3211  -11.0825  -15.7126 C   0  0  0  0  0  0  0  0  0  0  0  0
   28.1623  -12.3979  -14.8003 S   0  0  0  0  0  0  0  0  0  0  0  0
   26.2997  -10.5372  -17.8634 C   0  0  0  0  0  0  0  0  0  0  0  0
   26.8051   -9.5814  -18.5079 O   0  0  0  0  0  0  0  0  0  0  0  0
   19.0694   -7.4830  -22.1018 O   0  0  0  0  0  0  0  0  0  0  0  0
   20.0516   -8.2079  -21.4399 C   0  0  0  0  0  0  0  0  0  0  0  0
   21.3412   -8.3061  -21.9029 C   0  0  0  0  0  0  0  0  0  0  0  0
   22.2971   -9.0404  -21.2136 C   0  0  0  0  0  0  0  0  0  0  0  0
   21.9927   -9.6990  -20.0403 C   0  0  0  0  0  0  0  0  0  0  0  0
   22.9757  -10.4815  -19.2999 C   0  0  0  0  0  0  0  0  0  0  0  0
   24.0136   -9.7021  -18.5574 C   0  0  2  0  0  0  0  0  0  0  0  0
   24.8823  -10.6519  -17.8475 N   0  0  0  0  0  0  0  0  0  0  0  0
   23.3512   -8.7845  -17.6071 C   0  0  0  0  0  0  0  0  0  0  0  0
   22.9448   -9.1843  -16.4781 O   0  0  0  0  0  0  0  0  0  0  0  0
   20.6894   -9.5898  -19.5877 C   0  0  0  0  0  0  0  0  0  0  0  0
   19.7406   -8.8662  -20.2636 C   0  0  0  0  0  0  0  0  0  0  0  0
   23.6697   -2.4982  -16.9716 N   0  0  0  0  0  0  0  0  0  0  0  0
   22.6721   -2.8643  -16.0583 C   0  0  0  0  0  0  0  0  0  0  0  0
   22.1753   -2.0351  -15.2865 O   0  0  0  0  0  0  0  0  0  0  0  0
   22.2052   -4.2733  -16.0189 C   0  0  0  0  0  0  0  0  0  0  0  0
   22.9163   -5.1314  -17.0278 C   0  0  0  0  0  0  0  0  0  0  0  0
   22.4625   -6.5388  -16.8904 C   0  0  2  0  0  0  0  0  0  0  0  0
   23.1172   -7.4112  -17.8663 N   0  0  0  0  0  0  0  0  0  0  0  0
   21.0141   -6.6501  -17.1217 C   0  0  0  0  0  0  0  0  0  0  0  0
   20.6133   -6.6603  -18.3442 O   0  0  0  0  0  0  0  0  0  0  0  0
   20.0373   -6.7495  -16.1380 O   0  0  0  0  0  0  0  0  0  0  0  0
  2  3  1  0
  2  1  1  6
  4  3  1  0
  5  2  1  0
  6  5  2  0
  8  9  2  0
  8  7  1  0
 10  9  1  0
 11 10  2  0
 13 12  1  1
 12 11  1  0
 13 14  1  0
 14  5  1  0
 15 25  1  0
 15 13  1  0
 16 15  2  0
 17 11  1  0
 17 18  2  0
 18  8  1  0
 20 19  1  0
 21 20  2  0
 22 20  1  0
 24 23  1  6
 23 22  1  0
 24 25  1  0
 26 24  1  0
 26 28  1  0
 27 26  2  0
M  END
$$$$
