CYQ.pdb
     RDKit          3D

 28 28  0  0  1  0  0  0  0  0999 V2000
   22.7621  -13.0144  -17.5040 N   0  0  0  0  0  0  0  0  0  0  0  0
   22.5311  -11.7224  -18.1073 C   0  0  1  0  0  0  0  0  0  0  0  0
   21.0952  -11.5436  -18.5159 C   0  0  0  0  0  0  0  0  0  0  0  0
   20.6473  -12.8636  -19.6679 S   0  0  0  0  0  0  0  0  0  0  0  0
   22.9107  -10.6541  -17.1449 C   0  0  0  0  0  0  0  0  0  0  0  0
   22.6409  -10.7748  -15.9213 O   0  0  0  0  0  0  0  0  0  0  0  0
   28.7973  -12.8443  -16.2624 O   0  0  0  0  0  0  0  0  0  0  0  0
   27.9924  -11.7262  -16.4367 C   0  0  0  0  0  0  0  0  0  0  0  0
   27.5543  -11.3117  -17.6710 C   0  0  0  0  0  0  0  0  0  0  0  0
   26.7500  -10.1880  -17.8068 C   0  0  0  0  0  0  0  0  0  0  0  0
   26.3594   -9.4442  -16.7125 C   0  0  0  0  0  0  0  0  0  0  0  0
   25.5202   -8.2570  -16.8276 C   0  0  0  0  0  0  0  0  0  0  0  0
   24.0556   -8.4621  -16.6069 C   0  0  2  0  0  0  0  0  0  0  0  0
   23.5830   -9.4730  -17.5637 N   0  0  0  0  0  0  0  0  0  0  0  0
   23.3460   -7.1807  -16.8030 C   0  0  0  0  0  0  0  0  0  0  0  0
   23.1550   -6.7022  -17.9582 O   0  0  0  0  0  0  0  0  0  0  0  0
   26.8093   -9.8754  -15.4767 C   0  0  0  0  0  0  0  0  0  0  0  0
   27.6036  -10.9843  -15.3358 C   0  0  0  0  0  0  0  0  0  0  0  0
   17.9083   -6.2581  -16.7493 N   0  0  0  0  0  0  0  0  0  0  0  0
   18.2676   -4.9047  -16.8005 C   0  0  0  0  0  0  0  0  0  0  0  0
   17.4346   -4.0311  -17.0708 O   0  0  0  0  0  0  0  0  0  0  0  0
   19.6739   -4.5157  -16.5251 C   0  0  0  0  0  0  0  0  0  0  0  0
   20.5393   -5.7068  -16.2214 C   0  0  0  0  0  0  0  0  0  0  0  0
   21.9359   -5.2590  -15.9875 C   0  0  2  0  0  0  0  0  0  0  0  0
   22.8291   -6.3928  -15.7448 N   0  0  0  0  0  0  0  0  0  0  0  0
   22.0188   -4.3890  -14.8044 C   0  0  0  0  0  0  0  0  0  0  0  0
   22.3416   -4.9428  -13.6889 O   0  0  0  0  0  0  0  0  0  0  0  0
   21.7834   -3.0193  -14.7823 O   0  0  0  0  0  0  0  0  0  0  0  0
  2  3  1  0
  2  1  1  1
  4  3  1  0
  5  2  1  0
  6  5  2  0
  8  9  2  0
  8  7  1  0
 10  9  1  0
 11 10  2  0
 13 12  1  6
 12 11  1  0
 13 14  1  0
 14  5  1  0
 15 25  1  0
 15 13  1  0
 16 15  2  0
 17 11  1  0
 17 18  2  0
 18  8  1  0
 20 19  1  0
 21 20  2  0
 22 20  1  0
 24 23  1  1
 23 22  1  0
 24 25  1  0
 26 24  1  0
 26 28  1  0
 27 26  2  0
M  END
$$$$
