CYQ.pdb
     RDKit          3D

 28 28  0  0  1  0  0  0  0  0999 V2000
   28.3382  -33.4523  -16.6313 N   0  0  0  0  0  0  0  0  0  0  0  0
   27.4972  -33.9006  -15.5459 C   0  0  1  0  0  0  0  0  0  0  0  0
   28.1613  -33.7166  -14.2096 C   0  0  0  0  0  0  0  0  0  0  0  0
   29.6614  -34.7253  -14.1595 S   0  0  0  0  0  0  0  0  0  0  0  0
   26.2154  -33.1468  -15.5718 C   0  0  0  0  0  0  0  0  0  0  0  0
   25.9637  -32.3520  -16.5149 O   0  0  0  0  0  0  0  0  0  0  0  0
   24.7279  -29.9911  -20.4710 O   0  0  0  0  0  0  0  0  0  0  0  0
   24.3546  -30.6960  -19.3344 C   0  0  0  0  0  0  0  0  0  0  0  0
   23.6915  -30.1119  -18.2826 C   0  0  0  0  0  0  0  0  0  0  0  0
   23.3339  -30.8490  -17.1614 C   0  0  0  0  0  0  0  0  0  0  0  0
   23.6287  -32.1927  -17.0577 C   0  0  0  0  0  0  0  0  0  0  0  0
   23.2699  -32.9886  -15.8895 C   0  0  0  0  0  0  0  0  0  0  0  0
   23.9381  -32.6123  -14.6058 C   0  0  2  0  0  0  0  0  0  0  0  0
   25.2397  -33.2928  -14.5476 N   0  0  0  0  0  0  0  0  0  0  0  0
   23.0825  -33.0165  -13.4708 C   0  0  0  0  0  0  0  0  0  0  0  0
   22.7559  -34.2247  -13.2881 O   0  0  0  0  0  0  0  0  0  0  0  0
   24.2968  -32.7656  -18.1258 C   0  0  0  0  0  0  0  0  0  0  0  0
   24.6526  -32.0433  -19.2359 C   0  0  0  0  0  0  0  0  0  0  0  0
   23.3914  -29.4901   -9.3722 N   0  0  0  0  0  0  0  0  0  0  0  0
   22.1606  -29.2312   -9.9900 C   0  0  0  0  0  0  0  0  0  0  0  0
   21.7750  -28.0727  -10.1881 O   0  0  0  0  0  0  0  0  0  0  0  0
   21.3067  -30.3699  -10.4132 C   0  0  0  0  0  0  0  0  0  0  0  0
   21.9780  -31.6948  -10.1813 C   0  0  0  0  0  0  0  0  0  0  0  0
   21.7744  -32.5685  -11.3649 C   0  0  2  0  0  0  0  0  0  0  0  0
   22.5642  -32.1132  -12.5099 N   0  0  0  0  0  0  0  0  0  0  0  0
   20.3656  -32.5620  -11.7880 C   0  0  0  0  0  0  0  0  0  0  0  0
   19.5019  -33.0397  -10.9628 O   0  0  0  0  0  0  0  0  0  0  0  0
   19.8809  -32.0822  -12.9991 O   0  0  0  0  0  0  0  0  0  0  0  0
  2  3  1  0
  2  1  1  6
  4  3  1  0
  5  2  1  0
  6  5  2  0
  8  9  2  0
  8  7  1  0
 10  9  1  0
 11 10  2  0
 13 12  1  6
 12 11  1  0
 13 14  1  0
 14  5  1  0
 15 25  1  0
 15 13  1  0
 16 15  2  0
 17 11  1  0
 17 18  2  0
 18  8  1  0
 20 19  1  0
 21 20  2  0
 22 20  1  0
 24 23  1  1
 23 22  1  0
 24 25  1  0
 26 24  1  0
 26 28  1  0
 27 26  2  0
M  END
$$$$
