EMA.pdb
     RDKit          3D

 23 22  0  0  1  0  0  0  0  0999 V2000
    8.4806  -14.9587   19.6530 N   0  0  0  0  0  0  0  0  0  0  0  0
    7.8133  -15.7100   20.6745 C   0  0  1  0  0  0  0  0  0  0  0  0
    7.8352  -17.1777   20.4312 C   0  0  0  0  0  0  0  0  0  0  0  0
    7.0485  -17.6580   19.2629 C   0  0  0  0  0  0  0  0  0  0  0  0
    7.7859  -18.0233   18.0534 C   0  0  0  0  0  0  0  0  0  0  0  0
    7.5382  -17.5060   16.9517 O   0  0  0  0  0  0  0  0  0  0  0  0
    8.4743  -15.3658   21.9860 C   0  0  0  0  0  0  0  0  0  0  0  0
    9.7238  -15.3274   22.0354 O   0  0  0  0  0  0  0  0  0  0  0  0
    8.8099  -18.9732   18.0650 O   0  0  0  0  0  0  0  0  0  0  0  0
    6.8221  -12.3463   27.8340 C   0  0  0  0  0  0  0  0  0  0  0  0
    6.6456  -11.5690   26.2168 S   0  0  0  0  0  0  0  0  0  0  0  0
    7.0584  -12.7032   24.8762 C   0  0  0  0  0  0  0  0  0  0  0  0
    7.4233  -14.0790   25.3716 C   0  0  0  0  0  0  0  0  0  0  0  0
    8.3621  -14.8013   24.4371 C   0  0  2  0  0  0  0  0  0  0  0  0
    7.7585  -15.0842   23.1636 N   0  0  0  0  0  0  0  0  0  0  0  0
    8.8150  -16.0305   25.1391 C   0  0  0  0  0  0  0  0  0  0  0  0
    7.9598  -16.9085   25.4058 O   0  0  0  0  0  0  0  0  0  0  0  0
   12.0700  -17.6627   25.7793 C   0  0  0  0  0  0  0  0  0  0  0  0
   10.6204  -17.4834   26.1779 C   0  0  2  0  0  0  0  0  0  0  0  0
   10.1554  -16.2728   25.5270 N   0  0  0  0  0  0  0  0  0  0  0  0
   10.5298  -17.3829   27.6627 C   0  0  0  0  0  0  0  0  0  0  0  0
   10.9046  -18.4266   28.4852 O   0  0  0  0  0  0  0  0  0  0  0  0
   10.1066  -16.3347   28.1967 O   0  0  0  0  0  0  0  0  0  0  0  0
  2  1  1  6
  2  7  1  0
  3  2  1  0
  4  3  1  0
  4  5  1  0
  5  6  2  0
  7  8  2  0
  9  5  1  0
 10 11  1  0
 11 12  1  0
 12 13  1  0
 14 13  1  1
 14 16  1  0
 15  7  1  0
 15 14  1  0
 16 17  2  0
 19 18  1  1
 19 21  1  0
 20 19  1  0
 20 16  1  0
 21 22  1  0
 23 21  2  0
M  END
$$$$
