EMA.pdb
     RDKit          3D

 23 22  0  0  1  0  0  0  0  0999 V2000
    7.6701  -17.1100   20.2745 N   0  0  0  0  0  0  0  0  0  0  0  0
    9.0961  -17.1243   20.4146 C   0  0  1  0  0  0  0  0  0  0  0  0
    9.8027  -16.4684   19.2814 C   0  0  0  0  0  0  0  0  0  0  0  0
    9.8218  -17.2229   17.9988 C   0  0  0  0  0  0  0  0  0  0  0  0
   11.1114  -17.3850   17.3273 C   0  0  0  0  0  0  0  0  0  0  0  0
   11.8966  -18.3001   17.6253 O   0  0  0  0  0  0  0  0  0  0  0  0
    9.4231  -16.4497   21.7236 C   0  0  0  0  0  0  0  0  0  0  0  0
   10.6251  -16.2961   22.0347 O   0  0  0  0  0  0  0  0  0  0  0  0
   11.5358  -16.5227   16.3137 O   0  0  0  0  0  0  0  0  0  0  0  0
    7.2457  -11.2711   26.7762 C   0  0  0  0  0  0  0  0  0  0  0  0
    6.5828  -12.9010   26.3829 S   0  0  0  0  0  0  0  0  0  0  0  0
    7.8686  -14.0314   25.8148 C   0  0  0  0  0  0  0  0  0  0  0  0
    7.5997  -14.5691   24.4328 C   0  0  0  0  0  0  0  0  0  0  0  0
    8.7234  -15.4348   23.9189 C   0  0  2  0  0  0  0  0  0  0  0  0
    8.4447  -15.9810   22.6189 N   0  0  0  0  0  0  0  0  0  0  0  0
    8.9641  -16.4875   24.9401 C   0  0  0  0  0  0  0  0  0  0  0  0
    7.9990  -17.2126   25.2811 O   0  0  0  0  0  0  0  0  0  0  0  0
   11.8839  -18.3317   26.1026 C   0  0  0  0  0  0  0  0  0  0  0  0
   10.5020  -17.8240   26.4561 C   0  0  2  0  0  0  0  0  0  0  0  0
   10.2185  -16.7234   25.5541 N   0  0  0  0  0  0  0  0  0  0  0  0
   10.4906  -17.3877   27.8818 C   0  0  0  0  0  0  0  0  0  0  0  0
   10.6299  -18.2893   28.9181 O   0  0  0  0  0  0  0  0  0  0  0  0
   10.3531  -16.1784   28.1675 O   0  0  0  0  0  0  0  0  0  0  0  0
  2  1  1  6
  2  7  1  0
  3  2  1  0
  4  3  1  0
  4  5  1  0
  5  6  2  0
  7  8  2  0
  9  5  1  0
 10 11  1  0
 11 12  1  0
 12 13  1  0
 14 13  1  1
 14 16  1  0
 15  7  1  0
 15 14  1  0
 16 17  2  0
 19 18  1  6
 19 21  1  0
 20 19  1  0
 20 16  1  0
 21 22  1  0
 23 21  2  0
M  END
$$$$
