EMA.pdb
     RDKit          3D

 23 22  0  0  1  0  0  0  0  0999 V2000
    7.0612  -16.9097   20.3401 N   0  0  0  0  0  0  0  0  0  0  0  0
    8.4811  -16.7293   20.2739 C   0  0  1  0  0  0  0  0  0  0  0  0
    8.9281  -16.0519   19.0268 C   0  0  0  0  0  0  0  0  0  0  0  0
    8.0048  -16.1490   17.8637 C   0  0  0  0  0  0  0  0  0  0  0  0
    8.5663  -15.9218   16.5321 C   0  0  0  0  0  0  0  0  0  0  0  0
    9.3999  -16.6939   16.0303 O   0  0  0  0  0  0  0  0  0  0  0  0
    8.8891  -15.9444   21.4957 C   0  0  0  0  0  0  0  0  0  0  0  0
   10.0922  -15.6292   21.6314 O   0  0  0  0  0  0  0  0  0  0  0  0
    8.1998  -14.8259   15.7474 O   0  0  0  0  0  0  0  0  0  0  0  0
    6.9346  -10.9599   26.1827 C   0  0  0  0  0  0  0  0  0  0  0  0
    6.4899  -12.6657   26.5616 S   0  0  0  0  0  0  0  0  0  0  0  0
    7.6689  -13.8394   25.8644 C   0  0  0  0  0  0  0  0  0  0  0  0
    7.2715  -14.3144   24.4904 C   0  0  0  0  0  0  0  0  0  0  0  0
    8.3670  -15.0957   23.8079 C   0  0  2  0  0  0  0  0  0  0  0  0
    7.9855  -15.5450   22.4969 N   0  0  0  0  0  0  0  0  0  0  0  0
    8.7297  -16.2180   24.7122 C   0  0  0  0  0  0  0  0  0  0  0  0
    7.8166  -16.9884   25.0946 O   0  0  0  0  0  0  0  0  0  0  0  0
   11.8972  -17.8931   25.6326 C   0  0  0  0  0  0  0  0  0  0  0  0
   10.4391  -17.6333   25.9469 C   0  0  2  0  0  0  0  0  0  0  0  0
   10.0454  -16.4724   25.1707 N   0  0  0  0  0  0  0  0  0  0  0  0
   10.2886  -17.3967   27.4113 C   0  0  0  0  0  0  0  0  0  0  0  0
    9.8849  -16.1748   27.9116 O   0  0  0  0  0  0  0  0  0  0  0  0
   10.5288  -18.3158   28.2240 O   0  0  0  0  0  0  0  0  0  0  0  0
  2  1  1  6
  2  7  1  0
  3  2  1  0
  4  3  1  0
  4  5  1  0
  5  6  2  0
  7  8  2  0
  9  5  1  0
 10 11  1  0
 11 12  1  0
 12 13  1  0
 14 13  1  1
 14 16  1  0
 15  7  1  0
 15 14  1  0
 16 17  2  0
 19 18  1  1
 19 21  1  0
 20 19  1  0
 20 16  1  0
 21 22  1  0
 23 21  2  0
M  END
$$$$
