EMA.pdb
     RDKit          3D

 23 22  0  0  1  0  0  0  0  0999 V2000
    7.2660  -17.3634   21.3113 N   0  0  0  0  0  0  0  0  0  0  0  0
    8.6892  -17.2481   21.1906 C   0  0  1  0  0  0  0  0  0  0  0  0
    9.1172  -16.5519   19.9473 C   0  0  0  0  0  0  0  0  0  0  0  0
    8.6727  -17.1678   18.6676 C   0  0  0  0  0  0  0  0  0  0  0  0
    9.0572  -16.4994   17.4244 C   0  0  0  0  0  0  0  0  0  0  0  0
    8.2319  -16.2503   16.5301 O   0  0  0  0  0  0  0  0  0  0  0  0
    9.1843  -16.5239   22.4178 C   0  0  0  0  0  0  0  0  0  0  0  0
   10.4006  -16.2420   22.4973 O   0  0  0  0  0  0  0  0  0  0  0  0
   10.3718  -16.1023   17.1692 O   0  0  0  0  0  0  0  0  0  0  0  0
    7.0020  -11.8692   27.1300 C   0  0  0  0  0  0  0  0  0  0  0  0
    6.2737  -12.5188   25.6139 S   0  0  0  0  0  0  0  0  0  0  0  0
    7.4264  -13.5726   24.7113 C   0  0  0  0  0  0  0  0  0  0  0  0
    7.7804  -14.8271   25.4678 C   0  0  0  0  0  0  0  0  0  0  0  0
    8.8150  -15.6617   24.7543 C   0  0  2  0  0  0  0  0  0  0  0  0
    8.3483  -16.1461   23.4840 N   0  0  0  0  0  0  0  0  0  0  0  0
    9.1998  -16.7611   25.6774 C   0  0  0  0  0  0  0  0  0  0  0  0
    8.3091  -17.5648   26.0440 O   0  0  0  0  0  0  0  0  0  0  0  0
   12.3555  -18.3745   26.6803 C   0  0  0  0  0  0  0  0  0  0  0  0
   10.9162  -18.0577   27.0274 C   0  0  2  0  0  0  0  0  0  0  0  0
   10.5127  -16.9584   26.1706 N   0  0  0  0  0  0  0  0  0  0  0  0
   10.8291  -17.6948   28.4709 C   0  0  0  0  0  0  0  0  0  0  0  0
   10.4311  -16.4379   28.8808 O   0  0  0  0  0  0  0  0  0  0  0  0
   11.1192  -18.5364   29.3487 O   0  0  0  0  0  0  0  0  0  0  0  0
  2  1  1  1
  2  7  1  0
  3  2  1  0
  4  3  1  0
  4  5  1  0
  5  6  2  0
  7  8  2  0
  9  5  1  0
 10 11  1  0
 11 12  1  0
 12 13  1  0
 14 13  1  1
 14 16  1  0
 15  7  1  0
 15 14  1  0
 16 17  2  0
 19 18  1  6
 19 21  1  0
 20 19  1  0
 20 16  1  0
 21 22  1  0
 23 21  2  0
M  END
$$$$
