EMA.pdb
     RDKit          3D

 23 22  0  0  1  0  0  0  0  0999 V2000
    7.2176  -17.6534   20.6643 N   0  0  0  0  0  0  0  0  0  0  0  0
    8.6411  -17.5043   20.5965 C   0  0  1  0  0  0  0  0  0  0  0  0
    9.1204  -17.0579   19.2605 C   0  0  0  0  0  0  0  0  0  0  0  0
    8.2262  -16.1233   18.5244 C   0  0  0  0  0  0  0  0  0  0  0  0
    8.5866  -15.7838   17.1479 C   0  0  0  0  0  0  0  0  0  0  0  0
    9.6316  -16.1997   16.6208 O   0  0  0  0  0  0  0  0  0  0  0  0
    9.0395  -16.5251   21.6726 C   0  0  0  0  0  0  0  0  0  0  0  0
   10.2441  -16.2029   21.7736 O   0  0  0  0  0  0  0  0  0  0  0  0
    7.7793  -14.9737   16.3459 O   0  0  0  0  0  0  0  0  0  0  0  0
    7.0029  -11.4992   27.5027 C   0  0  0  0  0  0  0  0  0  0  0  0
    6.4532  -12.5395   26.1365 S   0  0  0  0  0  0  0  0  0  0  0  0
    7.7756  -13.6043   25.5270 C   0  0  0  0  0  0  0  0  0  0  0  0
    7.3865  -14.3576   24.2810 C   0  0  0  0  0  0  0  0  0  0  0  0
    8.4935  -15.2475   23.7723 C   0  0  2  0  0  0  0  0  0  0  0  0
    8.1251  -15.9511   22.5742 N   0  0  0  0  0  0  0  0  0  0  0  0
    8.8596  -16.1650   24.8827 C   0  0  0  0  0  0  0  0  0  0  0  0
    7.9741  -16.9302   25.3342 O   0  0  0  0  0  0  0  0  0  0  0  0
   12.0462  -17.4663   26.1944 C   0  0  0  0  0  0  0  0  0  0  0  0
   10.5701  -17.2266   26.4309 C   0  0  2  0  0  0  0  0  0  0  0  0
   10.1493  -16.2294   25.4646 N   0  0  0  0  0  0  0  0  0  0  0  0
   10.3684  -16.7589   27.8321 C   0  0  0  0  0  0  0  0  0  0  0  0
   10.5564  -17.5984   28.9119 O   0  0  0  0  0  0  0  0  0  0  0  0
   10.0206  -15.5792   28.0566 O   0  0  0  0  0  0  0  0  0  0  0  0
  2  1  1  6
  2  7  1  0
  3  2  1  0
  4  3  1  0
  4  5  1  0
  5  6  2  0
  7  8  2  0
  9  5  1  0
 10 11  1  0
 11 12  1  0
 12 13  1  0
 14 13  1  1
 14 16  1  0
 15  7  1  0
 15 14  1  0
 16 17  2  0
 19 18  1  1
 19 21  1  0
 20 19  1  0
 20 16  1  0
 21 22  1  0
 23 21  2  0
M  END
$$$$
