EMA.pdb
     RDKit          3D

 23 22  0  0  1  0  0  0  0  0999 V2000
    8.3228  -17.8288   21.6090 N   0  0  0  0  0  0  0  0  0  0  0  0
    9.6283  -17.2401   21.5606 C   0  0  1  0  0  0  0  0  0  0  0  0
    9.9887  -16.7243   20.2123 C   0  0  0  0  0  0  0  0  0  0  0  0
    9.0134  -17.0039   19.1237 C   0  0  0  0  0  0  0  0  0  0  0  0
    9.2866  -16.4310   17.8056 C   0  0  0  0  0  0  0  0  0  0  0  0
    8.5252  -15.6030   17.2787 O   0  0  0  0  0  0  0  0  0  0  0  0
    9.6600  -16.1388   22.5910 C   0  0  0  0  0  0  0  0  0  0  0  0
   10.5974  -15.3111   22.5547 O   0  0  0  0  0  0  0  0  0  0  0  0
   10.4168  -16.7798   17.0627 O   0  0  0  0  0  0  0  0  0  0  0  0
    6.1090  -11.1214   25.2523 C   0  0  0  0  0  0  0  0  0  0  0  0
    6.1127  -12.4938   26.4217 S   0  0  0  0  0  0  0  0  0  0  0  0
    7.5847  -13.5219   26.2481 C   0  0  0  0  0  0  0  0  0  0  0  0
    7.4636  -14.5250   25.1299 C   0  0  0  0  0  0  0  0  0  0  0  0
    8.7982  -15.0910   24.7120 C   0  0  2  0  0  0  0  0  0  0  0  0
    8.6875  -15.9907   23.5964 N   0  0  0  0  0  0  0  0  0  0  0  0
    9.3908  -15.7395   25.9108 C   0  0  0  0  0  0  0  0  0  0  0  0
    9.1287  -16.9482   26.1200 O   0  0  0  0  0  0  0  0  0  0  0  0
   11.4298  -14.6207   28.8410 C   0  0  0  0  0  0  0  0  0  0  0  0
   10.9255  -15.7233   27.9342 C   0  0  2  0  0  0  0  0  0  0  0  0
   10.2351  -15.0760   26.8344 N   0  0  0  0  0  0  0  0  0  0  0  0
   10.0170  -16.6167   28.7084 C   0  0  0  0  0  0  0  0  0  0  0  0
   10.5058  -17.5847   29.5632 O   0  0  0  0  0  0  0  0  0  0  0  0
    8.7773  -16.5022   28.5954 O   0  0  0  0  0  0  0  0  0  0  0  0
  2  1  1  6
  2  7  1  0
  3  2  1  0
  4  3  1  0
  4  5  1  0
  5  6  2  0
  7  8  2  0
  9  5  1  0
 10 11  1  0
 11 12  1  0
 12 13  1  0
 14 13  1  1
 14 16  1  0
 15  7  1  0
 15 14  1  0
 16 17  2  0
 19 18  1  1
 19 21  1  0
 20 19  1  0
 20 16  1  0
 21 22  1  0
 23 21  2  0
M  END
$$$$
