EMA.pdb
     RDKit          3D

 23 22  0  0  1  0  0  0  0  0999 V2000
    7.8699  -14.8151   19.0389 N   0  0  0  0  0  0  0  0  0  0  0  0
    7.0645  -15.2434   20.1440 C   0  0  1  0  0  0  0  0  0  0  0  0
    6.6582  -16.6719   20.0539 C   0  0  0  0  0  0  0  0  0  0  0  0
    7.7354  -17.6730   20.2819 C   0  0  0  0  0  0  0  0  0  0  0  0
    7.3677  -19.0880   20.2279 C   0  0  0  0  0  0  0  0  0  0  0  0
    6.1872  -19.4559   20.1108 O   0  0  0  0  0  0  0  0  0  0  0  0
    7.8554  -14.9808   21.4014 C   0  0  0  0  0  0  0  0  0  0  0  0
    9.0928  -15.1642   21.3803 O   0  0  0  0  0  0  0  0  0  0  0  0
    8.3197  -20.1073   20.3048 O   0  0  0  0  0  0  0  0  0  0  0  0
    6.0143  -11.1091   26.7485 C   0  0  0  0  0  0  0  0  0  0  0  0
    6.9138  -12.5316   27.3953 S   0  0  0  0  0  0  0  0  0  0  0  0
    7.9287  -13.3187   26.1287 C   0  0  0  0  0  0  0  0  0  0  0  0
    7.1504  -13.6414   24.8790 C   0  0  0  0  0  0  0  0  0  0  0  0
    8.0000  -14.3020   23.8216 C   0  0  2  0  0  0  0  0  0  0  0  0
    7.2743  -14.5384   22.6035 N   0  0  0  0  0  0  0  0  0  0  0  0
    8.5400  -15.5528   24.4155 C   0  0  0  0  0  0  0  0  0  0  0  0
    7.7245  -16.4095   24.8333 O   0  0  0  0  0  0  0  0  0  0  0  0
   11.9212  -17.1244   24.6359 C   0  0  0  0  0  0  0  0  0  0  0  0
   10.4645  -17.0848   25.0469 C   0  0  2  0  0  0  0  0  0  0  0  0
    9.9216  -15.8385   24.5398 N   0  0  0  0  0  0  0  0  0  0  0  0
   10.3728  -17.1641   26.5329 C   0  0  0  0  0  0  0  0  0  0  0  0
    9.8298  -16.1397   27.2826 O   0  0  0  0  0  0  0  0  0  0  0  0
   10.7925  -18.1762   27.1350 O   0  0  0  0  0  0  0  0  0  0  0  0
  2  1  1  6
  2  7  1  0
  3  2  1  0
  4  3  1  0
  4  5  1  0
  5  6  2  0
  7  8  2  0
  9  5  1  0
 10 11  1  0
 11 12  1  0
 12 13  1  0
 14 13  1  1
 14 16  1  0
 15  7  1  0
 15 14  1  0
 16 17  2  0
 19 18  1  1
 19 21  1  0
 20 19  1  0
 20 16  1  0
 21 22  1  0
 23 21  2  0
M  END
$$$$
