EMA.pdb
     RDKit          3D

 23 22  0  0  1  0  0  0  0  0999 V2000
    9.9574  -16.0957   19.4982 N   0  0  0  0  0  0  0  0  0  0  0  0
    8.7377  -16.1984   20.2432 C   0  0  1  0  0  0  0  0  0  0  0  0
    8.1245  -17.5526   20.1794 C   0  0  0  0  0  0  0  0  0  0  0  0
    8.9983  -18.6853   20.5893 C   0  0  0  0  0  0  0  0  0  0  0  0
    8.4458  -20.0365   20.4929 C   0  0  0  0  0  0  0  0  0  0  0  0
    7.2943  -20.2472   20.0777 O   0  0  0  0  0  0  0  0  0  0  0  0
    9.0497  -15.8088   21.6667 C   0  0  0  0  0  0  0  0  0  0  0  0
   10.2092  -15.9941   22.0984 O   0  0  0  0  0  0  0  0  0  0  0  0
    9.1781  -21.1675   20.8610 O   0  0  0  0  0  0  0  0  0  0  0  0
    7.4069  -11.5185   27.9370 C   0  0  0  0  0  0  0  0  0  0  0  0
    6.9653  -12.0700   26.2781 S   0  0  0  0  0  0  0  0  0  0  0  0
    7.4870  -13.7695   25.9728 C   0  0  0  0  0  0  0  0  0  0  0  0
    7.1831  -14.2267   24.5692 C   0  0  0  0  0  0  0  0  0  0  0  0
    8.3593  -14.9074   23.9140 C   0  0  2  0  0  0  0  0  0  0  0  0
    8.1024  -15.2453   22.5406 N   0  0  0  0  0  0  0  0  0  0  0  0
    8.6906  -16.0968   24.7414 C   0  0  0  0  0  0  0  0  0  0  0  0
    7.8512  -17.0270   24.8031 O   0  0  0  0  0  0  0  0  0  0  0  0
   11.6921  -17.7615   25.8462 C   0  0  0  0  0  0  0  0  0  0  0  0
   10.2649  -17.4270   26.2252 C   0  0  2  0  0  0  0  0  0  0  0  0
    9.8978  -16.2457   25.4669 N   0  0  0  0  0  0  0  0  0  0  0  0
   10.1923  -17.1858   27.6947 C   0  0  0  0  0  0  0  0  0  0  0  0
   10.4727  -18.1819   28.6087 O   0  0  0  0  0  0  0  0  0  0  0  0
    9.8716  -16.0590   28.1312 O   0  0  0  0  0  0  0  0  0  0  0  0
  2  1  1  6
  2  7  1  0
  3  2  1  0
  4  3  1  0
  4  5  1  0
  5  6  2  0
  7  8  2  0
  9  5  1  0
 10 11  1  0
 11 12  1  0
 12 13  1  0
 14 13  1  1
 14 16  1  0
 15  7  1  0
 15 14  1  0
 16 17  2  0
 19 18  1  6
 19 21  1  0
 20 19  1  0
 20 16  1  0
 21 22  1  0
 23 21  2  0
M  END
$$$$
