EMA.pdb
     RDKit          3D

 23 22  0  0  1  0  0  0  0  0999 V2000
    6.8384  -16.4535   20.3346 N   0  0  0  0  0  0  0  0  0  0  0  0
    8.2708  -16.4876   20.3204 C   0  0  1  0  0  0  0  0  0  0  0  0
    8.8601  -15.8476   19.1134 C   0  0  0  0  0  0  0  0  0  0  0  0
    8.0098  -15.8493   17.8921 C   0  0  0  0  0  0  0  0  0  0  0  0
    8.6074  -16.3425   16.6512 C   0  0  0  0  0  0  0  0  0  0  0  0
    9.8338  -16.3147   16.4564 O   0  0  0  0  0  0  0  0  0  0  0  0
    8.7462  -15.8110   21.5821 C   0  0  0  0  0  0  0  0  0  0  0  0
    9.9769  -15.7331   21.7931 O   0  0  0  0  0  0  0  0  0  0  0  0
    7.8368  -16.8728   15.6139 O   0  0  0  0  0  0  0  0  0  0  0  0
    6.9374  -11.8117   28.2533 C   0  0  0  0  0  0  0  0  0  0  0  0
    6.3569  -12.5209   26.7005 S   0  0  0  0  0  0  0  0  0  0  0  0
    7.6494  -13.4623   25.8657 C   0  0  0  0  0  0  0  0  0  0  0  0
    7.2008  -14.0110   24.5357 C   0  0  0  0  0  0  0  0  0  0  0  0
    8.2799  -14.8059   23.8429 C   0  0  2  0  0  0  0  0  0  0  0  0
    7.8763  -15.2597   22.5401 N   0  0  0  0  0  0  0  0  0  0  0  0
    8.6455  -15.9259   24.7490 C   0  0  0  0  0  0  0  0  0  0  0  0
    7.7796  -16.8022   24.9855 O   0  0  0  0  0  0  0  0  0  0  0  0
   11.6781  -17.6441   25.6011 C   0  0  0  0  0  0  0  0  0  0  0  0
   10.3307  -17.2163   26.1433 C   0  0  2  0  0  0  0  0  0  0  0  0
    9.9136  -16.0657   25.3639 N   0  0  0  0  0  0  0  0  0  0  0  0
   10.4684  -16.8839   27.5902 C   0  0  0  0  0  0  0  0  0  0  0  0
   10.7754  -17.8471   28.5305 O   0  0  0  0  0  0  0  0  0  0  0  0
   10.3061  -15.7080   27.9827 O   0  0  0  0  0  0  0  0  0  0  0  0
  2  1  1  6
  2  7  1  0
  3  2  1  0
  4  3  1  0
  4  5  1  0
  5  6  2  0
  7  8  2  0
  9  5  1  0
 10 11  1  0
 11 12  1  0
 12 13  1  0
 14 13  1  1
 14 16  1  0
 15  7  1  0
 15 14  1  0
 16 17  2  0
 19 18  1  6
 19 21  1  0
 20 19  1  0
 20 16  1  0
 21 22  1  0
 23 21  2  0
M  END
$$$$
