EMA.pdb
     RDKit          3D

 23 22  0  0  1  0  0  0  0  0999 V2000
   10.4040  -15.8637   20.2575 N   0  0  0  0  0  0  0  0  0  0  0  0
    9.6693  -16.5692   21.2654 C   0  0  1  0  0  0  0  0  0  0  0  0
   10.2102  -17.9274   21.5419 C   0  0  0  0  0  0  0  0  0  0  0  0
   11.6653  -18.0020   21.8445 C   0  0  0  0  0  0  0  0  0  0  0  0
   12.2332  -19.3217   22.1202 C   0  0  0  0  0  0  0  0  0  0  0  0
   11.5391  -20.3516   22.1056 O   0  0  0  0  0  0  0  0  0  0  0  0
    9.6828  -15.7146   22.5084 C   0  0  0  0  0  0  0  0  0  0  0  0
   10.6957  -15.0202   22.7472 O   0  0  0  0  0  0  0  0  0  0  0  0
   13.5865  -19.5021   22.4157 O   0  0  0  0  0  0  0  0  0  0  0  0
    6.2272  -10.8990   27.1388 C   0  0  0  0  0  0  0  0  0  0  0  0
    6.1938  -12.1250   25.8172 S   0  0  0  0  0  0  0  0  0  0  0  0
    7.1563  -13.5921   26.2356 C   0  0  0  0  0  0  0  0  0  0  0  0
    7.1962  -14.5992   25.1151 C   0  0  0  0  0  0  0  0  0  0  0  0
    8.5950  -14.8441   24.6055 C   0  0  2  0  0  0  0  0  0  0  0  0
    8.6125  -15.6555   23.4191 N   0  0  0  0  0  0  0  0  0  0  0  0
    9.3654  -15.4505   25.7225 C   0  0  0  0  0  0  0  0  0  0  0  0
    9.4583  -16.7007   25.7668 O   0  0  0  0  0  0  0  0  0  0  0  0
   10.9983  -14.1878   28.8415 C   0  0  0  0  0  0  0  0  0  0  0  0
   10.8070  -15.2757   27.8060 C   0  0  2  0  0  0  0  0  0  0  0  0
   10.0026  -14.7029   26.7428 N   0  0  0  0  0  0  0  0  0  0  0  0
   10.1328  -16.4437   28.4418 C   0  0  0  0  0  0  0  0  0  0  0  0
   10.8236  -17.3366   29.2365 O   0  0  0  0  0  0  0  0  0  0  0  0
    8.9106  -16.6369   28.2637 O   0  0  0  0  0  0  0  0  0  0  0  0
  2  1  1  6
  2  7  1  0
  3  2  1  0
  4  3  1  0
  4  5  1  0
  5  6  2  0
  7  8  2  0
  9  5  1  0
 10 11  1  0
 11 12  1  0
 12 13  1  0
 14 13  1  1
 14 16  1  0
 15  7  1  0
 15 14  1  0
 16 17  2  0
 19 18  1  1
 19 21  1  0
 20 19  1  0
 20 16  1  0
 21 22  1  0
 23 21  2  0
M  END
$$$$
