FIV.pdb
     RDKit          3D

 27 27  0  0  1  0  0  0  0  0999 V2000
    8.5662  -17.4053   15.7368 N   0  0  0  0  0  0  0  0  0  0  0  0
    7.9235  -17.4128   17.0361 C   0  0  1  0  0  0  0  0  0  0  0  0
    7.8593  -18.8695   17.4774 C   0  0  0  0  0  0  0  0  0  0  0  0
    6.8237  -19.5474   16.6846 C   0  0  0  0  0  0  0  0  0  0  0  0
    5.4947  -19.3226   16.9504 C   0  0  0  0  0  0  0  0  0  0  0  0
    4.5357  -19.9574   16.2079 C   0  0  0  0  0  0  0  0  0  0  0  0
    4.9074  -20.8214   15.1946 C   0  0  0  0  0  0  0  0  0  0  0  0
    6.2464  -21.0564   14.9167 C   0  0  0  0  0  0  0  0  0  0  0  0
    7.1892  -20.4084   15.6747 C   0  0  0  0  0  0  0  0  0  0  0  0
    8.8286  -16.7262   17.9881 C   0  0  0  0  0  0  0  0  0  0  0  0
   10.0614  -16.7207   17.8109 O   0  0  0  0  0  0  0  0  0  0  0  0
    6.5862  -13.4187   22.0786 C   0  0  0  0  0  0  0  0  0  0  0  0
    7.3332  -14.5350   21.4276 C   0  0  0  0  0  0  0  0  0  0  0  0
    8.4374  -14.0914   20.5103 C   0  0  2  0  0  0  0  0  0  0  0  0
    7.9540  -13.2377   19.3818 C   0  0  0  0  0  0  0  0  0  0  0  0
    9.2234  -15.2947   20.0361 C   0  0  2  0  0  0  0  0  0  0  0  0
    8.3562  -16.0403   19.1466 N   0  0  0  0  0  0  0  0  0  0  0  0
    9.7005  -16.1217   21.1722 C   0  0  0  0  0  0  0  0  0  0  0  0
    8.9239  -17.0085   21.6135 O   0  0  0  0  0  0  0  0  0  0  0  0
   13.7440  -16.2914   22.3651 C   0  0  0  0  0  0  0  0  0  0  0  0
   12.7638  -17.4300   22.5464 C   0  0  2  0  0  0  0  0  0  0  0  0
   12.7165  -18.3000   21.3061 C   0  0  0  0  0  0  0  0  0  0  0  0
   11.3677  -16.9216   22.8237 C   0  0  2  0  0  0  0  0  0  0  0  0
   10.9579  -15.9828   21.7882 N   0  0  0  0  0  0  0  0  0  0  0  0
   11.3993  -16.2220   24.1436 C   0  0  0  0  0  0  0  0  0  0  0  0
   11.6423  -16.8480   25.2072 O   0  0  0  0  0  0  0  0  0  0  0  0
   11.1626  -14.8605   24.2442 O   0  0  0  0  0  0  0  0  0  0  0  0
  2  1  1  6
  3  2  1  0
  4  5  2  0
  4  3  1  0
  6  5  1  0
  7  6  2  0
  8  7  1  0
  8  9  2  0
  9  4  1  0
 10 17  1  0
 10  2  1  0
 11 10  2  0
 13 14  1  0
 13 12  1  0
 14 16  1  0
 14 15  1  6
 16 17  1  6
 18 16  1  0
 19 18  2  0
 21 20  1  6
 21 23  1  0
 22 21  1  0
 23 25  1  0
 23 24  1  6
 24 18  1  0
 25 27  1  0
 26 25  2  0
M  END
$$$$
