FIV.pdb
     RDKit          3D

 27 27  0  0  1  0  0  0  0  0999 V2000
    5.1134  -17.6886   25.1797 N   0  0  0  0  0  0  0  0  0  0  0  0
    5.7546  -16.3885   25.1899 C   0  0  1  0  0  0  0  0  0  0  0  0
    6.0482  -16.0635   26.6490 C   0  0  0  0  0  0  0  0  0  0  0  0
    6.4960  -14.6659   26.7302 C   0  0  0  0  0  0  0  0  0  0  0  0
    7.8293  -14.3778   26.8946 C   0  0  0  0  0  0  0  0  0  0  0  0
    8.2391  -13.0738   26.9694 C   0  0  0  0  0  0  0  0  0  0  0  0
    7.3113  -12.0528   26.8792 C   0  0  0  0  0  0  0  0  0  0  0  0
    5.9622  -12.3313   26.7131 C   0  0  0  0  0  0  0  0  0  0  0  0
    5.5758  -13.6462   26.6409 C   0  0  0  0  0  0  0  0  0  0  0  0
    7.0690  -16.5316   24.5199 C   0  0  0  0  0  0  0  0  0  0  0  0
    7.7844  -17.5318   24.7176 O   0  0  0  0  0  0  0  0  0  0  0  0
    7.4596  -14.3033   19.7472 C   0  0  0  0  0  0  0  0  0  0  0  0
    7.6375  -15.1286   20.9782 C   0  0  0  0  0  0  0  0  0  0  0  0
    8.8789  -14.8128   21.7633 C   0  0  2  0  0  0  0  0  0  0  0  0
   10.1314  -14.9459   20.9575 C   0  0  0  0  0  0  0  0  0  0  0  0
    8.9089  -15.6421   23.0290 C   0  0  2  0  0  0  0  0  0  0  0  0
    7.5903  -15.5524   23.6226 N   0  0  0  0  0  0  0  0  0  0  0  0
    9.9713  -15.1860   23.9595 C   0  0  0  0  0  0  0  0  0  0  0  0
   10.3999  -14.0104   23.8226 O   0  0  0  0  0  0  0  0  0  0  0  0
   10.3589  -16.2034   27.8266 C   0  0  0  0  0  0  0  0  0  0  0  0
   11.0933  -15.0571   27.1655 C   0  0  2  0  0  0  0  0  0  0  0  0
   10.1819  -13.8567   27.0060 C   0  0  0  0  0  0  0  0  0  0  0  0
   11.6123  -15.4446   25.7999 C   0  0  2  0  0  0  0  0  0  0  0  0
   10.5307  -15.9752   24.9812 N   0  0  0  0  0  0  0  0  0  0  0  0
   12.6494  -16.5018   25.9978 C   0  0  0  0  0  0  0  0  0  0  0  0
   12.4563  -17.6841   25.6143 O   0  0  0  0  0  0  0  0  0  0  0  0
   13.8600  -16.2191   26.6100 O   0  0  0  0  0  0  0  0  0  0  0  0
  2  1  1  1
  3  2  1  0
  4  5  2  0
  4  3  1  0
  6  5  1  0
  7  6  2  0
  8  7  1  0
  8  9  2  0
  9  4  1  0
 10 17  1  0
 10  2  1  0
 11 10  2  0
 13 14  1  0
 13 12  1  0
 14 16  1  0
 14 15  1  6
 16 17  1  1
 18 16  1  0
 19 18  2  0
 21 20  1  6
 21 23  1  0
 22 21  1  0
 23 25  1  0
 23 24  1  6
 24 18  1  0
 25 27  1  0
 26 25  2  0
M  END
$$$$
