FIV.pdb
     RDKit          3D

 27 27  0  0  1  0  0  0  0  0999 V2000
    5.3760  -17.5988   25.2620 N   0  0  0  0  0  0  0  0  0  0  0  0
    6.0099  -16.3011   25.1367 C   0  0  1  0  0  0  0  0  0  0  0  0
    6.6489  -16.0009   26.4867 C   0  0  0  0  0  0  0  0  0  0  0  0
    6.8238  -14.5460   26.6018 C   0  0  0  0  0  0  0  0  0  0  0  0
    8.0804  -14.0131   26.7590 C   0  0  0  0  0  0  0  0  0  0  0  0
    8.2356  -12.6572   26.8656 C   0  0  0  0  0  0  0  0  0  0  0  0
    7.1291  -11.8300   26.8148 C   0  0  0  0  0  0  0  0  0  0  0  0
    5.8550  -12.3564   26.6565 C   0  0  0  0  0  0  0  0  0  0  0  0
    5.7249  -13.7186   26.5519 C   0  0  0  0  0  0  0  0  0  0  0  0
    7.1229  -16.4374   24.1674 C   0  0  0  0  0  0  0  0  0  0  0  0
    7.8071  -17.4771   24.1182 O   0  0  0  0  0  0  0  0  0  0  0  0
    6.9321  -12.8283   20.0809 C   0  0  0  0  0  0  0  0  0  0  0  0
    7.0930  -14.0722   20.8902 C   0  0  0  0  0  0  0  0  0  0  0  0
    8.4890  -14.3098   21.3924 C   0  0  2  0  0  0  0  0  0  0  0  0
    9.5081  -14.3391   20.2986 C   0  0  0  0  0  0  0  0  0  0  0  0
    8.5190  -15.5560   22.2508 C   0  0  2  0  0  0  0  0  0  0  0  0
    7.4763  -15.4073   23.2457 N   0  0  0  0  0  0  0  0  0  0  0  0
    9.8523  -15.7661   22.8677 C   0  0  0  0  0  0  0  0  0  0  0  0
   10.2754  -14.8804   23.6557 O   0  0  0  0  0  0  0  0  0  0  0  0
   10.9608  -18.7658   24.8938 C   0  0  0  0  0  0  0  0  0  0  0  0
   12.0518  -18.4452   23.8953 C   0  0  2  0  0  0  0  0  0  0  0  0
   13.4203  -18.5929   24.5298 C   0  0  0  0  0  0  0  0  0  0  0  0
   11.9229  -17.0353   23.3661 C   0  0  2  0  0  0  0  0  0  0  0  0
   10.6736  -16.8841   22.6328 N   0  0  0  0  0  0  0  0  0  0  0  0
   13.0727  -16.7961   22.4425 C   0  0  0  0  0  0  0  0  0  0  0  0
   13.0481  -17.2029   21.2525 O   0  0  0  0  0  0  0  0  0  0  0  0
   14.2063  -16.1187   22.8621 O   0  0  0  0  0  0  0  0  0  0  0  0
  2  1  1  1
  3  2  1  0
  4  5  2  0
  4  3  1  0
  6  5  1  0
  7  6  2  0
  8  7  1  0
  8  9  2  0
  9  4  1  0
 10 17  1  0
 10  2  1  0
 11 10  2  0
 13 14  1  0
 13 12  1  0
 14 16  1  0
 14 15  1  6
 16 17  1  1
 18 16  1  0
 19 18  2  0
 21 20  1  1
 21 23  1  0
 22 21  1  0
 23 25  1  0
 23 24  1  6
 24 18  1  0
 25 27  1  0
 26 25  2  0
M  END
$$$$
