FIV.pdb
     RDKit          3D

 27 27  0  0  1  0  0  0  0  0999 V2000
    5.1331  -17.5777   24.9144 N   0  0  0  0  0  0  0  0  0  0  0  0
    5.7631  -16.2724   24.8866 C   0  0  1  0  0  0  0  0  0  0  0  0
    6.2400  -15.9930   26.3062 C   0  0  0  0  0  0  0  0  0  0  0  0
    6.4614  -14.5464   26.4430 C   0  0  0  0  0  0  0  0  0  0  0  0
    5.4115  -13.6718   26.2993 C   0  0  0  0  0  0  0  0  0  0  0  0
    5.6251  -12.3258   26.4281 C   0  0  0  0  0  0  0  0  0  0  0  0
    6.8947  -11.8518   26.7019 C   0  0  0  0  0  0  0  0  0  0  0  0
    7.9628  -12.7252   26.8492 C   0  0  0  0  0  0  0  0  0  0  0  0
    7.7237  -14.0700   26.7156 C   0  0  0  0  0  0  0  0  0  0  0  0
    6.9813  -16.3803   24.0490 C   0  0  0  0  0  0  0  0  0  0  0  0
    7.6892  -17.4047   24.0752 O   0  0  0  0  0  0  0  0  0  0  0  0
    7.1845  -12.7394   19.9813 C   0  0  0  0  0  0  0  0  0  0  0  0
    7.2839  -14.0055   20.7656 C   0  0  0  0  0  0  0  0  0  0  0  0
    8.6048  -14.2085   21.4522 C   0  0  2  0  0  0  0  0  0  0  0  0
    9.7644  -14.1913   20.5084 C   0  0  0  0  0  0  0  0  0  0  0  0
    8.5565  -15.4656   22.2936 C   0  0  2  0  0  0  0  0  0  0  0  0
    7.4140  -15.3385   23.1755 N   0  0  0  0  0  0  0  0  0  0  0  0
    9.8197  -15.6729   23.0443 C   0  0  0  0  0  0  0  0  0  0  0  0
   10.1479  -14.7959   23.8855 O   0  0  0  0  0  0  0  0  0  0  0  0
   10.9070  -18.2688   25.4491 C   0  0  0  0  0  0  0  0  0  0  0  0
   11.9822  -18.1739   24.3884 C   0  0  2  0  0  0  0  0  0  0  0  0
   13.3598  -18.2970   25.0082 C   0  0  0  0  0  0  0  0  0  0  0  0
   11.9120  -16.8609   23.6430 C   0  0  2  0  0  0  0  0  0  0  0  0
   10.6734  -16.7794   22.8808 N   0  0  0  0  0  0  0  0  0  0  0  0
   13.0752  -16.8142   22.7064 C   0  0  0  0  0  0  0  0  0  0  0  0
   13.0054  -17.3164   21.5553 O   0  0  0  0  0  0  0  0  0  0  0  0
   14.2713  -16.2171   23.0709 O   0  0  0  0  0  0  0  0  0  0  0  0
  2  1  1  1
  3  2  1  0
  4  5  2  0
  4  3  1  0
  6  5  1  0
  7  6  2  0
  8  7  1  0
  8  9  2  0
  9  4  1  0
 10 17  1  0
 10  2  1  0
 11 10  2  0
 13 14  1  0
 13 12  1  0
 14 16  1  0
 14 15  1  6
 16 17  1  1
 18 16  1  0
 19 18  2  0
 21 20  1  1
 21 23  1  0
 22 21  1  0
 23 25  1  0
 23 24  1  6
 24 18  1  0
 25 27  1  0
 26 25  2  0
M  END
$$$$
