FIV.pdb
     RDKit          3D

 27 27  0  0  1  0  0  0  0  0999 V2000
    6.8311  -15.6365   20.5751 N   0  0  0  0  0  0  0  0  0  0  0  0
    6.3183  -15.7994   21.9212 C   0  0  1  0  0  0  0  0  0  0  0  0
    6.1134  -17.2949   22.1268 C   0  0  0  0  0  0  0  0  0  0  0  0
    4.8667  -17.6873   21.4544 C   0  0  0  0  0  0  0  0  0  0  0  0
    3.6695  -17.6137   22.1244 C   0  0  0  0  0  0  0  0  0  0  0  0
    2.5123  -17.9809   21.4918 C   0  0  0  0  0  0  0  0  0  0  0  0
    2.5524  -18.4238   20.1828 C   0  0  0  0  0  0  0  0  0  0  0  0
    3.7554  -18.5025   19.4957 C   0  0  0  0  0  0  0  0  0  0  0  0
    4.9018  -18.1290   20.1511 C   0  0  0  0  0  0  0  0  0  0  0  0
    7.3886  -15.3900   22.8614 C   0  0  0  0  0  0  0  0  0  0  0  0
    8.5901  -15.4928   22.5498 O   0  0  0  0  0  0  0  0  0  0  0  0
    6.0190  -11.6397   26.4225 C   0  0  0  0  0  0  0  0  0  0  0  0
    6.8286  -12.4870   25.4980 C   0  0  0  0  0  0  0  0  0  0  0  0
    7.5225  -13.6424   26.1622 C   0  0  2  0  0  0  0  0  0  0  0  0
    8.4919  -13.2154   27.2176 C   0  0  0  0  0  0  0  0  0  0  0  0
    8.1562  -14.5305   25.1133 C   0  0  2  0  0  0  0  0  0  0  0  0
    7.1178  -14.8620   24.1588 N   0  0  0  0  0  0  0  0  0  0  0  0
    8.7672  -15.7415   25.7153 C   0  0  0  0  0  0  0  0  0  0  0  0
    8.0112  -16.5187   26.3547 O   0  0  0  0  0  0  0  0  0  0  0  0
   11.4320  -17.9508   23.7592 C   0  0  0  0  0  0  0  0  0  0  0  0
   11.7785  -17.8281   25.2272 C   0  0  2  0  0  0  0  0  0  0  0  0
   12.2777  -19.1510   25.7731 C   0  0  0  0  0  0  0  0  0  0  0  0
   10.5830  -17.3971   26.0454 C   0  0  2  0  0  0  0  0  0  0  0  0
   10.1297  -16.0796   25.6206 N   0  0  0  0  0  0  0  0  0  0  0  0
   11.0160  -17.3362   27.4742 C   0  0  0  0  0  0  0  0  0  0  0  0
   11.1405  -18.3816   28.1624 O   0  0  0  0  0  0  0  0  0  0  0  0
   11.2958  -16.1280   28.0923 O   0  0  0  0  0  0  0  0  0  0  0  0
  2  1  1  6
  3  2  1  0
  4  5  2  0
  4  3  1  0
  6  5  1  0
  7  6  2  0
  8  7  1  0
  8  9  2  0
  9  4  1  0
 10 17  1  0
 10  2  1  0
 11 10  2  0
 13 14  1  0
 13 12  1  0
 14 16  1  0
 14 15  1  1
 16 17  1  6
 18 16  1  0
 19 18  2  0
 21 20  1  6
 21 23  1  0
 22 21  1  0
 23 25  1  0
 23 24  1  6
 24 18  1  0
 25 27  1  0
 26 25  2  0
M  END
$$$$
