FIV.pdb
     RDKit          3D

 27 27  0  0  1  0  0  0  0  0999 V2000
    5.3142  -17.8666   25.1785 N   0  0  0  0  0  0  0  0  0  0  0  0
    5.8647  -16.5271   25.1146 C   0  0  1  0  0  0  0  0  0  0  0  0
    6.3753  -16.2032   26.5128 C   0  0  0  0  0  0  0  0  0  0  0  0
    6.6681  -14.7642   26.5761 C   0  0  0  0  0  0  0  0  0  0  0  0
    7.9557  -14.3311   26.7816 C   0  0  0  0  0  0  0  0  0  0  0  0
    8.2209  -12.9894   26.8393 C   0  0  0  0  0  0  0  0  0  0  0  0
    7.1937  -12.0761   26.6909 C   0  0  0  0  0  0  0  0  0  0  0  0
    5.8894  -12.5013   26.4829 C   0  0  0  0  0  0  0  0  0  0  0  0
    5.6485  -13.8512   26.4288 C   0  0  0  0  0  0  0  0  0  0  0  0
    7.0560  -16.5735   24.2338 C   0  0  0  0  0  0  0  0  0  0  0  0
    7.8043  -17.5690   24.2188 O   0  0  0  0  0  0  0  0  0  0  0  0
    6.8493  -13.0536   20.1122 C   0  0  0  0  0  0  0  0  0  0  0  0
    7.0905  -14.2777   20.9316 C   0  0  0  0  0  0  0  0  0  0  0  0
    8.4535  -14.3453   21.5603 C   0  0  2  0  0  0  0  0  0  0  0  0
    9.5636  -14.2818   20.5606 C   0  0  0  0  0  0  0  0  0  0  0  0
    8.5443  -15.5619   22.4559 C   0  0  2  0  0  0  0  0  0  0  0  0
    7.4162  -15.5022   23.3632 N   0  0  0  0  0  0  0  0  0  0  0  0
    9.8390  -15.6161   23.1792 C   0  0  0  0  0  0  0  0  0  0  0  0
   10.1211  -14.6547   23.9411 O   0  0  0  0  0  0  0  0  0  0  0  0
   12.2133  -19.0818   23.4259 C   0  0  0  0  0  0  0  0  0  0  0  0
   12.2788  -17.9794   24.4606 C   0  0  2  0  0  0  0  0  0  0  0  0
   11.2674  -18.2181   25.5639 C   0  0  0  0  0  0  0  0  0  0  0  0
   12.0026  -16.6257   23.8474 C   0  0  2  0  0  0  0  0  0  0  0  0
   10.7703  -16.6654   23.0719 N   0  0  0  0  0  0  0  0  0  0  0  0
   13.1474  -16.3008   22.9439 C   0  0  0  0  0  0  0  0  0  0  0  0
   13.0371  -16.3910   21.6942 O   0  0  0  0  0  0  0  0  0  0  0  0
   14.3703  -15.8890   23.4486 O   0  0  0  0  0  0  0  0  0  0  0  0
  2  1  1  1
  3  2  1  0
  4  5  2  0
  4  3  1  0
  6  5  1  0
  7  6  2  0
  8  7  1  0
  8  9  2  0
  9  4  1  0
 10 17  1  0
 10  2  1  0
 11 10  2  0
 13 14  1  0
 13 12  1  0
 14 16  1  0
 14 15  1  6
 16 17  1  1
 18 16  1  0
 19 18  2  0
 21 20  1  6
 21 23  1  0
 22 21  1  0
 23 25  1  0
 23 24  1  6
 24 18  1  0
 25 27  1  0
 26 25  2  0
M  END
$$$$
