FIV.pdb
     RDKit          3D

 27 27  0  0  1  0  0  0  0  0999 V2000
    5.1767  -17.6239   25.0570 N   0  0  0  0  0  0  0  0  0  0  0  0
    5.7760  -16.3040   25.0577 C   0  0  1  0  0  0  0  0  0  0  0  0
    5.9969  -15.9311   26.5182 C   0  0  0  0  0  0  0  0  0  0  0  0
    6.1602  -14.4728   26.6032 C   0  0  0  0  0  0  0  0  0  0  0  0
    7.3905  -13.9326   26.8900 C   0  0  0  0  0  0  0  0  0  0  0  0
    7.5352  -12.5736   26.9676 C   0  0  0  0  0  0  0  0  0  0  0  0
    6.4443  -11.7505   26.7575 C   0  0  0  0  0  0  0  0  0  0  0  0
    5.1969  -12.2844   26.4673 C   0  0  0  0  0  0  0  0  0  0  0  0
    5.0769  -13.6496   26.3948 C   0  0  0  0  0  0  0  0  0  0  0  0
    7.1216  -16.4221   24.4473 C   0  0  0  0  0  0  0  0  0  0  0  0
    7.8144  -17.4436   24.6145 O   0  0  0  0  0  0  0  0  0  0  0  0
    7.8594  -13.1389   20.3200 C   0  0  0  0  0  0  0  0  0  0  0  0
    7.8803  -14.2420   21.3254 C   0  0  0  0  0  0  0  0  0  0  0  0
    9.1726  -14.3688   22.0813 C   0  0  2  0  0  0  0  0  0  0  0  0
   10.3574  -14.5562   21.1886 C   0  0  0  0  0  0  0  0  0  0  0  0
    9.0505  -15.4582   23.1248 C   0  0  2  0  0  0  0  0  0  0  0  0
    7.6997  -15.3941   23.6446 N   0  0  0  0  0  0  0  0  0  0  0  0
   10.0674  -15.3095   24.1955 C   0  0  0  0  0  0  0  0  0  0  0  0
   10.9770  -14.4572   24.0205 O   0  0  0  0  0  0  0  0  0  0  0  0
    9.5106  -13.8523   27.2628 C   0  0  0  0  0  0  0  0  0  0  0  0
   10.2405  -15.1246   27.6349 C   0  0  2  0  0  0  0  0  0  0  0  0
   11.2215  -14.8705   28.7620 C   0  0  0  0  0  0  0  0  0  0  0  0
   11.0035  -15.6907   26.4594 C   0  0  2  0  0  0  0  0  0  0  0  0
   10.0844  -16.0539   25.3894 N   0  0  0  0  0  0  0  0  0  0  0  0
   11.7186  -16.9131   26.9357 C   0  0  0  0  0  0  0  0  0  0  0  0
   12.9106  -16.8572   27.3333 O   0  0  0  0  0  0  0  0  0  0  0  0
   11.0960  -18.1508   26.9569 O   0  0  0  0  0  0  0  0  0  0  0  0
  2  1  1  1
  3  2  1  0
  4  5  2  0
  4  3  1  0
  6  5  1  0
  7  6  2  0
  8  7  1  0
  8  9  2  0
  9  4  1  0
 10 17  1  0
 10  2  1  0
 11 10  2  0
 13 14  1  0
 13 12  1  0
 14 16  1  0
 14 15  1  6
 16 17  1  1
 18 16  1  0
 19 18  2  0
 21 20  1  6
 21 23  1  0
 22 21  1  0
 23 25  1  0
 23 24  1  6
 24 18  1  0
 25 27  1  0
 26 25  2  0
M  END
$$$$
