FIV.pdb
     RDKit          3D

 27 27  0  0  1  0  0  0  0  0999 V2000
    5.2975  -17.8266   25.0629 N   0  0  0  0  0  0  0  0  0  0  0  0
    5.7547  -16.4538   24.9740 C   0  0  1  0  0  0  0  0  0  0  0  0
    5.8224  -15.9281   26.4022 C   0  0  0  0  0  0  0  0  0  0  0  0
    5.8260  -14.4590   26.3542 C   0  0  0  0  0  0  0  0  0  0  0  0
    7.0070  -13.7682   26.4795 C   0  0  0  0  0  0  0  0  0  0  0  0
    7.0028  -12.4001   26.4339 C   0  0  0  0  0  0  0  0  0  0  0  0
    5.8118  -11.7192   26.2621 C   0  0  0  0  0  0  0  0  0  0  0  0
    4.6128  -12.4058   26.1344 C   0  0  0  0  0  0  0  0  0  0  0  0
    4.6426  -13.7770   26.1833 C   0  0  0  0  0  0  0  0  0  0  0  0
    7.1483  -16.4771   24.4697 C   0  0  0  0  0  0  0  0  0  0  0  0
    7.8904  -17.4550   24.6800 O   0  0  0  0  0  0  0  0  0  0  0  0
    7.8052  -13.0775   20.4179 C   0  0  0  0  0  0  0  0  0  0  0  0
    7.8831  -14.2507   21.3374 C   0  0  0  0  0  0  0  0  0  0  0  0
    9.1412  -14.3153   22.1562 C   0  0  2  0  0  0  0  0  0  0  0  0
   10.3805  -14.3786   21.3220 C   0  0  0  0  0  0  0  0  0  0  0  0
    9.0478  -15.4538   23.1491 C   0  0  2  0  0  0  0  0  0  0  0  0
    7.7194  -15.4023   23.7252 N   0  0  0  0  0  0  0  0  0  0  0  0
   10.1079  -15.3681   24.1842 C   0  0  0  0  0  0  0  0  0  0  0  0
   10.9742  -14.4638   24.0571 O   0  0  0  0  0  0  0  0  0  0  0  0
    9.9023  -13.8952   27.0866 C   0  0  0  0  0  0  0  0  0  0  0  0
   10.4640  -15.2366   27.5053 C   0  0  2  0  0  0  0  0  0  0  0  0
   11.4580  -15.0723   28.6377 C   0  0  0  0  0  0  0  0  0  0  0  0
   11.1618  -15.9289   26.3571 C   0  0  2  0  0  0  0  0  0  0  0  0
   10.2108  -16.2261   25.2946 N   0  0  0  0  0  0  0  0  0  0  0  0
   11.7327  -17.2054   26.8835 C   0  0  0  0  0  0  0  0  0  0  0  0
   11.2085  -18.3155   26.6097 O   0  0  0  0  0  0  0  0  0  0  0  0
   12.8586  -17.2131   27.6912 O   0  0  0  0  0  0  0  0  0  0  0  0
  2  1  1  1
  3  2  1  0
  4  5  2  0
  4  3  1  0
  6  5  1  0
  7  6  2  0
  8  7  1  0
  8  9  2  0
  9  4  1  0
 10 17  1  0
 10  2  1  0
 11 10  2  0
 13 14  1  0
 13 12  1  0
 14 16  1  0
 14 15  1  6
 16 17  1  1
 18 16  1  0
 19 18  2  0
 21 20  1  6
 21 23  1  0
 22 21  1  0
 23 25  1  0
 23 24  1  6
 24 18  1  0
 25 27  1  0
 26 25  2  0
M  END
$$$$
