FIV.pdb
     RDKit          3D

 27 27  0  0  1  0  0  0  0  0999 V2000
    5.2373  -17.8651   25.0938 N   0  0  0  0  0  0  0  0  0  0  0  0
    5.6433  -16.4759   25.0106 C   0  0  1  0  0  0  0  0  0  0  0  0
    5.6958  -15.9552   26.4413 C   0  0  0  0  0  0  0  0  0  0  0  0
    5.6894  -14.4860   26.3990 C   0  0  0  0  0  0  0  0  0  0  0  0
    6.8100  -13.7811   26.7663 C   0  0  0  0  0  0  0  0  0  0  0  0
    6.7969  -12.4128   26.7244 C   0  0  0  0  0  0  0  0  0  0  0  0
    5.6577  -11.7461   26.3131 C   0  0  0  0  0  0  0  0  0  0  0  0
    4.5199  -12.4471   25.9397 C   0  0  0  0  0  0  0  0  0  0  0  0
    4.5574  -13.8181   25.9901 C   0  0  0  0  0  0  0  0  0  0  0  0
    7.0353  -16.4452   24.5023 C   0  0  0  0  0  0  0  0  0  0  0  0
    7.8451  -17.3452   24.7949 O   0  0  0  0  0  0  0  0  0  0  0  0
    7.5254  -13.1584   20.3077 C   0  0  0  0  0  0  0  0  0  0  0  0
    7.6685  -14.3164   21.2386 C   0  0  0  0  0  0  0  0  0  0  0  0
    8.9129  -14.2865   22.0800 C   0  0  2  0  0  0  0  0  0  0  0  0
   10.1690  -14.3019   21.2689 C   0  0  0  0  0  0  0  0  0  0  0  0
    8.8658  -15.4006   23.1033 C   0  0  2  0  0  0  0  0  0  0  0  0
    7.5287  -15.4037   23.6613 N   0  0  0  0  0  0  0  0  0  0  0  0
    9.9056  -15.2307   24.1484 C   0  0  0  0  0  0  0  0  0  0  0  0
   10.2828  -14.0585   24.4095 O   0  0  0  0  0  0  0  0  0  0  0  0
    9.9488  -14.1401   26.7883 C   0  0  0  0  0  0  0  0  0  0  0  0
   10.6414  -15.4379   27.1434 C   0  0  2  0  0  0  0  0  0  0  0  0
   11.6127  -15.2320   28.2885 C   0  0  0  0  0  0  0  0  0  0  0  0
   11.4061  -15.9988   25.9665 C   0  0  2  0  0  0  0  0  0  0  0  0
   10.4971  -16.2870   24.8655 N   0  0  0  0  0  0  0  0  0  0  0  0
   12.0569  -17.2659   26.4174 C   0  0  0  0  0  0  0  0  0  0  0  0
   11.5617  -18.3880   26.1382 O   0  0  0  0  0  0  0  0  0  0  0  0
   13.2276  -17.2515   27.1585 O   0  0  0  0  0  0  0  0  0  0  0  0
  2  1  1  1
  3  2  1  0
  4  5  2  0
  4  3  1  0
  6  5  1  0
  7  6  2  0
  8  7  1  0
  8  9  2  0
  9  4  1  0
 10 17  1  0
 10  2  1  0
 11 10  2  0
 13 14  1  0
 13 12  1  0
 14 16  1  0
 14 15  1  6
 16 17  1  1
 18 16  1  0
 19 18  2  0
 21 20  1  6
 21 23  1  0
 22 21  1  0
 23 25  1  0
 23 24  1  6
 24 18  1  0
 25 27  1  0
 26 25  2  0
M  END
$$$$
