HCA.pdb
     RDKit          3D

 22 22  0  0  1  0  0  0  0  0999 V2000
   28.0747  -19.9568  -13.8354 N   0  0  0  0  0  0  0  0  0  0  0  0
   27.0701  -20.7370  -13.0913 C   0  0  1  0  0  0  0  0  0  0  0  0
   27.3003  -20.6105  -11.6372 C   0  0  0  0  0  0  0  0  0  0  0  0
   28.5718  -21.1609  -11.1244 C   0  0  0  0  0  0  0  0  0  0  0  0
   29.6351  -21.7402  -11.7716 C   0  0  0  0  0  0  0  0  0  0  0  0
   30.6034  -22.0218  -10.8650 N   0  0  0  0  0  0  0  0  0  0  0  0
   30.1677  -21.6304   -9.6730 C   0  0  0  0  0  0  0  0  0  0  0  0
   28.9524  -21.1115   -9.8063 N   0  0  0  0  0  0  0  0  0  0  0  0
   25.7290  -20.1722  -13.5016 C   0  0  0  0  0  0  0  0  0  0  0  0
   25.5014  -18.9758  -13.4978 O   0  0  0  0  0  0  0  0  0  0  0  0
   24.6462  -21.0094  -13.9190 N   0  0  0  0  0  0  0  0  0  0  0  0
   23.3233  -20.5522  -14.1696 C   0  0  1  0  0  0  0  0  0  0  0  0
   22.7622  -20.9428  -15.5048 C   0  0  0  0  0  0  0  0  0  0  0  0
   21.0632  -20.4366  -15.7439 S   0  0  0  0  0  0  0  0  0  0  0  0
   22.3449  -20.9554  -13.1304 C   0  0  0  0  0  0  0  0  0  0  0  0
   22.3014  -22.1924  -12.8529 O   0  0  0  0  0  0  0  0  0  0  0  0
   20.1745  -19.3749  -10.5419 C   0  0  0  0  0  0  0  0  0  0  0  0
   20.6394  -20.5372  -11.4150 C   0  0  2  0  0  0  0  0  0  0  0  0
   21.4878  -20.0504  -12.4588 N   0  0  0  0  0  0  0  0  0  0  0  0
   19.4751  -21.3009  -11.9307 C   0  0  0  0  0  0  0  0  0  0  0  0
   19.1116  -21.0508  -13.1085 O   0  0  0  0  0  0  0  0  0  0  0  0
   18.7828  -22.2455  -11.2163 O   0  0  0  0  0  0  0  0  0  0  0  0
  2  1  1  6
  2  9  1  0
  2  3  1  0
  3  4  1  0
  4  8  1  0
  4  5  2  0
  5  6  1  0
  7  6  1  0
  8  7  2  0
  9 11  1  0
 10  9  2  0
 11 12  1  0
 12 15  1  0
 12 13  1  6
 13 14  1  0
 15 16  2  0
 15 19  1  0
 18 20  1  0
 18 17  1  6
 19 18  1  0
 20 22  1  0
 21 20  2  0
M  END
$$$$
