HCA.pdb
     RDKit          3D

 22 22  0  0  1  0  0  0  0  0999 V2000
   15.9211   -9.8269  -10.1921 N   0  0  0  0  0  0  0  0  0  0  0  0
   15.9769   -8.4395  -10.6854 C   0  0  1  0  0  0  0  0  0  0  0  0
   16.2949   -7.5159   -9.5766 C   0  0  0  0  0  0  0  0  0  0  0  0
   15.1673   -7.1230   -8.7067 C   0  0  0  0  0  0  0  0  0  0  0  0
   13.8416   -7.4798   -8.7249 C   0  0  0  0  0  0  0  0  0  0  0  0
   13.2153   -6.9046   -7.6686 N   0  0  0  0  0  0  0  0  0  0  0  0
   14.1193   -6.2019   -6.9959 C   0  0  0  0  0  0  0  0  0  0  0  0
   15.2958   -6.3196   -7.6010 N   0  0  0  0  0  0  0  0  0  0  0  0
   17.0471   -8.4288  -11.7533 C   0  0  0  0  0  0  0  0  0  0  0  0
   17.9272   -9.2695  -11.7969 O   0  0  0  0  0  0  0  0  0  0  0  0
   17.0906   -7.4302  -12.7772 N   0  0  0  0  0  0  0  0  0  0  0  0
   18.0187   -7.4191  -13.8544 C   0  0  1  0  0  0  0  0  0  0  0  0
   17.4072   -7.2475  -15.2134 C   0  0  0  0  0  0  0  0  0  0  0  0
   16.4213   -8.6453  -15.7372 S   0  0  0  0  0  0  0  0  0  0  0  0
   19.0918   -6.4058  -13.7081 C   0  0  0  0  0  0  0  0  0  0  0  0
   18.7320   -5.2683  -13.2771 O   0  0  0  0  0  0  0  0  0  0  0  0
   22.8226   -6.1709  -13.9084 C   0  0  0  0  0  0  0  0  0  0  0  0
   21.4095   -5.6030  -13.8102 C   0  0  2  0  0  0  0  0  0  0  0  0
   20.4524   -6.6456  -14.0182 N   0  0  0  0  0  0  0  0  0  0  0  0
   21.2362   -4.4684  -14.7521 C   0  0  0  0  0  0  0  0  0  0  0  0
   20.7758   -4.7431  -15.8898 O   0  0  0  0  0  0  0  0  0  0  0  0
   21.5413   -3.1620  -14.4651 O   0  0  0  0  0  0  0  0  0  0  0  0
  2  1  1  1
  2  9  1  0
  2  3  1  0
  3  4  1  0
  4  8  1  0
  4  5  2  0
  5  6  1  0
  7  6  1  0
  8  7  2  0
  9 11  1  0
 10  9  2  0
 11 12  1  0
 12 15  1  0
 12 13  1  6
 13 14  1  0
 15 16  2  0
 15 19  1  0
 18 20  1  0
 18 17  1  6
 19 18  1  0
 20 22  1  0
 21 20  2  0
M  END
$$$$
