HCA.pdb
     RDKit          3D

 22 22  0  0  1  0  0  0  0  0999 V2000
   23.3033  -11.5016  -16.6215 N   0  0  0  0  0  0  0  0  0  0  0  0
   23.3856  -10.1510  -16.0380 C   0  0  1  0  0  0  0  0  0  0  0  0
   24.6062   -9.4648  -16.5098 C   0  0  0  0  0  0  0  0  0  0  0  0
   25.8939  -10.0515  -16.0851 C   0  0  0  0  0  0  0  0  0  0  0  0
   26.1800  -11.1882  -15.3700 C   0  0  0  0  0  0  0  0  0  0  0  0
   27.5260  -11.3369  -15.2977 N   0  0  0  0  0  0  0  0  0  0  0  0
   28.0808  -10.3223  -15.9508 C   0  0  0  0  0  0  0  0  0  0  0  0
   27.1204   -9.5405  -16.4306 N   0  0  0  0  0  0  0  0  0  0  0  0
   22.1292   -9.4370  -16.4826 C   0  0  0  0  0  0  0  0  0  0  0  0
   21.5981   -9.6672  -17.5541 O   0  0  0  0  0  0  0  0  0  0  0  0
   21.4886   -8.4477  -15.6712 N   0  0  0  0  0  0  0  0  0  0  0  0
   20.2297   -7.8554  -15.9649 C   0  0  1  0  0  0  0  0  0  0  0  0
   19.0680   -8.4352  -15.2135 C   0  0  0  0  0  0  0  0  0  0  0  0
   18.9257  -10.2112  -15.3736 S   0  0  0  0  0  0  0  0  0  0  0  0
   20.2031   -6.3844  -15.7772 C   0  0  0  0  0  0  0  0  0  0  0  0
   20.7687   -5.9437  -14.7308 O   0  0  0  0  0  0  0  0  0  0  0  0
   19.2848   -3.2999  -17.6805 C   0  0  0  0  0  0  0  0  0  0  0  0
   19.6647   -4.0783  -16.4239 C   0  0  2  0  0  0  0  0  0  0  0  0
   19.5949   -5.4832  -16.6841 N   0  0  0  0  0  0  0  0  0  0  0  0
   18.8172   -3.6640  -15.2771 C   0  0  0  0  0  0  0  0  0  0  0  0
   18.9387   -2.4754  -14.8845 O   0  0  0  0  0  0  0  0  0  0  0  0
   17.9257   -4.4815  -14.6300 O   0  0  0  0  0  0  0  0  0  0  0  0
  2  1  1  6
  2  9  1  0
  2  3  1  0
  3  4  1  0
  4  8  1  0
  4  5  2  0
  5  6  1  0
  7  6  1  0
  8  7  2  0
  9 11  1  0
 10  9  2  0
 11 12  1  0
 12 15  1  0
 12 13  1  1
 13 14  1  0
 15 16  2  0
 15 19  1  0
 18 20  1  0
 18 17  1  6
 19 18  1  0
 20 22  1  0
 21 20  2  0
M  END
$$$$
