HCA.pdb
     RDKit          3D

 22 22  0  0  1  0  0  0  0  0999 V2000
   19.2093   -9.9117  -15.9356 N   0  0  0  0  0  0  0  0  0  0  0  0
   18.0923   -9.4384  -15.0992 C   0  0  1  0  0  0  0  0  0  0  0  0
   17.6033  -10.5320  -14.2341 C   0  0  0  0  0  0  0  0  0  0  0  0
   17.0171  -11.7004  -14.9227 C   0  0  0  0  0  0  0  0  0  0  0  0
   15.8132  -11.8656  -15.5619 C   0  0  0  0  0  0  0  0  0  0  0  0
   15.7664  -13.1094  -16.1001 N   0  0  0  0  0  0  0  0  0  0  0  0
   16.9109  -13.7183  -15.8118 C   0  0  0  0  0  0  0  0  0  0  0  0
   17.6747  -12.8912  -15.1071 N   0  0  0  0  0  0  0  0  0  0  0  0
   18.6462   -8.2856  -14.2927 C   0  0  0  0  0  0  0  0  0  0  0  0
   17.9953   -7.7289  -13.4269 O   0  0  0  0  0  0  0  0  0  0  0  0
   19.9685   -7.7791  -14.4983 N   0  0  0  0  0  0  0  0  0  0  0  0
   20.4844   -6.6010  -13.8919 C   0  0  1  0  0  0  0  0  0  0  0  0
   21.9160   -6.6912  -13.4531 C   0  0  0  0  0  0  0  0  0  0  0  0
   22.5726   -5.1488  -12.8286 S   0  0  0  0  0  0  0  0  0  0  0  0
   20.3423   -5.3860  -14.7306 C   0  0  0  0  0  0  0  0  0  0  0  0
   20.8710   -5.4365  -15.8825 O   0  0  0  0  0  0  0  0  0  0  0  0
   18.2971   -2.3312  -14.9770 C   0  0  0  0  0  0  0  0  0  0  0  0
   19.5993   -3.0945  -15.2030 C   0  0  2  0  0  0  0  0  0  0  0  0
   19.6657   -4.2138  -14.3148 N   0  0  0  0  0  0  0  0  0  0  0  0
   20.7665   -2.1863  -15.0705 C   0  0  0  0  0  0  0  0  0  0  0  0
   21.2657   -2.0710  -13.9219 O   0  0  0  0  0  0  0  0  0  0  0  0
   21.3251   -1.4772  -16.1035 O   0  0  0  0  0  0  0  0  0  0  0  0
  2  1  1  6
  2  9  1  0
  2  3  1  0
  3  4  1  0
  4  8  1  0
  4  5  2  0
  5  6  1  0
  7  6  1  0
  8  7  2  0
  9 11  1  0
 10  9  2  0
 11 12  1  0
 12 15  1  0
 12 13  1  6
 13 14  1  0
 15 16  2  0
 15 19  1  0
 18 20  1  0
 18 17  1  1
 19 18  1  0
 20 22  1  0
 21 20  2  0
M  END
$$$$
