HCA.pdb
     RDKit          3D

 22 22  0  0  1  0  0  0  0  0999 V2000
   17.8036  -12.0221  -16.6082 N   0  0  0  0  0  0  0  0  0  0  0  0
   18.2365  -10.7427  -17.1976 C   0  0  1  0  0  0  0  0  0  0  0  0
   17.0854  -10.0478  -17.8105 C   0  0  0  0  0  0  0  0  0  0  0  0
   16.4939  -10.6862  -19.0043 C   0  0  0  0  0  0  0  0  0  0  0  0
   16.9419  -10.7776  -20.2990 C   0  0  0  0  0  0  0  0  0  0  0  0
   16.0706  -11.5304  -21.0153 N   0  0  0  0  0  0  0  0  0  0  0  0
   15.0953  -11.9088  -20.1972 C   0  0  0  0  0  0  0  0  0  0  0  0
   15.3300  -11.4139  -18.9872 N   0  0  0  0  0  0  0  0  0  0  0  0
   18.8329   -9.9491  -16.0572 C   0  0  0  0  0  0  0  0  0  0  0  0
   18.2614   -9.8195  -14.9897 O   0  0  0  0  0  0  0  0  0  0  0  0
   20.1049   -9.3023  -16.1637 N   0  0  0  0  0  0  0  0  0  0  0  0
   20.7119   -8.5408  -15.1276 C   0  0  1  0  0  0  0  0  0  0  0  0
   22.0756   -9.0099  -14.7148 C   0  0  0  0  0  0  0  0  0  0  0  0
   22.8447   -7.9743  -13.4753 S   0  0  0  0  0  0  0  0  0  0  0  0
   20.8015   -7.0907  -15.4259 C   0  0  0  0  0  0  0  0  0  0  0  0
   21.3691   -6.7780  -16.5164 O   0  0  0  0  0  0  0  0  0  0  0  0
   19.2616   -3.9017  -14.7989 C   0  0  0  0  0  0  0  0  0  0  0  0
   20.5547   -4.7064  -14.8962 C   0  0  2  0  0  0  0  0  0  0  0  0
   20.2984   -6.0767  -14.5754 N   0  0  0  0  0  0  0  0  0  0  0  0
   21.6097   -4.1044  -14.0421 C   0  0  0  0  0  0  0  0  0  0  0  0
   21.9150   -4.7305  -12.9950 O   0  0  0  0  0  0  0  0  0  0  0  0
   22.2610   -2.9291  -14.3181 O   0  0  0  0  0  0  0  0  0  0  0  0
  2  1  1  1
  2  9  1  0
  2  3  1  0
  3  4  1  0
  4  8  1  0
  4  5  2  0
  5  6  1  0
  7  6  1  0
  8  7  2  0
  9 11  1  0
 10  9  2  0
 11 12  1  0
 12 15  1  0
 12 13  1  6
 13 14  1  0
 15 16  2  0
 15 19  1  0
 18 20  1  0
 18 17  1  1
 19 18  1  0
 20 22  1  0
 21 20  2  0
M  END
$$$$
