HCA.pdb
     RDKit          3D

 22 22  0  0  1  0  0  0  0  0999 V2000
   23.0857  -13.8566  -16.8920 N   0  0  0  0  0  0  0  0  0  0  0  0
   23.6707  -12.7503  -16.1140 C   0  0  1  0  0  0  0  0  0  0  0  0
   25.1106  -12.6180  -16.4184 C   0  0  0  0  0  0  0  0  0  0  0  0
   25.9795  -13.7267  -15.9728 C   0  0  0  0  0  0  0  0  0  0  0  0
   25.9725  -14.4780  -14.8235 C   0  0  0  0  0  0  0  0  0  0  0  0
   26.9337  -15.4304  -14.9131 N   0  0  0  0  0  0  0  0  0  0  0  0
   27.5348  -15.2892  -16.0888 C   0  0  0  0  0  0  0  0  0  0  0  0
   26.9780  -14.2741  -16.7396 N   0  0  0  0  0  0  0  0  0  0  0  0
   22.8940  -11.5158  -16.5122 C   0  0  0  0  0  0  0  0  0  0  0  0
   22.6147  -11.2724  -17.6724 O   0  0  0  0  0  0  0  0  0  0  0  0
   22.4403  -10.5589  -15.5500 N   0  0  0  0  0  0  0  0  0  0  0  0
   21.6242   -9.4346  -15.8532 C   0  0  1  0  0  0  0  0  0  0  0  0
   20.1954   -9.5537  -15.4121 C   0  0  0  0  0  0  0  0  0  0  0  0
   19.4081  -11.0722  -15.9359 S   0  0  0  0  0  0  0  0  0  0  0  0
   22.1554   -8.1523  -15.3304 C   0  0  0  0  0  0  0  0  0  0  0  0
   22.5493   -8.1601  -14.1246 O   0  0  0  0  0  0  0  0  0  0  0  0
   23.0918   -4.7597  -16.6190 C   0  0  0  0  0  0  0  0  0  0  0  0
   22.9132   -5.8270  -15.5428 C   0  0  2  0  0  0  0  0  0  0  0  0
   22.2386   -6.9622  -16.0929 N   0  0  0  0  0  0  0  0  0  0  0  0
   22.2164   -5.2632  -14.3589 C   0  0  0  0  0  0  0  0  0  0  0  0
   20.9697   -5.4206  -14.3085 O   0  0  0  0  0  0  0  0  0  0  0  0
   22.8358   -4.5931  -13.3346 O   0  0  0  0  0  0  0  0  0  0  0  0
  2  1  1  6
  2  9  1  0
  2  3  1  0
  3  4  1  0
  4  8  1  0
  4  5  2  0
  5  6  1  0
  7  6  1  0
  8  7  2  0
  9 11  1  0
 10  9  2  0
 11 12  1  0
 12 15  1  0
 12 13  1  1
 13 14  1  0
 15 16  2  0
 15 19  1  0
 18 20  1  0
 18 17  1  6
 19 18  1  0
 20 22  1  0
 21 20  2  0
M  END
$$$$
