HCA.pdb
     RDKit          3D

 22 22  0  0  1  0  0  0  0  0999 V2000
   19.4449  -10.7992  -15.2729 N   0  0  0  0  0  0  0  0  0  0  0  0
   19.1947   -9.5770  -16.0571 C   0  0  1  0  0  0  0  0  0  0  0  0
   17.7948   -9.5514  -16.5296 C   0  0  0  0  0  0  0  0  0  0  0  0
   17.4123  -10.5948  -17.5030 C   0  0  0  0  0  0  0  0  0  0  0  0
   16.7351  -11.7786  -17.3436 C   0  0  0  0  0  0  0  0  0  0  0  0
   16.5683  -12.3586  -18.5580 N   0  0  0  0  0  0  0  0  0  0  0  0
   17.1235  -11.5638  -19.4656 C   0  0  0  0  0  0  0  0  0  0  0  0
   17.6347  -10.5011  -18.8545 N   0  0  0  0  0  0  0  0  0  0  0  0
   19.4970   -8.4252  -15.1254 C   0  0  0  0  0  0  0  0  0  0  0  0
   18.9593   -8.3130  -14.0384 O   0  0  0  0  0  0  0  0  0  0  0  0
   20.4329   -7.3974  -15.4648 N   0  0  0  0  0  0  0  0  0  0  0  0
   20.8142   -6.3358  -14.5991 C   0  0  1  0  0  0  0  0  0  0  0  0
   22.1947   -6.4542  -14.0243 C   0  0  0  0  0  0  0  0  0  0  0  0
   22.7290   -4.9956  -13.1370 S   0  0  0  0  0  0  0  0  0  0  0  0
   20.6917   -4.9911  -15.2127 C   0  0  0  0  0  0  0  0  0  0  0  0
   21.4441   -4.7595  -16.2074 O   0  0  0  0  0  0  0  0  0  0  0  0
   18.3355   -2.1286  -15.2393 C   0  0  0  0  0  0  0  0  0  0  0  0
   19.7069   -2.7572  -15.4704 C   0  0  2  0  0  0  0  0  0  0  0  0
   19.8023   -3.9904  -14.7518 N   0  0  0  0  0  0  0  0  0  0  0  0
   20.7859   -1.8009  -15.1153 C   0  0  0  0  0  0  0  0  0  0  0  0
   20.8185   -0.7208  -15.7587 O   0  0  0  0  0  0  0  0  0  0  0  0
   21.7330   -2.0172  -14.1467 O   0  0  0  0  0  0  0  0  0  0  0  0
  2  1  1  1
  2  9  1  0
  2  3  1  0
  3  4  1  0
  4  8  1  0
  4  5  2  0
  5  6  1  0
  7  6  1  0
  8  7  2  0
  9 11  1  0
 10  9  2  0
 11 12  1  0
 12 15  1  0
 12 13  1  6
 13 14  1  0
 15 16  2  0
 15 19  1  0
 18 20  1  0
 18 17  1  1
 19 18  1  0
 20 22  1  0
 21 20  2  0
M  END
$$$$
