HCA.pdb
     RDKit          3D

 22 22  0  0  1  0  0  0  0  0999 V2000
   18.7225  -10.3131  -16.4236 N   0  0  0  0  0  0  0  0  0  0  0  0
   19.8876   -9.5276  -16.8675 C   0  0  1  0  0  0  0  0  0  0  0  0
   19.7961   -9.2535  -18.3166 C   0  0  0  0  0  0  0  0  0  0  0  0
   19.9150  -10.4214  -19.2136 C   0  0  0  0  0  0  0  0  0  0  0  0
   20.9933  -10.9420  -19.8855 C   0  0  0  0  0  0  0  0  0  0  0  0
   20.6087  -12.0722  -20.5287 N   0  0  0  0  0  0  0  0  0  0  0  0
   19.3203  -12.2657  -20.2712 C   0  0  0  0  0  0  0  0  0  0  0  0
   18.8853  -11.2879  -19.4846 N   0  0  0  0  0  0  0  0  0  0  0  0
   19.8582   -8.2562  -16.0497 C   0  0  0  0  0  0  0  0  0  0  0  0
   18.8407   -7.8529  -15.5157 O   0  0  0  0  0  0  0  0  0  0  0  0
   21.0241   -7.4501  -15.8540 N   0  0  0  0  0  0  0  0  0  0  0  0
   21.0740   -6.2892  -15.0345 C   0  0  1  0  0  0  0  0  0  0  0  0
   22.1858   -6.2739  -14.0276 C   0  0  0  0  0  0  0  0  0  0  0  0
   22.3272   -4.7274  -13.1398 S   0  0  0  0  0  0  0  0  0  0  0  0
   21.1367   -5.0201  -15.7994 C   0  0  0  0  0  0  0  0  0  0  0  0
   22.1329   -4.8815  -16.5724 O   0  0  0  0  0  0  0  0  0  0  0  0
   18.9832   -2.0684  -16.5735 C   0  0  0  0  0  0  0  0  0  0  0  0
   20.3079   -2.8244  -16.5196 C   0  0  2  0  0  0  0  0  0  0  0  0
   20.1664   -3.9931  -15.7069 N   0  0  0  0  0  0  0  0  0  0  0  0
   21.4000   -1.9316  -16.0561 C   0  0  0  0  0  0  0  0  0  0  0  0
   21.5766   -1.8523  -14.8134 O   0  0  0  0  0  0  0  0  0  0  0  0
   22.2145   -1.2004  -16.8831 O   0  0  0  0  0  0  0  0  0  0  0  0
  2  1  1  1
  2  9  1  0
  2  3  1  0
  3  4  1  0
  4  8  1  0
  4  5  2  0
  5  6  1  0
  7  6  1  0
  8  7  2  0
  9 11  1  0
 10  9  2  0
 11 12  1  0
 12 15  1  0
 12 13  1  1
 13 14  1  0
 15 16  2  0
 15 19  1  0
 18 20  1  0
 18 17  1  1
 19 18  1  0
 20 22  1  0
 21 20  2  0
M  END
$$$$
