HCA.pdb
     RDKit          3D

 22 22  0  0  1  0  0  0  0  0999 V2000
   31.6574  -36.9184   -4.9373 N   0  0  0  0  0  0  0  0  0  0  0  0
   31.4432  -36.0286   -3.7824 C   0  0  1  0  0  0  0  0  0  0  0  0
   30.0123  -36.0057   -3.4143 C   0  0  0  0  0  0  0  0  0  0  0  0
   29.1119  -35.2730   -4.3282 C   0  0  0  0  0  0  0  0  0  0  0  0
   28.4547  -35.6721   -5.4657 C   0  0  0  0  0  0  0  0  0  0  0  0
   27.6863  -34.6484   -5.9136 N   0  0  0  0  0  0  0  0  0  0  0  0
   27.8497  -33.6260   -5.0818 C   0  0  0  0  0  0  0  0  0  0  0  0
   28.6998  -33.9795   -4.1245 N   0  0  0  0  0  0  0  0  0  0  0  0
   32.3028  -36.5877   -2.6714 C   0  0  0  0  0  0  0  0  0  0  0  0
   32.4456  -37.7854   -2.5031 O   0  0  0  0  0  0  0  0  0  0  0  0
   33.0003  -35.7433   -1.7505 N   0  0  0  0  0  0  0  0  0  0  0  0
   33.7876  -36.2123   -0.6632 C   0  0  1  0  0  0  0  0  0  0  0  0
   34.8991  -35.2954   -0.2463 C   0  0  0  0  0  0  0  0  0  0  0  0
   36.0289  -34.8897   -1.5726 S   0  0  0  0  0  0  0  0  0  0  0  0
   32.9970  -36.5469    0.5463 C   0  0  0  0  0  0  0  0  0  0  0  0
   31.9131  -35.9064    0.7008 O   0  0  0  0  0  0  0  0  0  0  0  0
   32.9582  -39.0559    3.3186 C   0  0  0  0  0  0  0  0  0  0  0  0
   32.5497  -37.7529    2.6372 C   0  0  2  0  0  0  0  0  0  0  0  0
   33.3870  -37.5162    1.5018 N   0  0  0  0  0  0  0  0  0  0  0  0
   32.5666  -36.6289    3.6073 C   0  0  0  0  0  0  0  0  0  0  0  0
   31.8619  -36.7628    4.6403 O   0  0  0  0  0  0  0  0  0  0  0  0
   33.2898  -35.4737    3.4509 O   0  0  0  0  0  0  0  0  0  0  0  0
  2  1  1  6
  2  9  1  0
  2  3  1  0
  3  4  1  0
  4  8  1  0
  4  5  2  0
  5  6  1  0
  7  6  1  0
  8  7  2  0
  9 11  1  0
 10  9  2  0
 11 12  1  0
 12 15  1  0
 12 13  1  1
 13 14  1  0
 15 16  2  0
 15 19  1  0
 18 20  1  0
 18 17  1  1
 19 18  1  0
 20 22  1  0
 21 20  2  0
M  END
$$$$
