WTR.pdb
     RDKit          3D

 33 34  0  0  1  0  0  0  0  0999 V2000
   28.9013  -22.6522  -10.5343 N   0  0  0  0  0  0  0  0  0  0  0  0
   28.0808  -21.5172  -10.1902 C   0  0  1  0  0  0  0  0  0  0  0  0
   28.9843  -20.3652   -9.7949 C   0  0  0  0  0  0  0  0  0  0  0  0
   29.6702  -20.6366   -8.4838 C   0  0  0  0  0  0  0  0  0  0  0  0
   30.8955  -21.2282   -8.2941 C   0  0  0  0  0  0  0  0  0  0  0  0
   31.1350  -21.3244   -6.9824 N   0  0  0  0  0  0  0  0  0  0  0  0
   30.0857  -20.8040   -6.2947 C   0  0  0  0  0  0  0  0  0  0  0  0
   29.8786  -20.6738   -4.9249 C   0  0  0  0  0  0  0  0  0  0  0  0
   28.7154  -20.0917   -4.4747 C   0  0  0  0  0  0  0  0  0  0  0  0
   27.7810  -19.6500   -5.3926 C   0  0  0  0  0  0  0  0  0  0  0  0
   28.0228  -19.7970   -6.7367 C   0  0  0  0  0  0  0  0  0  0  0  0
   29.1726  -20.3746   -7.2269 C   0  0  0  0  0  0  0  0  0  0  0  0
   27.2545  -21.1668  -11.3733 C   0  0  0  0  0  0  0  0  0  0  0  0
   27.7658  -21.0419  -12.5263 O   0  0  0  0  0  0  0  0  0  0  0  0
   26.4832  -22.2964  -13.8249 C   0  0  0  0  0  0  0  0  0  0  0  0
   25.0730  -22.0105  -13.3624 C   0  0  1  0  0  0  0  0  0  0  0  0
   24.5826  -23.1012  -12.6329 O   0  0  0  0  0  0  0  0  0  0  0  0
   25.0314  -20.7433  -12.4850 C   0  0  2  0  0  0  0  0  0  0  0  0
   25.8369  -20.9489  -11.2980 N   0  0  0  0  0  0  0  0  0  0  0  0
   23.6100  -20.5058  -12.1922 C   0  0  0  0  0  0  0  0  0  0  0  0
   23.1070  -21.0787  -11.1700 O   0  0  0  0  0  0  0  0  0  0  0  0
   21.0967  -20.0043  -17.8758 N   0  0  0  0  0  0  0  0  0  0  0  0
   19.7796  -19.4917  -17.7611 C   0  0  0  0  0  0  0  0  0  0  0  0
   18.8009  -19.9363  -18.4588 N   0  0  0  0  0  0  0  0  0  0  0  0
   19.5024  -18.4278  -16.8304 N   0  0  0  0  0  0  0  0  0  0  0  0
   20.5407  -17.8877  -15.9875 C   0  0  0  0  0  0  0  0  0  0  0  0
   21.0011  -18.9570  -14.9853 C   0  0  0  0  0  0  0  0  0  0  0  0
   20.6768  -18.5448  -13.5769 C   0  0  0  0  0  0  0  0  0  0  0  0
   21.3110  -19.5199  -12.6131 C   0  0  2  0  0  0  0  0  0  0  0  0
   22.7395  -19.6834  -12.9559 N   0  0  0  0  0  0  0  0  0  0  0  0
   20.6599  -20.8297  -12.7311 C   0  0  0  0  0  0  0  0  0  0  0  0
   19.4818  -21.0500  -11.9947 O   0  0  0  0  0  0  0  0  0  0  0  0
   21.0344  -21.7977  -13.4232 O   0  0  0  0  0  0  0  0  0  0  0  0
  2  1  1  6
  2  3  1  0
  3  4  1  0
  4  5  2  0
  5  6  1  0
  7  6  1  0
  8  7  2  0
  9  8  1  0
 10 11  1  0
 10  9  2  0
 11 12  2  0
 12  4  1  0
 12  7  1  0
 13  2  1  0
 13 14  2  0
 16 18  1  0
 16 15  1  1
 17 16  1  0
 18 19  1  1
 19 13  1  0
 20 18  1  0
 21 20  2  0
 23 22  1  0
 23 25  1  0
 24 23  2  0
 26 25  1  0
 27 26  1  0
 27 28  1  0
 29 28  1  6
 29 30  1  0
 30 20  1  0
 31 32  1  0
 31 29  1  0
 33 31  2  0
M  END
$$$$
