WTR.pdb
     RDKit          3D

 33 34  0  0  1  0  0  0  0  0999 V2000
   28.6447  -22.3384   -9.9287 N   0  0  0  0  0  0  0  0  0  0  0  0
   27.9407  -21.0979   -9.7151 C   0  0  1  0  0  0  0  0  0  0  0  0
   28.9525  -20.0099   -9.4116 C   0  0  0  0  0  0  0  0  0  0  0  0
   29.5064  -20.1545   -8.0204 C   0  0  0  0  0  0  0  0  0  0  0  0
   30.7560  -20.6018   -7.6661 C   0  0  0  0  0  0  0  0  0  0  0  0
   30.8507  -20.6208   -6.3327 N   0  0  0  0  0  0  0  0  0  0  0  0
   29.6805  -20.1915   -5.7930 C   0  0  0  0  0  0  0  0  0  0  0  0
   29.3038  -20.0321   -4.4630 C   0  0  0  0  0  0  0  0  0  0  0  0
   28.0424  -19.5629   -4.1748 C   0  0  0  0  0  0  0  0  0  0  0  0
   27.1798  -19.2610   -5.2119 C   0  0  0  0  0  0  0  0  0  0  0  0
   27.5896  -19.4324   -6.5117 C   0  0  0  0  0  0  0  0  0  0  0  0
   28.8421  -19.9001   -6.8414 C   0  0  0  0  0  0  0  0  0  0  0  0
   27.1710  -20.7838  -10.9456 C   0  0  0  0  0  0  0  0  0  0  0  0
   27.7457  -20.6134  -12.0624 O   0  0  0  0  0  0  0  0  0  0  0  0
   26.6456  -21.7105  -13.5532 C   0  0  0  0  0  0  0  0  0  0  0  0
   25.1933  -21.5601  -13.1621 C   0  0  1  0  0  0  0  0  0  0  0  0
   24.7376  -22.7428  -12.5656 O   0  0  0  0  0  0  0  0  0  0  0  0
   25.0098  -20.3846  -12.1814 C   0  0  2  0  0  0  0  0  0  0  0  0
   25.7407  -20.6541  -10.9594 N   0  0  0  0  0  0  0  0  0  0  0  0
   23.5591  -20.2561  -11.9778 C   0  0  0  0  0  0  0  0  0  0  0  0
   23.0977  -20.4803  -10.8103 O   0  0  0  0  0  0  0  0  0  0  0  0
   20.2449  -20.7614  -17.9075 N   0  0  0  0  0  0  0  0  0  0  0  0
   18.9501  -20.2204  -17.7040 C   0  0  0  0  0  0  0  0  0  0  0  0
   17.9221  -20.6225  -18.3550 N   0  0  0  0  0  0  0  0  0  0  0  0
   18.7539  -19.1752  -16.7323 N   0  0  0  0  0  0  0  0  0  0  0  0
   19.8545  -18.6748  -15.9459 C   0  0  0  0  0  0  0  0  0  0  0  0
   19.6436  -19.0423  -14.4693 C   0  0  0  0  0  0  0  0  0  0  0  0
   20.7432  -18.4765  -13.6152 C   0  0  0  0  0  0  0  0  0  0  0  0
   21.2216  -19.5364  -12.6510 C   0  0  2  0  0  0  0  0  0  0  0  0
   22.6169  -19.8981  -12.9787 N   0  0  0  0  0  0  0  0  0  0  0  0
   20.3938  -20.7406  -12.7857 C   0  0  0  0  0  0  0  0  0  0  0  0
   19.2371  -20.8387  -11.9911 O   0  0  0  0  0  0  0  0  0  0  0  0
   20.5967  -21.7142  -13.5388 O   0  0  0  0  0  0  0  0  0  0  0  0
  2  1  1  6
  2  3  1  0
  3  4  1  0
  4  5  2  0
  5  6  1  0
  7  6  1  0
  8  7  2  0
  9  8  1  0
 10 11  1  0
 10  9  2  0
 11 12  2  0
 12  4  1  0
 12  7  1  0
 13  2  1  0
 13 14  2  0
 16 18  1  0
 16 15  1  1
 17 16  1  0
 18 19  1  1
 19 13  1  0
 20 18  1  0
 21 20  2  0
 23 22  1  0
 23 25  1  0
 24 23  2  0
 26 25  1  0
 27 26  1  0
 27 28  1  0
 29 28  1  6
 29 30  1  0
 30 20  1  0
 31 32  1  0
 31 29  1  0
 33 31  2  0
M  END
$$$$
