WTR.pdb
     RDKit          3D

 33 34  0  0  1  0  0  0  0  0999 V2000
   28.4807  -22.7686  -10.0325 N   0  0  0  0  0  0  0  0  0  0  0  0
   27.5433  -21.6901   -9.8375 C   0  0  1  0  0  0  0  0  0  0  0  0
   28.3023  -20.4643   -9.3675 C   0  0  0  0  0  0  0  0  0  0  0  0
   28.9741  -20.7141   -8.0448 C   0  0  0  0  0  0  0  0  0  0  0  0
   30.1428  -21.4013   -7.8233 C   0  0  0  0  0  0  0  0  0  0  0  0
   30.3859  -21.4364   -6.5092 N   0  0  0  0  0  0  0  0  0  0  0  0
   29.3947  -20.7811   -5.8512 C   0  0  0  0  0  0  0  0  0  0  0  0
   29.2139  -20.5472   -4.4916 C   0  0  0  0  0  0  0  0  0  0  0  0
   28.1126  -19.8350   -4.0741 C   0  0  0  0  0  0  0  0  0  0  0  0
   27.2126  -19.3688   -5.0140 C   0  0  0  0  0  0  0  0  0  0  0  0
   27.4267  -19.6209   -6.3471 C   0  0  0  0  0  0  0  0  0  0  0  0
   28.5148  -20.3300   -6.8048 C   0  0  0  0  0  0  0  0  0  0  0  0
   26.8584  -21.4318  -11.1295 C   0  0  0  0  0  0  0  0  0  0  0  0
   27.4310  -21.6491  -12.2392 O   0  0  0  0  0  0  0  0  0  0  0  0
   23.8999  -22.0568  -14.4384 C   0  0  0  0  0  0  0  0  0  0  0  0
   24.6150  -22.1737  -13.1119 C   0  0  1  0  0  0  0  0  0  0  0  0
   25.8526  -22.8041  -13.2940 O   0  0  0  0  0  0  0  0  0  0  0  0
   24.8328  -20.7827  -12.4835 C   0  0  2  0  0  0  0  0  0  0  0  0
   25.5168  -20.9261  -11.2139 N   0  0  0  0  0  0  0  0  0  0  0  0
   23.4949  -20.1846  -12.3617 C   0  0  0  0  0  0  0  0  0  0  0  0
   22.6659  -20.7332  -11.5630 O   0  0  0  0  0  0  0  0  0  0  0  0
   18.4806  -14.5627  -15.8065 N   0  0  0  0  0  0  0  0  0  0  0  0
   17.6185  -15.6589  -16.0628 C   0  0  0  0  0  0  0  0  0  0  0  0
   16.3480  -15.5296  -16.1700 N   0  0  0  0  0  0  0  0  0  0  0  0
   18.1664  -16.9825  -16.2133 N   0  0  0  0  0  0  0  0  0  0  0  0
   19.5831  -17.2201  -16.0839 C   0  0  0  0  0  0  0  0  0  0  0  0
   19.8791  -17.8446  -14.7119 C   0  0  0  0  0  0  0  0  0  0  0  0
   21.3389  -18.1767  -14.5794 C   0  0  0  0  0  0  0  0  0  0  0  0
   21.6052  -18.7096  -13.1912 C   0  0  2  0  0  0  0  0  0  0  0  0
   23.0412  -19.0353  -13.0623 N   0  0  0  0  0  0  0  0  0  0  0  0
   20.8363  -19.9408  -12.9757 C   0  0  0  0  0  0  0  0  0  0  0  0
   19.9338  -19.9752  -11.8972 O   0  0  0  0  0  0  0  0  0  0  0  0
   20.8873  -20.9889  -13.6504 O   0  0  0  0  0  0  0  0  0  0  0  0
  2  1  1  6
  2  3  1  0
  3  4  1  0
  4  5  2  0
  5  6  1  0
  7  6  1  0
  8  7  2  0
  9  8  1  0
 10 11  1  0
 10  9  2  0
 11 12  2  0
 12  4  1  0
 12  7  1  0
 13  2  1  0
 13 14  2  0
 16 18  1  0
 16 15  1  6
 17 16  1  0
 18 19  1  1
 19 13  1  0
 20 18  1  0
 21 20  2  0
 23 22  1  0
 23 25  1  0
 24 23  2  0
 26 25  1  0
 27 26  1  0
 27 28  1  0
 29 28  1  6
 29 30  1  0
 30 20  1  0
 31 32  1  0
 31 29  1  0
 33 31  2  0
M  END
$$$$
