WTR.pdb
     RDKit          3D

 33 34  0  0  1  0  0  0  0  0999 V2000
   25.9531  -21.3678   -8.2745 N   0  0  0  0  0  0  0  0  0  0  0  0
   26.1206  -20.1647   -9.0520 C   0  0  1  0  0  0  0  0  0  0  0  0
   27.4984  -19.5944   -8.7761 C   0  0  0  0  0  0  0  0  0  0  0  0
   27.6044  -19.0866   -7.3639 C   0  0  0  0  0  0  0  0  0  0  0  0
   27.0879  -17.9174   -6.8606 C   0  0  0  0  0  0  0  0  0  0  0  0
   27.4295  -17.8084   -5.5727 N   0  0  0  0  0  0  0  0  0  0  0  0
   28.1668  -18.8900   -5.2103 C   0  0  0  0  0  0  0  0  0  0  0  0
   28.7360  -19.2263   -3.9860 C   0  0  0  0  0  0  0  0  0  0  0  0
   29.4391  -20.4042   -3.8741 C   0  0  0  0  0  0  0  0  0  0  0  0
   29.5633  -21.2253   -4.9792 C   0  0  0  0  0  0  0  0  0  0  0  0
   28.9867  -20.8575   -6.1703 C   0  0  0  0  0  0  0  0  0  0  0  0
   28.2767  -19.6876   -6.3234 C   0  0  0  0  0  0  0  0  0  0  0  0
   25.9645  -20.5145  -10.4867 C   0  0  0  0  0  0  0  0  0  0  0  0
   26.8047  -21.2507  -11.0855 O   0  0  0  0  0  0  0  0  0  0  0  0
   25.5617  -22.7824  -12.1348 C   0  0  0  0  0  0  0  0  0  0  0  0
   24.3901  -22.0008  -12.6833 C   0  0  1  0  0  0  0  0  0  0  0  0
   23.2436  -22.2693  -11.9246 O   0  0  0  0  0  0  0  0  0  0  0  0
   24.6822  -20.4871  -12.6575 C   0  0  2  0  0  0  0  0  0  0  0  0
   24.8655  -20.0520  -11.2874 N   0  0  0  0  0  0  0  0  0  0  0  0
   23.5387  -19.8475  -13.3253 C   0  0  0  0  0  0  0  0  0  0  0  0
   22.8083  -19.0611  -12.6365 O   0  0  0  0  0  0  0  0  0  0  0  0
   19.1105  -23.7221  -18.4867 N   0  0  0  0  0  0  0  0  0  0  0  0
   19.2649  -22.6044  -19.3456 C   0  0  0  0  0  0  0  0  0  0  0  0
   19.0630  -22.6699  -20.6093 N   0  0  0  0  0  0  0  0  0  0  0  0
   19.6642  -21.3317  -18.8018 N   0  0  0  0  0  0  0  0  0  0  0  0
   19.9299  -21.1752  -17.3929 C   0  0  0  0  0  0  0  0  0  0  0  0
   20.4289  -19.7489  -17.1164 C   0  0  0  0  0  0  0  0  0  0  0  0
   21.8822  -19.7557  -16.7336 C   0  0  0  0  0  0  0  0  0  0  0  0
   22.0200  -19.3312  -15.2904 C   0  0  2  0  0  0  0  0  0  0  0  0
   23.1740  -20.0296  -14.6859 N   0  0  0  0  0  0  0  0  0  0  0  0
   20.8146  -19.7097  -14.5440 C   0  0  0  0  0  0  0  0  0  0  0  0
   20.8301  -20.9264  -13.8381 O   0  0  0  0  0  0  0  0  0  0  0  0
   19.7490  -19.0668  -14.4574 O   0  0  0  0  0  0  0  0  0  0  0  0
  2  1  1  1
  2  3  1  0
  3  4  1  0
  4  5  2  0
  5  6  1  0
  7  6  1  0
  8  7  2  0
  9  8  1  0
 10 11  1  0
 10  9  2  0
 11 12  2  0
 12  4  1  0
 12  7  1  0
 13  2  1  0
 13 14  2  0
 16 18  1  0
 16 15  1  1
 17 16  1  0
 18 19  1  1
 19 13  1  0
 20 18  1  0
 21 20  2  0
 23 22  1  0
 23 25  1  0
 24 23  2  0
 26 25  1  0
 27 26  1  0
 27 28  1  0
 29 28  1  6
 29 30  1  0
 30 20  1  0
 31 32  1  0
 31 29  1  0
 33 31  2  0
M  END
$$$$
