WTR.pdb
     RDKit          3D

 33 34  0  0  1  0  0  0  0  0999 V2000
   25.0164  -21.5071   -7.9750 N   0  0  0  0  0  0  0  0  0  0  0  0
   25.9579  -20.6406   -8.6403 C   0  0  1  0  0  0  0  0  0  0  0  0
   27.3141  -20.7967   -7.9799 C   0  0  0  0  0  0  0  0  0  0  0  0
   27.4538  -19.8750   -6.7991 C   0  0  0  0  0  0  0  0  0  0  0  0
   26.6390  -18.8197   -6.4680 C   0  0  0  0  0  0  0  0  0  0  0  0
   27.1188  -18.2256   -5.3707 N   0  0  0  0  0  0  0  0  0  0  0  0
   28.2430  -18.8713   -4.9653 C   0  0  0  0  0  0  0  0  0  0  0  0
   29.0819  -18.6307   -3.8817 C   0  0  0  0  0  0  0  0  0  0  0  0
   30.1694  -19.4500   -3.6804 C   0  0  0  0  0  0  0  0  0  0  0  0
   30.4027  -20.4920   -4.5582 C   0  0  0  0  0  0  0  0  0  0  0  0
   29.5509  -20.6963   -5.6162 C   0  0  0  0  0  0  0  0  0  0  0  0
   28.4535  -19.8987   -5.8525 C   0  0  0  0  0  0  0  0  0  0  0  0
   26.0131  -21.0285  -10.0726 C   0  0  0  0  0  0  0  0  0  0  0  0
   26.4564  -22.1586  -10.4374 O   0  0  0  0  0  0  0  0  0  0  0  0
   23.1030  -21.0360  -12.4332 C   0  0  0  0  0  0  0  0  0  0  0  0
   24.4582  -21.6321  -12.7374 C   0  0  1  0  0  0  0  0  0  0  0  0
   24.4921  -22.0815  -14.0637 O   0  0  0  0  0  0  0  0  0  0  0  0
   25.5751  -20.5923  -12.5171 C   0  0  2  0  0  0  0  0  0  0  0  0
   25.5732  -20.1648  -11.1324 N   0  0  0  0  0  0  0  0  0  0  0  0
   25.2999  -19.5024  -13.4652 C   0  0  0  0  0  0  0  0  0  0  0  0
   24.5341  -18.5572  -13.0826 O   0  0  0  0  0  0  0  0  0  0  0  0
   28.2503  -21.7577  -16.3042 N   0  0  0  0  0  0  0  0  0  0  0  0
   29.0913  -20.9844  -17.1440 C   0  0  0  0  0  0  0  0  0  0  0  0
   29.5295  -21.4139  -18.2690 N   0  0  0  0  0  0  0  0  0  0  0  0
   29.4846  -19.6587  -16.7405 N   0  0  0  0  0  0  0  0  0  0  0  0
   28.7781  -18.9589  -15.6958 C   0  0  0  0  0  0  0  0  0  0  0  0
   27.9869  -17.7894  -16.3008 C   0  0  0  0  0  0  0  0  0  0  0  0
   26.6312  -18.2439  -16.7640 C   0  0  0  0  0  0  0  0  0  0  0  0
   25.6640  -18.1896  -15.6050 C   0  0  2  0  0  0  0  0  0  0  0  0
   25.8200  -19.4086  -14.7836 N   0  0  0  0  0  0  0  0  0  0  0  0
   24.2863  -18.1514  -16.1090 C   0  0  0  0  0  0  0  0  0  0  0  0
   23.6202  -16.9124  -16.1166 O   0  0  0  0  0  0  0  0  0  0  0  0
   23.6158  -19.1099  -16.5427 O   0  0  0  0  0  0  0  0  0  0  0  0
  2  1  1  1
  2  3  1  0
  3  4  1  0
  4  5  2  0
  5  6  1  0
  7  6  1  0
  8  7  2  0
  9  8  1  0
 10 11  1  0
 10  9  2  0
 11 12  2  0
 12  4  1  0
 12  7  1  0
 13  2  1  0
 13 14  2  0
 16 18  1  0
 16 15  1  6
 17 16  1  0
 18 19  1  1
 19 13  1  0
 20 18  1  0
 21 20  2  0
 23 22  1  0
 23 25  1  0
 24 23  2  0
 26 25  1  0
 27 26  1  0
 27 28  1  0
 29 28  1  6
 29 30  1  0
 30 20  1  0
 31 32  1  0
 31 29  1  0
 33 31  2  0
M  END
$$$$
