WTR.pdb
     RDKit          3D

 33 34  0  0  1  0  0  0  0  0999 V2000
   28.3107  -20.4751  -11.0747 N   0  0  0  0  0  0  0  0  0  0  0  0
   27.0958  -21.1981  -10.7895 C   0  0  1  0  0  0  0  0  0  0  0  0
   26.6338  -20.8409   -9.3900 C   0  0  0  0  0  0  0  0  0  0  0  0
   27.7964  -20.7502   -8.4396 C   0  0  0  0  0  0  0  0  0  0  0  0
   27.8485  -20.0573   -7.2545 C   0  0  0  0  0  0  0  0  0  0  0  0
   29.0674  -20.1936   -6.7227 N   0  0  0  0  0  0  0  0  0  0  0  0
   29.8290  -20.9689   -7.5375 C   0  0  0  0  0  0  0  0  0  0  0  0
   31.1476  -21.3934   -7.4071 C   0  0  0  0  0  0  0  0  0  0  0  0
   31.6935  -22.1961   -8.3828 C   0  0  0  0  0  0  0  0  0  0  0  0
   30.9200  -22.5619   -9.4685 C   0  0  0  0  0  0  0  0  0  0  0  0
   29.6222  -22.1218   -9.5606 C   0  0  0  0  0  0  0  0  0  0  0  0
   29.0400  -21.3172   -8.6067 C   0  0  0  0  0  0  0  0  0  0  0  0
   26.0795  -20.8145  -11.8020 C   0  0  0  0  0  0  0  0  0  0  0  0
   26.1565  -19.7210  -12.4383 O   0  0  0  0  0  0  0  0  0  0  0  0
   25.1531  -22.3865  -14.9809 C   0  0  0  0  0  0  0  0  0  0  0  0
   23.8538  -22.2874  -14.2152 C   0  0  1  0  0  0  0  0  0  0  0  0
   23.5370  -23.5315  -13.6550 O   0  0  0  0  0  0  0  0  0  0  0  0
   23.9567  -21.2303  -13.0975 C   0  0  2  0  0  0  0  0  0  0  0  0
   24.9534  -21.6434  -12.1300 N   0  0  0  0  0  0  0  0  0  0  0  0
   22.6049  -21.1146  -12.5303 C   0  0  0  0  0  0  0  0  0  0  0  0
   22.3364  -21.7921  -11.4838 O   0  0  0  0  0  0  0  0  0  0  0  0
   19.1883  -20.4578  -17.8933 N   0  0  0  0  0  0  0  0  0  0  0  0
   17.8426  -20.3365  -17.4632 C   0  0  0  0  0  0  0  0  0  0  0  0
   16.8749  -20.9505  -18.0368 N   0  0  0  0  0  0  0  0  0  0  0  0
   17.5219  -19.4956  -16.3385 N   0  0  0  0  0  0  0  0  0  0  0  0
   18.5565  -18.8108  -15.6031 C   0  0  0  0  0  0  0  0  0  0  0  0
   19.3254  -19.8174  -14.7340 C   0  0  0  0  0  0  0  0  0  0  0  0
   19.3124  -19.3975  -13.2910 C   0  0  0  0  0  0  0  0  0  0  0  0
   20.1932  -20.3293  -12.4923 C   0  0  2  0  0  0  0  0  0  0  0  0
   21.5614  -20.3038  -13.0510 N   0  0  0  0  0  0  0  0  0  0  0  0
   19.6841  -21.7020  -12.5928 C   0  0  0  0  0  0  0  0  0  0  0  0
   18.9373  -22.2098  -11.5142 O   0  0  0  0  0  0  0  0  0  0  0  0
   19.8376  -22.4948  -13.5436 O   0  0  0  0  0  0  0  0  0  0  0  0
  2  1  1  6
  2  3  1  0
  3  4  1  0
  4  5  2  0
  5  6  1  0
  7  6  1  0
  8  7  2  0
  9  8  1  0
 10 11  1  0
 10  9  2  0
 11 12  2  0
 12  4  1  0
 12  7  1  0
 13  2  1  0
 13 14  2  0
 16 18  1  0
 16 15  1  1
 17 16  1  0
 18 19  1  1
 19 13  1  0
 20 18  1  0
 21 20  2  0
 23 22  1  0
 23 25  1  0
 24 23  2  0
 26 25  1  0
 27 26  1  0
 27 28  1  0
 29 28  1  6
 29 30  1  0
 30 20  1  0
 31 32  1  0
 31 29  1  0
 33 31  2  0
M  END
$$$$
