WTR.pdb
     RDKit          3D

 33 34  0  0  1  0  0  0  0  0999 V2000
   27.3763  -19.4325  -15.0697 N   0  0  0  0  0  0  0  0  0  0  0  0
   27.0701  -19.8947  -13.7384 C   0  0  1  0  0  0  0  0  0  0  0  0
   27.9119  -19.1152  -12.7467 C   0  0  0  0  0  0  0  0  0  0  0  0
   28.4537  -20.0133  -11.6682 C   0  0  0  0  0  0  0  0  0  0  0  0
   29.2795  -21.0993  -11.8286 C   0  0  0  0  0  0  0  0  0  0  0  0
   29.5049  -21.6562  -10.6343 N   0  0  0  0  0  0  0  0  0  0  0  0
   28.8405  -20.9553   -9.6793 C   0  0  0  0  0  0  0  0  0  0  0  0
   28.7751  -21.1431   -8.3021 C   0  0  0  0  0  0  0  0  0  0  0  0
   28.0276  -20.2732   -7.5412 C   0  0  0  0  0  0  0  0  0  0  0  0
   27.3600  -19.2340   -8.1618 C   0  0  0  0  0  0  0  0  0  0  0  0
   27.4496  -19.0827   -9.5240 C   0  0  0  0  0  0  0  0  0  0  0  0
   28.1857  -19.9318  -10.3201 C   0  0  0  0  0  0  0  0  0  0  0  0
   25.6212  -19.6797  -13.4946 C   0  0  0  0  0  0  0  0  0  0  0  0
   25.1629  -18.5402  -13.1814 O   0  0  0  0  0  0  0  0  0  0  0  0
   23.3292  -18.0853  -14.1310 C   0  0  0  0  0  0  0  0  0  0  0  0
   22.7400  -19.4466  -14.4208 C   0  0  1  0  0  0  0  0  0  0  0  0
   23.1002  -19.8546  -15.7116 O   0  0  0  0  0  0  0  0  0  0  0  0
   23.2343  -20.4863  -13.3952 C   0  0  2  0  0  0  0  0  0  0  0  0
   24.6484  -20.7314  -13.5964 N   0  0  0  0  0  0  0  0  0  0  0  0
   22.3997  -21.6795  -13.6009 C   0  0  0  0  0  0  0  0  0  0  0  0
   22.7011  -22.4605  -14.5630 O   0  0  0  0  0  0  0  0  0  0  0  0
   18.2048  -24.1226   -7.4249 N   0  0  0  0  0  0  0  0  0  0  0  0
   17.6141  -23.8930   -8.6933 C   0  0  0  0  0  0  0  0  0  0  0  0
   16.6283  -24.5839   -9.1328 N   0  0  0  0  0  0  0  0  0  0  0  0
   18.1230  -22.8469   -9.5429 N   0  0  0  0  0  0  0  0  0  0  0  0
   17.5033  -22.5515  -10.8113 C   0  0  0  0  0  0  0  0  0  0  0  0
   18.5872  -22.3356  -11.8782 C   0  0  0  0  0  0  0  0  0  0  0  0
   19.5390  -23.4981  -11.9163 C   0  0  0  0  0  0  0  0  0  0  0  0
   20.5276  -23.2968  -13.0406 C   0  0  2  0  0  0  0  0  0  0  0  0
   21.2762  -22.0430  -12.8116 N   0  0  0  0  0  0  0  0  0  0  0  0
   19.8117  -23.1752  -14.3159 C   0  0  0  0  0  0  0  0  0  0  0  0
   19.6884  -24.3256  -15.1160 O   0  0  0  0  0  0  0  0  0  0  0  0
   19.2856  -22.1481  -14.7896 O   0  0  0  0  0  0  0  0  0  0  0  0
  2  1  1  6
  2  3  1  0
  3  4  1  0
  4  5  2  0
  5  6  1  0
  7  6  1  0
  8  7  2  0
  9  8  1  0
 10 11  1  0
 10  9  2  0
 11 12  2  0
 12  4  1  0
 12  7  1  0
 13  2  1  0
 13 14  2  0
 16 18  1  0
 16 15  1  1
 17 16  1  0
 18 19  1  6
 19 13  1  0
 20 18  1  0
 21 20  2  0
 23 22  1  0
 23 25  1  0
 24 23  2  0
 26 25  1  0
 27 26  1  0
 27 28  1  0
 29 28  1  1
 29 30  1  0
 30 20  1  0
 31 32  1  0
 31 29  1  0
 33 31  2  0
M  END
$$$$
