HAQ.pdb
     RDKit          3D

 25 25  0  0  1  0  0  0  0  0999 V2000
   25.1130  -34.6592   -5.1101 N   0  0  0  0  0  0  0  0  0  0  0  0
   26.1890  -34.0282   -4.4140 C   0  0  1  0  0  0  0  0  0  0  0  0
   26.1567  -32.5258   -4.6159 C   0  0  0  0  0  0  0  0  0  0  0  0
   26.3473  -32.2361   -6.0465 C   0  0  0  0  0  0  0  0  0  0  0  0
   27.4606  -32.5676   -6.7895 C   0  0  0  0  0  0  0  0  0  0  0  0
   27.2148  -32.1174   -8.0433 N   0  0  0  0  0  0  0  0  0  0  0  0
   26.0037  -31.5329   -8.0769 C   0  0  0  0  0  0  0  0  0  0  0  0
   25.4756  -31.6103   -6.8419 N   0  0  0  0  0  0  0  0  0  0  0  0
   26.2833  -34.3960   -2.9919 C   0  0  0  0  0  0  0  0  0  0  0  0
   25.3185  -34.1215   -2.2449 O   0  0  0  0  0  0  0  0  0  0  0  0
   28.7312  -36.2081   -0.7009 C   0  0  0  0  0  0  0  0  0  0  0  0
   27.5073  -35.3728   -1.0223 C   0  0  2  0  0  0  0  0  0  0  0  0
   27.4244  -35.0523   -2.4214 N   0  0  0  0  0  0  0  0  0  0  0  0
   27.5752  -34.1189   -0.2369 C   0  0  0  0  0  0  0  0  0  0  0  0
   28.1328  -33.0957   -0.7376 O   0  0  0  0  0  0  0  0  0  0  0  0
   22.8240  -31.4510    2.4526 N   0  0  0  0  0  0  0  0  0  0  0  0
   23.9547  -30.8112    3.0729 C   0  0  0  0  0  0  0  0  0  0  0  0
   23.6643  -29.8736    3.8399 O   0  0  0  0  0  0  0  0  0  0  0  0
   25.3210  -31.2147    2.8289 C   0  0  0  0  0  0  0  0  0  0  0  0
   25.6238  -32.4148    2.0395 C   0  0  0  0  0  0  0  0  0  0  0  0
   27.0470  -32.7901    1.8176 C   0  0  2  0  0  0  0  0  0  0  0  0
   27.0181  -34.0694    1.0664 N   0  0  0  0  0  0  0  0  0  0  0  0
   27.8784  -33.0132    2.9926 C   0  0  0  0  0  0  0  0  0  0  0  0
   28.6382  -32.0366    3.5956 O   0  0  0  0  0  0  0  0  0  0  0  0
   27.9252  -34.1813    3.5195 O   0  0  0  0  0  0  0  0  0  0  0  0
  2  1  1  1
  2  9  1  0
  3  2  1  0
  4  5  2  0
  4  3  1  0
  6  5  1  0
  7  8  2  0
  7  6  1  0
  8  4  1  0
  9 10  2  0
 12 11  1  6
 12 14  1  0
 13 12  1  0
 13  9  1  0
 14 15  2  0
 16 17  1  0
 17 19  1  0
 18 17  2  0
 19 20  1  0
 21 20  1  1
 21 23  1  0
 22 14  1  0
 22 21  1  0
 23 25  2  0
 23 24  1  0
M  END
$$$$
