HAQ.pdb
     RDKit          3D

 25 25  0  0  1  0  0  0  0  0999 V2000
   26.5062  -35.8370   -6.5572 N   0  0  0  0  0  0  0  0  0  0  0  0
   27.1142  -34.9800   -5.5896 C   0  0  1  0  0  0  0  0  0  0  0  0
   26.2810  -33.7319   -5.3729 C   0  0  0  0  0  0  0  0  0  0  0  0
   26.2438  -32.9635   -6.6278 C   0  0  0  0  0  0  0  0  0  0  0  0
   27.2926  -32.8221   -7.5118 C   0  0  0  0  0  0  0  0  0  0  0  0
   26.8251  -32.0437   -8.5173 N   0  0  0  0  0  0  0  0  0  0  0  0
   25.5442  -31.7169   -8.2685 C   0  0  0  0  0  0  0  0  0  0  0  0
   25.1935  -32.2879   -7.1018 N   0  0  0  0  0  0  0  0  0  0  0  0
   27.4539  -35.6484   -4.3229 C   0  0  0  0  0  0  0  0  0  0  0  0
   26.5294  -36.1762   -3.6664 O   0  0  0  0  0  0  0  0  0  0  0  0
   30.5774  -36.3673   -2.2578 C   0  0  0  0  0  0  0  0  0  0  0  0
   29.0860  -36.3070   -2.5246 C   0  0  2  0  0  0  0  0  0  0  0  0
   28.7897  -35.7245   -3.8052 N   0  0  0  0  0  0  0  0  0  0  0  0
   28.4510  -35.4961   -1.4602 C   0  0  0  0  0  0  0  0  0  0  0  0
   28.3228  -34.2444   -1.6189 O   0  0  0  0  0  0  0  0  0  0  0  0
   23.1068  -36.3734    1.2208 N   0  0  0  0  0  0  0  0  0  0  0  0
   23.8423  -35.7630    2.2974 C   0  0  0  0  0  0  0  0  0  0  0  0
   23.1532  -35.4576    3.2892 O   0  0  0  0  0  0  0  0  0  0  0  0
   25.2655  -35.5167    2.2401 C   0  0  0  0  0  0  0  0  0  0  0  0
   26.0715  -36.0078    1.1158 C   0  0  0  0  0  0  0  0  0  0  0  0
   27.3335  -35.2979    0.7708 C   0  0  2  0  0  0  0  0  0  0  0  0
   27.9913  -36.1217   -0.2734 N   0  0  0  0  0  0  0  0  0  0  0  0
   28.3130  -35.1061    1.8316 C   0  0  0  0  0  0  0  0  0  0  0  0
   28.3112  -34.0364    2.6979 O   0  0  0  0  0  0  0  0  0  0  0  0
   29.2461  -35.9709    1.9923 O   0  0  0  0  0  0  0  0  0  0  0  0
  2  1  1  6
  2  9  1  0
  3  2  1  0
  4  5  2  0
  4  3  1  0
  6  5  1  0
  7  8  2  0
  7  6  1  0
  8  4  1  0
  9 10  2  0
 12 11  1  1
 12 14  1  0
 13 12  1  0
 13  9  1  0
 14 15  2  0
 16 17  1  0
 17 19  1  0
 18 17  2  0
 19 20  1  0
 21 20  1  1
 21 23  1  0
 22 14  1  0
 22 21  1  0
 23 25  2  0
 23 24  1  0
M  END
$$$$
