HAQ.pdb
     RDKit          3D

 25 25  0  0  1  0  0  0  0  0999 V2000
   29.8812  -24.4464  -16.2754 N   0  0  0  0  0  0  0  0  0  0  0  0
   28.6262  -24.4647  -16.9573 C   0  0  1  0  0  0  0  0  0  0  0  0
   27.9161  -25.7879  -16.7482 C   0  0  0  0  0  0  0  0  0  0  0  0
   28.6150  -26.8277  -17.5209 C   0  0  0  0  0  0  0  0  0  0  0  0
   29.3826  -27.8417  -16.9881 C   0  0  0  0  0  0  0  0  0  0  0  0
   29.8305  -28.5601  -18.0457 N   0  0  0  0  0  0  0  0  0  0  0  0
   29.3620  -28.0165  -19.1834 C   0  0  0  0  0  0  0  0  0  0  0  0
   28.6136  -26.9490  -18.8511 N   0  0  0  0  0  0  0  0  0  0  0  0
   27.7595  -23.3145  -16.6531 C   0  0  0  0  0  0  0  0  0  0  0  0
   27.5026  -23.0687  -15.4540 O   0  0  0  0  0  0  0  0  0  0  0  0
   26.2873  -20.3533  -18.5128 C   0  0  0  0  0  0  0  0  0  0  0  0
   26.4110  -21.3034  -17.3376 C   0  0  2  0  0  0  0  0  0  0  0  0
   27.1960  -22.4635  -17.6614 N   0  0  0  0  0  0  0  0  0  0  0  0
   25.0514  -21.7305  -16.9340 C   0  0  0  0  0  0  0  0  0  0  0  0
   24.5783  -22.8188  -17.3812 O   0  0  0  0  0  0  0  0  0  0  0  0
   22.0459  -19.6453  -11.6265 N   0  0  0  0  0  0  0  0  0  0  0  0
   21.1206  -20.4862  -12.3401 C   0  0  0  0  0  0  0  0  0  0  0  0
   20.0390  -20.6820  -11.7540 O   0  0  0  0  0  0  0  0  0  0  0  0
   21.4152  -21.0645  -13.6316 C   0  0  0  0  0  0  0  0  0  0  0  0
   22.7106  -20.8355  -14.2831 C   0  0  0  0  0  0  0  0  0  0  0  0
   22.9301  -21.3681  -15.6557 C   0  0  2  0  0  0  0  0  0  0  0  0
   24.2887  -20.9226  -16.0525 N   0  0  0  0  0  0  0  0  0  0  0  0
   22.0215  -20.9270  -16.7052 C   0  0  0  0  0  0  0  0  0  0  0  0
   20.9045  -21.6268  -17.1018 O   0  0  0  0  0  0  0  0  0  0  0  0
   22.2511  -19.8225  -17.3149 O   0  0  0  0  0  0  0  0  0  0  0  0
  2  1  1  1
  2  9  1  0
  3  2  1  0
  4  5  2  0
  4  3  1  0
  6  5  1  0
  7  8  2  0
  7  6  1  0
  8  4  1  0
  9 10  2  0
 12 11  1  6
 12 14  1  0
 13 12  1  0
 13  9  1  0
 14 15  2  0
 16 17  1  0
 17 19  1  0
 18 17  2  0
 19 20  1  0
 21 20  1  1
 21 23  1  0
 22 14  1  0
 22 21  1  0
 23 25  2  0
 23 24  1  0
M  END
$$$$
