HAQ.pdb
     RDKit          3D

 25 25  0  0  1  0  0  0  0  0999 V2000
   27.5688  -22.0030  -16.2349 N   0  0  0  0  0  0  0  0  0  0  0  0
   27.1328  -20.9897  -15.3275 C   0  0  1  0  0  0  0  0  0  0  0  0
   26.6557  -19.7611  -16.0772 C   0  0  0  0  0  0  0  0  0  0  0  0
   27.7876  -19.1965  -16.8298 C   0  0  0  0  0  0  0  0  0  0  0  0
   27.8911  -19.1474  -18.2039 C   0  0  0  0  0  0  0  0  0  0  0  0
   29.0805  -18.5530  -18.4634 N   0  0  0  0  0  0  0  0  0  0  0  0
   29.6877  -18.2471  -17.3027 C   0  0  0  0  0  0  0  0  0  0  0  0
   28.8841  -18.6471  -16.3006 N   0  0  0  0  0  0  0  0  0  0  0  0
   26.1484  -21.4530  -14.3361 C   0  0  0  0  0  0  0  0  0  0  0  0
   25.1622  -22.1060  -14.7427 O   0  0  0  0  0  0  0  0  0  0  0  0
   25.5250  -20.9792  -10.6034 C   0  0  0  0  0  0  0  0  0  0  0  0
   25.1652  -21.3791  -12.0211 C   0  0  2  0  0  0  0  0  0  0  0  0
   26.2637  -21.1935  -12.9298 N   0  0  0  0  0  0  0  0  0  0  0  0
   24.0187  -20.5531  -12.4652 C   0  0  0  0  0  0  0  0  0  0  0  0
   24.2046  -19.3364  -12.7710 O   0  0  0  0  0  0  0  0  0  0  0  0
   20.2439  -21.9230  -16.7414 N   0  0  0  0  0  0  0  0  0  0  0  0
   19.8475  -20.5939  -16.3555 C   0  0  0  0  0  0  0  0  0  0  0  0
   18.9087  -20.1182  -17.0220 O   0  0  0  0  0  0  0  0  0  0  0  0
   20.4839  -19.8607  -15.2847 C   0  0  0  0  0  0  0  0  0  0  0  0
   21.5853  -20.4526  -14.5155 C   0  0  0  0  0  0  0  0  0  0  0  0
   21.5950  -20.2959  -13.0353 C   0  0  2  0  0  0  0  0  0  0  0  0
   22.7236  -21.1255  -12.5458 N   0  0  0  0  0  0  0  0  0  0  0  0
   20.4115  -20.7244  -12.3024 C   0  0  0  0  0  0  0  0  0  0  0  0
   20.2368  -21.9916  -11.7940 O   0  0  0  0  0  0  0  0  0  0  0  0
   19.4572  -19.8914  -12.1031 O   0  0  0  0  0  0  0  0  0  0  0  0
  2  1  1  6
  2  9  1  0
  3  2  1  0
  4  5  2  0
  4  3  1  0
  6  5  1  0
  7  8  2  0
  7  6  1  0
  8  4  1  0
  9 10  2  0
 12 11  1  1
 12 14  1  0
 13 12  1  0
 13  9  1  0
 14 15  2  0
 16 17  1  0
 17 19  1  0
 18 17  2  0
 19 20  1  0
 21 20  1  6
 21 23  1  0
 22 14  1  0
 22 21  1  0
 23 25  2  0
 23 24  1  0
M  END
$$$$
