HAQ.pdb
     RDKit          3D

 25 25  0  0  1  0  0  0  0  0999 V2000
   28.3436  -21.6280  -15.9100 N   0  0  0  0  0  0  0  0  0  0  0  0
   27.4996  -20.6625  -15.2808 C   0  0  1  0  0  0  0  0  0  0  0  0
   26.9248  -19.6996  -16.3011 C   0  0  0  0  0  0  0  0  0  0  0  0
   28.0256  -18.9173  -16.8867 C   0  0  0  0  0  0  0  0  0  0  0  0
   28.7907  -17.9857  -16.2174 C   0  0  0  0  0  0  0  0  0  0  0  0
   29.6769  -17.5139  -17.1270 N   0  0  0  0  0  0  0  0  0  0  0  0
   29.4710  -18.1251  -18.3074 C   0  0  0  0  0  0  0  0  0  0  0  0
   28.4513  -18.9887  -18.1507 N   0  0  0  0  0  0  0  0  0  0  0  0
   26.4589  -21.2447  -14.4178 C   0  0  0  0  0  0  0  0  0  0  0  0
   25.7760  -22.1897  -14.8705 O   0  0  0  0  0  0  0  0  0  0  0  0
   25.1890  -20.8157  -10.8500 C   0  0  0  0  0  0  0  0  0  0  0  0
   25.1672  -21.3679  -12.2620 C   0  0  2  0  0  0  0  0  0  0  0  0
   26.1895  -20.7832  -13.0864 N   0  0  0  0  0  0  0  0  0  0  0  0
   23.8399  -21.0860  -12.8559 C   0  0  0  0  0  0  0  0  0  0  0  0
   23.6652  -20.0210  -13.5219 O   0  0  0  0  0  0  0  0  0  0  0  0
   19.1928  -25.5120  -13.7772 N   0  0  0  0  0  0  0  0  0  0  0  0
   18.5898  -24.2165  -13.9524 C   0  0  0  0  0  0  0  0  0  0  0  0
   17.3828  -24.2430  -14.2594 O   0  0  0  0  0  0  0  0  0  0  0  0
   19.3188  -22.9789  -13.7909 C   0  0  0  0  0  0  0  0  0  0  0  0
   20.7160  -22.9794  -13.3405 C   0  0  0  0  0  0  0  0  0  0  0  0
   21.4385  -21.6824  -13.2345 C   0  0  2  0  0  0  0  0  0  0  0  0
   22.7751  -22.0056  -12.6771 N   0  0  0  0  0  0  0  0  0  0  0  0
   20.8634  -20.6565  -12.3752 C   0  0  0  0  0  0  0  0  0  0  0  0
   19.9578  -19.7121  -12.8026 O   0  0  0  0  0  0  0  0  0  0  0  0
   21.2031  -20.6055  -11.1397 O   0  0  0  0  0  0  0  0  0  0  0  0
  2  1  1  6
  2  9  1  0
  3  2  1  0
  4  5  2  0
  4  3  1  0
  6  5  1  0
  7  8  2  0
  7  6  1  0
  8  4  1  0
  9 10  2  0
 12 11  1  1
 12 14  1  0
 13 12  1  0
 13  9  1  0
 14 15  2  0
 16 17  1  0
 17 19  1  0
 18 17  2  0
 19 20  1  0
 21 20  1  1
 21 23  1  0
 22 14  1  0
 22 21  1  0
 23 25  2  0
 23 24  1  0
M  END
$$$$
