HAQ.pdb
     RDKit          3D

 25 25  0  0  1  0  0  0  0  0999 V2000
   28.2652  -20.9479  -15.6068 N   0  0  0  0  0  0  0  0  0  0  0  0
   28.0083  -20.3597  -14.3307 C   0  0  1  0  0  0  0  0  0  0  0  0
   27.9929  -18.8465  -14.4257 C   0  0  0  0  0  0  0  0  0  0  0  0
   27.1939  -18.4538  -15.5979 C   0  0  0  0  0  0  0  0  0  0  0  0
   26.5491  -19.3206  -16.4547 C   0  0  0  0  0  0  0  0  0  0  0  0
   25.9424  -18.5403  -17.3812 N   0  0  0  0  0  0  0  0  0  0  0  0
   26.1991  -17.2477  -17.1115 C   0  0  0  0  0  0  0  0  0  0  0  0
   26.9712  -17.2031  -16.0106 N   0  0  0  0  0  0  0  0  0  0  0  0
   26.8110  -20.8864  -13.6555 C   0  0  0  0  0  0  0  0  0  0  0  0
   25.9641  -21.4967  -14.3444 O   0  0  0  0  0  0  0  0  0  0  0  0
   25.4185  -21.0450  -10.1081 C   0  0  0  0  0  0  0  0  0  0  0  0
   25.4290  -21.3231  -11.5987 C   0  0  2  0  0  0  0  0  0  0  0  0
   26.5679  -20.7350  -12.2498 N   0  0  0  0  0  0  0  0  0  0  0  0
   24.1886  -20.7686  -12.1884 C   0  0  0  0  0  0  0  0  0  0  0  0
   24.1297  -19.5352  -12.4778 O   0  0  0  0  0  0  0  0  0  0  0  0
   18.4765  -24.4079  -14.4240 N   0  0  0  0  0  0  0  0  0  0  0  0
   19.3696  -23.3952  -14.9234 C   0  0  0  0  0  0  0  0  0  0  0  0
   19.6438  -23.4963  -16.1343 O   0  0  0  0  0  0  0  0  0  0  0  0
   19.9127  -22.3438  -14.0934 C   0  0  0  0  0  0  0  0  0  0  0  0
   21.3628  -22.1472  -13.9774 C   0  0  0  0  0  0  0  0  0  0  0  0
   21.8738  -21.0635  -13.0940 C   0  0  2  0  0  0  0  0  0  0  0  0
   23.0772  -21.6171  -12.4255 N   0  0  0  0  0  0  0  0  0  0  0  0
   20.9937  -20.5801  -12.0390 C   0  0  0  0  0  0  0  0  0  0  0  0
   19.9772  -19.6736  -12.2384 O   0  0  0  0  0  0  0  0  0  0  0  0
   21.1519  -21.0077  -10.8404 O   0  0  0  0  0  0  0  0  0  0  0  0
  2  1  1  6
  2  9  1  0
  3  2  1  0
  4  5  2  0
  4  3  1  0
  6  5  1  0
  7  8  2  0
  7  6  1  0
  8  4  1  0
  9 10  2  0
 12 11  1  1
 12 14  1  0
 13 12  1  0
 13  9  1  0
 14 15  2  0
 16 17  1  0
 17 19  1  0
 18 17  2  0
 19 20  1  0
 21 20  1  1
 21 23  1  0
 22 14  1  0
 22 21  1  0
 23 25  2  0
 23 24  1  0
M  END
$$$$
