HAQ.pdb
     RDKit          3D

 25 25  0  0  1  0  0  0  0  0999 V2000
   27.0672  -15.6190  -16.9416 N   0  0  0  0  0  0  0  0  0  0  0  0
   25.7601  -15.0655  -16.7817 C   0  0  1  0  0  0  0  0  0  0  0  0
   25.6282  -13.7608  -17.5428 C   0  0  0  0  0  0  0  0  0  0  0  0
   26.7310  -12.8691  -17.1486 C   0  0  0  0  0  0  0  0  0  0  0  0
   26.8583  -12.2449  -15.9257 C   0  0  0  0  0  0  0  0  0  0  0  0
   28.0062  -11.5288  -15.9948 N   0  0  0  0  0  0  0  0  0  0  0  0
   28.5660  -11.7009  -17.2058 C   0  0  0  0  0  0  0  0  0  0  0  0
   27.7736  -12.5285  -17.9109 N   0  0  0  0  0  0  0  0  0  0  0  0
   24.6680  -16.0026  -17.0914 C   0  0  0  0  0  0  0  0  0  0  0  0
   23.5694  -15.5300  -17.4575 O   0  0  0  0  0  0  0  0  0  0  0  0
   24.1490  -19.7316  -17.5153 C   0  0  0  0  0  0  0  0  0  0  0  0
   23.6927  -18.3193  -17.2047 C   0  0  2  0  0  0  0  0  0  0  0  0
   24.8008  -17.4278  -16.9944 N   0  0  0  0  0  0  0  0  0  0  0  0
   22.8551  -18.3544  -15.9837 C   0  0  0  0  0  0  0  0  0  0  0  0
   23.3229  -17.9136  -14.8904 O   0  0  0  0  0  0  0  0  0  0  0  0
   18.5117  -17.3598  -12.2372 N   0  0  0  0  0  0  0  0  0  0  0  0
   18.2513  -16.7936  -13.5349 C   0  0  0  0  0  0  0  0  0  0  0  0
   17.1299  -16.2646  -13.6550 O   0  0  0  0  0  0  0  0  0  0  0  0
   19.2065  -16.8340  -14.6191 C   0  0  0  0  0  0  0  0  0  0  0  0
   20.5249  -17.4542  -14.4404 C   0  0  0  0  0  0  0  0  0  0  0  0
   20.7050  -18.8832  -14.8162 C   0  0  2  0  0  0  0  0  0  0  0  0
   21.5389  -18.8791  -16.0435 N   0  0  0  0  0  0  0  0  0  0  0  0
   19.5100  -19.6569  -15.1244 C   0  0  0  0  0  0  0  0  0  0  0  0
   18.7687  -20.3368  -14.1849 O   0  0  0  0  0  0  0  0  0  0  0  0
   19.0994  -19.7269  -16.3372 O   0  0  0  0  0  0  0  0  0  0  0  0
  2  1  1  6
  2  9  1  0
  3  2  1  0
  4  5  2  0
  4  3  1  0
  6  5  1  0
  7  8  2  0
  7  6  1  0
  8  4  1  0
  9 10  2  0
 12 11  1  1
 12 14  1  0
 13 12  1  0
 13  9  1  0
 14 15  2  0
 16 17  1  0
 17 19  1  0
 18 17  2  0
 19 20  1  0
 21 20  1  6
 21 23  1  0
 22 14  1  0
 22 21  1  0
 23 25  2  0
 23 24  1  0
M  END
$$$$
