FFQ.pdb
     RDKit          3D

 32 33  0  0  1  0  0  0  0  0999 V2000
   15.5846  -10.3328  -18.6867 N   0  0  0  0  0  0  0  0  0  0  0  0
   16.5628   -9.2851  -18.8032 C   0  0  1  0  0  0  0  0  0  0  0  0
   15.9434   -8.1778  -19.6310 C   0  0  0  0  0  0  0  0  0  0  0  0
   15.8224   -8.5654  -21.0569 C   0  0  0  0  0  0  0  0  0  0  0  0
   14.5977   -8.8601  -21.5770 C   0  0  0  0  0  0  0  0  0  0  0  0
   14.4918   -9.2204  -22.9063 C   0  0  0  0  0  0  0  0  0  0  0  0
   15.6124   -9.2852  -23.7137 C   0  0  0  0  0  0  0  0  0  0  0  0
   16.8298   -8.9850  -23.1685 C   0  0  0  0  0  0  0  0  0  0  0  0
   16.9523   -8.6239  -21.8442 C   0  0  0  0  0  0  0  0  0  0  0  0
   16.9725   -8.8138  -17.4648 C   0  0  0  0  0  0  0  0  0  0  0  0
   16.2267   -9.0027  -16.4504 O   0  0  0  0  0  0  0  0  0  0  0  0
   18.1834   -8.1461  -17.2483 N   0  0  0  0  0  0  0  0  0  0  0  0
   18.6300   -7.7509  -15.8816 C   0  0  1  0  0  0  0  0  0  0  0  0
   20.0999   -7.9982  -15.8289 C   0  0  0  0  0  0  0  0  0  0  0  0
   20.8309   -7.4595  -14.6792 C   0  0  0  0  0  0  0  0  0  0  0  0
   20.8342   -8.0055  -13.4165 C   0  0  0  0  0  0  0  0  0  0  0  0
   21.5453   -7.4539  -12.3713 C   0  0  0  0  0  0  0  0  0  0  0  0
   22.2936   -6.3137  -12.5547 C   0  0  0  0  0  0  0  0  0  0  0  0
   22.3061   -5.7473  -13.8122 C   0  0  0  0  0  0  0  0  0  0  0  0
   21.5940   -6.3052  -14.8467 C   0  0  0  0  0  0  0  0  0  0  0  0
   18.3253   -6.3232  -15.7538 C   0  0  0  0  0  0  0  0  0  0  0  0
   18.6084   -5.5589  -16.7429 O   0  0  0  0  0  0  0  0  0  0  0  0
   16.0915   -4.6673   -9.9834 N   0  0  0  0  0  0  0  0  0  0  0  0
   16.4703   -4.9691  -11.3283 C   0  0  0  0  0  0  0  0  0  0  0  0
   16.0469   -6.0743  -11.7788 O   0  0  0  0  0  0  0  0  0  0  0  0
   17.3064   -4.0445  -12.1429 C   0  0  0  0  0  0  0  0  0  0  0  0
   16.6325   -3.8961  -13.4860 C   0  0  0  0  0  0  0  0  0  0  0  0
   17.5817   -4.2550  -14.6229 C   0  0  2  0  0  0  0  0  0  0  0  0
   17.7333   -5.6985  -14.6274 N   0  0  0  0  0  0  0  0  0  0  0  0
   18.8541   -3.5269  -14.5047 C   0  0  0  0  0  0  0  0  0  0  0  0
   18.9174   -2.1368  -14.7513 O   0  0  0  0  0  0  0  0  0  0  0  0
   19.9575   -4.0370  -14.1894 O   0  0  0  0  0  0  0  0  0  0  0  0
  2 10  1  0
  2  3  1  0
  2  1  1  1
  3  4  1  0
  4  5  2  0
  5  6  1  0
  7  6  2  0
  8  7  1  0
  9  8  2  0
  9  4  1  0
 10 11  2  0
 12 13  1  0
 12 10  1  0
 13 21  1  0
 13 14  1  6
 15 14  1  0
 16 15  2  0
 17 16  1  0
 18 17  2  0
 18 19  1  0
 19 20  2  0
 20 15  1  0
 21 22  2  0
 21 29  1  0
 23 24  1  0
 24 26  1  0
 24 25  2  0
 26 27  1  0
 28 27  1  1
 28 30  1  0
 29 28  1  0
 30 32  2  0
 30 31  1  0
M  END
$$$$
