FFQ.pdb
     RDKit          3D

 32 33  0  0  1  0  0  0  0  0999 V2000
   27.3080  -20.5765  -18.7503 N   0  0  0  0  0  0  0  0  0  0  0  0
   27.0045  -19.6475  -17.6952 C   0  0  1  0  0  0  0  0  0  0  0  0
   25.9390  -18.7045  -18.2153 C   0  0  0  0  0  0  0  0  0  0  0  0
   26.4884  -17.7613  -19.2187 C   0  0  0  0  0  0  0  0  0  0  0  0
   27.3559  -16.7858  -18.8274 C   0  0  0  0  0  0  0  0  0  0  0  0
   27.8643  -15.9104  -19.7673 C   0  0  0  0  0  0  0  0  0  0  0  0
   27.5035  -16.0126  -21.0981 C   0  0  0  0  0  0  0  0  0  0  0  0
   26.6316  -16.9996  -21.4657 C   0  0  0  0  0  0  0  0  0  0  0  0
   26.1155  -17.8807  -20.5402 C   0  0  0  0  0  0  0  0  0  0  0  0
   26.5623  -20.3706  -16.4857 C   0  0  0  0  0  0  0  0  0  0  0  0
   25.8570  -21.4266  -16.5785 O   0  0  0  0  0  0  0  0  0  0  0  0
   26.8918  -19.9373  -15.1962 N   0  0  0  0  0  0  0  0  0  0  0  0
   26.3491  -20.6065  -13.9792 C   0  0  1  0  0  0  0  0  0  0  0  0
   27.1793  -20.1369  -12.8326 C   0  0  0  0  0  0  0  0  0  0  0  0
   26.7142  -20.4729  -11.4845 C   0  0  0  0  0  0  0  0  0  0  0  0
   26.7685  -21.7250  -10.9173 C   0  0  0  0  0  0  0  0  0  0  0  0
   26.3164  -21.9813   -9.6397 C   0  0  0  0  0  0  0  0  0  0  0  0
   25.7831  -20.9747   -8.8678 C   0  0  0  0  0  0  0  0  0  0  0  0
   25.7178  -19.7101   -9.4145 C   0  0  0  0  0  0  0  0  0  0  0  0
   26.1711  -19.4657  -10.6886 C   0  0  0  0  0  0  0  0  0  0  0  0
   24.9615  -20.1523  -13.8531 C   0  0  0  0  0  0  0  0  0  0  0  0
   24.7216  -18.9044  -14.0194 O   0  0  0  0  0  0  0  0  0  0  0  0
   22.0448  -20.7643  -17.2291 N   0  0  0  0  0  0  0  0  0  0  0  0
   21.2615  -21.6503  -16.4261 C   0  0  0  0  0  0  0  0  0  0  0  0
   20.7370  -22.6243  -17.0424 O   0  0  0  0  0  0  0  0  0  0  0  0
   21.0762  -21.4400  -14.9636 C   0  0  0  0  0  0  0  0  0  0  0  0
   21.8224  -20.1804  -14.5936 C   0  0  0  0  0  0  0  0  0  0  0  0
   22.5664  -20.3467  -13.2741 C   0  0  2  0  0  0  0  0  0  0  0  0
   23.8422  -20.9738  -13.5668 N   0  0  0  0  0  0  0  0  0  0  0  0
   21.7552  -21.0851  -12.2943 C   0  0  0  0  0  0  0  0  0  0  0  0
   20.5957  -20.5051  -11.7317 O   0  0  0  0  0  0  0  0  0  0  0  0
   21.9954  -22.2453  -11.8779 O   0  0  0  0  0  0  0  0  0  0  0  0
  2 10  1  0
  2  3  1  0
  2  1  1  6
  3  4  1  0
  4  5  2  0
  5  6  1  0
  7  6  2  0
  8  7  1  0
  9  8  2  0
  9  4  1  0
 10 11  2  0
 12 13  1  0
 12 10  1  0
 13 21  1  0
 13 14  1  1
 15 14  1  0
 16 15  2  0
 17 16  1  0
 18 17  2  0
 18 19  1  0
 19 20  2  0
 20 15  1  0
 21 22  2  0
 21 29  1  0
 23 24  1  0
 24 26  1  0
 24 25  2  0
 26 27  1  0
 28 27  1  6
 28 30  1  0
 29 28  1  0
 30 32  2  0
 30 31  1  0
M  END
$$$$
