FFQ.pdb
     RDKit          3D

 32 33  0  0  1  0  0  0  0  0999 V2000
   26.5841  -22.5713  -11.9791 N   0  0  0  0  0  0  0  0  0  0  0  0
   25.8799  -21.5516  -11.2493 C   0  0  1  0  0  0  0  0  0  0  0  0
   26.7757  -20.3309  -11.1989 C   0  0  0  0  0  0  0  0  0  0  0  0
   27.7984  -20.4488  -10.1319 C   0  0  0  0  0  0  0  0  0  0  0  0
   27.4524  -20.2189   -8.8339 C   0  0  0  0  0  0  0  0  0  0  0  0
   28.4099  -20.3305   -7.8446 C   0  0  0  0  0  0  0  0  0  0  0  0
   29.7131  -20.6723   -8.1558 C   0  0  0  0  0  0  0  0  0  0  0  0
   30.0353  -20.8979   -9.4653 C   0  0  0  0  0  0  0  0  0  0  0  0
   29.0917  -20.7905  -10.4640 C   0  0  0  0  0  0  0  0  0  0  0  0
   24.5833  -21.2614  -11.8940 C   0  0  0  0  0  0  0  0  0  0  0  0
   24.3677  -21.5938  -13.1040 O   0  0  0  0  0  0  0  0  0  0  0  0
   23.5422  -20.6160  -11.2167 N   0  0  0  0  0  0  0  0  0  0  0  0
   22.2101  -20.3952  -11.8496 C   0  0  1  0  0  0  0  0  0  0  0  0
   21.3327  -19.8099  -10.7952 C   0  0  0  0  0  0  0  0  0  0  0  0
   19.9829  -19.4030  -11.1941 C   0  0  0  0  0  0  0  0  0  0  0  0
   19.5728  -18.1046  -11.3901 C   0  0  0  0  0  0  0  0  0  0  0  0
   18.2864  -17.7818  -11.7687 C   0  0  0  0  0  0  0  0  0  0  0  0
   17.3449  -18.7653  -11.9687 C   0  0  0  0  0  0  0  0  0  0  0  0
   17.7321  -20.0753  -11.7782 C   0  0  0  0  0  0  0  0  0  0  0  0
   19.0165  -20.3859  -11.4010 C   0  0  0  0  0  0  0  0  0  0  0  0
   22.4346  -19.4457  -12.9430 C   0  0  0  0  0  0  0  0  0  0  0  0
   23.0556  -18.3574  -12.6740 O   0  0  0  0  0  0  0  0  0  0  0  0
   25.5112  -20.2501  -16.7538 N   0  0  0  0  0  0  0  0  0  0  0  0
   24.2609  -20.6802  -17.2970 C   0  0  0  0  0  0  0  0  0  0  0  0
   24.2981  -21.7550  -17.9657 O   0  0  0  0  0  0  0  0  0  0  0  0
   23.0008  -19.9144  -17.0890 C   0  0  0  0  0  0  0  0  0  0  0  0
   23.3147  -18.7843  -16.1380 C   0  0  0  0  0  0  0  0  0  0  0  0
   22.1404  -18.5023  -15.2086 C   0  0  2  0  0  0  0  0  0  0  0  0
   22.0303  -19.6210  -14.2904 N   0  0  0  0  0  0  0  0  0  0  0  0
   20.9099  -18.2384  -15.9697 C   0  0  0  0  0  0  0  0  0  0  0  0
   19.8014  -19.1103  -15.8774 O   0  0  0  0  0  0  0  0  0  0  0  0
   20.7257  -17.2635  -16.7396 O   0  0  0  0  0  0  0  0  0  0  0  0
  2 10  1  0
  2  3  1  0
  2  1  1  6
  3  4  1  0
  4  5  2  0
  5  6  1  0
  7  6  2  0
  8  7  1  0
  9  8  2  0
  9  4  1  0
 10 11  2  0
 12 13  1  0
 12 10  1  0
 13 21  1  0
 13 14  1  1
 15 14  1  0
 16 15  2  0
 17 16  1  0
 18 17  2  0
 18 19  1  0
 19 20  2  0
 20 15  1  0
 21 22  2  0
 21 29  1  0
 23 24  1  0
 24 26  1  0
 24 25  2  0
 26 27  1  0
 28 27  1  6
 28 30  1  0
 29 28  1  0
 30 32  2  0
 30 31  1  0
M  END
$$$$
