FFQ.pdb
     RDKit          3D

 32 33  0  0  1  0  0  0  0  0999 V2000
   25.7210  -21.5734  -13.4204 N   0  0  0  0  0  0  0  0  0  0  0  0
   25.1645  -20.6389  -12.4794 C   0  0  1  0  0  0  0  0  0  0  0  0
   23.6667  -20.6079  -12.7043 C   0  0  0  0  0  0  0  0  0  0  0  0
   23.3285  -20.0941  -14.0534 C   0  0  0  0  0  0  0  0  0  0  0  0
   23.6188  -18.8029  -14.3786 C   0  0  0  0  0  0  0  0  0  0  0  0
   23.3013  -18.3304  -15.6372 C   0  0  0  0  0  0  0  0  0  0  0  0
   22.6934  -19.1514  -16.5691 C   0  0  0  0  0  0  0  0  0  0  0  0
   22.4124  -20.4428  -16.2187 C   0  0  0  0  0  0  0  0  0  0  0  0
   22.7227  -20.9293  -14.9672 C   0  0  0  0  0  0  0  0  0  0  0  0
   25.5096  -21.0334  -11.0987 C   0  0  0  0  0  0  0  0  0  0  0  0
   25.3458  -22.2323  -10.7027 O   0  0  0  0  0  0  0  0  0  0  0  0
   26.0265  -20.1222  -10.1704 N   0  0  0  0  0  0  0  0  0  0  0  0
   26.3925  -20.5337   -8.7846 C   0  0  1  0  0  0  0  0  0  0  0  0
   27.3361  -19.4989   -8.2715 C   0  0  0  0  0  0  0  0  0  0  0  0
   27.7646  -19.6139   -6.8752 C   0  0  0  0  0  0  0  0  0  0  0  0
   27.8332  -18.5718   -5.9797 C   0  0  0  0  0  0  0  0  0  0  0  0
   28.2429  -18.7414   -4.6736 C   0  0  0  0  0  0  0  0  0  0  0  0
   28.6061  -19.9839   -4.2067 C   0  0  0  0  0  0  0  0  0  0  0  0
   28.5458  -21.0448   -5.0859 C   0  0  0  0  0  0  0  0  0  0  0  0
   28.1361  -20.8647   -6.3852 C   0  0  0  0  0  0  0  0  0  0  0  0
   25.1417  -20.5392   -8.0210 C   0  0  0  0  0  0  0  0  0  0  0  0
   24.3093  -19.5867   -8.2271 O   0  0  0  0  0  0  0  0  0  0  0  0
   20.5559  -23.8427   -7.9519 N   0  0  0  0  0  0  0  0  0  0  0  0
   20.2182  -23.0937   -6.7821 C   0  0  0  0  0  0  0  0  0  0  0  0
   19.0454  -23.2738   -6.3394 O   0  0  0  0  0  0  0  0  0  0  0  0
   21.1822  -22.1649   -6.1297 C   0  0  0  0  0  0  0  0  0  0  0  0
   22.4689  -22.2283   -6.9174 C   0  0  0  0  0  0  0  0  0  0  0  0
   23.5307  -21.3160   -6.3151 C   0  0  2  0  0  0  0  0  0  0  0  0
   24.7561  -21.5144   -7.0672 N   0  0  0  0  0  0  0  0  0  0  0  0
   23.6784  -21.5513   -4.8708 C   0  0  0  0  0  0  0  0  0  0  0  0
   22.6644  -21.1606   -3.9671 O   0  0  0  0  0  0  0  0  0  0  0  0
   24.6675  -22.0945   -4.3197 O   0  0  0  0  0  0  0  0  0  0  0  0
  2 10  1  0
  2  3  1  0
  2  1  1  6
  3  4  1  0
  4  5  2  0
  5  6  1  0
  7  6  2  0
  8  7  1  0
  9  8  2  0
  9  4  1  0
 10 11  2  0
 12 13  1  0
 12 10  1  0
 13 21  1  0
 13 14  1  1
 15 14  1  0
 16 15  2  0
 17 16  1  0
 18 17  2  0
 18 19  1  0
 19 20  2  0
 20 15  1  0
 21 22  2  0
 21 29  1  0
 23 24  1  0
 24 26  1  0
 24 25  2  0
 26 27  1  0
 28 27  1  6
 28 30  1  0
 29 28  1  0
 30 32  2  0
 30 31  1  0
M  END
$$$$
