FFQ.pdb
     RDKit          3D

 32 33  0  0  1  0  0  0  0  0999 V2000
   26.7643  -20.5647  -17.9904 N   0  0  0  0  0  0  0  0  0  0  0  0
   26.8939  -19.6131  -16.9198 C   0  0  1  0  0  0  0  0  0  0  0  0
   25.6271  -18.7827  -16.8968 C   0  0  0  0  0  0  0  0  0  0  0  0
   25.4918  -17.9603  -18.1231 C   0  0  0  0  0  0  0  0  0  0  0  0
   24.5218  -18.2564  -19.0334 C   0  0  0  0  0  0  0  0  0  0  0  0
   24.4010  -17.4862  -20.1737 C   0  0  0  0  0  0  0  0  0  0  0  0
   25.2516  -16.4202  -20.4015 C   0  0  0  0  0  0  0  0  0  0  0  0
   26.2167  -16.1434  -19.4733 C   0  0  0  0  0  0  0  0  0  0  0  0
   26.3503  -16.9022  -18.3306 C   0  0  0  0  0  0  0  0  0  0  0  0
   27.1231  -20.3102  -15.6381 C   0  0  0  0  0  0  0  0  0  0  0  0
   26.5560  -21.4229  -15.3904 O   0  0  0  0  0  0  0  0  0  0  0  0
   27.9630  -19.7899  -14.6466 N   0  0  0  0  0  0  0  0  0  0  0  0
   28.1948  -20.5039  -13.3583 C   0  0  1  0  0  0  0  0  0  0  0  0
   29.4691  -19.9663  -12.8001 C   0  0  0  0  0  0  0  0  0  0  0  0
   29.7921  -20.3089  -11.4127 C   0  0  0  0  0  0  0  0  0  0  0  0
   29.3406  -19.6310  -10.3040 C   0  0  0  0  0  0  0  0  0  0  0  0
   29.6772  -20.0024   -9.0190 C   0  0  0  0  0  0  0  0  0  0  0  0
   30.4936  -21.0865   -8.7918 C   0  0  0  0  0  0  0  0  0  0  0  0
   30.9593  -21.7825   -9.8877 C   0  0  0  0  0  0  0  0  0  0  0  0
   30.6178  -21.4039  -11.1639 C   0  0  0  0  0  0  0  0  0  0  0  0
   27.0548  -20.1699  -12.5002 C   0  0  0  0  0  0  0  0  0  0  0  0
   26.6486  -18.9543  -12.4892 O   0  0  0  0  0  0  0  0  0  0  0  0
   21.5818  -21.7167  -12.5673 N   0  0  0  0  0  0  0  0  0  0  0  0
   21.5419  -20.8745  -11.4129 C   0  0  0  0  0  0  0  0  0  0  0  0
   20.3879  -20.4955  -11.0545 O   0  0  0  0  0  0  0  0  0  0  0  0
   22.7755  -20.4714  -10.6827 C   0  0  0  0  0  0  0  0  0  0  0  0
   23.9535  -20.9917  -11.4712 C   0  0  0  0  0  0  0  0  0  0  0  0
   25.2730  -20.5715  -10.8349 C   0  0  2  0  0  0  0  0  0  0  0  0
   26.3441  -21.0766  -11.6741 N   0  0  0  0  0  0  0  0  0  0  0  0
   25.3563  -21.0187   -9.4363 C   0  0  0  0  0  0  0  0  0  0  0  0
   26.0892  -22.1763   -9.0897 O   0  0  0  0  0  0  0  0  0  0  0  0
   24.8143  -20.4492   -8.4570 O   0  0  0  0  0  0  0  0  0  0  0  0
  2 10  1  0
  2  3  1  0
  2  1  1  6
  3  4  1  0
  4  5  2  0
  5  6  1  0
  7  6  2  0
  8  7  1  0
  9  8  2  0
  9  4  1  0
 10 11  2  0
 12 13  1  0
 12 10  1  0
 13 21  1  0
 13 14  1  1
 15 14  1  0
 16 15  2  0
 17 16  1  0
 18 17  2  0
 18 19  1  0
 19 20  2  0
 20 15  1  0
 21 22  2  0
 21 29  1  0
 23 24  1  0
 24 26  1  0
 24 25  2  0
 26 27  1  0
 28 27  1  6
 28 30  1  0
 29 28  1  0
 30 32  2  0
 30 31  1  0
M  END
$$$$
