FFQ.pdb
     RDKit          3D

 32 33  0  0  1  0  0  0  0  0999 V2000
   28.5227  -21.5246  -16.4788 N   0  0  0  0  0  0  0  0  0  0  0  0
   28.1492  -20.4514  -15.5973 C   0  0  1  0  0  0  0  0  0  0  0  0
   26.9696  -19.7389  -16.2263 C   0  0  0  0  0  0  0  0  0  0  0  0
   27.3577  -19.0393  -17.4747 C   0  0  0  0  0  0  0  0  0  0  0  0
   28.2127  -17.9796  -17.4194 C   0  0  0  0  0  0  0  0  0  0  0  0
   28.5704  -17.3323  -18.5861 C   0  0  0  0  0  0  0  0  0  0  0  0
   28.0717  -17.7469  -19.8072 C   0  0  0  0  0  0  0  0  0  0  0  0
   27.2155  -18.8126  -19.8365 C   0  0  0  0  0  0  0  0  0  0  0  0
   26.8488  -19.4689  -18.6815 C   0  0  0  0  0  0  0  0  0  0  0  0
   27.8276  -20.9776  -14.2553 C   0  0  0  0  0  0  0  0  0  0  0  0
   27.1067  -22.0180  -14.1183 O   0  0  0  0  0  0  0  0  0  0  0  0
   28.2928  -20.3675  -13.0845 N   0  0  0  0  0  0  0  0  0  0  0  0
   27.9159  -20.8708  -11.7325 C   0  0  1  0  0  0  0  0  0  0  0  0
   28.7585  -20.1252  -10.7535 C   0  0  0  0  0  0  0  0  0  0  0  0
   28.3676  -20.1915   -9.3431 C   0  0  0  0  0  0  0  0  0  0  0  0
   28.7334  -21.1861   -8.4660 C   0  0  0  0  0  0  0  0  0  0  0  0
   28.3357  -21.1941   -7.1452 C   0  0  0  0  0  0  0  0  0  0  0  0
   27.5422  -20.1878   -6.6441 C   0  0  0  0  0  0  0  0  0  0  0  0
   27.1621  -19.1789   -7.5044 C   0  0  0  0  0  0  0  0  0  0  0  0
   27.5640  -19.1807   -8.8185 C   0  0  0  0  0  0  0  0  0  0  0  0
   26.4955  -20.5519  -11.5639 C   0  0  0  0  0  0  0  0  0  0  0  0
   26.1156  -19.3545  -11.8181 O   0  0  0  0  0  0  0  0  0  0  0  0
   21.8252  -22.2557  -14.2799 N   0  0  0  0  0  0  0  0  0  0  0  0
   21.1478  -21.5574  -13.2325 C   0  0  0  0  0  0  0  0  0  0  0  0
   19.9006  -21.4086  -13.3945 O   0  0  0  0  0  0  0  0  0  0  0  0
   21.8626  -21.0408  -12.0326 C   0  0  0  0  0  0  0  0  0  0  0  0
   23.3002  -21.4904  -12.1390 C   0  0  0  0  0  0  0  0  0  0  0  0
   24.1309  -20.9647  -10.9746 C   0  0  2  0  0  0  0  0  0  0  0  0
   25.4859  -21.4554  -11.1468 N   0  0  0  0  0  0  0  0  0  0  0  0
   23.5292  -21.3298   -9.6831 C   0  0  0  0  0  0  0  0  0  0  0  0
   22.2894  -20.7822   -9.2824 O   0  0  0  0  0  0  0  0  0  0  0  0
   24.0274  -22.1232   -8.8469 O   0  0  0  0  0  0  0  0  0  0  0  0
  2 10  1  0
  2  3  1  0
  2  1  1  6
  3  4  1  0
  4  5  2  0
  5  6  1  0
  7  6  2  0
  8  7  1  0
  9  8  2  0
  9  4  1  0
 10 11  2  0
 12 13  1  0
 12 10  1  0
 13 21  1  0
 13 14  1  1
 15 14  1  0
 16 15  2  0
 17 16  1  0
 18 17  2  0
 18 19  1  0
 19 20  2  0
 20 15  1  0
 21 22  2  0
 21 29  1  0
 23 24  1  0
 24 26  1  0
 24 25  2  0
 26 27  1  0
 28 27  1  6
 28 30  1  0
 29 28  1  0
 30 32  2  0
 30 31  1  0
M  END
$$$$
