WWN.pdb
     RDKit          3D

 37 40  0  0  1  0  0  0  0  0999 V2000
    8.2845  -18.7841   22.2942 N   0  0  0  0  0  0  0  0  0  0  0  0
    8.5593  -17.4738   21.7601 C   0  0  1  0  0  0  0  0  0  0  0  0
    7.3007  -16.7879   21.2717 C   0  0  0  0  0  0  0  0  0  0  0  0
    7.5752  -15.6423   20.4029 C   0  0  0  0  0  0  0  0  0  0  0  0
    7.8373  -15.6673   19.0490 C   0  0  0  0  0  0  0  0  0  0  0  0
    8.0426  -14.4155   18.6002 N   0  0  0  0  0  0  0  0  0  0  0  0
    7.9254  -13.5416   19.6199 C   0  0  0  0  0  0  0  0  0  0  0  0
    8.0302  -12.1772   19.7354 C   0  0  0  0  0  0  0  0  0  0  0  0
    7.8572  -11.5180   20.9332 C   0  0  0  0  0  0  0  0  0  0  0  0
    7.5652  -12.2825   22.0596 C   0  0  0  0  0  0  0  0  0  0  0  0
    7.4573  -13.6522   21.9578 C   0  0  0  0  0  0  0  0  0  0  0  0
    7.6348  -14.2878   20.7488 C   0  0  0  0  0  0  0  0  0  0  0  0
    9.1870  -16.6250   22.8065 C   0  0  0  0  0  0  0  0  0  0  0  0
    9.7883  -15.5891   22.4629 O   0  0  0  0  0  0  0  0  0  0  0  0
    9.1100  -16.9768   24.1804 N   0  0  0  0  0  0  0  0  0  0  0  0
    9.9492  -16.3654   25.2151 C   0  0  1  0  0  0  0  0  0  0  0  0
    9.0801  -16.0568   26.3979 C   0  0  0  0  0  0  0  0  0  0  0  0
    7.8310  -15.3565   26.1182 C   0  0  0  0  0  0  0  0  0  0  0  0
    6.5865  -15.9049   25.8966 C   0  0  0  0  0  0  0  0  0  0  0  0
    5.7012  -14.8979   25.6470 N   0  0  0  0  0  0  0  0  0  0  0  0
    6.3257  -13.7222   25.6988 C   0  0  0  0  0  0  0  0  0  0  0  0
    5.8659  -12.4351   25.5196 C   0  0  0  0  0  0  0  0  0  0  0  0
    6.7199  -11.3569   25.6261 C   0  0  0  0  0  0  0  0  0  0  0  0
    8.0427  -11.6208   25.9173 C   0  0  0  0  0  0  0  0  0  0  0  0
    8.5238  -12.9079   26.1010 C   0  0  0  0  0  0  0  0  0  0  0  0
    7.6684  -13.9863   25.9942 C   0  0  0  0  0  0  0  0  0  0  0  0
   11.1199  -17.2008   25.4772 C   0  0  0  0  0  0  0  0  0  0  0  0
   11.9948  -16.7313   26.2936 O   0  0  0  0  0  0  0  0  0  0  0  0
   10.2725  -21.6406   24.2148 N   0  0  0  0  0  0  0  0  0  0  0  0
   10.9897  -21.0539   25.3200 C   0  0  0  0  0  0  0  0  0  0  0  0
   10.3133  -20.8997   26.3756 O   0  0  0  0  0  0  0  0  0  0  0  0
   12.4105  -20.6820   25.1661 C   0  0  0  0  0  0  0  0  0  0  0  0
   12.6192  -19.1910   25.2428 C   0  0  2  0  0  0  0  0  0  0  0  0
   11.3896  -18.4796   24.9262 N   0  0  0  0  0  0  0  0  0  0  0  0
   13.7160  -18.8140   24.3393 C   0  0  0  0  0  0  0  0  0  0  0  0
   14.8650  -19.3559   24.4526 O   0  0  0  0  0  0  0  0  0  0  0  0
   13.5706  -17.8727   23.3356 O   0  0  0  0  0  0  0  0  0  0  0  0
  2  1  1  1
  3  4  1  0
  3  2  1  0
  4  5  2  0
  6  5  1  0
  7  6  1  0
  8  7  2  0
  9  8  1  0
 10  9  2  0
 10 11  1  0
 11 12  2  0
 12  7  1  0
 12  4  1  0
 13  2  1  0
 13 15  1  0
 14 13  2  0
 16 15  1  0
 16 17  1  1
 18 17  1  0
 18 19  2  0
 20 19  1  0
 21 20  1  0
 22 21  2  0
 23 22  1  0
 24 23  2  0
 24 25  1  0
 25 26  2  0
 26 21  1  0
 26 18  1  0
 27 28  2  0
 27 16  1  0
 29 30  1  0
 30 31  2  0
 30 32  1  0
 33 32  1  6
 33 34  1  0
 33 35  1  0
 34 27  1  0
 35 37  1  0
 36 35  2  0
M  END
$$$$
