WWN.pdb
     RDKit          3D

 37 40  0  0  1  0  0  0  0  0999 V2000
   10.1842  -19.0897   19.6364 N   0  0  0  0  0  0  0  0  0  0  0  0
    9.8670  -17.7320   20.0017 C   0  0  1  0  0  0  0  0  0  0  0  0
    8.5886  -17.2547   19.3452 C   0  0  0  0  0  0  0  0  0  0  0  0
    8.5509  -15.8036   19.1568 C   0  0  0  0  0  0  0  0  0  0  0  0
    9.1061  -15.0834   18.1196 C   0  0  0  0  0  0  0  0  0  0  0  0
    8.8655  -13.7712   18.2945 N   0  0  0  0  0  0  0  0  0  0  0  0
    8.1590  -13.5851   19.4274 C   0  0  0  0  0  0  0  0  0  0  0  0
    7.6517  -12.4861   20.0761 C   0  0  0  0  0  0  0  0  0  0  0  0
    6.9449  -12.5807   21.2554 C   0  0  0  0  0  0  0  0  0  0  0  0
    6.7475  -13.8489   21.7949 C   0  0  0  0  0  0  0  0  0  0  0  0
    7.2511  -14.9599   21.1545 C   0  0  0  0  0  0  0  0  0  0  0  0
    7.9545  -14.8390   19.9765 C   0  0  0  0  0  0  0  0  0  0  0  0
    9.7099  -17.6309   21.4764 C   0  0  0  0  0  0  0  0  0  0  0  0
    9.4568  -18.6622   22.1285 O   0  0  0  0  0  0  0  0  0  0  0  0
    9.8438  -16.3849   22.1448 N   0  0  0  0  0  0  0  0  0  0  0  0
    9.7641  -16.2415   23.6014 C   0  0  1  0  0  0  0  0  0  0  0  0
    9.7825  -14.7775   23.9272 C   0  0  0  0  0  0  0  0  0  0  0  0
    9.3173  -14.4047   25.2590 C   0  0  0  0  0  0  0  0  0  0  0  0
    9.7925  -14.8473   26.4742 C   0  0  0  0  0  0  0  0  0  0  0  0
    9.0594  -14.2698   27.4688 N   0  0  0  0  0  0  0  0  0  0  0  0
    8.1306  -13.4725   26.9428 C   0  0  0  0  0  0  0  0  0  0  0  0
    7.1646  -12.6840   27.5304 C   0  0  0  0  0  0  0  0  0  0  0  0
    6.3008  -11.9315   26.7616 C   0  0  0  0  0  0  0  0  0  0  0  0
    6.4450  -12.0020   25.3910 C   0  0  0  0  0  0  0  0  0  0  0  0
    7.4101  -12.7889   24.7818 C   0  0  0  0  0  0  0  0  0  0  0  0
    8.2740  -13.5416   25.5520 C   0  0  0  0  0  0  0  0  0  0  0  0
    8.6311  -17.0030   24.1245 C   0  0  0  0  0  0  0  0  0  0  0  0
    7.5051  -16.3873   24.1992 O   0  0  0  0  0  0  0  0  0  0  0  0
   11.6204  -20.9723   24.7930 N   0  0  0  0  0  0  0  0  0  0  0  0
   12.0032  -19.6558   24.3453 C   0  0  0  0  0  0  0  0  0  0  0  0
   13.1497  -19.5813   23.8203 O   0  0  0  0  0  0  0  0  0  0  0  0
   11.0777  -18.5180   24.5164 C   0  0  0  0  0  0  0  0  0  0  0  0
    9.8076  -18.9197   25.2222 C   0  0  2  0  0  0  0  0  0  0  0  0
    8.6441  -18.3541   24.5555 N   0  0  0  0  0  0  0  0  0  0  0  0
    9.8884  -18.4999   26.6289 C   0  0  0  0  0  0  0  0  0  0  0  0
    9.2089  -17.5059   27.0493 O   0  0  0  0  0  0  0  0  0  0  0  0
   10.6862  -19.1432   27.5586 O   0  0  0  0  0  0  0  0  0  0  0  0
  2  1  1  1
  3  4  1  0
  3  2  1  0
  4  5  2  0
  6  5  1  0
  7  6  1  0
  8  7  2  0
  9  8  1  0
 10  9  2  0
 10 11  1  0
 11 12  2  0
 12  7  1  0
 12  4  1  0
 13  2  1  0
 13 15  1  0
 14 13  2  0
 16 15  1  0
 16 17  1  6
 18 17  1  0
 18 19  2  0
 20 19  1  0
 21 20  1  0
 22 21  2  0
 23 22  1  0
 24 23  2  0
 24 25  1  0
 25 26  2  0
 26 21  1  0
 26 18  1  0
 27 28  2  0
 27 16  1  0
 29 30  1  0
 30 31  2  0
 30 32  1  0
 33 32  1  6
 33 34  1  0
 33 35  1  0
 34 27  1  0
 35 37  1  0
 36 35  2  0
M  END
$$$$
