WWN.pdb
     RDKit          3D

 37 40  0  0  1  0  0  0  0  0999 V2000
    8.4952  -16.4900   21.4809 N   0  0  0  0  0  0  0  0  0  0  0  0
    9.2178  -15.2975   21.8459 C   0  0  1  0  0  0  0  0  0  0  0  0
    8.4673  -14.0412   21.4565 C   0  0  0  0  0  0  0  0  0  0  0  0
    8.4958  -13.7825   20.0160 C   0  0  0  0  0  0  0  0  0  0  0  0
    7.4133  -13.6607   19.1699 C   0  0  0  0  0  0  0  0  0  0  0  0
    7.8384  -13.4273   17.9148 N   0  0  0  0  0  0  0  0  0  0  0  0
    9.1858  -13.3880   17.8908 C   0  0  0  0  0  0  0  0  0  0  0  0
   10.1257  -13.1889   16.9095 C   0  0  0  0  0  0  0  0  0  0  0  0
   11.4798  -13.1981   17.1656 C   0  0  0  0  0  0  0  0  0  0  0  0
   11.8917  -13.4196   18.4771 C   0  0  0  0  0  0  0  0  0  0  0  0
   10.9593  -13.6209   19.4711 C   0  0  0  0  0  0  0  0  0  0  0  0
    9.6111  -13.6070   19.1895 C   0  0  0  0  0  0  0  0  0  0  0  0
    9.4473  -15.2775   23.3145 C   0  0  0  0  0  0  0  0  0  0  0  0
    9.8933  -14.2402   23.8415 O   0  0  0  0  0  0  0  0  0  0  0  0
    9.1666  -16.4155   24.1165 N   0  0  0  0  0  0  0  0  0  0  0  0
    9.5632  -16.5251   25.5234 C   0  0  1  0  0  0  0  0  0  0  0  0
    8.3172  -16.6292   26.3520 C   0  0  0  0  0  0  0  0  0  0  0  0
    7.3249  -15.5761   26.1641 C   0  0  0  0  0  0  0  0  0  0  0  0
    6.0356  -15.7044   25.6954 C   0  0  0  0  0  0  0  0  0  0  0  0
    5.4598  -14.4689   25.6507 N   0  0  0  0  0  0  0  0  0  0  0  0
    6.3269  -13.5493   26.0719 C   0  0  0  0  0  0  0  0  0  0  0  0
    6.2145  -12.1821   26.2073 C   0  0  0  0  0  0  0  0  0  0  0  0
    7.2708  -11.4276   26.6746 C   0  0  0  0  0  0  0  0  0  0  0  0
    8.4344  -12.0955   26.9977 C   0  0  0  0  0  0  0  0  0  0  0  0
    8.5665  -13.4694   26.8685 C   0  0  0  0  0  0  0  0  0  0  0  0
    7.5089  -14.2236   26.4007 C   0  0  0  0  0  0  0  0  0  0  0  0
   10.5402  -17.5993   25.6925 C   0  0  0  0  0  0  0  0  0  0  0  0
   10.1053  -18.8023   25.5656 O   0  0  0  0  0  0  0  0  0  0  0  0
   14.8802  -16.3795   24.5576 N   0  0  0  0  0  0  0  0  0  0  0  0
   14.3808  -17.7271   24.6790 C   0  0  0  0  0  0  0  0  0  0  0  0
   14.1310  -18.3060   23.5844 O   0  0  0  0  0  0  0  0  0  0  0  0
   14.1968  -18.3304   26.0142 C   0  0  0  0  0  0  0  0  0  0  0  0
   12.7457  -18.6018   26.3200 C   0  0  2  0  0  0  0  0  0  0  0  0
   11.9213  -17.4519   25.9790 N   0  0  0  0  0  0  0  0  0  0  0  0
   12.6155  -18.9654   27.7386 C   0  0  0  0  0  0  0  0  0  0  0  0
   11.9006  -18.2612   28.5257 O   0  0  0  0  0  0  0  0  0  0  0  0
   13.2442  -20.0674   28.2908 O   0  0  0  0  0  0  0  0  0  0  0  0
  2  1  1  1
  3  4  1  0
  3  2  1  0
  4  5  2  0
  6  5  1  0
  7  6  1  0
  8  7  2  0
  9  8  1  0
 10  9  2  0
 10 11  1  0
 11 12  2  0
 12  7  1  0
 12  4  1  0
 13  2  1  0
 13 15  1  0
 14 13  2  0
 16 15  1  0
 16 17  1  1
 18 17  1  0
 18 19  2  0
 20 19  1  0
 21 20  1  0
 22 21  2  0
 23 22  1  0
 24 23  2  0
 24 25  1  0
 25 26  2  0
 26 21  1  0
 26 18  1  0
 27 28  2  0
 27 16  1  0
 29 30  1  0
 30 31  2  0
 30 32  1  0
 33 32  1  1
 33 34  1  0
 33 35  1  0
 34 27  1  0
 35 37  1  0
 36 35  2  0
M  END
$$$$
