WWN.pdb
     RDKit          3D

 37 40  0  0  1  0  0  0  0  0999 V2000
    8.7079  -17.9842   22.0367 N   0  0  0  0  0  0  0  0  0  0  0  0
    8.7540  -16.5475   21.9298 C   0  0  1  0  0  0  0  0  0  0  0  0
    7.3817  -15.9552   21.6865 C   0  0  0  0  0  0  0  0  0  0  0  0
    7.2703  -15.2865   20.3892 C   0  0  0  0  0  0  0  0  0  0  0  0
    6.8103  -15.8307   19.2082 C   0  0  0  0  0  0  0  0  0  0  0  0
    6.8597  -14.9079   18.2302 N   0  0  0  0  0  0  0  0  0  0  0  0
    7.3430  -13.7494   18.7217 C   0  0  0  0  0  0  0  0  0  0  0  0
    7.5997  -12.5100   18.1887 C   0  0  0  0  0  0  0  0  0  0  0  0
    8.1077  -11.4705   18.9374 C   0  0  0  0  0  0  0  0  0  0  0  0
    8.3645  -11.7054   20.2856 C   0  0  0  0  0  0  0  0  0  0  0  0
    8.1116  -12.9440   20.8330 C   0  0  0  0  0  0  0  0  0  0  0  0
    7.6036  -13.9671   20.0635 C   0  0  0  0  0  0  0  0  0  0  0  0
    9.3066  -15.9669   23.1817 C   0  0  0  0  0  0  0  0  0  0  0  0
    9.7843  -14.8164   23.1539 O   0  0  0  0  0  0  0  0  0  0  0  0
    9.2963  -16.7007   24.3977 N   0  0  0  0  0  0  0  0  0  0  0  0
   10.1608  -16.3803   25.5373 C   0  0  1  0  0  0  0  0  0  0  0  0
    9.2880  -16.1618   26.7374 C   0  0  0  0  0  0  0  0  0  0  0  0
    8.0472  -15.4283   26.5107 C   0  0  0  0  0  0  0  0  0  0  0  0
    6.7897  -15.9448   26.2863 C   0  0  0  0  0  0  0  0  0  0  0  0
    5.9186  -14.9126   26.0969 N   0  0  0  0  0  0  0  0  0  0  0  0
    6.5649  -13.7513   26.1902 C   0  0  0  0  0  0  0  0  0  0  0  0
    6.1253  -12.4498   26.0763 C   0  0  0  0  0  0  0  0  0  0  0  0
    7.0002  -11.3922   26.2159 C   0  0  0  0  0  0  0  0  0  0  0  0
    8.3226  -11.6916   26.4723 C   0  0  0  0  0  0  0  0  0  0  0  0
    8.7835  -12.9937   26.5904 C   0  0  0  0  0  0  0  0  0  0  0  0
    7.9072  -14.0514   26.4505 C   0  0  0  0  0  0  0  0  0  0  0  0
   11.2082  -17.3903   25.6786 C   0  0  0  0  0  0  0  0  0  0  0  0
   11.9141  -17.3458   26.7520 O   0  0  0  0  0  0  0  0  0  0  0  0
   10.6126  -21.4441   22.8370 N   0  0  0  0  0  0  0  0  0  0  0  0
   11.3194  -21.1658   24.0630 C   0  0  0  0  0  0  0  0  0  0  0  0
   10.7401  -21.5566   25.1153 O   0  0  0  0  0  0  0  0  0  0  0  0
   12.6220  -20.4714   24.0247 C   0  0  0  0  0  0  0  0  0  0  0  0
   12.6668  -19.2954   24.9669 C   0  0  2  0  0  0  0  0  0  0  0  0
   11.5250  -18.4184   24.7544 N   0  0  0  0  0  0  0  0  0  0  0  0
   13.9415  -18.5854   24.7859 C   0  0  0  0  0  0  0  0  0  0  0  0
   14.8129  -18.5693   25.7170 O   0  0  0  0  0  0  0  0  0  0  0  0
   14.2647  -17.9098   23.6224 O   0  0  0  0  0  0  0  0  0  0  0  0
  2  1  1  1
  3  4  1  0
  3  2  1  0
  4  5  2  0
  6  5  1  0
  7  6  1  0
  8  7  2  0
  9  8  1  0
 10  9  2  0
 10 11  1  0
 11 12  2  0
 12  7  1  0
 12  4  1  0
 13  2  1  0
 13 15  1  0
 14 13  2  0
 16 15  1  0
 16 17  1  1
 18 17  1  0
 18 19  2  0
 20 19  1  0
 21 20  1  0
 22 21  2  0
 23 22  1  0
 24 23  2  0
 24 25  1  0
 25 26  2  0
 26 21  1  0
 26 18  1  0
 27 28  2  0
 27 16  1  0
 29 30  1  0
 30 31  2  0
 30 32  1  0
 33 32  1  6
 33 34  1  0
 33 35  1  0
 34 27  1  0
 35 37  1  0
 36 35  2  0
M  END
$$$$
