WWN.pdb
     RDKit          3D

 37 40  0  0  1  0  0  0  0  0999 V2000
    8.6899  -17.1861   21.7490 N   0  0  0  0  0  0  0  0  0  0  0  0
    8.9279  -15.8242   22.1566 C   0  0  1  0  0  0  0  0  0  0  0  0
    7.6914  -14.9640   22.0011 C   0  0  0  0  0  0  0  0  0  0  0  0
    7.4564  -14.5468   20.6178 C   0  0  0  0  0  0  0  0  0  0  0  0
    6.4413  -14.9646   19.7826 C   0  0  0  0  0  0  0  0  0  0  0  0
    6.5578  -14.3621   18.5852 N   0  0  0  0  0  0  0  0  0  0  0  0
    7.6296  -13.5444   18.5896 C   0  0  0  0  0  0  0  0  0  0  0  0
    8.2053  -12.7069   17.6660 C   0  0  0  0  0  0  0  0  0  0  0  0
    9.3319  -11.9618   17.9400 C   0  0  0  0  0  0  0  0  0  0  0  0
    9.8940  -12.0760   19.2087 C   0  0  0  0  0  0  0  0  0  0  0  0
    9.3265  -12.9126   20.1447 C   0  0  0  0  0  0  0  0  0  0  0  0
    8.2002  -13.6471   19.8464 C   0  0  0  0  0  0  0  0  0  0  0  0
    9.3528  -15.7919   23.5807 C   0  0  0  0  0  0  0  0  0  0  0  0
    9.8771  -14.7549   24.0307 O   0  0  0  0  0  0  0  0  0  0  0  0
    9.1696  -16.9179   24.4268 N   0  0  0  0  0  0  0  0  0  0  0  0
    9.5725  -16.9385   25.8360 C   0  0  1  0  0  0  0  0  0  0  0  0
    8.3311  -16.8905   26.6764 C   0  0  0  0  0  0  0  0  0  0  0  0
    7.4438  -15.7533   26.4561 C   0  0  0  0  0  0  0  0  0  0  0  0
    6.1424  -15.7726   26.0037 C   0  0  0  0  0  0  0  0  0  0  0  0
    5.6892  -14.4893   25.9158 N   0  0  0  0  0  0  0  0  0  0  0  0
    6.6469  -13.6436   26.2935 C   0  0  0  0  0  0  0  0  0  0  0  0
    6.6697  -12.2678   26.3765 C   0  0  0  0  0  0  0  0  0  0  0  0
    7.8002  -11.6030   26.8050 C   0  0  0  0  0  0  0  0  0  0  0  0
    8.8970  -12.3687   27.1440 C   0  0  0  0  0  0  0  0  0  0  0  0
    8.8932  -13.7529   27.0672 C   0  0  0  0  0  0  0  0  0  0  0  0
    7.7615  -14.4172   26.6383 C   0  0  0  0  0  0  0  0  0  0  0  0
   10.4774  -18.0587   26.0881 C   0  0  0  0  0  0  0  0  0  0  0  0
   10.0110  -19.2380   25.8777 O   0  0  0  0  0  0  0  0  0  0  0  0
   13.4659  -19.2039   24.7539 N   0  0  0  0  0  0  0  0  0  0  0  0
   14.4065  -19.0814   25.8403 C   0  0  0  0  0  0  0  0  0  0  0  0
   15.6213  -19.0493   25.4955 O   0  0  0  0  0  0  0  0  0  0  0  0
   13.9222  -19.0034   27.2331 C   0  0  0  0  0  0  0  0  0  0  0  0
   12.4177  -19.0550   27.3153 C   0  0  2  0  0  0  0  0  0  0  0  0
   11.8201  -17.9794   26.5381 N   0  0  0  0  0  0  0  0  0  0  0  0
   12.0133  -18.9978   28.7276 C   0  0  0  0  0  0  0  0  0  0  0  0
   11.3364  -18.0111   29.1691 O   0  0  0  0  0  0  0  0  0  0  0  0
   12.3338  -19.9876   29.6398 O   0  0  0  0  0  0  0  0  0  0  0  0
  2  1  1  1
  3  4  1  0
  3  2  1  0
  4  5  2  0
  6  5  1  0
  7  6  1  0
  8  7  2  0
  9  8  1  0
 10  9  2  0
 10 11  1  0
 11 12  2  0
 12  7  1  0
 12  4  1  0
 13  2  1  0
 13 15  1  0
 14 13  2  0
 16 15  1  0
 16 17  1  1
 18 17  1  0
 18 19  2  0
 20 19  1  0
 21 20  1  0
 22 21  2  0
 23 22  1  0
 24 23  2  0
 24 25  1  0
 25 26  2  0
 26 21  1  0
 26 18  1  0
 27 28  2  0
 27 16  1  0
 29 30  1  0
 30 31  2  0
 30 32  1  0
 33 32  1  1
 33 34  1  0
 33 35  1  0
 34 27  1  0
 35 37  1  0
 36 35  2  0
M  END
$$$$
