WWN.pdb
     RDKit          3D

 37 40  0  0  1  0  0  0  0  0999 V2000
   10.4702  -16.5096   18.4195 N   0  0  0  0  0  0  0  0  0  0  0  0
    9.9336  -17.3877   19.4287 C   0  0  1  0  0  0  0  0  0  0  0  0
   10.7586  -18.6489   19.5762 C   0  0  0  0  0  0  0  0  0  0  0  0
   10.2081  -19.5791   20.5632 C   0  0  0  0  0  0  0  0  0  0  0  0
    8.8997  -20.0028   20.6697 C   0  0  0  0  0  0  0  0  0  0  0  0
    8.7783  -20.8554   21.7035 N   0  0  0  0  0  0  0  0  0  0  0  0
    9.9756  -21.0198   22.3008 C   0  0  0  0  0  0  0  0  0  0  0  0
   10.4251  -21.7542   23.3706 C   0  0  0  0  0  0  0  0  0  0  0  0
   11.7408  -21.7402   23.7805 C   0  0  0  0  0  0  0  0  0  0  0  0
   12.6346  -20.9440   23.0695 C   0  0  0  0  0  0  0  0  0  0  0  0
   12.1970  -20.2021   21.9943 C   0  0  0  0  0  0  0  0  0  0  0  0
   10.8764  -20.2330   21.6042 C   0  0  0  0  0  0  0  0  0  0  0  0
    9.8991  -16.6870   20.7392 C   0  0  0  0  0  0  0  0  0  0  0  0
   10.9328  -16.1261   21.1512 O   0  0  0  0  0  0  0  0  0  0  0  0
    8.7132  -16.6489   21.5199 N   0  0  0  0  0  0  0  0  0  0  0  0
    8.6442  -16.0314   22.8475 C   0  0  1  0  0  0  0  0  0  0  0  0
    7.2381  -15.5583   23.0688 C   0  0  0  0  0  0  0  0  0  0  0  0
    6.9192  -15.0813   24.4103 C   0  0  0  0  0  0  0  0  0  0  0  0
    6.2974  -15.7728   25.4271 C   0  0  0  0  0  0  0  0  0  0  0  0
    6.1696  -14.9474   26.5052 N   0  0  0  0  0  0  0  0  0  0  0  0
    6.6844  -13.7512   26.2237 C   0  0  0  0  0  0  0  0  0  0  0  0
    6.7908  -12.6023   26.9778 C   0  0  0  0  0  0  0  0  0  0  0  0
    7.3762  -11.4661   26.4584 C   0  0  0  0  0  0  0  0  0  0  0  0
    7.8463  -11.5296   25.1626 C   0  0  0  0  0  0  0  0  0  0  0  0
    7.7485  -12.6756   24.3887 C   0  0  0  0  0  0  0  0  0  0  0  0
    7.1626  -13.8121   24.9094 C   0  0  0  0  0  0  0  0  0  0  0  0
    9.1842  -16.9396   23.8577 C   0  0  0  0  0  0  0  0  0  0  0  0
    8.7902  -18.1622   23.8066 O   0  0  0  0  0  0  0  0  0  0  0  0
   14.2264  -17.5404   25.5871 N   0  0  0  0  0  0  0  0  0  0  0  0
   12.9054  -17.3121   25.0552 C   0  0  0  0  0  0  0  0  0  0  0  0
   12.7753  -16.2510   24.3824 O   0  0  0  0  0  0  0  0  0  0  0  0
   11.8256  -18.2857   25.3132 C   0  0  0  0  0  0  0  0  0  0  0  0
   10.5724  -17.6220   25.8251 C   0  0  2  0  0  0  0  0  0  0  0  0
   10.1021  -16.6125   24.8881 N   0  0  0  0  0  0  0  0  0  0  0  0
   10.8413  -17.0512   27.1530 C   0  0  0  0  0  0  0  0  0  0  0  0
   11.3099  -17.7794   28.0893 O   0  0  0  0  0  0  0  0  0  0  0  0
   10.6088  -15.7219   27.4587 O   0  0  0  0  0  0  0  0  0  0  0  0
  2  1  1  6
  3  4  1  0
  3  2  1  0
  4  5  2  0
  6  5  1  0
  7  6  1  0
  8  7  2  0
  9  8  1  0
 10  9  2  0
 10 11  1  0
 11 12  2  0
 12  7  1  0
 12  4  1  0
 13  2  1  0
 13 15  1  0
 14 13  2  0
 16 15  1  0
 16 17  1  1
 18 17  1  0
 18 19  2  0
 20 19  1  0
 21 20  1  0
 22 21  2  0
 23 22  1  0
 24 23  2  0
 24 25  1  0
 25 26  2  0
 26 21  1  0
 26 18  1  0
 27 28  2  0
 27 16  1  0
 29 30  1  0
 30 31  2  0
 30 32  1  0
 33 32  1  6
 33 34  1  0
 33 35  1  0
 34 27  1  0
 35 37  1  0
 36 35  2  0
M  END
$$$$
