WWN.pdb
     RDKit          3D

 37 40  0  0  1  0  0  0  0  0999 V2000
    8.6088  -17.4012   21.8661 N   0  0  0  0  0  0  0  0  0  0  0  0
    8.8446  -16.0163   22.1885 C   0  0  1  0  0  0  0  0  0  0  0  0
    7.5976  -15.1755   22.0129 C   0  0  0  0  0  0  0  0  0  0  0  0
    7.3224  -14.8479   20.6130 C   0  0  0  0  0  0  0  0  0  0  0  0
    6.5376  -15.5595   19.7296 C   0  0  0  0  0  0  0  0  0  0  0  0
    6.5272  -14.9466   18.5318 N   0  0  0  0  0  0  0  0  0  0  0  0
    7.2875  -13.8345   18.5831 C   0  0  0  0  0  0  0  0  0  0  0  0
    7.6237  -12.8557   17.6805 C   0  0  0  0  0  0  0  0  0  0  0  0
    8.4434  -11.7964   18.0049 C   0  0  0  0  0  0  0  0  0  0  0  0
    8.9405  -11.7334   19.3040 C   0  0  0  0  0  0  0  0  0  0  0  0
    8.6112  -12.7088   20.2194 C   0  0  0  0  0  0  0  0  0  0  0  0
    7.7898  -13.7579   19.8705 C   0  0  0  0  0  0  0  0  0  0  0  0
    9.3022  -15.8983   23.5980 C   0  0  0  0  0  0  0  0  0  0  0  0
    9.7223  -14.7985   24.0061 O   0  0  0  0  0  0  0  0  0  0  0  0
    9.2661  -17.0134   24.4769 N   0  0  0  0  0  0  0  0  0  0  0  0
    9.8118  -16.9830   25.8370 C   0  0  1  0  0  0  0  0  0  0  0  0
    8.6625  -16.9243   26.7990 C   0  0  0  0  0  0  0  0  0  0  0  0
    7.6745  -15.8766   26.5641 C   0  0  0  0  0  0  0  0  0  0  0  0
    6.3845  -16.0204   26.1015 C   0  0  0  0  0  0  0  0  0  0  0  0
    5.8139  -14.7857   26.0016 N   0  0  0  0  0  0  0  0  0  0  0  0
    6.6848  -13.8518   26.3814 C   0  0  0  0  0  0  0  0  0  0  0  0
    6.5780  -12.4795   26.4555 C   0  0  0  0  0  0  0  0  0  0  0  0
    7.6375  -11.7093   26.8887 C   0  0  0  0  0  0  0  0  0  0  0  0
    8.7983  -12.3668   27.2414 C   0  0  0  0  0  0  0  0  0  0  0  0
    8.9248  -13.7456   27.1737 C   0  0  0  0  0  0  0  0  0  0  0  0
    7.8640  -14.5156   26.7401 C   0  0  0  0  0  0  0  0  0  0  0  0
   10.7562  -18.0821   26.0290 C   0  0  0  0  0  0  0  0  0  0  0  0
   10.2555  -19.2581   26.1663 O   0  0  0  0  0  0  0  0  0  0  0  0
   14.6037  -17.4712   23.6325 N   0  0  0  0  0  0  0  0  0  0  0  0
   14.1323  -18.7290   24.1577 C   0  0  0  0  0  0  0  0  0  0  0  0
   13.5799  -19.4885   23.3130 O   0  0  0  0  0  0  0  0  0  0  0  0
   14.3123  -19.0473   25.5884 C   0  0  0  0  0  0  0  0  0  0  0  0
   12.9964  -19.1606   26.3152 C   0  0  2  0  0  0  0  0  0  0  0  0
   12.1705  -17.9864   26.0759 N   0  0  0  0  0  0  0  0  0  0  0  0
   13.2568  -19.3620   27.7481 C   0  0  0  0  0  0  0  0  0  0  0  0
   14.0118  -20.3110   28.1431 O   0  0  0  0  0  0  0  0  0  0  0  0
   12.7128  -18.5529   28.7299 O   0  0  0  0  0  0  0  0  0  0  0  0
  2  1  1  1
  3  4  1  0
  3  2  1  0
  4  5  2  0
  6  5  1  0
  7  6  1  0
  8  7  2  0
  9  8  1  0
 10  9  2  0
 10 11  1  0
 11 12  2  0
 12  7  1  0
 12  4  1  0
 13  2  1  0
 13 15  1  0
 14 13  2  0
 16 15  1  0
 16 17  1  1
 18 17  1  0
 18 19  2  0
 20 19  1  0
 21 20  1  0
 22 21  2  0
 23 22  1  0
 24 23  2  0
 24 25  1  0
 25 26  2  0
 26 21  1  0
 26 18  1  0
 27 28  2  0
 27 16  1  0
 29 30  1  0
 30 31  2  0
 30 32  1  0
 33 32  1  6
 33 34  1  0
 33 35  1  0
 34 27  1  0
 35 37  1  0
 36 35  2  0
M  END
$$$$
