WWN.pdb
     RDKit          3D

 37 40  0  0  1  0  0  0  0  0999 V2000
    7.7757  -19.6644   25.1101 N   0  0  0  0  0  0  0  0  0  0  0  0
    7.7726  -18.2332   25.2805 C   0  0  1  0  0  0  0  0  0  0  0  0
    8.0152  -17.8356   26.7214 C   0  0  0  0  0  0  0  0  0  0  0  0
    7.7637  -16.4156   26.9719 C   0  0  0  0  0  0  0  0  0  0  0  0
    6.5893  -15.7261   26.7527 C   0  0  0  0  0  0  0  0  0  0  0  0
    6.7451  -14.4360   27.1016 N   0  0  0  0  0  0  0  0  0  0  0  0
    7.9993  -14.2349   27.5530 C   0  0  0  0  0  0  0  0  0  0  0  0
    8.6885  -13.1463   28.0284 C   0  0  0  0  0  0  0  0  0  0  0  0
   10.0027  -13.2199   28.4365 C   0  0  0  0  0  0  0  0  0  0  0  0
   10.6400  -14.4552   28.3562 C   0  0  0  0  0  0  0  0  0  0  0  0
    9.9604  -15.5554   27.8811 C   0  0  0  0  0  0  0  0  0  0  0  0
    8.6467  -15.4560   27.4792 C   0  0  0  0  0  0  0  0  0  0  0  0
    8.8320  -17.6231   24.4348 C   0  0  0  0  0  0  0  0  0  0  0  0
    9.7215  -18.3552   23.9601 O   0  0  0  0  0  0  0  0  0  0  0  0
    8.8421  -16.2290   24.1635 N   0  0  0  0  0  0  0  0  0  0  0  0
    9.7360  -15.6075   23.1821 C   0  0  1  0  0  0  0  0  0  0  0  0
    9.2754  -14.1975   22.9594 C   0  0  0  0  0  0  0  0  0  0  0  0
    8.1954  -14.0137   21.9957 C   0  0  0  0  0  0  0  0  0  0  0  0
    6.8419  -13.9500   22.2458 C   0  0  0  0  0  0  0  0  0  0  0  0
    6.1834  -13.7976   21.0612 N   0  0  0  0  0  0  0  0  0  0  0  0
    7.0587  -13.7605   20.0576 C   0  0  0  0  0  0  0  0  0  0  0  0
    6.8833  -13.6220   18.6973 C   0  0  0  0  0  0  0  0  0  0  0  0
    7.9652  -13.6112   17.8414 C   0  0  0  0  0  0  0  0  0  0  0  0
    9.2194  -13.7440   18.4014 C   0  0  0  0  0  0  0  0  0  0  0  0
    9.4160  -13.8842   19.7665 C   0  0  0  0  0  0  0  0  0  0  0  0
    8.3326  -13.8949   20.6223 C   0  0  0  0  0  0  0  0  0  0  0  0
   11.1300  -15.7722   23.5904 C   0  0  0  0  0  0  0  0  0  0  0  0
   11.4544  -15.3051   24.7433 O   0  0  0  0  0  0  0  0  0  0  0  0
   15.9641  -17.0497   24.5709 N   0  0  0  0  0  0  0  0  0  0  0  0
   14.8033  -17.5869   25.2373 C   0  0  0  0  0  0  0  0  0  0  0  0
   15.0474  -18.2615   26.2770 O   0  0  0  0  0  0  0  0  0  0  0  0
   13.4542  -17.3316   24.6942 C   0  0  0  0  0  0  0  0  0  0  0  0
   13.4991  -16.5567   23.4019 C   0  0  2  0  0  0  0  0  0  0  0  0
   12.1630  -16.3983   22.8470 N   0  0  0  0  0  0  0  0  0  0  0  0
   14.4017  -17.2410   22.4646 C   0  0  0  0  0  0  0  0  0  0  0  0
   15.6389  -17.3814   22.7410 O   0  0  0  0  0  0  0  0  0  0  0  0
   13.9734  -17.7620   21.2565 O   0  0  0  0  0  0  0  0  0  0  0  0
  2  1  1  1
  3  4  1  0
  3  2  1  0
  4  5  2  0
  6  5  1  0
  7  6  1  0
  8  7  2  0
  9  8  1  0
 10  9  2  0
 10 11  1  0
 11 12  2  0
 12  7  1  0
 12  4  1  0
 13  2  1  0
 13 15  1  0
 14 13  2  0
 16 15  1  0
 16 17  1  1
 18 17  1  0
 18 19  2  0
 20 19  1  0
 21 20  1  0
 22 21  2  0
 23 22  1  0
 24 23  2  0
 24 25  1  0
 25 26  2  0
 26 21  1  0
 26 18  1  0
 27 28  2  0
 27 16  1  0
 29 30  1  0
 30 31  2  0
 30 32  1  0
 33 32  1  1
 33 34  1  0
 33 35  1  0
 34 27  1  0
 35 37  1  0
 36 35  2  0
M  END
$$$$
