DKW.pdb
     RDKit          3D

 32 33  0  0  1  0  0  0  0  0999 V2000
   26.7982  -17.6331  -18.3250 N   0  0  0  0  0  0  0  0  0  0  0  0
   27.6756  -18.2270  -17.3656 C   0  0  1  0  0  0  0  0  0  0  0  0
   28.4272  -17.1531  -16.6084 C   0  0  0  0  0  0  0  0  0  0  0  0
   29.3973  -16.4469  -17.4677 C   0  0  0  0  0  0  0  0  0  0  0  0
   29.6825  -15.2447  -17.3903 O   0  0  0  0  0  0  0  0  0  0  0  0
   26.8939  -19.0054  -16.3328 C   0  0  0  0  0  0  0  0  0  0  0  0
   26.1430  -18.3539  -15.5816 O   0  0  0  0  0  0  0  0  0  0  0  0
   30.0383  -17.2189  -18.4460 O   0  0  0  0  0  0  0  0  0  0  0  0
   27.0158  -20.4133  -16.2302 N   0  0  0  0  0  0  0  0  0  0  0  0
   26.3317  -21.2907  -15.3496 C   0  0  1  0  0  0  0  0  0  0  0  0
   26.0468  -22.6496  -15.9606 C   0  0  0  0  0  0  0  0  0  0  0  0
   25.0929  -23.4499  -15.1606 C   0  0  0  0  0  0  0  0  0  0  0  0
   24.7580  -24.7568  -15.7902 C   0  0  0  0  0  0  0  0  0  0  0  0
   23.5621  -25.4810  -15.2939 C   0  0  0  0  0  0  0  0  0  0  0  0
   23.3911  -26.7522  -15.9414 N   0  0  0  0  0  0  0  0  0  0  0  0
   26.8135  -21.3446  -13.9552 C   0  0  0  0  0  0  0  0  0  0  0  0
   27.9324  -21.8248  -13.6919 O   0  0  0  0  0  0  0  0  0  0  0  0
   26.0439  -20.8653  -12.8921 N   0  0  0  0  0  0  0  0  0  0  0  0
   25.8803  -21.6399  -11.6399 C   0  0  1  0  0  0  0  0  0  0  0  0
   27.1101  -21.5266  -10.8168 C   0  0  0  0  0  0  0  0  0  0  0  0
   27.0028  -20.7737   -9.5730 C   0  0  0  0  0  0  0  0  0  0  0  0
   25.9023  -20.0260   -9.1277 C   0  0  0  0  0  0  0  0  0  0  0  0
   26.1689  -19.4371   -7.9579 N   0  0  0  0  0  0  0  0  0  0  0  0
   27.4200  -19.7652   -7.5962 C   0  0  0  0  0  0  0  0  0  0  0  0
   28.1259  -19.4126   -6.4659 C   0  0  0  0  0  0  0  0  0  0  0  0
   29.4245  -19.9049   -6.3037 C   0  0  0  0  0  0  0  0  0  0  0  0
   29.9697  -20.7262   -7.2679 C   0  0  0  0  0  0  0  0  0  0  0  0
   29.2455  -21.0628   -8.3866 C   0  0  0  0  0  0  0  0  0  0  0  0
   27.9442  -20.5839   -8.5755 C   0  0  0  0  0  0  0  0  0  0  0  0
   24.6740  -21.2776  -10.9320 C   0  0  0  0  0  0  0  0  0  0  0  0
   24.2394  -21.9645   -9.9472 O   0  0  0  0  0  0  0  0  0  0  0  0
   23.9375  -20.1688  -11.2823 O   0  0  0  0  0  0  0  0  0  0  0  0
  2  1  1  6
  2  3  1  0
  3  4  1  0
  4  8  1  0
  5  4  2  0
  6  2  1  0
  7  6  2  0
  9  6  1  0
 10  9  1  0
 10 11  1  6
 11 12  1  0
 12 13  1  0
 13 14  1  0
 14 15  1  0
 16 18  1  0
 16 10  1  0
 17 16  2  0
 19 18  1  0
 19 20  1  1
 21 20  1  0
 21 29  1  0
 22 23  1  0
 22 21  2  0
 23 24  1  0
 24 25  1  0
 24 29  2  0
 25 26  2  0
 26 27  1  0
 28 27  2  0
 29 28  1  0
 30 19  1  0
 30 32  1  0
 31 30  2  0
M  END
$$$$
