DKW.pdb
     RDKit          3D

 32 33  0  0  1  0  0  0  0  0999 V2000
   20.5383   -6.0758  -19.4867 N   0  0  0  0  0  0  0  0  0  0  0  0
   19.9824   -7.1777  -18.7658 C   0  0  1  0  0  0  0  0  0  0  0  0
   21.0381   -8.2374  -18.5337 C   0  0  0  0  0  0  0  0  0  0  0  0
   21.4857   -8.8576  -19.7959 C   0  0  0  0  0  0  0  0  0  0  0  0
   22.6498   -8.8682  -20.2171 O   0  0  0  0  0  0  0  0  0  0  0  0
   19.5119   -6.7414  -17.3976 C   0  0  0  0  0  0  0  0  0  0  0  0
   20.3261   -6.1156  -16.6918 O   0  0  0  0  0  0  0  0  0  0  0  0
   20.4958   -9.4814  -20.5673 O   0  0  0  0  0  0  0  0  0  0  0  0
   18.2017   -7.0355  -16.9456 N   0  0  0  0  0  0  0  0  0  0  0  0
   17.6717   -6.8880  -15.6377 C   0  0  1  0  0  0  0  0  0  0  0  0
   16.1639   -7.0444  -15.5818 C   0  0  0  0  0  0  0  0  0  0  0  0
   15.6193   -6.8716  -14.2165 C   0  0  0  0  0  0  0  0  0  0  0  0
   14.1312   -6.8953  -14.1759 C   0  0  0  0  0  0  0  0  0  0  0  0
   13.4662   -6.5805  -12.8876 C   0  0  0  0  0  0  0  0  0  0  0  0
   12.0414   -6.4595  -13.0289 N   0  0  0  0  0  0  0  0  0  0  0  0
   18.3908   -7.5738  -14.5460 C   0  0  0  0  0  0  0  0  0  0  0  0
   18.6257   -8.7953  -14.6142 O   0  0  0  0  0  0  0  0  0  0  0  0
   18.8299   -6.8887  -13.4102 N   0  0  0  0  0  0  0  0  0  0  0  0
   19.5060   -7.5887  -12.2932 C   0  0  1  0  0  0  0  0  0  0  0  0
   20.9375   -7.1988  -12.2512 C   0  0  0  0  0  0  0  0  0  0  0  0
   21.7741   -7.8709  -11.2644 C   0  0  0  0  0  0  0  0  0  0  0  0
   22.5354   -9.0345  -11.4508 C   0  0  0  0  0  0  0  0  0  0  0  0
   23.1501   -9.3878  -10.3179 N   0  0  0  0  0  0  0  0  0  0  0  0
   22.8278   -8.4954   -9.3674 C   0  0  0  0  0  0  0  0  0  0  0  0
   23.2308   -8.4342   -8.0506 C   0  0  0  0  0  0  0  0  0  0  0  0
   22.7692   -7.3814   -7.2546 C   0  0  0  0  0  0  0  0  0  0  0  0
   21.9276   -6.4329   -7.7964 C   0  0  0  0  0  0  0  0  0  0  0  0
   21.5396   -6.5163   -9.1124 C   0  0  0  0  0  0  0  0  0  0  0  0
   21.9854   -7.5595   -9.9318 C   0  0  0  0  0  0  0  0  0  0  0  0
   18.8168   -7.3984  -11.0377 C   0  0  0  0  0  0  0  0  0  0  0  0
   18.2104   -6.3093  -10.7610 O   0  0  0  0  0  0  0  0  0  0  0  0
   18.7758   -8.3866  -10.0804 O   0  0  0  0  0  0  0  0  0  0  0  0
  2  1  1  1
  2  3  1  0
  3  4  1  0
  4  8  1  0
  5  4  2  0
  6  2  1  0
  7  6  2  0
  9  6  1  0
 10  9  1  0
 10 11  1  6
 11 12  1  0
 12 13  1  0
 13 14  1  0
 14 15  1  0
 16 18  1  0
 16 10  1  0
 17 16  2  0
 19 18  1  0
 19 20  1  1
 21 20  1  0
 21 29  1  0
 22 23  1  0
 22 21  2  0
 23 24  1  0
 24 25  1  0
 24 29  2  0
 25 26  2  0
 26 27  1  0
 28 27  2  0
 29 28  1  0
 30 19  1  0
 30 32  1  0
 31 30  2  0
M  END
$$$$
