DKW.pdb
     RDKit          3D

 32 33  0  0  1  0  0  0  0  0999 V2000
   28.7604  -20.7561  -18.4114 N   0  0  0  0  0  0  0  0  0  0  0  0
   28.0120  -21.6309  -17.5642 C   0  0  1  0  0  0  0  0  0  0  0  0
   28.9348  -22.3333  -16.5913 C   0  0  0  0  0  0  0  0  0  0  0  0
   29.6367  -23.4704  -17.2179 C   0  0  0  0  0  0  0  0  0  0  0  0
   29.5588  -23.7927  -18.4106 O   0  0  0  0  0  0  0  0  0  0  0  0
   27.0256  -20.8516  -16.7254 C   0  0  0  0  0  0  0  0  0  0  0  0
   27.4590  -19.8470  -16.1290 O   0  0  0  0  0  0  0  0  0  0  0  0
   30.4544  -24.2364  -16.3761 O   0  0  0  0  0  0  0  0  0  0  0  0
   25.6704  -21.2531  -16.6269 N   0  0  0  0  0  0  0  0  0  0  0  0
   24.6271  -20.6431  -15.8835 C   0  0  1  0  0  0  0  0  0  0  0  0
   23.3776  -20.3873  -16.7045 C   0  0  0  0  0  0  0  0  0  0  0  0
   23.5196  -19.2347  -17.6220 C   0  0  0  0  0  0  0  0  0  0  0  0
   22.3006  -18.9883  -18.4405 C   0  0  0  0  0  0  0  0  0  0  0  0
   22.3312  -17.8680  -19.4126 C   0  0  0  0  0  0  0  0  0  0  0  0
   21.0955  -17.7441  -20.1353 N   0  0  0  0  0  0  0  0  0  0  0  0
   24.3637  -21.1858  -14.5361 C   0  0  0  0  0  0  0  0  0  0  0  0
   24.3444  -22.4164  -14.3437 O   0  0  0  0  0  0  0  0  0  0  0  0
   24.1297  -20.3516  -13.4400 N   0  0  0  0  0  0  0  0  0  0  0  0
   23.9152  -20.8976  -12.0795 C   0  0  1  0  0  0  0  0  0  0  0  0
   24.6930  -20.1060  -11.0940 C   0  0  0  0  0  0  0  0  0  0  0  0
   26.0901  -20.4782  -10.9063 C   0  0  0  0  0  0  0  0  0  0  0  0
   26.9965  -20.8922  -11.8940 C   0  0  0  0  0  0  0  0  0  0  0  0
   28.1835  -21.1890  -11.3563 N   0  0  0  0  0  0  0  0  0  0  0  0
   28.1083  -20.9870  -10.0307 C   0  0  0  0  0  0  0  0  0  0  0  0
   29.0795  -21.1414   -9.0648 C   0  0  0  0  0  0  0  0  0  0  0  0
   28.7598  -20.8434   -7.7365 C   0  0  0  0  0  0  0  0  0  0  0  0
   27.4912  -20.4047   -7.4207 C   0  0  0  0  0  0  0  0  0  0  0  0
   26.5400  -20.2594   -8.4022 C   0  0  0  0  0  0  0  0  0  0  0  0
   26.8319  -20.5512   -9.7394 C   0  0  0  0  0  0  0  0  0  0  0  0
   22.5117  -21.0086  -11.7549 C   0  0  0  0  0  0  0  0  0  0  0  0
   21.6055  -20.5184  -12.5093 O   0  0  0  0  0  0  0  0  0  0  0  0
   22.0833  -21.6547  -10.6176 O   0  0  0  0  0  0  0  0  0  0  0  0
  2  1  1  6
  2  3  1  0
  3  4  1  0
  4  8  1  0
  5  4  2  0
  6  2  1  0
  7  6  2  0
  9  6  1  0
 10  9  1  0
 10 11  1  6
 11 12  1  0
 12 13  1  0
 13 14  1  0
 14 15  1  0
 16 18  1  0
 16 10  1  0
 17 16  2  0
 19 18  1  0
 19 20  1  1
 21 20  1  0
 21 29  1  0
 22 23  1  0
 22 21  2  0
 23 24  1  0
 24 25  1  0
 24 29  2  0
 25 26  2  0
 26 27  1  0
 28 27  2  0
 29 28  1  0
 30 19  1  0
 30 32  1  0
 31 30  2  0
M  END
$$$$
