DKW.pdb
     RDKit          3D

 32 33  0  0  1  0  0  0  0  0999 V2000
   27.9032  -19.9194  -16.2797 N   0  0  0  0  0  0  0  0  0  0  0  0
   28.2373  -18.9362  -15.2975 C   0  0  1  0  0  0  0  0  0  0  0  0
   28.1013  -17.5461  -15.8810 C   0  0  0  0  0  0  0  0  0  0  0  0
   28.8092  -17.4157  -17.1695 C   0  0  0  0  0  0  0  0  0  0  0  0
   29.7606  -16.6554  -17.3919 O   0  0  0  0  0  0  0  0  0  0  0  0
   27.2825  -19.0000  -14.1278 C   0  0  0  0  0  0  0  0  0  0  0  0
   27.3622  -18.0889  -13.2815 O   0  0  0  0  0  0  0  0  0  0  0  0
   28.3515  -18.2286  -18.2153 O   0  0  0  0  0  0  0  0  0  0  0  0
   26.3420  -20.0528  -14.0068 N   0  0  0  0  0  0  0  0  0  0  0  0
   25.4430  -20.3069  -12.9390 C   0  0  1  0  0  0  0  0  0  0  0  0
   24.1376  -20.9329  -13.3917 C   0  0  0  0  0  0  0  0  0  0  0  0
   23.1281  -20.9999  -12.3115 C   0  0  0  0  0  0  0  0  0  0  0  0
   21.8066  -21.5008  -12.7797 C   0  0  0  0  0  0  0  0  0  0  0  0
   20.6812  -21.5004  -11.8130 C   0  0  0  0  0  0  0  0  0  0  0  0
   19.4497  -21.9311  -12.4152 N   0  0  0  0  0  0  0  0  0  0  0  0
   26.0119  -20.9125  -11.7187 C   0  0  0  0  0  0  0  0  0  0  0  0
   26.6226  -21.9966  -11.7776 O   0  0  0  0  0  0  0  0  0  0  0  0
   25.8892  -20.3013  -10.4683 N   0  0  0  0  0  0  0  0  0  0  0  0
   26.4646  -20.9094   -9.2461 C   0  0  1  0  0  0  0  0  0  0  0  0
   27.4909  -20.0040   -8.6718 C   0  0  0  0  0  0  0  0  0  0  0  0
   28.1695  -20.4597   -7.4647 C   0  0  0  0  0  0  0  0  0  0  0  0
   28.9932  -21.5875   -7.3304 C   0  0  0  0  0  0  0  0  0  0  0  0
   29.4167  -21.7202   -6.0698 N   0  0  0  0  0  0  0  0  0  0  0  0
   28.9039  -20.7130   -5.3444 C   0  0  0  0  0  0  0  0  0  0  0  0
   29.0723  -20.4221   -4.0076 C   0  0  0  0  0  0  0  0  0  0  0  0
   28.4429  -19.2896   -3.4817 C   0  0  0  0  0  0  0  0  0  0  0  0
   27.6731  -18.4924   -4.3022 C   0  0  0  0  0  0  0  0  0  0  0  0
   27.5201  -18.8042   -5.6320 C   0  0  0  0  0  0  0  0  0  0  0  0
   28.1375  -19.9318   -6.1850 C   0  0  0  0  0  0  0  0  0  0  0  0
   25.4428  -21.2996   -8.3019 C   0  0  0  0  0  0  0  0  0  0  0  0
   25.6248  -22.2483   -7.4670 O   0  0  0  0  0  0  0  0  0  0  0  0
   24.2242  -20.6617   -8.2535 O   0  0  0  0  0  0  0  0  0  0  0  0
  2  1  1  6
  2  3  1  0
  3  4  1  0
  4  8  1  0
  5  4  2  0
  6  2  1  0
  7  6  2  0
  9  6  1  0
 10  9  1  0
 10 11  1  6
 11 12  1  0
 12 13  1  0
 13 14  1  0
 14 15  1  0
 16 18  1  0
 16 10  1  0
 17 16  2  0
 19 18  1  0
 19 20  1  1
 21 20  1  0
 21 29  1  0
 22 23  1  0
 22 21  2  0
 23 24  1  0
 24 25  1  0
 24 29  2  0
 25 26  2  0
 26 27  1  0
 28 27  2  0
 29 28  1  0
 30 19  1  0
 30 32  1  0
 31 30  2  0
M  END
$$$$
