DKW.pdb
     RDKit          3D

 32 33  0  0  1  0  0  0  0  0999 V2000
   28.3581  -20.3267  -17.3539 N   0  0  0  0  0  0  0  0  0  0  0  0
   27.5668  -21.1763  -16.5203 C   0  0  1  0  0  0  0  0  0  0  0  0
   28.4088  -22.3137  -15.9827 C   0  0  0  0  0  0  0  0  0  0  0  0
   28.8337  -23.2395  -17.0506 C   0  0  0  0  0  0  0  0  0  0  0  0
   28.1001  -23.7001  -17.9351 O   0  0  0  0  0  0  0  0  0  0  0  0
   27.0559  -20.4210  -15.3152 C   0  0  0  0  0  0  0  0  0  0  0  0
   27.8583  -19.6587  -14.7428 O   0  0  0  0  0  0  0  0  0  0  0  0
   30.1835  -23.6164  -17.0459 O   0  0  0  0  0  0  0  0  0  0  0  0
   25.7224  -20.5791  -14.8632 N   0  0  0  0  0  0  0  0  0  0  0  0
   25.0877  -19.9430  -13.7651 C   0  0  1  0  0  0  0  0  0  0  0  0
   23.7168  -19.3894  -14.1048 C   0  0  0  0  0  0  0  0  0  0  0  0
   23.7805  -18.1892  -14.9685 C   0  0  0  0  0  0  0  0  0  0  0  0
   23.5407  -18.4929  -16.4061 C   0  0  0  0  0  0  0  0  0  0  0  0
   23.6189  -17.3724  -17.3754 C   0  0  0  0  0  0  0  0  0  0  0  0
   23.4009  -17.8091  -18.7268 N   0  0  0  0  0  0  0  0  0  0  0  0
   25.1529  -20.6374  -12.4640 C   0  0  0  0  0  0  0  0  0  0  0  0
   24.7114  -21.7960  -12.3439 O   0  0  0  0  0  0  0  0  0  0  0  0
   25.7052  -20.0304  -11.3333 N   0  0  0  0  0  0  0  0  0  0  0  0
   25.6744  -20.6869  -10.0054 C   0  0  1  0  0  0  0  0  0  0  0  0
   26.6748  -20.0536   -9.1105 C   0  0  0  0  0  0  0  0  0  0  0  0
   26.6135  -20.4099   -7.6981 C   0  0  0  0  0  0  0  0  0  0  0  0
   25.8378  -21.4217   -7.1126 C   0  0  0  0  0  0  0  0  0  0  0  0
   26.0036  -21.4415   -5.7866 N   0  0  0  0  0  0  0  0  0  0  0  0
   26.8714  -20.4714   -5.4557 C   0  0  0  0  0  0  0  0  0  0  0  0
   27.3616  -20.1202   -4.2161 C   0  0  0  0  0  0  0  0  0  0  0  0
   28.2850  -19.0737   -4.1304 C   0  0  0  0  0  0  0  0  0  0  0  0
   28.6844  -18.4188   -5.2763 C   0  0  0  0  0  0  0  0  0  0  0  0
   28.1803  -18.7875   -6.5007 C   0  0  0  0  0  0  0  0  0  0  0  0
   27.2544  -19.8304   -6.6161 C   0  0  0  0  0  0  0  0  0  0  0  0
   24.3412  -20.7237   -9.4497 C   0  0  0  0  0  0  0  0  0  0  0  0
   23.5169  -19.7623   -9.6133 O   0  0  0  0  0  0  0  0  0  0  0  0
   23.8932  -21.8019   -8.7208 O   0  0  0  0  0  0  0  0  0  0  0  0
  2  1  1  6
  2  3  1  0
  3  4  1  0
  4  8  1  0
  5  4  2  0
  6  2  1  0
  7  6  2  0
  9  6  1  0
 10  9  1  0
 10 11  1  6
 11 12  1  0
 12 13  1  0
 13 14  1  0
 14 15  1  0
 16 18  1  0
 16 10  1  0
 17 16  2  0
 19 18  1  0
 19 20  1  1
 21 20  1  0
 21 29  1  0
 22 23  1  0
 22 21  2  0
 23 24  1  0
 24 25  1  0
 24 29  2  0
 25 26  2  0
 26 27  1  0
 28 27  2  0
 29 28  1  0
 30 19  1  0
 30 32  1  0
 31 30  2  0
M  END
$$$$
