DKW.pdb
     RDKit          3D

 32 33  0  0  1  0  0  0  0  0999 V2000
   29.1554  -31.4216  -17.4422 N   0  0  0  0  0  0  0  0  0  0  0  0
   27.8168  -31.8672  -17.2128 C   0  0  1  0  0  0  0  0  0  0  0  0
   27.7660  -32.7679  -15.9972 C   0  0  0  0  0  0  0  0  0  0  0  0
   26.5367  -33.5841  -15.9649 C   0  0  0  0  0  0  0  0  0  0  0  0
   25.6437  -33.5707  -16.8222 O   0  0  0  0  0  0  0  0  0  0  0  0
   26.9062  -30.6990  -16.9130 C   0  0  0  0  0  0  0  0  0  0  0  0
   27.3589  -29.8032  -16.1747 O   0  0  0  0  0  0  0  0  0  0  0  0
   26.3867  -34.4388  -14.8645 O   0  0  0  0  0  0  0  0  0  0  0  0
   25.5972  -30.6339  -17.4515 N   0  0  0  0  0  0  0  0  0  0  0  0
   24.6769  -29.5557  -17.3907 C   0  0  1  0  0  0  0  0  0  0  0  0
   24.1713  -29.1228  -18.7538 C   0  0  0  0  0  0  0  0  0  0  0  0
   25.0911  -28.1852  -19.4359 C   0  0  0  0  0  0  0  0  0  0  0  0
   24.5545  -27.6810  -20.7298 C   0  0  0  0  0  0  0  0  0  0  0  0
   25.3966  -26.7440  -21.5134 C   0  0  0  0  0  0  0  0  0  0  0  0
   24.8031  -26.4111  -22.7789 N   0  0  0  0  0  0  0  0  0  0  0  0
   23.6285  -29.6321  -16.3542 C   0  0  0  0  0  0  0  0  0  0  0  0
   22.8499  -30.6036  -16.3140 O   0  0  0  0  0  0  0  0  0  0  0  0
   23.4718  -28.6317  -15.3915 N   0  0  0  0  0  0  0  0  0  0  0  0
   22.3611  -28.6632  -14.4115 C   0  0  1  0  0  0  0  0  0  0  0  0
   22.6032  -27.6568  -13.3478 C   0  0  0  0  0  0  0  0  0  0  0  0
   21.5790  -27.5277  -12.3183 C   0  0  0  0  0  0  0  0  0  0  0  0
   21.4650  -28.2777  -11.1381 C   0  0  0  0  0  0  0  0  0  0  0  0
   20.3819  -27.9131  -10.4452 N   0  0  0  0  0  0  0  0  0  0  0  0
   19.7577  -26.9353  -11.1221 C   0  0  0  0  0  0  0  0  0  0  0  0
   18.6149  -26.2367  -10.7969 C   0  0  0  0  0  0  0  0  0  0  0  0
   18.1687  -25.2359  -11.6657 C   0  0  0  0  0  0  0  0  0  0  0  0
   18.8736  -24.9690  -12.8204 C   0  0  0  0  0  0  0  0  0  0  0  0
   20.0103  -25.6802  -13.1226 C   0  0  0  0  0  0  0  0  0  0  0  0
   20.4792  -26.6878  -12.2720 C   0  0  0  0  0  0  0  0  0  0  0  0
   21.0713  -28.5329  -15.0495 C   0  0  0  0  0  0  0  0  0  0  0  0
   20.0535  -29.1932  -14.6511 O   0  0  0  0  0  0  0  0  0  0  0  0
   20.8764  -27.6845  -16.1156 O   0  0  0  0  0  0  0  0  0  0  0  0
  2  1  1  1
  2  3  1  0
  3  4  1  0
  4  8  1  0
  5  4  2  0
  6  2  1  0
  7  6  2  0
  9  6  1  0
 10  9  1  0
 10 11  1  6
 11 12  1  0
 12 13  1  0
 13 14  1  0
 14 15  1  0
 16 18  1  0
 16 10  1  0
 17 16  2  0
 19 18  1  0
 19 20  1  1
 21 20  1  0
 21 29  1  0
 22 23  1  0
 22 21  2  0
 23 24  1  0
 24 25  1  0
 24 29  2  0
 25 26  2  0
 26 27  1  0
 28 27  2  0
 29 28  1  0
 30 19  1  0
 30 32  1  0
 31 30  2  0
M  END
$$$$
