QAE.pdb
     RDKit          3D

 24 23  0  0  1  0  0  0  0  0999 V2000
    9.5786  -17.2186   13.0015 N   0  0  0  0  0  0  0  0  0  0  0  0
    8.2149  -17.5846   13.0694 C   0  0  0  0  0  0  0  0  0  0  0  0
    7.6718  -18.0875   12.0638 O   0  0  0  0  0  0  0  0  0  0  0  0
    7.4561  -17.3745   14.3027 C   0  0  0  0  0  0  0  0  0  0  0  0
    8.2044  -16.7583   15.4294 C   0  0  0  0  0  0  0  0  0  0  0  0
    8.0516  -15.2635   15.5748 C   0  0  2  0  0  0  0  0  0  0  0  0
    8.8240  -14.6851   14.4608 N   0  0  0  0  0  0  0  0  0  0  0  0
    8.6734  -14.7780   16.8329 C   0  0  0  0  0  0  0  0  0  0  0  0
    9.9120  -14.9646   16.9932 O   0  0  0  0  0  0  0  0  0  0  0  0
    7.6114  -12.9356   19.9993 C   0  0  0  0  0  0  0  0  0  0  0  0
    8.5632  -13.6653   19.0780 C   0  0  2  0  0  0  0  0  0  0  0  0
    7.9645  -14.1170   17.8652 N   0  0  0  0  0  0  0  0  0  0  0  0
    9.2374  -14.7612   19.8304 C   0  0  0  0  0  0  0  0  0  0  0  0
    8.8144  -15.9270   19.8758 O   0  0  0  0  0  0  0  0  0  0  0  0
   10.4310  -14.4407   20.5311 N   0  0  0  0  0  0  0  0  0  0  0  0
   11.1168  -15.3625   21.4264 C   0  0  1  0  0  0  0  0  0  0  0  0
   12.5737  -14.9977   21.4396 C   0  0  0  0  0  0  0  0  0  0  0  0
   13.1981  -15.3522   20.1275 C   0  0  0  0  0  0  0  0  0  0  0  0
   14.6422  -15.0578   20.0966 C   0  0  0  0  0  0  0  0  0  0  0  0
   15.2845  -14.5722   21.0554 O   0  0  0  0  0  0  0  0  0  0  0  0
   10.5977  -15.2236   22.8223 C   0  0  0  0  0  0  0  0  0  0  0  0
   10.9588  -16.0982   23.8294 O   0  0  0  0  0  0  0  0  0  0  0  0
   15.3580  -15.3383   18.9123 O   0  0  0  0  0  0  0  0  0  0  0  0
    9.8088  -14.2873   23.0996 O   0  0  0  0  0  0  0  0  0  0  0  0
  2  1  1  0
  3  2  2  0
  4  2  1  0
  5  4  1  0
  6  7  1  6
  6  5  1  0
  6  8  1  0
  8  9  2  0
 11 10  1  1
 11 13  1  0
 12  8  1  0
 12 11  1  0
 13 15  1  0
 13 14  2  0
 15 16  1  0
 16 21  1  0
 16 17  1  1
 18 17  1  0
 19 18  1  0
 20 19  2  0
 21 22  1  0
 23 19  1  0
 24 21  2  0
M  END
$$$$
