QAE.pdb
     RDKit          3D

 24 23  0  0  1  0  0  0  0  0999 V2000
    8.5425  -17.3281   17.9448 N   0  0  0  0  0  0  0  0  0  0  0  0
    8.1592  -16.9994   16.6245 C   0  0  0  0  0  0  0  0  0  0  0  0
    7.6809  -17.8911   15.8928 O   0  0  0  0  0  0  0  0  0  0  0  0
    8.3232  -15.6328   16.1281 C   0  0  0  0  0  0  0  0  0  0  0  0
    8.9415  -14.6675   17.0741 C   0  0  0  0  0  0  0  0  0  0  0  0
    8.0083  -14.0675   18.0979 C   0  0  2  0  0  0  0  0  0  0  0  0
    7.8986  -12.6435   17.7343 N   0  0  0  0  0  0  0  0  0  0  0  0
    8.5951  -14.1240   19.4608 C   0  0  0  0  0  0  0  0  0  0  0  0
    9.8532  -14.0992   19.5667 O   0  0  0  0  0  0  0  0  0  0  0  0
    7.3934  -14.1536   23.0759 C   0  0  0  0  0  0  0  0  0  0  0  0
    8.4006  -14.2891   21.9559 C   0  0  2  0  0  0  0  0  0  0  0  0
    7.8321  -14.2028   20.6511 N   0  0  0  0  0  0  0  0  0  0  0  0
    9.1979  -15.5326   22.1555 C   0  0  0  0  0  0  0  0  0  0  0  0
    8.8701  -16.6409   21.7037 O   0  0  0  0  0  0  0  0  0  0  0  0
   10.3992  -15.4304   22.9072 N   0  0  0  0  0  0  0  0  0  0  0  0
   11.1964  -16.5774   23.3197 C   0  0  1  0  0  0  0  0  0  0  0  0
   12.6456  -16.2047   23.1910 C   0  0  0  0  0  0  0  0  0  0  0  0
   13.0008  -16.0371   21.7478 C   0  0  0  0  0  0  0  0  0  0  0  0
   14.4444  -15.8153   21.5483 C   0  0  0  0  0  0  0  0  0  0  0  0
   15.1351  -15.0144   22.2187 O   0  0  0  0  0  0  0  0  0  0  0  0
   10.9353  -16.9104   24.7544 C   0  0  0  0  0  0  0  0  0  0  0  0
   11.4742  -18.0311   25.3570 O   0  0  0  0  0  0  0  0  0  0  0  0
   15.1016  -16.5494   20.5370 O   0  0  0  0  0  0  0  0  0  0  0  0
   10.2054  -16.1556   25.4426 O   0  0  0  0  0  0  0  0  0  0  0  0
  2  1  1  0
  3  2  2  0
  4  2  1  0
  5  4  1  0
  6  7  1  6
  6  5  1  0
  6  8  1  0
  8  9  2  0
 11 10  1  1
 11 13  1  0
 12  8  1  0
 12 11  1  0
 13 15  1  0
 13 14  2  0
 15 16  1  0
 16 21  1  0
 16 17  1  1
 18 17  1  0
 19 18  1  0
 20 19  2  0
 21 22  1  0
 23 19  1  0
 24 21  2  0
M  END
$$$$
