QAE.pdb
     RDKit          3D

 24 23  0  0  1  0  0  0  0  0999 V2000
    7.9919  -19.3046   16.9242 N   0  0  0  0  0  0  0  0  0  0  0  0
    6.9151  -18.9050   16.1002 C   0  0  0  0  0  0  0  0  0  0  0  0
    5.9154  -19.6474   16.0074 O   0  0  0  0  0  0  0  0  0  0  0  0
    6.9769  -17.6390   15.3693 C   0  0  0  0  0  0  0  0  0  0  0  0
    8.1659  -16.7893   15.6403 C   0  0  0  0  0  0  0  0  0  0  0  0
    7.8891  -15.3156   15.8155 C   0  0  2  0  0  0  0  0  0  0  0  0
    8.3933  -14.6781   14.5862 N   0  0  0  0  0  0  0  0  0  0  0  0
    8.6671  -14.7520   16.9479 C   0  0  0  0  0  0  0  0  0  0  0  0
    9.9238  -14.8737   16.9232 O   0  0  0  0  0  0  0  0  0  0  0  0
    8.0058  -12.8565   20.1898 C   0  0  0  0  0  0  0  0  0  0  0  0
    8.8267  -13.6408   19.1908 C   0  0  2  0  0  0  0  0  0  0  0  0
    8.0882  -14.0846   18.0545 N   0  0  0  0  0  0  0  0  0  0  0  0
    9.5284  -14.7534   19.8919 C   0  0  0  0  0  0  0  0  0  0  0  0
    9.0404  -15.8831   20.0519 O   0  0  0  0  0  0  0  0  0  0  0  0
   10.8289  -14.4936   20.4014 N   0  0  0  0  0  0  0  0  0  0  0  0
   11.6145  -15.4653   21.1497 C   0  0  1  0  0  0  0  0  0  0  0  0
   13.0176  -14.9409   21.2593 C   0  0  0  0  0  0  0  0  0  0  0  0
   13.8562  -15.8946   22.0495 C   0  0  0  0  0  0  0  0  0  0  0  0
   15.2985  -15.6965   21.8184 C   0  0  0  0  0  0  0  0  0  0  0  0
   15.9629  -14.7407   22.2798 O   0  0  0  0  0  0  0  0  0  0  0  0
   11.0750  -15.6218   22.5360 C   0  0  0  0  0  0  0  0  0  0  0  0
   11.3878  -16.7116   23.3260 O   0  0  0  0  0  0  0  0  0  0  0  0
   15.9860  -16.6413   21.0257 O   0  0  0  0  0  0  0  0  0  0  0  0
   10.3133  -14.7422   23.0074 O   0  0  0  0  0  0  0  0  0  0  0  0
  2  1  1  0
  3  2  2  0
  4  2  1  0
  5  4  1  0
  6  7  1  6
  6  5  1  0
  6  8  1  0
  8  9  2  0
 11 10  1  1
 11 13  1  0
 12  8  1  0
 12 11  1  0
 13 15  1  0
 13 14  2  0
 15 16  1  0
 16 21  1  0
 16 17  1  1
 18 17  1  0
 19 18  1  0
 20 19  2  0
 21 22  1  0
 23 19  1  0
 24 21  2  0
M  END
$$$$
