QAE.pdb
     RDKit          3D

 24 23  0  0  1  0  0  0  0  0999 V2000
    8.1226  -19.4413   28.8197 N   0  0  0  0  0  0  0  0  0  0  0  0
    7.0685  -20.2663   28.3652 C   0  0  0  0  0  0  0  0  0  0  0  0
    6.5378  -21.0661   29.1639 O   0  0  0  0  0  0  0  0  0  0  0  0
    6.6107  -20.1800   26.9782 C   0  0  0  0  0  0  0  0  0  0  0  0
    7.1780  -19.0658   26.1746 C   0  0  0  0  0  0  0  0  0  0  0  0
    6.5483  -18.8516   24.8193 C   0  0  2  0  0  0  0  0  0  0  0  0
    6.6093  -20.1643   24.1522 N   0  0  0  0  0  0  0  0  0  0  0  0
    7.3477  -17.9086   23.9966 C   0  0  0  0  0  0  0  0  0  0  0  0
    8.2369  -18.3885   23.2393 O   0  0  0  0  0  0  0  0  0  0  0  0
    7.5985  -14.1619   23.3634 C   0  0  0  0  0  0  0  0  0  0  0  0
    8.1094  -15.5829   23.4472 C   0  0  2  0  0  0  0  0  0  0  0  0
    7.1748  -16.5031   24.0068 N   0  0  0  0  0  0  0  0  0  0  0  0
    9.4227  -15.5956   24.1520 C   0  0  0  0  0  0  0  0  0  0  0  0
    9.6013  -15.1201   25.2843 O   0  0  0  0  0  0  0  0  0  0  0  0
   10.5247  -16.1886   23.4794 N   0  0  0  0  0  0  0  0  0  0  0  0
   11.8791  -16.2186   24.0144 C   0  0  1  0  0  0  0  0  0  0  0  0
   12.1459  -17.6067   24.5220 C   0  0  0  0  0  0  0  0  0  0  0  0
   11.8554  -17.6762   25.9876 C   0  0  0  0  0  0  0  0  0  0  0  0
   12.1143  -19.0152   26.5471 C   0  0  0  0  0  0  0  0  0  0  0  0
   12.5315  -19.9902   25.8813 O   0  0  0  0  0  0  0  0  0  0  0  0
   12.8759  -15.9254   22.9384 C   0  0  0  0  0  0  0  0  0  0  0  0
   12.5064  -15.7889   21.6138 O   0  0  0  0  0  0  0  0  0  0  0  0
   11.8795  -19.2230   27.9238 O   0  0  0  0  0  0  0  0  0  0  0  0
   14.0888  -15.7974   23.2358 O   0  0  0  0  0  0  0  0  0  0  0  0
  2  1  1  0
  3  2  2  0
  4  2  1  0
  5  4  1  0
  6  7  1  6
  6  5  1  0
  6  8  1  0
  8  9  2  0
 11 10  1  1
 11 13  1  0
 12  8  1  0
 12 11  1  0
 13 15  1  0
 13 14  2  0
 15 16  1  0
 16 21  1  0
 16 17  1  6
 18 17  1  0
 19 18  1  0
 20 19  2  0
 21 22  1  0
 23 19  1  0
 24 21  2  0
M  END
$$$$
