QAE.pdb
     RDKit          3D

 24 23  0  0  1  0  0  0  0  0999 V2000
    7.6439  -19.2243   20.3602 N   0  0  0  0  0  0  0  0  0  0  0  0
    7.6757  -18.5593   19.1132 C   0  0  0  0  0  0  0  0  0  0  0  0
    8.0139  -19.1977   18.0948 O   0  0  0  0  0  0  0  0  0  0  0  0
    7.3166  -17.1437   19.0235 C   0  0  0  0  0  0  0  0  0  0  0  0
    6.7507  -16.5373   20.2568 C   0  0  0  0  0  0  0  0  0  0  0  0
    7.0484  -15.0712   20.4596 C   0  0  2  0  0  0  0  0  0  0  0  0
    7.9868  -14.7139   19.3808 N   0  0  0  0  0  0  0  0  0  0  0  0
    7.7544  -14.8373   21.7449 C   0  0  0  0  0  0  0  0  0  0  0  0
    8.9914  -15.0854   21.7962 O   0  0  0  0  0  0  0  0  0  0  0  0
    6.9425  -13.5736   25.2493 C   0  0  0  0  0  0  0  0  0  0  0  0
    7.7817  -14.2359   24.1797 C   0  0  2  0  0  0  0  0  0  0  0  0
    7.1274  -14.3517   22.9181 N   0  0  0  0  0  0  0  0  0  0  0  0
    8.2890  -15.5423   24.6873 C   0  0  0  0  0  0  0  0  0  0  0  0
    7.6245  -16.5903   24.6767 O   0  0  0  0  0  0  0  0  0  0  0  0
    9.6095  -15.5771   25.2103 N   0  0  0  0  0  0  0  0  0  0  0  0
   10.2361  -16.7767   25.7485 C   0  0  1  0  0  0  0  0  0  0  0  0
   11.6919  -16.7438   25.3808 C   0  0  0  0  0  0  0  0  0  0  0  0
   11.9703  -17.7579   24.3172 C   0  0  0  0  0  0  0  0  0  0  0  0
   13.3759  -17.7331   23.8737 C   0  0  0  0  0  0  0  0  0  0  0  0
   14.2560  -16.9853   24.3575 O   0  0  0  0  0  0  0  0  0  0  0  0
   10.1415  -16.7946   27.2412 C   0  0  0  0  0  0  0  0  0  0  0  0
   10.4124  -17.9308   27.9796 O   0  0  0  0  0  0  0  0  0  0  0  0
   13.7663  -18.6066   22.8353 O   0  0  0  0  0  0  0  0  0  0  0  0
    9.8065  -15.7510   27.8533 O   0  0  0  0  0  0  0  0  0  0  0  0
  2  1  1  0
  3  2  2  0
  4  2  1  0
  5  4  1  0
  6  7  1  6
  6  5  1  0
  6  8  1  0
  8  9  2  0
 11 10  1  1
 11 13  1  0
 12  8  1  0
 12 11  1  0
 13 15  1  0
 13 14  2  0
 15 16  1  0
 16 21  1  0
 16 17  1  1
 18 17  1  0
 19 18  1  0
 20 19  2  0
 21 22  1  0
 23 19  1  0
 24 21  2  0
M  END
$$$$
