QAE.pdb
     RDKit          3D

 24 23  0  0  1  0  0  0  0  0999 V2000
    8.3985  -17.6345   19.3008 N   0  0  0  0  0  0  0  0  0  0  0  0
    7.5704  -16.4888   19.3110 C   0  0  0  0  0  0  0  0  0  0  0  0
    7.7192  -15.6259   18.4209 O   0  0  0  0  0  0  0  0  0  0  0  0
    6.5558  -16.3222   20.3520 C   0  0  0  0  0  0  0  0  0  0  0  0
    7.0513  -15.8593   21.6746 C   0  0  0  0  0  0  0  0  0  0  0  0
    6.9492  -14.3745   21.9271 C   0  0  2  0  0  0  0  0  0  0  0  0
    7.6867  -13.7417   20.8191 N   0  0  0  0  0  0  0  0  0  0  0  0
    7.6417  -13.9926   23.1840 C   0  0  0  0  0  0  0  0  0  0  0  0
    8.8786  -14.2297   23.2757 O   0  0  0  0  0  0  0  0  0  0  0  0
    6.7887  -12.3594   26.5219 C   0  0  0  0  0  0  0  0  0  0  0  0
    7.6324  -13.1486   25.5459 C   0  0  2  0  0  0  0  0  0  0  0  0
    7.0020  -13.3774   24.2874 N   0  0  0  0  0  0  0  0  0  0  0  0
    8.0936  -14.4079   26.1963 C   0  0  0  0  0  0  0  0  0  0  0  0
    7.3729  -15.4057   26.3538 O   0  0  0  0  0  0  0  0  0  0  0  0
    9.4365  -14.4565   26.6578 N   0  0  0  0  0  0  0  0  0  0  0  0
   10.0608  -15.6517   27.2083 C   0  0  1  0  0  0  0  0  0  0  0  0
   11.2865  -15.9511   26.3937 C   0  0  0  0  0  0  0  0  0  0  0  0
   12.0156  -17.1168   26.9826 C   0  0  0  0  0  0  0  0  0  0  0  0
   13.2284  -17.4627   26.2193 C   0  0  0  0  0  0  0  0  0  0  0  0
   13.6019  -16.8710   25.1810 O   0  0  0  0  0  0  0  0  0  0  0  0
   10.4960  -15.4148   28.6196 C   0  0  0  0  0  0  0  0  0  0  0  0
   10.7964  -16.4546   29.4788 O   0  0  0  0  0  0  0  0  0  0  0  0
   14.0289  -18.5302   26.6810 O   0  0  0  0  0  0  0  0  0  0  0  0
   10.5952  -14.2390   29.0483 O   0  0  0  0  0  0  0  0  0  0  0  0
  2  1  1  0
  3  2  2  0
  4  2  1  0
  5  4  1  0
  6  7  1  6
  6  5  1  0
  6  8  1  0
  8  9  2  0
 11 10  1  1
 11 13  1  0
 12  8  1  0
 12 11  1  0
 13 15  1  0
 13 14  2  0
 15 16  1  0
 16 21  1  0
 16 17  1  6
 18 17  1  0
 19 18  1  0
 20 19  2  0
 21 22  1  0
 23 19  1  0
 24 21  2  0
M  END
$$$$
