QAE.pdb
     RDKit          3D

 24 23  0  0  1  0  0  0  0  0999 V2000
    8.9518  -18.1006   16.9480 N   0  0  0  0  0  0  0  0  0  0  0  0
    7.8458  -17.5722   16.2437 C   0  0  0  0  0  0  0  0  0  0  0  0
    7.0326  -18.3584   15.7150 O   0  0  0  0  0  0  0  0  0  0  0  0
    7.6624  -16.1244   16.1391 C   0  0  0  0  0  0  0  0  0  0  0  0
    8.5698  -15.2923   16.9717 C   0  0  0  0  0  0  0  0  0  0  0  0
    7.9006  -14.2139   17.7891 C   0  0  2  0  0  0  0  0  0  0  0  0
    8.2354  -12.9494   17.1101 N   0  0  0  0  0  0  0  0  0  0  0  0
    8.4758  -14.1386   19.1561 C   0  0  0  0  0  0  0  0  0  0  0  0
    9.7329  -14.1032   19.2698 O   0  0  0  0  0  0  0  0  0  0  0  0
    7.2805  -13.7102   22.7382 C   0  0  0  0  0  0  0  0  0  0  0  0
    8.2592  -14.1041   21.6546 C   0  0  2  0  0  0  0  0  0  0  0  0
    7.7025  -14.1025   20.3419 N   0  0  0  0  0  0  0  0  0  0  0  0
    8.8930  -15.4055   22.0098 C   0  0  0  0  0  0  0  0  0  0  0  0
    8.4117  -16.5100   21.7123 O   0  0  0  0  0  0  0  0  0  0  0  0
   10.1174  -15.3664   22.7295 N   0  0  0  0  0  0  0  0  0  0  0  0
   10.7941  -16.5504   23.2411 C   0  0  1  0  0  0  0  0  0  0  0  0
   12.2652  -16.2535   23.3009 C   0  0  0  0  0  0  0  0  0  0  0  0
   12.7867  -15.9902   21.9240 C   0  0  0  0  0  0  0  0  0  0  0  0
   14.2499  -15.8121   21.9038 C   0  0  0  0  0  0  0  0  0  0  0  0
   14.8892  -15.1252   22.7328 O   0  0  0  0  0  0  0  0  0  0  0  0
   10.3332  -16.8605   24.6299 C   0  0  0  0  0  0  0  0  0  0  0  0
   10.7013  -18.0215   25.2827 O   0  0  0  0  0  0  0  0  0  0  0  0
   14.9890  -16.4543   20.8865 O   0  0  0  0  0  0  0  0  0  0  0  0
    9.5883  -16.0484   25.2312 O   0  0  0  0  0  0  0  0  0  0  0  0
  2  1  1  0
  3  2  2  0
  4  2  1  0
  5  4  1  0
  6  7  1  6
  6  5  1  0
  6  8  1  0
  8  9  2  0
 11 10  1  1
 11 13  1  0
 12  8  1  0
 12 11  1  0
 13 15  1  0
 13 14  2  0
 15 16  1  0
 16 21  1  0
 16 17  1  1
 18 17  1  0
 19 18  1  0
 20 19  2  0
 21 22  1  0
 23 19  1  0
 24 21  2  0
M  END
$$$$
