DFN.pdb
     RDKit          3D

 28 28  0  0  1  0  0  0  0  0999 V2000
    8.6638  -17.1895   19.5297 N   0  0  0  0  0  0  0  0  0  0  0  0
   10.0497  -16.8648   19.8086 C   0  0  1  0  0  0  0  0  0  0  0  0
   10.6273  -16.2602   18.5283 C   0  0  0  0  0  0  0  0  0  0  0  0
   10.6055  -17.3094   17.4825 C   0  0  0  0  0  0  0  0  0  0  0  0
    9.6641  -17.3346   16.6435 O   0  0  0  0  0  0  0  0  0  0  0  0
   10.0924  -15.8549   20.9016 C   0  0  0  0  0  0  0  0  0  0  0  0
   11.1851  -15.2629   21.1781 O   0  0  0  0  0  0  0  0  0  0  0  0
   11.5748  -18.2946   17.3568 O   0  0  0  0  0  0  0  0  0  0  0  0
    8.9763  -15.4928   21.6801 N   0  0  0  0  0  0  0  0  0  0  0  0
    9.0663  -14.9833   23.0470 C   0  0  1  0  0  0  0  0  0  0  0  0
    7.7125  -14.5425   23.4316 C   0  0  0  0  0  0  0  0  0  0  0  0
    7.5421  -13.7620   24.6367 C   0  0  0  0  0  0  0  0  0  0  0  0
    8.3387  -12.7113   25.0368 C   0  0  0  0  0  0  0  0  0  0  0  0
    8.1137  -12.0077   26.1940 C   0  0  0  0  0  0  0  0  0  0  0  0
    7.0524  -12.3438   27.0121 C   0  0  0  0  0  0  0  0  0  0  0  0
    6.2355  -13.3908   26.6403 C   0  0  0  0  0  0  0  0  0  0  0  0
    6.4883  -14.0746   25.4755 C   0  0  0  0  0  0  0  0  0  0  0  0
    9.5514  -16.0152   23.9845 C   0  0  0  0  0  0  0  0  0  0  0  0
   10.5072  -16.7275   23.5936 O   0  0  0  0  0  0  0  0  0  0  0  0
   10.8336  -20.1876   26.5737 N   0  0  0  0  0  0  0  0  0  0  0  0
   11.4198  -18.9105   26.2787 C   0  0  0  0  0  0  0  0  0  0  0  0
   12.5409  -18.7268   26.8510 O   0  0  0  0  0  0  0  0  0  0  0  0
   10.7558  -17.9370   25.3951 C   0  0  0  0  0  0  0  0  0  0  0  0
    9.5582  -17.3456   26.0593 C   0  0  2  0  0  0  0  0  0  0  0  0
    9.0138  -16.2397   25.2636 N   0  0  0  0  0  0  0  0  0  0  0  0
    9.9944  -16.7011   27.3471 C   0  0  0  0  0  0  0  0  0  0  0  0
   10.3997  -17.3507   28.3274 O   0  0  0  0  0  0  0  0  0  0  0  0
    9.9586  -15.3235   27.4890 O   0  0  0  0  0  0  0  0  0  0  0  0
  2  6  1  0
  2  1  1  6
  2  3  1  0
  4  8  1  0
  4  3  1  0
  5  4  2  0
  6  9  1  0
  7  6  2  0
  9 10  1  0
 10 11  1  1
 11 12  1  0
 12 17  2  0
 12 13  1  0
 13 14  2  0
 14 15  1  0
 16 15  2  0
 17 16  1  0
 18 19  2  0
 18 10  1  0
 21 20  1  0
 21 23  1  0
 22 21  2  0
 24 23  1  6
 24 25  1  0
 25 18  1  0
 26 24  1  0
 27 26  2  0
 28 26  1  0
M  END
$$$$
