DFN.pdb
     RDKit          3D

 28 28  0  0  1  0  0  0  0  0999 V2000
    8.8253  -16.1828   19.7519 N   0  0  0  0  0  0  0  0  0  0  0  0
    9.7381  -16.9463   20.5812 C   0  0  1  0  0  0  0  0  0  0  0  0
   11.0705  -17.0040   19.8330 C   0  0  0  0  0  0  0  0  0  0  0  0
   10.8456  -17.7351   18.5641 C   0  0  0  0  0  0  0  0  0  0  0  0
   10.3639  -18.9003   18.5923 O   0  0  0  0  0  0  0  0  0  0  0  0
    9.9212  -16.2301   21.8734 C   0  0  0  0  0  0  0  0  0  0  0  0
   10.7749  -15.2898   21.9639 O   0  0  0  0  0  0  0  0  0  0  0  0
   11.1357  -17.2140   17.3109 O   0  0  0  0  0  0  0  0  0  0  0  0
    9.1963  -16.5247   23.0441 N   0  0  0  0  0  0  0  0  0  0  0  0
    9.3740  -15.8202   24.3122 C   0  0  1  0  0  0  0  0  0  0  0  0
    8.0262  -15.5473   24.8451 C   0  0  0  0  0  0  0  0  0  0  0  0
    7.7781  -14.2956   25.5247 C   0  0  0  0  0  0  0  0  0  0  0  0
    8.1890  -13.9748   26.8002 C   0  0  0  0  0  0  0  0  0  0  0  0
    7.9232  -12.7602   27.3824 C   0  0  0  0  0  0  0  0  0  0  0  0
    7.2164  -11.7994   26.6854 C   0  0  0  0  0  0  0  0  0  0  0  0
    6.7906  -12.0888   25.4060 C   0  0  0  0  0  0  0  0  0  0  0  0
    7.0734  -13.3142   24.8524 C   0  0  0  0  0  0  0  0  0  0  0  0
   10.1511  -16.6211   25.2786 C   0  0  0  0  0  0  0  0  0  0  0  0
    9.7391  -17.7836   25.5078 O   0  0  0  0  0  0  0  0  0  0  0  0
   11.1193  -16.2055   30.5280 N   0  0  0  0  0  0  0  0  0  0  0  0
   10.3988  -16.8931   29.4938 C   0  0  0  0  0  0  0  0  0  0  0  0
    9.9097  -18.0040   29.8741 O   0  0  0  0  0  0  0  0  0  0  0  0
   10.2625  -16.3328   28.1384 C   0  0  0  0  0  0  0  0  0  0  0  0
   11.5011  -16.5639   27.3399 C   0  0  2  0  0  0  0  0  0  0  0  0
   11.3025  -16.1638   25.9425 N   0  0  0  0  0  0  0  0  0  0  0  0
   11.7579  -18.0450   27.2725 C   0  0  0  0  0  0  0  0  0  0  0  0
   11.0308  -18.8313   26.6398 O   0  0  0  0  0  0  0  0  0  0  0  0
   12.8433  -18.5991   27.9312 O   0  0  0  0  0  0  0  0  0  0  0  0
  2  6  1  0
  2  1  1  6
  2  3  1  0
  4  8  1  0
  4  3  1  0
  5  4  2  0
  6  9  1  0
  7  6  2  0
  9 10  1  0
 10 11  1  1
 11 12  1  0
 12 17  2  0
 12 13  1  0
 13 14  2  0
 14 15  1  0
 16 15  2  0
 17 16  1  0
 18 19  2  0
 18 10  1  0
 21 20  1  0
 21 23  1  0
 22 21  2  0
 24 23  1  1
 24 25  1  0
 25 18  1  0
 26 24  1  0
 27 26  2  0
 28 26  1  0
M  END
$$$$
