DFN.pdb
     RDKit          3D

 28 28  0  0  1  0  0  0  0  0999 V2000
    9.8405  -16.3017   18.8932 N   0  0  0  0  0  0  0  0  0  0  0  0
    9.1479  -16.9300   20.0022 C   0  0  1  0  0  0  0  0  0  0  0  0
    9.7758  -18.3118   20.1883 C   0  0  0  0  0  0  0  0  0  0  0  0
    9.3804  -19.1482   19.0310 C   0  0  0  0  0  0  0  0  0  0  0  0
    8.1580  -19.3575   18.8011 O   0  0  0  0  0  0  0  0  0  0  0  0
    9.3675  -16.1122   21.2266 C   0  0  0  0  0  0  0  0  0  0  0  0
   10.5335  -15.6821   21.5034 O   0  0  0  0  0  0  0  0  0  0  0  0
   10.2850  -19.7345   18.1571 O   0  0  0  0  0  0  0  0  0  0  0  0
    8.3473  -15.7667   22.1336 N   0  0  0  0  0  0  0  0  0  0  0  0
    8.5682  -14.9912   23.3526 C   0  0  1  0  0  0  0  0  0  0  0  0
    7.3006  -14.3030   23.6601 C   0  0  0  0  0  0  0  0  0  0  0  0
    7.1859  -13.5566   24.8930 C   0  0  0  0  0  0  0  0  0  0  0  0
    6.4171  -13.9089   25.9809 C   0  0  0  0  0  0  0  0  0  0  0  0
    6.3606  -13.1536   27.1259 C   0  0  0  0  0  0  0  0  0  0  0  0
    7.0938  -11.9866   27.2211 C   0  0  0  0  0  0  0  0  0  0  0  0
    7.8739  -11.6055   26.1496 C   0  0  0  0  0  0  0  0  0  0  0  0
    7.9083  -12.3843   25.0180 C   0  0  0  0  0  0  0  0  0  0  0  0
    8.9677  -15.8519   24.4835 C   0  0  0  0  0  0  0  0  0  0  0  0
    8.2151  -16.8199   24.7486 O   0  0  0  0  0  0  0  0  0  0  0  0
   13.3619  -16.1323   24.1469 N   0  0  0  0  0  0  0  0  0  0  0  0
   12.5347  -17.0963   24.8164 C   0  0  0  0  0  0  0  0  0  0  0  0
   12.3057  -18.1347   24.1182 O   0  0  0  0  0  0  0  0  0  0  0  0
   12.0220  -16.8671   26.1780 C   0  0  0  0  0  0  0  0  0  0  0  0
   10.5369  -16.7263   26.1709 C   0  0  2  0  0  0  0  0  0  0  0  0
   10.1196  -15.6517   25.2635 N   0  0  0  0  0  0  0  0  0  0  0  0
   10.0938  -16.2609   27.5314 C   0  0  0  0  0  0  0  0  0  0  0  0
    9.5287  -17.0054   28.3522 O   0  0  0  0  0  0  0  0  0  0  0  0
   10.3058  -14.9505   27.9277 O   0  0  0  0  0  0  0  0  0  0  0  0
  2  6  1  0
  2  1  1  6
  2  3  1  0
  4  8  1  0
  4  3  1  0
  5  4  2  0
  6  9  1  0
  7  6  2  0
  9 10  1  0
 10 11  1  1
 11 12  1  0
 12 17  2  0
 12 13  1  0
 13 14  2  0
 14 15  1  0
 16 15  2  0
 17 16  1  0
 18 19  2  0
 18 10  1  0
 21 20  1  0
 21 23  1  0
 22 21  2  0
 24 23  1  1
 24 25  1  0
 25 18  1  0
 26 24  1  0
 27 26  2  0
 28 26  1  0
M  END
$$$$
