DFN.pdb
     RDKit          3D

 28 28  0  0  1  0  0  0  0  0999 V2000
    8.3622  -17.0336   19.8402 N   0  0  0  0  0  0  0  0  0  0  0  0
    9.5216  -17.5089   20.5709 C   0  0  1  0  0  0  0  0  0  0  0  0
   10.7241  -17.3544   19.6390 C   0  0  0  0  0  0  0  0  0  0  0  0
   10.4697  -18.1752   18.4320 C   0  0  0  0  0  0  0  0  0  0  0  0
   11.4019  -18.3768   17.6068 O   0  0  0  0  0  0  0  0  0  0  0  0
    9.7097  -16.6544   21.7754 C   0  0  0  0  0  0  0  0  0  0  0  0
   10.8779  -16.2724   22.1079 O   0  0  0  0  0  0  0  0  0  0  0  0
    9.2436  -18.7544   18.1365 O   0  0  0  0  0  0  0  0  0  0  0  0
    8.6563  -16.2219   22.6037 N   0  0  0  0  0  0  0  0  0  0  0  0
    8.8480  -15.4578   23.8347 C   0  0  1  0  0  0  0  0  0  0  0  0
    7.6002  -14.7091   24.0747 C   0  0  0  0  0  0  0  0  0  0  0  0
    7.5142  -13.8338   25.2223 C   0  0  0  0  0  0  0  0  0  0  0  0
    8.1060  -14.0496   26.4477 C   0  0  0  0  0  0  0  0  0  0  0  0
    7.9876  -13.1694   27.4947 C   0  0  0  0  0  0  0  0  0  0  0  0
    7.2509  -12.0106   27.3436 C   0  0  0  0  0  0  0  0  0  0  0  0
    6.6457  -11.7644   26.1291 C   0  0  0  0  0  0  0  0  0  0  0  0
    6.7840  -12.6659   25.1014 C   0  0  0  0  0  0  0  0  0  0  0  0
    9.1436  -16.3365   24.9834 C   0  0  0  0  0  0  0  0  0  0  0  0
    8.5604  -17.4469   25.0087 O   0  0  0  0  0  0  0  0  0  0  0  0
   13.9346  -17.7793   27.8820 N   0  0  0  0  0  0  0  0  0  0  0  0
   12.9698  -18.1429   26.8826 C   0  0  0  0  0  0  0  0  0  0  0  0
   12.8820  -19.3988   26.7009 O   0  0  0  0  0  0  0  0  0  0  0  0
   12.1797  -17.1304   26.1616 C   0  0  0  0  0  0  0  0  0  0  0  0
   10.7773  -17.0895   26.6683 C   0  0  2  0  0  0  0  0  0  0  0  0
   10.0234  -16.0057   26.0285 N   0  0  0  0  0  0  0  0  0  0  0  0
   10.8056  -16.7164   28.1257 C   0  0  0  0  0  0  0  0  0  0  0  0
   10.3542  -15.6415   28.5596 O   0  0  0  0  0  0  0  0  0  0  0  0
   11.3507  -17.5814   29.0605 O   0  0  0  0  0  0  0  0  0  0  0  0
  2  6  1  0
  2  1  1  6
  2  3  1  0
  4  8  1  0
  4  3  1  0
  5  4  2  0
  6  9  1  0
  7  6  2  0
  9 10  1  0
 10 11  1  1
 11 12  1  0
 12 17  2  0
 12 13  1  0
 13 14  2  0
 14 15  1  0
 16 15  2  0
 17 16  1  0
 18 19  2  0
 18 10  1  0
 21 20  1  0
 21 23  1  0
 22 21  2  0
 24 23  1  6
 24 25  1  0
 25 18  1  0
 26 24  1  0
 27 26  2  0
 28 26  1  0
M  END
$$$$
