DFN.pdb
     RDKit          3D

 28 28  0  0  1  0  0  0  0  0999 V2000
    8.8586  -16.8203   19.7599 N   0  0  0  0  0  0  0  0  0  0  0  0
   10.0388  -17.1895   20.5182 C   0  0  1  0  0  0  0  0  0  0  0  0
   11.2486  -16.8139   19.6617 C   0  0  0  0  0  0  0  0  0  0  0  0
   11.1490  -17.5603   18.3857 C   0  0  0  0  0  0  0  0  0  0  0  0
   12.1675  -17.6791   17.6513 O   0  0  0  0  0  0  0  0  0  0  0  0
   10.0584  -16.4040   21.7826 C   0  0  0  0  0  0  0  0  0  0  0  0
   11.1113  -16.3767   22.4980 O   0  0  0  0  0  0  0  0  0  0  0  0
    9.9816  -18.1548   17.9280 O   0  0  0  0  0  0  0  0  0  0  0  0
    8.9618  -15.6634   22.2641 N   0  0  0  0  0  0  0  0  0  0  0  0
    8.8834  -15.1060   23.6129 C   0  0  1  0  0  0  0  0  0  0  0  0
    7.7639  -14.1459   23.6170 C   0  0  0  0  0  0  0  0  0  0  0  0
    7.4647  -13.4186   24.8303 C   0  0  0  0  0  0  0  0  0  0  0  0
    8.3574  -13.1320   25.8400 C   0  0  0  0  0  0  0  0  0  0  0  0
    8.0048  -12.4286   26.9651 C   0  0  0  0  0  0  0  0  0  0  0  0
    6.7087  -11.9762   27.1196 C   0  0  0  0  0  0  0  0  0  0  0  0
    5.7904  -12.2462   26.1269 C   0  0  0  0  0  0  0  0  0  0  0  0
    6.1758  -12.9528   25.0132 C   0  0  0  0  0  0  0  0  0  0  0  0
    8.6578  -16.1555   24.6262 C   0  0  0  0  0  0  0  0  0  0  0  0
    7.8129  -17.0390   24.3444 O   0  0  0  0  0  0  0  0  0  0  0  0
   11.0078  -19.8591   27.2052 N   0  0  0  0  0  0  0  0  0  0  0  0
   11.5556  -19.2087   26.0482 C   0  0  0  0  0  0  0  0  0  0  0  0
   12.5885  -19.7896   25.5858 O   0  0  0  0  0  0  0  0  0  0  0  0
   10.9507  -17.9904   25.4833 C   0  0  0  0  0  0  0  0  0  0  0  0
    9.8080  -17.5253   26.3219 C   0  0  2  0  0  0  0  0  0  0  0  0
    9.3225  -16.2191   25.8629 N   0  0  0  0  0  0  0  0  0  0  0  0
   10.3111  -17.2689   27.7166 C   0  0  0  0  0  0  0  0  0  0  0  0
   10.7182  -18.1730   28.4677 O   0  0  0  0  0  0  0  0  0  0  0  0
   10.3389  -15.9810   28.2263 O   0  0  0  0  0  0  0  0  0  0  0  0
  2  6  1  0
  2  1  1  6
  2  3  1  0
  4  8  1  0
  4  3  1  0
  5  4  2  0
  6  9  1  0
  7  6  2  0
  9 10  1  0
 10 11  1  6
 11 12  1  0
 12 17  2  0
 12 13  1  0
 13 14  2  0
 14 15  1  0
 16 15  2  0
 17 16  1  0
 18 19  2  0
 18 10  1  0
 21 20  1  0
 21 23  1  0
 22 21  2  0
 24 23  1  6
 24 25  1  0
 25 18  1  0
 26 24  1  0
 27 26  2  0
 28 26  1  0
M  END
$$$$
