DFN.pdb
     RDKit          3D

 28 28  0  0  1  0  0  0  0  0999 V2000
    8.1529  -16.5191   21.0860 N   0  0  0  0  0  0  0  0  0  0  0  0
    9.5656  -16.3912   21.3898 C   0  0  1  0  0  0  0  0  0  0  0  0
   10.0965  -15.2359   20.5402 C   0  0  0  0  0  0  0  0  0  0  0  0
   10.3850  -15.7649   19.1867 C   0  0  0  0  0  0  0  0  0  0  0  0
    9.6222  -16.6320   18.6800 O   0  0  0  0  0  0  0  0  0  0  0  0
    9.7149  -16.0598   22.8334 C   0  0  0  0  0  0  0  0  0  0  0  0
   10.8196  -15.6006   23.2695 O   0  0  0  0  0  0  0  0  0  0  0  0
   11.4659  -15.3626   18.4147 O   0  0  0  0  0  0  0  0  0  0  0  0
    8.6909  -16.2217   23.7864 N   0  0  0  0  0  0  0  0  0  0  0  0
    8.8758  -16.0269   25.2230 C   0  0  1  0  0  0  0  0  0  0  0  0
    7.5850  -15.5611   25.7634 C   0  0  0  0  0  0  0  0  0  0  0  0
    7.3428  -14.1406   25.8814 C   0  0  0  0  0  0  0  0  0  0  0  0
    8.3079  -13.1653   26.0076 C   0  0  0  0  0  0  0  0  0  0  0  0
    8.0053  -11.8300   26.1086 C   0  0  0  0  0  0  0  0  0  0  0  0
    6.6875  -11.4162   26.0857 C   0  0  0  0  0  0  0  0  0  0  0  0
    5.6969  -12.3674   25.9603 C   0  0  0  0  0  0  0  0  0  0  0  0
    6.0337  -13.6959   25.8613 C   0  0  0  0  0  0  0  0  0  0  0  0
    9.2889  -17.2744   25.8955 C   0  0  0  0  0  0  0  0  0  0  0  0
    8.4421  -17.8184   26.6443 O   0  0  0  0  0  0  0  0  0  0  0  0
   11.0455  -20.5849   23.8499 N   0  0  0  0  0  0  0  0  0  0  0  0
   12.0730  -19.8658   24.5492 C   0  0  0  0  0  0  0  0  0  0  0  0
   12.9463  -19.3570   23.7768 O   0  0  0  0  0  0  0  0  0  0  0  0
   12.0788  -19.7520   26.0177 C   0  0  0  0  0  0  0  0  0  0  0  0
   10.8299  -19.0986   26.5059 C   0  0  2  0  0  0  0  0  0  0  0  0
   10.5512  -17.8743   25.7469 N   0  0  0  0  0  0  0  0  0  0  0  0
   11.0582  -18.6220   27.9148 C   0  0  0  0  0  0  0  0  0  0  0  0
   10.8338  -19.3277   28.9142 O   0  0  0  0  0  0  0  0  0  0  0  0
   11.5397  -17.3452   28.1537 O   0  0  0  0  0  0  0  0  0  0  0  0
  2  6  1  0
  2  1  1  6
  2  3  1  0
  4  8  1  0
  4  3  1  0
  5  4  2  0
  6  9  1  0
  7  6  2  0
  9 10  1  0
 10 11  1  1
 11 12  1  0
 12 17  2  0
 12 13  1  0
 13 14  2  0
 14 15  1  0
 16 15  2  0
 17 16  1  0
 18 19  2  0
 18 10  1  0
 21 20  1  0
 21 23  1  0
 22 21  2  0
 24 23  1  6
 24 25  1  0
 25 18  1  0
 26 24  1  0
 27 26  2  0
 28 26  1  0
M  END
$$$$
