PAE.pdb
     RDKit          3D

 22 22  0  0  1  0  0  0  0  0999 V2000
    7.3155  -15.0549   19.8407 N   0  0  0  0  0  0  0  0  0  0  0  0
    6.6888  -14.4961   18.6722 C   0  0  0  0  0  0  0  0  0  0  0  0
    7.3484  -13.1638   18.3933 C   0  0  0  0  0  0  0  0  0  0  0  0
    8.0314  -12.8887   19.7142 C   0  0  0  0  0  0  0  0  0  0  0  0
    8.5224  -14.2856   20.0740 C   0  0  1  0  0  0  0  0  0  0  0  0
    8.9923  -14.3700   21.4571 C   0  0  0  0  0  0  0  0  0  0  0  0
   10.1964  -14.1295   21.7229 O   0  0  0  0  0  0  0  0  0  0  0  0
    7.2869  -14.4789   24.7902 C   0  0  0  0  0  0  0  0  0  0  0  0
    8.4702  -14.7379   23.8905 C   0  0  2  0  0  0  0  0  0  0  0  0
    8.1119  -14.7172   22.4930 N   0  0  0  0  0  0  0  0  0  0  0  0
    9.1309  -16.0259   24.1933 C   0  0  0  0  0  0  0  0  0  0  0  0
    8.6291  -17.1035   23.8077 O   0  0  0  0  0  0  0  0  0  0  0  0
   10.3242  -16.0100   24.9165 N   0  0  0  0  0  0  0  0  0  0  0  0
   11.0532  -17.2393   25.3312 C   0  0  1  0  0  0  0  0  0  0  0  0
   12.4671  -16.9233   25.0515 C   0  0  0  0  0  0  0  0  0  0  0  0
   12.9697  -16.7977   23.6858 C   0  0  0  0  0  0  0  0  0  0  0  0
   14.3905  -16.4166   23.6444 C   0  0  0  0  0  0  0  0  0  0  0  0
   15.0883  -16.1304   24.6487 O   0  0  0  0  0  0  0  0  0  0  0  0
   10.6315  -17.5158   26.6852 C   0  0  0  0  0  0  0  0  0  0  0  0
   10.0452  -16.5923   27.3521 O   0  0  0  0  0  0  0  0  0  0  0  0
   14.9815  -16.3826   22.3681 O   0  0  0  0  0  0  0  0  0  0  0  0
   10.7703  -18.6914   27.4056 O   0  0  0  0  0  0  0  0  0  0  0  0
  1  2  1  0
  1  5  1  0
  2  3  1  0
  3  4  1  0
  5  4  1  0
  6 10  1  0
  5  6  1  1
  7  6  2  0
  9  8  1  1
  9 11  1  0
  9 10  1  0
 11 13  1  0
 12 11  2  0
 13 14  1  0
 14 15  1  1
 15 16  1  0
 17 21  1  0
 17 16  1  0
 18 17  2  0
 19 14  1  0
 20 19  2  0
 22 19  1  0
M  END
$$$$
