PAE.pdb
     RDKit          3D

 22 22  0  0  1  0  0  0  0  0999 V2000
    7.1561  -15.0336   19.9589 N   0  0  0  0  0  0  0  0  0  0  0  0
    6.5700  -14.5461   18.7387 C   0  0  0  0  0  0  0  0  0  0  0  0
    7.4205  -13.3938   18.2521 C   0  0  0  0  0  0  0  0  0  0  0  0
    8.2039  -13.0554   19.5006 C   0  0  0  0  0  0  0  0  0  0  0  0
    8.4811  -14.4508   20.0463 C   0  0  1  0  0  0  0  0  0  0  0  0
    8.9997  -14.4194   21.4141 C   0  0  0  0  0  0  0  0  0  0  0  0
   10.2279  -14.2447   21.6121 O   0  0  0  0  0  0  0  0  0  0  0  0
    7.4608  -14.1128   24.8199 C   0  0  0  0  0  0  0  0  0  0  0  0
    8.5649  -14.5492   23.8887 C   0  0  2  0  0  0  0  0  0  0  0  0
    8.1393  -14.5824   22.5104 N   0  0  0  0  0  0  0  0  0  0  0  0
    9.1094  -15.8757   24.2507 C   0  0  0  0  0  0  0  0  0  0  0  0
    8.4804  -16.9187   23.9705 O   0  0  0  0  0  0  0  0  0  0  0  0
   10.3380  -15.9357   24.9095 N   0  0  0  0  0  0  0  0  0  0  0  0
   11.0436  -17.2077   25.2237 C   0  0  1  0  0  0  0  0  0  0  0  0
   12.4656  -16.8905   24.9897 C   0  0  0  0  0  0  0  0  0  0  0  0
   13.0903  -17.0846   23.6837 C   0  0  0  0  0  0  0  0  0  0  0  0
   14.4287  -16.4775   23.6070 C   0  0  0  0  0  0  0  0  0  0  0  0
   15.4019  -16.7865   24.3382 O   0  0  0  0  0  0  0  0  0  0  0  0
   10.6001  -17.5948   26.5432 C   0  0  0  0  0  0  0  0  0  0  0  0
   10.8139  -18.7934   26.9417 O   0  0  0  0  0  0  0  0  0  0  0  0
   14.5971  -15.4810   22.6283 O   0  0  0  0  0  0  0  0  0  0  0  0
    9.9482  -16.8230   27.4917 O   0  0  0  0  0  0  0  0  0  0  0  0
  1  2  1  0
  1  5  1  0
  2  3  1  0
  3  4  1  0
  5  4  1  0
  6 10  1  0
  5  6  1  1
  7  6  2  0
  9  8  1  1
  9 11  1  0
  9 10  1  0
 11 13  1  0
 12 11  2  0
 13 14  1  0
 14 15  1  1
 15 16  1  0
 17 21  1  0
 17 16  1  0
 18 17  2  0
 19 14  1  0
 20 19  2  0
 22 19  1  0
M  END
$$$$
