PAE.pdb
     RDKit          3D

 22 22  0  0  1  0  0  0  0  0999 V2000
    7.0541  -15.0059   19.7930 N   0  0  0  0  0  0  0  0  0  0  0  0
    6.4341  -14.4353   18.6267 C   0  0  0  0  0  0  0  0  0  0  0  0
    7.2686  -13.2479   18.2007 C   0  0  0  0  0  0  0  0  0  0  0  0
    8.0848  -12.9959   19.4487 C   0  0  0  0  0  0  0  0  0  0  0  0
    8.3797  -14.4254   19.8860 C   0  0  1  0  0  0  0  0  0  0  0  0
    8.9350  -14.4892   21.2382 C   0  0  0  0  0  0  0  0  0  0  0  0
   10.1508  -14.2346   21.4263 O   0  0  0  0  0  0  0  0  0  0  0  0
    7.4313  -14.6069   24.6724 C   0  0  0  0  0  0  0  0  0  0  0  0
    8.5667  -14.8287   23.7036 C   0  0  2  0  0  0  0  0  0  0  0  0
    8.1237  -14.8319   22.3305 N   0  0  0  0  0  0  0  0  0  0  0  0
    9.2923  -16.0890   23.9725 C   0  0  0  0  0  0  0  0  0  0  0  0
    8.8162  -17.1861   23.6097 O   0  0  0  0  0  0  0  0  0  0  0  0
   10.5172  -16.0250   24.6377 N   0  0  0  0  0  0  0  0  0  0  0  0
   11.4025  -17.2023   24.8500 C   0  0  1  0  0  0  0  0  0  0  0  0
   12.7254  -16.7374   24.3905 C   0  0  0  0  0  0  0  0  0  0  0  0
   13.9105  -17.5864   24.4795 C   0  0  0  0  0  0  0  0  0  0  0  0
   15.1157  -16.9229   23.9569 C   0  0  0  0  0  0  0  0  0  0  0  0
   15.5779  -15.8341   24.3791 O   0  0  0  0  0  0  0  0  0  0  0  0
   11.2169  -17.5980   26.2271 C   0  0  0  0  0  0  0  0  0  0  0  0
   10.7593  -16.7405   27.0617 O   0  0  0  0  0  0  0  0  0  0  0  0
   15.7772  -17.5862   22.9073 O   0  0  0  0  0  0  0  0  0  0  0  0
   11.4691  -18.8302   26.8088 O   0  0  0  0  0  0  0  0  0  0  0  0
  1  2  1  0
  1  5  1  0
  2  3  1  0
  3  4  1  0
  5  4  1  0
  6 10  1  0
  5  6  1  1
  7  6  2  0
  9  8  1  1
  9 11  1  0
  9 10  1  0
 11 13  1  0
 12 11  2  0
 13 14  1  0
 14 15  1  1
 15 16  1  0
 17 21  1  0
 17 16  1  0
 18 17  2  0
 19 14  1  0
 20 19  2  0
 22 19  1  0
M  END
$$$$
