PAE.pdb
     RDKit          3D

 22 22  0  0  1  0  0  0  0  0999 V2000
    7.2347  -15.1484   20.1789 N   0  0  0  0  0  0  0  0  0  0  0  0
    6.6687  -14.6946   18.9364 C   0  0  0  0  0  0  0  0  0  0  0  0
    7.5335  -13.5630   18.4271 C   0  0  0  0  0  0  0  0  0  0  0  0
    8.3018  -13.1917   19.6757 C   0  0  0  0  0  0  0  0  0  0  0  0
    8.5622  -14.5715   20.2671 C   0  0  1  0  0  0  0  0  0  0  0  0
    9.0621  -14.5019   21.6405 C   0  0  0  0  0  0  0  0  0  0  0  0
   10.2598  -14.1884   21.8536 O   0  0  0  0  0  0  0  0  0  0  0  0
    7.5379  -14.0891   24.9779 C   0  0  0  0  0  0  0  0  0  0  0  0
    8.6155  -14.6898   24.1092 C   0  0  2  0  0  0  0  0  0  0  0  0
    8.2174  -14.7815   22.7254 N   0  0  0  0  0  0  0  0  0  0  0  0
    9.0261  -16.0317   24.5762 C   0  0  0  0  0  0  0  0  0  0  0  0
    8.2844  -17.0214   24.3965 O   0  0  0  0  0  0  0  0  0  0  0  0
   10.2571  -16.1668   25.2192 N   0  0  0  0  0  0  0  0  0  0  0  0
   10.8630  -17.4794   25.5722 C   0  0  1  0  0  0  0  0  0  0  0  0
   12.2951  -17.3021   25.2640 C   0  0  0  0  0  0  0  0  0  0  0  0
   12.7561  -16.9844   23.9149 C   0  0  0  0  0  0  0  0  0  0  0  0
   14.0915  -16.3660   23.9102 C   0  0  0  0  0  0  0  0  0  0  0  0
   14.4277  -15.3851   23.2016 O   0  0  0  0  0  0  0  0  0  0  0  0
   10.4476  -17.7593   26.9274 C   0  0  0  0  0  0  0  0  0  0  0  0
    9.9266  -16.8177   27.6226 O   0  0  0  0  0  0  0  0  0  0  0  0
   15.0383  -16.9398   24.7783 O   0  0  0  0  0  0  0  0  0  0  0  0
   10.5290  -18.9559   27.6216 O   0  0  0  0  0  0  0  0  0  0  0  0
  1  2  1  0
  1  5  1  0
  2  3  1  0
  3  4  1  0
  5  4  1  0
  6 10  1  0
  5  6  1  1
  7  6  2  0
  9  8  1  1
  9 11  1  0
  9 10  1  0
 11 13  1  0
 12 11  2  0
 13 14  1  0
 14 15  1  1
 15 16  1  0
 17 21  1  0
 17 16  1  0
 18 17  2  0
 19 14  1  0
 20 19  2  0
 22 19  1  0
M  END
$$$$
