PAE.pdb
     RDKit          3D

 22 22  0  0  1  0  0  0  0  0999 V2000
    7.1734  -15.2567   19.2300 N   0  0  0  0  0  0  0  0  0  0  0  0
    6.4043  -14.6654   18.1674 C   0  0  0  0  0  0  0  0  0  0  0  0
    6.9176  -13.2577   17.9608 C   0  0  0  0  0  0  0  0  0  0  0  0
    7.6816  -13.0290   19.2458 C   0  0  0  0  0  0  0  0  0  0  0  0
    8.3226  -14.3976   19.4400 C   0  0  1  0  0  0  0  0  0  0  0  0
    8.9121  -14.5511   20.7703 C   0  0  0  0  0  0  0  0  0  0  0  0
   10.1595  -14.6336   20.8945 O   0  0  0  0  0  0  0  0  0  0  0  0
    7.5102  -14.3063   24.2740 C   0  0  0  0  0  0  0  0  0  0  0  0
    8.5972  -14.5879   23.2661 C   0  0  2  0  0  0  0  0  0  0  0  0
    8.0987  -14.6073   21.9122 N   0  0  0  0  0  0  0  0  0  0  0  0
    9.2918  -15.8654   23.5357 C   0  0  0  0  0  0  0  0  0  0  0  0
    8.7913  -16.9504   23.1695 O   0  0  0  0  0  0  0  0  0  0  0  0
   10.5154  -15.8313   24.2057 N   0  0  0  0  0  0  0  0  0  0  0  0
   11.3470  -17.0379   24.4651 C   0  0  1  0  0  0  0  0  0  0  0  0
   12.7102  -16.6149   24.0906 C   0  0  0  0  0  0  0  0  0  0  0  0
   13.8557  -17.5111   24.2248 C   0  0  0  0  0  0  0  0  0  0  0  0
   15.1237  -16.8579   23.8622 C   0  0  0  0  0  0  0  0  0  0  0  0
   15.3084  -15.6163   23.8244 O   0  0  0  0  0  0  0  0  0  0  0  0
   11.0641  -17.4328   25.8258 C   0  0  0  0  0  0  0  0  0  0  0  0
   10.4870  -16.5965   26.6062 O   0  0  0  0  0  0  0  0  0  0  0  0
   16.1895  -17.7185   23.5416 O   0  0  0  0  0  0  0  0  0  0  0  0
   11.3338  -18.6437   26.4432 O   0  0  0  0  0  0  0  0  0  0  0  0
  1  2  1  0
  1  5  1  0
  2  3  1  0
  3  4  1  0
  5  4  1  0
  6 10  1  0
  5  6  1  1
  7  6  2  0
  9  8  1  1
  9 11  1  0
  9 10  1  0
 11 13  1  0
 12 11  2  0
 13 14  1  0
 14 15  1  1
 15 16  1  0
 17 21  1  0
 17 16  1  0
 18 17  2  0
 19 14  1  0
 20 19  2  0
 22 19  1  0
M  END
$$$$
