PAE.pdb
     RDKit          3D

 22 22  0  0  1  0  0  0  0  0999 V2000
    7.5890  -15.0041   18.8012 N   0  0  0  0  0  0  0  0  0  0  0  0
    7.0313  -14.4537   17.5945 C   0  0  0  0  0  0  0  0  0  0  0  0
    7.8528  -13.2387   17.2245 C   0  0  0  0  0  0  0  0  0  0  0  0
    8.5731  -12.9606   18.5249 C   0  0  0  0  0  0  0  0  0  0  0  0
    8.8851  -14.3797   18.9834 C   0  0  1  0  0  0  0  0  0  0  0  0
    9.3488  -14.4260   20.3704 C   0  0  0  0  0  0  0  0  0  0  0  0
   10.5763  -14.3337   20.6215 O   0  0  0  0  0  0  0  0  0  0  0  0
    7.6437  -14.2279   23.7215 C   0  0  0  0  0  0  0  0  0  0  0  0
    8.8034  -14.5777   22.8217 C   0  0  2  0  0  0  0  0  0  0  0  0
    8.4364  -14.5724   21.4263 N   0  0  0  0  0  0  0  0  0  0  0  0
    9.3915  -15.8933   23.1541 C   0  0  0  0  0  0  0  0  0  0  0  0
    8.9364  -16.9397   22.6444 O   0  0  0  0  0  0  0  0  0  0  0  0
   10.4631  -15.9390   24.0466 N   0  0  0  0  0  0  0  0  0  0  0  0
   11.1548  -17.1964   24.4405 C   0  0  1  0  0  0  0  0  0  0  0  0
   12.5854  -16.8863   24.2545 C   0  0  0  0  0  0  0  0  0  0  0  0
   13.1338  -16.5513   22.9429 C   0  0  0  0  0  0  0  0  0  0  0  0
   14.5801  -16.2839   22.9919 C   0  0  0  0  0  0  0  0  0  0  0  0
   15.0994  -15.1980   23.3502 O   0  0  0  0  0  0  0  0  0  0  0  0
   10.6557  -17.5319   25.7543 C   0  0  0  0  0  0  0  0  0  0  0  0
   10.0348  -16.6366   26.4282 O   0  0  0  0  0  0  0  0  0  0  0  0
   15.4158  -17.3471   22.6038 O   0  0  0  0  0  0  0  0  0  0  0  0
   10.7498  -18.7398   26.4269 O   0  0  0  0  0  0  0  0  0  0  0  0
  1  2  1  0
  1  5  1  0
  2  3  1  0
  3  4  1  0
  5  4  1  0
  6 10  1  0
  5  6  1  1
  7  6  2  0
  9  8  1  1
  9 11  1  0
  9 10  1  0
 11 13  1  0
 12 11  2  0
 13 14  1  0
 14 15  1  1
 15 16  1  0
 17 21  1  0
 17 16  1  0
 18 17  2  0
 19 14  1  0
 20 19  2  0
 22 19  1  0
M  END
$$$$
