PAE.pdb
     RDKit          3D

 22 22  0  0  1  0  0  0  0  0999 V2000
    7.1720  -14.9124   19.8065 N   0  0  0  0  0  0  0  0  0  0  0  0
    6.5642  -14.3310   18.6391 C   0  0  0  0  0  0  0  0  0  0  0  0
    7.3506  -13.0882   18.2857 C   0  0  0  0  0  0  0  0  0  0  0  0
    8.1091  -12.8418   19.5707 C   0  0  0  0  0  0  0  0  0  0  0  0
    8.4619  -14.2698   19.9680 C   0  0  1  0  0  0  0  0  0  0  0  0
    8.9727  -14.3555   21.3365 C   0  0  0  0  0  0  0  0  0  0  0  0
   10.2041  -14.2305   21.5520 O   0  0  0  0  0  0  0  0  0  0  0  0
    7.3615  -14.2379   24.7276 C   0  0  0  0  0  0  0  0  0  0  0  0
    8.5046  -14.5670   23.7993 C   0  0  2  0  0  0  0  0  0  0  0  0
    8.1014  -14.5760   22.4139 N   0  0  0  0  0  0  0  0  0  0  0  0
    9.1291  -15.8683   24.1215 C   0  0  0  0  0  0  0  0  0  0  0  0
    8.6149  -16.9356   23.7238 O   0  0  0  0  0  0  0  0  0  0  0  0
   10.3023  -15.8766   24.8769 N   0  0  0  0  0  0  0  0  0  0  0  0
   11.1265  -17.0944   25.1061 C   0  0  1  0  0  0  0  0  0  0  0  0
   12.4760  -16.6970   24.6606 C   0  0  0  0  0  0  0  0  0  0  0  0
   13.6009  -17.6279   24.6962 C   0  0  0  0  0  0  0  0  0  0  0  0
   14.8368  -17.0341   24.1615 C   0  0  0  0  0  0  0  0  0  0  0  0
   14.9314  -15.8753   23.6869 O   0  0  0  0  0  0  0  0  0  0  0  0
   10.9052  -17.4729   26.4828 C   0  0  0  0  0  0  0  0  0  0  0  0
   10.4102  -16.6103   27.2904 O   0  0  0  0  0  0  0  0  0  0  0  0
   15.9804  -17.8525   24.2025 O   0  0  0  0  0  0  0  0  0  0  0  0
   11.1577  -18.6926   27.0901 O   0  0  0  0  0  0  0  0  0  0  0  0
  1  2  1  0
  1  5  1  0
  2  3  1  0
  3  4  1  0
  5  4  1  0
  6 10  1  0
  5  6  1  1
  7  6  2  0
  9  8  1  1
  9 11  1  0
  9 10  1  0
 11 13  1  0
 12 11  2  0
 13 14  1  0
 14 15  1  1
 15 16  1  0
 17 21  1  0
 17 16  1  0
 18 17  2  0
 19 14  1  0
 20 19  2  0
 22 19  1  0
M  END
$$$$
