PAE.pdb
     RDKit          3D

 22 22  0  0  1  0  0  0  0  0999 V2000
    7.2778  -14.9080   19.5780 N   0  0  0  0  0  0  0  0  0  0  0  0
    6.7302  -14.2265   18.4352 C   0  0  0  0  0  0  0  0  0  0  0  0
    7.5470  -12.9723   18.2168 C   0  0  0  0  0  0  0  0  0  0  0  0
    8.2500  -12.8404   19.5493 C   0  0  0  0  0  0  0  0  0  0  0  0
    8.5670  -14.3008   19.8465 C   0  0  1  0  0  0  0  0  0  0  0  0
    9.0148  -14.5025   21.2248 C   0  0  0  0  0  0  0  0  0  0  0  0
   10.2321  -14.3793   21.5099 O   0  0  0  0  0  0  0  0  0  0  0  0
    7.1958  -14.6957   24.5110 C   0  0  0  0  0  0  0  0  0  0  0  0
    8.4173  -14.8654   23.6416 C   0  0  2  0  0  0  0  0  0  0  0  0
    8.0984  -14.8327   22.2348 N   0  0  0  0  0  0  0  0  0  0  0  0
    9.1428  -16.1200   23.9360 C   0  0  0  0  0  0  0  0  0  0  0  0
    8.7542  -17.2064   23.4557 O   0  0  0  0  0  0  0  0  0  0  0  0
   10.2681  -16.0628   24.7592 N   0  0  0  0  0  0  0  0  0  0  0  0
   11.0528  -17.2597   25.1669 C   0  0  1  0  0  0  0  0  0  0  0  0
   12.4409  -16.9121   24.8066 C   0  0  0  0  0  0  0  0  0  0  0  0
   12.8411  -16.6911   23.4194 C   0  0  0  0  0  0  0  0  0  0  0  0
   14.2798  -16.4096   23.2893 C   0  0  0  0  0  0  0  0  0  0  0  0
   15.0094  -15.9542   24.2044 O   0  0  0  0  0  0  0  0  0  0  0  0
   10.7089  -17.5111   26.5476 C   0  0  0  0  0  0  0  0  0  0  0  0
   10.0894  -16.6039   27.2067 O   0  0  0  0  0  0  0  0  0  0  0  0
   14.8494  -16.6850   22.0328 O   0  0  0  0  0  0  0  0  0  0  0  0
   10.9582  -18.6461   27.3025 O   0  0  0  0  0  0  0  0  0  0  0  0
  1  2  1  0
  1  5  1  0
  2  3  1  0
  3  4  1  0
  5  4  1  0
  6 10  1  0
  5  6  1  1
  7  6  2  0
  9  8  1  1
  9 11  1  0
  9 10  1  0
 11 13  1  0
 12 11  2  0
 13 14  1  0
 14 15  1  1
 15 16  1  0
 17 21  1  0
 17 16  1  0
 18 17  2  0
 19 14  1  0
 20 19  2  0
 22 19  1  0
M  END
$$$$
