PAE.pdb
     RDKit          3D

 22 22  0  0  1  0  0  0  0  0999 V2000
    7.3559  -15.0802   19.8212 N   0  0  0  0  0  0  0  0  0  0  0  0
    6.7834  -14.4978   18.6367 C   0  0  0  0  0  0  0  0  0  0  0  0
    7.5360  -13.2179   18.3475 C   0  0  0  0  0  0  0  0  0  0  0  0
    8.2200  -12.9701   19.6733 C   0  0  0  0  0  0  0  0  0  0  0  0
    8.6097  -14.3915   20.0596 C   0  0  1  0  0  0  0  0  0  0  0  0
    9.0557  -14.4869   21.4499 C   0  0  0  0  0  0  0  0  0  0  0  0
   10.2653  -14.2981   21.7316 O   0  0  0  0  0  0  0  0  0  0  0  0
    7.3195  -14.4915   24.7651 C   0  0  0  0  0  0  0  0  0  0  0  0
    8.4886  -14.8368   23.8758 C   0  0  2  0  0  0  0  0  0  0  0  0
    8.1460  -14.7872   22.4751 N   0  0  0  0  0  0  0  0  0  0  0  0
    9.0483  -16.1711   24.1818 C   0  0  0  0  0  0  0  0  0  0  0  0
    8.5120  -17.2045   23.7276 O   0  0  0  0  0  0  0  0  0  0  0  0
   10.1858  -16.2491   24.9862 N   0  0  0  0  0  0  0  0  0  0  0  0
   10.9342  -17.5110   25.2355 C   0  0  1  0  0  0  0  0  0  0  0  0
   12.1815  -17.3404   24.4658 C   0  0  0  0  0  0  0  0  0  0  0  0
   13.2160  -16.3963   24.8804 C   0  0  0  0  0  0  0  0  0  0  0  0
   14.3680  -16.3894   23.9645 C   0  0  0  0  0  0  0  0  0  0  0  0
   15.4314  -17.0337   24.1411 O   0  0  0  0  0  0  0  0  0  0  0  0
   10.9895  -17.6654   26.6710 C   0  0  0  0  0  0  0  0  0  0  0  0
   10.5842  -16.7033   27.4135 O   0  0  0  0  0  0  0  0  0  0  0  0
   14.2337  -15.5925   22.8129 O   0  0  0  0  0  0  0  0  0  0  0  0
   11.4346  -18.7554   27.4018 O   0  0  0  0  0  0  0  0  0  0  0  0
  1  2  1  0
  1  5  1  0
  2  3  1  0
  3  4  1  0
  5  4  1  0
  6 10  1  0
  5  6  1  1
  7  6  2  0
  9  8  1  1
  9 11  1  0
  9 10  1  0
 11 13  1  0
 12 11  2  0
 13 14  1  0
 14 15  1  1
 15 16  1  0
 17 21  1  0
 17 16  1  0
 18 17  2  0
 19 14  1  0
 20 19  2  0
 22 19  1  0
M  END
$$$$
