PAE.pdb
     RDKit          3D

 22 22  0  0  1  0  0  0  0  0999 V2000
    7.3105  -15.0742   19.9380 N   0  0  0  0  0  0  0  0  0  0  0  0
    6.6684  -14.5488   18.7624 C   0  0  0  0  0  0  0  0  0  0  0  0
    7.3571  -13.2495   18.4081 C   0  0  0  0  0  0  0  0  0  0  0  0
    8.0828  -12.9372   19.6976 C   0  0  0  0  0  0  0  0  0  0  0  0
    8.5441  -14.3307   20.1061 C   0  0  1  0  0  0  0  0  0  0  0  0
    9.0485  -14.3686   21.4790 C   0  0  0  0  0  0  0  0  0  0  0  0
   10.2355  -14.0330   21.7173 O   0  0  0  0  0  0  0  0  0  0  0  0
    7.4623  -14.4895   24.8504 C   0  0  0  0  0  0  0  0  0  0  0  0
    8.6164  -14.7805   23.9230 C   0  0  2  0  0  0  0  0  0  0  0  0
    8.2201  -14.7762   22.5356 N   0  0  0  0  0  0  0  0  0  0  0  0
    9.2662  -16.0734   24.2283 C   0  0  0  0  0  0  0  0  0  0  0  0
    8.7618  -17.1467   23.8340 O   0  0  0  0  0  0  0  0  0  0  0  0
   10.4519  -16.0672   24.9638 N   0  0  0  0  0  0  0  0  0  0  0  0
   11.2373  -17.2932   25.2719 C   0  0  1  0  0  0  0  0  0  0  0  0
   12.6343  -16.8911   25.0190 C   0  0  0  0  0  0  0  0  0  0  0  0
   13.1560  -16.7405   23.6630 C   0  0  0  0  0  0  0  0  0  0  0  0
   14.5703  -16.3340   23.6487 C   0  0  0  0  0  0  0  0  0  0  0  0
   15.2749  -16.1446   24.6709 O   0  0  0  0  0  0  0  0  0  0  0  0
   10.8347  -17.7024   26.5978 C   0  0  0  0  0  0  0  0  0  0  0  0
   10.2090  -16.8669   27.3407 O   0  0  0  0  0  0  0  0  0  0  0  0
   15.1462  -16.1553   22.3776 O   0  0  0  0  0  0  0  0  0  0  0  0
   11.0309  -18.9269   27.2161 O   0  0  0  0  0  0  0  0  0  0  0  0
  1  2  1  0
  1  5  1  0
  2  3  1  0
  3  4  1  0
  5  4  1  0
  6 10  1  0
  5  6  1  1
  7  6  2  0
  9  8  1  1
  9 11  1  0
  9 10  1  0
 11 13  1  0
 12 11  2  0
 13 14  1  0
 14 15  1  1
 15 16  1  0
 17 21  1  0
 17 16  1  0
 18 17  2  0
 19 14  1  0
 20 19  2  0
 22 19  1  0
M  END
$$$$
