HMK.pdb
     RDKit          3D

 28 28  0  0  1  0  0  0  0  0999 V2000
   10.0789  -13.4784   20.4671 N   0  0  0  0  0  0  0  0  0  0  0  0
    8.7586  -13.9001   20.9589 C   0  0  1  0  0  0  0  0  0  0  0  0
    8.4673  -15.2060   20.2066 C   0  0  0  0  0  0  0  0  0  0  0  0
    8.0999  -14.9787   18.8084 C   0  0  0  0  0  0  0  0  0  0  0  0
    8.1370  -13.7786   18.1372 C   0  0  0  0  0  0  0  0  0  0  0  0
    7.7242  -13.9609   16.8598 N   0  0  0  0  0  0  0  0  0  0  0  0
    7.4356  -15.2796   16.7576 C   0  0  0  0  0  0  0  0  0  0  0  0
    7.6659  -15.8903   17.9434 N   0  0  0  0  0  0  0  0  0  0  0  0
    8.8358  -14.2674   22.3870 C   0  0  0  0  0  0  0  0  0  0  0  0
    9.9070  -14.7933   22.7824 O   0  0  0  0  0  0  0  0  0  0  0  0
    7.0915  -11.5341   28.2414 C   0  0  0  0  0  0  0  0  0  0  0  0
    5.8664  -11.7231   26.9103 S   0  0  0  0  0  0  0  0  0  0  0  0
    6.7082  -12.4193   25.4384 C   0  0  0  0  0  0  0  0  0  0  0  0
    6.8103  -13.9111   25.5447 C   0  0  0  0  0  0  0  0  0  0  0  0
    7.9335  -14.4416   24.7425 C   0  0  2  0  0  0  0  0  0  0  0  0
    7.8146  -14.0769   23.3313 N   0  0  0  0  0  0  0  0  0  0  0  0
    8.1273  -15.9193   24.8734 C   0  0  0  0  0  0  0  0  0  0  0  0
    7.2299  -16.7327   24.5450 O   0  0  0  0  0  0  0  0  0  0  0  0
    9.3712  -16.3697   25.3862 N   0  0  0  0  0  0  0  0  0  0  0  0
    9.6854  -17.7432   25.7150 C   0  0  1  0  0  0  0  0  0  0  0  0
   10.2333  -18.4855   24.5741 C   0  0  0  0  0  0  0  0  0  0  0  0
   11.6713  -18.3226   24.3197 C   0  0  0  0  0  0  0  0  0  0  0  0
   12.1713  -19.0720   23.1082 C   0  0  0  0  0  0  0  0  0  0  0  0
   13.6828  -18.8836   22.9496 C   0  0  0  0  0  0  0  0  0  0  0  0
   14.1832  -19.6732   21.8653 N   0  0  0  0  0  0  0  0  0  0  0  0
   10.0491  -17.9940   27.0781 C   0  0  0  0  0  0  0  0  0  0  0  0
   10.2874  -19.2107   27.4426 O   0  0  0  0  0  0  0  0  0  0  0  0
   10.1849  -17.0888   28.0997 O   0  0  0  0  0  0  0  0  0  0  0  0
  2  9  1  0
  2  1  1  6
  3  2  1  0
  4  3  1  0
  4  5  2  0
  6  5  1  0
  7  6  1  0
  8  7  2  0
  8  4  1  0
  9 16  1  0
 10  9  2  0
 12 11  1  0
 13 12  1  0
 14 13  1  0
 15 14  1  1
 16 15  1  0
 17 18  2  0
 17 15  1  0
 19 17  1  0
 20 19  1  0
 20 26  1  0
 20 21  1  6
 22 21  1  0
 23 22  1  0
 24 23  1  0
 24 25  1  0
 26 28  1  0
 27 26  2  0
M  END
$$$$
