HMK.pdb
     RDKit          3D

 28 28  0  0  1  0  0  0  0  0999 V2000
    9.4978  -16.7976   20.1309 N   0  0  0  0  0  0  0  0  0  0  0  0
    8.4253  -16.7649   21.1366 C   0  0  1  0  0  0  0  0  0  0  0  0
    8.3175  -18.2142   21.6306 C   0  0  0  0  0  0  0  0  0  0  0  0
    7.6460  -19.0876   20.6675 C   0  0  0  0  0  0  0  0  0  0  0  0
    7.2294  -18.7434   19.4025 C   0  0  0  0  0  0  0  0  0  0  0  0
    6.6488  -19.8143   18.8095 N   0  0  0  0  0  0  0  0  0  0  0  0
    6.7146  -20.8126   19.7216 C   0  0  0  0  0  0  0  0  0  0  0  0
    7.3207  -20.3643   20.8458 N   0  0  0  0  0  0  0  0  0  0  0  0
    8.8442  -15.9706   22.3087 C   0  0  0  0  0  0  0  0  0  0  0  0
   10.0747  -15.9374   22.5635 O   0  0  0  0  0  0  0  0  0  0  0  0
    5.0676  -12.1488   26.5769 C   0  0  0  0  0  0  0  0  0  0  0  0
    6.7353  -11.4385   26.4265 S   0  0  0  0  0  0  0  0  0  0  0  0
    7.9050  -12.7836   25.9994 C   0  0  0  0  0  0  0  0  0  0  0  0
    7.4862  -13.4648   24.7314 C   0  0  0  0  0  0  0  0  0  0  0  0
    8.4261  -14.5416   24.3522 C   0  0  2  0  0  0  0  0  0  0  0  0
    7.9827  -15.2544   23.1548 N   0  0  0  0  0  0  0  0  0  0  0  0
    8.7072  -15.5161   25.4518 C   0  0  0  0  0  0  0  0  0  0  0  0
    7.8209  -16.2899   25.8884 O   0  0  0  0  0  0  0  0  0  0  0  0
   10.0214  -15.5330   25.9864 N   0  0  0  0  0  0  0  0  0  0  0  0
   10.4904  -16.4435   27.0085 C   0  0  1  0  0  0  0  0  0  0  0  0
   11.7419  -17.1129   26.6368 C   0  0  0  0  0  0  0  0  0  0  0  0
   11.8050  -17.6709   25.2789 C   0  0  0  0  0  0  0  0  0  0  0  0
   13.0932  -18.3948   24.9696 C   0  0  0  0  0  0  0  0  0  0  0  0
   13.0363  -19.0119   23.5692 C   0  0  0  0  0  0  0  0  0  0  0  0
   14.2772  -19.6468   23.2419 N   0  0  0  0  0  0  0  0  0  0  0  0
   10.1339  -16.1107   28.3558 C   0  0  0  0  0  0  0  0  0  0  0  0
   10.0872  -14.8647   28.6953 O   0  0  0  0  0  0  0  0  0  0  0  0
    9.8230  -16.9619   29.3855 O   0  0  0  0  0  0  0  0  0  0  0  0
  2  9  1  0
  2  1  1  6
  3  2  1  0
  4  3  1  0
  4  5  2  0
  6  5  1  0
  7  6  1  0
  8  7  2  0
  8  4  1  0
  9 16  1  0
 10  9  2  0
 12 11  1  0
 13 12  1  0
 14 13  1  0
 15 14  1  1
 16 15  1  0
 17 18  2  0
 17 15  1  0
 19 17  1  0
 20 19  1  0
 20 26  1  0
 20 21  1  1
 22 21  1  0
 23 22  1  0
 24 23  1  0
 24 25  1  0
 26 28  1  0
 27 26  2  0
M  END
$$$$
