HMK.pdb
     RDKit          3D

 28 28  0  0  1  0  0  0  0  0999 V2000
    7.5974  -15.7528   20.7442 N   0  0  0  0  0  0  0  0  0  0  0  0
    8.9764  -15.3254   21.0241 C   0  0  1  0  0  0  0  0  0  0  0  0
    9.0653  -13.9082   20.4411 C   0  0  0  0  0  0  0  0  0  0  0  0
    8.6873  -13.8574   19.0283 C   0  0  0  0  0  0  0  0  0  0  0  0
    7.6003  -13.2045   18.4949 C   0  0  0  0  0  0  0  0  0  0  0  0
    7.5783  -13.3833   17.1522 N   0  0  0  0  0  0  0  0  0  0  0  0
    8.6589  -14.1491   16.8714 C   0  0  0  0  0  0  0  0  0  0  0  0
    9.3265  -14.4326   18.0143 N   0  0  0  0  0  0  0  0  0  0  0  0
    9.1826  -15.1755   22.4785 C   0  0  0  0  0  0  0  0  0  0  0  0
   10.2952  -14.7253   22.8524 O   0  0  0  0  0  0  0  0  0  0  0  0
    6.3139  -10.8011   26.6994 C   0  0  0  0  0  0  0  0  0  0  0  0
    6.0959  -12.6056   26.6325 S   0  0  0  0  0  0  0  0  0  0  0  0
    7.4692  -13.3224   25.6525 C   0  0  0  0  0  0  0  0  0  0  0  0
    7.3920  -14.8195   25.6515 C   0  0  0  0  0  0  0  0  0  0  0  0
    8.5152  -15.4252   24.9045 C   0  0  2  0  0  0  0  0  0  0  0  0
    8.2406  -15.4937   23.4697 N   0  0  0  0  0  0  0  0  0  0  0  0
    8.9239  -16.7722   25.4110 C   0  0  0  0  0  0  0  0  0  0  0  0
    8.2232  -17.7929   25.2066 O   0  0  0  0  0  0  0  0  0  0  0  0
   10.1409  -16.8531   26.1360 N   0  0  0  0  0  0  0  0  0  0  0  0
   10.6426  -18.0445   26.7858 C   0  0  1  0  0  0  0  0  0  0  0  0
   11.7657  -18.6514   26.0626 C   0  0  0  0  0  0  0  0  0  0  0  0
   11.4525  -19.8282   25.2403 C   0  0  0  0  0  0  0  0  0  0  0  0
   12.6442  -20.4111   24.5197 C   0  0  0  0  0  0  0  0  0  0  0  0
   12.2003  -21.5246   23.5667 C   0  0  0  0  0  0  0  0  0  0  0  0
   13.3243  -22.0841   22.8788 N   0  0  0  0  0  0  0  0  0  0  0  0
   10.4924  -18.0922   28.2100 C   0  0  0  0  0  0  0  0  0  0  0  0
   10.3656  -16.9812   28.8578 O   0  0  0  0  0  0  0  0  0  0  0  0
   10.4648  -19.1964   29.0233 O   0  0  0  0  0  0  0  0  0  0  0  0
  2  9  1  0
  2  1  1  1
  3  2  1  0
  4  3  1  0
  4  5  2  0
  6  5  1  0
  7  6  1  0
  8  7  2  0
  8  4  1  0
  9 16  1  0
 10  9  2  0
 12 11  1  0
 13 12  1  0
 14 13  1  0
 15 14  1  1
 16 15  1  0
 17 18  2  0
 17 15  1  0
 19 17  1  0
 20 19  1  0
 20 26  1  0
 20 21  1  1
 22 21  1  0
 23 22  1  0
 24 23  1  0
 24 25  1  0
 26 28  1  0
 27 26  2  0
M  END
$$$$
