HMK.pdb
     RDKit          3D

 28 28  0  0  1  0  0  0  0  0999 V2000
   10.2482  -16.1846   20.3811 N   0  0  0  0  0  0  0  0  0  0  0  0
    8.8778  -15.9859   20.8766 C   0  0  1  0  0  0  0  0  0  0  0  0
    8.1925  -17.3432   20.6660 C   0  0  0  0  0  0  0  0  0  0  0  0
    7.8961  -17.6103   19.2581 C   0  0  0  0  0  0  0  0  0  0  0  0
    8.2335  -16.8173   18.1860 C   0  0  0  0  0  0  0  0  0  0  0  0
    7.7905  -17.3905   17.0411 N   0  0  0  0  0  0  0  0  0  0  0  0
    7.1813  -18.5376   17.4231 C   0  0  0  0  0  0  0  0  0  0  0  0
    7.2493  -18.6640   18.7691 N   0  0  0  0  0  0  0  0  0  0  0  0
    8.8867  -15.7620   22.3360 C   0  0  0  0  0  0  0  0  0  0  0  0
    9.8424  -16.2608   22.9827 O   0  0  0  0  0  0  0  0  0  0  0  0
    7.4928  -10.9613   27.6897 C   0  0  0  0  0  0  0  0  0  0  0  0
    6.2638  -12.0823   26.9539 S   0  0  0  0  0  0  0  0  0  0  0  0
    7.1118  -13.6279   26.4523 C   0  0  0  0  0  0  0  0  0  0  0  0
    7.0517  -13.8045   24.9648 C   0  0  0  0  0  0  0  0  0  0  0  0
    7.9096  -14.9199   24.5107 C   0  0  2  0  0  0  0  0  0  0  0  0
    7.9189  -15.0410   23.0533 N   0  0  0  0  0  0  0  0  0  0  0  0
    7.5686  -16.2382   25.1303 C   0  0  0  0  0  0  0  0  0  0  0  0
    6.6300  -16.9477   24.6941 O   0  0  0  0  0  0  0  0  0  0  0  0
    8.3509  -16.6590   26.2368 N   0  0  0  0  0  0  0  0  0  0  0  0
    8.8065  -18.0133   26.4643 C   0  0  1  0  0  0  0  0  0  0  0  0
    9.0585  -18.7413   25.2157 C   0  0  0  0  0  0  0  0  0  0  0  0
    8.2826  -19.9722   25.0102 C   0  0  0  0  0  0  0  0  0  0  0  0
    8.6023  -20.6943   23.7235 C   0  0  0  0  0  0  0  0  0  0  0  0
    7.8896  -22.0492   23.6799 C   0  0  0  0  0  0  0  0  0  0  0  0
    8.1752  -22.7354   22.4563 N   0  0  0  0  0  0  0  0  0  0  0  0
    9.5376  -18.2333   27.6769 C   0  0  0  0  0  0  0  0  0  0  0  0
   10.4990  -17.4236   27.9769 O   0  0  0  0  0  0  0  0  0  0  0  0
    9.3584  -19.2254   28.6070 O   0  0  0  0  0  0  0  0  0  0  0  0
  2  9  1  0
  2  1  1  1
  3  2  1  0
  4  3  1  0
  4  5  2  0
  6  5  1  0
  7  6  1  0
  8  7  2  0
  8  4  1  0
  9 16  1  0
 10  9  2  0
 12 11  1  0
 13 12  1  0
 14 13  1  0
 15 14  1  6
 16 15  1  0
 17 18  2  0
 17 15  1  0
 19 17  1  0
 20 19  1  0
 20 26  1  0
 20 21  1  6
 22 21  1  0
 23 22  1  0
 24 23  1  0
 24 25  1  0
 26 28  1  0
 27 26  2  0
M  END
$$$$
