HMK.pdb
     RDKit          3D

 28 28  0  0  1  0  0  0  0  0999 V2000
    7.3771  -15.5421   20.2944 N   0  0  0  0  0  0  0  0  0  0  0  0
    8.7821  -15.1907   20.5498 C   0  0  1  0  0  0  0  0  0  0  0  0
    8.9707  -13.8336   19.8578 C   0  0  0  0  0  0  0  0  0  0  0  0
    8.6408  -13.8791   18.4328 C   0  0  0  0  0  0  0  0  0  0  0  0
    7.4253  -13.5765   17.8642 C   0  0  0  0  0  0  0  0  0  0  0  0
    7.5016  -13.7347   16.5208 N   0  0  0  0  0  0  0  0  0  0  0  0
    8.7712  -14.1354   16.2752 C   0  0  0  0  0  0  0  0  0  0  0  0
    9.4560  -14.2207   17.4397 N   0  0  0  0  0  0  0  0  0  0  0  0
    8.9956  -14.9411   21.9894 C   0  0  0  0  0  0  0  0  0  0  0  0
   10.1602  -14.6308   22.3468 O   0  0  0  0  0  0  0  0  0  0  0  0
    6.7763  -10.7319   26.3224 C   0  0  0  0  0  0  0  0  0  0  0  0
    6.3598  -12.3300   27.0845 S   0  0  0  0  0  0  0  0  0  0  0  0
    7.5120  -13.6011   26.4393 C   0  0  0  0  0  0  0  0  0  0  0  0
    7.2425  -13.8711   24.9895 C   0  0  0  0  0  0  0  0  0  0  0  0
    8.2584  -14.7706   24.4020 C   0  0  2  0  0  0  0  0  0  0  0  0
    8.0075  -15.0222   22.9834 N   0  0  0  0  0  0  0  0  0  0  0  0
    8.4139  -16.0678   25.1308 C   0  0  0  0  0  0  0  0  0  0  0  0
    7.4562  -16.8680   25.2626 O   0  0  0  0  0  0  0  0  0  0  0  0
    9.6926  -16.3615   25.6712 N   0  0  0  0  0  0  0  0  0  0  0  0
   10.0348  -17.5741   26.3824 C   0  0  1  0  0  0  0  0  0  0  0  0
   11.2352  -18.2242   25.8447 C   0  0  0  0  0  0  0  0  0  0  0  0
   11.0636  -18.9816   24.5972 C   0  0  0  0  0  0  0  0  0  0  0  0
   12.3515  -19.5171   24.0195 C   0  0  0  0  0  0  0  0  0  0  0  0
   12.0909  -20.1966   22.6721 C   0  0  0  0  0  0  0  0  0  0  0  0
   13.3196  -20.6092   22.0640 N   0  0  0  0  0  0  0  0  0  0  0  0
    9.6542  -17.6196   27.7631 C   0  0  0  0  0  0  0  0  0  0  0  0
    9.8244  -16.5637   28.4884 O   0  0  0  0  0  0  0  0  0  0  0  0
    9.1128  -18.6702   28.4593 O   0  0  0  0  0  0  0  0  0  0  0  0
  2  9  1  0
  2  1  1  1
  3  2  1  0
  4  3  1  0
  4  5  2  0
  6  5  1  0
  7  6  1  0
  8  7  2  0
  8  4  1  0
  9 16  1  0
 10  9  2  0
 12 11  1  0
 13 12  1  0
 14 13  1  0
 15 14  1  1
 16 15  1  0
 17 18  2  0
 17 15  1  0
 19 17  1  0
 20 19  1  0
 20 26  1  0
 20 21  1  1
 22 21  1  0
 23 22  1  0
 24 23  1  0
 24 25  1  0
 26 28  1  0
 27 26  2  0
M  END
$$$$
