HMK.pdb
     RDKit          3D

 28 28  0  0  1  0  0  0  0  0999 V2000
   10.4924  -16.1234   19.9018 N   0  0  0  0  0  0  0  0  0  0  0  0
    9.2488  -16.2949   20.6679 C   0  0  1  0  0  0  0  0  0  0  0  0
    9.0224  -17.8128   20.6983 C   0  0  0  0  0  0  0  0  0  0  0  0
    8.4402  -18.3188   19.4547 C   0  0  0  0  0  0  0  0  0  0  0  0
    8.2061  -17.5968   18.3075 C   0  0  0  0  0  0  0  0  0  0  0  0
    7.6572  -18.4041   17.3680 N   0  0  0  0  0  0  0  0  0  0  0  0
    7.5588  -19.6221   17.9506 C   0  0  0  0  0  0  0  0  0  0  0  0
    8.0356  -19.5626   19.2160 N   0  0  0  0  0  0  0  0  0  0  0  0
    9.4515  -15.8904   22.0735 C   0  0  0  0  0  0  0  0  0  0  0  0
   10.5924  -16.0866   22.5634 O   0  0  0  0  0  0  0  0  0  0  0  0
    5.8555  -11.7295   26.5934 C   0  0  0  0  0  0  0  0  0  0  0  0
    7.6013  -12.2129   26.7567 S   0  0  0  0  0  0  0  0  0  0  0  0
    7.7520  -13.9956   26.3578 C   0  0  0  0  0  0  0  0  0  0  0  0
    7.5757  -14.2243   24.8867 C   0  0  0  0  0  0  0  0  0  0  0  0
    8.6751  -15.0369   24.3233 C   0  0  2  0  0  0  0  0  0  0  0  0
    8.4774  -15.3080   22.8999 N   0  0  0  0  0  0  0  0  0  0  0  0
    8.9207  -16.3170   25.0576 C   0  0  0  0  0  0  0  0  0  0  0  0
    8.1411  -17.2950   24.9549 O   0  0  0  0  0  0  0  0  0  0  0  0
   10.0751  -16.3845   25.8798 N   0  0  0  0  0  0  0  0  0  0  0  0
   10.5071  -17.5568   26.6097 C   0  0  1  0  0  0  0  0  0  0  0  0
   11.8367  -18.0201   26.1974 C   0  0  0  0  0  0  0  0  0  0  0  0
   12.3373  -19.2349   26.8554 C   0  0  0  0  0  0  0  0  0  0  0  0
   13.7125  -19.6600   26.4001 C   0  0  0  0  0  0  0  0  0  0  0  0
   14.1065  -20.9862   27.0568 C   0  0  0  0  0  0  0  0  0  0  0  0
   15.4738  -21.3061   26.7775 N   0  0  0  0  0  0  0  0  0  0  0  0
    9.9932  -17.6911   27.9406 C   0  0  0  0  0  0  0  0  0  0  0  0
    9.9188  -16.6380   28.6859 O   0  0  0  0  0  0  0  0  0  0  0  0
    9.5506  -18.8278   28.5679 O   0  0  0  0  0  0  0  0  0  0  0  0
  2  9  1  0
  2  1  1  6
  3  2  1  0
  4  3  1  0
  4  5  2  0
  6  5  1  0
  7  6  1  0
  8  7  2  0
  8  4  1  0
  9 16  1  0
 10  9  2  0
 12 11  1  0
 13 12  1  0
 14 13  1  0
 15 14  1  1
 16 15  1  0
 17 18  2  0
 17 15  1  0
 19 17  1  0
 20 19  1  0
 20 26  1  0
 20 21  1  1
 22 21  1  0
 23 22  1  0
 24 23  1  0
 24 25  1  0
 26 28  1  0
 27 26  2  0
M  END
$$$$
