GLF.pdb
     RDKit          3D

 24 24  0  0  1  0  0  0  0  0999 V2000
    6.9502  -19.8939   20.7898 N   0  0  0  0  0  0  0  0  0  0  0  0
    6.5714  -18.6429   21.3903 C   0  0  0  0  0  0  0  0  0  0  0  0
    7.7177  -17.6783   21.3905 C   0  0  0  0  0  0  0  0  0  0  0  0
    8.8666  -18.1044   21.1031 O   0  0  0  0  0  0  0  0  0  0  0  0
    7.0296  -12.2157   20.2137 C   0  0  0  0  0  0  0  0  0  0  0  0
    7.5114  -13.6419   20.3143 C   0  0  1  0  0  0  0  0  0  0  0  0
    8.5203  -13.8321   19.1711 C   0  0  0  0  0  0  0  0  0  0  0  0
    8.2319  -13.9479   21.5720 C   0  0  0  0  0  0  0  0  0  0  0  0
    8.5630  -15.3706   21.8439 C   0  0  2  0  0  0  0  0  0  0  0  0
    7.4947  -16.3105   21.7117 N   0  0  0  0  0  0  0  0  0  0  0  0
    9.1213  -15.4019   23.2508 C   0  0  0  0  0  0  0  0  0  0  0  0
   10.2395  -14.8692   23.4606 O   0  0  0  0  0  0  0  0  0  0  0  0
    8.4439  -15.9993   24.3262 N   0  0  0  0  0  0  0  0  0  0  0  0
    8.9747  -16.0541   25.6784 C   0  0  1  0  0  0  0  0  0  0  0  0
    7.8037  -15.6772   26.5955 C   0  0  0  0  0  0  0  0  0  0  0  0
    7.5926  -14.2271   26.4401 C   0  0  0  0  0  0  0  0  0  0  0  0
    8.6520  -13.3615   26.6110 C   0  0  0  0  0  0  0  0  0  0  0  0
    8.4966  -11.9977   26.4745 C   0  0  0  0  0  0  0  0  0  0  0  0
    7.2689  -11.4450   26.1601 C   0  0  0  0  0  0  0  0  0  0  0  0
    6.2219  -12.3316   25.9935 C   0  0  0  0  0  0  0  0  0  0  0  0
    6.3490  -13.6921   26.1235 C   0  0  0  0  0  0  0  0  0  0  0  0
    9.3898  -17.4088   26.0610 C   0  0  0  0  0  0  0  0  0  0  0  0
    9.2402  -18.4332   25.1379 O   0  0  0  0  0  0  0  0  0  0  0  0
    9.8690  -17.6742   27.1765 O   0  0  0  0  0  0  0  0  0  0  0  0
  1  2  1  0
  3  4  2  0
  3  2  1  0
  6  5  1  1
  6  8  1  0
  7  6  1  0
  9  8  1  1
  9 11  1  0
  9 10  1  0
 10  3  1  0
 11 12  2  0
 13 11  1  0
 13 14  1  0
 14 15  1  1
 14 22  1  0
 16 15  1  0
 17 16  2  0
 18 17  1  0
 19 20  1  0
 19 18  2  0
 20 21  2  0
 21 16  1  0
 22 24  2  0
 22 23  1  0
M  END
$$$$
