GLF.pdb
     RDKit          3D

 24 24  0  0  1  0  0  0  0  0999 V2000
    5.6210  -19.4263   21.5013 N   0  0  0  0  0  0  0  0  0  0  0  0
    5.5512  -18.0653   21.9616 C   0  0  0  0  0  0  0  0  0  0  0  0
    6.8492  -17.3533   21.7320 C   0  0  0  0  0  0  0  0  0  0  0  0
    7.8390  -18.0164   21.3261 O   0  0  0  0  0  0  0  0  0  0  0  0
    7.1365  -11.9384   20.2449 C   0  0  0  0  0  0  0  0  0  0  0  0
    7.3587  -13.4241   20.3846 C   0  0  1  0  0  0  0  0  0  0  0  0
    8.2060  -13.8435   19.1734 C   0  0  0  0  0  0  0  0  0  0  0  0
    8.1252  -13.8085   21.5927 C   0  0  0  0  0  0  0  0  0  0  0  0
    8.1886  -15.2532   21.9337 C   0  0  2  0  0  0  0  0  0  0  0  0
    6.9442  -15.9545   21.9729 N   0  0  0  0  0  0  0  0  0  0  0  0
    8.8788  -15.3289   23.2791 C   0  0  0  0  0  0  0  0  0  0  0  0
   10.0836  -14.9810   23.3517 O   0  0  0  0  0  0  0  0  0  0  0  0
    8.2304  -15.7701   24.4441 N   0  0  0  0  0  0  0  0  0  0  0  0
    8.9047  -15.9475   25.7197 C   0  0  1  0  0  0  0  0  0  0  0  0
    7.8400  -15.6708   26.7896 C   0  0  0  0  0  0  0  0  0  0  0  0
    7.5453  -14.2282   26.7320 C   0  0  0  0  0  0  0  0  0  0  0  0
    6.2722  -13.8043   26.4152 C   0  0  0  0  0  0  0  0  0  0  0  0
    5.9551  -12.4634   26.3508 C   0  0  0  0  0  0  0  0  0  0  0  0
    6.9047  -11.4904   26.6021 C   0  0  0  0  0  0  0  0  0  0  0  0
    8.1734  -11.9386   26.9174 C   0  0  0  0  0  0  0  0  0  0  0  0
    8.5155  -13.2660   26.9883 C   0  0  0  0  0  0  0  0  0  0  0  0
    9.3583  -17.3282   25.9245 C   0  0  0  0  0  0  0  0  0  0  0  0
   10.0906  -17.6228   27.0649 O   0  0  0  0  0  0  0  0  0  0  0  0
    9.1130  -18.2418   25.1186 O   0  0  0  0  0  0  0  0  0  0  0  0
  1  2  1  0
  3  4  2  0
  3  2  1  0
  6  5  1  1
  6  8  1  0
  7  6  1  0
  9  8  1  1
  9 11  1  0
  9 10  1  0
 10  3  1  0
 11 12  2  0
 13 11  1  0
 13 14  1  0
 14 15  1  1
 14 22  1  0
 16 15  1  0
 17 16  2  0
 18 17  1  0
 19 20  1  0
 19 18  2  0
 20 21  2  0
 21 16  1  0
 22 24  2  0
 22 23  1  0
M  END
$$$$
