GLF.pdb
     RDKit          3D

 24 24  0  0  1  0  0  0  0  0999 V2000
   12.5008  -17.6032   19.3799 N   0  0  0  0  0  0  0  0  0  0  0  0
   11.1645  -17.8175   19.8673 C   0  0  0  0  0  0  0  0  0  0  0  0
   10.7759  -16.7583   20.8529 C   0  0  0  0  0  0  0  0  0  0  0  0
   11.6533  -16.3094   21.6356 O   0  0  0  0  0  0  0  0  0  0  0  0
    6.1766  -13.3272   20.1026 C   0  0  0  0  0  0  0  0  0  0  0  0
    7.5740  -13.8221   20.3827 C   0  0  1  0  0  0  0  0  0  0  0  0
    8.4232  -12.5702   20.6515 C   0  0  0  0  0  0  0  0  0  0  0  0
    7.6813  -14.6752   21.5891 C   0  0  0  0  0  0  0  0  0  0  0  0
    8.9907  -15.3250   21.8551 C   0  0  2  0  0  0  0  0  0  0  0  0
    9.4366  -16.2800   20.8901 N   0  0  0  0  0  0  0  0  0  0  0  0
    8.8594  -15.9738   23.2167 C   0  0  0  0  0  0  0  0  0  0  0  0
    8.5039  -17.1774   23.2720 O   0  0  0  0  0  0  0  0  0  0  0  0
    9.1176  -15.2887   24.4152 N   0  0  0  0  0  0  0  0  0  0  0  0
    9.0666  -15.9162   25.7255 C   0  0  1  0  0  0  0  0  0  0  0  0
    9.2463  -14.7749   26.7353 C   0  0  0  0  0  0  0  0  0  0  0  0
    8.1588  -13.8124   26.4858 C   0  0  0  0  0  0  0  0  0  0  0  0
    8.1557  -13.0734   25.3219 C   0  0  0  0  0  0  0  0  0  0  0  0
    7.1565  -12.1621   25.0504 C   0  0  0  0  0  0  0  0  0  0  0  0
    6.1166  -11.9544   25.9376 C   0  0  0  0  0  0  0  0  0  0  0  0
    6.1404  -12.7060   27.0970 C   0  0  0  0  0  0  0  0  0  0  0  0
    7.1221  -13.6190   27.3918 C   0  0  0  0  0  0  0  0  0  0  0  0
    7.7595  -16.5227   26.0038 C   0  0  0  0  0  0  0  0  0  0  0  0
    6.7412  -16.3568   25.0768 O   0  0  0  0  0  0  0  0  0  0  0  0
    7.5290  -17.1775   27.0346 O   0  0  0  0  0  0  0  0  0  0  0  0
  1  2  1  0
  3  4  2  0
  3  2  1  0
  6  5  1  1
  6  8  1  0
  7  6  1  0
  9  8  1  6
  9 11  1  0
  9 10  1  0
 10  3  1  0
 11 12  2  0
 13 11  1  0
 13 14  1  0
 14 15  1  1
 14 22  1  0
 16 15  1  0
 17 16  2  0
 18 17  1  0
 19 20  1  0
 19 18  2  0
 20 21  2  0
 21 16  1  0
 22 24  2  0
 22 23  1  0
M  END
$$$$
