GLF.pdb
     RDKit          3D

 24 24  0  0  1  0  0  0  0  0999 V2000
    6.0719  -19.1392   20.2070 N   0  0  0  0  0  0  0  0  0  0  0  0
    6.0789  -18.2522   21.3395 C   0  0  0  0  0  0  0  0  0  0  0  0
    7.3483  -17.4582   21.3920 C   0  0  0  0  0  0  0  0  0  0  0  0
    8.4452  -18.0627   21.2687 O   0  0  0  0  0  0  0  0  0  0  0  0
    7.4752  -11.9488   20.0207 C   0  0  0  0  0  0  0  0  0  0  0  0
    7.7105  -13.4309   20.1768 C   0  0  1  0  0  0  0  0  0  0  0  0
    8.6905  -13.8261   19.0614 C   0  0  0  0  0  0  0  0  0  0  0  0
    8.3508  -13.8083   21.4583 C   0  0  0  0  0  0  0  0  0  0  0  0
    8.4722  -15.2572   21.7636 C   0  0  2  0  0  0  0  0  0  0  0  0
    7.2969  -16.0487   21.5781 N   0  0  0  0  0  0  0  0  0  0  0  0
    8.9401  -15.3375   23.2012 C   0  0  0  0  0  0  0  0  0  0  0  0
   10.0562  -14.8406   23.4936 O   0  0  0  0  0  0  0  0  0  0  0  0
    8.1813  -15.9417   24.2168 N   0  0  0  0  0  0  0  0  0  0  0  0
    8.6408  -16.0776   25.5892 C   0  0  1  0  0  0  0  0  0  0  0  0
    7.4102  -15.8036   26.4639 C   0  0  0  0  0  0  0  0  0  0  0  0
    7.2901  -14.3397   26.5809 C   0  0  0  0  0  0  0  0  0  0  0  0
    6.0561  -13.7426   26.4333 C   0  0  0  0  0  0  0  0  0  0  0  0
    5.9008  -12.3758   26.5354 C   0  0  0  0  0  0  0  0  0  0  0  0
    6.9799  -11.5499   26.7905 C   0  0  0  0  0  0  0  0  0  0  0  0
    8.2063  -12.1702   26.9347 C   0  0  0  0  0  0  0  0  0  0  0  0
    8.3886  -13.5272   26.8380 C   0  0  0  0  0  0  0  0  0  0  0  0
    9.0813  -17.4430   25.8982 C   0  0  0  0  0  0  0  0  0  0  0  0
    9.6519  -17.6907   27.1379 O   0  0  0  0  0  0  0  0  0  0  0  0
    8.9638  -18.3841   25.0952 O   0  0  0  0  0  0  0  0  0  0  0  0
  1  2  1  0
  3  4  2  0
  3  2  1  0
  6  5  1  1
  6  8  1  0
  7  6  1  0
  9  8  1  1
  9 11  1  0
  9 10  1  0
 10  3  1  0
 11 12  2  0
 13 11  1  0
 13 14  1  0
 14 15  1  1
 14 22  1  0
 16 15  1  0
 17 16  2  0
 18 17  1  0
 19 20  1  0
 19 18  2  0
 20 21  2  0
 21 16  1  0
 22 24  2  0
 22 23  1  0
M  END
$$$$
