GLF.pdb
     RDKit          3D

 24 24  0  0  1  0  0  0  0  0999 V2000
    5.2350  -18.6588   20.8764 N   0  0  0  0  0  0  0  0  0  0  0  0
    5.5643  -17.8498   22.0194 C   0  0  0  0  0  0  0  0  0  0  0  0
    6.9493  -17.2911   21.9010 C   0  0  0  0  0  0  0  0  0  0  0  0
    7.9093  -18.0863   21.7274 O   0  0  0  0  0  0  0  0  0  0  0  0
    6.5601  -13.8733   20.0369 C   0  0  0  0  0  0  0  0  0  0  0  0
    8.0140  -13.5197   20.2302 C   0  0  1  0  0  0  0  0  0  0  0  0
    8.0984  -11.9895   20.1194 C   0  0  0  0  0  0  0  0  0  0  0  0
    8.5501  -13.8792   21.5637 C   0  0  0  0  0  0  0  0  0  0  0  0
    8.4627  -15.3038   21.9764 C   0  0  2  0  0  0  0  0  0  0  0  0
    7.1579  -15.8864   21.9852 N   0  0  0  0  0  0  0  0  0  0  0  0
    9.0791  -15.3710   23.3576 C   0  0  0  0  0  0  0  0  0  0  0  0
   10.2773  -15.0192   23.4937 O   0  0  0  0  0  0  0  0  0  0  0  0
    8.3697  -15.8084   24.4880 N   0  0  0  0  0  0  0  0  0  0  0  0
    8.9445  -15.8712   25.8218 C   0  0  1  0  0  0  0  0  0  0  0  0
    7.7595  -15.7355   26.7871 C   0  0  0  0  0  0  0  0  0  0  0  0
    7.2808  -14.3461   26.6789 C   0  0  0  0  0  0  0  0  0  0  0  0
    8.1393  -13.3050   26.9616 C   0  0  0  0  0  0  0  0  0  0  0  0
    7.7307  -11.9905   26.8725 C   0  0  0  0  0  0  0  0  0  0  0  0
    6.4408  -11.6659   26.4951 C   0  0  0  0  0  0  0  0  0  0  0  0
    5.5983  -12.7253   26.2167 C   0  0  0  0  0  0  0  0  0  0  0  0
    5.9790  -14.0416   26.2974 C   0  0  0  0  0  0  0  0  0  0  0  0
    9.5681  -17.1701   26.1006 C   0  0  0  0  0  0  0  0  0  0  0  0
   10.2360  -17.3398   27.3043 O   0  0  0  0  0  0  0  0  0  0  0  0
    9.5217  -18.1220   25.3031 O   0  0  0  0  0  0  0  0  0  0  0  0
  1  2  1  0
  3  4  2  0
  3  2  1  0
  6  5  1  1
  6  8  1  0
  7  6  1  0
  9  8  1  1
  9 11  1  0
  9 10  1  0
 10  3  1  0
 11 12  2  0
 13 11  1  0
 13 14  1  0
 14 15  1  1
 14 22  1  0
 16 15  1  0
 17 16  2  0
 18 17  1  0
 19 20  1  0
 19 18  2  0
 20 21  2  0
 21 16  1  0
 22 24  2  0
 22 23  1  0
M  END
$$$$
