KFM.pdb
     RDKit          3D

 29 29  0  0  1  0  0  0  0  0999 V2000
   -2.5259  -27.7692   26.1758 N   0  0  0  0  0  0  0  0  0  0  0  0
   -2.9879  -28.4326   27.3820 C   0  0  1  0  0  0  0  0  0  0  0  0
   -1.8675  -29.1813   28.0587 C   0  0  0  0  0  0  0  0  0  0  0  0
   -0.6696  -29.3044   27.1361 C   0  0  0  0  0  0  0  0  0  0  0  0
    0.5893  -28.7932   27.7918 C   0  0  0  0  0  0  0  0  0  0  0  0
    1.7968  -28.9683   26.9127 C   0  0  0  0  0  0  0  0  0  0  0  0
    2.9465  -28.2950   27.5115 N   0  0  0  0  0  0  0  0  0  0  0  0
   -3.5498  -27.3890   28.3114 C   0  0  0  0  0  0  0  0  0  0  0  0
   -3.4179  -27.5355   29.5477 O   0  0  0  0  0  0  0  0  0  0  0  0
   -4.2273  -26.2447   27.8007 N   0  0  0  0  0  0  0  0  0  0  0  0
   -4.7533  -25.2014   28.6115 C   0  0  1  0  0  0  0  0  0  0  0  0
   -4.6447  -23.8183   28.0944 C   0  0  0  0  0  0  0  0  0  0  0  0
   -5.1459  -22.7364   28.9287 C   0  0  0  0  0  0  0  0  0  0  0  0
   -4.3135  -21.9535   29.7179 C   0  0  0  0  0  0  0  0  0  0  0  0
   -4.8539  -20.9393   30.4800 C   0  0  0  0  0  0  0  0  0  0  0  0
   -6.2076  -20.6725   30.4891 C   0  0  0  0  0  0  0  0  0  0  0  0
   -7.0261  -21.4397   29.7160 C   0  0  0  0  0  0  0  0  0  0  0  0
   -6.4888  -22.4573   28.9486 C   0  0  0  0  0  0  0  0  0  0  0  0
   -6.1460  -25.5049   29.1084 C   0  0  0  0  0  0  0  0  0  0  0  0
   -7.0625  -25.6674   28.3151 O   0  0  0  0  0  0  0  0  0  0  0  0
   -5.5900  -29.6278   31.7077 C   0  0  0  0  0  0  0  0  0  0  0  0
   -7.3567  -29.6516   32.1160 S   0  0  0  0  0  0  0  0  0  0  0  0
   -8.2091  -28.1927   31.4723 C   0  0  0  0  0  0  0  0  0  0  0  0
   -7.7404  -26.9014   32.1232 C   0  0  0  0  0  0  0  0  0  0  0  0
   -7.6626  -25.7845   31.1046 C   0  0  2  0  0  0  0  0  0  0  0  0
   -6.3618  -25.5906   30.5370 N   0  0  0  0  0  0  0  0  0  0  0  0
   -8.1860  -24.5039   31.6906 C   0  0  0  0  0  0  0  0  0  0  0  0
   -7.6346  -23.9040   32.6463 O   0  0  0  0  0  0  0  0  0  0  0  0
   -9.3467  -23.8765   31.2094 O   0  0  0  0  0  0  0  0  0  0  0  0
  2  3  1  0
  2  1  1  6
  4  5  1  0
  4  3  1  0
  6  5  1  0
  7  6  1  0
  8 10  1  0
  8  2  1  0
  9  8  2  0
 11 10  1  0
 11 12  1  6
 13 12  1  0
 13 14  2  0
 15 14  1  0
 16 15  2  0
 17 18  2  0
 17 16  1  0
 18 13  1  0
 19 26  1  0
 19 11  1  0
 20 19  2  0
 21 22  1  0
 22 23  1  0
 23 24  1  0
 25 24  1  1
 25 27  1  0
 25 26  1  0
 27 29  1  0
 28 27  2  0
M  END
$$$$
