KFM.pdb
     RDKit          3D

 29 29  0  0  1  0  0  0  0  0999 V2000
    8.9270  -18.1441   20.9568 N   0  0  0  0  0  0  0  0  0  0  0  0
   10.2072  -17.4844   21.1425 C   0  0  1  0  0  0  0  0  0  0  0  0
   10.7299  -16.9272   19.8425 C   0  0  0  0  0  0  0  0  0  0  0  0
   11.0838  -18.0467   18.8820 C   0  0  0  0  0  0  0  0  0  0  0  0
   10.6098  -17.7457   17.4817 C   0  0  0  0  0  0  0  0  0  0  0  0
   11.0395  -18.8002   16.4994 C   0  0  0  0  0  0  0  0  0  0  0  0
   10.5047  -18.4907   15.1758 N   0  0  0  0  0  0  0  0  0  0  0  0
   10.0281  -16.3763   22.1470 C   0  0  0  0  0  0  0  0  0  0  0  0
   10.9872  -15.6090   22.3893 O   0  0  0  0  0  0  0  0  0  0  0  0
    8.7864  -16.1951   22.8210 N   0  0  0  0  0  0  0  0  0  0  0  0
    8.5947  -15.3061   23.9144 C   0  0  1  0  0  0  0  0  0  0  0  0
    7.3273  -14.5420   23.9551 C   0  0  0  0  0  0  0  0  0  0  0  0
    7.1176  -13.6265   25.0668 C   0  0  0  0  0  0  0  0  0  0  0  0
    7.7347  -12.3845   25.1393 C   0  0  0  0  0  0  0  0  0  0  0  0
    7.4864  -11.5629   26.2186 C   0  0  0  0  0  0  0  0  0  0  0  0
    6.6393  -11.9351   27.2420 C   0  0  0  0  0  0  0  0  0  0  0  0
    6.0332  -13.1533   27.1731 C   0  0  0  0  0  0  0  0  0  0  0  0
    6.2777  -13.9806   26.0920 C   0  0  0  0  0  0  0  0  0  0  0  0
    8.9002  -15.9537   25.2434 C   0  0  0  0  0  0  0  0  0  0  0  0
    8.2601  -16.9262   25.6176 O   0  0  0  0  0  0  0  0  0  0  0  0
   14.0897  -16.6897   24.8314 C   0  0  0  0  0  0  0  0  0  0  0  0
   12.5974  -17.7189   24.7882 S   0  0  0  0  0  0  0  0  0  0  0  0
   11.8492  -17.8770   26.4267 C   0  0  0  0  0  0  0  0  0  0  0  0
   11.8209  -16.5630   27.1906 C   0  0  0  0  0  0  0  0  0  0  0  0
   10.4121  -16.0139   27.2617 C   0  0  2  0  0  0  0  0  0  0  0  0
    9.9582  -15.3904   26.0545 N   0  0  0  0  0  0  0  0  0  0  0  0
   10.2723  -15.0802   28.4303 C   0  0  0  0  0  0  0  0  0  0  0  0
   10.2292  -13.8302   28.3161 O   0  0  0  0  0  0  0  0  0  0  0  0
   10.1816  -15.5412   29.7538 O   0  0  0  0  0  0  0  0  0  0  0  0
  2  3  1  0
  2  1  1  6
  4  5  1  0
  4  3  1  0
  6  5  1  0
  7  6  1  0
  8 10  1  0
  8  2  1  0
  9  8  2  0
 11 10  1  0
 11 12  1  1
 13 12  1  0
 13 14  2  0
 15 14  1  0
 16 15  2  0
 17 18  2  0
 17 16  1  0
 18 13  1  0
 19 26  1  0
 19 11  1  0
 20 19  2  0
 21 22  1  0
 22 23  1  0
 23 24  1  0
 25 24  1  6
 25 27  1  0
 25 26  1  0
 27 29  1  0
 28 27  2  0
M  END
$$$$
