KFM.pdb
     RDKit          3D

 29 29  0  0  1  0  0  0  0  0999 V2000
    9.8855  -17.1589   18.5291 N   0  0  0  0  0  0  0  0  0  0  0  0
    9.4463  -17.6982   19.8038 C   0  0  1  0  0  0  0  0  0  0  0  0
   10.3214  -18.8445   20.2442 C   0  0  0  0  0  0  0  0  0  0  0  0
   11.7642  -18.6041   19.8421 C   0  0  0  0  0  0  0  0  0  0  0  0
   12.6175  -19.8245   20.0847 C   0  0  0  0  0  0  0  0  0  0  0  0
   14.0433  -19.6127   19.6563 C   0  0  0  0  0  0  0  0  0  0  0  0
   14.8253  -20.8165   19.9274 N   0  0  0  0  0  0  0  0  0  0  0  0
    9.4869  -16.5924   20.8256 C   0  0  0  0  0  0  0  0  0  0  0  0
   10.3609  -15.7012   20.7287 O   0  0  0  0  0  0  0  0  0  0  0  0
    8.5476  -16.5518   21.8957 N   0  0  0  0  0  0  0  0  0  0  0  0
    8.4852  -15.5113   22.8632 C   0  0  1  0  0  0  0  0  0  0  0  0
    7.1715  -15.2461   23.4924 C   0  0  0  0  0  0  0  0  0  0  0  0
    7.0697  -14.1233   24.4126 C   0  0  0  0  0  0  0  0  0  0  0  0
    7.6737  -12.8973   24.1662 C   0  0  0  0  0  0  0  0  0  0  0  0
    7.5314  -11.8726   25.0779 C   0  0  0  0  0  0  0  0  0  0  0  0
    6.8044  -12.0236   26.2409 C   0  0  0  0  0  0  0  0  0  0  0  0
    6.2115  -13.2257   26.4849 C   0  0  0  0  0  0  0  0  0  0  0  0
    6.3499  -14.2562   25.5728 C   0  0  0  0  0  0  0  0  0  0  0  0
    9.5868  -15.6132   23.8902 C   0  0  0  0  0  0  0  0  0  0  0  0
   10.5489  -14.8599   23.8400 O   0  0  0  0  0  0  0  0  0  0  0  0
    9.5748  -13.4671   29.6006 C   0  0  0  0  0  0  0  0  0  0  0  0
   11.2373  -14.0146   29.1264 S   0  0  0  0  0  0  0  0  0  0  0  0
   11.1831  -15.5205   28.1271 C   0  0  0  0  0  0  0  0  0  0  0  0
   10.3031  -15.3791   26.8957 C   0  0  0  0  0  0  0  0  0  0  0  0
   10.3311  -16.6461   26.0678 C   0  0  2  0  0  0  0  0  0  0  0  0
    9.4732  -16.6228   24.9210 N   0  0  0  0  0  0  0  0  0  0  0  0
   10.0385  -17.8414   26.9297 C   0  0  0  0  0  0  0  0  0  0  0  0
    8.9331  -18.4375   26.9339 O   0  0  0  0  0  0  0  0  0  0  0  0
   10.9899  -18.3856   27.8078 O   0  0  0  0  0  0  0  0  0  0  0  0
  2  3  1  0
  2  1  1  6
  4  5  1  0
  4  3  1  0
  6  5  1  0
  7  6  1  0
  8 10  1  0
  8  2  1  0
  9  8  2  0
 11 10  1  0
 11 12  1  1
 13 12  1  0
 13 14  2  0
 15 14  1  0
 16 15  2  0
 17 18  2  0
 17 16  1  0
 18 13  1  0
 19 26  1  0
 19 11  1  0
 20 19  2  0
 21 22  1  0
 22 23  1  0
 23 24  1  0
 25 24  1  1
 25 27  1  0
 25 26  1  0
 27 29  1  0
 28 27  2  0
M  END
$$$$
