KFM.pdb
     RDKit          3D

 29 29  0  0  1  0  0  0  0  0999 V2000
    9.0602  -18.4401   20.2461 N   0  0  0  0  0  0  0  0  0  0  0  0
   10.2556  -17.6161   20.2712 C   0  0  1  0  0  0  0  0  0  0  0  0
   10.5083  -16.9767   18.9291 C   0  0  0  0  0  0  0  0  0  0  0  0
   10.3562  -17.9927   17.8129 C   0  0  0  0  0  0  0  0  0  0  0  0
    9.0416  -17.8295   17.0909 C   0  0  0  0  0  0  0  0  0  0  0  0
    8.9661  -18.6799   15.8529 C   0  0  0  0  0  0  0  0  0  0  0  0
    7.6078  -18.6527   15.3160 N   0  0  0  0  0  0  0  0  0  0  0  0
   10.0783  -16.5555   21.3258 C   0  0  0  0  0  0  0  0  0  0  0  0
   10.9612  -15.6793   21.4672 O   0  0  0  0  0  0  0  0  0  0  0  0
    8.9237  -16.5406   22.1599 N   0  0  0  0  0  0  0  0  0  0  0  0
    8.6862  -15.5742   23.1759 C   0  0  1  0  0  0  0  0  0  0  0  0
    7.3392  -14.9622   23.2302 C   0  0  0  0  0  0  0  0  0  0  0  0
    7.0688  -14.0000   24.2881 C   0  0  0  0  0  0  0  0  0  0  0  0
    6.3411  -14.3242   25.4256 C   0  0  0  0  0  0  0  0  0  0  0  0
    6.1272  -13.3653   26.3933 C   0  0  0  0  0  0  0  0  0  0  0  0
    6.6134  -12.0800   26.2699 C   0  0  0  0  0  0  0  0  0  0  0  0
    7.3271  -11.7597   25.1545 C   0  0  0  0  0  0  0  0  0  0  0  0
    7.5458  -12.7182   24.1816 C   0  0  0  0  0  0  0  0  0  0  0  0
    9.1419  -16.0448   24.5360 C   0  0  0  0  0  0  0  0  0  0  0  0
    8.4371  -15.8655   25.5192 O   0  0  0  0  0  0  0  0  0  0  0  0
    9.1728  -13.1160   29.1585 C   0  0  0  0  0  0  0  0  0  0  0  0
   10.4685  -14.3190   28.7557 S   0  0  0  0  0  0  0  0  0  0  0  0
    9.9765  -15.3958   27.3889 C   0  0  0  0  0  0  0  0  0  0  0  0
   11.0503  -16.4061   27.0189 C   0  0  0  0  0  0  0  0  0  0  0  0
   11.4355  -16.2702   25.5614 C   0  0  2  0  0  0  0  0  0  0  0  0
   10.4273  -16.7018   24.6400 N   0  0  0  0  0  0  0  0  0  0  0  0
   12.7372  -16.9719   25.2961 C   0  0  0  0  0  0  0  0  0  0  0  0
   12.8352  -18.0037   24.5869 O   0  0  0  0  0  0  0  0  0  0  0  0
   13.9556  -16.5225   25.8307 O   0  0  0  0  0  0  0  0  0  0  0  0
  2  3  1  0
  2  1  1  6
  4  5  1  0
  4  3  1  0
  6  5  1  0
  7  6  1  0
  8 10  1  0
  8  2  1  0
  9  8  2  0
 11 10  1  0
 11 12  1  1
 13 12  1  0
 13 14  2  0
 15 14  1  0
 16 15  2  0
 17 18  2  0
 17 16  1  0
 18 13  1  0
 19 26  1  0
 19 11  1  0
 20 19  2  0
 21 22  1  0
 22 23  1  0
 23 24  1  0
 25 24  1  1
 25 27  1  0
 25 26  1  0
 27 29  1  0
 28 27  2  0
M  END
$$$$
