KFM.pdb
     RDKit          3D

 29 29  0  0  1  0  0  0  0  0999 V2000
    8.4947  -18.0048   20.6982 N   0  0  0  0  0  0  0  0  0  0  0  0
    9.8355  -17.4874   20.9061 C   0  0  1  0  0  0  0  0  0  0  0  0
   10.4071  -16.9194   19.6316 C   0  0  0  0  0  0  0  0  0  0  0  0
   10.6189  -18.0143   18.6032 C   0  0  0  0  0  0  0  0  0  0  0  0
   11.9425  -17.8608   17.8955 C   0  0  0  0  0  0  0  0  0  0  0  0
   12.0688  -18.7933   16.7224 C   0  0  0  0  0  0  0  0  0  0  0  0
   13.2306  -18.4222   15.9184 N   0  0  0  0  0  0  0  0  0  0  0  0
    9.7725  -16.4201   21.9671 C   0  0  0  0  0  0  0  0  0  0  0  0
   10.8129  -15.7905   22.2643 O   0  0  0  0  0  0  0  0  0  0  0  0
    8.5486  -16.1232   22.6327 N   0  0  0  0  0  0  0  0  0  0  0  0
    8.4473  -15.2925   23.7826 C   0  0  1  0  0  0  0  0  0  0  0  0
    7.2140  -14.4872   23.9329 C   0  0  0  0  0  0  0  0  0  0  0  0
    7.1064  -13.6133   25.0915 C   0  0  0  0  0  0  0  0  0  0  0  0
    6.3712  -13.9539   26.2193 C   0  0  0  0  0  0  0  0  0  0  0  0
    6.3166  -13.0813   27.2857 C   0  0  0  0  0  0  0  0  0  0  0  0
    6.9716  -11.8671   27.2719 C   0  0  0  0  0  0  0  0  0  0  0  0
    7.6931  -11.5307   26.1663 C   0  0  0  0  0  0  0  0  0  0  0  0
    7.7522  -12.4030   25.0945 C   0  0  0  0  0  0  0  0  0  0  0  0
    8.7947  -16.0262   25.0553 C   0  0  0  0  0  0  0  0  0  0  0  0
    8.0409  -16.8800   25.5008 O   0  0  0  0  0  0  0  0  0  0  0  0
   13.4957  -15.9108   23.6681 C   0  0  0  0  0  0  0  0  0  0  0  0
   13.7590  -17.3866   24.6885 S   0  0  0  0  0  0  0  0  0  0  0  0
   12.2959  -17.7855   25.6732 C   0  0  0  0  0  0  0  0  0  0  0  0
   12.0151  -16.7555   26.7553 C   0  0  0  0  0  0  0  0  0  0  0  0
   10.5351  -16.4476   26.8319 C   0  0  2  0  0  0  0  0  0  0  0  0
   10.0307  -15.6872   25.7277 N   0  0  0  0  0  0  0  0  0  0  0  0
   10.2064  -15.7780   28.1361 C   0  0  0  0  0  0  0  0  0  0  0  0
    9.7195  -14.6232   28.2177 O   0  0  0  0  0  0  0  0  0  0  0  0
   10.4247  -16.4001   29.3761 O   0  0  0  0  0  0  0  0  0  0  0  0
  2  3  1  0
  2  1  1  6
  4  5  1  0
  4  3  1  0
  6  5  1  0
  7  6  1  0
  8 10  1  0
  8  2  1  0
  9  8  2  0
 11 10  1  0
 11 12  1  1
 13 12  1  0
 13 14  2  0
 15 14  1  0
 16 15  2  0
 17 18  2  0
 17 16  1  0
 18 13  1  0
 19 26  1  0
 19 11  1  0
 20 19  2  0
 21 22  1  0
 22 23  1  0
 23 24  1  0
 25 24  1  6
 25 27  1  0
 25 26  1  0
 27 29  1  0
 28 27  2  0
M  END
$$$$
