KFM.pdb
     RDKit          3D

 29 29  0  0  1  0  0  0  0  0999 V2000
    9.9264  -17.4565   18.5462 N   0  0  0  0  0  0  0  0  0  0  0  0
    9.3433  -18.0278   19.7471 C   0  0  1  0  0  0  0  0  0  0  0  0
   10.0831  -19.2692   20.1780 C   0  0  0  0  0  0  0  0  0  0  0  0
   10.1569  -20.2719   19.0421 C   0  0  0  0  0  0  0  0  0  0  0  0
   10.8664  -21.5350   19.4635 C   0  0  0  0  0  0  0  0  0  0  0  0
   10.9749  -22.5260   18.3376 C   0  0  0  0  0  0  0  0  0  0  0  0
    9.8014  -23.3959   18.3294 N   0  0  0  0  0  0  0  0  0  0  0  0
    9.3923  -16.9902   20.8377 C   0  0  0  0  0  0  0  0  0  0  0  0
   10.4717  -16.4019   21.0748 O   0  0  0  0  0  0  0  0  0  0  0  0
    8.2301  -16.6747   21.5986 N   0  0  0  0  0  0  0  0  0  0  0  0
    8.2132  -15.7583   22.6860 C   0  0  1  0  0  0  0  0  0  0  0  0
    6.9402  -15.0547   22.9622 C   0  0  0  0  0  0  0  0  0  0  0  0
    6.9154  -14.0911   24.0525 C   0  0  0  0  0  0  0  0  0  0  0  0
    7.4351  -12.8092   23.9295 C   0  0  0  0  0  0  0  0  0  0  0  0
    7.3730  -11.9435   25.0010 C   0  0  0  0  0  0  0  0  0  0  0  0
    6.8088  -12.3096   26.2057 C   0  0  0  0  0  0  0  0  0  0  0  0
    6.2988  -13.5670   26.3287 C   0  0  0  0  0  0  0  0  0  0  0  0
    6.3573  -14.4387   25.2565 C   0  0  0  0  0  0  0  0  0  0  0  0
    8.8124  -16.3438   23.9417 C   0  0  0  0  0  0  0  0  0  0  0  0
    8.2884  -17.3059   24.4851 O   0  0  0  0  0  0  0  0  0  0  0  0
   10.8664  -14.4604   30.8648 C   0  0  0  0  0  0  0  0  0  0  0  0
   10.0852  -14.1324   29.2615 S   0  0  0  0  0  0  0  0  0  0  0  0
    9.9286  -15.6400   28.2757 C   0  0  0  0  0  0  0  0  0  0  0  0
    9.4371  -15.3715   26.8625 C   0  0  0  0  0  0  0  0  0  0  0  0
   10.4146  -15.9144   25.8422 C   0  0  2  0  0  0  0  0  0  0  0  0
   10.0096  -15.7340   24.4801 N   0  0  0  0  0  0  0  0  0  0  0  0
   10.7161  -17.3592   26.1229 C   0  0  0  0  0  0  0  0  0  0  0  0
   10.0468  -18.0639   26.9183 O   0  0  0  0  0  0  0  0  0  0  0  0
   11.7838  -18.0365   25.5115 O   0  0  0  0  0  0  0  0  0  0  0  0
  2  3  1  0
  2  1  1  6
  4  5  1  0
  4  3  1  0
  6  5  1  0
  7  6  1  0
  8 10  1  0
  8  2  1  0
  9  8  2  0
 11 10  1  0
 11 12  1  1
 13 12  1  0
 13 14  2  0
 15 14  1  0
 16 15  2  0
 17 18  2  0
 17 16  1  0
 18 13  1  0
 19 26  1  0
 19 11  1  0
 20 19  2  0
 21 22  1  0
 22 23  1  0
 23 24  1  0
 25 24  1  1
 25 27  1  0
 25 26  1  0
 27 29  1  0
 28 27  2  0
M  END
$$$$
