KFM.pdb
     RDKit          3D

 29 29  0  0  1  0  0  0  0  0999 V2000
    9.2504  -19.0099   20.2342 N   0  0  0  0  0  0  0  0  0  0  0  0
   10.4760  -18.3318   19.8513 C   0  0  1  0  0  0  0  0  0  0  0  0
   10.3934  -17.8064   18.4403 C   0  0  0  0  0  0  0  0  0  0  0  0
   10.5044  -18.9395   17.4379 C   0  0  0  0  0  0  0  0  0  0  0  0
   10.5887  -18.4214   16.0234 C   0  0  0  0  0  0  0  0  0  0  0  0
   10.6132  -19.5349   15.0130 C   0  0  0  0  0  0  0  0  0  0  0  0
   10.8568  -18.9884   13.6804 N   0  0  0  0  0  0  0  0  0  0  0  0
   10.7109  -17.1976   20.8141 C   0  0  0  0  0  0  0  0  0  0  0  0
   11.7896  -16.5643   20.7624 O   0  0  0  0  0  0  0  0  0  0  0  0
    9.7245  -16.8417   21.7783 N   0  0  0  0  0  0  0  0  0  0  0  0
    9.8923  -15.8170   22.7501 C   0  0  1  0  0  0  0  0  0  0  0  0
    8.7321  -14.9371   23.0172 C   0  0  0  0  0  0  0  0  0  0  0  0
    8.0763  -14.3083   21.8804 C   0  0  0  0  0  0  0  0  0  0  0  0
    6.9011  -14.8012   21.3284 C   0  0  0  0  0  0  0  0  0  0  0  0
    6.3284  -14.1523   20.2549 C   0  0  0  0  0  0  0  0  0  0  0  0
    6.8882  -13.0192   19.7013 C   0  0  0  0  0  0  0  0  0  0  0  0
    8.0413  -12.5342   20.2410 C   0  0  0  0  0  0  0  0  0  0  0  0
    8.6190  -13.1806   21.3187 C   0  0  0  0  0  0  0  0  0  0  0  0
   10.5104  -16.3309   24.0278 C   0  0  0  0  0  0  0  0  0  0  0  0
   11.7158  -16.5261   24.0954 O   0  0  0  0  0  0  0  0  0  0  0  0
    9.9849  -12.6258   29.2353 C   0  0  0  0  0  0  0  0  0  0  0  0
    9.5710  -13.8347   27.9487 S   0  0  0  0  0  0  0  0  0  0  0  0
    9.5887  -15.5246   28.5917 C   0  0  0  0  0  0  0  0  0  0  0  0
    9.1083  -16.5470   27.5745 C   0  0  0  0  0  0  0  0  0  0  0  0
   10.1425  -16.7497   26.4880 C   0  0  2  0  0  0  0  0  0  0  0  0
    9.6410  -16.5884   25.1559 N   0  0  0  0  0  0  0  0  0  0  0  0
   10.8153  -18.0835   26.6476 C   0  0  0  0  0  0  0  0  0  0  0  0
   11.6297  -18.3422   27.5679 O   0  0  0  0  0  0  0  0  0  0  0  0
   10.5829  -19.1525   25.7667 O   0  0  0  0  0  0  0  0  0  0  0  0
  2  3  1  0
  2  1  1  1
  4  5  1  0
  4  3  1  0
  6  5  1  0
  7  6  1  0
  8 10  1  0
  8  2  1  0
  9  8  2  0
 11 10  1  0
 11 12  1  1
 13 12  1  0
 13 14  2  0
 15 14  1  0
 16 15  2  0
 17 18  2  0
 17 16  1  0
 18 13  1  0
 19 26  1  0
 19 11  1  0
 20 19  2  0
 21 22  1  0
 22 23  1  0
 23 24  1  0
 25 24  1  1
 25 27  1  0
 25 26  1  0
 27 29  1  0
 28 27  2  0
M  END
$$$$
