PQR.pdb
     RDKit          3D

 28 28  0  0  1  0  0  0  0  0999 V2000
    9.2983  -14.7416   17.9174 N   0  0  0  0  0  0  0  0  0  0  0  0
    8.9946  -13.7529   16.9103 C   0  0  0  0  0  0  0  0  0  0  0  0
    7.6880  -13.1099   17.3079 C   0  0  0  0  0  0  0  0  0  0  0  0
    7.3385  -13.7762   18.6431 C   0  0  0  0  0  0  0  0  0  0  0  0
    8.7235  -14.1865   19.1098 C   0  0  1  0  0  0  0  0  0  0  0  0
    8.6698  -15.1844   20.2113 C   0  0  0  0  0  0  0  0  0  0  0  0
    8.1130  -14.8382   21.2829 O   0  0  0  0  0  0  0  0  0  0  0  0
   11.6548  -20.9268   20.2443 N   0  0  0  0  0  0  0  0  0  0  0  0
   11.0599  -20.7775   21.5471 C   0  0  0  0  0  0  0  0  0  0  0  0
   11.2210  -21.7146   22.3601 O   0  0  0  0  0  0  0  0  0  0  0  0
   10.3001  -19.5722   21.8938 C   0  0  0  0  0  0  0  0  0  0  0  0
   10.1384  -18.5705   20.8084 C   0  0  0  0  0  0  0  0  0  0  0  0
    9.3170  -17.3692   21.1451 C   0  0  2  0  0  0  0  0  0  0  0  0
    9.2411  -16.4679   20.0094 N   0  0  0  0  0  0  0  0  0  0  0  0
   10.0545  -16.6294   22.2335 C   0  0  0  0  0  0  0  0  0  0  0  0
   10.8169  -15.6731   21.9502 O   0  0  0  0  0  0  0  0  0  0  0  0
    4.4922  -12.2024   26.5683 N   0  0  0  0  0  0  0  0  0  0  0  0
    5.7933  -11.7754   26.9452 C   0  0  0  0  0  0  0  0  0  0  0  0
    6.0307  -10.5899   27.4073 N   0  0  0  0  0  0  0  0  0  0  0  0
    6.9365  -12.6134   26.8464 N   0  0  0  0  0  0  0  0  0  0  0  0
    7.1623  -13.5031   25.7841 C   0  0  0  0  0  0  0  0  0  0  0  0
    8.3062  -14.4312   25.8762 C   0  0  0  0  0  0  0  0  0  0  0  0
    8.4221  -15.3297   24.6696 C   0  0  0  0  0  0  0  0  0  0  0  0
    9.7314  -16.0666   24.6795 C   0  0  2  0  0  0  0  0  0  0  0  0
    9.9066  -16.9943   23.5991 N   0  0  0  0  0  0  0  0  0  0  0  0
    9.9500  -16.7778   25.9660 C   0  0  0  0  0  0  0  0  0  0  0  0
   10.2781  -16.1028   27.1387 O   0  0  0  0  0  0  0  0  0  0  0  0
    9.8337  -18.0198   25.9866 O   0  0  0  0  0  0  0  0  0  0  0  0
  1  2  1  0
  3  2  1  0
  4  5  1  0
  4  3  1  0
  5  1  1  0
  6  7  2  0
  5  6  1  1
  9  8  1  0
 10  9  2  0
 11  9  1  0
 13 12  1  6
 12 11  1  0
 13 14  1  0
 14  6  1  0
 15 25  1  0
 15 13  1  0
 16 15  2  0
 18 19  2  0
 18 17  1  0
 20 18  1  0
 21 20  1  0
 22 21  1  0
 24 23  1  1
 23 22  1  0
 24 25  1  0
 26 24  1  0
 27 26  1  0
 28 26  2  0
M  END
$$$$
