PQR.pdb
     RDKit          3D

 28 28  0  0  1  0  0  0  0  0999 V2000
    8.3132  -15.1628   18.0972 N   0  0  0  0  0  0  0  0  0  0  0  0
    8.5547  -14.3703   16.9149 C   0  0  0  0  0  0  0  0  0  0  0  0
    7.9517  -13.0099   17.1689 C   0  0  0  0  0  0  0  0  0  0  0  0
    7.4237  -13.1010   18.6047 C   0  0  0  0  0  0  0  0  0  0  0  0
    8.3252  -14.1917   19.1543 C   0  0  1  0  0  0  0  0  0  0  0  0
    7.8059  -14.7578   20.4278 C   0  0  0  0  0  0  0  0  0  0  0  0
    7.8150  -14.0148   21.4408 O   0  0  0  0  0  0  0  0  0  0  0  0
    5.3673  -20.7019   21.2757 N   0  0  0  0  0  0  0  0  0  0  0  0
    5.2856  -20.0470   22.5555 C   0  0  0  0  0  0  0  0  0  0  0  0
    4.7648  -20.6893   23.4943 O   0  0  0  0  0  0  0  0  0  0  0  0
    5.7958  -18.6844   22.7375 C   0  0  0  0  0  0  0  0  0  0  0  0
    6.3139  -18.0152   21.5163 C   0  0  0  0  0  0  0  0  0  0  0  0
    6.8235  -16.6232   21.7003 C   0  0  2  0  0  0  0  0  0  0  0  0
    7.3282  -16.0943   20.4460 N   0  0  0  0  0  0  0  0  0  0  0  0
    8.0033  -16.7124   22.6361 C   0  0  0  0  0  0  0  0  0  0  0  0
    9.1080  -17.1485   22.2291 O   0  0  0  0  0  0  0  0  0  0  0  0
   10.8508  -15.3406   31.9712 N   0  0  0  0  0  0  0  0  0  0  0  0
   10.4618  -14.6618   30.7858 C   0  0  0  0  0  0  0  0  0  0  0  0
    9.9681  -13.4654   30.7983 N   0  0  0  0  0  0  0  0  0  0  0  0
   10.5836  -15.2396   29.4934 N   0  0  0  0  0  0  0  0  0  0  0  0
    9.5645  -15.2139   28.5280 C   0  0  0  0  0  0  0  0  0  0  0  0
    9.8320  -15.8175   27.2080 C   0  0  0  0  0  0  0  0  0  0  0  0
    8.6489  -15.7216   26.2765 C   0  0  0  0  0  0  0  0  0  0  0  0
    8.9682  -16.3427   24.9462 C   0  0  2  0  0  0  0  0  0  0  0  0
    7.8953  -16.3081   23.9943 N   0  0  0  0  0  0  0  0  0  0  0  0
    9.4361  -17.7454   25.0947 C   0  0  0  0  0  0  0  0  0  0  0  0
   10.7881  -18.0723   25.1563 O   0  0  0  0  0  0  0  0  0  0  0  0
    8.5830  -18.6529   25.1657 O   0  0  0  0  0  0  0  0  0  0  0  0
  1  2  1  0
  3  2  1  0
  4  5  1  0
  4  3  1  0
  5  1  1  0
  6  7  2  0
  5  6  1  1
  9  8  1  0
 10  9  2  0
 11  9  1  0
 13 12  1  6
 12 11  1  0
 13 14  1  0
 14  6  1  0
 15 25  1  0
 15 13  1  0
 16 15  2  0
 18 19  2  0
 18 17  1  0
 20 18  1  0
 21 20  1  0
 22 21  1  0
 24 23  1  1
 23 22  1  0
 24 25  1  0
 26 24  1  0
 27 26  1  0
 28 26  2  0
M  END
$$$$
