PQR.pdb
     RDKit          3D

 28 28  0  0  1  0  0  0  0  0999 V2000
    8.1227  -18.9375   21.1343 N   0  0  0  0  0  0  0  0  0  0  0  0
    8.0344  -20.2325   20.5024 C   0  0  0  0  0  0  0  0  0  0  0  0
    8.8811  -20.1694   19.2543 C   0  0  0  0  0  0  0  0  0  0  0  0
    9.4909  -18.7639   19.2911 C   0  0  0  0  0  0  0  0  0  0  0  0
    9.4396  -18.4872   20.7828 C   0  0  1  0  0  0  0  0  0  0  0  0
    9.6286  -17.0445   21.0910 C   0  0  0  0  0  0  0  0  0  0  0  0
   10.7894  -16.5753   20.9881 O   0  0  0  0  0  0  0  0  0  0  0  0
    6.3570  -12.2655   19.1508 N   0  0  0  0  0  0  0  0  0  0  0  0
    7.3032  -13.2032   18.6037 C   0  0  0  0  0  0  0  0  0  0  0  0
    7.3010  -13.3592   17.3625 O   0  0  0  0  0  0  0  0  0  0  0  0
    8.2253  -13.9374   19.4760 C   0  0  0  0  0  0  0  0  0  0  0  0
    7.8448  -14.0105   20.9103 C   0  0  0  0  0  0  0  0  0  0  0  0
    8.7158  -14.8621   21.7748 C   0  0  2  0  0  0  0  0  0  0  0  0
    8.5064  -16.2687   21.4825 N   0  0  0  0  0  0  0  0  0  0  0  0
    8.2616  -14.6454   23.1970 C   0  0  0  0  0  0  0  0  0  0  0  0
    7.1563  -14.1006   23.4369 O   0  0  0  0  0  0  0  0  0  0  0  0
    6.0522  -22.1011   25.0565 N   0  0  0  0  0  0  0  0  0  0  0  0
    6.2684  -21.6159   26.3737 C   0  0  0  0  0  0  0  0  0  0  0  0
    5.9770  -22.3083   27.4277 N   0  0  0  0  0  0  0  0  0  0  0  0
    6.8214  -20.3344   26.6401 N   0  0  0  0  0  0  0  0  0  0  0  0
    7.0483  -19.3619   25.6532 C   0  0  0  0  0  0  0  0  0  0  0  0
    7.6206  -18.0649   26.0636 C   0  0  0  0  0  0  0  0  0  0  0  0
    7.9935  -17.1976   24.8865 C   0  0  0  0  0  0  0  0  0  0  0  0
    8.6381  -15.9218   25.3495 C   0  0  2  0  0  0  0  0  0  0  0  0
    9.0685  -15.0493   24.2949 N   0  0  0  0  0  0  0  0  0  0  0  0
    9.7858  -16.1855   26.2560 C   0  0  0  0  0  0  0  0  0  0  0  0
    9.6611  -16.1368   27.6419 O   0  0  0  0  0  0  0  0  0  0  0  0
   10.8931  -16.4585   25.7502 O   0  0  0  0  0  0  0  0  0  0  0  0
  1  2  1  0
  3  2  1  0
  4  5  1  0
  4  3  1  0
  5  1  1  0
  6  7  2  0
  5  6  1  6
  9  8  1  0
 10  9  2  0
 11  9  1  0
 13 12  1  6
 12 11  1  0
 13 14  1  0
 14  6  1  0
 15 25  1  0
 15 13  1  0
 16 15  2  0
 18 19  2  0
 18 17  1  0
 20 18  1  0
 21 20  1  0
 22 21  1  0
 24 23  1  6
 23 22  1  0
 24 25  1  0
 26 24  1  0
 27 26  1  0
 28 26  2  0
M  END
$$$$
