PQR.pdb
     RDKit          3D

 28 28  0  0  1  0  0  0  0  0999 V2000
    8.5289  -14.9549   18.6361 N   0  0  0  0  0  0  0  0  0  0  0  0
    8.5017  -14.1892   17.4125 C   0  0  0  0  0  0  0  0  0  0  0  0
    7.5368  -13.0490   17.6308 C   0  0  0  0  0  0  0  0  0  0  0  0
    7.0929  -13.2134   19.0884 C   0  0  0  0  0  0  0  0  0  0  0  0
    8.2848  -13.9678   19.6493 C   0  0  1  0  0  0  0  0  0  0  0  0
    7.9829  -14.5923   20.9649 C   0  0  0  0  0  0  0  0  0  0  0  0
    7.7584  -13.8257   21.9346 O   0  0  0  0  0  0  0  0  0  0  0  0
    6.5734  -20.8266   21.8546 N   0  0  0  0  0  0  0  0  0  0  0  0
    6.3827  -20.1908   23.1325 C   0  0  0  0  0  0  0  0  0  0  0  0
    5.9223  -20.8949   24.0584 O   0  0  0  0  0  0  0  0  0  0  0  0
    6.7187  -18.7768   23.3271 C   0  0  0  0  0  0  0  0  0  0  0  0
    7.1990  -18.0506   22.1232 C   0  0  0  0  0  0  0  0  0  0  0  0
    7.4791  -16.5948   22.3066 C   0  0  2  0  0  0  0  0  0  0  0  0
    7.9607  -16.0076   21.0692 N   0  0  0  0  0  0  0  0  0  0  0  0
    8.6089  -16.4915   23.3008 C   0  0  0  0  0  0  0  0  0  0  0  0
    9.7910  -16.7257   22.9488 O   0  0  0  0  0  0  0  0  0  0  0  0
    5.7174  -12.6390   25.9550 N   0  0  0  0  0  0  0  0  0  0  0  0
    6.3153  -11.7036   26.8408 C   0  0  0  0  0  0  0  0  0  0  0  0
    5.9710  -10.4564   26.8730 N   0  0  0  0  0  0  0  0  0  0  0  0
    7.3370  -12.0608   27.7614 N   0  0  0  0  0  0  0  0  0  0  0  0
    7.8616  -13.3577   27.8804 C   0  0  0  0  0  0  0  0  0  0  0  0
    8.3860  -14.0171   26.6687 C   0  0  0  0  0  0  0  0  0  0  0  0
    8.9284  -15.3971   26.9486 C   0  0  0  0  0  0  0  0  0  0  0  0
    9.3699  -16.0628   25.6760 C   0  0  2  0  0  0  0  0  0  0  0  0
    8.3657  -16.1291   24.6534 N   0  0  0  0  0  0  0  0  0  0  0  0
    9.8942  -17.4306   25.9266 C   0  0  0  0  0  0  0  0  0  0  0  0
   11.2453  -17.6748   26.1576 O   0  0  0  0  0  0  0  0  0  0  0  0
    9.0906  -18.3848   25.9283 O   0  0  0  0  0  0  0  0  0  0  0  0
  1  2  1  0
  3  2  1  0
  4  5  1  0
  4  3  1  0
  5  1  1  0
  6  7  2  0
  5  6  1  1
  9  8  1  0
 10  9  2  0
 11  9  1  0
 13 12  1  6
 12 11  1  0
 13 14  1  0
 14  6  1  0
 15 25  1  0
 15 13  1  0
 16 15  2  0
 18 19  2  0
 18 17  1  0
 20 18  1  0
 21 20  1  0
 22 21  1  0
 24 23  1  1
 23 22  1  0
 24 25  1  0
 26 24  1  0
 27 26  1  0
 28 26  2  0
M  END
$$$$
