PQR.pdb
     RDKit          3D

 28 28  0  0  1  0  0  0  0  0999 V2000
    8.0433  -14.1596   18.4961 N   0  0  0  0  0  0  0  0  0  0  0  0
    7.0277  -13.1510   18.6847 C   0  0  0  0  0  0  0  0  0  0  0  0
    7.5469  -12.1975   19.7335 C   0  0  0  0  0  0  0  0  0  0  0  0
    8.9501  -12.7253   20.0519 C   0  0  0  0  0  0  0  0  0  0  0  0
    9.2646  -13.4518   18.7566 C   0  0  1  0  0  0  0  0  0  0  0  0
   10.4183  -14.3792   18.9013 C   0  0  0  0  0  0  0  0  0  0  0  0
   10.1665  -15.5981   19.0724 O   0  0  0  0  0  0  0  0  0  0  0  0
   16.3190  -13.7176   16.6576 N   0  0  0  0  0  0  0  0  0  0  0  0
   16.4169  -14.7785   17.6265 C   0  0  0  0  0  0  0  0  0  0  0  0
   17.5342  -15.3235   17.7666 O   0  0  0  0  0  0  0  0  0  0  0  0
   15.2485  -15.1925   18.4098 C   0  0  0  0  0  0  0  0  0  0  0  0
   14.0177  -14.3822   18.2199 C   0  0  0  0  0  0  0  0  0  0  0  0
   12.8445  -14.7693   19.0597 C   0  0  2  0  0  0  0  0  0  0  0  0
   11.7366  -13.8569   18.8407 N   0  0  0  0  0  0  0  0  0  0  0  0
   13.2648  -14.5993   20.4985 C   0  0  0  0  0  0  0  0  0  0  0  0
   13.7007  -13.4958   20.9089 O   0  0  0  0  0  0  0  0  0  0  0  0
   12.6295  -21.3322   22.4310 N   0  0  0  0  0  0  0  0  0  0  0  0
   11.2814  -20.8937   22.3446 C   0  0  0  0  0  0  0  0  0  0  0  0
   10.3797  -21.5409   21.6788 N   0  0  0  0  0  0  0  0  0  0  0  0
   10.8146  -19.7123   22.9813 N   0  0  0  0  0  0  0  0  0  0  0  0
   11.6543  -18.7873   23.6221 C   0  0  0  0  0  0  0  0  0  0  0  0
   12.0617  -17.5777   22.8810 C   0  0  0  0  0  0  0  0  0  0  0  0
   13.0287  -16.7197   23.6591 C   0  0  0  0  0  0  0  0  0  0  0  0
   13.5568  -15.6038   22.8028 C   0  0  2  0  0  0  0  0  0  0  0  0
   13.1793  -15.6774   21.4205 N   0  0  0  0  0  0  0  0  0  0  0  0
   15.0363  -15.4967   22.8936 C   0  0  0  0  0  0  0  0  0  0  0  0
   15.8669  -15.7804   21.8128 O   0  0  0  0  0  0  0  0  0  0  0  0
   15.5417  -15.1404   23.9772 O   0  0  0  0  0  0  0  0  0  0  0  0
  1  2  1  0
  3  2  1  0
  4  5  1  0
  4  3  1  0
  5  1  1  0
  6  7  2  0
  5  6  1  1
  9  8  1  0
 10  9  2  0
 11  9  1  0
 13 12  1  6
 12 11  1  0
 13 14  1  0
 14  6  1  0
 15 25  1  0
 15 13  1  0
 16 15  2  0
 18 19  2  0
 18 17  1  0
 20 18  1  0
 21 20  1  0
 22 21  1  0
 24 23  1  1
 23 22  1  0
 24 25  1  0
 26 24  1  0
 27 26  1  0
 28 26  2  0
M  END
$$$$
