PQR.pdb
     RDKit          3D

 28 28  0  0  1  0  0  0  0  0999 V2000
   12.4861  -19.0108   17.9287 N   0  0  0  0  0  0  0  0  0  0  0  0
   12.3655  -19.2416   16.5087 C   0  0  0  0  0  0  0  0  0  0  0  0
   11.0923  -20.0249   16.2989 C   0  0  0  0  0  0  0  0  0  0  0  0
   10.4948  -20.1440   17.7052 C   0  0  0  0  0  0  0  0  0  0  0  0
   11.1218  -18.9307   18.3677 C   0  0  1  0  0  0  0  0  0  0  0  0
   11.0164  -18.9858   19.8502 C   0  0  0  0  0  0  0  0  0  0  0  0
    9.8851  -18.7907   20.3603 O   0  0  0  0  0  0  0  0  0  0  0  0
   15.7981  -20.2234   24.0484 N   0  0  0  0  0  0  0  0  0  0  0  0
   14.6199  -19.8574   24.7911 C   0  0  0  0  0  0  0  0  0  0  0  0
   14.7816  -19.4939   25.9772 O   0  0  0  0  0  0  0  0  0  0  0  0
   13.2922  -19.9125   24.1711 C   0  0  0  0  0  0  0  0  0  0  0  0
   13.2664  -19.8887   22.6857 C   0  0  0  0  0  0  0  0  0  0  0  0
   12.0598  -19.2659   22.0631 C   0  0  2  0  0  0  0  0  0  0  0  0
   12.1810  -19.2530   20.6164 N   0  0  0  0  0  0  0  0  0  0  0  0
   12.0372  -17.8241   22.5064 C   0  0  0  0  0  0  0  0  0  0  0  0
   12.6363  -16.9435   21.8417 O   0  0  0  0  0  0  0  0  0  0  0  0
    7.4892  -13.0261   19.0982 N   0  0  0  0  0  0  0  0  0  0  0  0
    7.4667  -12.4462   20.3945 C   0  0  0  0  0  0  0  0  0  0  0  0
    7.2543  -11.1844   20.5896 N   0  0  0  0  0  0  0  0  0  0  0  0
    7.6744  -13.2027   21.5792 N   0  0  0  0  0  0  0  0  0  0  0  0
    8.1666  -14.5176   21.5891 C   0  0  0  0  0  0  0  0  0  0  0  0
    8.4137  -15.1653   22.8921 C   0  0  0  0  0  0  0  0  0  0  0  0
    9.2876  -16.3897   22.7742 C   0  0  0  0  0  0  0  0  0  0  0  0
   10.4229  -16.3288   23.7564 C   0  0  2  0  0  0  0  0  0  0  0  0
   11.3419  -17.4282   23.6809 N   0  0  0  0  0  0  0  0  0  0  0  0
    9.9323  -16.2054   25.1538 C   0  0  0  0  0  0  0  0  0  0  0  0
   10.3273  -17.0857   26.1576 O   0  0  0  0  0  0  0  0  0  0  0  0
    9.1412  -15.2803   25.4272 O   0  0  0  0  0  0  0  0  0  0  0  0
  1  2  1  0
  3  2  1  0
  4  5  1  0
  4  3  1  0
  5  1  1  0
  6  7  2  0
  5  6  1  1
  9  8  1  0
 10  9  2  0
 11  9  1  0
 13 12  1  1
 12 11  1  0
 13 14  1  0
 14  6  1  0
 15 25  1  0
 15 13  1  0
 16 15  2  0
 18 19  2  0
 18 17  1  0
 20 18  1  0
 21 20  1  0
 22 21  1  0
 24 23  1  6
 23 22  1  0
 24 25  1  0
 26 24  1  0
 27 26  1  0
 28 26  2  0
M  END
$$$$
