PQR.pdb
     RDKit          3D

 28 28  0  0  1  0  0  0  0  0999 V2000
    7.9079  -14.8807   18.1784 N   0  0  0  0  0  0  0  0  0  0  0  0
    7.6081  -13.6866   17.4245 C   0  0  0  0  0  0  0  0  0  0  0  0
    7.9650  -12.5125   18.3036 C   0  0  0  0  0  0  0  0  0  0  0  0
    8.5451  -13.1584   19.5666 C   0  0  0  0  0  0  0  0  0  0  0  0
    9.0176  -14.4843   18.9981 C   0  0  1  0  0  0  0  0  0  0  0  0
    9.2982  -15.4820   20.0648 C   0  0  0  0  0  0  0  0  0  0  0  0
    8.3291  -16.1473   20.5082 O   0  0  0  0  0  0  0  0  0  0  0  0
   15.1296  -18.7596   22.1715 N   0  0  0  0  0  0  0  0  0  0  0  0
   13.7119  -18.9903   22.0676 C   0  0  0  0  0  0  0  0  0  0  0  0
   13.3444  -20.0568   21.5267 O   0  0  0  0  0  0  0  0  0  0  0  0
   12.7502  -18.0087   22.5790 C   0  0  0  0  0  0  0  0  0  0  0  0
   12.3545  -16.9324   21.6342 C   0  0  0  0  0  0  0  0  0  0  0  0
   10.8891  -16.6637   21.5266 C   0  0  2  0  0  0  0  0  0  0  0  0
   10.6296  -15.6396   20.5307 N   0  0  0  0  0  0  0  0  0  0  0  0
   10.4529  -16.0943   22.8537 C   0  0  0  0  0  0  0  0  0  0  0  0
   10.8726  -14.9745   23.2356 O   0  0  0  0  0  0  0  0  0  0  0  0
    8.0724  -12.8580   27.5034 N   0  0  0  0  0  0  0  0  0  0  0  0
    6.7540  -12.4540   27.1634 C   0  0  0  0  0  0  0  0  0  0  0  0
    6.1793  -11.4271   27.7022 N   0  0  0  0  0  0  0  0  0  0  0  0
    5.9615  -13.1426   26.2059 N   0  0  0  0  0  0  0  0  0  0  0  0
    6.4578  -14.1466   25.3592 C   0  0  0  0  0  0  0  0  0  0  0  0
    6.9006  -15.4187   25.9624 C   0  0  0  0  0  0  0  0  0  0  0  0
    7.4661  -16.3773   24.9436 C   0  0  0  0  0  0  0  0  0  0  0  0
    8.9643  -16.2754   24.8922 C   0  0  2  0  0  0  0  0  0  0  0  0
    9.5618  -16.8069   23.7009 N   0  0  0  0  0  0  0  0  0  0  0  0
    9.5977  -16.9134   26.0755 C   0  0  0  0  0  0  0  0  0  0  0  0
    9.8053  -16.2229   27.2666 O   0  0  0  0  0  0  0  0  0  0  0  0
    9.9518  -18.1066   25.9899 O   0  0  0  0  0  0  0  0  0  0  0  0
  1  2  1  0
  3  2  1  0
  4  5  1  0
  4  3  1  0
  5  1  1  0
  6  7  2  0
  5  6  1  1
  9  8  1  0
 10  9  2  0
 11  9  1  0
 13 12  1  1
 12 11  1  0
 13 14  1  0
 14  6  1  0
 15 25  1  0
 15 13  1  0
 16 15  2  0
 18 19  2  0
 18 17  1  0
 20 18  1  0
 21 20  1  0
 22 21  1  0
 24 23  1  6
 23 22  1  0
 24 25  1  0
 26 24  1  0
 27 26  1  0
 28 26  2  0
M  END
$$$$
