PQR.pdb
     RDKit          3D

 28 28  0  0  1  0  0  0  0  0999 V2000
    8.4466  -18.7815   17.6203 N   0  0  0  0  0  0  0  0  0  0  0  0
    7.9258  -19.7427   16.6775 C   0  0  0  0  0  0  0  0  0  0  0  0
    6.9865  -18.9945   15.7629 C   0  0  0  0  0  0  0  0  0  0  0  0
    7.0879  -17.5406   16.2370 C   0  0  0  0  0  0  0  0  0  0  0  0
    8.4683  -17.5590   16.8682 C   0  0  1  0  0  0  0  0  0  0  0  0
    8.6991  -16.3785   17.7430 C   0  0  0  0  0  0  0  0  0  0  0  0
    8.8376  -15.2607   17.1865 O   0  0  0  0  0  0  0  0  0  0  0  0
    7.9550  -11.7714   19.4362 N   0  0  0  0  0  0  0  0  0  0  0  0
    7.7872  -12.4746   20.6816 C   0  0  0  0  0  0  0  0  0  0  0  0
    8.3942  -12.0244   21.6786 O   0  0  0  0  0  0  0  0  0  0  0  0
    6.9373  -13.6666   20.7642 C   0  0  0  0  0  0  0  0  0  0  0  0
    7.2698  -14.7690   19.8252 C   0  0  0  0  0  0  0  0  0  0  0  0
    8.6179  -15.3890   19.9965 C   0  0  2  0  0  0  0  0  0  0  0  0
    8.7524  -16.5606   19.1496 N   0  0  0  0  0  0  0  0  0  0  0  0
    8.6940  -15.8769   21.4220 C   0  0  0  0  0  0  0  0  0  0  0  0
    7.6828  -16.3656   21.9831 O   0  0  0  0  0  0  0  0  0  0  0  0
   11.8924  -21.5476   22.2342 N   0  0  0  0  0  0  0  0  0  0  0  0
   13.2283  -21.4466   22.7058 C   0  0  0  0  0  0  0  0  0  0  0  0
   13.8316  -22.4229   23.3040 N   0  0  0  0  0  0  0  0  0  0  0  0
   14.0087  -20.2683   22.5585 N   0  0  0  0  0  0  0  0  0  0  0  0
   13.4891  -19.0368   22.1289 C   0  0  0  0  0  0  0  0  0  0  0  0
   12.6130  -18.2849   23.0483 C   0  0  0  0  0  0  0  0  0  0  0  0
   12.0204  -17.0542   22.4073 C   0  0  0  0  0  0  0  0  0  0  0  0
   10.5689  -16.9131   22.7692 C   0  0  2  0  0  0  0  0  0  0  0  0
    9.9046  -15.7957   22.1620 N   0  0  0  0  0  0  0  0  0  0  0  0
   10.3752  -16.8476   24.2412 C   0  0  0  0  0  0  0  0  0  0  0  0
   10.7310  -17.8987   25.0822 O   0  0  0  0  0  0  0  0  0  0  0  0
    9.8771  -15.8138   24.7304 O   0  0  0  0  0  0  0  0  0  0  0  0
  1  2  1  0
  3  2  1  0
  4  5  1  0
  4  3  1  0
  5  1  1  0
  6  7  2  0
  5  6  1  1
  9  8  1  0
 10  9  2  0
 11  9  1  0
 13 12  1  1
 12 11  1  0
 13 14  1  0
 14  6  1  0
 15 25  1  0
 15 13  1  0
 16 15  2  0
 18 19  2  0
 18 17  1  0
 20 18  1  0
 21 20  1  0
 22 21  1  0
 24 23  1  1
 23 22  1  0
 24 25  1  0
 26 24  1  0
 27 26  1  0
 28 26  2  0
M  END
$$$$
