PQR.pdb
     RDKit          3D

 28 28  0  0  1  0  0  0  0  0999 V2000
    7.9402  -14.7111   18.7175 N   0  0  0  0  0  0  0  0  0  0  0  0
    7.4270  -13.4903   18.1426 C   0  0  0  0  0  0  0  0  0  0  0  0
    7.3778  -12.4698   19.2538 C   0  0  0  0  0  0  0  0  0  0  0  0
    7.9667  -13.2079   20.4609 C   0  0  0  0  0  0  0  0  0  0  0  0
    8.8190  -14.2451   19.7524 C   0  0  1  0  0  0  0  0  0  0  0  0
    9.2307  -15.3471   20.6625 C   0  0  0  0  0  0  0  0  0  0  0  0
    8.3753  -16.2256   20.9359 O   0  0  0  0  0  0  0  0  0  0  0  0
   14.8039  -19.1301   23.0837 N   0  0  0  0  0  0  0  0  0  0  0  0
   14.3126  -17.7837   23.2239 C   0  0  0  0  0  0  0  0  0  0  0  0
   15.1636  -16.8712   23.3155 O   0  0  0  0  0  0  0  0  0  0  0  0
   12.8729  -17.5074   23.2558 C   0  0  0  0  0  0  0  0  0  0  0  0
   12.3842  -16.4897   22.2898 C   0  0  0  0  0  0  0  0  0  0  0  0
   10.9013  -16.3877   22.1426 C   0  0  2  0  0  0  0  0  0  0  0  0
   10.5535  -15.3608   21.1769 N   0  0  0  0  0  0  0  0  0  0  0  0
   10.3630  -15.9266   23.4743 C   0  0  0  0  0  0  0  0  0  0  0  0
   10.6178  -14.7734   23.9000 O   0  0  0  0  0  0  0  0  0  0  0  0
    7.7715  -20.7431   24.8899 N   0  0  0  0  0  0  0  0  0  0  0  0
    6.3808  -20.8900   24.6420 C   0  0  0  0  0  0  0  0  0  0  0  0
    5.8666  -21.9867   24.1860 N   0  0  0  0  0  0  0  0  0  0  0  0
    5.4438  -19.8475   24.8746 N   0  0  0  0  0  0  0  0  0  0  0  0
    5.8056  -18.5370   25.2254 C   0  0  0  0  0  0  0  0  0  0  0  0
    7.2347  -18.1701   25.1920 C   0  0  0  0  0  0  0  0  0  0  0  0
    7.4760  -16.7407   25.6108 C   0  0  0  0  0  0  0  0  0  0  0  0
    8.9351  -16.3965   25.5101 C   0  0  2  0  0  0  0  0  0  0  0  0
    9.5590  -16.7809   24.2766 N   0  0  0  0  0  0  0  0  0  0  0  0
    9.7118  -16.9667   26.6416 C   0  0  0  0  0  0  0  0  0  0  0  0
   10.7529  -17.8698   26.4443 O   0  0  0  0  0  0  0  0  0  0  0  0
    9.4144  -16.6193   27.8023 O   0  0  0  0  0  0  0  0  0  0  0  0
  1  2  1  0
  3  2  1  0
  4  5  1  0
  4  3  1  0
  5  1  1  0
  6  7  2  0
  5  6  1  1
  9  8  1  0
 10  9  2  0
 11  9  1  0
 13 12  1  1
 12 11  1  0
 13 14  1  0
 14  6  1  0
 15 25  1  0
 15 13  1  0
 16 15  2  0
 18 19  2  0
 18 17  1  0
 20 18  1  0
 21 20  1  0
 22 21  1  0
 24 23  1  6
 23 22  1  0
 24 25  1  0
 26 24  1  0
 27 26  1  0
 28 26  2  0
M  END
$$$$
