CTF.pdb
     RDKit          3D

 25 25  0  0  1  0  0  0  0  0999 V2000
    7.8768  -14.3787   17.7450 N   0  0  0  0  0  0  0  0  0  0  0  0
    8.5252  -14.0611   18.9788 C   0  0  1  0  0  0  0  0  0  0  0  0
    8.3039  -12.6288   19.4103 C   0  0  0  0  0  0  0  0  0  0  0  0
    9.1930  -12.2064   20.9090 S   0  0  0  0  0  0  0  0  0  0  0  0
    7.9419  -14.9220   20.0670 C   0  0  0  0  0  0  0  0  0  0  0  0
    6.8432  -15.5117   19.8975 O   0  0  0  0  0  0  0  0  0  0  0  0
    7.5686  -17.5393   20.3173 C   0  0  0  0  0  0  0  0  0  0  0  0
    8.3275  -17.4635   21.6104 C   0  0  1  0  0  0  0  0  0  0  0  0
    9.6787  -17.6508   21.3263 O   0  0  0  0  0  0  0  0  0  0  0  0
    8.0956  -16.0877   22.2435 C   0  0  2  0  0  0  0  0  0  0  0  0
    8.5976  -15.1001   21.3078 N   0  0  0  0  0  0  0  0  0  0  0  0
    8.8457  -16.0022   23.5279 C   0  0  0  0  0  0  0  0  0  0  0  0
   10.0746  -15.7600   23.4999 O   0  0  0  0  0  0  0  0  0  0  0  0
    8.2246  -16.1837   24.7758 N   0  0  0  0  0  0  0  0  0  0  0  0
    8.9096  -15.9388   26.0327 C   0  0  1  0  0  0  0  0  0  0  0  0
    7.8972  -15.4043   26.9927 C   0  0  0  0  0  0  0  0  0  0  0  0
    7.3850  -14.0730   26.5950 C   0  0  0  0  0  0  0  0  0  0  0  0
    6.0623  -13.9678   26.1931 C   0  0  0  0  0  0  0  0  0  0  0  0
    5.5064  -12.7677   25.8121 C   0  0  0  0  0  0  0  0  0  0  0  0
    6.2984  -11.6409   25.8343 C   0  0  0  0  0  0  0  0  0  0  0  0
    7.6180  -11.7213   26.2308 C   0  0  0  0  0  0  0  0  0  0  0  0
    8.1514  -12.9359   26.6080 C   0  0  0  0  0  0  0  0  0  0  0  0
    9.6358  -17.1163   26.5124 C   0  0  0  0  0  0  0  0  0  0  0  0
    9.4966  -18.3583   25.8656 O   0  0  0  0  0  0  0  0  0  0  0  0
   10.4032  -17.0851   27.5014 O   0  0  0  0  0  0  0  0  0  0  0  0
  2  1  1  6
  3  2  1  0
  4  3  1  0
  5  2  1  0
  5  6  2  0
  8  7  1  6
  8  9  1  0
  8 10  1  0
 10 11  1  6
 11  5  1  0
 12 10  1  0
 13 12  2  0
 14 12  1  0
 15 14  1  0
 15 16  1  1
 16 17  1  0
 17 22  2  0
 18 19  2  0
 18 17  1  0
 19 20  1  0
 20 21  2  0
 22 21  1  0
 23 15  1  0
 24 23  1  0
 25 23  2  0
M  END
$$$$
