CTF.pdb
     RDKit          3D

 25 25  0  0  1  0  0  0  0  0999 V2000
    9.3396  -14.5216   19.0871 N   0  0  0  0  0  0  0  0  0  0  0  0
    8.5714  -13.6294   19.8978 C   0  0  1  0  0  0  0  0  0  0  0  0
    7.4440  -12.9655   19.1398 C   0  0  0  0  0  0  0  0  0  0  0  0
    7.9720  -12.2657   17.5756 S   0  0  0  0  0  0  0  0  0  0  0  0
    7.9253  -14.4175   21.0055 C   0  0  0  0  0  0  0  0  0  0  0  0
    7.0840  -13.8773   21.7696 O   0  0  0  0  0  0  0  0  0  0  0  0
    6.8686  -18.1958   20.6701 C   0  0  0  0  0  0  0  0  0  0  0  0
    7.6181  -17.9811   21.9529 C   0  0  1  0  0  0  0  0  0  0  0  0
    8.9314  -18.4041   21.7583 O   0  0  0  0  0  0  0  0  0  0  0  0
    7.5790  -16.4914   22.3088 C   0  0  2  0  0  0  0  0  0  0  0  0
    8.2344  -15.7798   21.2286 N   0  0  0  0  0  0  0  0  0  0  0  0
    8.3127  -16.2692   23.5863 C   0  0  0  0  0  0  0  0  0  0  0  0
    9.5102  -15.9030   23.5444 O   0  0  0  0  0  0  0  0  0  0  0  0
    7.7102  -16.4555   24.8426 N   0  0  0  0  0  0  0  0  0  0  0  0
    8.4207  -16.2367   26.0902 C   0  0  1  0  0  0  0  0  0  0  0  0
    7.4829  -15.5343   27.0173 C   0  0  0  0  0  0  0  0  0  0  0  0
    7.3192  -14.1014   26.6811 C   0  0  0  0  0  0  0  0  0  0  0  0
    6.1089  -13.6820   26.1507 C   0  0  0  0  0  0  0  0  0  0  0  0
    5.8728  -12.3682   25.8152 C   0  0  0  0  0  0  0  0  0  0  0  0
    6.8781  -11.4484   26.0171 C   0  0  0  0  0  0  0  0  0  0  0  0
    8.0913  -11.8426   26.5439 C   0  0  0  0  0  0  0  0  0  0  0  0
    8.3029  -13.1654   26.8719 C   0  0  0  0  0  0  0  0  0  0  0  0
    8.9948  -17.4706   26.6305 C   0  0  0  0  0  0  0  0  0  0  0  0
    8.7407  -18.7102   26.0149 O   0  0  0  0  0  0  0  0  0  0  0  0
    9.7265  -17.4917   27.6465 O   0  0  0  0  0  0  0  0  0  0  0  0
  2  1  1  6
  3  2  1  0
  4  3  1  0
  5  2  1  0
  5  6  2  0
  8  7  1  6
  8  9  1  0
  8 10  1  0
 10 11  1  6
 11  5  1  0
 12 10  1  0
 13 12  2  0
 14 12  1  0
 15 14  1  0
 15 16  1  1
 16 17  1  0
 17 22  2  0
 18 19  2  0
 18 17  1  0
 19 20  1  0
 20 21  2  0
 22 21  1  0
 23 15  1  0
 24 23  1  0
 25 23  2  0
M  END
$$$$
