CTF.pdb
     RDKit          3D

 25 25  0  0  1  0  0  0  0  0999 V2000
   13.4818  -17.9773   17.5824 N   0  0  0  0  0  0  0  0  0  0  0  0
   13.2169  -18.6474   18.8170 C   0  0  1  0  0  0  0  0  0  0  0  0
   14.4507  -18.8127   19.6754 C   0  0  0  0  0  0  0  0  0  0  0  0
   15.1674  -17.2470   20.1760 S   0  0  0  0  0  0  0  0  0  0  0  0
   12.2543  -17.8157   19.6216 C   0  0  0  0  0  0  0  0  0  0  0  0
   11.9782  -16.6386   19.2728 O   0  0  0  0  0  0  0  0  0  0  0  0
    8.8744  -18.6055   20.0103 C   0  0  0  0  0  0  0  0  0  0  0  0
    9.3205  -18.3976   21.4286 C   0  0  1  0  0  0  0  0  0  0  0  0
    9.5748  -19.6490   21.9860 O   0  0  0  0  0  0  0  0  0  0  0  0
   10.5895  -17.5390   21.4303 C   0  0  2  0  0  0  0  0  0  0  0  0
   11.6298  -18.3182   20.7872 N   0  0  0  0  0  0  0  0  0  0  0  0
   10.9763  -17.2319   22.8359 C   0  0  0  0  0  0  0  0  0  0  0  0
   12.0062  -17.7621   23.3133 O   0  0  0  0  0  0  0  0  0  0  0  0
   10.2265  -16.3660   23.6509 N   0  0  0  0  0  0  0  0  0  0  0  0
   10.5431  -16.1402   25.0501 C   0  0  1  0  0  0  0  0  0  0  0  0
    9.6022  -15.0948   25.5544 C   0  0  0  0  0  0  0  0  0  0  0  0
    9.8577  -14.7354   26.9681 C   0  0  0  0  0  0  0  0  0  0  0  0
    9.2229  -15.4669   27.9601 C   0  0  0  0  0  0  0  0  0  0  0  0
    9.4087  -15.2014   29.2978 C   0  0  0  0  0  0  0  0  0  0  0  0
   10.2547  -14.1735   29.6516 C   0  0  0  0  0  0  0  0  0  0  0  0
   10.8977  -13.4316   28.6815 C   0  0  0  0  0  0  0  0  0  0  0  0
   10.6946  -13.7177   27.3477 C   0  0  0  0  0  0  0  0  0  0  0  0
   10.5451  -17.3794   25.8300 C   0  0  0  0  0  0  0  0  0  0  0  0
   11.5863  -17.6559   26.7354 O   0  0  0  0  0  0  0  0  0  0  0  0
    9.6422  -18.2421   25.7375 O   0  0  0  0  0  0  0  0  0  0  0  0
  2  1  1  6
  3  2  1  0
  4  3  1  0
  5  2  1  0
  5  6  2  0
  8  7  1  6
  8  9  1  0
  8 10  1  0
 10 11  1  1
 11  5  1  0
 12 10  1  0
 13 12  2  0
 14 12  1  0
 15 14  1  0
 15 16  1  1
 16 17  1  0
 17 22  2  0
 18 19  2  0
 18 17  1  0
 19 20  1  0
 20 21  2  0
 22 21  1  0
 23 15  1  0
 24 23  1  0
 25 23  2  0
M  END
$$$$
