CTF.pdb
     RDKit          3D

 25 25  0  0  1  0  0  0  0  0999 V2000
    7.8600  -14.0916   17.7396 N   0  0  0  0  0  0  0  0  0  0  0  0
    8.7509  -14.5736   18.7483 C   0  0  1  0  0  0  0  0  0  0  0  0
    9.6901  -13.5070   19.2649 C   0  0  0  0  0  0  0  0  0  0  0  0
    8.8364  -12.0194   19.7878 S   0  0  0  0  0  0  0  0  0  0  0  0
    7.9403  -15.0281   19.9322 C   0  0  0  0  0  0  0  0  0  0  0  0
    6.6850  -15.0872   19.8644 O   0  0  0  0  0  0  0  0  0  0  0  0
    6.5866  -17.3363   20.4472 C   0  0  0  0  0  0  0  0  0  0  0  0
    7.4066  -17.4378   21.7006 C   0  0  1  0  0  0  0  0  0  0  0  0
    8.5679  -18.1454   21.3972 O   0  0  0  0  0  0  0  0  0  0  0  0
    7.7477  -16.0258   22.1877 C   0  0  2  0  0  0  0  0  0  0  0  0
    8.5496  -15.4022   21.1529 N   0  0  0  0  0  0  0  0  0  0  0  0
    8.5274  -16.1150   23.4542 C   0  0  0  0  0  0  0  0  0  0  0  0
    9.7745  -16.2197   23.3947 O   0  0  0  0  0  0  0  0  0  0  0  0
    7.9148  -16.0860   24.7190 N   0  0  0  0  0  0  0  0  0  0  0  0
    8.6723  -15.9595   25.9515 C   0  0  1  0  0  0  0  0  0  0  0  0
    7.7713  -15.3288   26.9629 C   0  0  0  0  0  0  0  0  0  0  0  0
    7.3869  -13.9463   26.5973 C   0  0  0  0  0  0  0  0  0  0  0  0
    6.0627  -13.6930   26.2743 C   0  0  0  0  0  0  0  0  0  0  0  0
    5.6214  -12.4361   25.9277 C   0  0  0  0  0  0  0  0  0  0  0  0
    6.5330  -11.4037   25.9041 C   0  0  0  0  0  0  0  0  0  0  0  0
    7.8565  -11.6320   26.2218 C   0  0  0  0  0  0  0  0  0  0  0  0
    8.2736  -12.9008   26.5659 C   0  0  0  0  0  0  0  0  0  0  0  0
    9.2644  -17.2293   26.3768 C   0  0  0  0  0  0  0  0  0  0  0  0
   10.3989  -17.2492   27.2090 O   0  0  0  0  0  0  0  0  0  0  0  0
    8.8056  -18.3423   26.0321 O   0  0  0  0  0  0  0  0  0  0  0  0
  2  1  1  6
  3  2  1  0
  4  3  1  0
  5  2  1  0
  5  6  2  0
  8  7  1  6
  8  9  1  0
  8 10  1  0
 10 11  1  6
 11  5  1  0
 12 10  1  0
 13 12  2  0
 14 12  1  0
 15 14  1  0
 15 16  1  1
 16 17  1  0
 17 22  2  0
 18 19  2  0
 18 17  1  0
 19 20  1  0
 20 21  2  0
 22 21  1  0
 23 15  1  0
 24 23  1  0
 25 23  2  0
M  END
$$$$
