CTF.pdb
     RDKit          3D

 25 25  0  0  1  0  0  0  0  0999 V2000
    7.9795  -14.7920   17.5238 N   0  0  0  0  0  0  0  0  0  0  0  0
    8.4381  -14.2826   18.7782 C   0  0  1  0  0  0  0  0  0  0  0  0
    8.0416  -12.8420   19.0107 C   0  0  0  0  0  0  0  0  0  0  0  0
    8.8860  -12.1029   20.4094 S   0  0  0  0  0  0  0  0  0  0  0  0
    7.7994  -15.0775   19.8854 C   0  0  0  0  0  0  0  0  0  0  0  0
    6.6451  -15.5586   19.7449 O   0  0  0  0  0  0  0  0  0  0  0  0
    7.0469  -17.6883   20.3400 C   0  0  0  0  0  0  0  0  0  0  0  0
    7.8933  -17.5948   21.5763 C   0  0  1  0  0  0  0  0  0  0  0  0
    9.1983  -17.9391   21.2298 O   0  0  0  0  0  0  0  0  0  0  0  0
    7.8383  -16.1595   22.1096 C   0  0  2  0  0  0  0  0  0  0  0  0
    8.4632  -15.3122   21.1124 N   0  0  0  0  0  0  0  0  0  0  0  0
    8.5919  -16.0799   23.3924 C   0  0  0  0  0  0  0  0  0  0  0  0
    9.8325  -15.9077   23.3596 O   0  0  0  0  0  0  0  0  0  0  0  0
    7.9615  -16.1911   24.6439 N   0  0  0  0  0  0  0  0  0  0  0  0
    8.6784  -16.0322   25.8968 C   0  0  1  0  0  0  0  0  0  0  0  0
    7.7159  -15.4661   26.8896 C   0  0  0  0  0  0  0  0  0  0  0  0
    7.3048  -14.0829   26.5568 C   0  0  0  0  0  0  0  0  0  0  0  0
    8.2573  -13.0776   26.6215 C   0  0  0  0  0  0  0  0  0  0  0  0
    7.9597  -11.7671   26.3241 C   0  0  0  0  0  0  0  0  0  0  0  0
    6.6709  -11.4550   25.9513 C   0  0  0  0  0  0  0  0  0  0  0  0
    5.7058  -12.4390   25.8798 C   0  0  0  0  0  0  0  0  0  0  0  0
    6.0295  -13.7450   26.1829 C   0  0  0  0  0  0  0  0  0  0  0  0
    9.3337  -17.2689   26.3268 C   0  0  0  0  0  0  0  0  0  0  0  0
   10.3865  -17.2364   27.2599 O   0  0  0  0  0  0  0  0  0  0  0  0
    9.0022  -18.3980   25.8986 O   0  0  0  0  0  0  0  0  0  0  0  0
  2  1  1  6
  3  2  1  0
  4  3  1  0
  5  2  1  0
  5  6  2  0
  8  7  1  6
  8  9  1  0
  8 10  1  0
 10 11  1  6
 11  5  1  0
 12 10  1  0
 13 12  2  0
 14 12  1  0
 15 14  1  0
 15 16  1  1
 16 17  1  0
 17 22  2  0
 18 19  2  0
 18 17  1  0
 19 20  1  0
 20 21  2  0
 22 21  1  0
 23 15  1  0
 24 23  1  0
 25 23  2  0
M  END
$$$$
