CTF.pdb
     RDKit          3D

 25 25  0  0  1  0  0  0  0  0999 V2000
    5.2829  -19.2861   20.6217 N   0  0  0  0  0  0  0  0  0  0  0  0
    5.4842  -18.1621   21.4816 C   0  0  1  0  0  0  0  0  0  0  0  0
    5.3004  -18.4977   22.9445 C   0  0  0  0  0  0  0  0  0  0  0  0
    6.5206  -19.6629   23.5517 S   0  0  0  0  0  0  0  0  0  0  0  0
    6.9057  -17.6896   21.3349 C   0  0  0  0  0  0  0  0  0  0  0  0
    7.5906  -18.0208   20.3324 O   0  0  0  0  0  0  0  0  0  0  0  0
    8.0303  -16.0990   19.6147 C   0  0  0  0  0  0  0  0  0  0  0  0
    8.4407  -15.2546   20.7861 C   0  0  1  0  0  0  0  0  0  0  0  0
    7.3842  -14.3979   21.0883 O   0  0  0  0  0  0  0  0  0  0  0  0
    8.7495  -16.1698   21.9754 C   0  0  2  0  0  0  0  0  0  0  0  0
    7.5206  -16.8649   22.3061 N   0  0  0  0  0  0  0  0  0  0  0  0
    9.1960  -15.3433   23.1319 C   0  0  0  0  0  0  0  0  0  0  0  0
    8.9865  -14.1082   23.1140 O   0  0  0  0  0  0  0  0  0  0  0  0
    9.8464  -15.8987   24.2474 N   0  0  0  0  0  0  0  0  0  0  0  0
    9.4384  -15.6141   25.6118 C   0  0  1  0  0  0  0  0  0  0  0  0
    7.9560  -15.4271   25.6014 C   0  0  0  0  0  0  0  0  0  0  0  0
    7.5566  -14.0387   25.9266 C   0  0  0  0  0  0  0  0  0  0  0  0
    6.4370  -13.8428   26.7204 C   0  0  0  0  0  0  0  0  0  0  0  0
    6.0005  -12.5859   27.0729 C   0  0  0  0  0  0  0  0  0  0  0  0
    6.7060  -11.4942   26.6169 C   0  0  0  0  0  0  0  0  0  0  0  0
    7.8237  -11.6648   25.8254 C   0  0  0  0  0  0  0  0  0  0  0  0
    8.2407  -12.9349   25.4862 C   0  0  0  0  0  0  0  0  0  0  0  0
    9.9143  -16.6233   26.5599 C   0  0  0  0  0  0  0  0  0  0  0  0
   10.6320  -16.2458   27.7099 O   0  0  0  0  0  0  0  0  0  0  0  0
    9.7143  -17.8496   26.4044 O   0  0  0  0  0  0  0  0  0  0  0  0
  2  1  1  6
  3  2  1  0
  4  3  1  0
  5  2  1  0
  5  6  2  0
  8  7  1  6
  8  9  1  0
  8 10  1  0
 10 11  1  1
 11  5  1  0
 12 10  1  0
 13 12  2  0
 14 12  1  0
 15 14  1  0
 15 16  1  6
 16 17  1  0
 17 22  2  0
 18 19  2  0
 18 17  1  0
 19 20  1  0
 20 21  2  0
 22 21  1  0
 23 15  1  0
 24 23  1  0
 25 23  2  0
M  END
$$$$
