CTF.pdb
     RDKit          3D

 25 25  0  0  1  0  0  0  0  0999 V2000
    8.0189  -14.7299   17.5734 N   0  0  0  0  0  0  0  0  0  0  0  0
    8.4555  -14.2160   18.8339 C   0  0  1  0  0  0  0  0  0  0  0  0
    7.8594  -12.8649   19.1590 C   0  0  0  0  0  0  0  0  0  0  0  0
    8.9361  -11.8534   20.1752 S   0  0  0  0  0  0  0  0  0  0  0  0
    7.9967  -15.1497   19.9217 C   0  0  0  0  0  0  0  0  0  0  0  0
    6.9945  -15.8909   19.7491 O   0  0  0  0  0  0  0  0  0  0  0  0
    7.9686  -17.8361   20.2659 C   0  0  0  0  0  0  0  0  0  0  0  0
    8.6962  -17.5957   21.5568 C   0  0  1  0  0  0  0  0  0  0  0  0
   10.0631  -17.6012   21.2862 O   0  0  0  0  0  0  0  0  0  0  0  0
    8.2651  -16.2400   22.1259 C   0  0  2  0  0  0  0  0  0  0  0  0
    8.6656  -15.2300   21.1655 N   0  0  0  0  0  0  0  0  0  0  0  0
    8.9531  -16.0092   23.4271 C   0  0  0  0  0  0  0  0  0  0  0  0
   10.1329  -15.5875   23.4252 O   0  0  0  0  0  0  0  0  0  0  0  0
    8.3264  -16.2474   24.6626 N   0  0  0  0  0  0  0  0  0  0  0  0
    8.9394  -15.8939   25.9308 C   0  0  1  0  0  0  0  0  0  0  0  0
    7.8456  -15.4351   26.8394 C   0  0  0  0  0  0  0  0  0  0  0  0
    7.3994  -14.0553   26.5391 C   0  0  0  0  0  0  0  0  0  0  0  0
    6.0680  -13.8486   26.2124 C   0  0  0  0  0  0  0  0  0  0  0  0
    5.5707  -12.5979   25.9241 C   0  0  0  0  0  0  0  0  0  0  0  0
    6.4322  -11.5238   25.9643 C   0  0  0  0  0  0  0  0  0  0  0  0
    7.7617  -11.7053   26.2870 C   0  0  0  0  0  0  0  0  0  0  0  0
    8.2354  -12.9689   26.5719 C   0  0  0  0  0  0  0  0  0  0  0  0
    9.7636  -16.9753   26.4742 C   0  0  0  0  0  0  0  0  0  0  0  0
    9.7989  -18.2349   25.8480 O   0  0  0  0  0  0  0  0  0  0  0  0
   10.4665  -16.8432   27.5020 O   0  0  0  0  0  0  0  0  0  0  0  0
  2  1  1  6
  3  2  1  0
  4  3  1  0
  5  2  1  0
  5  6  2  0
  8  7  1  6
  8  9  1  0
  8 10  1  0
 10 11  1  6
 11  5  1  0
 12 10  1  0
 13 12  2  0
 14 12  1  0
 15 14  1  0
 15 16  1  1
 16 17  1  0
 17 22  2  0
 18 19  2  0
 18 17  1  0
 19 20  1  0
 20 21  2  0
 22 21  1  0
 23 15  1  0
 24 23  1  0
 25 23  2  0
M  END
$$$$
