IPC.pdb
     RDKit          3D

 22 22  0  0  1  0  0  0  0  0999 V2000
   17.0280  -10.3244  -14.4512 C   0  0  0  0  0  0  0  0  0  0  0  0
   18.2855  -10.7095  -15.1779 C   0  0  0  0  0  0  0  0  0  0  0  0
   18.0705  -10.8806  -16.6597 C   0  0  2  0  0  0  0  0  0  0  0  0
   17.1071  -12.0029  -16.9000 C   0  0  0  0  0  0  0  0  0  0  0  0
   19.4072  -11.1463  -17.3424 C   0  0  2  0  0  0  0  0  0  0  0  0
   19.9068  -12.3874  -16.8795 N   0  0  0  0  0  0  0  0  0  0  0  0
   20.2878   -9.9847  -17.2380 C   0  0  0  0  0  0  0  0  0  0  0  0
   21.3829  -10.2054  -16.6053 O   0  0  0  0  0  0  0  0  0  0  0  0
   20.0813   -8.6879  -17.7364 N   0  0  0  0  0  0  0  0  0  0  0  0
   18.9775   -8.0905  -18.4389 C   0  0  0  0  0  0  0  0  0  0  0  0
   19.6945   -7.5042  -19.6403 C   0  0  0  0  0  0  0  0  0  0  0  0
   20.9120   -6.8860  -18.9424 C   0  0  0  0  0  0  0  0  0  0  0  0
   21.0462   -7.5993  -17.6203 C   0  0  1  0  0  0  0  0  0  0  0  0
   20.7406   -6.7093  -16.4694 C   0  0  0  0  0  0  0  0  0  0  0  0
   19.5527   -6.7272  -16.0525 O   0  0  0  0  0  0  0  0  0  0  0  0
   21.6655   -5.8701  -15.8322 N   0  0  0  0  0  0  0  0  0  0  0  0
   21.2917   -5.0923  -14.6815 C   0  0  1  0  0  0  0  0  0  0  0  0
   22.3063   -5.1972  -13.5623 C   0  0  0  0  0  0  0  0  0  0  0  0
   22.2798   -6.9182  -12.9834 S   0  0  0  0  0  0  0  0  0  0  0  0
   21.1362   -3.6536  -14.9947 C   0  0  0  0  0  0  0  0  0  0  0  0
   20.5944   -2.8020  -14.0711 O   0  0  0  0  0  0  0  0  0  0  0  0
   21.5118   -3.2457  -16.1185 O   0  0  0  0  0  0  0  0  0  0  0  0
  1  2  1  0
  2  3  1  0
  3  5  1  0
  3  4  1  1
  5  7  1  0
  5  6  1  1
  7  9  1  0
  7  8  2  0
  9 10  1  0
 11 10  1  0
 12 13  1  0
 12 11  1  0
 13  9  1  0
 13 14  1  1
 14 16  1  0
 15 14  2  0
 17 16  1  0
 17 20  1  0
 17 18  1  1
 18 19  1  0
 20 21  1  0
 22 20  2  0
M  END
$$$$
