IPC.pdb
     RDKit          3D

 22 22  0  0  1  0  0  0  0  0999 V2000
   16.6795  -12.6911  -15.7999 C   0  0  0  0  0  0  0  0  0  0  0  0
   17.7830  -12.4952  -16.8007 C   0  0  0  0  0  0  0  0  0  0  0  0
   18.6602  -11.3141  -16.4739 C   0  0  2  0  0  0  0  0  0  0  0  0
   17.8346  -10.0635  -16.4667 C   0  0  0  0  0  0  0  0  0  0  0  0
   19.7918  -11.2213  -17.4908 C   0  0  2  0  0  0  0  0  0  0  0  0
   20.3956  -12.4967  -17.6055 N   0  0  0  0  0  0  0  0  0  0  0  0
   20.6652  -10.0865  -17.1993 C   0  0  0  0  0  0  0  0  0  0  0  0
   21.6394  -10.3575  -16.4083 O   0  0  0  0  0  0  0  0  0  0  0  0
   20.5659   -8.7675  -17.6713 N   0  0  0  0  0  0  0  0  0  0  0  0
   19.6097   -8.1211  -18.5296 C   0  0  0  0  0  0  0  0  0  0  0  0
   20.5331   -7.5031  -19.5623 C   0  0  0  0  0  0  0  0  0  0  0  0
   21.6179   -6.9370  -18.6380 C   0  0  0  0  0  0  0  0  0  0  0  0
   21.5097   -7.7038  -17.3437 C   0  0  1  0  0  0  0  0  0  0  0  0
   21.0193   -6.8532  -16.2273 C   0  0  0  0  0  0  0  0  0  0  0  0
   19.7695   -6.7618  -16.1053 O   0  0  0  0  0  0  0  0  0  0  0  0
   21.8369   -6.1615  -15.3225 N   0  0  0  0  0  0  0  0  0  0  0  0
   21.2693   -5.3973  -14.2442 C   0  0  1  0  0  0  0  0  0  0  0  0
   22.0132   -5.6012  -12.9412 C   0  0  0  0  0  0  0  0  0  0  0  0
   21.6715   -7.2995  -12.3966 S   0  0  0  0  0  0  0  0  0  0  0  0
   21.2647   -3.9427  -14.5201 C   0  0  0  0  0  0  0  0  0  0  0  0
   20.5726   -3.0890  -13.7051 O   0  0  0  0  0  0  0  0  0  0  0  0
   21.9068   -3.5234  -15.5111 O   0  0  0  0  0  0  0  0  0  0  0  0
  1  2  1  0
  2  3  1  0
  3  5  1  0
  3  4  1  6
  5  7  1  0
  5  6  1  1
  7  9  1  0
  7  8  2  0
  9 10  1  0
 11 10  1  0
 12 13  1  0
 12 11  1  0
 13  9  1  0
 13 14  1  1
 14 16  1  0
 15 14  2  0
 17 16  1  0
 17 20  1  0
 17 18  1  1
 18 19  1  0
 20 21  1  0
 22 20  2  0
M  END
$$$$
