IPC.pdb
     RDKit          3D

 22 22  0  0  1  0  0  0  0  0999 V2000
   25.0406  -16.6446  -18.9832 C   0  0  0  0  0  0  0  0  0  0  0  0
   26.1443  -17.6192  -18.6836 C   0  0  0  0  0  0  0  0  0  0  0  0
   25.8894  -18.4181  -17.4315 C   0  0  2  0  0  0  0  0  0  0  0  0
   25.7750  -17.4908  -16.2599 C   0  0  0  0  0  0  0  0  0  0  0  0
   27.0161  -19.4245  -17.2294 C   0  0  2  0  0  0  0  0  0  0  0  0
   27.1920  -20.1467  -18.4343 N   0  0  0  0  0  0  0  0  0  0  0  0
   26.8146  -20.1964  -16.0050 C   0  0  0  0  0  0  0  0  0  0  0  0
   26.0275  -21.2021  -16.1363 O   0  0  0  0  0  0  0  0  0  0  0  0
   27.3674  -19.9723  -14.7335 N   0  0  0  0  0  0  0  0  0  0  0  0
   28.2100  -18.9255  -14.2204 C   0  0  0  0  0  0  0  0  0  0  0  0
   29.3339  -19.7431  -13.6126 C   0  0  0  0  0  0  0  0  0  0  0  0
   28.5144  -20.8294  -12.9055 C   0  0  0  0  0  0  0  0  0  0  0  0
   27.1674  -20.8487  -13.5839 C   0  0  1  0  0  0  0  0  0  0  0  0
   26.0840  -20.3551  -12.6936 C   0  0  0  0  0  0  0  0  0  0  0  0
   26.0304  -19.1091  -12.5208 O   0  0  0  0  0  0  0  0  0  0  0  0
   25.1399  -21.1659  -12.0479 N   0  0  0  0  0  0  0  0  0  0  0  0
   24.1376  -20.5966  -11.1875 C   0  0  1  0  0  0  0  0  0  0  0  0
   22.7347  -20.9883  -11.6015 C   0  0  0  0  0  0  0  0  0  0  0  0
   22.7575  -22.7752  -11.9243 S   0  0  0  0  0  0  0  0  0  0  0  0
   24.3045  -21.0045   -9.7741 C   0  0  0  0  0  0  0  0  0  0  0  0
   25.3021  -21.8714   -9.4204 O   0  0  0  0  0  0  0  0  0  0  0  0
   23.5130  -20.5366   -8.9226 O   0  0  0  0  0  0  0  0  0  0  0  0
  1  2  1  0
  2  3  1  0
  3  5  1  0
  3  4  1  1
  5  7  1  0
  5  6  1  6
  7  9  1  0
  7  8  2  0
  9 10  1  0
 11 10  1  0
 12 13  1  0
 12 11  1  0
 13  9  1  0
 13 14  1  1
 14 16  1  0
 15 14  2  0
 17 16  1  0
 17 20  1  0
 17 18  1  6
 18 19  1  0
 20 21  1  0
 22 20  2  0
M  END
$$$$
