IPC.pdb
     RDKit          3D

 22 22  0  0  1  0  0  0  0  0999 V2000
   26.4368  -16.6163  -18.0478 C   0  0  0  0  0  0  0  0  0  0  0  0
   27.2688  -17.8356  -17.7668 C   0  0  0  0  0  0  0  0  0  0  0  0
   26.9426  -18.4675  -16.4381 C   0  0  2  0  0  0  0  0  0  0  0  0
   27.1952  -17.4811  -15.3386 C   0  0  0  0  0  0  0  0  0  0  0  0
   27.7809  -19.7267  -16.2518 C   0  0  2  0  0  0  0  0  0  0  0  0
   27.6748  -20.5122  -17.4248 N   0  0  0  0  0  0  0  0  0  0  0  0
   27.4758  -20.3744  -14.9778 C   0  0  0  0  0  0  0  0  0  0  0  0
   26.4828  -21.1869  -15.0211 O   0  0  0  0  0  0  0  0  0  0  0  0
   28.1255  -20.2158  -13.7427 N   0  0  0  0  0  0  0  0  0  0  0  0
   29.2438  -19.4059  -13.3397 C   0  0  0  0  0  0  0  0  0  0  0  0
   30.1283  -20.4532  -12.6901 C   0  0  0  0  0  0  0  0  0  0  0  0
   29.0763  -21.2150  -11.8747 C   0  0  0  0  0  0  0  0  0  0  0  0
   27.7460  -20.9136  -12.5186 C   0  0  1  0  0  0  0  0  0  0  0  0
   26.8795  -20.0748  -11.6492 C   0  0  0  0  0  0  0  0  0  0  0  0
   26.7324  -18.8752  -12.0021 O   0  0  0  0  0  0  0  0  0  0  0  0
   26.2305  -20.5201  -10.4890 N   0  0  0  0  0  0  0  0  0  0  0  0
   24.8676  -20.1518  -10.2134 C   0  0  1  0  0  0  0  0  0  0  0  0
   23.9192  -20.5989  -11.3058 C   0  0  0  0  0  0  0  0  0  0  0  0
   22.2663  -20.0014  -10.8491 S   0  0  0  0  0  0  0  0  0  0  0  0
   24.3702  -20.7263   -8.9428 C   0  0  0  0  0  0  0  0  0  0  0  0
   23.8703  -19.9089   -7.9661 O   0  0  0  0  0  0  0  0  0  0  0  0
   24.4208  -21.9693   -8.7920 O   0  0  0  0  0  0  0  0  0  0  0  0
  1  2  1  0
  2  3  1  0
  3  5  1  0
  3  4  1  1
  5  7  1  0
  5  6  1  6
  7  9  1  0
  7  8  2  0
  9 10  1  0
 11 10  1  0
 12 13  1  0
 12 11  1  0
 13  9  1  0
 13 14  1  1
 14 16  1  0
 15 14  2  0
 17 16  1  0
 17 20  1  0
 17 18  1  6
 18 19  1  0
 20 21  1  0
 22 20  2  0
M  END
$$$$
