IPC.pdb
     RDKit          3D

 22 22  0  0  1  0  0  0  0  0999 V2000
   26.5531  -26.8832  -17.3268 C   0  0  0  0  0  0  0  0  0  0  0  0
   27.4286  -25.7624  -16.8419 C   0  0  0  0  0  0  0  0  0  0  0  0
   28.8048  -25.7936  -17.4553 C   0  0  2  0  0  0  0  0  0  0  0  0
   29.4735  -27.0922  -17.1202 C   0  0  0  0  0  0  0  0  0  0  0  0
   29.6174  -24.6084  -16.9474 C   0  0  2  0  0  0  0  0  0  0  0  0
   28.8846  -23.4233  -17.1983 N   0  0  0  0  0  0  0  0  0  0  0  0
   30.9920  -24.6671  -17.4402 C   0  0  0  0  0  0  0  0  0  0  0  0
   31.1836  -24.0509  -18.5500 O   0  0  0  0  0  0  0  0  0  0  0  0
   32.0999  -25.3028  -16.8562 N   0  0  0  0  0  0  0  0  0  0  0  0
   32.2618  -26.0051  -15.6115 C   0  0  0  0  0  0  0  0  0  0  0  0
   33.4662  -25.2834  -15.0373 C   0  0  0  0  0  0  0  0  0  0  0  0
   34.3497  -25.2121  -16.2888 C   0  0  0  0  0  0  0  0  0  0  0  0
   33.4230  -25.3749  -17.4676 C   0  0  1  0  0  0  0  0  0  0  0  0
   33.6364  -26.6651  -18.1747 C   0  0  0  0  0  0  0  0  0  0  0  0
   32.6989  -27.5022  -18.0996 O   0  0  0  0  0  0  0  0  0  0  0  0
   34.7857  -27.0044  -18.9024 N   0  0  0  0  0  0  0  0  0  0  0  0
   34.6996  -27.8029  -20.0956 C   0  0  1  0  0  0  0  0  0  0  0  0
   33.8395  -27.1550  -21.1602 C   0  0  0  0  0  0  0  0  0  0  0  0
   33.7321  -28.3293  -22.5412 S   0  0  0  0  0  0  0  0  0  0  0  0
   36.0249  -28.0600  -20.7035 C   0  0  0  0  0  0  0  0  0  0  0  0
   36.3303  -29.3016  -21.1907 O   0  0  0  0  0  0  0  0  0  0  0  0
   36.8478  -27.1165  -20.7571 O   0  0  0  0  0  0  0  0  0  0  0  0
  1  2  1  0
  2  3  1  0
  3  5  1  0
  3  4  1  1
  5  7  1  0
  5  6  1  6
  7  9  1  0
  7  8  2  0
  9 10  1  0
 11 10  1  0
 12 13  1  0
 12 11  1  0
 13  9  1  0
 13 14  1  1
 14 16  1  0
 15 14  2  0
 17 16  1  0
 17 20  1  0
 17 18  1  6
 18 19  1  0
 20 21  1  0
 22 20  2  0
M  END
$$$$
