IPC.pdb
     RDKit          3D

 22 22  0  0  1  0  0  0  0  0999 V2000
   14.9448  -12.3100  -17.2312 C   0  0  0  0  0  0  0  0  0  0  0  0
   16.4261  -12.2029  -17.0034 C   0  0  0  0  0  0  0  0  0  0  0  0
   16.7688  -11.3741  -15.7923 C   0  0  2  0  0  0  0  0  0  0  0  0
   16.2811   -9.9711  -15.9908 C   0  0  0  0  0  0  0  0  0  0  0  0
   18.2750  -11.4062  -15.5608 C   0  0  2  0  0  0  0  0  0  0  0  0
   18.7122  -12.7499  -15.6474 N   0  0  0  0  0  0  0  0  0  0  0  0
   18.6356  -10.6568  -14.3591 C   0  0  0  0  0  0  0  0  0  0  0  0
   18.4915  -11.3110  -13.2639 O   0  0  0  0  0  0  0  0  0  0  0  0
   19.1093   -9.3380  -14.2647 N   0  0  0  0  0  0  0  0  0  0  0  0
   19.3508   -8.3278  -15.2597 C   0  0  0  0  0  0  0  0  0  0  0  0
   20.7819   -7.9473  -14.9309 C   0  0  0  0  0  0  0  0  0  0  0  0
   20.6873   -7.8690  -13.4023 C   0  0  0  0  0  0  0  0  0  0  0  0
   19.4800   -8.6853  -13.0133 C   0  0  1  0  0  0  0  0  0  0  0  0
   18.3785   -7.8395  -12.4827 C   0  0  0  0  0  0  0  0  0  0  0  0
   17.5598   -7.3963  -13.3304 O   0  0  0  0  0  0  0  0  0  0  0  0
   18.1951   -7.5094  -11.1325 N   0  0  0  0  0  0  0  0  0  0  0  0
   17.0650   -6.7282  -10.7066 C   0  0  1  0  0  0  0  0  0  0  0  0
   16.7905   -6.8746   -9.2247 C   0  0  0  0  0  0  0  0  0  0  0  0
   15.2939   -5.9108   -8.8657 S   0  0  0  0  0  0  0  0  0  0  0  0
   17.2397   -5.2830  -10.9765 C   0  0  0  0  0  0  0  0  0  0  0  0
   16.1544   -4.4979  -11.2550 O   0  0  0  0  0  0  0  0  0  0  0  0
   18.3986   -4.8074  -10.9422 O   0  0  0  0  0  0  0  0  0  0  0  0
  1  2  1  0
  2  3  1  0
  3  5  1  0
  3  4  1  6
  5  7  1  0
  5  6  1  1
  7  9  1  0
  7  8  2  0
  9 10  1  0
 11 10  1  0
 12 13  1  0
 12 11  1  0
 13  9  1  0
 13 14  1  6
 14 16  1  0
 15 14  2  0
 17 16  1  0
 17 20  1  0
 17 18  1  1
 18 19  1  0
 20 21  1  0
 22 20  2  0
M  END
$$$$
