IPC.pdb
     RDKit          3D

 22 22  0  0  1  0  0  0  0  0999 V2000
   12.0235  -23.8315    1.5770 C   0  0  0  0  0  0  0  0  0  0  0  0
   13.1952  -22.9319    1.3023 C   0  0  0  0  0  0  0  0  0  0  0  0
   14.4814  -23.4600    1.8838 C   0  0  2  0  0  0  0  0  0  0  0  0
   14.3896  -23.4667    3.3796 C   0  0  0  0  0  0  0  0  0  0  0  0
   15.6476  -22.6019    1.4074 C   0  0  2  0  0  0  0  0  0  0  0  0
   15.6135  -22.5465   -0.0068 N   0  0  0  0  0  0  0  0  0  0  0  0
   16.8981  -23.0242    2.0348 C   0  0  0  0  0  0  0  0  0  0  0  0
   17.5861  -23.8548    1.3383 O   0  0  0  0  0  0  0  0  0  0  0  0
   17.4220  -22.6373    3.2792 N   0  0  0  0  0  0  0  0  0  0  0  0
   16.9077  -21.7858    4.3181 C   0  0  0  0  0  0  0  0  0  0  0  0
   18.0747  -20.8349    4.5042 C   0  0  0  0  0  0  0  0  0  0  0  0
   19.2345  -21.8381    4.4907 C   0  0  0  0  0  0  0  0  0  0  0  0
   18.7143  -23.0731    3.7985 C   0  0  1  0  0  0  0  0  0  0  0  0
   18.5769  -24.2227    4.7310 C   0  0  0  0  0  0  0  0  0  0  0  0
   17.4623  -24.3440    5.3040 O   0  0  0  0  0  0  0  0  0  0  0  0
   19.5827  -25.1590    5.0091 N   0  0  0  0  0  0  0  0  0  0  0  0
   19.3590  -26.2347    5.9375 C   0  0  1  0  0  0  0  0  0  0  0  0
   20.2091  -27.4485    5.6268 C   0  0  0  0  0  0  0  0  0  0  0  0
   19.8208  -27.9449    3.9237 S   0  0  0  0  0  0  0  0  0  0  0  0
   19.6488  -25.8466    7.3366 C   0  0  0  0  0  0  0  0  0  0  0  0
   19.3775  -26.7111    8.3617 O   0  0  0  0  0  0  0  0  0  0  0  0
   20.1443  -24.7154    7.5495 O   0  0  0  0  0  0  0  0  0  0  0  0
  1  2  1  0
  2  3  1  0
  3  5  1  0
  3  4  1  1
  5  7  1  0
  5  6  1  6
  7  9  1  0
  7  8  2  0
  9 10  1  0
 11 10  1  0
 12 13  1  0
 12 11  1  0
 13  9  1  0
 13 14  1  1
 14 16  1  0
 15 14  2  0
 17 16  1  0
 17 20  1  0
 17 18  1  6
 18 19  1  0
 20 21  1  0
 22 20  2  0
M  END
$$$$
