IPC.pdb
     RDKit          3D

 22 22  0  0  1  0  0  0  0  0999 V2000
   16.9172  -10.4824    8.9978 C   0  0  0  0  0  0  0  0  0  0  0  0
   18.3316  -10.6252    8.5111 C   0  0  0  0  0  0  0  0  0  0  0  0
   18.7164  -12.0602    8.2582 C   0  0  2  0  0  0  0  0  0  0  0  0
   18.4789  -12.8686    9.4975 C   0  0  0  0  0  0  0  0  0  0  0  0
   20.1767  -12.1291    7.8271 C   0  0  2  0  0  0  0  0  0  0  0  0
   20.3657  -11.2374    6.7438 N   0  0  0  0  0  0  0  0  0  0  0  0
   20.6022  -13.5147    7.6407 C   0  0  0  0  0  0  0  0  0  0  0  0
   20.4664  -13.9538    6.4420 O   0  0  0  0  0  0  0  0  0  0  0  0
   21.1290  -14.3997    8.5957 N   0  0  0  0  0  0  0  0  0  0  0  0
   21.3661  -14.2634   10.0078 C   0  0  0  0  0  0  0  0  0  0  0  0
   22.8232  -14.6773   10.0884 C   0  0  0  0  0  0  0  0  0  0  0  0
   22.7965  -15.9084    9.1744 C   0  0  0  0  0  0  0  0  0  0  0  0
   21.5769  -15.7567    8.3000 C   0  0  1  0  0  0  0  0  0  0  0  0
   20.5316  -16.7656    8.6158 C   0  0  0  0  0  0  0  0  0  0  0  0
   19.4025  -16.3136    8.9414 O   0  0  0  0  0  0  0  0  0  0  0  0
   20.7152  -18.1550    8.5766 N   0  0  0  0  0  0  0  0  0  0  0  0
   19.6461  -19.0339    8.1847 C   0  0  1  0  0  0  0  0  0  0  0  0
   19.1242  -18.7218    6.7980 C   0  0  0  0  0  0  0  0  0  0  0  0
   17.7537  -19.8692    6.4775 S   0  0  0  0  0  0  0  0  0  0  0  0
   20.0520  -20.4578    8.1870 C   0  0  0  0  0  0  0  0  0  0  0  0
   19.2730  -21.3953    8.8084 O   0  0  0  0  0  0  0  0  0  0  0  0
   21.1182  -20.7732    7.6091 O   0  0  0  0  0  0  0  0  0  0  0  0
  1  2  1  0
  2  3  1  0
  3  5  1  0
  3  4  1  1
  5  7  1  0
  5  6  1  6
  7  9  1  0
  7  8  2  0
  9 10  1  0
 11 10  1  0
 12 13  1  0
 12 11  1  0
 13  9  1  0
 13 14  1  1
 14 16  1  0
 15 14  2  0
 17 16  1  0
 17 20  1  0
 17 18  1  6
 18 19  1  0
 20 21  1  0
 22 20  2  0
M  END
$$$$
