VDP.pdb
     RDKit          3D

 23 23  0  0  1  0  0  0  0  0999 V2000
   15.7409   -8.8148  -15.8609 C   0  0  0  0  0  0  0  0  0  0  0  0
   15.6965  -10.2528  -15.3617 C   0  0  2  0  0  0  0  0  0  0  0  0
   15.8082  -10.2009  -13.8538 C   0  0  0  0  0  0  0  0  0  0  0  0
   16.8897  -10.9662  -15.9615 C   0  0  2  0  0  0  0  0  0  0  0  0
   17.0157  -12.3144  -15.4908 N   0  0  0  0  0  0  0  0  0  0  0  0
   18.1502  -10.1955  -15.7264 C   0  0  0  0  0  0  0  0  0  0  0  0
   18.8610  -10.3575  -14.7041 O   0  0  0  0  0  0  0  0  0  0  0  0
   18.6263   -9.2121  -16.6701 N   0  0  0  0  0  0  0  0  0  0  0  0
   19.8812   -8.5482  -16.5137 C   0  0  1  0  0  0  0  0  0  0  0  0
   20.5602   -8.2827  -17.8522 C   0  0  0  0  0  0  0  0  0  0  0  0
   21.8895   -7.6876  -17.6919 C   0  0  0  0  0  0  0  0  0  0  0  0
   22.1421   -6.4790  -17.9163 O   0  0  0  0  0  0  0  0  0  0  0  0
   19.7118   -7.2346  -15.8727 C   0  0  0  0  0  0  0  0  0  0  0  0
   18.6155   -6.6412  -16.2706 O   0  0  0  0  0  0  0  0  0  0  0  0
   22.9391   -8.4905  -17.2692 O   0  0  0  0  0  0  0  0  0  0  0  0
   20.5452   -6.5908  -14.9425 N   0  0  0  0  0  0  0  0  0  0  0  0
   21.7939   -7.0259  -14.4021 C   0  0  0  0  0  0  0  0  0  0  0  0
   22.3267   -5.8280  -13.5884 C   0  0  0  0  0  0  0  0  0  0  0  0
   20.9816   -5.2650  -13.0880 C   0  0  0  0  0  0  0  0  0  0  0  0
   20.2267   -5.2947  -14.3869 C   0  0  1  0  0  0  0  0  0  0  0  0
   20.7635   -4.2042  -15.2480 C   0  0  0  0  0  0  0  0  0  0  0  0
   21.5125   -4.4370  -16.3793 O   0  0  0  0  0  0  0  0  0  0  0  0
   20.5185   -3.0325  -14.9218 O   0  0  0  0  0  0  0  0  0  0  0  0
  2  3  1  1
  2  1  1  0
  4  5  1  1
  4  2  1  0
  6  4  1  0
  7  6  2  0
  8  6  1  0
  9  8  1  0
  9 10  1  6
 10 11  1  0
 11 12  2  0
 13  9  1  0
 13 14  2  0
 15 11  1  0
 16 13  1  0
 17 16  1  0
 18 17  1  0
 19 20  1  0
 19 18  1  0
 20 16  1  0
 21 22  1  0
 20 21  1  6
 23 21  2  0
M  END
$$$$
