VDP.pdb
     RDKit          3D

 23 23  0  0  1  0  0  0  0  0999 V2000
   22.2621  -19.2761  -10.8154 C   0  0  0  0  0  0  0  0  0  0  0  0
   22.4473  -20.7861  -10.8815 C   0  0  2  0  0  0  0  0  0  0  0  0
   21.4869  -21.3935   -9.8827 C   0  0  0  0  0  0  0  0  0  0  0  0
   23.8806  -21.0737  -10.4874 C   0  0  2  0  0  0  0  0  0  0  0  0
   24.2035  -20.5665   -9.1860 N   0  0  0  0  0  0  0  0  0  0  0  0
   24.8348  -20.5566  -11.5170 C   0  0  0  0  0  0  0  0  0  0  0  0
   25.4981  -19.5028  -11.3553 O   0  0  0  0  0  0  0  0  0  0  0  0
   25.0499  -21.2458  -12.7673 N   0  0  0  0  0  0  0  0  0  0  0  0
   25.9821  -20.7816  -13.7447 C   0  0  1  0  0  0  0  0  0  0  0  0
   26.4219  -21.8927  -14.6908 C   0  0  0  0  0  0  0  0  0  0  0  0
   27.3862  -21.4228  -15.6889 C   0  0  0  0  0  0  0  0  0  0  0  0
   27.0872  -21.1753  -16.8823 O   0  0  0  0  0  0  0  0  0  0  0  0
   25.3885  -19.7343  -14.5908 C   0  0  0  0  0  0  0  0  0  0  0  0
   24.1704  -20.0424  -14.9568 O   0  0  0  0  0  0  0  0  0  0  0  0
   28.7079  -21.2354  -15.3106 O   0  0  0  0  0  0  0  0  0  0  0  0
   25.9511  -18.5207  -15.0208 N   0  0  0  0  0  0  0  0  0  0  0  0
   27.2669  -18.0111  -14.7985 C   0  0  0  0  0  0  0  0  0  0  0  0
   27.3640  -16.7382  -15.6654 C   0  0  0  0  0  0  0  0  0  0  0  0
   25.9026  -16.2612  -15.5496 C   0  0  0  0  0  0  0  0  0  0  0  0
   25.2154  -17.5693  -15.8230 C   0  0  1  0  0  0  0  0  0  0  0  0
   25.3716  -17.8686  -17.2738 C   0  0  0  0  0  0  0  0  0  0  0  0
   26.1777  -18.8765  -17.7526 O   0  0  0  0  0  0  0  0  0  0  0  0
   24.7406  -17.1704  -18.0823 O   0  0  0  0  0  0  0  0  0  0  0  0
  2  3  1  1
  2  1  1  0
  4  5  1  1
  4  2  1  0
  6  4  1  0
  7  6  2  0
  8  6  1  0
  9  8  1  0
  9 10  1  6
 10 11  1  0
 11 12  2  0
 13  9  1  0
 13 14  2  0
 15 11  1  0
 16 13  1  0
 17 16  1  0
 18 17  1  0
 19 20  1  0
 19 18  1  0
 20 16  1  0
 21 22  1  0
 20 21  1  6
 23 21  2  0
M  END
$$$$
