VDP.pdb
     RDKit          3D

 23 23  0  0  1  0  0  0  0  0999 V2000
   26.9157  -20.5510  -12.9394 C   0  0  0  0  0  0  0  0  0  0  0  0
   26.5325  -21.4995  -14.0675 C   0  0  2  0  0  0  0  0  0  0  0  0
   27.8206  -22.0479  -14.6409 C   0  0  0  0  0  0  0  0  0  0  0  0
   25.7934  -20.6790  -15.1033 C   0  0  2  0  0  0  0  0  0  0  0  0
   26.6456  -19.7351  -15.7651 N   0  0  0  0  0  0  0  0  0  0  0  0
   24.6046  -19.9989  -14.5014 C   0  0  0  0  0  0  0  0  0  0  0  0
   24.6685  -18.8551  -13.9872 O   0  0  0  0  0  0  0  0  0  0  0  0
   23.3035  -20.6242  -14.4767 N   0  0  0  0  0  0  0  0  0  0  0  0
   22.1554  -19.9770  -13.9264 C   0  0  1  0  0  0  0  0  0  0  0  0
   21.1085  -19.6650  -14.9893 C   0  0  0  0  0  0  0  0  0  0  0  0
   19.9267  -19.0054  -14.4279 C   0  0  0  0  0  0  0  0  0  0  0  0
   19.9433  -17.8525  -13.9324 O   0  0  0  0  0  0  0  0  0  0  0  0
   21.4878  -20.8324  -12.9325 C   0  0  0  0  0  0  0  0  0  0  0  0
   21.2538  -22.0297  -13.4059 O   0  0  0  0  0  0  0  0  0  0  0  0
   18.7135  -19.6784  -14.4364 O   0  0  0  0  0  0  0  0  0  0  0  0
   21.0990  -20.5226  -11.6183 N   0  0  0  0  0  0  0  0  0  0  0  0
   21.1647  -19.2712  -10.9326 C   0  0  0  0  0  0  0  0  0  0  0  0
   20.4246  -19.4974   -9.5976 C   0  0  0  0  0  0  0  0  0  0  0  0
   20.8120  -20.9703   -9.3589 C   0  0  0  0  0  0  0  0  0  0  0  0
   20.5193  -21.5066  -10.7319 C   0  0  1  0  0  0  0  0  0  0  0  0
   19.0393  -21.5560  -10.8928 C   0  0  0  0  0  0  0  0  0  0  0  0
   18.3501  -20.7548  -11.7749 O   0  0  0  0  0  0  0  0  0  0  0  0
   18.4054  -22.3616  -10.1938 O   0  0  0  0  0  0  0  0  0  0  0  0
  2  3  1  6
  2  1  1  0
  4  5  1  1
  4  2  1  0
  6  4  1  0
  7  6  2  0
  8  6  1  0
  9  8  1  0
  9 10  1  6
 10 11  1  0
 11 12  2  0
 13  9  1  0
 13 14  2  0
 15 11  1  0
 16 13  1  0
 17 16  1  0
 18 17  1  0
 19 20  1  0
 19 18  1  0
 20 16  1  0
 21 22  1  0
 20 21  1  6
 23 21  2  0
M  END
$$$$
