VDP.pdb
     RDKit          3D

 23 23  0  0  1  0  0  0  0  0999 V2000
   24.0330  -21.2689   -9.4560 C   0  0  0  0  0  0  0  0  0  0  0  0
   25.1083  -21.1999  -10.5321 C   0  0  2  0  0  0  0  0  0  0  0  0
   26.3357  -20.5892   -9.8921 C   0  0  0  0  0  0  0  0  0  0  0  0
   24.5772  -20.3041  -11.6312 C   0  0  2  0  0  0  0  0  0  0  0  0
   23.2937  -20.7263  -12.1102 N   0  0  0  0  0  0  0  0  0  0  0  0
   25.5592  -20.1923  -12.7543 C   0  0  0  0  0  0  0  0  0  0  0  0
   26.6733  -19.6278  -12.6246 O   0  0  0  0  0  0  0  0  0  0  0  0
   25.2800  -20.7322  -14.0639 N   0  0  0  0  0  0  0  0  0  0  0  0
   26.1929  -20.6013  -15.1545 C   0  0  1  0  0  0  0  0  0  0  0  0
   26.0145  -21.7079  -16.1874 C   0  0  0  0  0  0  0  0  0  0  0  0
   26.6945  -22.9459  -15.7977 C   0  0  0  0  0  0  0  0  0  0  0  0
   26.0939  -24.0149  -15.5307 O   0  0  0  0  0  0  0  0  0  0  0  0
   25.9860  -19.3337  -15.8723 C   0  0  0  0  0  0  0  0  0  0  0  0
   24.7138  -19.0634  -16.0175 O   0  0  0  0  0  0  0  0  0  0  0  0
   28.0794  -22.9547  -15.7145 O   0  0  0  0  0  0  0  0  0  0  0  0
   26.9429  -18.4421  -16.3857 N   0  0  0  0  0  0  0  0  0  0  0  0
   28.3627  -18.5857  -16.4493 C   0  0  0  0  0  0  0  0  0  0  0  0
   28.8580  -17.3856  -17.2831 C   0  0  0  0  0  0  0  0  0  0  0  0
   27.8189  -16.3396  -16.8325 C   0  0  0  0  0  0  0  0  0  0  0  0
   26.5786  -17.1752  -16.9792 C   0  0  1  0  0  0  0  0  0  0  0  0
   26.3078  -17.3322  -18.4355 C   0  0  0  0  0  0  0  0  0  0  0  0
   26.4933  -18.5161  -19.1131 O   0  0  0  0  0  0  0  0  0  0  0  0
   25.8951  -16.3426  -19.0598 O   0  0  0  0  0  0  0  0  0  0  0  0
  2  3  1  1
  2  1  1  0
  4  5  1  6
  4  2  1  0
  6  4  1  0
  7  6  2  0
  8  6  1  0
  9  8  1  0
  9 10  1  6
 10 11  1  0
 11 12  2  0
 13  9  1  0
 13 14  2  0
 15 11  1  0
 16 13  1  0
 17 16  1  0
 18 17  1  0
 19 20  1  0
 19 18  1  0
 20 16  1  0
 21 22  1  0
 20 21  1  6
 23 21  2  0
M  END
$$$$
