VDP.pdb
     RDKit          3D

 23 23  0  0  1  0  0  0  0  0999 V2000
   24.1325  -10.0199  -16.5924 C   0  0  0  0  0  0  0  0  0  0  0  0
   23.6485  -10.4939  -15.2286 C   0  0  2  0  0  0  0  0  0  0  0  0
   24.6380  -11.5307  -14.7441 C   0  0  0  0  0  0  0  0  0  0  0  0
   22.2828  -11.1142  -15.4349 C   0  0  2  0  0  0  0  0  0  0  0  0
   22.3323  -12.2877  -16.2569 N   0  0  0  0  0  0  0  0  0  0  0  0
   21.3161  -10.1138  -15.9850 C   0  0  0  0  0  0  0  0  0  0  0  0
   21.1377   -9.9529  -17.2175 O   0  0  0  0  0  0  0  0  0  0  0  0
   20.5254   -9.2679  -15.1226 N   0  0  0  0  0  0  0  0  0  0  0  0
   19.5431   -8.3643  -15.6310 C   0  0  1  0  0  0  0  0  0  0  0  0
   18.3481   -8.2301  -14.6944 C   0  0  0  0  0  0  0  0  0  0  0  0
   17.5759   -9.4716  -14.5983 C   0  0  0  0  0  0  0  0  0  0  0  0
   17.3276  -10.2140  -15.5792 O   0  0  0  0  0  0  0  0  0  0  0  0
   20.0961   -7.0096  -15.7862 C   0  0  0  0  0  0  0  0  0  0  0  0
   21.0063   -6.7534  -14.8816 O   0  0  0  0  0  0  0  0  0  0  0  0
   17.0844   -9.8635  -13.3614 O   0  0  0  0  0  0  0  0  0  0  0  0
   19.7729   -6.0264  -16.7365 N   0  0  0  0  0  0  0  0  0  0  0  0
   18.7507   -6.0418  -17.7342 C   0  0  0  0  0  0  0  0  0  0  0  0
   18.7523   -4.6239  -18.3430 C   0  0  0  0  0  0  0  0  0  0  0  0
   20.2602   -4.3218  -18.2347 C   0  0  0  0  0  0  0  0  0  0  0  0
   20.4788   -4.7673  -16.8163 C   0  0  1  0  0  0  0  0  0  0  0  0
   19.8539   -3.7535  -15.9216 C   0  0  0  0  0  0  0  0  0  0  0  0
   20.4134   -2.5204  -15.6735 O   0  0  0  0  0  0  0  0  0  0  0  0
   18.7769   -4.0433  -15.3781 O   0  0  0  0  0  0  0  0  0  0  0  0
  2  3  1  6
  2  1  1  0
  4  5  1  6
  4  2  1  0
  6  4  1  0
  7  6  2  0
  8  6  1  0
  9  8  1  0
  9 10  1  1
 10 11  1  0
 11 12  2  0
 13  9  1  0
 13 14  2  0
 15 11  1  0
 16 13  1  0
 17 16  1  0
 18 17  1  0
 19 20  1  0
 19 18  1  0
 20 16  1  0
 21 22  1  0
 20 21  1  1
 23 21  2  0
M  END
$$$$
