VDP.pdb
     RDKit          3D

 23 23  0  0  1  0  0  0  0  0999 V2000
   21.0424  -10.7787    6.0892 C   0  0  0  0  0  0  0  0  0  0  0  0
   20.3351  -11.8095    6.9588 C   0  0  2  0  0  0  0  0  0  0  0  0
   21.3317  -12.9139    7.2345 C   0  0  0  0  0  0  0  0  0  0  0  0
   19.1633  -12.3353    6.1570 C   0  0  2  0  0  0  0  0  0  0  0  0
   18.1675  -11.3319    5.9192 N   0  0  0  0  0  0  0  0  0  0  0  0
   18.5649  -13.5417    6.8087 C   0  0  0  0  0  0  0  0  0  0  0  0
   17.8685  -13.4715    7.8511 O   0  0  0  0  0  0  0  0  0  0  0  0
   18.7554  -14.8682    6.2715 N   0  0  0  0  0  0  0  0  0  0  0  0
   18.1631  -16.0247    6.8645 C   0  0  1  0  0  0  0  0  0  0  0  0
   17.0824  -16.6334    5.9786 C   0  0  0  0  0  0  0  0  0  0  0  0
   16.4012  -17.7573    6.6267 C   0  0  0  0  0  0  0  0  0  0  0  0
   16.3619  -18.9165    6.1476 O   0  0  0  0  0  0  0  0  0  0  0  0
   19.1619  -17.0837    7.0785 C   0  0  0  0  0  0  0  0  0  0  0  0
   19.8728  -17.3012    6.0016 O   0  0  0  0  0  0  0  0  0  0  0  0
   15.7589  -17.5459    7.8382 O   0  0  0  0  0  0  0  0  0  0  0  0
   19.4170  -17.8374    8.2365 N   0  0  0  0  0  0  0  0  0  0  0  0
   18.7188  -17.8348    9.4828 C   0  0  0  0  0  0  0  0  0  0  0  0
   19.3299  -18.9951   10.2960 C   0  0  0  0  0  0  0  0  0  0  0  0
   20.7803  -18.9067    9.7810 C   0  0  0  0  0  0  0  0  0  0  0  0
   20.4920  -18.8012    8.3100 C   0  0  1  0  0  0  0  0  0  0  0  0
   20.0353  -20.1391    7.8407 C   0  0  0  0  0  0  0  0  0  0  0  0
   20.8803  -21.2165    7.6984 O   0  0  0  0  0  0  0  0  0  0  0  0
   18.8333  -20.2797    7.5674 O   0  0  0  0  0  0  0  0  0  0  0  0
  2  3  1  6
  2  1  1  0
  4  5  1  1
  4  2  1  0
  6  4  1  0
  7  6  2  0
  8  6  1  0
  9  8  1  0
  9 10  1  6
 10 11  1  0
 11 12  2  0
 13  9  1  0
 13 14  2  0
 15 11  1  0
 16 13  1  0
 17 16  1  0
 18 17  1  0
 19 20  1  0
 19 18  1  0
 20 16  1  0
 21 22  1  0
 20 21  1  1
 23 21  2  0
M  END
$$$$
