VDP.pdb
     RDKit          3D

 23 23  0  0  1  0  0  0  0  0999 V2000
   15.5986   -7.2002   -7.8354 C   0  0  0  0  0  0  0  0  0  0  0  0
   14.5744   -6.5831   -8.7783 C   0  0  2  0  0  0  0  0  0  0  0  0
   13.3898   -6.1677   -7.9339 C   0  0  0  0  0  0  0  0  0  0  0  0
   14.1758   -7.6604   -9.7647 C   0  0  2  0  0  0  0  0  0  0  0  0
   13.5712   -8.7923   -9.1256 N   0  0  0  0  0  0  0  0  0  0  0  0
   15.3414   -8.0774  -10.6047 C   0  0  0  0  0  0  0  0  0  0  0  0
   15.5931   -9.2803  -10.8624 O   0  0  0  0  0  0  0  0  0  0  0  0
   16.2522   -7.1119  -11.1727 N   0  0  0  0  0  0  0  0  0  0  0  0
   17.1794   -7.4517  -12.2047 C   0  0  1  0  0  0  0  0  0  0  0  0
   16.4864   -7.6981  -13.5397 C   0  0  0  0  0  0  0  0  0  0  0  0
   17.4279   -8.1003  -14.5880 C   0  0  0  0  0  0  0  0  0  0  0  0
   17.7153   -7.3834  -15.5771 O   0  0  0  0  0  0  0  0  0  0  0  0
   18.1400   -6.3615  -12.4369 C   0  0  0  0  0  0  0  0  0  0  0  0
   17.5541   -5.1915  -12.4252 O   0  0  0  0  0  0  0  0  0  0  0  0
   18.0452   -9.3395  -14.4977 O   0  0  0  0  0  0  0  0  0  0  0  0
   19.5258   -6.4362  -12.6565 N   0  0  0  0  0  0  0  0  0  0  0  0
   20.3463   -7.5914  -12.8382 C   0  0  0  0  0  0  0  0  0  0  0  0
   21.7370   -7.0477  -13.2271 C   0  0  0  0  0  0  0  0  0  0  0  0
   21.7281   -5.7539  -12.3887 C   0  0  0  0  0  0  0  0  0  0  0  0
   20.3574   -5.2576  -12.7532 C   0  0  1  0  0  0  0  0  0  0  0  0
   20.4130   -4.7639  -14.1575 C   0  0  0  0  0  0  0  0  0  0  0  0
   21.0018   -3.5719  -14.5144 O   0  0  0  0  0  0  0  0  0  0  0  0
   19.9011   -5.4680  -15.0416 O   0  0  0  0  0  0  0  0  0  0  0  0
  2  3  1  1
  2  1  1  0
  4  5  1  1
  4  2  1  0
  6  4  1  0
  7  6  2  0
  8  6  1  0
  9  8  1  0
  9 10  1  6
 10 11  1  0
 11 12  2  0
 13  9  1  0
 13 14  2  0
 15 11  1  0
 16 13  1  0
 17 16  1  0
 18 17  1  0
 19 20  1  0
 19 18  1  0
 20 16  1  0
 21 22  1  0
 20 21  1  6
 23 21  2  0
M  END
$$$$
