PAL.pdb
     RDKit          3D

 21 21  0  0  1  0  0  0  0  0999 V2000
    6.1928  -18.3267   21.7763 N   0  0  0  0  0  0  0  0  0  0  0  0
    5.0919  -18.5402   20.8873 C   0  0  0  0  0  0  0  0  0  0  0  0
    5.6586  -19.4944   19.8547 C   0  0  0  0  0  0  0  0  0  0  0  0
    7.0310  -18.8814   19.6293 C   0  0  0  0  0  0  0  0  0  0  0  0
    7.4125  -18.5435   21.0614 C   0  0  1  0  0  0  0  0  0  0  0  0
    8.2534  -17.3298   21.1452 C   0  0  0  0  0  0  0  0  0  0  0  0
    9.4761  -17.3919   20.8637 O   0  0  0  0  0  0  0  0  0  0  0  0
    7.6481  -13.6989   21.1841 C   0  0  0  0  0  0  0  0  0  0  0  0
    8.5370  -14.8661   21.6333 C   0  0  2  0  0  0  0  0  0  0  0  0
    7.7514  -16.0567   21.5361 N   0  0  0  0  0  0  0  0  0  0  0  0
    8.9302  -14.5558   23.0364 C   0  0  0  0  0  0  0  0  0  0  0  0
    9.8234  -13.6904   23.2224 O   0  0  0  0  0  0  0  0  0  0  0  0
    7.9453  -11.8976   26.0709 C   0  0  0  0  0  0  0  0  0  0  0  0
    7.0058  -13.0675   25.7178 C   0  0  2  0  0  0  0  0  0  0  0  0
    5.6440  -12.7262   26.2885 C   0  0  0  0  0  0  0  0  0  0  0  0
    7.5315  -14.3456   26.2796 C   0  0  0  0  0  0  0  0  0  0  0  0
    8.7224  -14.8864   25.5455 C   0  0  2  0  0  0  0  0  0  0  0  0
    8.3510  -15.1831   24.1510 N   0  0  0  0  0  0  0  0  0  0  0  0
    9.1903  -16.1510   26.1464 C   0  0  0  0  0  0  0  0  0  0  0  0
    9.7440  -16.2860   27.4088 O   0  0  0  0  0  0  0  0  0  0  0  0
    9.0956  -17.2229   25.4832 O   0  0  0  0  0  0  0  0  0  0  0  0
  1  2  1  0
  3  2  1  0
  4  3  1  0
  5  4  1  0
  5  1  1  0
  5  6  1  6
  7  6  2  0
  9  8  1  1
  9 10  1  0
 10  6  1  0
 11  9  1  0
 11 18  1  0
 12 11  2  0
 14 13  1  1
 14 16  1  0
 14 15  1  0
 17 18  1  0
 17 19  1  0
 17 16  1  1
 19 20  1  0
 21 19  2  0
M  END
$$$$
