PAL.pdb
     RDKit          3D

 21 21  0  0  1  0  0  0  0  0999 V2000
    8.8881  -14.9137   18.8512 N   0  0  0  0  0  0  0  0  0  0  0  0
    8.0585  -14.7922   17.6916 C   0  0  0  0  0  0  0  0  0  0  0  0
    7.7866  -13.3029   17.6129 C   0  0  0  0  0  0  0  0  0  0  0  0
    7.5244  -12.9877   19.0764 C   0  0  0  0  0  0  0  0  0  0  0  0
    8.6173  -13.8180   19.7297 C   0  0  1  0  0  0  0  0  0  0  0  0
    8.2097  -14.3382   21.0528 C   0  0  0  0  0  0  0  0  0  0  0  0
    7.8077  -13.5473   21.9422 O   0  0  0  0  0  0  0  0  0  0  0  0
    8.1604  -17.7521   22.6410 C   0  0  0  0  0  0  0  0  0  0  0  0
    7.7864  -16.2640   22.6340 C   0  0  2  0  0  0  0  0  0  0  0  0
    8.2444  -15.7194   21.3940 N   0  0  0  0  0  0  0  0  0  0  0  0
    8.4819  -15.6687   23.8093 C   0  0  0  0  0  0  0  0  0  0  0  0
    9.7203  -15.4675   23.7239 O   0  0  0  0  0  0  0  0  0  0  0  0
    7.8473  -11.7895   25.6747 C   0  0  0  0  0  0  0  0  0  0  0  0
    6.8404  -12.8665   26.1240 C   0  0  2  0  0  0  0  0  0  0  0  0
    5.7564  -12.1557   26.9091 C   0  0  0  0  0  0  0  0  0  0  0  0
    7.5227  -13.9060   26.9484 C   0  0  0  0  0  0  0  0  0  0  0  0
    8.4921  -14.7517   26.1772 C   0  0  2  0  0  0  0  0  0  0  0  0
    7.8195  -15.3254   24.9987 N   0  0  0  0  0  0  0  0  0  0  0  0
    8.9775  -15.8835   26.9912 C   0  0  0  0  0  0  0  0  0  0  0  0
    9.9413  -15.8068   27.9831 O   0  0  0  0  0  0  0  0  0  0  0  0
    8.4981  -17.0366   26.7952 O   0  0  0  0  0  0  0  0  0  0  0  0
  1  2  1  0
  3  2  1  0
  4  3  1  0
  5  4  1  0
  5  1  1  0
  5  6  1  1
  7  6  2  0
  9  8  1  6
  9 10  1  0
 10  6  1  0
 11  9  1  0
 11 18  1  0
 12 11  2  0
 14 13  1  1
 14 16  1  0
 14 15  1  0
 17 18  1  0
 17 19  1  0
 17 16  1  1
 19 20  1  0
 21 19  2  0
M  END
$$$$
