PAL.pdb
     RDKit          3D

 21 21  0  0  1  0  0  0  0  0999 V2000
    7.7489  -13.3095   20.6656 N   0  0  0  0  0  0  0  0  0  0  0  0
    8.1812  -12.7747   19.4106 C   0  0  0  0  0  0  0  0  0  0  0  0
    7.4433  -13.6266   18.3968 C   0  0  0  0  0  0  0  0  0  0  0  0
    7.6089  -15.0052   19.0149 C   0  0  0  0  0  0  0  0  0  0  0  0
    7.3644  -14.6743   20.4782 C   0  0  1  0  0  0  0  0  0  0  0  0
    8.1524  -15.5358   21.3860 C   0  0  0  0  0  0  0  0  0  0  0  0
    7.8994  -16.7638   21.4640 O   0  0  0  0  0  0  0  0  0  0  0  0
   11.4353  -15.1733   23.0585 C   0  0  0  0  0  0  0  0  0  0  0  0
   10.0687  -15.8686   23.0001 C   0  0  2  0  0  0  0  0  0  0  0  0
    9.2115  -15.0484   22.2023 N   0  0  0  0  0  0  0  0  0  0  0  0
    9.6077  -15.9692   24.4132 C   0  0  0  0  0  0  0  0  0  0  0  0
   10.3665  -16.5307   25.2441 O   0  0  0  0  0  0  0  0  0  0  0  0
    8.2969  -13.0157   27.4882 C   0  0  0  0  0  0  0  0  0  0  0  0
    7.2914  -13.3570   26.3709 C   0  0  2  0  0  0  0  0  0  0  0  0
    6.1747  -12.3360   26.4564 C   0  0  0  0  0  0  0  0  0  0  0  0
    6.7775  -14.7474   26.5393 C   0  0  0  0  0  0  0  0  0  0  0  0
    7.7629  -15.8094   26.1509 C   0  0  2  0  0  0  0  0  0  0  0  0
    8.3723  -15.4681   24.8537 N   0  0  0  0  0  0  0  0  0  0  0  0
    7.0995  -17.1177   25.9856 C   0  0  0  0  0  0  0  0  0  0  0  0
    6.7654  -17.9862   27.0117 O   0  0  0  0  0  0  0  0  0  0  0  0
    6.7960  -17.5148   24.8246 O   0  0  0  0  0  0  0  0  0  0  0  0
  1  2  1  0
  3  2  1  0
  4  3  1  0
  5  4  1  0
  5  1  1  0
  5  6  1  1
  7  6  2  0
  9  8  1  1
  9 10  1  0
 10  6  1  0
 11  9  1  0
 11 18  1  0
 12 11  2  0
 14 13  1  1
 14 16  1  0
 14 15  1  0
 17 18  1  0
 17 19  1  0
 17 16  1  6
 19 20  1  0
 21 19  2  0
M  END
$$$$
