PAL.pdb
     RDKit          3D

 21 21  0  0  1  0  0  0  0  0999 V2000
    6.4145  -19.0743   23.1930 N   0  0  0  0  0  0  0  0  0  0  0  0
    5.0122  -18.9026   22.9653 C   0  0  0  0  0  0  0  0  0  0  0  0
    4.8142  -19.4667   21.5723 C   0  0  0  0  0  0  0  0  0  0  0  0
    6.0279  -18.8910   20.8613 C   0  0  0  0  0  0  0  0  0  0  0  0
    7.0879  -19.0958   21.9314 C   0  0  1  0  0  0  0  0  0  0  0  0
    8.1196  -18.0364   21.9071 C   0  0  0  0  0  0  0  0  0  0  0  0
    9.3373  -18.3452   21.9012 O   0  0  0  0  0  0  0  0  0  0  0  0
    8.1331  -14.3728   21.2414 C   0  0  0  0  0  0  0  0  0  0  0  0
    8.7839  -15.5978   21.8973 C   0  0  2  0  0  0  0  0  0  0  0  0
    7.8126  -16.6468   21.8895 N   0  0  0  0  0  0  0  0  0  0  0  0
    9.1489  -15.1694   23.2767 C   0  0  0  0  0  0  0  0  0  0  0  0
   10.1450  -14.4149   23.4174 O   0  0  0  0  0  0  0  0  0  0  0  0
    7.7295  -12.1599   26.1020 C   0  0  0  0  0  0  0  0  0  0  0  0
    6.9065  -13.4243   25.7861 C   0  0  2  0  0  0  0  0  0  0  0  0
    5.4956  -13.1649   26.2751 C   0  0  0  0  0  0  0  0  0  0  0  0
    7.5072  -14.6167   26.4517 C   0  0  0  0  0  0  0  0  0  0  0  0
    8.7523  -15.1208   25.7844 C   0  0  2  0  0  0  0  0  0  0  0  0
    8.4342  -15.5686   24.4174 N   0  0  0  0  0  0  0  0  0  0  0  0
    9.3081  -16.2850   26.5021 C   0  0  0  0  0  0  0  0  0  0  0  0
    9.4755  -17.5532   25.9709 O   0  0  0  0  0  0  0  0  0  0  0  0
    9.6721  -16.1535   27.7054 O   0  0  0  0  0  0  0  0  0  0  0  0
  1  2  1  0
  3  2  1  0
  4  3  1  0
  5  4  1  0
  5  1  1  0
  5  6  1  1
  7  6  2  0
  9  8  1  6
  9 10  1  0
 10  6  1  0
 11  9  1  0
 11 18  1  0
 12 11  2  0
 14 13  1  1
 14 16  1  0
 14 15  1  0
 17 18  1  0
 17 19  1  0
 17 16  1  1
 19 20  1  0
 21 19  2  0
M  END
$$$$
