PAL.pdb
     RDKit          3D

 21 21  0  0  1  0  0  0  0  0999 V2000
    5.9975  -18.9062   22.7030 N   0  0  0  0  0  0  0  0  0  0  0  0
    4.6183  -18.6502   22.9859 C   0  0  0  0  0  0  0  0  0  0  0  0
    3.9919  -18.5583   21.6085 C   0  0  0  0  0  0  0  0  0  0  0  0
    5.0398  -17.7350   20.8779 C   0  0  0  0  0  0  0  0  0  0  0  0
    6.3082  -18.3832   21.4086 C   0  0  1  0  0  0  0  0  0  0  0  0
    7.4238  -17.4190   21.5231 C   0  0  0  0  0  0  0  0  0  0  0  0
    8.6092  -17.8323   21.5710 O   0  0  0  0  0  0  0  0  0  0  0  0
    7.7096  -13.6976   21.2328 C   0  0  0  0  0  0  0  0  0  0  0  0
    8.2914  -15.0494   21.6670 C   0  0  2  0  0  0  0  0  0  0  0  0
    7.2354  -16.0096   21.5845 N   0  0  0  0  0  0  0  0  0  0  0  0
    8.7731  -14.8507   23.0627 C   0  0  0  0  0  0  0  0  0  0  0  0
    9.8388  -14.2055   23.2341 O   0  0  0  0  0  0  0  0  0  0  0  0
    7.9974  -12.1754   26.3174 C   0  0  0  0  0  0  0  0  0  0  0  0
    6.9378  -13.2361   25.9596 C   0  0  2  0  0  0  0  0  0  0  0  0
    5.6563  -12.8324   26.6607 C   0  0  0  0  0  0  0  0  0  0  0  0
    7.3928  -14.5915   26.3857 C   0  0  0  0  0  0  0  0  0  0  0  0
    8.5336  -15.1310   25.5751 C   0  0  2  0  0  0  0  0  0  0  0  0
    8.0938  -15.3488   24.1860 N   0  0  0  0  0  0  0  0  0  0  0  0
    8.9865  -16.4365   26.0946 C   0  0  0  0  0  0  0  0  0  0  0  0
    9.6519  -16.6393   27.2924 O   0  0  0  0  0  0  0  0  0  0  0  0
    8.7683  -17.4810   25.4170 O   0  0  0  0  0  0  0  0  0  0  0  0
  1  2  1  0
  3  2  1  0
  4  3  1  0
  5  4  1  0
  5  1  1  0
  5  6  1  1
  7  6  2  0
  9  8  1  1
  9 10  1  0
 10  6  1  0
 11  9  1  0
 11 18  1  0
 12 11  2  0
 14 13  1  1
 14 16  1  0
 14 15  1  0
 17 18  1  0
 17 19  1  0
 17 16  1  1
 19 20  1  0
 21 19  2  0
M  END
$$$$
