PAL.pdb
     RDKit          3D

 21 21  0  0  1  0  0  0  0  0999 V2000
    9.1541  -14.6838   18.5577 N   0  0  0  0  0  0  0  0  0  0  0  0
    8.5042  -14.5496   17.2899 C   0  0  0  0  0  0  0  0  0  0  0  0
    8.1124  -13.0857   17.2531 C   0  0  0  0  0  0  0  0  0  0  0  0
    7.6015  -12.8961   18.6719 C   0  0  0  0  0  0  0  0  0  0  0  0
    8.6529  -13.6779   19.4424 C   0  0  1  0  0  0  0  0  0  0  0  0
    8.0970  -14.3209   20.6527 C   0  0  0  0  0  0  0  0  0  0  0  0
    7.5078  -13.6270   21.5185 O   0  0  0  0  0  0  0  0  0  0  0  0
    7.9497  -17.8681   21.9147 C   0  0  0  0  0  0  0  0  0  0  0  0
    7.7261  -16.3612   22.0977 C   0  0  2  0  0  0  0  0  0  0  0  0
    8.1891  -15.7180   20.9078 N   0  0  0  0  0  0  0  0  0  0  0  0
    8.5213  -15.9792   23.2982 C   0  0  0  0  0  0  0  0  0  0  0  0
    9.5359  -15.2557   23.1296 O   0  0  0  0  0  0  0  0  0  0  0  0
    5.9321  -12.5409   26.6349 C   0  0  0  0  0  0  0  0  0  0  0  0
    7.1618  -13.4612   26.7650 C   0  0  2  0  0  0  0  0  0  0  0  0
    8.3772  -12.5612   26.8616 C   0  0  0  0  0  0  0  0  0  0  0  0
    7.2512  -14.3799   25.5929 C   0  0  0  0  0  0  0  0  0  0  0  0
    8.2294  -15.5022   25.7752 C   0  0  2  0  0  0  0  0  0  0  0  0
    8.1894  -16.3890   24.5995 N   0  0  0  0  0  0  0  0  0  0  0  0
    7.8828  -16.3263   26.9499 C   0  0  0  0  0  0  0  0  0  0  0  0
    8.6377  -16.4381   28.1058 O   0  0  0  0  0  0  0  0  0  0  0  0
    6.8151  -17.0028   26.9373 O   0  0  0  0  0  0  0  0  0  0  0  0
  1  2  1  0
  3  2  1  0
  4  3  1  0
  5  4  1  0
  5  1  1  0
  5  6  1  1
  7  6  2  0
  9  8  1  6
  9 10  1  0
 10  6  1  0
 11  9  1  0
 11 18  1  0
 12 11  2  0
 14 13  1  6
 14 16  1  0
 14 15  1  0
 17 18  1  0
 17 19  1  0
 17 16  1  6
 19 20  1  0
 21 19  2  0
M  END
$$$$
