PAL.pdb
     RDKit          3D

 21 21  0  0  1  0  0  0  0  0999 V2000
    9.0655  -14.6426   18.9604 N   0  0  0  0  0  0  0  0  0  0  0  0
    8.2519  -14.6440   17.7831 C   0  0  0  0  0  0  0  0  0  0  0  0
    7.7391  -13.2192   17.7129 C   0  0  0  0  0  0  0  0  0  0  0  0
    7.3973  -12.9717   19.1730 C   0  0  0  0  0  0  0  0  0  0  0  0
    8.5985  -13.6188   19.8432 C   0  0  1  0  0  0  0  0  0  0  0  0
    8.2547  -14.2172   21.1512 C   0  0  0  0  0  0  0  0  0  0  0  0
    7.6724  -13.5268   22.0244 O   0  0  0  0  0  0  0  0  0  0  0  0
    8.7555  -17.6151   22.7010 C   0  0  0  0  0  0  0  0  0  0  0  0
    8.1831  -16.1917   22.7274 C   0  0  2  0  0  0  0  0  0  0  0  0
    8.5500  -15.5662   21.4953 N   0  0  0  0  0  0  0  0  0  0  0  0
    8.8038  -15.5302   23.9092 C   0  0  0  0  0  0  0  0  0  0  0  0
    9.9944  -15.1380   23.8097 O   0  0  0  0  0  0  0  0  0  0  0  0
    7.8965  -11.7774   25.5927 C   0  0  0  0  0  0  0  0  0  0  0  0
    6.9606  -12.9057   26.0692 C   0  0  2  0  0  0  0  0  0  0  0  0
    5.7880  -12.2418   26.7627 C   0  0  0  0  0  0  0  0  0  0  0  0
    7.6866  -13.8327   26.9853 C   0  0  0  0  0  0  0  0  0  0  0  0
    8.7188  -14.6779   26.2997 C   0  0  2  0  0  0  0  0  0  0  0  0
    8.1220  -15.3275   25.1198 N   0  0  0  0  0  0  0  0  0  0  0  0
    9.2020  -15.7541   27.1872 C   0  0  0  0  0  0  0  0  0  0  0  0
    9.0277  -17.1118   26.9748 O   0  0  0  0  0  0  0  0  0  0  0  0
    9.8312  -15.4510   28.2407 O   0  0  0  0  0  0  0  0  0  0  0  0
  1  2  1  0
  3  2  1  0
  4  3  1  0
  5  4  1  0
  5  1  1  0
  5  6  1  1
  7  6  2  0
  9  8  1  6
  9 10  1  0
 10  6  1  0
 11  9  1  0
 11 18  1  0
 12 11  2  0
 14 13  1  1
 14 16  1  0
 14 15  1  0
 17 18  1  0
 17 19  1  0
 17 16  1  1
 19 20  1  0
 21 19  2  0
M  END
$$$$
