DHE.pdb
     RDKit          3D

 28 28  0  0  1  0  0  0  0  0999 V2000
   11.3837  -17.1389   15.3911 N   0  0  0  0  0  0  0  0  0  0  0  0
   10.8260  -17.8612   16.5032 C   0  0  1  0  0  0  0  0  0  0  0  0
   11.5650  -19.2021   16.5845 C   0  0  0  0  0  0  0  0  0  0  0  0
   11.1941  -20.0235   15.4128 C   0  0  0  0  0  0  0  0  0  0  0  0
   11.9008  -19.9758   14.3849 O   0  0  0  0  0  0  0  0  0  0  0  0
   11.0596  -17.1015   17.7887 C   0  0  0  0  0  0  0  0  0  0  0  0
   12.1640  -16.5715   18.0222 O   0  0  0  0  0  0  0  0  0  0  0  0
   10.0691  -20.8578   15.4194 O   0  0  0  0  0  0  0  0  0  0  0  0
   10.0005  -17.0014   18.7259 N   0  0  0  0  0  0  0  0  0  0  0  0
   10.0485  -16.3299   19.9776 C   0  0  1  0  0  0  0  0  0  0  0  0
    8.7178  -15.7871   20.4819 C   0  0  0  0  0  0  0  0  0  0  0  0
    8.2555  -14.6377   19.6661 C   0  0  0  0  0  0  0  0  0  0  0  0
    8.8282  -13.9179   18.6602 C   0  0  0  0  0  0  0  0  0  0  0  0
    7.9912  -12.9426   18.2058 N   0  0  0  0  0  0  0  0  0  0  0  0
    6.8781  -13.0582   18.9423 C   0  0  0  0  0  0  0  0  0  0  0  0
    7.0130  -14.0617   19.8189 N   0  0  0  0  0  0  0  0  0  0  0  0
   10.8331  -17.0255   21.0101 C   0  0  0  0  0  0  0  0  0  0  0  0
   10.8643  -18.3037   21.0354 O   0  0  0  0  0  0  0  0  0  0  0  0
   11.5779  -16.3322   22.0066 N   0  0  0  0  0  0  0  0  0  0  0  0
   12.4151  -16.9750   22.9627 C   0  0  1  0  0  0  0  0  0  0  0  0
   13.8706  -16.8314   22.7277 C   0  0  0  0  0  0  0  0  0  0  0  0
   14.3909  -15.4301   22.8762 C   0  0  0  0  0  0  0  0  0  0  0  0
   15.8108  -15.2690   22.5641 C   0  0  0  0  0  0  0  0  0  0  0  0
   16.1123  -14.9307   21.3785 O   0  0  0  0  0  0  0  0  0  0  0  0
   12.0015  -16.5626   24.3315 C   0  0  0  0  0  0  0  0  0  0  0  0
   11.0346  -15.5958   24.5626 O   0  0  0  0  0  0  0  0  0  0  0  0
   16.8646  -15.4497   23.4414 O   0  0  0  0  0  0  0  0  0  0  0  0
   12.5460  -17.1079   25.3123 O   0  0  0  0  0  0  0  0  0  0  0  0
  2  1  1  6
  2  3  1  0
  2  6  1  0
  3  4  1  0
  4  8  1  0
  4  5  2  0
  6  7  2  0
  9  6  1  0
  9 10  1  0
 10 11  1  1
 11 12  1  0
 12 16  1  0
 13 14  1  0
 13 12  2  0
 14 15  1  0
 15 16  2  0
 17 10  1  0
 17 18  2  0
 19 17  1  0
 20 19  1  0
 20 21  1  6
 22 23  1  0
 22 21  1  0
 23 24  2  0
 25 20  1  0
 26 25  1  0
 27 23  1  0
 28 25  2  0
M  END
$$$$
