DHE.pdb
     RDKit          3D

 28 28  0  0  1  0  0  0  0  0999 V2000
   10.7883  -15.8440   15.7368 N   0  0  0  0  0  0  0  0  0  0  0  0
   11.1917  -16.7508   16.7781 C   0  0  1  0  0  0  0  0  0  0  0  0
   12.5850  -17.2714   16.4060 C   0  0  0  0  0  0  0  0  0  0  0  0
   12.4974  -17.9914   15.1180 C   0  0  0  0  0  0  0  0  0  0  0  0
   11.8014  -19.0249   15.0420 O   0  0  0  0  0  0  0  0  0  0  0  0
   11.2848  -16.0210   18.0983 C   0  0  0  0  0  0  0  0  0  0  0  0
   12.0017  -15.0073   18.2153 O   0  0  0  0  0  0  0  0  0  0  0  0
   13.1740  -17.5486   13.9744 O   0  0  0  0  0  0  0  0  0  0  0  0
   10.5423  -16.5090   19.2031 N   0  0  0  0  0  0  0  0  0  0  0  0
   10.4279  -15.8888   20.4769 C   0  0  1  0  0  0  0  0  0  0  0  0
    9.0389  -15.3764   20.8343 C   0  0  0  0  0  0  0  0  0  0  0  0
    8.5212  -14.4447   19.8025 C   0  0  0  0  0  0  0  0  0  0  0  0
    8.6922  -13.1107   19.5806 C   0  0  0  0  0  0  0  0  0  0  0  0
    8.0080  -12.6970   18.4766 N   0  0  0  0  0  0  0  0  0  0  0  0
    7.4009  -13.7935   18.0035 C   0  0  0  0  0  0  0  0  0  0  0  0
    7.6925  -14.8467   18.7775 N   0  0  0  0  0  0  0  0  0  0  0  0
   11.0878  -16.6204   21.5699 C   0  0  0  0  0  0  0  0  0  0  0  0
   10.7771  -17.8391   21.8014 O   0  0  0  0  0  0  0  0  0  0  0  0
   12.0789  -16.0273   22.4033 N   0  0  0  0  0  0  0  0  0  0  0  0
   12.7257  -16.7072   23.4745 C   0  0  1  0  0  0  0  0  0  0  0  0
   14.0806  -16.2124   23.8121 C   0  0  0  0  0  0  0  0  0  0  0  0
   15.0569  -16.2403   22.6708 C   0  0  0  0  0  0  0  0  0  0  0  0
   16.3801  -15.7021   22.9852 C   0  0  0  0  0  0  0  0  0  0  0  0
   16.5245  -14.4421   22.9328 O   0  0  0  0  0  0  0  0  0  0  0  0
   11.8120  -16.7527   24.6482 C   0  0  0  0  0  0  0  0  0  0  0  0
   12.0801  -17.5115   25.7775 O   0  0  0  0  0  0  0  0  0  0  0  0
   17.4973  -16.4373   23.3375 O   0  0  0  0  0  0  0  0  0  0  0  0
   10.7612  -16.0813   24.6166 O   0  0  0  0  0  0  0  0  0  0  0  0
  2  1  1  6
  2  3  1  0
  2  6  1  0
  3  4  1  0
  4  8  1  0
  4  5  2  0
  6  7  2  0
  9  6  1  0
  9 10  1  0
 10 11  1  1
 11 12  1  0
 12 16  1  0
 13 14  1  0
 13 12  2  0
 14 15  1  0
 15 16  2  0
 17 10  1  0
 17 18  2  0
 19 17  1  0
 20 19  1  0
 20 21  1  1
 22 23  1  0
 22 21  1  0
 23 24  2  0
 25 20  1  0
 26 25  1  0
 27 23  1  0
 28 25  2  0
M  END
$$$$
