DHE.pdb
     RDKit          3D

 28 28  0  0  1  0  0  0  0  0999 V2000
   10.4253  -17.5189   16.8009 N   0  0  0  0  0  0  0  0  0  0  0  0
   10.0039  -18.0411   18.0734 C   0  0  1  0  0  0  0  0  0  0  0  0
   10.8255  -19.3092   18.3333 C   0  0  0  0  0  0  0  0  0  0  0  0
   10.3033  -20.3993   17.4823 C   0  0  0  0  0  0  0  0  0  0  0  0
    9.4317  -20.1421   16.6265 O   0  0  0  0  0  0  0  0  0  0  0  0
   10.2957  -17.0426   19.1697 C   0  0  0  0  0  0  0  0  0  0  0  0
   11.4078  -16.4829   19.2404 O   0  0  0  0  0  0  0  0  0  0  0  0
   10.7577  -21.7183   17.6066 O   0  0  0  0  0  0  0  0  0  0  0  0
    9.2822  -16.7524   20.1177 N   0  0  0  0  0  0  0  0  0  0  0  0
    9.3780  -15.8262   21.1915 C   0  0  1  0  0  0  0  0  0  0  0  0
    8.1858  -14.8939   21.3616 C   0  0  0  0  0  0  0  0  0  0  0  0
    7.8968  -14.1478   20.1125 C   0  0  0  0  0  0  0  0  0  0  0  0
    8.2730  -12.9219   19.6503 C   0  0  0  0  0  0  0  0  0  0  0  0
    7.7530  -12.6735   18.4150 N   0  0  0  0  0  0  0  0  0  0  0  0
    7.0407  -13.7646   18.1035 C   0  0  0  0  0  0  0  0  0  0  0  0
    7.1122  -14.6562   19.1001 N   0  0  0  0  0  0  0  0  0  0  0  0
    9.8585  -16.4085   22.4546 C   0  0  0  0  0  0  0  0  0  0  0  0
    9.2653  -17.4245   22.9558 O   0  0  0  0  0  0  0  0  0  0  0  0
   10.9774  -15.8869   23.1649 N   0  0  0  0  0  0  0  0  0  0  0  0
   11.5896  -16.5404   24.2722 C   0  0  1  0  0  0  0  0  0  0  0  0
   13.0326  -16.2597   24.4544 C   0  0  0  0  0  0  0  0  0  0  0  0
   13.8916  -16.6198   23.2759 C   0  0  0  0  0  0  0  0  0  0  0  0
   15.3178  -16.3479   23.4532 C   0  0  0  0  0  0  0  0  0  0  0  0
   15.6708  -15.7602   24.5215 O   0  0  0  0  0  0  0  0  0  0  0  0
   10.7859  -16.2832   25.4980 C   0  0  0  0  0  0  0  0  0  0  0  0
   11.0267  -16.9293   26.7012 O   0  0  0  0  0  0  0  0  0  0  0  0
   16.3268  -16.6719   22.5646 O   0  0  0  0  0  0  0  0  0  0  0  0
    9.8569  -15.4526   25.4427 O   0  0  0  0  0  0  0  0  0  0  0  0
  2  1  1  6
  2  3  1  0
  2  6  1  0
  3  4  1  0
  4  8  1  0
  4  5  2  0
  6  7  2  0
  9  6  1  0
  9 10  1  0
 10 11  1  1
 11 12  1  0
 12 16  1  0
 13 14  1  0
 13 12  2  0
 14 15  1  0
 15 16  2  0
 17 10  1  0
 17 18  2  0
 19 17  1  0
 20 19  1  0
 20 21  1  1
 22 23  1  0
 22 21  1  0
 23 24  2  0
 25 20  1  0
 26 25  1  0
 27 23  1  0
 28 25  2  0
M  END
$$$$
