DHE.pdb
     RDKit          3D

 28 28  0  0  1  0  0  0  0  0999 V2000
   13.3623  -14.9215   14.3972 N   0  0  0  0  0  0  0  0  0  0  0  0
   13.1161  -15.9849   15.3342 C   0  0  1  0  0  0  0  0  0  0  0  0
   14.4590  -16.6797   15.5886 C   0  0  0  0  0  0  0  0  0  0  0  0
   14.9439  -17.2613   14.3191 C   0  0  0  0  0  0  0  0  0  0  0  0
   14.1199  -17.5618   13.4307 O   0  0  0  0  0  0  0  0  0  0  0  0
   12.6077  -15.4216   16.6411 C   0  0  0  0  0  0  0  0  0  0  0  0
   13.3858  -15.2308   17.5968 O   0  0  0  0  0  0  0  0  0  0  0  0
   16.3053  -17.4869   14.0801 O   0  0  0  0  0  0  0  0  0  0  0  0
   11.2292  -15.1131   16.7626 N   0  0  0  0  0  0  0  0  0  0  0  0
   10.5779  -14.6261   17.9282 C   0  0  1  0  0  0  0  0  0  0  0  0
    9.1777  -14.0673   17.7119 C   0  0  0  0  0  0  0  0  0  0  0  0
    8.5755  -13.6021   18.9853 C   0  0  0  0  0  0  0  0  0  0  0  0
    7.2888  -13.4763   19.4171 C   0  0  0  0  0  0  0  0  0  0  0  0
    7.2354  -13.0058   20.6953 N   0  0  0  0  0  0  0  0  0  0  0  0
    8.5119  -12.8362   21.0649 C   0  0  0  0  0  0  0  0  0  0  0  0
    9.3278  -13.1852   20.0620 N   0  0  0  0  0  0  0  0  0  0  0  0
   10.6875  -15.5105   19.0993 C   0  0  0  0  0  0  0  0  0  0  0  0
   10.3687  -16.7449   18.9993 O   0  0  0  0  0  0  0  0  0  0  0  0
   11.1415  -15.0519   20.3689 N   0  0  0  0  0  0  0  0  0  0  0  0
   11.3225  -15.8979   21.5001 C   0  0  1  0  0  0  0  0  0  0  0  0
   12.7270  -16.0848   21.9326 C   0  0  0  0  0  0  0  0  0  0  0  0
   13.6858  -15.0596   21.3979 C   0  0  0  0  0  0  0  0  0  0  0  0
   15.0793  -15.2604   21.7945 C   0  0  0  0  0  0  0  0  0  0  0  0
   15.5144  -14.5690   22.7659 O   0  0  0  0  0  0  0  0  0  0  0  0
   10.4291  -15.4428   22.5999 C   0  0  0  0  0  0  0  0  0  0  0  0
   10.2683  -16.1559   23.7782 O   0  0  0  0  0  0  0  0  0  0  0  0
   15.9754  -16.1373   21.2108 O   0  0  0  0  0  0  0  0  0  0  0  0
    9.7982  -14.3762   22.4574 O   0  0  0  0  0  0  0  0  0  0  0  0
  2  1  1  6
  2  3  1  0
  2  6  1  0
  3  4  1  0
  4  8  1  0
  4  5  2  0
  6  7  2  0
  9  6  1  0
  9 10  1  0
 10 11  1  6
 11 12  1  0
 12 16  1  0
 13 14  1  0
 13 12  2  0
 14 15  1  0
 15 16  2  0
 17 10  1  0
 17 18  2  0
 19 17  1  0
 20 19  1  0
 20 21  1  1
 22 23  1  0
 22 21  1  0
 23 24  2  0
 25 20  1  0
 26 25  1  0
 27 23  1  0
 28 25  2  0
M  END
$$$$
