SMA.pdb
     RDKit          3D

 20 19  0  0  1  0  0  0  0  0999 V2000
    7.8936  -17.4252   20.5409 O   0  0  0  0  0  0  0  0  0  0  0  0
    6.9018  -16.4575   20.3998 C   0  0  0  0  0  0  0  0  0  0  0  0
    7.5219  -15.0840   20.5058 C   0  0  2  0  0  0  0  0  0  0  0  0
    8.4971  -14.9178   19.4646 N   0  0  0  0  0  0  0  0  0  0  0  0
    8.2163  -14.9389   21.8123 C   0  0  0  0  0  0  0  0  0  0  0  0
    9.4857  -14.9139   21.8567 O   0  0  0  0  0  0  0  0  0  0  0  0
    6.3017  -10.2841   26.6973 C   0  0  0  0  0  0  0  0  0  0  0  0
    6.3645  -12.0978   26.7647 S   0  0  0  0  0  0  0  0  0  0  0  0
    7.1025  -12.7475   25.2409 C   0  0  0  0  0  0  0  0  0  0  0  0
    7.2231  -14.2478   25.4068 C   0  0  0  0  0  0  0  0  0  0  0  0
    8.1455  -14.7750   24.3331 C   0  0  2  0  0  0  0  0  0  0  0  0
    7.5271  -14.8238   23.0433 N   0  0  0  0  0  0  0  0  0  0  0  0
    8.6660  -16.1237   24.6848 C   0  0  0  0  0  0  0  0  0  0  0  0
    7.8912  -17.1283   24.6655 O   0  0  0  0  0  0  0  0  0  0  0  0
   11.9694  -17.6675   24.8874 C   0  0  0  0  0  0  0  0  0  0  0  0
   10.5041  -17.6483   25.3146 C   0  0  2  0  0  0  0  0  0  0  0  0
   10.0214  -16.3102   25.0438 N   0  0  0  0  0  0  0  0  0  0  0  0
   10.4994  -17.9403   26.7781 C   0  0  0  0  0  0  0  0  0  0  0  0
   10.9266  -19.0526   27.1533 O   0  0  0  0  0  0  0  0  0  0  0  0
   10.0246  -16.9697   27.6437 O   0  0  0  0  0  0  0  0  0  0  0  0
  2  3  1  0
  2  1  1  0
  3  4  1  6
  5  3  1  0
  5  6  2  0
  8  7  1  0
  9  8  1  0
  9 10  1  0
 11 10  1  1
 11 12  1  0
 11 13  1  0
 12  5  1  0
 13 17  1  0
 14 13  2  0
 16 15  1  1
 16 18  1  0
 17 16  1  0
 18 19  2  0
 18 20  1  0
M  END
$$$$
