SMA.pdb
     RDKit          3D

 20 19  0  0  1  0  0  0  0  0999 V2000
    9.1865  -18.7590   21.2435 O   0  0  0  0  0  0  0  0  0  0  0  0
    8.1337  -18.0352   20.6887 C   0  0  0  0  0  0  0  0  0  0  0  0
    8.5715  -16.6076   20.4599 C   0  0  2  0  0  0  0  0  0  0  0  0
    9.7175  -16.5916   19.5944 N   0  0  0  0  0  0  0  0  0  0  0  0
    8.9629  -15.9825   21.7508 C   0  0  0  0  0  0  0  0  0  0  0  0
   10.1895  -15.9056   22.0724 O   0  0  0  0  0  0  0  0  0  0  0  0
    6.9636  -11.4038   27.8588 C   0  0  0  0  0  0  0  0  0  0  0  0
    6.4182  -12.2668   26.3569 S   0  0  0  0  0  0  0  0  0  0  0  0
    7.7106  -13.4090   25.7969 C   0  0  0  0  0  0  0  0  0  0  0  0
    7.2446  -14.0027   24.4841 C   0  0  0  0  0  0  0  0  0  0  0  0
    8.3435  -14.8857   23.9416 C   0  0  2  0  0  0  0  0  0  0  0  0
    8.0230  -15.4535   22.6676 N   0  0  0  0  0  0  0  0  0  0  0  0
    8.6819  -15.9736   24.8984 C   0  0  0  0  0  0  0  0  0  0  0  0
    7.8529  -16.9094   25.1151 O   0  0  0  0  0  0  0  0  0  0  0  0
   11.7264  -17.4833   25.9827 C   0  0  0  0  0  0  0  0  0  0  0  0
   10.2873  -17.1458   26.3641 C   0  0  2  0  0  0  0  0  0  0  0  0
    9.9223  -15.9856   25.5782 N   0  0  0  0  0  0  0  0  0  0  0  0
   10.3131  -16.8269   27.8217 C   0  0  0  0  0  0  0  0  0  0  0  0
   10.0051  -15.6681   28.1718 O   0  0  0  0  0  0  0  0  0  0  0  0
   10.6751  -17.8254   28.7099 O   0  0  0  0  0  0  0  0  0  0  0  0
  2  3  1  0
  2  1  1  0
  3  4  1  6
  5  3  1  0
  5  6  2  0
  8  7  1  0
  9  8  1  0
  9 10  1  0
 11 10  1  1
 11 12  1  0
 11 13  1  0
 12  5  1  0
 13 17  1  0
 14 13  2  0
 16 15  1  6
 16 18  1  0
 17 16  1  0
 18 19  2  0
 18 20  1  0
M  END
$$$$
