SMA.pdb
     RDKit          3D

 20 19  0  0  1  0  0  0  0  0999 V2000
    8.4246  -18.3479   20.8095 O   0  0  0  0  0  0  0  0  0  0  0  0
    7.4582  -17.4030   20.4728 C   0  0  0  0  0  0  0  0  0  0  0  0
    8.0438  -16.0168   20.6058 C   0  0  2  0  0  0  0  0  0  0  0  0
    9.1293  -15.8649   19.6777 N   0  0  0  0  0  0  0  0  0  0  0  0
    8.5824  -15.8216   21.9777 C   0  0  0  0  0  0  0  0  0  0  0  0
    9.8382  -15.7921   22.1680 O   0  0  0  0  0  0  0  0  0  0  0  0
    6.8654  -10.7494   26.3703 C   0  0  0  0  0  0  0  0  0  0  0  0
    7.0514  -12.5347   26.6466 S   0  0  0  0  0  0  0  0  0  0  0  0
    6.9847  -13.4152   25.0625 C   0  0  0  0  0  0  0  0  0  0  0  0
    7.1543  -14.8896   25.3630 C   0  0  0  0  0  0  0  0  0  0  0  0
    8.2227  -15.4439   24.4504 C   0  0  2  0  0  0  0  0  0  0  0  0
    7.7554  -15.6622   23.1153 N   0  0  0  0  0  0  0  0  0  0  0  0
    8.7893  -16.7091   24.9905 C   0  0  0  0  0  0  0  0  0  0  0  0
    8.0597  -17.7431   25.0830 O   0  0  0  0  0  0  0  0  0  0  0  0
   12.1031  -18.1214   25.5165 C   0  0  0  0  0  0  0  0  0  0  0  0
   10.6438  -18.0252   25.9540 C   0  0  2  0  0  0  0  0  0  0  0  0
   10.1389  -16.7829   25.4072 N   0  0  0  0  0  0  0  0  0  0  0  0
   10.6638  -17.9923   27.4458 C   0  0  0  0  0  0  0  0  0  0  0  0
   10.2237  -16.9706   28.0136 O   0  0  0  0  0  0  0  0  0  0  0  0
   11.1665  -19.0898   28.1238 O   0  0  0  0  0  0  0  0  0  0  0  0
  2  3  1  0
  2  1  1  0
  3  4  1  6
  5  3  1  0
  5  6  2  0
  8  7  1  0
  9  8  1  0
  9 10  1  0
 11 10  1  1
 11 12  1  0
 11 13  1  0
 12  5  1  0
 13 17  1  0
 14 13  2  0
 16 15  1  6
 16 18  1  0
 17 16  1  0
 18 19  2  0
 18 20  1  0
M  END
$$$$
