SMA.pdb
     RDKit          3D

 20 19  0  0  1  0  0  0  0  0999 V2000
    6.8188  -18.9072   22.3906 O   0  0  0  0  0  0  0  0  0  0  0  0
    7.2496  -18.5285   21.1213 C   0  0  0  0  0  0  0  0  0  0  0  0
    7.0371  -17.0437   20.9414 C   0  0  2  0  0  0  0  0  0  0  0  0
    7.5560  -16.6374   19.6652 N   0  0  0  0  0  0  0  0  0  0  0  0
    7.7706  -16.2935   21.9947 C   0  0  0  0  0  0  0  0  0  0  0  0
    9.0035  -16.0277   21.8424 O   0  0  0  0  0  0  0  0  0  0  0  0
    7.1224  -10.8297   26.7674 C   0  0  0  0  0  0  0  0  0  0  0  0
    6.6274  -12.5470   27.0896 S   0  0  0  0  0  0  0  0  0  0  0  0
    7.7268  -13.6838   26.2019 C   0  0  0  0  0  0  0  0  0  0  0  0
    6.9340  -14.2640   25.0496 C   0  0  0  0  0  0  0  0  0  0  0  0
    7.8355  -15.1894   24.2669 C   0  0  2  0  0  0  0  0  0  0  0  0
    7.1588  -15.8459   23.1902 N   0  0  0  0  0  0  0  0  0  0  0  0
    8.4622  -16.2072   25.1528 C   0  0  0  0  0  0  0  0  0  0  0  0
    7.7449  -17.0959   25.7057 O   0  0  0  0  0  0  0  0  0  0  0  0
   11.8975  -17.3967   25.6604 C   0  0  0  0  0  0  0  0  0  0  0  0
   10.4492  -17.2987   26.1326 C   0  0  2  0  0  0  0  0  0  0  0  0
    9.8561  -16.2039   25.3933 N   0  0  0  0  0  0  0  0  0  0  0  0
   10.5132  -16.9953   27.5924 C   0  0  0  0  0  0  0  0  0  0  0  0
   10.1039  -15.8791   27.9755 O   0  0  0  0  0  0  0  0  0  0  0  0
   11.0202  -17.9603   28.4459 O   0  0  0  0  0  0  0  0  0  0  0  0
  2  3  1  0
  2  1  1  0
  3  4  1  6
  5  3  1  0
  5  6  2  0
  8  7  1  0
  9  8  1  0
  9 10  1  0
 11 10  1  1
 11 12  1  0
 11 13  1  0
 12  5  1  0
 13 17  1  0
 14 13  2  0
 16 15  1  6
 16 18  1  0
 17 16  1  0
 18 19  2  0
 18 20  1  0
M  END
$$$$
