SMA.pdb
     RDKit          3D

 20 19  0  0  1  0  0  0  0  0999 V2000
    7.9646  -13.8162   19.9296 O   0  0  0  0  0  0  0  0  0  0  0  0
    8.9924  -14.7240   19.6858 C   0  0  0  0  0  0  0  0  0  0  0  0
    8.7884  -15.9542   20.5386 C   0  0  2  0  0  0  0  0  0  0  0  0
    7.4056  -16.3403   20.4982 N   0  0  0  0  0  0  0  0  0  0  0  0
    9.1407  -15.6574   21.9521 C   0  0  0  0  0  0  0  0  0  0  0  0
   10.3262  -15.3124   22.2515 O   0  0  0  0  0  0  0  0  0  0  0  0
    6.7602  -10.8531   26.3542 C   0  0  0  0  0  0  0  0  0  0  0  0
    6.6065  -12.6612   26.4271 S   0  0  0  0  0  0  0  0  0  0  0  0
    7.3429  -13.4041   24.9457 C   0  0  0  0  0  0  0  0  0  0  0  0
    7.3347  -14.9050   25.1468 C   0  0  0  0  0  0  0  0  0  0  0  0
    8.5024  -15.4950   24.3919 C   0  0  2  0  0  0  0  0  0  0  0  0
    8.2070  -15.7390   23.0129 N   0  0  0  0  0  0  0  0  0  0  0  0
    8.9743  -16.7542   25.0283 C   0  0  0  0  0  0  0  0  0  0  0  0
    8.1772  -17.7311   25.1711 O   0  0  0  0  0  0  0  0  0  0  0  0
   12.1824  -18.3383   25.6713 C   0  0  0  0  0  0  0  0  0  0  0  0
   10.7290  -18.1307   26.0894 C   0  0  2  0  0  0  0  0  0  0  0  0
   10.3075  -16.8855   25.4820 N   0  0  0  0  0  0  0  0  0  0  0  0
   10.7405  -18.0309   27.5783 C   0  0  0  0  0  0  0  0  0  0  0  0
   10.4155  -16.9403   28.0933 O   0  0  0  0  0  0  0  0  0  0  0  0
   11.1088  -19.1457   28.3121 O   0  0  0  0  0  0  0  0  0  0  0  0
  2  3  1  0
  2  1  1  0
  3  4  1  1
  5  3  1  0
  5  6  2  0
  8  7  1  0
  9  8  1  0
  9 10  1  0
 11 10  1  1
 11 12  1  0
 11 13  1  0
 12  5  1  0
 13 17  1  0
 14 13  2  0
 16 15  1  6
 16 18  1  0
 17 16  1  0
 18 19  2  0
 18 20  1  0
M  END
$$$$
