SMA.pdb
     RDKit          3D

 20 19  0  0  1  0  0  0  0  0999 V2000
    8.2090  -18.4145   20.4614 O   0  0  0  0  0  0  0  0  0  0  0  0
    7.1684  -17.5297   20.1889 C   0  0  0  0  0  0  0  0  0  0  0  0
    7.7271  -16.1376   20.0098 C   0  0  2  0  0  0  0  0  0  0  0  0
    8.7606  -16.1615   19.0127 N   0  0  0  0  0  0  0  0  0  0  0  0
    8.3296  -15.6634   21.2836 C   0  0  0  0  0  0  0  0  0  0  0  0
    9.5903  -15.6910   21.4381 O   0  0  0  0  0  0  0  0  0  0  0  0
    7.3380  -11.6404   28.0201 C   0  0  0  0  0  0  0  0  0  0  0  0
    6.5480  -12.4321   26.5893 S   0  0  0  0  0  0  0  0  0  0  0  0
    7.7725  -13.3976   25.6633 C   0  0  0  0  0  0  0  0  0  0  0  0
    7.0986  -13.8750   24.3941 C   0  0  0  0  0  0  0  0  0  0  0  0
    8.0899  -14.6996   23.6073 C   0  0  2  0  0  0  0  0  0  0  0  0
    7.5596  -15.1696   22.3639 N   0  0  0  0  0  0  0  0  0  0  0  0
    8.5823  -15.8550   24.4048 C   0  0  0  0  0  0  0  0  0  0  0  0
    7.8049  -16.8228   24.6674 O   0  0  0  0  0  0  0  0  0  0  0  0
   11.8369  -17.2673   25.1702 C   0  0  0  0  0  0  0  0  0  0  0  0
   10.3788  -17.0764   25.5798 C   0  0  2  0  0  0  0  0  0  0  0  0
    9.9136  -15.8965   24.8809 N   0  0  0  0  0  0  0  0  0  0  0  0
   10.3920  -16.8617   27.0565 C   0  0  0  0  0  0  0  0  0  0  0  0
    9.9854  -15.7634   27.4909 O   0  0  0  0  0  0  0  0  0  0  0  0
   10.8518  -17.8845   27.8686 O   0  0  0  0  0  0  0  0  0  0  0  0
  2  3  1  0
  2  1  1  0
  3  4  1  6
  5  3  1  0
  5  6  2  0
  8  7  1  0
  9  8  1  0
  9 10  1  0
 11 10  1  1
 11 12  1  0
 11 13  1  0
 12  5  1  0
 13 17  1  0
 14 13  2  0
 16 15  1  6
 16 18  1  0
 17 16  1  0
 18 19  2  0
 18 20  1  0
M  END
$$$$
