SMA.pdb
     RDKit          3D

 20 19  0  0  1  0  0  0  0  0999 V2000
    8.0358  -14.7813   18.6443 O   0  0  0  0  0  0  0  0  0  0  0  0
    8.5429  -14.3931   19.8821 C   0  0  0  0  0  0  0  0  0  0  0  0
    8.7815  -15.6181   20.7334 C   0  0  2  0  0  0  0  0  0  0  0  0
    7.6174  -16.4587   20.6989 N   0  0  0  0  0  0  0  0  0  0  0  0
    9.0168  -15.2180   22.1458 C   0  0  0  0  0  0  0  0  0  0  0  0
   10.0357  -14.5215   22.4465 O   0  0  0  0  0  0  0  0  0  0  0  0
    6.5119  -10.6888   26.3173 C   0  0  0  0  0  0  0  0  0  0  0  0
    6.8553  -12.4583   26.5385 S   0  0  0  0  0  0  0  0  0  0  0  0
    6.7234  -13.3170   24.9466 C   0  0  0  0  0  0  0  0  0  0  0  0
    6.9794  -14.7863   25.2085 C   0  0  0  0  0  0  0  0  0  0  0  0
    8.2933  -15.1646   24.5665 C   0  0  2  0  0  0  0  0  0  0  0  0
    8.1481  -15.5777   23.2040 N   0  0  0  0  0  0  0  0  0  0  0  0
    8.9816  -16.2342   25.3383 C   0  0  0  0  0  0  0  0  0  0  0  0
    9.1177  -16.1234   26.5949 O   0  0  0  0  0  0  0  0  0  0  0  0
   10.0607  -19.6948   24.6982 C   0  0  0  0  0  0  0  0  0  0  0  0
   10.1851  -18.3866   25.4751 C   0  0  2  0  0  0  0  0  0  0  0  0
    9.4926  -17.3842   24.6924 N   0  0  0  0  0  0  0  0  0  0  0  0
   11.6464  -18.0956   25.5576 C   0  0  0  0  0  0  0  0  0  0  0  0
   12.0879  -17.1300   24.8997 O   0  0  0  0  0  0  0  0  0  0  0  0
   12.4371  -18.9056   26.3548 O   0  0  0  0  0  0  0  0  0  0  0  0
  2  3  1  0
  2  1  1  0
  3  4  1  1
  5  3  1  0
  5  6  2  0
  8  7  1  0
  9  8  1  0
  9 10  1  0
 11 10  1  1
 11 12  1  0
 11 13  1  0
 12  5  1  0
 13 17  1  0
 14 13  2  0
 16 15  1  6
 16 18  1  0
 17 16  1  0
 18 19  2  0
 18 20  1  0
M  END
$$$$
