VIH.pdb
     RDKit          3D

 26 26  0  0  1  0  0  0  0  0999 V2000
   29.2209  -20.9090  -16.6896 C   0  0  0  0  0  0  0  0  0  0  0  0
   28.0536  -21.4549  -15.9175 C   0  0  1  0  0  0  0  0  0  0  0  0
   28.4342  -22.1463  -14.6388 C   0  0  0  0  0  0  0  0  0  0  0  0
   26.9304  -20.4620  -15.7515 C   0  0  2  0  0  0  0  0  0  0  0  0
   27.5251  -19.2767  -15.1403 N   0  0  0  0  0  0  0  0  0  0  0  0
   25.8248  -20.9298  -14.9140 C   0  0  0  0  0  0  0  0  0  0  0  0
   25.0756  -21.8461  -15.3542 O   0  0  0  0  0  0  0  0  0  0  0  0
   26.3190  -20.7126   -9.5433 C   0  0  0  0  0  0  0  0  0  0  0  0
   25.8360  -21.3161  -10.8442 C   0  0  0  0  0  0  0  0  0  0  0  0
   24.6309  -20.5708  -11.3775 C   0  0  2  0  0  0  0  0  0  0  0  0
   23.4064  -20.8847  -10.5460 C   0  0  0  0  0  0  0  0  0  0  0  0
   24.3833  -20.8889  -12.8377 C   0  0  2  0  0  0  0  0  0  0  0  0
   25.5063  -20.4410  -13.6229 N   0  0  0  0  0  0  0  0  0  0  0  0
   23.1359  -20.1968  -13.2972 C   0  0  0  0  0  0  0  0  0  0  0  0
   23.0490  -18.9350  -13.2803 O   0  0  0  0  0  0  0  0  0  0  0  0
   22.0164  -20.9040  -13.7631 N   0  0  0  0  0  0  0  0  0  0  0  0
   20.7627  -20.2460  -14.2008 C   0  0  1  0  0  0  0  0  0  0  0  0
   20.5889  -20.6559  -15.6175 C   0  0  0  0  0  0  0  0  0  0  0  0
   21.3037  -19.8928  -16.6322 C   0  0  0  0  0  0  0  0  0  0  0  0
   22.1364  -18.8034  -16.6058 C   0  0  0  0  0  0  0  0  0  0  0  0
   22.5415  -18.5728  -17.8923 N   0  0  0  0  0  0  0  0  0  0  0  0
   21.9835  -19.4846  -18.6919 C   0  0  0  0  0  0  0  0  0  0  0  0
   21.2421  -20.2777  -17.9465 N   0  0  0  0  0  0  0  0  0  0  0  0
   19.6811  -20.9293  -13.4015 C   0  0  0  0  0  0  0  0  0  0  0  0
   18.4329  -20.3701  -13.3281 O   0  0  0  0  0  0  0  0  0  0  0  0
   19.8783  -21.9950  -12.7973 O   0  0  0  0  0  0  0  0  0  0  0  0
  2  4  1  0
  2  1  1  1
  3  2  1  0
  4  5  1  1
  4  6  1  0
  6  7  2  0
  8  9  1  0
 10 12  1  0
 10  9  1  0
 10 11  1  1
 12 14  1  0
 13  6  1  0
 12 13  1  6
 14 15  2  0
 16 17  1  0
 16 14  1  0
 17 24  1  0
 17 18  1  6
 19 20  2  0
 19 18  1  0
 21 20  1  0
 22 23  2  0
 22 21  1  0
 23 19  1  0
 24 26  2  0
 24 25  1  0
M  END
$$$$
