VIH.pdb
     RDKit          3D

 26 26  0  0  1  0  0  0  0  0999 V2000
   25.3990  -15.2162  -21.2880 C   0  0  0  0  0  0  0  0  0  0  0  0
   25.7279  -14.0858  -20.3549 C   0  0  1  0  0  0  0  0  0  0  0  0
   24.5299  -13.4814  -19.6785 C   0  0  0  0  0  0  0  0  0  0  0  0
   26.8560  -14.4039  -19.4056 C   0  0  2  0  0  0  0  0  0  0  0  0
   26.3787  -15.4952  -18.5610 N   0  0  0  0  0  0  0  0  0  0  0  0
   27.2689  -13.2856  -18.5563 C   0  0  0  0  0  0  0  0  0  0  0  0
   26.7372  -13.1596  -17.4178 O   0  0  0  0  0  0  0  0  0  0  0  0
   32.3613  -11.9283  -17.9856 C   0  0  0  0  0  0  0  0  0  0  0  0
   30.8841  -12.1378  -17.7326 C   0  0  0  0  0  0  0  0  0  0  0  0
   30.0793  -10.9319  -18.1687 C   0  0  2  0  0  0  0  0  0  0  0  0
   30.4738   -9.7146  -17.3613 C   0  0  0  0  0  0  0  0  0  0  0  0
   28.5905  -11.1890  -18.0580 C   0  0  2  0  0  0  0  0  0  0  0  0
   28.2332  -12.3052  -18.8974 N   0  0  0  0  0  0  0  0  0  0  0  0
   27.8372   -9.9680  -18.4914 C   0  0  0  0  0  0  0  0  0  0  0  0
   27.8350   -9.6013  -19.7019 O   0  0  0  0  0  0  0  0  0  0  0  0
   27.1061   -9.1803  -17.5883 N   0  0  0  0  0  0  0  0  0  0  0  0
   26.2690   -8.0302  -18.0043 C   0  0  1  0  0  0  0  0  0  0  0  0
   25.3452   -7.7966  -16.8654 C   0  0  0  0  0  0  0  0  0  0  0  0
   24.5138   -6.6007  -16.9066 C   0  0  0  0  0  0  0  0  0  0  0  0
   24.2482   -5.6476  -17.8562 C   0  0  0  0  0  0  0  0  0  0  0  0
   23.3347   -4.7832  -17.3172 N   0  0  0  0  0  0  0  0  0  0  0  0
   23.0401   -5.1822  -16.0778 C   0  0  0  0  0  0  0  0  0  0  0  0
   23.7405   -6.2683  -15.8245 N   0  0  0  0  0  0  0  0  0  0  0  0
   27.2268   -6.8657  -18.0496 C   0  0  0  0  0  0  0  0  0  0  0  0
   26.9486   -5.7864  -18.8459 O   0  0  0  0  0  0  0  0  0  0  0  0
   28.2740   -6.8442  -17.3844 O   0  0  0  0  0  0  0  0  0  0  0  0
  2  4  1  0
  2  1  1  1
  3  2  1  0
  4  5  1  1
  4  6  1  0
  6  7  2  0
  8  9  1  0
 10 12  1  0
 10  9  1  0
 10 11  1  1
 12 14  1  0
 13  6  1  0
 12 13  1  6
 14 15  2  0
 16 17  1  0
 16 14  1  0
 17 24  1  0
 17 18  1  1
 19 20  2  0
 19 18  1  0
 21 20  1  0
 22 23  2  0
 22 21  1  0
 23 19  1  0
 24 26  2  0
 24 25  1  0
M  END
$$$$
