VIH.pdb
     RDKit          3D

 26 26  0  0  1  0  0  0  0  0999 V2000
   23.6766  -22.5894  -15.3706 C   0  0  0  0  0  0  0  0  0  0  0  0
   24.4063  -22.7480  -14.0671 C   0  0  1  0  0  0  0  0  0  0  0  0
   24.9921  -24.1155  -13.8553 C   0  0  0  0  0  0  0  0  0  0  0  0
   25.3778  -21.6289  -13.7866 C   0  0  2  0  0  0  0  0  0  0  0  0
   25.8590  -21.8425  -12.4245 N   0  0  0  0  0  0  0  0  0  0  0  0
   24.8035  -20.2863  -13.8871 C   0  0  0  0  0  0  0  0  0  0  0  0
   24.0527  -19.8763  -12.9582 O   0  0  0  0  0  0  0  0  0  0  0  0
   27.7541  -16.3256  -15.8970 C   0  0  0  0  0  0  0  0  0  0  0  0
   26.7535  -17.1086  -15.0750 C   0  0  0  0  0  0  0  0  0  0  0  0
   25.3953  -17.1297  -15.7435 C   0  0  2  0  0  0  0  0  0  0  0  0
   24.8248  -15.7306  -15.8227 C   0  0  0  0  0  0  0  0  0  0  0  0
   24.4382  -18.0591  -15.0259 C   0  0  2  0  0  0  0  0  0  0  0  0
   25.0145  -19.3786  -14.9543 N   0  0  0  0  0  0  0  0  0  0  0  0
   23.1390  -18.1138  -15.7710 C   0  0  0  0  0  0  0  0  0  0  0  0
   22.9693  -18.9300  -16.7223 O   0  0  0  0  0  0  0  0  0  0  0  0
   22.0596  -17.2736  -15.4553 N   0  0  0  0  0  0  0  0  0  0  0  0
   20.6932  -17.4665  -15.9957 C   0  0  1  0  0  0  0  0  0  0  0  0
   20.1936  -18.7030  -15.3425 C   0  0  0  0  0  0  0  0  0  0  0  0
   18.8046  -19.0750  -15.5774 C   0  0  0  0  0  0  0  0  0  0  0  0
   17.7833  -18.5508  -16.3277 C   0  0  0  0  0  0  0  0  0  0  0  0
   16.7064  -19.3822  -16.1821 N   0  0  0  0  0  0  0  0  0  0  0  0
   17.0429  -20.3886  -15.3720 C   0  0  0  0  0  0  0  0  0  0  0  0
   18.2957  -20.2126  -15.0062 N   0  0  0  0  0  0  0  0  0  0  0  0
   19.9009  -16.3123  -15.4339 C   0  0  0  0  0  0  0  0  0  0  0  0
   18.7475  -15.9123  -16.0551 O   0  0  0  0  0  0  0  0  0  0  0  0
   20.2563  -15.6996  -14.4152 O   0  0  0  0  0  0  0  0  0  0  0  0
  2  4  1  0
  2  1  1  6
  3  2  1  0
  4  5  1  1
  4  6  1  0
  6  7  2  0
  8  9  1  0
 10 12  1  0
 10  9  1  0
 10 11  1  1
 12 14  1  0
 13  6  1  0
 12 13  1  6
 14 15  2  0
 16 17  1  0
 16 14  1  0
 17 24  1  0
 17 18  1  1
 19 20  2  0
 19 18  1  0
 21 20  1  0
 22 23  2  0
 22 21  1  0
 23 19  1  0
 24 26  2  0
 24 25  1  0
M  END
$$$$
