VIH.pdb
     RDKit          3D

 26 26  0  0  1  0  0  0  0  0999 V2000
   15.8640  -10.6391  -18.3136 C   0  0  0  0  0  0  0  0  0  0  0  0
   16.7356  -10.0728  -17.2290 C   0  0  1  0  0  0  0  0  0  0  0  0
   15.9736   -9.4763  -16.0794 C   0  0  0  0  0  0  0  0  0  0  0  0
   17.8366  -11.0092  -16.7978 C   0  0  2  0  0  0  0  0  0  0  0  0
   17.1732  -12.1864  -16.2443 N   0  0  0  0  0  0  0  0  0  0  0  0
   18.7467  -10.4554  -15.7940 C   0  0  0  0  0  0  0  0  0  0  0  0
   18.3828  -10.4453  -14.5847 O   0  0  0  0  0  0  0  0  0  0  0  0
   23.7957  -11.8525  -15.5073 C   0  0  0  0  0  0  0  0  0  0  0  0
   22.3915  -11.3664  -15.2208 C   0  0  0  0  0  0  0  0  0  0  0  0
   22.3146   -9.8554  -15.2783 C   0  0  2  0  0  0  0  0  0  0  0  0
   23.2660   -9.2405  -14.2753 C   0  0  0  0  0  0  0  0  0  0  0  0
   20.9007   -9.3628  -15.0478 C   0  0  2  0  0  0  0  0  0  0  0  0
   20.0303   -9.9156  -16.0552 N   0  0  0  0  0  0  0  0  0  0  0  0
   20.8731   -7.8661  -15.1208 C   0  0  0  0  0  0  0  0  0  0  0  0
   21.4575   -7.1620  -14.2476 O   0  0  0  0  0  0  0  0  0  0  0  0
   20.2065   -7.1794  -16.1479 N   0  0  0  0  0  0  0  0  0  0  0  0
   20.1111   -5.7018  -16.2101 C   0  0  1  0  0  0  0  0  0  0  0  0
   20.0381   -5.3831  -17.6586 C   0  0  0  0  0  0  0  0  0  0  0  0
   19.9437   -3.9788  -18.0356 C   0  0  0  0  0  0  0  0  0  0  0  0
   20.3484   -2.8007  -17.4617 C   0  0  0  0  0  0  0  0  0  0  0  0
   20.0154   -1.7942  -18.3267 N   0  0  0  0  0  0  0  0  0  0  0  0
   19.4259   -2.3239  -19.4009 C   0  0  0  0  0  0  0  0  0  0  0  0
   19.3792   -3.6295  -19.2351 N   0  0  0  0  0  0  0  0  0  0  0  0
   18.7614   -5.3873  -15.6143 C   0  0  0  0  0  0  0  0  0  0  0  0
   18.4371   -4.0918  -15.3100 O   0  0  0  0  0  0  0  0  0  0  0  0
   17.9183   -6.2682  -15.3844 O   0  0  0  0  0  0  0  0  0  0  0  0
  2  4  1  0
  2  1  1  6
  3  2  1  0
  4  5  1  1
  4  6  1  0
  6  7  2  0
  8  9  1  0
 10 12  1  0
 10  9  1  0
 10 11  1  1
 12 14  1  0
 13  6  1  0
 12 13  1  6
 14 15  2  0
 16 17  1  0
 16 14  1  0
 17 24  1  0
 17 18  1  6
 19 20  2  0
 19 18  1  0
 21 20  1  0
 22 23  2  0
 22 21  1  0
 23 19  1  0
 24 26  2  0
 24 25  1  0
M  END
$$$$
