VIH.pdb
     RDKit          3D

 26 26  0  0  1  0  0  0  0  0999 V2000
   18.3819   -8.9630  -17.1984 C   0  0  0  0  0  0  0  0  0  0  0  0
   18.2651  -10.4409  -17.4415 C   0  0  1  0  0  0  0  0  0  0  0  0
   17.3246  -10.8061  -18.5551 C   0  0  0  0  0  0  0  0  0  0  0  0
   19.5992  -11.1389  -17.5295 C   0  0  2  0  0  0  0  0  0  0  0  0
   19.3031  -12.5627  -17.6619 N   0  0  0  0  0  0  0  0  0  0  0  0
   20.4686  -10.9359  -16.3696 C   0  0  0  0  0  0  0  0  0  0  0  0
   20.1503  -11.4717  -15.2713 O   0  0  0  0  0  0  0  0  0  0  0  0
   26.3349  -10.2891  -14.8497 C   0  0  0  0  0  0  0  0  0  0  0  0
   24.8861  -10.1970  -14.4227 C   0  0  0  0  0  0  0  0  0  0  0  0
   23.9626  -10.1928  -15.6223 C   0  0  2  0  0  0  0  0  0  0  0  0
   24.3760   -9.1165  -16.6022 C   0  0  0  0  0  0  0  0  0  0  0  0
   22.5163  -10.0142  -15.2085 C   0  0  2  0  0  0  0  0  0  0  0  0
   21.6647  -10.1764  -16.3603 N   0  0  0  0  0  0  0  0  0  0  0  0
   22.3265   -8.6459  -14.6272 C   0  0  0  0  0  0  0  0  0  0  0  0
   22.7840   -8.3562  -13.4842 O   0  0  0  0  0  0  0  0  0  0  0  0
   21.6408   -7.6305  -15.3125 N   0  0  0  0  0  0  0  0  0  0  0  0
   21.3928   -6.2864  -14.7397 C   0  0  1  0  0  0  0  0  0  0  0  0
   22.2457   -5.3673  -15.5353 C   0  0  0  0  0  0  0  0  0  0  0  0
   22.1429   -3.9411  -15.2554 C   0  0  0  0  0  0  0  0  0  0  0  0
   21.8794   -3.1989  -14.1327 C   0  0  0  0  0  0  0  0  0  0  0  0
   21.9685   -1.8808  -14.4890 N   0  0  0  0  0  0  0  0  0  0  0  0
   22.2771   -1.8028  -15.7855 C   0  0  0  0  0  0  0  0  0  0  0  0
   22.3834   -3.0301  -16.2512 N   0  0  0  0  0  0  0  0  0  0  0  0
   19.9580   -5.9856  -15.0952 C   0  0  0  0  0  0  0  0  0  0  0  0
   19.2985   -4.9673  -14.4594 O   0  0  0  0  0  0  0  0  0  0  0  0
   19.3397   -6.6331  -15.9543 O   0  0  0  0  0  0  0  0  0  0  0  0
  2  4  1  0
  2  1  1  6
  3  2  1  0
  4  5  1  1
  4  6  1  0
  6  7  2  0
  8  9  1  0
 10 12  1  0
 10  9  1  0
 10 11  1  6
 12 14  1  0
 13  6  1  0
 12 13  1  6
 14 15  2  0
 16 17  1  0
 16 14  1  0
 17 24  1  0
 17 18  1  6
 19 20  2  0
 19 18  1  0
 21 20  1  0
 22 23  2  0
 22 21  1  0
 23 19  1  0
 24 26  2  0
 24 25  1  0
M  END
$$$$
