VIH.pdb
     RDKit          3D

 26 26  0  0  1  0  0  0  0  0999 V2000
   25.7555  -17.9950  -16.8171 C   0  0  0  0  0  0  0  0  0  0  0  0
   26.9087  -18.9211  -17.0800 C   0  0  1  0  0  0  0  0  0  0  0  0
   27.9460  -18.3591  -18.0107 C   0  0  0  0  0  0  0  0  0  0  0  0
   27.4909  -19.5213  -15.8247 C   0  0  2  0  0  0  0  0  0  0  0  0
   28.5237  -20.4555  -16.2640 N   0  0  0  0  0  0  0  0  0  0  0  0
   26.5246  -20.2340  -14.9875 C   0  0  0  0  0  0  0  0  0  0  0  0
   25.9933  -21.2879  -15.4368 O   0  0  0  0  0  0  0  0  0  0  0  0
   27.0720  -21.9496  -10.9876 C   0  0  0  0  0  0  0  0  0  0  0  0
   26.7597  -20.4690  -11.0043 C   0  0  0  0  0  0  0  0  0  0  0  0
   25.3306  -20.2174  -11.4362 C   0  0  2  0  0  0  0  0  0  0  0  0
   24.3722  -21.0112  -10.5757 C   0  0  0  0  0  0  0  0  0  0  0  0
   25.1289  -20.5414  -12.9023 C   0  0  2  0  0  0  0  0  0  0  0  0
   26.1174  -19.8452  -13.6874 N   0  0  0  0  0  0  0  0  0  0  0  0
   23.7554  -20.1166  -13.3253 C   0  0  0  0  0  0  0  0  0  0  0  0
   23.4236  -18.8960  -13.3248 O   0  0  0  0  0  0  0  0  0  0  0  0
   22.7809  -21.0391  -13.7379 N   0  0  0  0  0  0  0  0  0  0  0  0
   21.4236  -20.6444  -14.1829 C   0  0  1  0  0  0  0  0  0  0  0  0
   21.2309  -21.3341  -15.4838 C   0  0  0  0  0  0  0  0  0  0  0  0
   21.9983  -20.8494  -16.6236 C   0  0  0  0  0  0  0  0  0  0  0  0
   22.8949  -21.4198  -17.4905 C   0  0  0  0  0  0  0  0  0  0  0  0
   23.2469  -20.4587  -18.3986 N   0  0  0  0  0  0  0  0  0  0  0  0
   22.5938  -19.3307  -18.1101 C   0  0  0  0  0  0  0  0  0  0  0  0
   21.8450  -19.5557  -17.0504 N   0  0  0  0  0  0  0  0  0  0  0  0
   20.4973  -21.2986  -13.1881 C   0  0  0  0  0  0  0  0  0  0  0  0
   19.1784  -20.9316  -13.1429 O   0  0  0  0  0  0  0  0  0  0  0  0
   20.8867  -22.1702  -12.3955 O   0  0  0  0  0  0  0  0  0  0  0  0
  2  4  1  0
  2  1  1  1
  3  2  1  0
  4  5  1  6
  4  6  1  0
  6  7  2  0
  8  9  1  0
 10 12  1  0
 10  9  1  0
 10 11  1  1
 12 14  1  0
 13  6  1  0
 12 13  1  6
 14 15  2  0
 16 17  1  0
 16 14  1  0
 17 24  1  0
 17 18  1  6
 19 20  2  0
 19 18  1  0
 21 20  1  0
 22 23  2  0
 22 21  1  0
 23 19  1  0
 24 26  2  0
 24 25  1  0
M  END
$$$$
