VIH.pdb
     RDKit          3D

 26 26  0  0  1  0  0  0  0  0999 V2000
   24.3245   -6.6478  -20.1513 C   0  0  0  0  0  0  0  0  0  0  0  0
   24.5191   -7.8353  -21.0507 C   0  0  1  0  0  0  0  0  0  0  0  0
   25.1797   -7.5100  -22.3606 C   0  0  0  0  0  0  0  0  0  0  0  0
   25.1301   -9.0223  -20.3488 C   0  0  2  0  0  0  0  0  0  0  0  0
   25.0123  -10.1450  -21.2751 N   0  0  0  0  0  0  0  0  0  0  0  0
   24.4873   -9.3762  -19.0823 C   0  0  0  0  0  0  0  0  0  0  0  0
   23.3370   -9.8965  -19.1101 O   0  0  0  0  0  0  0  0  0  0  0  0
   26.6752  -12.2712  -15.3412 C   0  0  0  0  0  0  0  0  0  0  0  0
   25.6847  -11.5533  -16.2320 C   0  0  0  0  0  0  0  0  0  0  0  0
   25.2683  -10.2286  -15.6287 C   0  0  2  0  0  0  0  0  0  0  0  0
   24.6057  -10.4459  -14.2859 C   0  0  0  0  0  0  0  0  0  0  0  0
   24.3543   -9.4581  -16.5591 C   0  0  2  0  0  0  0  0  0  0  0  0
   25.0463   -9.1864  -17.7943 N   0  0  0  0  0  0  0  0  0  0  0  0
   23.9504   -8.1686  -15.9109 C   0  0  0  0  0  0  0  0  0  0  0  0
   24.8164   -7.3076  -15.5816 O   0  0  0  0  0  0  0  0  0  0  0  0
   22.6090   -7.8555  -15.6400 N   0  0  0  0  0  0  0  0  0  0  0  0
   22.1852   -6.6044  -14.9682 C   0  0  1  0  0  0  0  0  0  0  0  0
   22.5742   -5.5171  -15.9018 C   0  0  0  0  0  0  0  0  0  0  0  0
   22.1686   -4.1596  -15.5616 C   0  0  0  0  0  0  0  0  0  0  0  0
   22.4982   -3.2806  -14.5619 C   0  0  0  0  0  0  0  0  0  0  0  0
   21.8156   -2.1195  -14.8029 N   0  0  0  0  0  0  0  0  0  0  0  0
   21.0878   -2.2676  -15.9122 C   0  0  0  0  0  0  0  0  0  0  0  0
   21.2933   -3.4843  -16.3722 N   0  0  0  0  0  0  0  0  0  0  0  0
   20.6782   -6.6725  -14.9638 C   0  0  0  0  0  0  0  0  0  0  0  0
   19.9555   -5.7118  -14.3074 O   0  0  0  0  0  0  0  0  0  0  0  0
   20.0553   -7.5779  -15.5398 O   0  0  0  0  0  0  0  0  0  0  0  0
  2  4  1  0
  2  1  1  1
  3  2  1  0
  4  5  1  6
  4  6  1  0
  6  7  2  0
  8  9  1  0
 10 12  1  0
 10  9  1  0
 10 11  1  1
 12 14  1  0
 13  6  1  0
 12 13  1  6
 14 15  2  0
 16 17  1  0
 16 14  1  0
 17 24  1  0
 17 18  1  6
 19 20  2  0
 19 18  1  0
 21 20  1  0
 22 23  2  0
 22 21  1  0
 23 19  1  0
 24 26  2  0
 24 25  1  0
M  END
$$$$
