QCP.pdb
     RDKit          3D

 23 23  0  0  1  0  0  0  0  0999 V2000
    6.4098  -19.8736   27.0539 N   0  0  0  0  0  0  0  0  0  0  0  0
    6.5499  -21.2831   26.8880 C   0  0  0  0  0  0  0  0  0  0  0  0
    6.9487  -22.0576   27.7757 O   0  0  0  0  0  0  0  0  0  0  0  0
    6.1890  -21.8464   25.5543 C   0  0  0  0  0  0  0  0  0  0  0  0
    5.5786  -20.7565   24.7279 C   0  0  0  0  0  0  0  0  0  0  0  0
    6.5453  -20.0473   23.8419 C   0  0  2  0  0  0  0  0  0  0  0  0
    7.8890  -20.3436   24.3558 N   0  0  0  0  0  0  0  0  0  0  0  0
    6.3278  -18.5852   23.7940 C   0  0  0  0  0  0  0  0  0  0  0  0
    5.3372  -18.1260   23.2024 O   0  0  0  0  0  0  0  0  0  0  0  0
    7.2420  -17.6830   24.4200 N   0  0  0  0  0  0  0  0  0  0  0  0
    7.2787  -16.3020   23.9626 C   0  0  1  0  0  0  0  0  0  0  0  0
    7.8546  -15.5060   25.1129 C   0  0  0  0  0  0  0  0  0  0  0  0
    8.3469  -13.8431   24.6399 S   0  0  0  0  0  0  0  0  0  0  0  0
    8.0757  -16.2162   22.7210 C   0  0  0  0  0  0  0  0  0  0  0  0
    8.7898  -17.2504   22.4547 O   0  0  0  0  0  0  0  0  0  0  0  0
    8.1296  -15.1467   21.8246 N   0  0  0  0  0  0  0  0  0  0  0  0
    7.5376  -13.8218   22.1082 C   0  0  0  0  0  0  0  0  0  0  0  0
    6.7051  -13.6395   20.8392 C   0  0  0  0  0  0  0  0  0  0  0  0
    7.6709  -14.1181   19.7788 C   0  0  0  0  0  0  0  0  0  0  0  0
    8.6884  -14.9854   20.5158 C   0  0  1  0  0  0  0  0  0  0  0  0
    9.9836  -14.2286   20.5535 C   0  0  0  0  0  0  0  0  0  0  0  0
   10.6283  -14.1808   19.4759 O   0  0  0  0  0  0  0  0  0  0  0  0
   10.4743  -13.6074   21.6825 O   0  0  0  0  0  0  0  0  0  0  0  0
  2  1  1  0
  2  3  2  0
  4  2  1  0
  5  4  1  0
  5  6  1  0
  6  7  1  1
  8  6  1  0
  8  9  2  0
 10  8  1  0
 11 14  1  0
 11 10  1  0
 11 12  1  1
 13 12  1  0
 14 16  1  0
 15 14  2  0
 16 20  1  0
 17 16  1  0
 18 19  1  0
 18 17  1  0
 19 20  1  0
 20 21  1  1
 21 23  1  0
 22 21  2  0
M  END
$$$$
