QCP.pdb
     RDKit          3D

 23 23  0  0  1  0  0  0  0  0999 V2000
    8.6485  -13.2256   17.4940 N   0  0  0  0  0  0  0  0  0  0  0  0
    7.4885  -13.9459   17.9055 C   0  0  0  0  0  0  0  0  0  0  0  0
    6.5099  -14.1769   17.1732 O   0  0  0  0  0  0  0  0  0  0  0  0
    7.4665  -14.4472   19.3106 C   0  0  0  0  0  0  0  0  0  0  0  0
    8.7181  -13.9927   19.9965 C   0  0  0  0  0  0  0  0  0  0  0  0
    9.1449  -14.8635   21.1288 C   0  0  2  0  0  0  0  0  0  0  0  0
    8.4833  -16.1611   20.9398 N   0  0  0  0  0  0  0  0  0  0  0  0
    8.8035  -14.3045   22.4549 C   0  0  0  0  0  0  0  0  0  0  0  0
    9.2099  -13.1751   22.7736 O   0  0  0  0  0  0  0  0  0  0  0  0
    8.0089  -15.0439   23.3842 N   0  0  0  0  0  0  0  0  0  0  0  0
    7.9124  -14.5618   24.7538 C   0  0  1  0  0  0  0  0  0  0  0  0
    6.4841  -14.8223   25.1787 C   0  0  0  0  0  0  0  0  0  0  0  0
    6.1941  -14.4756   26.9186 S   0  0  0  0  0  0  0  0  0  0  0  0
    8.9175  -15.2512   25.5898 C   0  0  0  0  0  0  0  0  0  0  0  0
    9.5673  -16.1915   25.0034 O   0  0  0  0  0  0  0  0  0  0  0  0
    9.2277  -14.9886   26.9259 N   0  0  0  0  0  0  0  0  0  0  0  0
    8.4003  -14.1241   27.7945 C   0  0  0  0  0  0  0  0  0  0  0  0
    9.4840  -13.1838   28.3219 C   0  0  0  0  0  0  0  0  0  0  0  0
   10.6021  -14.1569   28.6208 C   0  0  0  0  0  0  0  0  0  0  0  0
   10.2946  -15.3993   27.7886 C   0  0  1  0  0  0  0  0  0  0  0  0
    9.8602  -16.4801   28.7346 C   0  0  0  0  0  0  0  0  0  0  0  0
    8.6326  -16.7489   28.7416 O   0  0  0  0  0  0  0  0  0  0  0  0
   10.7237  -17.1633   29.5645 O   0  0  0  0  0  0  0  0  0  0  0  0
  2  1  1  0
  2  3  2  0
  4  2  1  0
  5  4  1  0
  5  6  1  0
  6  7  1  6
  8  6  1  0
  8  9  2  0
 10  8  1  0
 11 14  1  0
 11 10  1  0
 11 12  1  1
 13 12  1  0
 14 16  1  0
 15 14  2  0
 16 20  1  0
 17 16  1  0
 18 19  1  0
 18 17  1  0
 19 20  1  0
 20 21  1  1
 21 23  1  0
 22 21  2  0
M  END
$$$$
