QCP.pdb
     RDKit          3D

 23 23  0  0  1  0  0  0  0  0999 V2000
   13.5179  -13.8857   20.3516 N   0  0  0  0  0  0  0  0  0  0  0  0
   12.5159  -14.8888   20.1988 C   0  0  0  0  0  0  0  0  0  0  0  0
   12.6114  -15.8649   19.4338 O   0  0  0  0  0  0  0  0  0  0  0  0
   11.2788  -14.7397   21.0196 C   0  0  0  0  0  0  0  0  0  0  0  0
   10.3316  -13.8366   20.2911 C   0  0  0  0  0  0  0  0  0  0  0  0
    8.8985  -14.0381   20.6484 C   0  0  2  0  0  0  0  0  0  0  0  0
    8.1179  -13.1194   19.8093 N   0  0  0  0  0  0  0  0  0  0  0  0
    8.6138  -13.7903   22.0785 C   0  0  0  0  0  0  0  0  0  0  0  0
    8.8334  -12.6703   22.5681 O   0  0  0  0  0  0  0  0  0  0  0  0
    8.0870  -14.8220   22.9149 N   0  0  0  0  0  0  0  0  0  0  0  0
    7.8666  -14.5302   24.3234 C   0  0  1  0  0  0  0  0  0  0  0  0
    6.5253  -15.1422   24.6622 C   0  0  0  0  0  0  0  0  0  0  0  0
    6.2224  -15.2359   26.4317 S   0  0  0  0  0  0  0  0  0  0  0  0
    8.9872  -15.0735   25.1194 C   0  0  0  0  0  0  0  0  0  0  0  0
    9.8359  -15.7790   24.4620 O   0  0  0  0  0  0  0  0  0  0  0  0
    9.2136  -14.9002   26.4866 N   0  0  0  0  0  0  0  0  0  0  0  0
    8.1963  -14.3599   27.4137 C   0  0  0  0  0  0  0  0  0  0  0  0
    9.0203  -13.2579   28.0795 C   0  0  0  0  0  0  0  0  0  0  0  0
   10.3349  -13.9682   28.3107 C   0  0  0  0  0  0  0  0  0  0  0  0
   10.3395  -15.1443   27.3374 C   0  0  1  0  0  0  0  0  0  0  0  0
   10.1658  -16.3981   28.1434 C   0  0  0  0  0  0  0  0  0  0  0  0
    9.0373  -16.9469   28.0770 O   0  0  0  0  0  0  0  0  0  0  0  0
   11.1594  -16.9496   28.9243 O   0  0  0  0  0  0  0  0  0  0  0  0
  2  1  1  0
  2  3  2  0
  4  2  1  0
  5  4  1  0
  5  6  1  0
  6  7  1  6
  8  6  1  0
  8  9  2  0
 10  8  1  0
 11 14  1  0
 11 10  1  0
 11 12  1  1
 13 12  1  0
 14 16  1  0
 15 14  2  0
 16 20  1  0
 17 16  1  0
 18 19  1  0
 18 17  1  0
 19 20  1  0
 20 21  1  1
 21 23  1  0
 22 21  2  0
M  END
$$$$
