QCP.pdb
     RDKit          3D

 23 23  0  0  1  0  0  0  0  0999 V2000
    7.9713  -13.4517   17.1688 N   0  0  0  0  0  0  0  0  0  0  0  0
    8.3845  -12.9675   18.4450 C   0  0  0  0  0  0  0  0  0  0  0  0
    8.1265  -11.8318   18.8814 O   0  0  0  0  0  0  0  0  0  0  0  0
    9.1777  -13.9001   19.2979 C   0  0  0  0  0  0  0  0  0  0  0  0
    8.4143  -15.1812   19.4378 C   0  0  0  0  0  0  0  0  0  0  0  0
    8.7824  -15.9836   20.6390 C   0  0  2  0  0  0  0  0  0  0  0  0
    8.1242  -17.2889   20.4962 N   0  0  0  0  0  0  0  0  0  0  0  0
    8.3811  -15.3458   21.9116 C   0  0  0  0  0  0  0  0  0  0  0  0
    7.4783  -14.4930   21.9185 O   0  0  0  0  0  0  0  0  0  0  0  0
    9.0164  -15.6938   23.1432 N   0  0  0  0  0  0  0  0  0  0  0  0
    8.4465  -15.1931   24.3850 C   0  0  1  0  0  0  0  0  0  0  0  0
    7.0089  -15.6639   24.3935 C   0  0  0  0  0  0  0  0  0  0  0  0
    6.2548  -15.5899   26.0237 S   0  0  0  0  0  0  0  0  0  0  0  0
    9.2425  -15.6897   25.5269 C   0  0  0  0  0  0  0  0  0  0  0  0
    9.8712  -16.7908   25.3200 O   0  0  0  0  0  0  0  0  0  0  0  0
    9.3792  -15.0949   26.7830 N   0  0  0  0  0  0  0  0  0  0  0  0
    8.3536  -14.2101   27.3759 C   0  0  0  0  0  0  0  0  0  0  0  0
    9.2313  -13.0122   27.7382 C   0  0  0  0  0  0  0  0  0  0  0  0
   10.4453  -13.6990   28.3220 C   0  0  0  0  0  0  0  0  0  0  0  0
   10.4056  -15.1262   27.7814 C   0  0  1  0  0  0  0  0  0  0  0  0
   10.0440  -16.0312   28.9224 C   0  0  0  0  0  0  0  0  0  0  0  0
    8.8648  -16.4655   28.9321 O   0  0  0  0  0  0  0  0  0  0  0  0
   10.9228  -16.3906   29.9223 O   0  0  0  0  0  0  0  0  0  0  0  0
  2  1  1  0
  2  3  2  0
  4  2  1  0
  5  4  1  0
  5  6  1  0
  6  7  1  6
  8  6  1  0
  8  9  2  0
 10  8  1  0
 11 14  1  0
 11 10  1  0
 11 12  1  1
 13 12  1  0
 14 16  1  0
 15 14  2  0
 16 20  1  0
 17 16  1  0
 18 19  1  0
 18 17  1  0
 19 20  1  0
 20 21  1  1
 21 23  1  0
 22 21  2  0
M  END
$$$$
