QCP.pdb
     RDKit          3D

 23 23  0  0  1  0  0  0  0  0999 V2000
    9.4286  -19.7637   21.8413 N   0  0  0  0  0  0  0  0  0  0  0  0
   10.5735  -18.9418   21.6235 C   0  0  0  0  0  0  0  0  0  0  0  0
   11.7439  -19.3620   21.5974 O   0  0  0  0  0  0  0  0  0  0  0  0
   10.3303  -17.4845   21.4152 C   0  0  0  0  0  0  0  0  0  0  0  0
    8.8588  -17.2280   21.5265 C   0  0  0  0  0  0  0  0  0  0  0  0
    8.4766  -15.7936   21.3892 C   0  0  2  0  0  0  0  0  0  0  0  0
    9.2170  -15.2650   20.2360 N   0  0  0  0  0  0  0  0  0  0  0  0
    8.7731  -14.9931   22.5970 C   0  0  0  0  0  0  0  0  0  0  0  0
    9.8517  -14.3841   22.6863 O   0  0  0  0  0  0  0  0  0  0  0  0
    7.8358  -14.9057   23.6719 N   0  0  0  0  0  0  0  0  0  0  0  0
    8.2406  -14.2263   24.8934 C   0  0  1  0  0  0  0  0  0  0  0  0
    6.9574  -13.7645   25.5482 C   0  0  0  0  0  0  0  0  0  0  0  0
    6.2284  -15.0092   26.6209 S   0  0  0  0  0  0  0  0  0  0  0  0
    9.0367  -15.1496   25.7290 C   0  0  0  0  0  0  0  0  0  0  0  0
    9.2953  -16.2888   25.1945 O   0  0  0  0  0  0  0  0  0  0  0  0
    9.5279  -14.9138   27.0149 N   0  0  0  0  0  0  0  0  0  0  0  0
    8.8991  -13.9673   27.9609 C   0  0  0  0  0  0  0  0  0  0  0  0
   10.1253  -13.1378   28.3418 C   0  0  0  0  0  0  0  0  0  0  0  0
   11.1694  -14.2165   28.5223 C   0  0  0  0  0  0  0  0  0  0  0  0
   10.6440  -15.4254   27.7522 C   0  0  1  0  0  0  0  0  0  0  0  0
   10.2206  -16.4534   28.7600 C   0  0  0  0  0  0  0  0  0  0  0  0
    8.9848  -16.5490   28.9673 O   0  0  0  0  0  0  0  0  0  0  0  0
   11.1021  -17.2660   29.4410 O   0  0  0  0  0  0  0  0  0  0  0  0
  2  1  1  0
  2  3  2  0
  4  2  1  0
  5  4  1  0
  5  6  1  0
  6  7  1  6
  8  6  1  0
  8  9  2  0
 10  8  1  0
 11 14  1  0
 11 10  1  0
 11 12  1  1
 13 12  1  0
 14 16  1  0
 15 14  2  0
 16 20  1  0
 17 16  1  0
 18 19  1  0
 18 17  1  0
 19 20  1  0
 20 21  1  1
 21 23  1  0
 22 21  2  0
M  END
$$$$
