QCP.pdb
     RDKit          3D

 23 23  0  0  1  0  0  0  0  0999 V2000
   13.6505  -18.9437   21.7455 N   0  0  0  0  0  0  0  0  0  0  0  0
   13.6888  -17.9730   20.7015 C   0  0  0  0  0  0  0  0  0  0  0  0
   14.6402  -17.8274   19.9136 O   0  0  0  0  0  0  0  0  0  0  0  0
   12.4994  -17.0829   20.5615 C   0  0  0  0  0  0  0  0  0  0  0  0
   11.4974  -17.4613   21.6084 C   0  0  0  0  0  0  0  0  0  0  0  0
   10.0871  -17.1376   21.2496 C   0  0  2  0  0  0  0  0  0  0  0  0
   10.1363  -16.3108   20.0366 N   0  0  0  0  0  0  0  0  0  0  0  0
    9.3609  -16.4259   22.3236 C   0  0  0  0  0  0  0  0  0  0  0  0
    9.4049  -15.1863   22.3840 O   0  0  0  0  0  0  0  0  0  0  0  0
    8.6036  -17.1419   23.3011 N   0  0  0  0  0  0  0  0  0  0  0  0
    7.9302  -16.3877   24.3477 C   0  0  1  0  0  0  0  0  0  0  0  0
    6.9110  -17.3346   24.9419 C   0  0  0  0  0  0  0  0  0  0  0  0
    6.3523  -16.8313   26.5747 S   0  0  0  0  0  0  0  0  0  0  0  0
    8.9285  -15.8996   25.3221 C   0  0  0  0  0  0  0  0  0  0  0  0
   10.0857  -16.4520   25.2456 O   0  0  0  0  0  0  0  0  0  0  0  0
    8.7458  -14.9170   26.2976 N   0  0  0  0  0  0  0  0  0  0  0  0
    7.4595  -14.2209   26.5148 C   0  0  0  0  0  0  0  0  0  0  0  0
    7.9443  -12.7720   26.4663 C   0  0  0  0  0  0  0  0  0  0  0  0
    9.2100  -12.8544   27.2893 C   0  0  0  0  0  0  0  0  0  0  0  0
    9.6096  -14.3277   27.2762 C   0  0  1  0  0  0  0  0  0  0  0  0
    9.3520  -14.8776   28.6485 C   0  0  0  0  0  0  0  0  0  0  0  0
    8.4152  -15.7096   28.7444 O   0  0  0  0  0  0  0  0  0  0  0  0
   10.0765  -14.5183   29.7652 O   0  0  0  0  0  0  0  0  0  0  0  0
  2  1  1  0
  2  3  2  0
  4  2  1  0
  5  4  1  0
  5  6  1  0
  6  7  1  6
  8  6  1  0
  8  9  2  0
 10  8  1  0
 11 14  1  0
 11 10  1  0
 11 12  1  1
 13 12  1  0
 14 16  1  0
 15 14  2  0
 16 20  1  0
 17 16  1  0
 18 19  1  0
 18 17  1  0
 19 20  1  0
 20 21  1  1
 21 23  1  0
 22 21  2  0
M  END
$$$$
