QCP.pdb
     RDKit          3D

 23 23  0  0  1  0  0  0  0  0999 V2000
    7.3148  -18.2389   21.4941 N   0  0  0  0  0  0  0  0  0  0  0  0
    7.7849  -17.7701   20.2319 C   0  0  0  0  0  0  0  0  0  0  0  0
    8.4334  -18.4596   19.4249 O   0  0  0  0  0  0  0  0  0  0  0  0
    7.4678  -16.3567   19.8744 C   0  0  0  0  0  0  0  0  0  0  0  0
    6.6268  -15.7682   20.9653 C   0  0  0  0  0  0  0  0  0  0  0  0
    6.9584  -14.3531   21.2963 C   0  0  2  0  0  0  0  0  0  0  0  0
    7.6079  -13.7800   20.1101 N   0  0  0  0  0  0  0  0  0  0  0  0
    7.8415  -14.2218   22.4755 C   0  0  0  0  0  0  0  0  0  0  0  0
    8.9792  -13.7413   22.3461 O   0  0  0  0  0  0  0  0  0  0  0  0
    7.4081  -14.6403   23.7712 N   0  0  0  0  0  0  0  0  0  0  0  0
    7.5779  -13.7252   24.8899 C   0  0  1  0  0  0  0  0  0  0  0  0
    6.2200  -13.6308   25.5499 C   0  0  0  0  0  0  0  0  0  0  0  0
    6.1918  -12.4908   26.9396 S   0  0  0  0  0  0  0  0  0  0  0  0
    8.6403  -14.2327   25.7834 C   0  0  0  0  0  0  0  0  0  0  0  0
    8.8245  -13.5534   26.8580 O   0  0  0  0  0  0  0  0  0  0  0  0
    9.4476  -15.3545   25.5828 N   0  0  0  0  0  0  0  0  0  0  0  0
   10.8517  -15.2706   25.1268 C   0  0  0  0  0  0  0  0  0  0  0  0
   10.7958  -16.2489   23.9536 C   0  0  0  0  0  0  0  0  0  0  0  0
    9.9826  -17.3775   24.5462 C   0  0  0  0  0  0  0  0  0  0  0  0
    9.2296  -16.7630   25.7235 C   0  0  1  0  0  0  0  0  0  0  0  0
    9.8462  -17.2981   26.9826 C   0  0  0  0  0  0  0  0  0  0  0  0
   10.4162  -16.4560   27.7209 O   0  0  0  0  0  0  0  0  0  0  0  0
    9.8122  -18.6276   27.3462 O   0  0  0  0  0  0  0  0  0  0  0  0
  2  1  1  0
  2  3  2  0
  4  2  1  0
  5  4  1  0
  5  6  1  0
  6  7  1  6
  8  6  1  0
  8  9  2  0
 10  8  1  0
 11 14  1  0
 11 10  1  0
 11 12  1  1
 13 12  1  0
 14 16  1  0
 15 14  2  0
 16 20  1  0
 17 16  1  0
 18 19  1  0
 18 17  1  0
 19 20  1  0
 20 21  1  1
 21 23  1  0
 22 21  2  0
M  END
$$$$
