QCP.pdb
     RDKit          3D

 23 23  0  0  1  0  0  0  0  0999 V2000
   11.9990  -18.2513   21.1370 N   0  0  0  0  0  0  0  0  0  0  0  0
   12.2166  -17.9670   19.7565 C   0  0  0  0  0  0  0  0  0  0  0  0
   12.8599  -18.6982   18.9828 O   0  0  0  0  0  0  0  0  0  0  0  0
   11.6255  -16.7046   19.2245 C   0  0  0  0  0  0  0  0  0  0  0  0
   10.9327  -15.9948   20.3469 C   0  0  0  0  0  0  0  0  0  0  0  0
    9.6711  -16.6491   20.7972 C   0  0  2  0  0  0  0  0  0  0  0  0
    8.7277  -16.5714   19.6741 N   0  0  0  0  0  0  0  0  0  0  0  0
    9.0854  -16.0197   22.0007 C   0  0  0  0  0  0  0  0  0  0  0  0
    8.5907  -14.8831   21.9259 O   0  0  0  0  0  0  0  0  0  0  0  0
    9.0774  -16.6989   23.2578 N   0  0  0  0  0  0  0  0  0  0  0  0
    8.5516  -16.0008   24.4214 C   0  0  1  0  0  0  0  0  0  0  0  0
    7.3375  -16.7909   24.8574 C   0  0  0  0  0  0  0  0  0  0  0  0
    6.8656  -16.4704   26.5622 S   0  0  0  0  0  0  0  0  0  0  0  0
    9.6036  -15.9067   25.4552 C   0  0  0  0  0  0  0  0  0  0  0  0
   10.6967  -16.5244   25.1837 O   0  0  0  0  0  0  0  0  0  0  0  0
    9.5321  -15.2268   26.6730 N   0  0  0  0  0  0  0  0  0  0  0  0
    8.2961  -14.5865   27.1716 C   0  0  0  0  0  0  0  0  0  0  0  0
    8.8406  -13.1925   27.4827 C   0  0  0  0  0  0  0  0  0  0  0  0
   10.1548  -13.5290   28.1506 C   0  0  0  0  0  0  0  0  0  0  0  0
   10.4863  -14.9509   27.7048 C   0  0  1  0  0  0  0  0  0  0  0  0
   10.2988  -15.8511   28.8907 C   0  0  0  0  0  0  0  0  0  0  0  0
    9.2748  -16.5793   28.8763 O   0  0  0  0  0  0  0  0  0  0  0  0
   11.1740  -15.9075   29.9546 O   0  0  0  0  0  0  0  0  0  0  0  0
  2  1  1  0
  2  3  2  0
  4  2  1  0
  5  4  1  0
  5  6  1  0
  6  7  1  6
  8  6  1  0
  8  9  2  0
 10  8  1  0
 11 14  1  0
 11 10  1  0
 11 12  1  1
 13 12  1  0
 14 16  1  0
 15 14  2  0
 16 20  1  0
 17 16  1  0
 18 19  1  0
 18 17  1  0
 19 20  1  0
 20 21  1  1
 21 23  1  0
 22 21  2  0
M  END
$$$$
