GKK.pdb
     RDKit          3D

 23 22  0  0  1  0  0  0  0  0999 V2000
   28.4273  -21.4924  -16.4000 N   0  0  0  0  0  0  0  0  0  0  0  0
   28.1858  -20.6036  -15.3036 C   0  0  0  0  0  0  0  0  0  0  0  0
   27.0412  -21.0877  -14.4920 C   0  0  0  0  0  0  0  0  0  0  0  0
   26.2680  -21.9455  -14.9784 O   0  0  0  0  0  0  0  0  0  0  0  0
   26.8188  -20.5915  -13.1840 N   0  0  0  0  0  0  0  0  0  0  0  0
   25.6434  -20.9797  -12.4078 C   0  0  1  0  0  0  0  0  0  0  0  0
   25.8629  -20.6835  -10.9461 C   0  0  0  0  0  0  0  0  0  0  0  0
   24.7630  -21.0959  -10.0365 C   0  0  0  0  0  0  0  0  0  0  0  0
   25.0614  -20.6986   -8.5896 C   0  0  0  0  0  0  0  0  0  0  0  0
   24.0156  -21.2436   -7.6634 C   0  0  0  0  0  0  0  0  0  0  0  0
   24.2982  -20.7531   -6.3264 N   0  0  0  0  0  0  0  0  0  0  0  0
   24.4483  -20.2084  -12.8926 C   0  0  0  0  0  0  0  0  0  0  0  0
   24.4814  -18.9631  -13.0454 O   0  0  0  0  0  0  0  0  0  0  0  0
   23.2300  -20.8591  -13.1984 N   0  0  0  0  0  0  0  0  0  0  0  0
   22.1464  -20.1026  -13.8417 C   0  0  1  0  0  0  0  0  0  0  0  0
   22.0305  -20.4817  -15.2765 C   0  0  0  0  0  0  0  0  0  0  0  0
   20.8791  -19.7859  -15.9349 C   0  0  0  0  0  0  0  0  0  0  0  0
   20.7757  -20.1746  -17.4126 C   0  0  0  0  0  0  0  0  0  0  0  0
   19.6196  -19.3876  -18.0181 C   0  0  0  0  0  0  0  0  0  0  0  0
   19.5580  -19.6231  -19.4463 N   0  0  0  0  0  0  0  0  0  0  0  0
   20.9365  -20.4090  -13.0713 C   0  0  0  0  0  0  0  0  0  0  0  0
   20.7612  -21.5093  -12.5135 O   0  0  0  0  0  0  0  0  0  0  0  0
   19.9350  -19.4648  -12.9397 O   0  0  0  0  0  0  0  0  0  0  0  0
  1  2  1  0
  3  2  1  0
  3  4  2  0
  5  3  1  0
  6  5  1  0
  6 12  1  0
  6  7  1  1
  8  7  1  0
  9  8  1  0
  9 10  1  0
 11 10  1  0
 12 14  1  0
 13 12  2  0
 14 15  1  0
 15 21  1  0
 15 16  1  6
 17 16  1  0
 18 17  1  0
 19 18  1  0
 20 19  1  0
 21 22  2  0
 21 23  1  0
M  END
$$$$
