GKK.pdb
     RDKit          3D

 23 22  0  0  1  0  0  0  0  0999 V2000
   24.0285  -11.3867  -15.3520 N   0  0  0  0  0  0  0  0  0  0  0  0
   24.3819  -12.5431  -14.5850 C   0  0  0  0  0  0  0  0  0  0  0  0
   24.1029  -13.7782  -15.3592 C   0  0  0  0  0  0  0  0  0  0  0  0
   23.0439  -13.8552  -16.0245 O   0  0  0  0  0  0  0  0  0  0  0  0
   25.0170  -14.8605  -15.3515 N   0  0  0  0  0  0  0  0  0  0  0  0
   24.8344  -16.0226  -16.2181 C   0  0  1  0  0  0  0  0  0  0  0  0
   26.1472  -16.7366  -16.4159 C   0  0  0  0  0  0  0  0  0  0  0  0
   26.1269  -17.8561  -17.3925 C   0  0  0  0  0  0  0  0  0  0  0  0
   27.5052  -18.5081  -17.5175 C   0  0  0  0  0  0  0  0  0  0  0  0
   27.4969  -19.5666  -18.5796 C   0  0  0  0  0  0  0  0  0  0  0  0
   28.8389  -20.1109  -18.6836 N   0  0  0  0  0  0  0  0  0  0  0  0
   23.8506  -16.9665  -15.5861 C   0  0  0  0  0  0  0  0  0  0  0  0
   23.9684  -17.3464  -14.3957 O   0  0  0  0  0  0  0  0  0  0  0  0
   22.7450  -17.4682  -16.3122 N   0  0  0  0  0  0  0  0  0  0  0  0
   21.7436  -18.2968  -15.6259 C   0  0  1  0  0  0  0  0  0  0  0  0
   20.3691  -17.8711  -16.0075 C   0  0  0  0  0  0  0  0  0  0  0  0
   19.3303  -18.7448  -15.3744 C   0  0  0  0  0  0  0  0  0  0  0  0
   17.9291  -18.3813  -15.8745 C   0  0  0  0  0  0  0  0  0  0  0  0
   16.9269  -19.2247  -15.0957 C   0  0  0  0  0  0  0  0  0  0  0  0
   15.5931  -19.0153  -15.6215 N   0  0  0  0  0  0  0  0  0  0  0  0
   22.0402  -19.6800  -16.0128 C   0  0  0  0  0  0  0  0  0  0  0  0
   21.7347  -20.6534  -15.2974 O   0  0  0  0  0  0  0  0  0  0  0  0
   22.6808  -19.9483  -17.2085 O   0  0  0  0  0  0  0  0  0  0  0  0
  1  2  1  0
  3  2  1  0
  3  4  2  0
  5  3  1  0
  6  5  1  0
  6 12  1  0
  6  7  1  1
  8  7  1  0
  9  8  1  0
  9 10  1  0
 11 10  1  0
 12 14  1  0
 13 12  2  0
 14 15  1  0
 15 21  1  0
 15 16  1  6
 17 16  1  0
 18 17  1  0
 19 18  1  0
 20 19  1  0
 21 22  2  0
 21 23  1  0
M  END
$$$$
