GKK.pdb
     RDKit          3D

 23 22  0  0  1  0  0  0  0  0999 V2000
   25.7849  -22.8842  -14.1482 N   0  0  0  0  0  0  0  0  0  0  0  0
   24.7208  -22.5024  -15.0271 C   0  0  0  0  0  0  0  0  0  0  0  0
   23.6241  -21.8624  -14.2586 C   0  0  0  0  0  0  0  0  0  0  0  0
   23.6703  -21.8718  -13.0065 O   0  0  0  0  0  0  0  0  0  0  0  0
   22.5359  -21.2467  -14.9245 N   0  0  0  0  0  0  0  0  0  0  0  0
   21.4867  -20.5446  -14.1889 C   0  0  1  0  0  0  0  0  0  0  0  0
   20.8350  -19.5101  -15.0706 C   0  0  0  0  0  0  0  0  0  0  0  0
   19.7630  -18.7055  -14.4296 C   0  0  0  0  0  0  0  0  0  0  0  0
   19.2300  -17.6331  -15.3816 C   0  0  0  0  0  0  0  0  0  0  0  0
   18.1620  -16.8170  -14.7167 C   0  0  0  0  0  0  0  0  0  0  0  0
   17.6559  -15.8620  -15.6862 N   0  0  0  0  0  0  0  0  0  0  0  0
   20.4479  -21.5320  -13.7372 C   0  0  0  0  0  0  0  0  0  0  0  0
   20.0047  -22.4232  -14.5018 O   0  0  0  0  0  0  0  0  0  0  0  0
   19.9244  -21.4965  -12.4235 N   0  0  0  0  0  0  0  0  0  0  0  0
   19.1016  -22.6151  -11.9413 C   0  0  1  0  0  0  0  0  0  0  0  0
   19.2726  -22.7889  -10.4728 C   0  0  0  0  0  0  0  0  0  0  0  0
   18.4517  -23.9309   -9.9579 C   0  0  0  0  0  0  0  0  0  0  0  0
   18.6487  -24.1119   -8.4499 C   0  0  0  0  0  0  0  0  0  0  0  0
   17.9026  -25.3740   -8.0342 C   0  0  0  0  0  0  0  0  0  0  0  0
   17.9775  -25.5396   -6.5968 N   0  0  0  0  0  0  0  0  0  0  0  0
   17.7234  -22.2863  -12.3200 C   0  0  0  0  0  0  0  0  0  0  0  0
   16.9117  -23.1510  -12.7021 O   0  0  0  0  0  0  0  0  0  0  0  0
   17.2765  -20.9790  -12.2620 O   0  0  0  0  0  0  0  0  0  0  0  0
  1  2  1  0
  3  2  1  0
  3  4  2  0
  5  3  1  0
  6  5  1  0
  6 12  1  0
  6  7  1  6
  8  7  1  0
  9  8  1  0
  9 10  1  0
 11 10  1  0
 12 14  1  0
 13 12  2  0
 14 15  1  0
 15 21  1  0
 15 16  1  1
 17 16  1  0
 18 17  1  0
 19 18  1  0
 20 19  1  0
 21 22  2  0
 21 23  1  0
M  END
$$$$
