GKK.pdb
     RDKit          3D

 23 22  0  0  1  0  0  0  0  0999 V2000
   20.8284  -21.4631   -9.2727 N   0  0  0  0  0  0  0  0  0  0  0  0
   21.6579  -22.0946  -10.2543 C   0  0  0  0  0  0  0  0  0  0  0  0
   22.3306  -21.0717  -11.0936 C   0  0  0  0  0  0  0  0  0  0  0  0
   21.8636  -19.9096  -11.1306 O   0  0  0  0  0  0  0  0  0  0  0  0
   23.4860  -21.3971  -11.8459 N   0  0  0  0  0  0  0  0  0  0  0  0
   24.1635  -20.4037  -12.6760 C   0  0  1  0  0  0  0  0  0  0  0  0
   25.5831  -20.8320  -12.9472 C   0  0  0  0  0  0  0  0  0  0  0  0
   26.5352  -20.6434  -11.8223 C   0  0  0  0  0  0  0  0  0  0  0  0
   27.9182  -21.1992  -12.1671 C   0  0  0  0  0  0  0  0  0  0  0  0
   28.9025  -20.8844  -11.0805 C   0  0  0  0  0  0  0  0  0  0  0  0
   30.1820  -21.4624  -11.4504 N   0  0  0  0  0  0  0  0  0  0  0  0
   23.4333  -20.2631  -13.9818 C   0  0  0  0  0  0  0  0  0  0  0  0
   23.0018  -21.2604  -14.6099 O   0  0  0  0  0  0  0  0  0  0  0  0
   23.2015  -18.9928  -14.5595 N   0  0  0  0  0  0  0  0  0  0  0  0
   22.3452  -18.8836  -15.7492 C   0  0  1  0  0  0  0  0  0  0  0  0
   21.8664  -17.4841  -15.9165 C   0  0  0  0  0  0  0  0  0  0  0  0
   21.0186  -17.3389  -17.1427 C   0  0  0  0  0  0  0  0  0  0  0  0
   20.5926  -15.8819  -17.3455 C   0  0  0  0  0  0  0  0  0  0  0  0
   19.7824  -15.8120  -18.6344 C   0  0  0  0  0  0  0  0  0  0  0  0
   19.5141  -14.4291  -18.9731 N   0  0  0  0  0  0  0  0  0  0  0  0
   23.1670  -19.3434  -16.8736 C   0  0  0  0  0  0  0  0  0  0  0  0
   24.3617  -19.0149  -17.0055 O   0  0  0  0  0  0  0  0  0  0  0  0
   22.6273  -20.1727  -17.8395 O   0  0  0  0  0  0  0  0  0  0  0  0
  1  2  1  0
  3  2  1  0
  3  4  2  0
  5  3  1  0
  6  5  1  0
  6 12  1  0
  6  7  1  6
  8  7  1  0
  9  8  1  0
  9 10  1  0
 11 10  1  0
 12 14  1  0
 13 12  2  0
 14 15  1  0
 15 21  1  0
 15 16  1  6
 17 16  1  0
 18 17  1  0
 19 18  1  0
 20 19  1  0
 21 22  2  0
 21 23  1  0
M  END
$$$$
