GKK.pdb
     RDKit          3D

 23 22  0  0  1  0  0  0  0  0999 V2000
   26.5584  -22.7293  -15.2739 N   0  0  0  0  0  0  0  0  0  0  0  0
   25.4256  -22.2494  -16.0068 C   0  0  0  0  0  0  0  0  0  0  0  0
   24.5162  -21.4932  -15.1100 C   0  0  0  0  0  0  0  0  0  0  0  0
   24.7599  -21.4596  -13.8814 O   0  0  0  0  0  0  0  0  0  0  0  0
   23.3853  -20.8157  -15.6285 N   0  0  0  0  0  0  0  0  0  0  0  0
   22.4331  -20.1354  -14.7536 C   0  0  1  0  0  0  0  0  0  0  0  0
   21.8209  -18.9565  -15.4663 C   0  0  0  0  0  0  0  0  0  0  0  0
   22.7491  -17.8354  -15.7646 C   0  0  0  0  0  0  0  0  0  0  0  0
   22.0611  -16.7524  -16.5976 C   0  0  0  0  0  0  0  0  0  0  0  0
   23.0400  -15.6895  -16.9985 C   0  0  0  0  0  0  0  0  0  0  0  0
   22.3397  -14.7191  -17.8206 N   0  0  0  0  0  0  0  0  0  0  0  0
   21.3442  -21.0933  -14.3607 C   0  0  0  0  0  0  0  0  0  0  0  0
   20.8708  -21.9265  -15.1713 O   0  0  0  0  0  0  0  0  0  0  0  0
   20.8052  -21.0947  -13.0527 N   0  0  0  0  0  0  0  0  0  0  0  0
   19.8248  -22.1224  -12.6745 C   0  0  1  0  0  0  0  0  0  0  0  0
   19.9651  -22.4670  -11.2331 C   0  0  0  0  0  0  0  0  0  0  0  0
   18.9948  -23.5340  -10.8288 C   0  0  0  0  0  0  0  0  0  0  0  0
   19.0975  -23.8291   -9.3295 C   0  0  0  0  0  0  0  0  0  0  0  0
   18.0195  -24.8494   -8.9841 C   0  0  0  0  0  0  0  0  0  0  0  0
   18.0629  -25.1514   -7.5677 N   0  0  0  0  0  0  0  0  0  0  0  0
   18.5112  -21.5573  -13.0005 C   0  0  0  0  0  0  0  0  0  0  0  0
   18.2741  -20.3360  -12.9311 O   0  0  0  0  0  0  0  0  0  0  0  0
   17.4770  -22.3820  -13.4030 O   0  0  0  0  0  0  0  0  0  0  0  0
  1  2  1  0
  3  2  1  0
  3  4  2  0
  5  3  1  0
  6  5  1  0
  6 12  1  0
  6  7  1  6
  8  7  1  0
  9  8  1  0
  9 10  1  0
 11 10  1  0
 12 14  1  0
 13 12  2  0
 14 15  1  0
 15 21  1  0
 15 16  1  1
 17 16  1  0
 18 17  1  0
 19 18  1  0
 20 19  1  0
 21 22  2  0
 21 23  1  0
M  END
$$$$
