GKK.pdb
     RDKit          3D

 23 22  0  0  1  0  0  0  0  0999 V2000
   15.0153  -12.9389  -13.0387 N   0  0  0  0  0  0  0  0  0  0  0  0
   15.3885  -11.7560  -13.7541 C   0  0  0  0  0  0  0  0  0  0  0  0
   16.3334  -10.9441  -12.9472 C   0  0  0  0  0  0  0  0  0  0  0  0
   16.5461  -11.2620  -11.7540 O   0  0  0  0  0  0  0  0  0  0  0  0
   16.9902   -9.8229  -13.5113 N   0  0  0  0  0  0  0  0  0  0  0  0
   17.7222   -8.8678  -12.6825 C   0  0  1  0  0  0  0  0  0  0  0  0
   18.6809   -8.0703  -13.5295 C   0  0  0  0  0  0  0  0  0  0  0  0
   20.0314   -8.6653  -13.7013 C   0  0  0  0  0  0  0  0  0  0  0  0
   20.8940   -7.8209  -14.6411 C   0  0  0  0  0  0  0  0  0  0  0  0
   22.2621   -8.4177  -14.7852 C   0  0  0  0  0  0  0  0  0  0  0  0
   23.0020   -7.6211  -15.7475 N   0  0  0  0  0  0  0  0  0  0  0  0
   16.7496   -7.9304  -12.0241 C   0  0  0  0  0  0  0  0  0  0  0  0
   15.7388   -7.4942  -12.6270 O   0  0  0  0  0  0  0  0  0  0  0  0
   16.9352   -7.4992  -10.6897 N   0  0  0  0  0  0  0  0  0  0  0  0
   15.8762   -6.7272  -10.0241 C   0  0  1  0  0  0  0  0  0  0  0  0
   14.9204   -7.6409   -9.3404 C   0  0  0  0  0  0  0  0  0  0  0  0
   13.8421   -6.8768   -8.6357 C   0  0  0  0  0  0  0  0  0  0  0  0
   12.8400   -7.8268   -7.9733 C   0  0  0  0  0  0  0  0  0  0  0  0
   11.7362   -6.9771   -7.3552 C   0  0  0  0  0  0  0  0  0  0  0  0
   10.7070   -7.8335   -6.8013 N   0  0  0  0  0  0  0  0  0  0  0  0
   16.5660   -5.8252   -9.0959 C   0  0  0  0  0  0  0  0  0  0  0  0
   17.7462   -6.0081   -8.7404 O   0  0  0  0  0  0  0  0  0  0  0  0
   15.9118   -4.7225   -8.5783 O   0  0  0  0  0  0  0  0  0  0  0  0
  1  2  1  0
  3  2  1  0
  3  4  2  0
  5  3  1  0
  6  5  1  0
  6 12  1  0
  6  7  1  6
  8  7  1  0
  9  8  1  0
  9 10  1  0
 11 10  1  0
 12 14  1  0
 13 12  2  0
 14 15  1  0
 15 21  1  0
 15 16  1  1
 17 16  1  0
 18 17  1  0
 19 18  1  0
 20 19  1  0
 21 22  2  0
 21 23  1  0
M  END
$$$$
