GKK.pdb
     RDKit          3D

 23 22  0  0  1  0  0  0  0  0999 V2000
   26.7272  -21.7479  -10.6224 N   0  0  0  0  0  0  0  0  0  0  0  0
   27.1032  -21.6477  -12.0004 C   0  0  0  0  0  0  0  0  0  0  0  0
   26.3547  -20.5480  -12.6587 C   0  0  0  0  0  0  0  0  0  0  0  0
   25.3714  -20.0415  -12.0700 O   0  0  0  0  0  0  0  0  0  0  0  0
   26.7407  -20.0714  -13.9357 N   0  0  0  0  0  0  0  0  0  0  0  0
   26.0504  -18.9544  -14.5764 C   0  0  1  0  0  0  0  0  0  0  0  0
   26.8990  -18.3834  -15.6837 C   0  0  0  0  0  0  0  0  0  0  0  0
   26.3223  -17.2132  -16.3947 C   0  0  0  0  0  0  0  0  0  0  0  0
   27.2092  -16.7826  -17.5644 C   0  0  0  0  0  0  0  0  0  0  0  0
   26.7622  -15.4592  -18.1099 C   0  0  0  0  0  0  0  0  0  0  0  0
   27.6207  -15.1209  -19.2308 N   0  0  0  0  0  0  0  0  0  0  0  0
   24.7486  -19.4363  -15.1519 C   0  0  0  0  0  0  0  0  0  0  0  0
   24.6661  -20.5117  -15.7938 O   0  0  0  0  0  0  0  0  0  0  0  0
   23.5559  -18.6925  -14.9922 N   0  0  0  0  0  0  0  0  0  0  0  0
   22.2644  -19.3176  -15.3110 C   0  0  1  0  0  0  0  0  0  0  0  0
   21.5778  -19.7534  -14.0641 C   0  0  0  0  0  0  0  0  0  0  0  0
   20.7824  -21.0030  -14.2859 C   0  0  0  0  0  0  0  0  0  0  0  0
   20.0374  -21.4122  -13.0119 C   0  0  0  0  0  0  0  0  0  0  0  0
   19.2311  -22.6656  -13.3300 C   0  0  0  0  0  0  0  0  0  0  0  0
   18.3910  -23.0106  -12.2011 N   0  0  0  0  0  0  0  0  0  0  0  0
   21.5067  -18.3063  -16.0555 C   0  0  0  0  0  0  0  0  0  0  0  0
   21.4035  -17.1277  -15.6646 O   0  0  0  0  0  0  0  0  0  0  0  0
   20.8723  -18.6398  -17.2380 O   0  0  0  0  0  0  0  0  0  0  0  0
  1  2  1  0
  3  2  1  0
  3  4  2  0
  5  3  1  0
  6  5  1  0
  6 12  1  0
  6  7  1  6
  8  7  1  0
  9  8  1  0
  9 10  1  0
 11 10  1  0
 12 14  1  0
 13 12  2  0
 14 15  1  0
 15 21  1  0
 15 16  1  1
 17 16  1  0
 18 17  1  0
 19 18  1  0
 20 19  1  0
 21 22  2  0
 21 23  1  0
M  END
$$$$
