GKK.pdb
     RDKit          3D

 23 22  0  0  1  0  0  0  0  0999 V2000
   28.9032  -17.9748  -18.5711 N   0  0  0  0  0  0  0  0  0  0  0  0
   28.2452  -17.8109  -17.3099 C   0  0  0  0  0  0  0  0  0  0  0  0
   27.0192  -18.6458  -17.2576 C   0  0  0  0  0  0  0  0  0  0  0  0
   26.0315  -18.3239  -17.9582 O   0  0  0  0  0  0  0  0  0  0  0  0
   26.9584  -19.7932  -16.4291 N   0  0  0  0  0  0  0  0  0  0  0  0
   25.7981  -20.6812  -16.4354 C   0  0  1  0  0  0  0  0  0  0  0  0
   26.1920  -22.0569  -15.9615 C   0  0  0  0  0  0  0  0  0  0  0  0
   27.1022  -22.8090  -16.8633 C   0  0  0  0  0  0  0  0  0  0  0  0
   27.4574  -24.1770  -16.2778 C   0  0  0  0  0  0  0  0  0  0  0  0
   28.2766  -24.9733  -17.2490 C   0  0  0  0  0  0  0  0  0  0  0  0
   28.5297  -26.2770  -16.6621 N   0  0  0  0  0  0  0  0  0  0  0  0
   24.7419  -20.1286  -15.5204 C   0  0  0  0  0  0  0  0  0  0  0  0
   25.0116  -19.7344  -14.3597 O   0  0  0  0  0  0  0  0  0  0  0  0
   23.3924  -20.0298  -15.9331 N   0  0  0  0  0  0  0  0  0  0  0  0
   22.4120  -19.3775  -15.0534 C   0  0  1  0  0  0  0  0  0  0  0  0
   21.7500  -18.2484  -15.7625 C   0  0  0  0  0  0  0  0  0  0  0  0
   20.6366  -17.6675  -14.9463 C   0  0  0  0  0  0  0  0  0  0  0  0
   19.9663  -16.5038  -15.6825 C   0  0  0  0  0  0  0  0  0  0  0  0
   18.8689  -15.9553  -14.7784 C   0  0  0  0  0  0  0  0  0  0  0  0
   18.2125  -14.8364  -15.4237 N   0  0  0  0  0  0  0  0  0  0  0  0
   21.4721  -20.4311  -14.6563 C   0  0  0  0  0  0  0  0  0  0  0  0
   21.2093  -21.4027  -15.3907 O   0  0  0  0  0  0  0  0  0  0  0  0
   20.8379  -20.3743  -13.4289 O   0  0  0  0  0  0  0  0  0  0  0  0
  1  2  1  0
  3  2  1  0
  3  4  2  0
  5  3  1  0
  6  5  1  0
  6 12  1  0
  6  7  1  1
  8  7  1  0
  9  8  1  0
  9 10  1  0
 11 10  1  0
 12 14  1  0
 13 12  2  0
 14 15  1  0
 15 21  1  0
 15 16  1  6
 17 16  1  0
 18 17  1  0
 19 18  1  0
 20 19  1  0
 21 22  2  0
 21 23  1  0
M  END
$$$$
