GKK.pdb
     RDKit          3D

 23 22  0  0  1  0  0  0  0  0999 V2000
   25.2011  -24.0025  -15.0039 N   0  0  0  0  0  0  0  0  0  0  0  0
   24.8262  -23.1046  -13.9534 C   0  0  0  0  0  0  0  0  0  0  0  0
   23.4060  -22.7006  -14.1049 C   0  0  0  0  0  0  0  0  0  0  0  0
   22.8226  -22.9180  -15.1923 O   0  0  0  0  0  0  0  0  0  0  0  0
   22.7122  -22.0769  -13.0389 N   0  0  0  0  0  0  0  0  0  0  0  0
   21.3155  -21.6683  -13.1701 C   0  0  1  0  0  0  0  0  0  0  0  0
   20.6006  -21.8252  -11.8523 C   0  0  0  0  0  0  0  0  0  0  0  0
   19.7046  -23.0056  -11.7460 C   0  0  0  0  0  0  0  0  0  0  0  0
   18.8626  -22.9496  -10.4700 C   0  0  0  0  0  0  0  0  0  0  0  0
   17.8076  -24.0152  -10.4834 C   0  0  0  0  0  0  0  0  0  0  0  0
   18.0371  -24.8905   -9.3479 N   0  0  0  0  0  0  0  0  0  0  0  0
   21.2548  -20.2282  -13.5951 C   0  0  0  0  0  0  0  0  0  0  0  0
   21.8132  -19.3188  -12.9345 O   0  0  0  0  0  0  0  0  0  0  0  0
   20.5614  -19.8371  -14.7645 N   0  0  0  0  0  0  0  0  0  0  0  0
   20.5584  -18.4231  -15.1659 C   0  0  1  0  0  0  0  0  0  0  0  0
   20.8619  -18.2958  -16.6176 C   0  0  0  0  0  0  0  0  0  0  0  0
   20.8505  -16.8635  -17.0554 C   0  0  0  0  0  0  0  0  0  0  0  0
   21.1344  -16.7462  -18.5558 C   0  0  0  0  0  0  0  0  0  0  0  0
   21.2026  -15.2630  -18.8990 C   0  0  0  0  0  0  0  0  0  0  0  0
   21.6579  -15.0938  -20.2640 N   0  0  0  0  0  0  0  0  0  0  0  0
   19.2287  -17.9135  -14.8145 C   0  0  0  0  0  0  0  0  0  0  0  0
   18.2310  -18.6549  -14.7285 O   0  0  0  0  0  0  0  0  0  0  0  0
   19.0414  -16.5668  -14.5632 O   0  0  0  0  0  0  0  0  0  0  0  0
  1  2  1  0
  3  2  1  0
  3  4  2  0
  5  3  1  0
  6  5  1  0
  6 12  1  0
  6  7  1  1
  8  7  1  0
  9  8  1  0
  9 10  1  0
 11 10  1  0
 12 14  1  0
 13 12  2  0
 14 15  1  0
 15 21  1  0
 15 16  1  6
 17 16  1  0
 18 17  1  0
 19 18  1  0
 20 19  1  0
 21 22  2  0
 21 23  1  0
M  END
$$$$
