VRI.pdb
     RDKit          3D

 27 26  0  0  1  0  0  0  0  0999 V2000
   26.5086  -15.0989  -16.1209 C   0  0  0  0  0  0  0  0  0  0  0  0
   25.2121  -14.4708  -16.5208 C   0  0  1  0  0  0  0  0  0  0  0  0
   24.2255  -14.6205  -15.3852 C   0  0  0  0  0  0  0  0  0  0  0  0
   25.3910  -12.9959  -16.8152 C   0  0  2  0  0  0  0  0  0  0  0  0
   25.9579  -12.4362  -15.5693 N   0  0  0  0  0  0  0  0  0  0  0  0
   24.1274  -12.2942  -17.0902 C   0  0  0  0  0  0  0  0  0  0  0  0
   23.4826  -12.6494  -18.1423 O   0  0  0  0  0  0  0  0  0  0  0  0
   16.1827  -13.0846  -16.7434 N   0  0  0  0  0  0  0  0  0  0  0  0
   16.2707  -11.7922  -17.3544 C   0  0  0  0  0  0  0  0  0  0  0  0
   15.2395  -11.2212  -17.8715 N   0  0  0  0  0  0  0  0  0  0  0  0
   17.4957  -11.0763  -17.4205 N   0  0  0  0  0  0  0  0  0  0  0  0
   18.7109  -11.7142  -16.9599 C   0  0  0  0  0  0  0  0  0  0  0  0
   19.8874  -10.7673  -16.9745 C   0  0  0  0  0  0  0  0  0  0  0  0
   21.1507  -11.4443  -16.5754 C   0  0  0  0  0  0  0  0  0  0  0  0
   22.3839  -10.5327  -16.6358 C   0  0  2  0  0  0  0  0  0  0  0  0
   23.5775  -11.2635  -16.2800 N   0  0  0  0  0  0  0  0  0  0  0  0
   22.0713   -9.4805  -15.6119 C   0  0  0  0  0  0  0  0  0  0  0  0
   22.1391   -9.8178  -14.4063 O   0  0  0  0  0  0  0  0  0  0  0  0
   15.3794  -10.3240  -18.3756 C   0  0  0  0  0  0  0  0  0  0  0  0
   24.0883   -3.9761  -15.1287 C   0  0  0  0  0  0  0  0  0  0  0  0
   22.9852   -4.8595  -14.5301 C   0  0  2  0  0  0  0  0  0  0  0  0
   22.8231   -6.0139  -15.4609 C   0  0  0  0  0  0  0  0  0  0  0  0
   22.5594   -5.5702  -16.8678 C   0  0  2  0  0  0  0  0  0  0  0  0
   21.8197   -7.0446  -14.9983 N   0  0  0  0  0  0  0  0  0  0  0  0
   21.7128   -8.1612  -15.9131 C   0  0  0  0  0  0  0  0  0  0  0  0
   20.4825   -6.4446  -14.8498 O   0  0  0  0  0  0  0  0  0  0  0  0
   20.1633   -5.6957  -13.7359 O   0  0  0  0  0  0  0  0  0  0  0  0
  2  3  1  1
  2  1  1  0
  4  2  1  0
  4  5  1  1
  6  7  2  0
  6  4  1  0
  9  8  1  0
 10  9  2  0
 11  9  1  0
 12 11  1  0
 13 12  1  0
 13 14  1  0
 15 14  1  1
 15 16  1  0
 16  6  1  0
 17 15  1  0
 18 17  2  0
 19 20  1  0
 20 21  1  0
 21 23  1  0
 21 22  1  1
 23 24  1  1
 24 17  1  0
 25 23  1  0
 25 26  1  0
 27 25  2  0
M  END
$$$$
