VRI.pdb
     RDKit          3D

 27 26  0  0  1  0  0  0  0  0999 V2000
   29.5721  -17.9714  -19.2526 C   0  0  0  0  0  0  0  0  0  0  0  0
   28.5904  -17.6977  -18.1587 C   0  0  1  0  0  0  0  0  0  0  0  0
   27.2570  -17.3423  -18.7762 C   0  0  0  0  0  0  0  0  0  0  0  0
   28.4062  -18.9151  -17.2768 C   0  0  2  0  0  0  0  0  0  0  0  0
   28.0445  -19.9998  -18.2147 N   0  0  0  0  0  0  0  0  0  0  0  0
   27.3106  -18.7762  -16.3047 C   0  0  0  0  0  0  0  0  0  0  0  0
   27.5044  -17.9730  -15.3218 O   0  0  0  0  0  0  0  0  0  0  0  0
   19.6161  -20.3934  -13.0636 N   0  0  0  0  0  0  0  0  0  0  0  0
   19.4408  -19.4232  -14.1026 C   0  0  0  0  0  0  0  0  0  0  0  0
   18.5436  -18.5040  -14.0199 N   0  0  0  0  0  0  0  0  0  0  0  0
   20.2454  -19.4250  -15.2731 N   0  0  0  0  0  0  0  0  0  0  0  0
   21.3219  -20.3862  -15.3874 C   0  0  0  0  0  0  0  0  0  0  0  0
   22.6239  -19.8443  -14.8472 C   0  0  0  0  0  0  0  0  0  0  0  0
   23.7047  -19.8732  -15.8692 C   0  0  0  0  0  0  0  0  0  0  0  0
   25.0620  -19.3853  -15.3445 C   0  0  2  0  0  0  0  0  0  0  0  0
   26.0668  -19.4607  -16.3790 N   0  0  0  0  0  0  0  0  0  0  0  0
   25.3578  -20.3522  -14.2351 C   0  0  0  0  0  0  0  0  0  0  0  0
   25.5334  -21.5520  -14.5537 O   0  0  0  0  0  0  0  0  0  0  0  0
   18.4318  -17.8568  -14.8245 C   0  0  0  0  0  0  0  0  0  0  0  0
   29.5208  -20.3453  -11.4006 C   0  0  0  0  0  0  0  0  0  0  0  0
   28.2759  -20.8905  -12.1139 C   0  0  2  0  0  0  0  0  0  0  0  0
   27.1256  -20.6386  -11.1982 C   0  0  0  0  0  0  0  0  0  0  0  0
   27.2955  -21.3271   -9.8780 C   0  0  2  0  0  0  0  0  0  0  0  0
   25.7740  -20.9224  -11.8113 N   0  0  0  0  0  0  0  0  0  0  0  0
   25.4491  -20.0043  -12.8822 C   0  0  0  0  0  0  0  0  0  0  0  0
   24.7097  -20.8369  -10.7962 O   0  0  0  0  0  0  0  0  0  0  0  0
   23.8293  -19.7747  -10.7828 O   0  0  0  0  0  0  0  0  0  0  0  0
  2  3  1  6
  2  1  1  0
  4  2  1  0
  4  5  1  6
  6  7  2  0
  6  4  1  0
  9  8  1  0
 10  9  2  0
 11  9  1  0
 12 11  1  0
 13 12  1  0
 13 14  1  0
 15 14  1  6
 15 16  1  0
 16  6  1  0
 17 15  1  0
 18 17  2  0
 19 20  1  0
 20 21  1  0
 21 23  1  0
 21 22  1  1
 23 24  1  6
 24 17  1  0
 25 23  1  0
 25 26  1  0
 27 25  2  0
M  END
$$$$
