VRI.pdb
     RDKit          3D

 27 26  0  0  1  0  0  0  0  0999 V2000
   28.5245  -17.6921  -18.1297 C   0  0  0  0  0  0  0  0  0  0  0  0
   27.2017  -17.6356  -17.4351 C   0  0  1  0  0  0  0  0  0  0  0  0
   26.1148  -17.9918  -18.4236 C   0  0  0  0  0  0  0  0  0  0  0  0
   27.1501  -18.6186  -16.2840 C   0  0  2  0  0  0  0  0  0  0  0  0
   27.5930  -19.9009  -16.8727 N   0  0  0  0  0  0  0  0  0  0  0  0
   25.7974  -18.8160  -15.7402 C   0  0  0  0  0  0  0  0  0  0  0  0
   25.2636  -17.8179  -15.1340 O   0  0  0  0  0  0  0  0  0  0  0  0
   22.0428  -21.8655  -19.1576 N   0  0  0  0  0  0  0  0  0  0  0  0
   20.7060  -21.3805  -18.9872 C   0  0  0  0  0  0  0  0  0  0  0  0
   20.0545  -20.8479  -19.9612 N   0  0  0  0  0  0  0  0  0  0  0  0
   20.0324  -21.4623  -17.7393 N   0  0  0  0  0  0  0  0  0  0  0  0
   20.6699  -22.1523  -16.6378 C   0  0  0  0  0  0  0  0  0  0  0  0
   21.4541  -21.2089  -15.7571 C   0  0  0  0  0  0  0  0  0  0  0  0
   22.8607  -21.0582  -16.2179 C   0  0  0  0  0  0  0  0  0  0  0  0
   23.7158  -20.1679  -15.3059 C   0  0  2  0  0  0  0  0  0  0  0  0
   25.0495  -20.0210  -15.8399 N   0  0  0  0  0  0  0  0  0  0  0  0
   23.7340  -20.9333  -14.0146 C   0  0  0  0  0  0  0  0  0  0  0  0
   24.1675  -22.1091  -14.0529 O   0  0  0  0  0  0  0  0  0  0  0  0
   19.0751  -20.5488  -19.7881 C   0  0  0  0  0  0  0  0  0  0  0  0
   26.4617  -20.0170   -9.8280 C   0  0  0  0  0  0  0  0  0  0  0  0
   25.6589  -20.7302  -10.9247 C   0  0  2  0  0  0  0  0  0  0  0  0
   24.2268  -20.6466  -10.5157 C   0  0  0  0  0  0  0  0  0  0  0  0
   23.9905  -21.2525   -9.1655 C   0  0  2  0  0  0  0  0  0  0  0  0
   23.2575  -21.1752  -11.5473 N   0  0  0  0  0  0  0  0  0  0  0  0
   23.3028  -20.4242  -12.7840 C   0  0  0  0  0  0  0  0  0  0  0  0
   21.8760  -21.1352  -11.0376 O   0  0  0  0  0  0  0  0  0  0  0  0
   21.4059  -22.1183  -10.1914 O   0  0  0  0  0  0  0  0  0  0  0  0
  2  3  1  6
  2  1  1  0
  4  2  1  0
  4  5  1  6
  6  7  2  0
  6  4  1  0
  9  8  1  0
 10  9  2  0
 11  9  1  0
 12 11  1  0
 13 12  1  0
 13 14  1  0
 15 14  1  6
 15 16  1  0
 16  6  1  0
 17 15  1  0
 18 17  2  0
 19 20  1  0
 20 21  1  0
 21 23  1  0
 21 22  1  6
 23 24  1  6
 24 17  1  0
 25 23  1  0
 25 26  1  0
 27 25  2  0
M  END
$$$$
