VRI.pdb
     RDKit          3D

 27 26  0  0  1  0  0  0  0  0999 V2000
   27.3645  -22.4050  -19.3755 C   0  0  0  0  0  0  0  0  0  0  0  0
   26.3612  -22.6380  -18.2918 C   0  0  1  0  0  0  0  0  0  0  0  0
   26.9511  -23.5895  -17.2758 C   0  0  0  0  0  0  0  0  0  0  0  0
   26.0061  -21.3424  -17.5924 C   0  0  2  0  0  0  0  0  0  0  0  0
   27.3069  -20.7863  -17.1615 N   0  0  0  0  0  0  0  0  0  0  0  0
   25.1769  -21.5308  -16.3918 C   0  0  0  0  0  0  0  0  0  0  0  0
   24.0112  -22.0408  -16.5650 O   0  0  0  0  0  0  0  0  0  0  0  0
   23.5310  -20.7513   -8.3114 N   0  0  0  0  0  0  0  0  0  0  0  0
   24.9406  -20.9657   -8.4463 C   0  0  0  0  0  0  0  0  0  0  0  0
   25.5945  -21.6882   -7.6054 N   0  0  0  0  0  0  0  0  0  0  0  0
   25.6870  -20.3945   -9.5115 N   0  0  0  0  0  0  0  0  0  0  0  0
   25.0150  -19.5316  -10.4600 C   0  0  0  0  0  0  0  0  0  0  0  0
   24.3794  -20.3138  -11.5847 C   0  0  0  0  0  0  0  0  0  0  0  0
   25.3011  -20.4722  -12.7418 C   0  0  0  0  0  0  0  0  0  0  0  0
   24.6544  -21.1527  -13.9559 C   0  0  2  0  0  0  0  0  0  0  0  0
   25.5735  -21.1925  -15.0691 N   0  0  0  0  0  0  0  0  0  0  0  0
   23.4849  -20.2603  -14.2548 C   0  0  0  0  0  0  0  0  0  0  0  0
   23.7224  -19.0391  -14.4097 O   0  0  0  0  0  0  0  0  0  0  0  0
   26.6250  -21.7552   -7.7167 C   0  0  0  0  0  0  0  0  0  0  0  0
   18.7271  -19.5333  -17.6291 C   0  0  0  0  0  0  0  0  0  0  0  0
   19.1924  -19.1976  -16.2056 C   0  0  2  0  0  0  0  0  0  0  0  0
   20.3554  -20.0887  -15.9250 C   0  0  0  0  0  0  0  0  0  0  0  0
   20.0150  -21.5357  -16.1152 C   0  0  2  0  0  0  0  0  0  0  0  0
   21.0189  -19.8372  -14.5909 N   0  0  0  0  0  0  0  0  0  0  0  0
   22.1606  -20.6992  -14.3704 C   0  0  0  0  0  0  0  0  0  0  0  0
   20.0680  -20.0448  -13.4851 O   0  0  0  0  0  0  0  0  0  0  0  0
   19.1503  -19.0707  -13.1495 O   0  0  0  0  0  0  0  0  0  0  0  0
  2  3  1  1
  2  1  1  0
  4  2  1  0
  4  5  1  1
  6  7  2  0
  6  4  1  0
  9  8  1  0
 10  9  2  0
 11  9  1  0
 12 11  1  0
 13 12  1  0
 13 14  1  0
 15 14  1  1
 15 16  1  0
 16  6  1  0
 17 15  1  0
 18 17  2  0
 19 20  1  0
 20 21  1  0
 21 23  1  0
 21 22  1  6
 23 24  1  1
 24 17  1  0
 25 23  1  0
 25 26  1  0
 27 25  2  0
M  END
$$$$
