TTP.pdb
     RDKit          3D

 22 22  0  0  1  0  0  0  0  0999 V2000
   16.3465   -9.3017  -15.8008 C   0  0  0  0  0  0  0  0  0  0  0  0
   16.0654  -10.7773  -16.0013 C   0  0  1  0  0  0  0  0  0  0  0  0
   14.7087  -10.9890  -16.1677 O   0  0  0  0  0  0  0  0  0  0  0  0
   16.8461  -11.2062  -17.2497 C   0  0  2  0  0  0  0  0  0  0  0  0
   16.5573  -12.6043  -17.4633 N   0  0  0  0  0  0  0  0  0  0  0  0
   18.2993  -10.9823  -17.0394 C   0  0  0  0  0  0  0  0  0  0  0  0
   18.9820  -11.8552  -16.4629 O   0  0  0  0  0  0  0  0  0  0  0  0
   22.2446   -8.5115  -18.5304 C   0  0  0  0  0  0  0  0  0  0  0  0
   20.8947   -9.1348  -18.5491 C   0  0  1  0  0  0  0  0  0  0  0  0
   21.0623  -10.3994  -19.1840 O   0  0  0  0  0  0  0  0  0  0  0  0
   20.3384   -9.4777  -17.1580 C   0  0  2  0  0  0  0  0  0  0  0  0
   18.9272   -9.8098  -17.4739 N   0  0  0  0  0  0  0  0  0  0  0  0
   20.3963   -8.3594  -16.2232 C   0  0  0  0  0  0  0  0  0  0  0  0
   19.5103   -7.4388  -16.4169 O   0  0  0  0  0  0  0  0  0  0  0  0
   21.2557   -8.1270  -15.1459 N   0  0  0  0  0  0  0  0  0  0  0  0
   22.3708   -8.9367  -14.7040 C   0  0  0  0  0  0  0  0  0  0  0  0
   22.4946   -8.6833  -13.2054 C   0  0  0  0  0  0  0  0  0  0  0  0
   21.3027   -7.8356  -12.8939 C   0  0  0  0  0  0  0  0  0  0  0  0
   21.1728   -7.0013  -14.1778 C   0  0  1  0  0  0  0  0  0  0  0  0
   22.3508   -6.1328  -14.2618 C   0  0  0  0  0  0  0  0  0  0  0  0
   22.4390   -5.1779  -13.4754 O   0  0  0  0  0  0  0  0  0  0  0  0
   23.3844   -6.3113  -15.1733 O   0  0  0  0  0  0  0  0  0  0  0  0
  2  1  1  6
  2  4  1  0
  3  2  1  0
  4  5  1  1
  6  7  2  0
  6  4  1  0
  9  8  1  1
  9 11  1  0
 10  9  1  0
 11 12  1  6
 11 13  1  0
 12  6  1  0
 13 15  1  0
 14 13  2  0
 15 19  1  0
 15 16  1  0
 16 17  1  0
 18 17  1  0
 19 18  1  0
 19 20  1  6
 20 22  1  0
 21 20  2  0
M  END
$$$$
