TTP.pdb
     RDKit          3D

 22 22  0  0  1  0  0  0  0  0999 V2000
   15.6149  -10.8389  -11.1430 C   0  0  0  0  0  0  0  0  0  0  0  0
   14.3358  -10.5478  -10.3842 C   0  0  1  0  0  0  0  0  0  0  0  0
   13.8834  -11.6908   -9.7502 O   0  0  0  0  0  0  0  0  0  0  0  0
   14.6704   -9.4502   -9.3667 C   0  0  2  0  0  0  0  0  0  0  0  0
   13.4592   -9.1809   -8.6291 N   0  0  0  0  0  0  0  0  0  0  0  0
   15.1526   -8.2357  -10.0728 C   0  0  0  0  0  0  0  0  0  0  0  0
   14.3354   -7.3564  -10.4184 O   0  0  0  0  0  0  0  0  0  0  0  0
   15.2979   -5.5621   -9.6440 C   0  0  0  0  0  0  0  0  0  0  0  0
   16.7459   -5.7644   -9.9149 C   0  0  1  0  0  0  0  0  0  0  0  0
   17.2886   -6.3176   -8.7191 O   0  0  0  0  0  0  0  0  0  0  0  0
   17.0453   -6.8187  -10.9924 C   0  0  2  0  0  0  0  0  0  0  0  0
   16.5089   -8.0505  -10.3626 N   0  0  0  0  0  0  0  0  0  0  0  0
   18.4695   -6.9721  -11.2678 C   0  0  0  0  0  0  0  0  0  0  0  0
   19.1239   -7.6627  -10.3933 O   0  0  0  0  0  0  0  0  0  0  0  0
   19.2397   -6.4946  -12.3317 N   0  0  0  0  0  0  0  0  0  0  0  0
   18.8248   -5.6298  -13.4154 C   0  0  0  0  0  0  0  0  0  0  0  0
   19.7287   -5.9821  -14.5918 C   0  0  0  0  0  0  0  0  0  0  0  0
   20.5049   -7.1604  -14.0965 C   0  0  0  0  0  0  0  0  0  0  0  0
   20.6643   -6.8213  -12.6063 C   0  0  1  0  0  0  0  0  0  0  0  0
   21.5159   -5.6318  -12.5121 C   0  0  0  0  0  0  0  0  0  0  0  0
   20.9727   -4.5231  -12.3945 O   0  0  0  0  0  0  0  0  0  0  0  0
   22.9047   -5.6657  -12.5464 O   0  0  0  0  0  0  0  0  0  0  0  0
  2  1  1  1
  2  4  1  0
  3  2  1  0
  4  5  1  6
  6  7  2  0
  6  4  1  0
  9  8  1  1
  9 11  1  0
 10  9  1  0
 11 12  1  1
 11 13  1  0
 12  6  1  0
 13 15  1  0
 14 13  2  0
 15 19  1  0
 15 16  1  0
 16 17  1  0
 18 17  1  0
 19 18  1  0
 19 20  1  6
 20 22  1  0
 21 20  2  0
M  END
$$$$
