TTP.pdb
     RDKit          3D

 22 22  0  0  1  0  0  0  0  0999 V2000
   15.8428  -11.8377  -16.4823 C   0  0  0  0  0  0  0  0  0  0  0  0
   17.0742  -11.0984  -15.9989 C   0  0  1  0  0  0  0  0  0  0  0  0
   17.2901  -11.3521  -14.6565 O   0  0  0  0  0  0  0  0  0  0  0  0
   18.2479  -11.5996  -16.8492 C   0  0  2  0  0  0  0  0  0  0  0  0
   18.4309  -12.9949  -16.5278 N   0  0  0  0  0  0  0  0  0  0  0  0
   19.4686  -10.8112  -16.5415 C   0  0  0  0  0  0  0  0  0  0  0  0
   20.2960  -11.2505  -15.7152 O   0  0  0  0  0  0  0  0  0  0  0  0
   22.1271   -9.7422  -18.8372 C   0  0  0  0  0  0  0  0  0  0  0  0
   21.5008   -8.5279  -18.2504 C   0  0  1  0  0  0  0  0  0  0  0  0
   20.3769   -8.2361  -19.0763 O   0  0  0  0  0  0  0  0  0  0  0  0
   20.9008   -8.7404  -16.8515 C   0  0  2  0  0  0  0  0  0  0  0  0
   19.7166   -9.5801  -17.1585 N   0  0  0  0  0  0  0  0  0  0  0  0
   20.4856   -7.4986  -16.2086 C   0  0  0  0  0  0  0  0  0  0  0  0
   19.2301   -7.2160  -16.3253 O   0  0  0  0  0  0  0  0  0  0  0  0
   21.2299   -6.5664  -15.4803 N   0  0  0  0  0  0  0  0  0  0  0  0
   22.6478   -6.5871  -15.1917 C   0  0  0  0  0  0  0  0  0  0  0  0
   22.8103   -5.8370  -13.8741 C   0  0  0  0  0  0  0  0  0  0  0  0
   21.4021   -5.5767  -13.4434 C   0  0  0  0  0  0  0  0  0  0  0  0
   20.7014   -5.3580  -14.7934 C   0  0  1  0  0  0  0  0  0  0  0  0
   21.2428   -4.1277  -15.3784 C   0  0  0  0  0  0  0  0  0  0  0  0
   22.0587   -4.2236  -16.3073 O   0  0  0  0  0  0  0  0  0  0  0  0
   20.8981   -2.8494  -14.9561 O   0  0  0  0  0  0  0  0  0  0  0  0
  2  1  1  6
  2  4  1  0
  3  2  1  0
  4  5  1  1
  6  7  2  0
  6  4  1  0
  9  8  1  6
  9 11  1  0
 10  9  1  0
 11 12  1  6
 11 13  1  0
 12  6  1  0
 13 15  1  0
 14 13  2  0
 15 19  1  0
 15 16  1  0
 16 17  1  0
 18 17  1  0
 19 18  1  0
 19 20  1  6
 20 22  1  0
 21 20  2  0
M  END
$$$$
