TTP.pdb
     RDKit          3D

 22 22  0  0  1  0  0  0  0  0999 V2000
   35.3565  -35.5397   -0.8279 C   0  0  0  0  0  0  0  0  0  0  0  0
   36.6962  -35.5321   -1.5362 C   0  0  1  0  0  0  0  0  0  0  0  0
   37.7156  -35.7887   -0.6373 O   0  0  0  0  0  0  0  0  0  0  0  0
   36.6274  -36.6198   -2.6151 C   0  0  2  0  0  0  0  0  0  0  0  0
   37.9423  -36.7077   -3.2043 N   0  0  0  0  0  0  0  0  0  0  0  0
   35.6048  -36.2611   -3.6308 C   0  0  0  0  0  0  0  0  0  0  0  0
   35.8943  -35.4574   -4.5422 O   0  0  0  0  0  0  0  0  0  0  0  0
   34.2327  -38.3905   -6.0682 C   0  0  0  0  0  0  0  0  0  0  0  0
   33.0878  -37.9210   -5.2437 C   0  0  1  0  0  0  0  0  0  0  0  0
   33.0312  -38.8015   -4.1248 O   0  0  0  0  0  0  0  0  0  0  0  0
   33.2855  -36.5288   -4.6234 C   0  0  2  0  0  0  0  0  0  0  0  0
   34.3160  -36.8047   -3.5921 N   0  0  0  0  0  0  0  0  0  0  0  0
   32.0776  -35.9994   -4.0003 C   0  0  0  0  0  0  0  0  0  0  0  0
   32.0512  -36.0719   -2.7104 O   0  0  0  0  0  0  0  0  0  0  0  0
   30.9440  -35.4199   -4.5771 N   0  0  0  0  0  0  0  0  0  0  0  0
   30.6070  -35.3262   -5.9813 C   0  0  0  0  0  0  0  0  0  0  0  0
   29.7434  -34.0766   -6.1144 C   0  0  0  0  0  0  0  0  0  0  0  0
   29.7922  -33.4700   -4.7485 C   0  0  0  0  0  0  0  0  0  0  0  0
   29.8471  -34.7203   -3.8568 C   0  0  1  0  0  0  0  0  0  0  0  0
   28.5709  -35.4260   -4.0059 C   0  0  0  0  0  0  0  0  0  0  0  0
   27.5763  -34.9815   -3.4132 O   0  0  0  0  0  0  0  0  0  0  0  0
   28.4013  -36.5710   -4.7749 O   0  0  0  0  0  0  0  0  0  0  0  0
  2  1  1  1
  2  4  1  0
  3  2  1  0
  4  5  1  6
  6  7  2  0
  6  4  1  0
  9  8  1  6
  9 11  1  0
 10  9  1  0
 11 12  1  1
 11 13  1  0
 12  6  1  0
 13 15  1  0
 14 13  2  0
 15 19  1  0
 15 16  1  0
 16 17  1  0
 18 17  1  0
 19 18  1  0
 19 20  1  6
 20 22  1  0
 21 20  2  0
M  END
$$$$
