TTP.pdb
     RDKit          3D

 22 22  0  0  1  0  0  0  0  0999 V2000
   15.3837   -8.3757  -15.2299 C   0  0  0  0  0  0  0  0  0  0  0  0
   14.9437   -9.8242  -15.1599 C   0  0  1  0  0  0  0  0  0  0  0  0
   13.6446   -9.9536  -15.6166 O   0  0  0  0  0  0  0  0  0  0  0  0
   15.9171  -10.6205  -16.0375 C   0  0  2  0  0  0  0  0  0  0  0  0
   15.4679  -11.9922  -16.0215 N   0  0  0  0  0  0  0  0  0  0  0  0
   17.2970  -10.4991  -15.5013 C   0  0  0  0  0  0  0  0  0  0  0  0
   17.6157  -11.1245  -14.4680 O   0  0  0  0  0  0  0  0  0  0  0  0
   20.5481  -11.1786  -17.2517 C   0  0  0  0  0  0  0  0  0  0  0  0
   20.4867   -9.7518  -16.8376 C   0  0  1  0  0  0  0  0  0  0  0  0
   19.8032   -9.0741  -17.8883 O   0  0  0  0  0  0  0  0  0  0  0  0
   19.6238   -9.4925  -15.5924 C   0  0  2  0  0  0  0  0  0  0  0  0
   18.2556   -9.6961  -16.1292 N   0  0  0  0  0  0  0  0  0  0  0  0
   19.7633   -8.1389  -15.0671 C   0  0  0  0  0  0  0  0  0  0  0  0
   18.9657   -7.2657  -15.5880 O   0  0  0  0  0  0  0  0  0  0  0  0
   20.6202   -7.6359  -14.0843 N   0  0  0  0  0  0  0  0  0  0  0  0
   21.5779   -8.3630  -13.2791 C   0  0  0  0  0  0  0  0  0  0  0  0
   21.7014   -7.5777  -11.9779 C   0  0  0  0  0  0  0  0  0  0  0  0
   20.6543   -6.5181  -12.1075 C   0  0  0  0  0  0  0  0  0  0  0  0
   20.6947   -6.2265  -13.6157 C   0  0  1  0  0  0  0  0  0  0  0  0
   21.9993   -5.6290  -13.9157 C   0  0  0  0  0  0  0  0  0  0  0  0
   22.8400   -6.3148  -14.5164 O   0  0  0  0  0  0  0  0  0  0  0  0
   22.3586   -4.3325  -13.5677 O   0  0  0  0  0  0  0  0  0  0  0  0
  2  1  1  6
  2  4  1  0
  3  2  1  0
  4  5  1  1
  6  7  2  0
  6  4  1  0
  9  8  1  6
  9 11  1  0
 10  9  1  0
 11 12  1  6
 11 13  1  0
 12  6  1  0
 13 15  1  0
 14 13  2  0
 15 19  1  0
 15 16  1  0
 16 17  1  0
 18 17  1  0
 19 18  1  0
 19 20  1  1
 20 22  1  0
 21 20  2  0
M  END
$$$$
