PHS.pdb
     RDKit          3D

 24 25  0  0  1  0  0  0  0  0999 V2000
    8.9295  -14.8400   18.2897 N   0  0  0  0  0  0  0  0  0  0  0  0
    8.6091  -14.2790   16.9972 C   0  0  0  0  0  0  0  0  0  0  0  0
    7.5972  -13.2020   17.2034 C   0  0  0  0  0  0  0  0  0  0  0  0
    7.2960  -13.2589   18.6665 C   0  0  0  0  0  0  0  0  0  0  0  0
    8.5244  -13.8740   19.2799 C   0  0  1  0  0  0  0  0  0  0  0  0
    8.2431  -14.5537   20.5605 C   0  0  0  0  0  0  0  0  0  0  0  0
    7.7805  -13.8869   21.5401 O   0  0  0  0  0  0  0  0  0  0  0  0
    8.4548  -15.9317   20.7889 N   0  0  0  0  0  0  0  0  0  0  0  0
    8.1156  -16.5805   22.0345 C   0  0  1  0  0  0  0  0  0  0  0  0
    8.4658  -18.0511   22.0202 C   0  0  0  0  0  0  0  0  0  0  0  0
    7.9604  -18.7628   23.2081 C   0  0  0  0  0  0  0  0  0  0  0  0
    6.7064  -18.7340   23.7885 C   0  0  0  0  0  0  0  0  0  0  0  0
    6.6812  -19.5401   24.8643 N   0  0  0  0  0  0  0  0  0  0  0  0
    7.9036  -20.0860   24.9817 C   0  0  0  0  0  0  0  0  0  0  0  0
    8.6747  -19.6083   23.9714 N   0  0  0  0  0  0  0  0  0  0  0  0
    8.8160  -15.9295   23.1868 C   0  0  0  0  0  0  0  0  0  0  0  0
   10.0302  -15.5914   23.1023 O   0  0  0  0  0  0  0  0  0  0  0  0
    6.5735  -14.3135   26.2335 O   0  0  0  0  0  0  0  0  0  0  0  0
    7.8779  -13.8327   25.9751 C   0  0  0  0  0  0  0  0  0  0  0  0
    8.6881  -15.0364   25.5599 C   0  0  2  0  0  0  0  0  0  0  0  0
    8.1233  -15.6829   24.3922 N   0  0  0  0  0  0  0  0  0  0  0  0
    8.9392  -15.9801   26.6846 C   0  0  0  0  0  0  0  0  0  0  0  0
    9.6541  -15.5678   27.7845 O   0  0  0  0  0  0  0  0  0  0  0  0
    8.4669  -17.1370   26.5612 O   0  0  0  0  0  0  0  0  0  0  0  0
  1  2  1  0
  1  5  1  0
  2  3  1  0
  3  4  1  0
  5  6  1  1
  5  4  1  0
  6  8  1  0
  7  6  2  0
  8  9  1  0
  9 16  1  0
 10 11  1  0
  9 10  1  6
 11 12  2  0
 13 12  1  0
 14 13  1  0
 15 14  2  0
 15 11  1  0
 16 21  1  0
 16 17  2  0
 18 19  1  0
 20 19  1  1
 20 22  1  0
 21 20  1  0
 22 24  2  0
 22 23  1  0
M  END
$$$$
