PHS.pdb
     RDKit          3D

 24 25  0  0  1  0  0  0  0  0999 V2000
    9.2646  -14.0666   17.9352 N   0  0  0  0  0  0  0  0  0  0  0  0
    8.5230  -13.2799   16.9766 C   0  0  0  0  0  0  0  0  0  0  0  0
    7.2091  -12.9290   17.5906 C   0  0  0  0  0  0  0  0  0  0  0  0
    7.2162  -13.6447   18.9030 C   0  0  0  0  0  0  0  0  0  0  0  0
    8.6748  -13.8210   19.2274 C   0  0  1  0  0  0  0  0  0  0  0  0
    8.9253  -14.9697   20.1213 C   0  0  0  0  0  0  0  0  0  0  0  0
    8.3162  -15.0462   21.2355 O   0  0  0  0  0  0  0  0  0  0  0  0
    9.8179  -16.0238   19.8251 N   0  0  0  0  0  0  0  0  0  0  0  0
   10.0767  -17.1117   20.7400 C   0  0  1  0  0  0  0  0  0  0  0  0
   10.8470  -18.2336   20.0817 C   0  0  0  0  0  0  0  0  0  0  0  0
   10.0748  -18.8990   19.0168 C   0  0  0  0  0  0  0  0  0  0  0  0
    8.7071  -18.9752   18.8329 C   0  0  0  0  0  0  0  0  0  0  0  0
    8.4331  -19.6846   17.7241 N   0  0  0  0  0  0  0  0  0  0  0  0
    9.6080  -20.0648   17.1940 C   0  0  0  0  0  0  0  0  0  0  0  0
   10.6004  -19.5832   17.9857 N   0  0  0  0  0  0  0  0  0  0  0  0
   10.8437  -16.6368   21.9351 C   0  0  0  0  0  0  0  0  0  0  0  0
   11.7731  -15.7895   21.8163 O   0  0  0  0  0  0  0  0  0  0  0  0
    9.3379  -15.8423   25.3497 O   0  0  0  0  0  0  0  0  0  0  0  0
   10.3443  -16.7933   25.6365 C   0  0  0  0  0  0  0  0  0  0  0  0
   11.2568  -16.8057   24.4344 C   0  0  2  0  0  0  0  0  0  0  0  0
   10.5359  -17.1334   23.2206 N   0  0  0  0  0  0  0  0  0  0  0  0
   12.4692  -17.6467   24.6376 C   0  0  0  0  0  0  0  0  0  0  0  0
   13.3304  -17.3762   25.6749 O   0  0  0  0  0  0  0  0  0  0  0  0
   12.6412  -18.5874   23.8239 O   0  0  0  0  0  0  0  0  0  0  0  0
  1  2  1  0
  1  5  1  0
  2  3  1  0
  3  4  1  0
  5  6  1  1
  5  4  1  0
  6  8  1  0
  7  6  2  0
  8  9  1  0
  9 16  1  0
 10 11  1  0
  9 10  1  6
 11 12  2  0
 13 12  1  0
 14 13  1  0
 15 14  2  0
 15 11  1  0
 16 21  1  0
 16 17  2  0
 18 19  1  0
 20 19  1  1
 20 22  1  0
 21 20  1  0
 22 24  2  0
 22 23  1  0
M  END
$$$$
