PHS.pdb
     RDKit          3D

 24 25  0  0  1  0  0  0  0  0999 V2000
    9.4283  -13.9385   19.2979 N   0  0  0  0  0  0  0  0  0  0  0  0
    9.0776  -13.1127   18.1653 C   0  0  0  0  0  0  0  0  0  0  0  0
    7.6090  -12.8549   18.2236 C   0  0  0  0  0  0  0  0  0  0  0  0
    7.1425  -13.6621   19.3920 C   0  0  0  0  0  0  0  0  0  0  0  0
    8.3627  -13.8080   20.2599 C   0  0  1  0  0  0  0  0  0  0  0  0
    8.3111  -15.0078   21.1195 C   0  0  0  0  0  0  0  0  0  0  0  0
    7.3146  -15.1899   21.8890 O   0  0  0  0  0  0  0  0  0  0  0  0
    9.3152  -16.0009   21.1543 N   0  0  0  0  0  0  0  0  0  0  0  0
    9.2314  -17.1704   21.9986 C   0  0  1  0  0  0  0  0  0  0  0  0
   10.2159  -18.2399   21.5832 C   0  0  0  0  0  0  0  0  0  0  0  0
    9.8802  -18.8397   20.2791 C   0  0  0  0  0  0  0  0  0  0  0  0
    8.7902  -18.6180   19.4588 C   0  0  0  0  0  0  0  0  0  0  0  0
    8.8838  -19.3823   18.3565 N   0  0  0  0  0  0  0  0  0  0  0  0
   10.0204  -20.0918   18.4591 C   0  0  0  0  0  0  0  0  0  0  0  0
   10.6197  -19.7561   19.6303 N   0  0  0  0  0  0  0  0  0  0  0  0
    9.4806  -16.8165   23.4320 C   0  0  0  0  0  0  0  0  0  0  0  0
   10.3839  -15.9929   23.7506 O   0  0  0  0  0  0  0  0  0  0  0  0
    6.6234  -17.8348   26.1220 O   0  0  0  0  0  0  0  0  0  0  0  0
    7.4892  -16.7776   26.4852 C   0  0  0  0  0  0  0  0  0  0  0  0
    8.8264  -17.1069   25.8679 C   0  0  2  0  0  0  0  0  0  0  0  0
    8.7032  -17.4030   24.4545 N   0  0  0  0  0  0  0  0  0  0  0  0
    9.5680  -18.1564   26.6209 C   0  0  0  0  0  0  0  0  0  0  0  0
    9.9186  -17.9456   27.9338 O   0  0  0  0  0  0  0  0  0  0  0  0
    9.8389  -19.2100   25.9938 O   0  0  0  0  0  0  0  0  0  0  0  0
  1  2  1  0
  1  5  1  0
  2  3  1  0
  3  4  1  0
  5  6  1  1
  5  4  1  0
  6  8  1  0
  7  6  2  0
  8  9  1  0
  9 16  1  0
 10 11  1  0
  9 10  1  6
 11 12  2  0
 13 12  1  0
 14 13  1  0
 15 14  2  0
 15 11  1  0
 16 21  1  0
 16 17  2  0
 18 19  1  0
 20 19  1  1
 20 22  1  0
 21 20  1  0
 22 24  2  0
 22 23  1  0
M  END
$$$$
