PHS.pdb
     RDKit          3D

 24 25  0  0  1  0  0  0  0  0999 V2000
    7.3574  -14.8575   20.2921 N   0  0  0  0  0  0  0  0  0  0  0  0
    6.7888  -13.9703   19.3035 C   0  0  0  0  0  0  0  0  0  0  0  0
    7.5208  -12.6722   19.3779 C   0  0  0  0  0  0  0  0  0  0  0  0
    8.4605  -12.8480   20.5270 C   0  0  0  0  0  0  0  0  0  0  0  0
    8.6590  -14.3361   20.6265 C   0  0  1  0  0  0  0  0  0  0  0  0
    9.0413  -14.7708   21.9852 C   0  0  0  0  0  0  0  0  0  0  0  0
   10.1999  -14.4958   22.4327 O   0  0  0  0  0  0  0  0  0  0  0  0
    8.1923  -15.4918   22.8542 N   0  0  0  0  0  0  0  0  0  0  0  0
    8.5262  -15.7557   24.2349 C   0  0  1  0  0  0  0  0  0  0  0  0
    7.3393  -15.5620   25.1511 C   0  0  0  0  0  0  0  0  0  0  0  0
    7.0322  -14.1390   25.3831 C   0  0  0  0  0  0  0  0  0  0  0  0
    7.7198  -13.0096   24.9808 C   0  0  0  0  0  0  0  0  0  0  0  0
    7.0820  -11.9074   25.4124 N   0  0  0  0  0  0  0  0  0  0  0  0
    5.9935  -12.3153   26.0866 C   0  0  0  0  0  0  0  0  0  0  0  0
    5.9709  -13.6727   26.0640 N   0  0  0  0  0  0  0  0  0  0  0  0
    9.0435  -17.1505   24.4048 C   0  0  0  0  0  0  0  0  0  0  0  0
    8.3888  -18.1431   23.9782 O   0  0  0  0  0  0  0  0  0  0  0  0
   12.7963  -17.6257   24.7436 O   0  0  0  0  0  0  0  0  0  0  0  0
   12.1777  -18.8969   24.7743 C   0  0  0  0  0  0  0  0  0  0  0  0
   10.8159  -18.6798   25.3876 C   0  0  2  0  0  0  0  0  0  0  0  0
   10.2796  -17.3767   25.0489 N   0  0  0  0  0  0  0  0  0  0  0  0
   10.7895  -18.9588   26.8505 C   0  0  0  0  0  0  0  0  0  0  0  0
   11.1404  -20.2020   27.3220 O   0  0  0  0  0  0  0  0  0  0  0  0
   10.4380  -18.0110   27.5953 O   0  0  0  0  0  0  0  0  0  0  0  0
  1  2  1  0
  1  5  1  0
  2  3  1  0
  3  4  1  0
  5  6  1  1
  5  4  1  0
  6  8  1  0
  7  6  2  0
  8  9  1  0
  9 16  1  0
 10 11  1  0
  9 10  1  1
 11 12  2  0
 13 12  1  0
 14 13  1  0
 15 14  2  0
 15 11  1  0
 16 21  1  0
 16 17  2  0
 18 19  1  0
 20 19  1  1
 20 22  1  0
 21 20  1  0
 22 24  2  0
 22 23  1  0
M  END
$$$$
