PHS.pdb
     RDKit          3D

 24 25  0  0  1  0  0  0  0  0999 V2000
    8.1760  -13.1995   19.7396 N   0  0  0  0  0  0  0  0  0  0  0  0
    7.6575  -12.5422   18.5620 C   0  0  0  0  0  0  0  0  0  0  0  0
    7.5152  -13.5694   17.4892 C   0  0  0  0  0  0  0  0  0  0  0  0
    8.0750  -14.8142   18.0986 C   0  0  0  0  0  0  0  0  0  0  0  0
    7.9211  -14.6094   19.5812 C   0  0  1  0  0  0  0  0  0  0  0  0
    8.8974  -15.3889   20.3690 C   0  0  0  0  0  0  0  0  0  0  0  0
    8.8623  -16.6601   20.3369 O   0  0  0  0  0  0  0  0  0  0  0  0
    9.8994  -14.8132   21.1815 N   0  0  0  0  0  0  0  0  0  0  0  0
   10.8025  -15.6013   21.9882 C   0  0  1  0  0  0  0  0  0  0  0  0
   12.1863  -14.9952   22.0447 C   0  0  0  0  0  0  0  0  0  0  0  0
   12.8864  -15.0663   20.7494 C   0  0  0  0  0  0  0  0  0  0  0  0
   12.5278  -15.7201   19.5857 C   0  0  0  0  0  0  0  0  0  0  0  0
   13.4628  -15.5187   18.6407 N   0  0  0  0  0  0  0  0  0  0  0  0
   14.4172  -14.7437   19.1833 C   0  0  0  0  0  0  0  0  0  0  0  0
   14.0591  -14.4735   20.4649 N   0  0  0  0  0  0  0  0  0  0  0  0
   10.2839  -15.7496   23.3851 C   0  0  0  0  0  0  0  0  0  0  0  0
    9.7991  -14.7625   24.0066 O   0  0  0  0  0  0  0  0  0  0  0  0
    8.9399  -19.2693   24.8627 O   0  0  0  0  0  0  0  0  0  0  0  0
    8.6849  -18.0416   25.5164 C   0  0  0  0  0  0  0  0  0  0  0  0
    9.9618  -17.2440   25.4121 C   0  0  2  0  0  0  0  0  0  0  0  0
   10.3300  -17.0044   24.0310 N   0  0  0  0  0  0  0  0  0  0  0  0
   11.0719  -17.8219   26.2196 C   0  0  0  0  0  0  0  0  0  0  0  0
   10.9504  -17.9245   27.5855 O   0  0  0  0  0  0  0  0  0  0  0  0
   12.0894  -18.1964   25.5862 O   0  0  0  0  0  0  0  0  0  0  0  0
  1  2  1  0
  1  5  1  0
  2  3  1  0
  3  4  1  0
  5  6  1  1
  5  4  1  0
  6  8  1  0
  7  6  2  0
  8  9  1  0
  9 16  1  0
 10 11  1  0
  9 10  1  1
 11 12  2  0
 13 12  1  0
 14 13  1  0
 15 14  2  0
 15 11  1  0
 16 21  1  0
 16 17  2  0
 18 19  1  0
 20 19  1  6
 20 22  1  0
 21 20  1  0
 22 24  2  0
 22 23  1  0
M  END
$$$$
