PHS.pdb
     RDKit          3D

 24 25  0  0  1  0  0  0  0  0999 V2000
    8.2261  -13.7074   19.8435 N   0  0  0  0  0  0  0  0  0  0  0  0
    7.3787  -12.6322   19.3814 C   0  0  0  0  0  0  0  0  0  0  0  0
    7.5028  -12.5569   17.8964 C   0  0  0  0  0  0  0  0  0  0  0  0
    8.5397  -13.5810   17.5640 C   0  0  0  0  0  0  0  0  0  0  0  0
    8.4851  -14.5568   18.7080 C   0  0  1  0  0  0  0  0  0  0  0  0
    9.7577  -15.2809   18.9011 C   0  0  0  0  0  0  0  0  0  0  0  0
    9.9569  -16.3795   18.2915 O   0  0  0  0  0  0  0  0  0  0  0  0
   10.8045  -14.8333   19.7375 N   0  0  0  0  0  0  0  0  0  0  0  0
   12.0292  -15.5763   19.9254 C   0  0  1  0  0  0  0  0  0  0  0  0
   13.2379  -14.8057   19.4450 C   0  0  0  0  0  0  0  0  0  0  0  0
   13.6657  -15.2124   18.0942 C   0  0  0  0  0  0  0  0  0  0  0  0
   13.2508  -16.2792   17.3196 C   0  0  0  0  0  0  0  0  0  0  0  0
   13.9062  -16.2747   16.1455 N   0  0  0  0  0  0  0  0  0  0  0  0
   14.7367  -15.2182   16.1570 C   0  0  0  0  0  0  0  0  0  0  0  0
   14.5842  -14.5782   17.3447 N   0  0  0  0  0  0  0  0  0  0  0  0
   12.2258  -15.9315   21.3667 C   0  0  0  0  0  0  0  0  0  0  0  0
   12.1963  -15.0436   22.2648 O   0  0  0  0  0  0  0  0  0  0  0  0
   11.9835  -19.8628   22.3737 O   0  0  0  0  0  0  0  0  0  0  0  0
   11.7314  -18.9253   23.4018 C   0  0  0  0  0  0  0  0  0  0  0  0
   12.6163  -17.7389   23.1064 C   0  0  2  0  0  0  0  0  0  0  0  0
   12.4482  -17.2739   21.7441 N   0  0  0  0  0  0  0  0  0  0  0  0
   14.0411  -17.9758   23.4700 C   0  0  0  0  0  0  0  0  0  0  0  0
   14.3865  -18.2306   24.7764 O   0  0  0  0  0  0  0  0  0  0  0  0
   14.8739  -17.9294   22.5314 O   0  0  0  0  0  0  0  0  0  0  0  0
  1  2  1  0
  1  5  1  0
  2  3  1  0
  3  4  1  0
  5  6  1  1
  5  4  1  0
  6  8  1  0
  7  6  2  0
  8  9  1  0
  9 16  1  0
 10 11  1  0
  9 10  1  1
 11 12  2  0
 13 12  1  0
 14 13  1  0
 15 14  2  0
 15 11  1  0
 16 21  1  0
 16 17  2  0
 18 19  1  0
 20 19  1  6
 20 22  1  0
 21 20  1  0
 22 24  2  0
 22 23  1  0
M  END
$$$$
