PHS.pdb
     RDKit          3D

 24 25  0  0  1  0  0  0  0  0999 V2000
    7.3523  -14.8519   20.1467 N   0  0  0  0  0  0  0  0  0  0  0  0
    6.7995  -14.0449   19.0832 C   0  0  0  0  0  0  0  0  0  0  0  0
    7.5011  -12.7281   19.0952 C   0  0  0  0  0  0  0  0  0  0  0  0
    8.4045  -12.8063   20.2836 C   0  0  0  0  0  0  0  0  0  0  0  0
    8.6305  -14.2796   20.4882 C   0  0  1  0  0  0  0  0  0  0  0  0
    8.9751  -14.6152   21.8846 C   0  0  0  0  0  0  0  0  0  0  0  0
   10.1490  -14.3853   22.3172 O   0  0  0  0  0  0  0  0  0  0  0  0
    8.0725  -15.1904   22.8067 N   0  0  0  0  0  0  0  0  0  0  0  0
    8.3899  -15.3718   24.2045 C   0  0  1  0  0  0  0  0  0  0  0  0
    7.1604  -15.2847   25.0799 C   0  0  0  0  0  0  0  0  0  0  0  0
    6.8735  -13.9054   25.5138 C   0  0  0  0  0  0  0  0  0  0  0  0
    7.5869  -12.7427   25.2916 C   0  0  0  0  0  0  0  0  0  0  0  0
    6.9606  -11.7035   25.8711 N   0  0  0  0  0  0  0  0  0  0  0  0
    5.8541  -12.1849   26.4626 C   0  0  0  0  0  0  0  0  0  0  0  0
    5.8089  -13.5236   26.2406 N   0  0  0  0  0  0  0  0  0  0  0  0
    9.0543  -16.6934   24.4369 C   0  0  0  0  0  0  0  0  0  0  0  0
    8.6147  -17.7462   23.8945 O   0  0  0  0  0  0  0  0  0  0  0  0
   12.3246  -17.6932   23.8198 O   0  0  0  0  0  0  0  0  0  0  0  0
   12.3243  -17.9764   25.2052 C   0  0  0  0  0  0  0  0  0  0  0  0
   10.8738  -18.0103   25.6206 C   0  0  2  0  0  0  0  0  0  0  0  0
   10.1899  -16.7811   25.2715 N   0  0  0  0  0  0  0  0  0  0  0  0
   10.6900  -18.3946   27.0478 C   0  0  0  0  0  0  0  0  0  0  0  0
   11.2575  -19.5509   27.5294 O   0  0  0  0  0  0  0  0  0  0  0  0
   10.0056  -17.6143   27.7544 O   0  0  0  0  0  0  0  0  0  0  0  0
  1  2  1  0
  1  5  1  0
  2  3  1  0
  3  4  1  0
  5  6  1  1
  5  4  1  0
  6  8  1  0
  7  6  2  0
  8  9  1  0
  9 16  1  0
 10 11  1  0
  9 10  1  1
 11 12  2  0
 13 12  1  0
 14 13  1  0
 15 14  2  0
 15 11  1  0
 16 21  1  0
 16 17  2  0
 18 19  1  0
 20 19  1  1
 20 22  1  0
 21 20  1  0
 22 24  2  0
 22 23  1  0
M  END
$$$$
