MQM.pdb
     RDKit          3D

 26 25  0  0  1  0  0  0  0  0999 V2000
   25.4321  -27.2495  -15.9743 C   0  0  0  0  0  0  0  0  0  0  0  0
   25.9234  -27.2862  -17.7289 S   0  0  0  0  0  0  0  0  0  0  0  0
   26.6659  -25.6937  -18.1071 C   0  0  0  0  0  0  0  0  0  0  0  0
   27.2138  -25.0081  -16.8486 C   0  0  0  0  0  0  0  0  0  0  0  0
   27.8030  -23.7119  -17.2992 C   0  0  2  0  0  0  0  0  0  0  0  0
   29.1943  -23.9460  -17.6319 N   0  0  0  0  0  0  0  0  0  0  0  0
   27.7251  -22.6248  -16.3111 C   0  0  0  0  0  0  0  0  0  0  0  0
   28.7561  -22.2409  -15.7096 O   0  0  0  0  0  0  0  0  0  0  0  0
   27.8049  -17.8266  -15.9389 N   0  0  0  0  0  0  0  0  0  0  0  0
   26.7438  -17.5650  -15.0461 C   0  0  0  0  0  0  0  0  0  0  0  0
   26.8153  -16.5300  -14.3425 O   0  0  0  0  0  0  0  0  0  0  0  0
   25.5685  -18.4910  -14.9391 C   0  0  0  0  0  0  0  0  0  0  0  0
   25.8427  -19.6645  -15.8448 C   0  0  0  0  0  0  0  0  0  0  0  0
   26.3626  -20.8504  -15.1214 C   0  0  2  0  0  0  0  0  0  0  0  0
   26.4975  -21.9830  -16.0094 N   0  0  0  0  0  0  0  0  0  0  0  0
   25.5747  -21.2670  -13.9309 C   0  0  0  0  0  0  0  0  0  0  0  0
   24.4814  -21.8625  -14.1246 O   0  0  0  0  0  0  0  0  0  0  0  0
   27.1326  -18.8947   -7.9381 C   0  0  0  0  0  0  0  0  0  0  0  0
   26.0667  -20.2569   -7.4688 S   0  0  0  0  0  0  0  0  0  0  0  0
   25.1828  -20.9816   -8.8867 C   0  0  0  0  0  0  0  0  0  0  0  0
   25.9542  -20.7184  -10.1485 C   0  0  0  0  0  0  0  0  0  0  0  0
   25.2963  -21.2944  -11.3904 C   0  0  2  0  0  0  0  0  0  0  0  0
   26.0114  -21.0210  -12.6123 N   0  0  0  0  0  0  0  0  0  0  0  0
   23.9073  -20.7864  -11.4803 C   0  0  0  0  0  0  0  0  0  0  0  0
   23.6839  -19.7535  -12.1491 O   0  0  0  0  0  0  0  0  0  0  0  0
   22.8436  -21.4085  -10.8539 O   0  0  0  0  0  0  0  0  0  0  0  0
  2  1  1  0
  3  2  1  0
  4  3  1  0
  5  4  1  0
  5  6  1  1
  7 15  1  0
  7  5  1  0
  8  7  2  0
 10 12  1  0
 10  9  1  0
 11 10  2  0
 13 12  1  0
 14 15  1  0
 14 13  1  6
 16 14  1  0
 17 16  2  0
 18 19  1  0
 20 19  1  0
 20 21  1  0
 22 21  1  1
 22 24  1  0
 22 23  1  0
 23 16  1  0
 24 26  1  0
 25 24  2  0
M  END
$$$$
