MQM.pdb
     RDKit          3D

 26 25  0  0  1  0  0  0  0  0999 V2000
   27.6881  -19.0826   -6.3075 C   0  0  0  0  0  0  0  0  0  0  0  0
   28.8637  -19.6607   -7.5744 S   0  0  0  0  0  0  0  0  0  0  0  0
   27.9252  -20.6108   -8.7773 C   0  0  0  0  0  0  0  0  0  0  0  0
   26.5127  -20.0445   -8.9728 C   0  0  0  0  0  0  0  0  0  0  0  0
   25.8407  -20.9278   -9.9721 C   0  0  2  0  0  0  0  0  0  0  0  0
   26.7065  -21.0305  -11.1302 N   0  0  0  0  0  0  0  0  0  0  0  0
   24.5141  -20.4647  -10.4079 C   0  0  0  0  0  0  0  0  0  0  0  0
   23.9196  -19.5604   -9.7746 O   0  0  0  0  0  0  0  0  0  0  0  0
   22.6062  -18.8381  -15.7100 N   0  0  0  0  0  0  0  0  0  0  0  0
   21.3305  -19.0123  -15.1323 C   0  0  0  0  0  0  0  0  0  0  0  0
   20.3357  -18.6193  -15.7860 O   0  0  0  0  0  0  0  0  0  0  0  0
   21.1655  -19.6456  -13.7825 C   0  0  0  0  0  0  0  0  0  0  0  0
   22.5413  -20.0288  -13.2997 C   0  0  0  0  0  0  0  0  0  0  0  0
   22.5307  -20.6846  -11.9694 C   0  0  2  0  0  0  0  0  0  0  0  0
   23.8713  -21.0183  -11.5438 N   0  0  0  0  0  0  0  0  0  0  0  0
   21.6790  -21.8991  -11.8639 C   0  0  0  0  0  0  0  0  0  0  0  0
   21.8453  -22.8132  -12.7149 O   0  0  0  0  0  0  0  0  0  0  0  0
   17.0408  -23.2933   -6.7351 C   0  0  0  0  0  0  0  0  0  0  0  0
   17.9108  -24.7237   -7.3744 S   0  0  0  0  0  0  0  0  0  0  0  0
   18.3819  -24.5389   -9.1240 C   0  0  0  0  0  0  0  0  0  0  0  0
   19.3300  -23.3830   -9.2705 C   0  0  0  0  0  0  0  0  0  0  0  0
   19.7687  -23.1390  -10.7040 C   0  0  2  0  0  0  0  0  0  0  0  0
   20.7082  -22.0552  -10.8525 N   0  0  0  0  0  0  0  0  0  0  0  0
   18.5698  -22.9016  -11.5417 C   0  0  0  0  0  0  0  0  0  0  0  0
   18.0233  -23.8758  -12.1042 O   0  0  0  0  0  0  0  0  0  0  0  0
   18.0275  -21.6439  -11.7284 O   0  0  0  0  0  0  0  0  0  0  0  0
  2  1  1  0
  3  2  1  0
  4  3  1  0
  5  4  1  0
  5  6  1  6
  7 15  1  0
  7  5  1  0
  8  7  2  0
 10 12  1  0
 10  9  1  0
 11 10  2  0
 13 12  1  0
 14 15  1  0
 14 13  1  6
 16 14  1  0
 17 16  2  0
 18 19  1  0
 20 19  1  0
 20 21  1  0
 22 21  1  1
 22 24  1  0
 22 23  1  0
 23 16  1  0
 24 26  1  0
 25 24  2  0
M  END
$$$$
