MQM.pdb
     RDKit          3D

 26 25  0  0  1  0  0  0  0  0999 V2000
   23.3763  -36.1297   -4.9994 C   0  0  0  0  0  0  0  0  0  0  0  0
   22.9634  -34.3634   -5.1747 S   0  0  0  0  0  0  0  0  0  0  0  0
   24.4255  -33.4265   -4.7111 C   0  0  0  0  0  0  0  0  0  0  0  0
   24.9987  -33.8946   -3.3670 C   0  0  0  0  0  0  0  0  0  0  0  0
   26.1771  -33.0212   -3.0860 C   0  0  2  0  0  0  0  0  0  0  0  0
   27.1991  -33.3209   -4.0692 N   0  0  0  0  0  0  0  0  0  0  0  0
   26.7500  -33.1763   -1.7399 C   0  0  0  0  0  0  0  0  0  0  0  0
   27.8704  -33.7181   -1.5872 O   0  0  0  0  0  0  0  0  0  0  0  0
   24.7509  -31.2854    4.8826 N   0  0  0  0  0  0  0  0  0  0  0  0
   25.6484  -30.8910    3.8675 C   0  0  0  0  0  0  0  0  0  0  0  0
   25.7764  -29.6637    3.6468 O   0  0  0  0  0  0  0  0  0  0  0  0
   26.4249  -31.9022    3.0771 C   0  0  0  0  0  0  0  0  0  0  0  0
   25.8993  -31.8618    1.6647 C   0  0  0  0  0  0  0  0  0  0  0  0
   26.5738  -32.8278    0.7637 C   0  0  2  0  0  0  0  0  0  0  0  0
   26.0634  -32.7243   -0.5848 N   0  0  0  0  0  0  0  0  0  0  0  0
   26.5099  -34.2506    1.1916 C   0  0  0  0  0  0  0  0  0  0  0  0
   25.5536  -34.9528    0.7678 O   0  0  0  0  0  0  0  0  0  0  0  0
   30.7037  -40.1259    4.7368 C   0  0  0  0  0  0  0  0  0  0  0  0
   30.5791  -38.4552    4.1004 S   0  0  0  0  0  0  0  0  0  0  0  0
   28.8962  -38.0360    3.5441 C   0  0  0  0  0  0  0  0  0  0  0  0
   28.8594  -36.6060    3.0854 C   0  0  0  0  0  0  0  0  0  0  0  0
   27.5094  -36.1831    2.5327 C   0  0  2  0  0  0  0  0  0  0  0  0
   27.4760  -34.8275    2.0423 N   0  0  0  0  0  0  0  0  0  0  0  0
   26.4772  -36.3800    3.5773 C   0  0  0  0  0  0  0  0  0  0  0  0
   26.2435  -35.4488    4.3788 O   0  0  0  0  0  0  0  0  0  0  0  0
   25.7585  -37.5539    3.7037 O   0  0  0  0  0  0  0  0  0  0  0  0
  2  1  1  0
  3  2  1  0
  4  3  1  0
  5  4  1  0
  5  6  1  6
  7 15  1  0
  7  5  1  0
  8  7  2  0
 10 12  1  0
 10  9  1  0
 11 10  2  0
 13 12  1  0
 14 15  1  0
 14 13  1  1
 16 14  1  0
 17 16  2  0
 18 19  1  0
 20 19  1  0
 20 21  1  0
 22 21  1  1
 22 24  1  0
 22 23  1  0
 23 16  1  0
 24 26  1  0
 25 24  2  0
M  END
$$$$
