MQM.pdb
     RDKit          3D

 26 25  0  0  1  0  0  0  0  0999 V2000
   30.1314  -16.3383  -16.0208 C   0  0  0  0  0  0  0  0  0  0  0  0
   29.5646  -17.6482  -17.1540 S   0  0  0  0  0  0  0  0  0  0  0  0
   27.7721  -17.5435  -17.2344 C   0  0  0  0  0  0  0  0  0  0  0  0
   27.1479  -17.3920  -15.8410 C   0  0  0  0  0  0  0  0  0  0  0  0
   27.2698  -18.7252  -15.1790 C   0  0  2  0  0  0  0  0  0  0  0  0
   26.7597  -19.7263  -16.0950 N   0  0  0  0  0  0  0  0  0  0  0  0
   26.5561  -18.8429  -13.8980 C   0  0  0  0  0  0  0  0  0  0  0  0
   26.6202  -17.9210  -13.0505 O   0  0  0  0  0  0  0  0  0  0  0  0
   22.4320  -21.0665  -15.2568 N   0  0  0  0  0  0  0  0  0  0  0  0
   21.9014  -20.0450  -14.4404 C   0  0  0  0  0  0  0  0  0  0  0  0
   20.9276  -19.3914  -14.8831 O   0  0  0  0  0  0  0  0  0  0  0  0
   22.4795  -19.7480  -13.0884 C   0  0  0  0  0  0  0  0  0  0  0  0
   23.6007  -20.7291  -12.8586 C   0  0  0  0  0  0  0  0  0  0  0  0
   24.8731  -20.0782  -12.4621 C   0  0  2  0  0  0  0  0  0  0  0  0
   25.7820  -19.9879  -13.5825 N   0  0  0  0  0  0  0  0  0  0  0  0
   25.5838  -20.7108  -11.3192 C   0  0  0  0  0  0  0  0  0  0  0  0
   26.1615  -21.8125  -11.5194 O   0  0  0  0  0  0  0  0  0  0  0  0
   29.2101  -18.3426   -6.5143 C   0  0  0  0  0  0  0  0  0  0  0  0
   28.1452  -19.4087   -5.5440 S   0  0  0  0  0  0  0  0  0  0  0  0
   27.1652  -20.5500   -6.5708 C   0  0  0  0  0  0  0  0  0  0  0  0
   26.8472  -19.8970   -7.8857 C   0  0  0  0  0  0  0  0  0  0  0  0
   25.9888  -20.7579   -8.7961 C   0  0  2  0  0  0  0  0  0  0  0  0
   25.6313  -20.1203  -10.0390 N   0  0  0  0  0  0  0  0  0  0  0  0
   24.7718  -21.1739   -8.0604 C   0  0  0  0  0  0  0  0  0  0  0  0
   23.6723  -20.6694   -8.3773 O   0  0  0  0  0  0  0  0  0  0  0  0
   24.8005  -22.1000   -7.0346 O   0  0  0  0  0  0  0  0  0  0  0  0
  2  1  1  0
  3  2  1  0
  4  3  1  0
  5  4  1  0
  5  6  1  6
  7 15  1  0
  7  5  1  0
  8  7  2  0
 10 12  1  0
 10  9  1  0
 11 10  2  0
 13 12  1  0
 14 15  1  0
 14 13  1  6
 16 14  1  0
 17 16  2  0
 18 19  1  0
 20 19  1  0
 20 21  1  0
 22 21  1  1
 22 24  1  0
 22 23  1  0
 23 16  1  0
 24 26  1  0
 25 24  2  0
M  END
$$$$
