MQM.pdb
     RDKit          3D

 26 25  0  0  1  0  0  0  0  0999 V2000
   31.6972  -21.1375  -11.0200 C   0  0  0  0  0  0  0  0  0  0  0  0
   31.5450  -22.2628  -12.4453 S   0  0  0  0  0  0  0  0  0  0  0  0
   30.0437  -21.8095  -13.3234 C   0  0  0  0  0  0  0  0  0  0  0  0
   29.7477  -20.3085  -13.2072 C   0  0  0  0  0  0  0  0  0  0  0  0
   28.4848  -20.0693  -13.9676 C   0  0  2  0  0  0  0  0  0  0  0  0
   28.6850  -18.9074  -14.8107 N   0  0  0  0  0  0  0  0  0  0  0  0
   27.2949  -19.8519  -13.1303 C   0  0  0  0  0  0  0  0  0  0  0  0
   27.0502  -18.7152  -12.6608 O   0  0  0  0  0  0  0  0  0  0  0  0
   22.1545  -19.7417  -11.7152 N   0  0  0  0  0  0  0  0  0  0  0  0
   22.4277  -19.7875  -13.0989 C   0  0  0  0  0  0  0  0  0  0  0  0
   21.7733  -19.0247  -13.8481 O   0  0  0  0  0  0  0  0  0  0  0  0
   23.4650  -20.7155  -13.6586 C   0  0  0  0  0  0  0  0  0  0  0  0
   24.0698  -21.4601  -12.4957 C   0  0  0  0  0  0  0  0  0  0  0  0
   25.2679  -20.7901  -11.9339 C   0  0  2  0  0  0  0  0  0  0  0  0
   26.3965  -20.9065  -12.8296 N   0  0  0  0  0  0  0  0  0  0  0  0
   25.6807  -21.2508  -10.5815 C   0  0  0  0  0  0  0  0  0  0  0  0
   26.0436  -22.4503  -10.4511 O   0  0  0  0  0  0  0  0  0  0  0  0
   28.5742  -19.4130   -3.5018 C   0  0  0  0  0  0  0  0  0  0  0  0
   27.7280  -18.7991   -4.9575 S   0  0  0  0  0  0  0  0  0  0  0  0
   26.7773  -20.0920   -5.8186 C   0  0  0  0  0  0  0  0  0  0  0  0
   26.6917  -19.7634   -7.2818 C   0  0  0  0  0  0  0  0  0  0  0  0
   25.8761  -20.7659   -8.0798 C   0  0  2  0  0  0  0  0  0  0  0  0
   25.6805  -20.3958   -9.4596 N   0  0  0  0  0  0  0  0  0  0  0  0
   24.5704  -20.9685   -7.4093 C   0  0  0  0  0  0  0  0  0  0  0  0
   24.5521  -21.4517   -6.2559 O   0  0  0  0  0  0  0  0  0  0  0  0
   23.3669  -20.6443   -8.0069 O   0  0  0  0  0  0  0  0  0  0  0  0
  2  1  1  0
  3  2  1  0
  4  3  1  0
  5  4  1  0
  5  6  1  1
  7 15  1  0
  7  5  1  0
  8  7  2  0
 10 12  1  0
 10  9  1  0
 11 10  2  0
 13 12  1  0
 14 15  1  0
 14 13  1  6
 16 14  1  0
 17 16  2  0
 18 19  1  0
 20 19  1  0
 20 21  1  0
 22 21  1  1
 22 24  1  0
 22 23  1  0
 23 16  1  0
 24 26  1  0
 25 24  2  0
M  END
$$$$
