MQM.pdb
     RDKit          3D

 26 25  0  0  1  0  0  0  0  0999 V2000
   28.7724  -15.2381  -16.9331 C   0  0  0  0  0  0  0  0  0  0  0  0
   29.1267  -16.6074  -18.0823 S   0  0  0  0  0  0  0  0  0  0  0  0
   28.7349  -18.1373  -17.2241 C   0  0  0  0  0  0  0  0  0  0  0  0
   27.8332  -17.8922  -16.0071 C   0  0  0  0  0  0  0  0  0  0  0  0
   28.0743  -19.0297  -15.0699 C   0  0  2  0  0  0  0  0  0  0  0  0
   27.9933  -20.2602  -15.8317 N   0  0  0  0  0  0  0  0  0  0  0  0
   27.1349  -19.1051  -13.9403 C   0  0  0  0  0  0  0  0  0  0  0  0
   26.9027  -18.0906  -13.2410 O   0  0  0  0  0  0  0  0  0  0  0  0
   22.0928  -20.7546  -11.6896 N   0  0  0  0  0  0  0  0  0  0  0  0
   22.1952  -20.3733  -13.0445 C   0  0  0  0  0  0  0  0  0  0  0  0
   21.2414  -19.7306  -13.5432 O   0  0  0  0  0  0  0  0  0  0  0  0
   23.4021  -20.7229  -13.8638 C   0  0  0  0  0  0  0  0  0  0  0  0
   24.4017  -21.3616  -12.9335 C   0  0  0  0  0  0  0  0  0  0  0  0
   25.5019  -20.4469  -12.5427 C   0  0  2  0  0  0  0  0  0  0  0  0
   26.4690  -20.3119  -13.6086 N   0  0  0  0  0  0  0  0  0  0  0  0
   26.2175  -20.8088  -11.2903 C   0  0  0  0  0  0  0  0  0  0  0  0
   27.0117  -21.7863  -11.3249 O   0  0  0  0  0  0  0  0  0  0  0  0
   30.1702  -19.4228   -5.5632 C   0  0  0  0  0  0  0  0  0  0  0  0
   28.4657  -18.8762   -5.6518 S   0  0  0  0  0  0  0  0  0  0  0  0
   27.3882  -20.0634   -6.5159 C   0  0  0  0  0  0  0  0  0  0  0  0
   27.1580  -19.6000   -7.9262 C   0  0  0  0  0  0  0  0  0  0  0  0
   26.3171  -20.5610   -8.7485 C   0  0  2  0  0  0  0  0  0  0  0  0
   26.0376  -20.0981  -10.0852 N   0  0  0  0  0  0  0  0  0  0  0  0
   25.0550  -20.8393   -8.0238 C   0  0  0  0  0  0  0  0  0  0  0  0
   23.9867  -20.3627   -8.4662 O   0  0  0  0  0  0  0  0  0  0  0  0
   25.0082  -21.6067   -6.8751 O   0  0  0  0  0  0  0  0  0  0  0  0
  2  1  1  0
  3  2  1  0
  4  3  1  0
  5  4  1  0
  5  6  1  6
  7 15  1  0
  7  5  1  0
  8  7  2  0
 10 12  1  0
 10  9  1  0
 11 10  2  0
 13 12  1  0
 14 15  1  0
 14 13  1  6
 16 14  1  0
 17 16  2  0
 18 19  1  0
 20 19  1  0
 20 21  1  0
 22 21  1  1
 22 24  1  0
 22 23  1  0
 23 16  1  0
 24 26  1  0
 25 24  2  0
M  END
$$$$
