MQM.pdb
     RDKit          3D

 26 25  0  0  1  0  0  0  0  0999 V2000
   22.3457   -9.8214  -22.5757 C   0  0  0  0  0  0  0  0  0  0  0  0
   21.9173  -11.4924  -21.9878 S   0  0  0  0  0  0  0  0  0  0  0  0
   21.4958  -11.3520  -20.2463 C   0  0  0  0  0  0  0  0  0  0  0  0
   21.1408   -9.9099  -19.8612 C   0  0  0  0  0  0  0  0  0  0  0  0
   20.7882   -9.9373  -18.4102 C   0  0  2  0  0  0  0  0  0  0  0  0
   19.6838  -10.8600  -18.2369 N   0  0  0  0  0  0  0  0  0  0  0  0
   20.4129   -8.6324  -17.8441 C   0  0  0  0  0  0  0  0  0  0  0  0
   19.2478   -8.1915  -17.9874 O   0  0  0  0  0  0  0  0  0  0  0  0
   22.2138   -6.4811  -12.5820 N   0  0  0  0  0  0  0  0  0  0  0  0
   21.0214   -7.1778  -12.8724 C   0  0  0  0  0  0  0  0  0  0  0  0
   20.4085   -7.7086  -11.9163 O   0  0  0  0  0  0  0  0  0  0  0  0
   20.5012   -7.2822  -14.2755 C   0  0  0  0  0  0  0  0  0  0  0  0
   21.4093   -6.4549  -15.1494 C   0  0  0  0  0  0  0  0  0  0  0  0
   21.0590   -6.5283  -16.5888 C   0  0  2  0  0  0  0  0  0  0  0  0
   21.3438   -7.8394  -17.1268 N   0  0  0  0  0  0  0  0  0  0  0  0
   21.7035   -5.5054  -17.4547 C   0  0  0  0  0  0  0  0  0  0  0  0
   22.9348   -5.6244  -17.6938 O   0  0  0  0  0  0  0  0  0  0  0  0
   18.3237   -1.6798  -21.7918 C   0  0  0  0  0  0  0  0  0  0  0  0
   19.6315   -0.5857  -21.2401 S   0  0  0  0  0  0  0  0  0  0  0  0
   20.9985   -1.4739  -20.4279 C   0  0  0  0  0  0  0  0  0  0  0  0
   20.4410   -2.5157  -19.5004 C   0  0  0  0  0  0  0  0  0  0  0  0
   21.5097   -3.3537  -18.8203 C   0  0  2  0  0  0  0  0  0  0  0  0
   20.9860   -4.4250  -18.0097 N   0  0  0  0  0  0  0  0  0  0  0  0
   22.3742   -2.4662  -18.0076 C   0  0  0  0  0  0  0  0  0  0  0  0
   23.4583   -2.0717  -18.4903 O   0  0  0  0  0  0  0  0  0  0  0  0
   22.0315   -2.0540  -16.7335 O   0  0  0  0  0  0  0  0  0  0  0  0
  2  1  1  0
  3  2  1  0
  4  3  1  0
  5  4  1  0
  5  6  1  6
  7 15  1  0
  7  5  1  0
  8  7  2  0
 10 12  1  0
 10  9  1  0
 11 10  2  0
 13 12  1  0
 14 15  1  0
 14 13  1  1
 16 14  1  0
 17 16  2  0
 18 19  1  0
 20 19  1  0
 20 21  1  0
 22 21  1  1
 22 24  1  0
 22 23  1  0
 23 16  1  0
 24 26  1  0
 25 24  2  0
M  END
$$$$
