MQM.pdb
     RDKit          3D

 26 25  0  0  1  0  0  0  0  0999 V2000
   29.4795   -8.7639  -17.5268 C   0  0  0  0  0  0  0  0  0  0  0  0
   29.6928  -10.5710  -17.4258 S   0  0  0  0  0  0  0  0  0  0  0  0
   28.0505  -11.3013  -17.4211 C   0  0  0  0  0  0  0  0  0  0  0  0
   27.1524  -10.6750  -16.3463 C   0  0  0  0  0  0  0  0  0  0  0  0
   25.8012  -11.2873  -16.5191 C   0  0  2  0  0  0  0  0  0  0  0  0
   25.9140  -12.3469  -17.5018 N   0  0  0  0  0  0  0  0  0  0  0  0
   24.7516  -10.3495  -16.9470 C   0  0  0  0  0  0  0  0  0  0  0  0
   24.7297   -9.9178  -18.1240 O   0  0  0  0  0  0  0  0  0  0  0  0
   18.9418   -9.9117  -18.3903 N   0  0  0  0  0  0  0  0  0  0  0  0
   19.8823   -8.9312  -18.0088 C   0  0  0  0  0  0  0  0  0  0  0  0
   20.4355   -8.2686  -18.9179 O   0  0  0  0  0  0  0  0  0  0  0  0
   20.2120   -8.6865  -16.5660 C   0  0  0  0  0  0  0  0  0  0  0  0
   21.3515   -9.6062  -16.2078 C   0  0  0  0  0  0  0  0  0  0  0  0
   22.6848   -8.9873  -16.4056 C   0  0  2  0  0  0  0  0  0  0  0  0
   23.7425   -9.9079  -16.0545 N   0  0  0  0  0  0  0  0  0  0  0  0
   22.9063   -7.7060  -15.6838 C   0  0  0  0  0  0  0  0  0  0  0  0
   23.2934   -7.7618  -14.4862 O   0  0  0  0  0  0  0  0  0  0  0  0
   25.0170   -1.9477  -18.4880 C   0  0  0  0  0  0  0  0  0  0  0  0
   23.6755   -1.4640  -17.4025 S   0  0  0  0  0  0  0  0  0  0  0  0
   23.3441   -2.6932  -16.1000 C   0  0  0  0  0  0  0  0  0  0  0  0
   23.1668   -4.0493  -16.7212 C   0  0  0  0  0  0  0  0  0  0  0  0
   22.9120   -5.1503  -15.7065 C   0  0  2  0  0  0  0  0  0  0  0  0
   22.7018   -6.4505  -16.2934 N   0  0  0  0  0  0  0  0  0  0  0  0
   21.7542   -4.7710  -14.8633 C   0  0  0  0  0  0  0  0  0  0  0  0
   20.6081   -5.1268  -15.2154 O   0  0  0  0  0  0  0  0  0  0  0  0
   21.8878   -4.0378  -13.6991 O   0  0  0  0  0  0  0  0  0  0  0  0
  2  1  1  0
  3  2  1  0
  4  3  1  0
  5  4  1  0
  5  6  1  6
  7 15  1  0
  7  5  1  0
  8  7  2  0
 10 12  1  0
 10  9  1  0
 11 10  2  0
 13 12  1  0
 14 15  1  0
 14 13  1  1
 16 14  1  0
 17 16  2  0
 18 19  1  0
 20 19  1  0
 20 21  1  0
 22 21  1  6
 22 24  1  0
 22 23  1  0
 23 16  1  0
 24 26  1  0
 25 24  2  0
M  END
$$$$
