MQM.pdb
     RDKit          3D

 26 25  0  0  1  0  0  0  0  0999 V2000
   32.1927  -22.5040   -9.7713 C   0  0  0  0  0  0  0  0  0  0  0  0
   30.5611  -21.6964   -9.6890 S   0  0  0  0  0  0  0  0  0  0  0  0
   29.9070  -21.6463  -11.3624 C   0  0  0  0  0  0  0  0  0  0  0  0
   28.5525  -20.9282  -11.4226 C   0  0  0  0  0  0  0  0  0  0  0  0
   28.1966  -20.8235  -12.8693 C   0  0  2  0  0  0  0  0  0  0  0  0
   29.2563  -20.0945  -13.5376 N   0  0  0  0  0  0  0  0  0  0  0  0
   26.9140  -20.1558  -13.1399 C   0  0  0  0  0  0  0  0  0  0  0  0
   26.7331  -18.9658  -12.7886 O   0  0  0  0  0  0  0  0  0  0  0  0
   26.4591  -17.2480  -15.5491 N   0  0  0  0  0  0  0  0  0  0  0  0
   25.3006  -17.9771  -15.8918 C   0  0  0  0  0  0  0  0  0  0  0  0
   24.2089  -17.3613  -15.9133 O   0  0  0  0  0  0  0  0  0  0  0  0
   25.3681  -19.4393  -16.2201 C   0  0  0  0  0  0  0  0  0  0  0  0
   24.2542  -20.1171  -15.4634 C   0  0  0  0  0  0  0  0  0  0  0  0
   24.5387  -20.2650  -14.0153 C   0  0  2  0  0  0  0  0  0  0  0  0
   25.8528  -20.8267  -13.7985 N   0  0  0  0  0  0  0  0  0  0  0  0
   23.5449  -21.0626  -13.2485 C   0  0  0  0  0  0  0  0  0  0  0  0
   23.6427  -22.3183  -13.2819 O   0  0  0  0  0  0  0  0  0  0  0  0
   19.5373  -21.4002   -6.5907 C   0  0  0  0  0  0  0  0  0  0  0  0
   20.1240  -20.3027   -7.8804 S   0  0  0  0  0  0  0  0  0  0  0  0
   20.2348  -21.1190   -9.5048 C   0  0  0  0  0  0  0  0  0  0  0  0
   21.2808  -20.4374  -10.3401 C   0  0  0  0  0  0  0  0  0  0  0  0
   21.5365  -21.1267  -11.6692 C   0  0  2  0  0  0  0  0  0  0  0  0
   22.5147  -20.4625  -12.4946 N   0  0  0  0  0  0  0  0  0  0  0  0
   20.2531  -21.2624  -12.3971 C   0  0  0  0  0  0  0  0  0  0  0  0
   19.9344  -20.3844  -13.2286 O   0  0  0  0  0  0  0  0  0  0  0  0
   19.3899  -22.3230  -12.1954 O   0  0  0  0  0  0  0  0  0  0  0  0
  2  1  1  0
  3  2  1  0
  4  3  1  0
  5  4  1  0
  5  6  1  6
  7 15  1  0
  7  5  1  0
  8  7  2  0
 10 12  1  0
 10  9  1  0
 11 10  2  0
 13 12  1  0
 14 15  1  0
 14 13  1  6
 16 14  1  0
 17 16  2  0
 18 19  1  0
 20 19  1  0
 20 21  1  0
 22 21  1  1
 22 24  1  0
 22 23  1  0
 23 16  1  0
 24 26  1  0
 25 24  2  0
M  END
$$$$
