HSK.pdb
     RDKit          3D

 26 26  0  0  1  0  0  0  0  0999 V2000
   14.0115  -17.3052   16.8517 N   0  0  0  0  0  0  0  0  0  0  0  0
   14.5064  -18.2646   17.7989 C   0  0  1  0  0  0  0  0  0  0  0  0
   15.8081  -17.6907   18.3713 C   0  0  0  0  0  0  0  0  0  0  0  0
   16.8641  -17.6047   17.3035 C   0  0  0  0  0  0  0  0  0  0  0  0
   16.9820  -18.4651   16.2462 C   0  0  0  0  0  0  0  0  0  0  0  0
   18.0332  -18.0663   15.5168 N   0  0  0  0  0  0  0  0  0  0  0  0
   18.5515  -16.9805   16.1157 C   0  0  0  0  0  0  0  0  0  0  0  0
   17.8348  -16.6979   17.2103 N   0  0  0  0  0  0  0  0  0  0  0  0
   13.6003  -18.4278   18.9635 C   0  0  0  0  0  0  0  0  0  0  0  0
   12.9480  -17.4375   19.4355 O   0  0  0  0  0  0  0  0  0  0  0  0
   12.4663  -22.2158   20.5140 O   0  0  0  0  0  0  0  0  0  0  0  0
   11.6562  -21.0717   20.6179 C   0  0  0  0  0  0  0  0  0  0  0  0
   12.5315  -19.8329   20.7631 C   0  0  2  0  0  0  0  0  0  0  0  0
   13.3979  -19.6687   19.6219 N   0  0  0  0  0  0  0  0  0  0  0  0
   13.2623  -19.8344   22.0459 C   0  0  0  0  0  0  0  0  0  0  0  0
   14.5306  -19.8949   21.9717 O   0  0  0  0  0  0  0  0  0  0  0  0
   12.6506  -19.7749   23.2951 N   0  0  0  0  0  0  0  0  0  0  0  0
   13.3865  -19.8467   24.5777 C   0  0  1  0  0  0  0  0  0  0  0  0
   12.4287  -19.7901   25.7239 C   0  0  0  0  0  0  0  0  0  0  0  0
   13.1032  -20.0004   27.0491 C   0  0  0  0  0  0  0  0  0  0  0  0
   12.1068  -20.0796   28.1860 C   0  0  0  0  0  0  0  0  0  0  0  0
   12.8137  -20.3563   29.5083 C   0  0  0  0  0  0  0  0  0  0  0  0
   11.8765  -20.4383   30.6041 N   0  0  0  0  0  0  0  0  0  0  0  0
   14.2575  -21.0471   24.5577 C   0  0  0  0  0  0  0  0  0  0  0  0
   15.5883  -20.9710   24.9842 O   0  0  0  0  0  0  0  0  0  0  0  0
   13.8781  -22.1759   24.1707 O   0  0  0  0  0  0  0  0  0  0  0  0
  2  1  1  6
  2  9  1  0
  3  4  1  0
  3  2  1  0
  4  5  2  0
  4  8  1  0
  5  6  1  0
  6  7  1  0
  8  7  2  0
  9 10  2  0
 13 12  1  6
 12 11  1  0
 13 15  1  0
 14  9  1  0
 14 13  1  0
 15 16  2  0
 17 15  1  0
 17 18  1  0
 18 24  1  0
 18 19  1  1
 20 19  1  0
 21 22  1  0
 21 20  1  0
 22 23  1  0
 24 25  1  0
 26 24  2  0
M  END
$$$$
