HSK.pdb
     RDKit          3D

 26 26  0  0  1  0  0  0  0  0999 V2000
   11.2789  -15.2440   17.7817 N   0  0  0  0  0  0  0  0  0  0  0  0
   11.7409  -15.4594   19.1243 C   0  0  1  0  0  0  0  0  0  0  0  0
   12.4638  -14.1773   19.5548 C   0  0  0  0  0  0  0  0  0  0  0  0
   13.8921  -14.1904   19.0833 C   0  0  0  0  0  0  0  0  0  0  0  0
   14.4914  -15.2303   18.4262 C   0  0  0  0  0  0  0  0  0  0  0  0
   15.7568  -14.8704   18.1709 N   0  0  0  0  0  0  0  0  0  0  0  0
   15.9313  -13.6318   18.6626 C   0  0  0  0  0  0  0  0  0  0  0  0
   14.7885  -13.2155   19.2214 N   0  0  0  0  0  0  0  0  0  0  0  0
   10.6227  -15.6252   20.0867 C   0  0  0  0  0  0  0  0  0  0  0  0
    9.5379  -14.9653   19.9573 O   0  0  0  0  0  0  0  0  0  0  0  0
   10.2402  -19.0033   22.4784 O   0  0  0  0  0  0  0  0  0  0  0  0
    9.1520  -18.2016   22.0920 C   0  0  0  0  0  0  0  0  0  0  0  0
    9.5681  -16.7358   22.0891 C   0  0  2  0  0  0  0  0  0  0  0  0
   10.6773  -16.5094   21.1956 N   0  0  0  0  0  0  0  0  0  0  0  0
    9.8206  -16.2426   23.4576 C   0  0  0  0  0  0  0  0  0  0  0  0
   11.0358  -16.2177   23.8322 O   0  0  0  0  0  0  0  0  0  0  0  0
    8.8245  -15.8164   24.3320 N   0  0  0  0  0  0  0  0  0  0  0  0
    9.0510  -15.5429   25.7692 C   0  0  1  0  0  0  0  0  0  0  0  0
    7.8376  -14.9090   26.3694 C   0  0  0  0  0  0  0  0  0  0  0  0
    7.5685  -13.5399   25.8140 C   0  0  0  0  0  0  0  0  0  0  0  0
    6.3907  -12.8742   26.4929 C   0  0  0  0  0  0  0  0  0  0  0  0
    6.1665  -11.4718   25.9381 C   0  0  0  0  0  0  0  0  0  0  0  0
    5.0068  -10.8463   26.5294 N   0  0  0  0  0  0  0  0  0  0  0  0
    9.4830  -16.7994   26.4284 C   0  0  0  0  0  0  0  0  0  0  0  0
   10.3478  -16.7680   27.5284 O   0  0  0  0  0  0  0  0  0  0  0  0
    9.1182  -17.9393   26.0605 O   0  0  0  0  0  0  0  0  0  0  0  0
  2  1  1  6
  2  9  1  0
  3  4  1  0
  3  2  1  0
  4  5  2  0
  4  8  1  0
  5  6  1  0
  6  7  1  0
  8  7  2  0
  9 10  2  0
 13 12  1  1
 12 11  1  0
 13 15  1  0
 14  9  1  0
 14 13  1  0
 15 16  2  0
 17 15  1  0
 17 18  1  0
 18 24  1  0
 18 19  1  1
 20 19  1  0
 21 22  1  0
 21 20  1  0
 22 23  1  0
 24 25  1  0
 26 24  2  0
M  END
$$$$
