HSK.pdb
     RDKit          3D

 26 26  0  0  1  0  0  0  0  0999 V2000
    3.6767  -23.1353   22.2260 N   0  0  0  0  0  0  0  0  0  0  0  0
    3.9244  -23.0593   23.6385 C   0  0  1  0  0  0  0  0  0  0  0  0
    3.6526  -24.4555   24.2114 C   0  0  0  0  0  0  0  0  0  0  0  0
    2.1868  -24.7841   24.1339 C   0  0  0  0  0  0  0  0  0  0  0  0
    1.1961  -24.1098   24.7943 C   0  0  0  0  0  0  0  0  0  0  0  0
    0.0311  -24.6907   24.4757 N   0  0  0  0  0  0  0  0  0  0  0  0
    0.3018  -25.7037   23.6349 C   0  0  0  0  0  0  0  0  0  0  0  0
    1.6227  -25.7605   23.4257 N   0  0  0  0  0  0  0  0  0  0  0  0
    5.3483  -22.7752   23.9478 C   0  0  0  0  0  0  0  0  0  0  0  0
    6.2878  -23.2589   23.2322 O   0  0  0  0  0  0  0  0  0  0  0  0
    6.4995  -19.6372   26.4576 O   0  0  0  0  0  0  0  0  0  0  0  0
    7.3435  -20.1440   25.4541 C   0  0  0  0  0  0  0  0  0  0  0  0
    7.1378  -21.6478   25.3197 C   0  0  2  0  0  0  0  0  0  0  0  0
    5.7592  -21.9634   25.0371 N   0  0  0  0  0  0  0  0  0  0  0  0
    7.6662  -22.3729   26.4922 C   0  0  0  0  0  0  0  0  0  0  0  0
    6.8516  -22.5651   27.4499 O   0  0  0  0  0  0  0  0  0  0  0  0
    8.9726  -22.8423   26.5985 N   0  0  0  0  0  0  0  0  0  0  0  0
    9.4925  -23.5740   27.7758 C   0  0  1  0  0  0  0  0  0  0  0  0
   10.7612  -24.2812   27.4226 C   0  0  0  0  0  0  0  0  0  0  0  0
   10.5498  -25.3751   26.4158 C   0  0  0  0  0  0  0  0  0  0  0  0
   11.6425  -25.4006   25.3685 C   0  0  0  0  0  0  0  0  0  0  0  0
   11.3864  -26.5004   24.3441 C   0  0  0  0  0  0  0  0  0  0  0  0
   12.4288  -26.5488   23.3456 N   0  0  0  0  0  0  0  0  0  0  0  0
    9.6078  -22.6255   28.9103 C   0  0  0  0  0  0  0  0  0  0  0  0
    9.6869  -23.0933   30.2269 O   0  0  0  0  0  0  0  0  0  0  0  0
    9.6410  -21.3810   28.7763 O   0  0  0  0  0  0  0  0  0  0  0  0
  2  1  1  6
  2  9  1  0
  3  4  1  0
  3  2  1  0
  4  5  2  0
  4  8  1  0
  5  6  1  0
  6  7  1  0
  8  7  2  0
  9 10  2  0
 13 12  1  1
 12 11  1  0
 13 15  1  0
 14  9  1  0
 14 13  1  0
 15 16  2  0
 17 15  1  0
 17 18  1  0
 18 24  1  0
 18 19  1  6
 20 19  1  0
 21 22  1  0
 21 20  1  0
 22 23  1  0
 24 25  1  0
 26 24  2  0
M  END
$$$$
