HSK.pdb
     RDKit          3D

 26 26  0  0  1  0  0  0  0  0999 V2000
   13.1733  -17.1210   18.1767 N   0  0  0  0  0  0  0  0  0  0  0  0
   12.5694  -17.9180   19.2075 C   0  0  1  0  0  0  0  0  0  0  0  0
   13.7137  -18.5972   19.9696 C   0  0  0  0  0  0  0  0  0  0  0  0
   14.0529  -19.9230   19.3451 C   0  0  0  0  0  0  0  0  0  0  0  0
   13.1795  -20.9657   19.1958 C   0  0  0  0  0  0  0  0  0  0  0  0
   13.8435  -21.9658   18.6000 N   0  0  0  0  0  0  0  0  0  0  0  0
   15.1020  -21.5447   18.3876 C   0  0  0  0  0  0  0  0  0  0  0  0
   15.2298  -20.2930   18.8442 N   0  0  0  0  0  0  0  0  0  0  0  0
   11.8577  -17.0927   20.2157 C   0  0  0  0  0  0  0  0  0  0  0  0
   12.4236  -16.0890   20.7645 O   0  0  0  0  0  0  0  0  0  0  0  0
    7.9660  -18.0684   21.6160 O   0  0  0  0  0  0  0  0  0  0  0  0
    8.3216  -16.7148   21.4836 C   0  0  0  0  0  0  0  0  0  0  0  0
    9.8317  -16.5639   21.6196 C   0  0  2  0  0  0  0  0  0  0  0  0
   10.5266  -17.3539   20.6332 N   0  0  0  0  0  0  0  0  0  0  0  0
   10.2808  -16.8390   22.9988 C   0  0  0  0  0  0  0  0  0  0  0  0
   10.9013  -17.9341   23.1814 O   0  0  0  0  0  0  0  0  0  0  0  0
   10.0651  -15.9850   24.0770 N   0  0  0  0  0  0  0  0  0  0  0  0
   10.4743  -16.2918   25.4664 C   0  0  1  0  0  0  0  0  0  0  0  0
   10.0687  -15.1798   26.3793 C   0  0  0  0  0  0  0  0  0  0  0  0
   10.4670  -15.4309   27.8053 C   0  0  0  0  0  0  0  0  0  0  0  0
   10.0804  -14.2824   28.7124 C   0  0  0  0  0  0  0  0  0  0  0  0
   10.5754  -14.5240   30.1342 C   0  0  0  0  0  0  0  0  0  0  0  0
   10.2436  -13.4215   31.0061 N   0  0  0  0  0  0  0  0  0  0  0  0
    9.9356  -17.6235   25.8358 C   0  0  0  0  0  0  0  0  0  0  0  0
    8.6979  -18.0544   25.3449 O   0  0  0  0  0  0  0  0  0  0  0  0
   10.5287  -18.4299   26.5880 O   0  0  0  0  0  0  0  0  0  0  0  0
  2  1  1  6
  2  9  1  0
  3  4  1  0
  3  2  1  0
  4  5  2  0
  4  8  1  0
  5  6  1  0
  6  7  1  0
  8  7  2  0
  9 10  2  0
 13 12  1  1
 12 11  1  0
 13 15  1  0
 14  9  1  0
 14 13  1  0
 15 16  2  0
 17 15  1  0
 17 18  1  0
 18 24  1  0
 18 19  1  1
 20 19  1  0
 21 22  1  0
 21 20  1  0
 22 23  1  0
 24 25  1  0
 26 24  2  0
M  END
$$$$
