RKR.pdb
     RDKit          3D

 32 31  0  0  1  0  0  0  0  0999 V2000
   22.2221  -20.4169   -8.6540 N   0  0  0  0  0  0  0  0  0  0  0  0
   23.4014  -20.7074   -7.9089 C   0  0  0  0  0  0  0  0  0  0  0  0
   23.3363  -21.2968   -6.7586 N   0  0  0  0  0  0  0  0  0  0  0  0
   24.6946  -20.3669   -8.3935 N   0  0  0  0  0  0  0  0  0  0  0  0
   24.8562  -19.6634   -9.6505 C   0  0  0  0  0  0  0  0  0  0  0  0
   25.9372  -20.3649  -10.4373 C   0  0  0  0  0  0  0  0  0  0  0  0
   25.4615  -20.7206  -11.8332 C   0  0  0  0  0  0  0  0  0  0  0  0
   26.5263  -21.4286  -12.6223 C   0  0  2  0  0  0  0  0  0  0  0  0
   27.7183  -20.6317  -12.8154 N   0  0  0  0  0  0  0  0  0  0  0  0
   25.9694  -21.7351  -13.9768 C   0  0  0  0  0  0  0  0  0  0  0  0
   26.1301  -20.9265  -14.9147 O   0  0  0  0  0  0  0  0  0  0  0  0
   24.2174  -21.4872   -6.2496 N   0  0  0  0  0  0  0  0  0  0  0  0
   25.2523  -22.9413  -14.2265 C   0  0  2  0  0  0  0  0  0  0  0  0
   24.8736  -23.3581  -15.5429 C   0  0  0  0  0  0  0  0  0  0  0  0
   25.1857  -24.7675  -15.8639 C   0  0  0  0  0  0  0  0  0  0  0  0
   24.9056  -25.1278  -17.2868 C   0  0  0  0  0  0  0  0  0  0  0  0
   25.2990  -26.5992  -17.4557 C   0  0  0  0  0  0  0  0  0  0  0  0
   25.2411  -27.0183  -18.9198 N   0  0  0  0  0  0  0  0  0  0  0  0
   25.7376  -28.3944  -18.9489 C   0  0  0  0  0  0  0  0  0  0  0  0
   23.4555  -22.9856  -15.7990 O   0  0  0  0  0  0  0  0  0  0  0  0
   22.6019  -23.0730  -14.8784 N   0  0  0  0  0  0  0  0  0  0  0  0
   17.7364  -18.5531  -18.3110 C   0  0  0  0  0  0  0  0  0  0  0  0
   18.9584  -17.8890  -18.6786 N   0  0  0  0  0  0  0  0  0  0  0  0
   19.1332  -16.6537  -18.3598 N   0  0  0  0  0  0  0  0  0  0  0  0
   19.9879  -18.5593  -19.3880 C   0  0  0  0  0  0  0  0  0  0  0  0
   19.8394  -19.9225  -19.8475 C   0  0  0  0  0  0  0  0  0  0  0  0
   20.0313  -20.8434  -18.6748 C   0  0  0  0  0  0  0  0  0  0  0  0
   21.4697  -21.1903  -18.4191 C   0  0  1  0  0  0  0  0  0  0  0  0
   21.6172  -22.1035  -17.2536 N   0  0  0  0  0  0  0  0  0  0  0  0
   23.0008  -22.5239  -17.0615 C   0  0  0  0  0  0  0  0  0  0  0  0
   20.7875  -23.3152  -17.3159 O   0  0  0  0  0  0  0  0  0  0  0  0
   21.2662  -24.4806  -17.9249 O   0  0  0  0  0  0  0  0  0  0  0  0
  1  2  1  0
  2  3  2  0
  4  5  1  0
  4  2  1  0
  5  6  1  0
  7  8  1  0
  7  6  1  0
  8  9  1  6
 10 12  1  0
 10  8  1  0
 11 10  2  0
 13 19  1  0
 13 12  1  0
 13 14  1  1
 14 15  1  0
 16 15  1  0
 17 16  1  0
 18 17  1  0
 19 20  2  0
 22 23  2  0
 22 21  1  0
 24 22  1  0
 25 24  1  0
 26 25  1  0
 27 26  1  0
 28 27  1  1
 29 28  1  0
 29 19  1  0
 30 31  1  0
 30 28  1  0
 32 30  2  0
M  END
$$$$
