RKR.pdb
     RDKit          3D

 32 31  0  0  1  0  0  0  0  0999 V2000
   25.8821  -25.6713  -15.3083 N   0  0  0  0  0  0  0  0  0  0  0  0
   26.1363  -24.6532  -16.2723 C   0  0  0  0  0  0  0  0  0  0  0  0
   26.9928  -24.8348  -17.2253 N   0  0  0  0  0  0  0  0  0  0  0  0
   25.4632  -23.4009  -16.2319 N   0  0  0  0  0  0  0  0  0  0  0  0
   24.3111  -23.2031  -15.3749 C   0  0  0  0  0  0  0  0  0  0  0  0
   23.2175  -24.1298  -15.8492 C   0  0  0  0  0  0  0  0  0  0  0  0
   21.8516  -23.6493  -15.3964 C   0  0  0  0  0  0  0  0  0  0  0  0
   21.3454  -22.5212  -16.2502 C   0  0  2  0  0  0  0  0  0  0  0  0
   22.3558  -21.5270  -16.5399 N   0  0  0  0  0  0  0  0  0  0  0  0
   20.2450  -21.8355  -15.5032 C   0  0  0  0  0  0  0  0  0  0  0  0
   20.3576  -21.6303  -14.2766 O   0  0  0  0  0  0  0  0  0  0  0  0
   27.0715  -24.1137  -17.9638 N   0  0  0  0  0  0  0  0  0  0  0  0
   19.0581  -21.4051  -16.1645 C   0  0  1  0  0  0  0  0  0  0  0  0
   18.0002  -20.7184  -15.4867 C   0  0  0  0  0  0  0  0  0  0  0  0
   17.3435  -19.6535  -16.2750 C   0  0  0  0  0  0  0  0  0  0  0  0
   18.1923  -18.4362  -16.4503 C   0  0  0  0  0  0  0  0  0  0  0  0
   17.9533  -17.5503  -15.2230 C   0  0  0  0  0  0  0  0  0  0  0  0
   18.7114  -16.2334  -15.3403 N   0  0  0  0  0  0  0  0  0  0  0  0
   18.3830  -15.4875  -14.1251 C   0  0  0  0  0  0  0  0  0  0  0  0
   17.0500  -21.7069  -14.9075 O   0  0  0  0  0  0  0  0  0  0  0  0
   16.6418  -22.6742  -15.6013 N   0  0  0  0  0  0  0  0  0  0  0  0
   18.1738  -24.6629   -7.9751 C   0  0  0  0  0  0  0  0  0  0  0  0
   18.2086  -25.2673   -9.2801 N   0  0  0  0  0  0  0  0  0  0  0  0
   19.1783  -26.0551   -9.5921 N   0  0  0  0  0  0  0  0  0  0  0  0
   17.1972  -25.0208  -10.2440 C   0  0  0  0  0  0  0  0  0  0  0  0
   16.0379  -24.2086   -9.9474 C   0  0  0  0  0  0  0  0  0  0  0  0
   15.2261  -24.0615  -11.2042 C   0  0  0  0  0  0  0  0  0  0  0  0
   16.0492  -23.6951  -12.4054 C   0  0  1  0  0  0  0  0  0  0  0  0
   15.5058  -22.4970  -13.1007 N   0  0  0  0  0  0  0  0  0  0  0  0
   16.5657  -21.6149  -13.5768 C   0  0  0  0  0  0  0  0  0  0  0  0
   14.5807  -21.6878  -12.2946 O   0  0  0  0  0  0  0  0  0  0  0  0
   13.3212  -22.1823  -11.9375 O   0  0  0  0  0  0  0  0  0  0  0  0
  1  2  1  0
  2  3  2  0
  4  5  1  0
  4  2  1  0
  5  6  1  0
  7  8  1  0
  7  6  1  0
  8  9  1  1
 10 12  1  0
 10  8  1  0
 11 10  2  0
 13 19  1  0
 13 12  1  0
 13 14  1  1
 14 15  1  0
 16 15  1  0
 17 16  1  0
 18 17  1  0
 19 20  2  0
 22 23  2  0
 22 21  1  0
 24 22  1  0
 25 24  1  0
 26 25  1  0
 27 26  1  0
 28 27  1  6
 29 28  1  0
 29 19  1  0
 30 31  1  0
 30 28  1  0
 32 30  2  0
M  END
$$$$
