RKR.pdb
     RDKit          3D

 32 31  0  0  1  0  0  0  0  0999 V2000
   32.6633  -23.6576  -16.1410 N   0  0  0  0  0  0  0  0  0  0  0  0
   32.5495  -23.3714  -14.7498 C   0  0  0  0  0  0  0  0  0  0  0  0
   33.3544  -23.9074  -13.8898 N   0  0  0  0  0  0  0  0  0  0  0  0
   31.5541  -22.4883  -14.2474 N   0  0  0  0  0  0  0  0  0  0  0  0
   30.7670  -21.6668  -15.1455 C   0  0  0  0  0  0  0  0  0  0  0  0
   29.3670  -22.2310  -15.1807 C   0  0  0  0  0  0  0  0  0  0  0  0
   28.6065  -21.9009  -13.9103 C   0  0  0  0  0  0  0  0  0  0  0  0
   27.2209  -22.4823  -13.9220 C   0  0  2  0  0  0  0  0  0  0  0  0
   26.8989  -23.1646  -15.1565 N   0  0  0  0  0  0  0  0  0  0  0  0
   26.2473  -21.3568  -13.7663 C   0  0  0  0  0  0  0  0  0  0  0  0
   26.2240  -20.6943  -12.7081 O   0  0  0  0  0  0  0  0  0  0  0  0
   33.2028  -23.7156  -12.8838 N   0  0  0  0  0  0  0  0  0  0  0  0
   25.3355  -21.0176  -14.8080 C   0  0  1  0  0  0  0  0  0  0  0  0
   24.2857  -20.0593  -14.6360 C   0  0  0  0  0  0  0  0  0  0  0  0
   24.3920  -18.8586  -15.4926 C   0  0  0  0  0  0  0  0  0  0  0  0
   25.4192  -17.8817  -15.0197 C   0  0  0  0  0  0  0  0  0  0  0  0
   25.3383  -16.6689  -15.9529 C   0  0  0  0  0  0  0  0  0  0  0  0
   26.3634  -15.6094  -15.5664 N   0  0  0  0  0  0  0  0  0  0  0  0
   26.1799  -14.5231  -16.5293 C   0  0  0  0  0  0  0  0  0  0  0  0
   22.9651  -20.7404  -14.7212 O   0  0  0  0  0  0  0  0  0  0  0  0
   22.5739  -21.2285  -15.8132 N   0  0  0  0  0  0  0  0  0  0  0  0
   19.4850  -24.7736   -8.3583 C   0  0  0  0  0  0  0  0  0  0  0  0
   19.1416  -23.4571   -8.8256 N   0  0  0  0  0  0  0  0  0  0  0  0
   18.6017  -22.6140   -8.0156 N   0  0  0  0  0  0  0  0  0  0  0  0
   19.3821  -23.0540  -10.1643 C   0  0  0  0  0  0  0  0  0  0  0  0
   18.7926  -23.7446  -11.2900 C   0  0  0  0  0  0  0  0  0  0  0  0
   19.1751  -23.0162  -12.5483 C   0  0  0  0  0  0  0  0  0  0  0  0
   20.4752  -22.2737  -12.4348 C   0  0  1  0  0  0  0  0  0  0  0  0
   20.8420  -21.6068  -13.7135 N   0  0  0  0  0  0  0  0  0  0  0  0
   22.0983  -20.8731  -13.6055 C   0  0  0  0  0  0  0  0  0  0  0  0
   19.8273  -20.6796  -14.2340 O   0  0  0  0  0  0  0  0  0  0  0  0
   19.0052  -21.0454  -15.3058 O   0  0  0  0  0  0  0  0  0  0  0  0
  1  2  1  0
  2  3  2  0
  4  5  1  0
  4  2  1  0
  5  6  1  0
  7  8  1  0
  7  6  1  0
  8  9  1  6
 10 12  1  0
 10  8  1  0
 11 10  2  0
 13 19  1  0
 13 12  1  0
 13 14  1  1
 14 15  1  0
 16 15  1  0
 17 16  1  0
 18 17  1  0
 19 20  2  0
 22 23  2  0
 22 21  1  0
 24 22  1  0
 25 24  1  0
 26 25  1  0
 27 26  1  0
 28 27  1  6
 29 28  1  0
 29 19  1  0
 30 31  1  0
 30 28  1  0
 32 30  2  0
M  END
$$$$
