RKR.pdb
     RDKit          3D

 32 31  0  0  1  0  0  0  0  0999 V2000
   25.5593  -24.3563  -15.1049 N   0  0  0  0  0  0  0  0  0  0  0  0
   24.9597  -25.5993  -15.4597 C   0  0  0  0  0  0  0  0  0  0  0  0
   25.6840  -26.6361  -15.7335 N   0  0  0  0  0  0  0  0  0  0  0  0
   23.5475  -25.7556  -15.5265 N   0  0  0  0  0  0  0  0  0  0  0  0
   22.6604  -24.7036  -15.0714 C   0  0  0  0  0  0  0  0  0  0  0  0
   22.1145  -25.1098  -13.7236 C   0  0  0  0  0  0  0  0  0  0  0  0
   20.7130  -25.6778  -13.8440 C   0  0  0  0  0  0  0  0  0  0  0  0
   19.6722  -24.6992  -13.3780 C   0  0  2  0  0  0  0  0  0  0  0  0
   20.2351  -23.4727  -12.8564 N   0  0  0  0  0  0  0  0  0  0  0  0
   18.8980  -25.3420  -12.2705 C   0  0  0  0  0  0  0  0  0  0  0  0
   18.2326  -26.3750  -12.4928 O   0  0  0  0  0  0  0  0  0  0  0  0
   25.2128  -27.4935  -16.0718 N   0  0  0  0  0  0  0  0  0  0  0  0
   18.9013  -24.7986  -10.9529 C   0  0  1  0  0  0  0  0  0  0  0  0
   18.0965  -25.3299   -9.8947 C   0  0  0  0  0  0  0  0  0  0  0  0
   18.7722  -25.4177   -8.5822 C   0  0  0  0  0  0  0  0  0  0  0  0
   17.8982  -25.9646   -7.5005 C   0  0  0  0  0  0  0  0  0  0  0  0
   18.7603  -26.0496   -6.2365 C   0  0  0  0  0  0  0  0  0  0  0  0
   17.9662  -26.6207   -5.0677 N   0  0  0  0  0  0  0  0  0  0  0  0
   18.9170  -26.7083   -3.9590 C   0  0  0  0  0  0  0  0  0  0  0  0
   16.7912  -24.6160   -9.8495 O   0  0  0  0  0  0  0  0  0  0  0  0
   16.7572  -23.3580   -9.8588 N   0  0  0  0  0  0  0  0  0  0  0  0
   12.2394  -25.8399  -15.7473 C   0  0  0  0  0  0  0  0  0  0  0  0
   11.4695  -25.7790  -14.5335 N   0  0  0  0  0  0  0  0  0  0  0  0
   10.2786  -26.2682  -14.5090 N   0  0  0  0  0  0  0  0  0  0  0  0
   11.9867  -25.1915  -13.3504 C   0  0  0  0  0  0  0  0  0  0  0  0
   13.1590  -24.3446  -13.3648 C   0  0  0  0  0  0  0  0  0  0  0  0
   13.3938  -23.8335  -11.9706 C   0  0  0  0  0  0  0  0  0  0  0  0
   13.4199  -24.9200  -10.9345 C   0  0  2  0  0  0  0  0  0  0  0  0
   14.2881  -24.5601   -9.7809 N   0  0  0  0  0  0  0  0  0  0  0  0
   15.5473  -25.2966   -9.7950 C   0  0  0  0  0  0  0  0  0  0  0  0
   13.6695  -24.7599   -8.4626 O   0  0  0  0  0  0  0  0  0  0  0  0
   13.7310  -26.0032   -7.8234 O   0  0  0  0  0  0  0  0  0  0  0  0
  1  2  1  0
  2  3  2  0
  4  5  1  0
  4  2  1  0
  5  6  1  0
  7  8  1  0
  7  6  1  0
  8  9  1  1
 10 12  1  0
 10  8  1  0
 11 10  2  0
 13 19  1  0
 13 12  1  0
 13 14  1  6
 14 15  1  0
 16 15  1  0
 17 16  1  0
 18 17  1  0
 19 20  2  0
 22 23  2  0
 22 21  1  0
 24 22  1  0
 25 24  1  0
 26 25  1  0
 27 26  1  0
 28 27  1  6
 29 28  1  0
 29 19  1  0
 30 31  1  0
 30 28  1  0
 32 30  2  0
M  END
$$$$
