RKR.pdb
     RDKit          3D

 32 31  0  0  1  0  0  0  0  0999 V2000
   15.5338  -20.7824  -10.5398 N   0  0  0  0  0  0  0  0  0  0  0  0
   16.9071  -20.5753  -10.8583 C   0  0  0  0  0  0  0  0  0  0  0  0
   17.3654  -19.3892  -11.0987 N   0  0  0  0  0  0  0  0  0  0  0  0
   17.8302  -21.6555  -10.9240 N   0  0  0  0  0  0  0  0  0  0  0  0
   17.3690  -23.0296  -10.9119 C   0  0  0  0  0  0  0  0  0  0  0  0
   18.5813  -23.9250  -11.0036 C   0  0  0  0  0  0  0  0  0  0  0  0
   19.2505  -24.0885   -9.6520 C   0  0  0  0  0  0  0  0  0  0  0  0
   19.2927  -25.5272   -9.2205 C   0  0  2  0  0  0  0  0  0  0  0  0
   18.9754  -26.4523  -10.2867 N   0  0  0  0  0  0  0  0  0  0  0  0
   18.2694  -25.7164   -8.1453 C   0  0  0  0  0  0  0  0  0  0  0  0
   17.0810  -25.9494   -8.4496 O   0  0  0  0  0  0  0  0  0  0  0  0
   18.3674  -19.2847  -11.3367 N   0  0  0  0  0  0  0  0  0  0  0  0
   18.6214  -25.6370   -6.7665 C   0  0  2  0  0  0  0  0  0  0  0  0
   17.6996  -25.9403   -5.7137 C   0  0  0  0  0  0  0  0  0  0  0  0
   18.3111  -26.5187   -4.4979 C   0  0  0  0  0  0  0  0  0  0  0  0
   17.3292  -26.7609   -3.3978 C   0  0  0  0  0  0  0  0  0  0  0  0
   18.1057  -27.4101   -2.2473 C   0  0  0  0  0  0  0  0  0  0  0  0
   17.1824  -27.7454   -1.0820 N   0  0  0  0  0  0  0  0  0  0  0  0
   18.0624  -28.2240   -0.0155 C   0  0  0  0  0  0  0  0  0  0  0  0
   16.8370  -24.7574   -5.4453 O   0  0  0  0  0  0  0  0  0  0  0  0
   17.3565  -23.6436   -5.1746 N   0  0  0  0  0  0  0  0  0  0  0  0
   11.1749  -22.6355  -10.6160 C   0  0  0  0  0  0  0  0  0  0  0  0
   11.5518  -23.8518   -9.9465 N   0  0  0  0  0  0  0  0  0  0  0  0
   10.9867  -24.9614  -10.2746 N   0  0  0  0  0  0  0  0  0  0  0  0
   12.5372  -23.8675   -8.9260 C   0  0  0  0  0  0  0  0  0  0  0  0
   13.3569  -22.7121   -8.6347 C   0  0  0  0  0  0  0  0  0  0  0  0
   14.3105  -23.0719   -7.5296 C   0  0  0  0  0  0  0  0  0  0  0  0
   13.6301  -23.3293   -6.2161 C   0  0  2  0  0  0  0  0  0  0  0  0
   14.6087  -23.6543   -5.1432 N   0  0  0  0  0  0  0  0  0  0  0  0
   15.4197  -24.8195   -5.4791 C   0  0  0  0  0  0  0  0  0  0  0  0
   14.0120  -23.8923   -3.8213 O   0  0  0  0  0  0  0  0  0  0  0  0
   13.6154  -22.8223   -3.0112 O   0  0  0  0  0  0  0  0  0  0  0  0
  1  2  1  0
  2  3  2  0
  4  5  1  0
  4  2  1  0
  5  6  1  0
  7  8  1  0
  7  6  1  0
  8  9  1  6
 10 12  1  0
 10  8  1  0
 11 10  2  0
 13 19  1  0
 13 12  1  0
 13 14  1  1
 14 15  1  0
 16 15  1  0
 17 16  1  0
 18 17  1  0
 19 20  2  0
 22 23  2  0
 22 21  1  0
 24 22  1  0
 25 24  1  0
 26 25  1  0
 27 26  1  0
 28 27  1  6
 29 28  1  0
 29 19  1  0
 30 31  1  0
 30 28  1  0
 32 30  2  0
M  END
$$$$
