RKR.pdb
     RDKit          3D

 32 31  0  0  1  0  0  0  0  0999 V2000
   37.1470   -8.3147  -15.9780 N   0  0  0  0  0  0  0  0  0  0  0  0
   37.1480   -6.9023  -15.7899 C   0  0  0  0  0  0  0  0  0  0  0  0
   38.2300   -6.2091  -15.9424 N   0  0  0  0  0  0  0  0  0  0  0  0
   35.9672   -6.1954  -15.4304 N   0  0  0  0  0  0  0  0  0  0  0  0
   34.7154   -6.8958  -15.2223 C   0  0  0  0  0  0  0  0  0  0  0  0
   33.7456   -6.4348  -16.2837 C   0  0  0  0  0  0  0  0  0  0  0  0
   32.3864   -7.0857  -16.1099 C   0  0  0  0  0  0  0  0  0  0  0  0
   32.3760   -8.5003  -16.6165 C   0  0  2  0  0  0  0  0  0  0  0  0
   33.3204   -8.7295  -17.6883 N   0  0  0  0  0  0  0  0  0  0  0  0
   31.0099   -8.7870  -17.1556 C   0  0  0  0  0  0  0  0  0  0  0  0
   30.0015   -8.5426  -16.4610 O   0  0  0  0  0  0  0  0  0  0  0  0
   38.1977   -5.1925  -15.7495 N   0  0  0  0  0  0  0  0  0  0  0  0
   30.8288   -9.3380  -18.4575 C   0  0  1  0  0  0  0  0  0  0  0  0
   29.5368   -9.6267  -19.0028 C   0  0  0  0  0  0  0  0  0  0  0  0
   29.1106   -8.7334  -20.1014 C   0  0  0  0  0  0  0  0  0  0  0  0
   27.7158   -8.9935  -20.5703 C   0  0  0  0  0  0  0  0  0  0  0  0
   27.4021   -7.9350  -21.6330 C   0  0  0  0  0  0  0  0  0  0  0  0
   26.5886   -6.7891  -21.0432 N   0  0  0  0  0  0  0  0  0  0  0  0
   26.3175   -5.8890  -22.1645 C   0  0  0  0  0  0  0  0  0  0  0  0
   29.4453  -11.0739  -19.3383 O   0  0  0  0  0  0  0  0  0  0  0  0
   30.2979  -11.6026  -20.0982 N   0  0  0  0  0  0  0  0  0  0  0  0
   22.6440  -16.7119  -20.8847 C   0  0  0  0  0  0  0  0  0  0  0  0
   23.9118  -17.3199  -21.1893 N   0  0  0  0  0  0  0  0  0  0  0  0
   23.9453  -18.4429  -21.8185 N   0  0  0  0  0  0  0  0  0  0  0  0
   25.1390  -16.7144  -20.8151 C   0  0  0  0  0  0  0  0  0  0  0  0
   25.1893  -15.4255  -20.1610 C   0  0  0  0  0  0  0  0  0  0  0  0
   26.6295  -15.0159  -20.0271 C   0  0  0  0  0  0  0  0  0  0  0  0
   26.8068  -13.6462  -19.4378 C   0  0  1  0  0  0  0  0  0  0  0  0
   28.2434  -13.2714  -19.3379 N   0  0  0  0  0  0  0  0  0  0  0  0
   28.4193  -11.9140  -18.8331 C   0  0  0  0  0  0  0  0  0  0  0  0
   28.9937  -13.3797  -20.5971 O   0  0  0  0  0  0  0  0  0  0  0  0
   30.1656  -14.1412  -20.6694 O   0  0  0  0  0  0  0  0  0  0  0  0
  1  2  1  0
  2  3  2  0
  4  5  1  0
  4  2  1  0
  5  6  1  0
  7  8  1  0
  7  6  1  0
  8  9  1  6
 10 12  1  0
 10  8  1  0
 11 10  2  0
 13 19  1  0
 13 12  1  0
 13 14  1  1
 14 15  1  0
 16 15  1  0
 17 16  1  0
 18 17  1  0
 19 20  2  0
 22 23  2  0
 22 21  1  0
 24 22  1  0
 25 24  1  0
 26 25  1  0
 27 26  1  0
 28 27  1  1
 29 28  1  0
 29 19  1  0
 30 31  1  0
 30 28  1  0
 32 30  2  0
M  END
$$$$
