RKR.pdb
     RDKit          3D

 32 31  0  0  1  0  0  0  0  0999 V2000
   44.5304  -18.4972   -7.6828 N   0  0  0  0  0  0  0  0  0  0  0  0
   43.5951  -17.7056   -6.9555 C   0  0  0  0  0  0  0  0  0  0  0  0
   43.3764  -17.9177   -5.6978 N   0  0  0  0  0  0  0  0  0  0  0  0
   42.8661  -16.6528   -7.5745 N   0  0  0  0  0  0  0  0  0  0  0  0
   43.1969  -16.2062   -8.9132 C   0  0  0  0  0  0  0  0  0  0  0  0
   42.2795  -15.0575   -9.2573 C   0  0  0  0  0  0  0  0  0  0  0  0
   42.9965  -13.7253   -9.1443 C   0  0  0  0  0  0  0  0  0  0  0  0
   42.1008  -12.6548   -8.5878 C   0  0  2  0  0  0  0  0  0  0  0  0
   41.2894  -12.0086   -9.5964 N   0  0  0  0  0  0  0  0  0  0  0  0
   42.9678  -11.6031   -7.9704 C   0  0  0  0  0  0  0  0  0  0  0  0
   43.6812  -10.8786   -8.6952 O   0  0  0  0  0  0  0  0  0  0  0  0
   42.7088  -17.3020   -5.2009 N   0  0  0  0  0  0  0  0  0  0  0  0
   42.9996  -11.4049   -6.5593 C   0  0  2  0  0  0  0  0  0  0  0  0
   43.9058  -10.4952   -5.9259 C   0  0  0  0  0  0  0  0  0  0  0  0
   43.4222   -9.9203   -4.6521 C   0  0  0  0  0  0  0  0  0  0  0  0
   44.3862   -8.9632   -4.0296 C   0  0  0  0  0  0  0  0  0  0  0  0
   43.7599   -8.5010   -2.7096 C   0  0  0  0  0  0  0  0  0  0  0  0
   44.6025   -7.4139   -2.0530 N   0  0  0  0  0  0  0  0  0  0  0  0
   43.8790   -7.0448   -0.8359 C   0  0  0  0  0  0  0  0  0  0  0  0
   45.2548  -11.1165   -5.8283 O   0  0  0  0  0  0  0  0  0  0  0  0
   45.3730  -12.3232   -5.4910 N   0  0  0  0  0  0  0  0  0  0  0  0
   52.3363  -12.0645  -10.9309 C   0  0  0  0  0  0  0  0  0  0  0  0
   52.3264  -12.9331   -9.7841 N   0  0  0  0  0  0  0  0  0  0  0  0
   53.0991  -13.9629   -9.7578 N   0  0  0  0  0  0  0  0  0  0  0  0
   51.4840  -12.6878   -8.6693 C   0  0  0  0  0  0  0  0  0  0  0  0
   50.4901  -11.6372   -8.6766 C   0  0  0  0  0  0  0  0  0  0  0  0
   49.7889  -11.6365   -7.3467 C   0  0  0  0  0  0  0  0  0  0  0  0
   48.3843  -11.1101   -7.4144 C   0  0  1  0  0  0  0  0  0  0  0  0
   47.7472  -11.0663   -6.0704 N   0  0  0  0  0  0  0  0  0  0  0  0
   46.4492  -10.4013   -6.1032 C   0  0  0  0  0  0  0  0  0  0  0  0
   48.5558  -10.4149   -5.0301 O   0  0  0  0  0  0  0  0  0  0  0  0
   49.4503  -11.1556   -4.2494 O   0  0  0  0  0  0  0  0  0  0  0  0
  1  2  1  0
  2  3  2  0
  4  5  1  0
  4  2  1  0
  5  6  1  0
  7  8  1  0
  7  6  1  0
  8  9  1  6
 10 12  1  0
 10  8  1  0
 11 10  2  0
 13 19  1  0
 13 12  1  0
 13 14  1  1
 14 15  1  0
 16 15  1  0
 17 16  1  0
 18 17  1  0
 19 20  2  0
 22 23  2  0
 22 21  1  0
 24 22  1  0
 25 24  1  0
 26 25  1  0
 27 26  1  0
 28 27  1  6
 29 28  1  0
 29 19  1  0
 30 31  1  0
 30 28  1  0
 32 30  2  0
M  END
$$$$
