RKR.pdb
     RDKit          3D

 32 31  0  0  1  0  0  0  0  0999 V2000
   30.0422  -25.4774  -16.8022 N   0  0  0  0  0  0  0  0  0  0  0  0
   28.7187  -26.0053  -16.7905 C   0  0  0  0  0  0  0  0  0  0  0  0
   28.4614  -27.1506  -16.2458 N   0  0  0  0  0  0  0  0  0  0  0  0
   27.6280  -25.3010  -17.3714 N   0  0  0  0  0  0  0  0  0  0  0  0
   27.8245  -24.0050  -17.9900 C   0  0  0  0  0  0  0  0  0  0  0  0
   27.9699  -22.9837  -16.8876 C   0  0  0  0  0  0  0  0  0  0  0  0
   26.6726  -22.8110  -16.1204 C   0  0  0  0  0  0  0  0  0  0  0  0
   26.7457  -21.6652  -15.1510 C   0  0  2  0  0  0  0  0  0  0  0  0
   27.9003  -21.7263  -14.2813 N   0  0  0  0  0  0  0  0  0  0  0  0
   25.5285  -21.7180  -14.2822 C   0  0  0  0  0  0  0  0  0  0  0  0
   24.7386  -22.6807  -14.3733 O   0  0  0  0  0  0  0  0  0  0  0  0
   27.4849  -27.4943  -16.2542 N   0  0  0  0  0  0  0  0  0  0  0  0
   25.2453  -20.6851  -13.3418 C   0  0  1  0  0  0  0  0  0  0  0  0
   24.0924  -20.7061  -12.4931 C   0  0  0  0  0  0  0  0  0  0  0  0
   24.1458  -19.7734  -11.3467 C   0  0  0  0  0  0  0  0  0  0  0  0
   22.8826  -19.7408  -10.5492 C   0  0  0  0  0  0  0  0  0  0  0  0
   23.1072  -20.6399   -9.3287 C   0  0  0  0  0  0  0  0  0  0  0  0
   21.8696  -20.6786   -8.4401 N   0  0  0  0  0  0  0  0  0  0  0  0
   22.2454  -21.4980   -7.2876 C   0  0  0  0  0  0  0  0  0  0  0  0
   22.8599  -20.5723  -13.3167 O   0  0  0  0  0  0  0  0  0  0  0  0
   22.7577  -19.6403  -14.1562 N   0  0  0  0  0  0  0  0  0  0  0  0
   17.6274  -26.1669  -17.1448 C   0  0  0  0  0  0  0  0  0  0  0  0
   18.9450  -25.5960  -17.0582 N   0  0  0  0  0  0  0  0  0  0  0  0
   19.9460  -26.2222  -17.5721 N   0  0  0  0  0  0  0  0  0  0  0  0
   19.1786  -24.3515  -16.4185 C   0  0  0  0  0  0  0  0  0  0  0  0
   18.1155  -23.6058  -15.7818 C   0  0  0  0  0  0  0  0  0  0  0  0
   18.6940  -22.3362  -15.2221 C   0  0  0  0  0  0  0  0  0  0  0  0
   19.9909  -22.5429  -14.4940 C   0  0  1  0  0  0  0  0  0  0  0  0
   20.5453  -21.2607  -13.9815 N   0  0  0  0  0  0  0  0  0  0  0  0
   21.7623  -21.4646  -13.2035 C   0  0  0  0  0  0  0  0  0  0  0  0
   19.6147  -20.4770  -13.1567 O   0  0  0  0  0  0  0  0  0  0  0  0
   19.7861  -20.3889  -11.7706 O   0  0  0  0  0  0  0  0  0  0  0  0
  1  2  1  0
  2  3  2  0
  4  5  1  0
  4  2  1  0
  5  6  1  0
  7  8  1  0
  7  6  1  0
  8  9  1  1
 10 12  1  0
 10  8  1  0
 11 10  2  0
 13 19  1  0
 13 12  1  0
 13 14  1  6
 14 15  1  0
 16 15  1  0
 17 16  1  0
 18 17  1  0
 19 20  2  0
 22 23  2  0
 22 21  1  0
 24 22  1  0
 25 24  1  0
 26 25  1  0
 27 26  1  0
 28 27  1  6
 29 28  1  0
 29 19  1  0
 30 31  1  0
 30 28  1  0
 32 30  2  0
M  END
$$$$
