RKR.pdb
     RDKit          3D

 32 31  0  0  1  0  0  0  0  0999 V2000
   29.3649  -20.1736   -4.7506 N   0  0  0  0  0  0  0  0  0  0  0  0
   28.9369  -18.9579   -5.3582 C   0  0  0  0  0  0  0  0  0  0  0  0
   29.7183  -17.9278   -5.4136 N   0  0  0  0  0  0  0  0  0  0  0  0
   27.6411  -18.8235   -5.9291 N   0  0  0  0  0  0  0  0  0  0  0  0
   26.7959  -19.9826   -6.1364 C   0  0  0  0  0  0  0  0  0  0  0  0
   27.1585  -20.5863   -7.4719 C   0  0  0  0  0  0  0  0  0  0  0  0
   26.7972  -19.6563   -8.6147 C   0  0  0  0  0  0  0  0  0  0  0  0
   25.4662  -20.0049   -9.2186 C   0  0  2  0  0  0  0  0  0  0  0  0
   24.8936  -21.2178   -8.6762 N   0  0  0  0  0  0  0  0  0  0  0  0
   25.6682  -20.2230  -10.6851 C   0  0  0  0  0  0  0  0  0  0  0  0
   26.3738  -19.4294  -11.3422 O   0  0  0  0  0  0  0  0  0  0  0  0
   29.3342  -17.0338   -5.7671 N   0  0  0  0  0  0  0  0  0  0  0  0
   25.0689  -21.3269  -11.3585 C   0  0  1  0  0  0  0  0  0  0  0  0
   25.1023  -21.4758  -12.7822 C   0  0  0  0  0  0  0  0  0  0  0  0
   25.3465  -22.8542  -13.2587 C   0  0  0  0  0  0  0  0  0  0  0  0
   25.4158  -22.9636  -14.7474 C   0  0  0  0  0  0  0  0  0  0  0  0
   25.6131  -24.4481  -15.0727 C   0  0  0  0  0  0  0  0  0  0  0  0
   25.6873  -24.6751  -16.5779 N   0  0  0  0  0  0  0  0  0  0  0  0
   25.9763  -26.1002  -16.7411 C   0  0  0  0  0  0  0  0  0  0  0  0
   23.8978  -20.8396  -13.3820 O   0  0  0  0  0  0  0  0  0  0  0  0
   22.7657  -21.0090  -12.8591 N   0  0  0  0  0  0  0  0  0  0  0  0
   22.3239  -13.5505  -18.5542 C   0  0  0  0  0  0  0  0  0  0  0  0
   21.1060  -14.1389  -18.0641 N   0  0  0  0  0  0  0  0  0  0  0  0
   19.9807  -13.5539  -18.2872 N   0  0  0  0  0  0  0  0  0  0  0  0
   21.1056  -15.3563  -17.3358 C   0  0  0  0  0  0  0  0  0  0  0  0
   22.3299  -16.0521  -17.0059 C   0  0  0  0  0  0  0  0  0  0  0  0
   21.9797  -17.2832  -16.2173 C   0  0  0  0  0  0  0  0  0  0  0  0
   23.1784  -18.0913  -15.8112 C   0  0  2  0  0  0  0  0  0  0  0  0
   22.7937  -19.2766  -14.9980 N   0  0  0  0  0  0  0  0  0  0  0  0
   23.9587  -20.0289  -14.5451 C   0  0  0  0  0  0  0  0  0  0  0  0
   21.8910  -20.2178  -15.6759 O   0  0  0  0  0  0  0  0  0  0  0  0
   20.5102  -20.1727  -15.4528 O   0  0  0  0  0  0  0  0  0  0  0  0
  1  2  1  0
  2  3  2  0
  4  5  1  0
  4  2  1  0
  5  6  1  0
  7  8  1  0
  7  6  1  0
  8  9  1  1
 10 12  1  0
 10  8  1  0
 11 10  2  0
 13 19  1  0
 13 12  1  0
 13 14  1  6
 14 15  1  0
 16 15  1  0
 17 16  1  0
 18 17  1  0
 19 20  2  0
 22 23  2  0
 22 21  1  0
 24 22  1  0
 25 24  1  0
 26 25  1  0
 27 26  1  0
 28 27  1  1
 29 28  1  0
 29 19  1  0
 30 31  1  0
 30 28  1  0
 32 30  2  0
M  END
$$$$
