APT.pdb
     RDKit          3D

 20 20  0  0  1  0  0  0  0  0999 V2000
   21.8191  -22.4197  -13.9384 C   0  0  0  0  0  0  0  0  0  0  0  0
   21.9546  -21.3871  -12.8127 C   0  0  2  0  0  0  0  0  0  0  0  0
   20.7049  -20.7390  -12.6867 N   0  0  0  0  0  0  0  0  0  0  0  0
   23.1211  -20.5756  -13.1188 C   0  0  0  0  0  0  0  0  0  0  0  0
   22.8628  -19.3969  -13.5645 O   0  0  0  0  0  0  0  0  0  0  0  0
   24.4855  -20.9141  -12.9907 N   0  0  0  0  0  0  0  0  0  0  0  0
   25.0136  -22.1899  -12.5925 C   0  0  0  0  0  0  0  0  0  0  0  0
   26.2908  -21.8629  -11.8045 C   0  0  0  0  0  0  0  0  0  0  0  0
   26.8032  -20.6332  -12.5124 C   0  0  0  0  0  0  0  0  0  0  0  0
   25.6240  -20.0569  -13.2410 C   0  0  1  0  0  0  0  0  0  0  0  0
   25.8603  -19.9700  -14.7189 C   0  0  0  0  0  0  0  0  0  0  0  0
   25.8749  -21.0335  -15.4139 O   0  0  0  0  0  0  0  0  0  0  0  0
   24.1063  -17.3683  -17.0671 C   0  0  0  0  0  0  0  0  0  0  0  0
   25.6278  -17.2935  -17.2200 C   0  0  1  0  0  0  0  0  0  0  0  0
   26.1632  -16.2767  -16.4599 O   0  0  0  0  0  0  0  0  0  0  0  0
   26.1593  -18.6527  -16.8384 C   0  0  2  0  0  0  0  0  0  0  0  0
   26.0686  -18.7463  -15.3739 N   0  0  0  0  0  0  0  0  0  0  0  0
   27.5948  -18.6948  -17.2133 C   0  0  0  0  0  0  0  0  0  0  0  0
   27.9931  -18.7879  -18.5322 O   0  0  0  0  0  0  0  0  0  0  0  0
   28.4868  -18.6463  -16.3331 O   0  0  0  0  0  0  0  0  0  0  0  0
  2  1  1  6
  2  4  1  0
  2  3  1  0
  4  5  2  0
  6  4  1  0
  7  6  1  0
  8  9  1  0
  8  7  1  0
  9 10  1  0
 10  6  1  0
 10 11  1  6
 11 12  2  0
 11 17  1  0
 14 13  1  1
 14 16  1  0
 15 14  1  0
 16 18  1  0
 16 17  1  1
 18 20  2  0
 18 19  1  0
M  END
$$$$
