APT.pdb
     RDKit          3D

 20 20  0  0  1  0  0  0  0  0999 V2000
   16.7812   -9.5462  -16.3681 C   0  0  0  0  0  0  0  0  0  0  0  0
   17.7695  -10.5611  -15.7805 C   0  0  2  0  0  0  0  0  0  0  0  0
   17.0952  -11.2523  -14.7483 N   0  0  0  0  0  0  0  0  0  0  0  0
   18.9784   -9.8289  -15.4408 C   0  0  0  0  0  0  0  0  0  0  0  0
   19.0657   -9.4628  -14.2107 O   0  0  0  0  0  0  0  0  0  0  0  0
   20.0557   -9.4729  -16.2805 N   0  0  0  0  0  0  0  0  0  0  0  0
   20.1545   -9.7221  -17.6924 C   0  0  0  0  0  0  0  0  0  0  0  0
   21.6478   -9.9753  -17.9476 C   0  0  0  0  0  0  0  0  0  0  0  0
   22.3081   -9.0638  -16.9431 C   0  0  0  0  0  0  0  0  0  0  0  0
   21.2677   -8.7811  -15.8985 C   0  0  1  0  0  0  0  0  0  0  0  0
   20.9793   -7.3154  -15.7704 C   0  0  0  0  0  0  0  0  0  0  0  0
   20.1596   -6.7666  -16.5711 O   0  0  0  0  0  0  0  0  0  0  0  0
   20.0980   -5.5779  -12.5414 C   0  0  0  0  0  0  0  0  0  0  0  0
   21.2736   -4.8068  -13.1475 C   0  0  1  0  0  0  0  0  0  0  0  0
   22.4672   -5.1556  -12.5541 O   0  0  0  0  0  0  0  0  0  0  0  0
   21.2497   -5.0929  -14.6284 C   0  0  2  0  0  0  0  0  0  0  0  0
   21.5856   -6.5152  -14.7897 N   0  0  0  0  0  0  0  0  0  0  0  0
   22.3289   -4.2918  -15.2579 C   0  0  0  0  0  0  0  0  0  0  0  0
   23.4472   -4.8909  -15.8031 O   0  0  0  0  0  0  0  0  0  0  0  0
   22.2493   -3.0413  -15.3095 O   0  0  0  0  0  0  0  0  0  0  0  0
  2  1  1  1
  2  4  1  0
  2  3  1  0
  4  5  2  0
  6  4  1  0
  7  6  1  0
  8  9  1  0
  8  7  1  0
  9 10  1  0
 10  6  1  0
 10 11  1  6
 11 12  2  0
 11 17  1  0
 14 13  1  1
 14 16  1  0
 15 14  1  0
 16 18  1  0
 16 17  1  1
 18 20  2  0
 18 19  1  0
M  END
$$$$
