APT.pdb
     RDKit          3D

 20 20  0  0  1  0  0  0  0  0999 V2000
   21.7178  -13.7311  -19.6949 C   0  0  0  0  0  0  0  0  0  0  0  0
   21.6436  -14.4747  -18.3557 C   0  0  2  0  0  0  0  0  0  0  0  0
   20.5478  -15.3642  -18.4311 N   0  0  0  0  0  0  0  0  0  0  0  0
   21.6382  -13.4657  -17.3093 C   0  0  0  0  0  0  0  0  0  0  0  0
   20.4719  -13.0533  -16.9566 O   0  0  0  0  0  0  0  0  0  0  0  0
   22.7383  -12.8878  -16.6397 N   0  0  0  0  0  0  0  0  0  0  0  0
   24.1242  -13.0402  -16.9879 C   0  0  0  0  0  0  0  0  0  0  0  0
   24.8747  -13.0230  -15.6480 C   0  0  0  0  0  0  0  0  0  0  0  0
   24.0466  -12.0684  -14.8241 C   0  0  0  0  0  0  0  0  0  0  0  0
   22.6975  -12.0225  -15.4809 C   0  0  1  0  0  0  0  0  0  0  0  0
   22.3266  -10.6358  -15.9137 C   0  0  0  0  0  0  0  0  0  0  0  0
   22.8644  -10.1397  -16.9525 O   0  0  0  0  0  0  0  0  0  0  0  0
   19.1471   -7.0980  -16.2907 C   0  0  0  0  0  0  0  0  0  0  0  0
   19.5592   -8.5414  -15.9894 C   0  0  1  0  0  0  0  0  0  0  0  0
   19.2783   -9.3790  -17.0467 O   0  0  0  0  0  0  0  0  0  0  0  0
   21.0280   -8.5003  -15.6484 C   0  0  2  0  0  0  0  0  0  0  0  0
   21.3982   -9.8539  -15.2093 N   0  0  0  0  0  0  0  0  0  0  0  0
   21.1956   -7.5815  -14.4950 C   0  0  0  0  0  0  0  0  0  0  0  0
   21.5215   -6.2516  -14.6740 O   0  0  0  0  0  0  0  0  0  0  0  0
   21.0437   -7.9953  -13.3209 O   0  0  0  0  0  0  0  0  0  0  0  0
  2  1  1  6
  2  4  1  0
  2  3  1  0
  4  5  2  0
  6  4  1  0
  7  6  1  0
  8  9  1  0
  8  7  1  0
  9 10  1  0
 10  6  1  0
 10 11  1  6
 11 12  2  0
 11 17  1  0
 14 13  1  6
 14 16  1  0
 15 14  1  0
 16 18  1  0
 16 17  1  1
 18 20  2  0
 18 19  1  0
M  END
$$$$
