APT.pdb
     RDKit          3D

 20 20  0  0  1  0  0  0  0  0999 V2000
   16.8977  -13.6509  -15.9449 C   0  0  0  0  0  0  0  0  0  0  0  0
   17.7365  -13.7771  -17.2226 C   0  0  2  0  0  0  0  0  0  0  0  0
   18.3622  -15.0441  -17.1889 N   0  0  0  0  0  0  0  0  0  0  0  0
   18.5808  -12.5961  -17.2948 C   0  0  0  0  0  0  0  0  0  0  0  0
   19.8226  -12.7971  -17.0262 O   0  0  0  0  0  0  0  0  0  0  0  0
   18.2141  -11.2719  -17.6182 N   0  0  0  0  0  0  0  0  0  0  0  0
   16.8779  -10.7818  -17.8173 C   0  0  0  0  0  0  0  0  0  0  0  0
   17.0083   -9.7019  -18.9017 C   0  0  0  0  0  0  0  0  0  0  0  0
   18.3645   -9.1096  -18.6089 C   0  0  0  0  0  0  0  0  0  0  0  0
   19.0992  -10.1426  -17.8047 C   0  0  1  0  0  0  0  0  0  0  0  0
   19.5211   -9.6201  -16.4642 C   0  0  0  0  0  0  0  0  0  0  0  0
   18.7470   -9.7596  -15.4663 O   0  0  0  0  0  0  0  0  0  0  0  0
   22.7643  -10.4194  -14.7421 C   0  0  0  0  0  0  0  0  0  0  0  0
   22.6746   -8.8946  -14.8475 C   0  0  1  0  0  0  0  0  0  0  0  0
   23.3920   -8.4188  -15.9233 O   0  0  0  0  0  0  0  0  0  0  0  0
   21.2058   -8.5611  -14.9289 C   0  0  2  0  0  0  0  0  0  0  0  0
   20.7515   -8.9753  -16.2646 N   0  0  0  0  0  0  0  0  0  0  0  0
   21.0746   -7.0857  -14.8363 C   0  0  0  0  0  0  0  0  0  0  0  0
   21.3126   -6.4134  -13.6538 O   0  0  0  0  0  0  0  0  0  0  0  0
   20.7417   -6.4095  -15.8387 O   0  0  0  0  0  0  0  0  0  0  0  0
  2  1  1  1
  2  4  1  0
  2  3  1  0
  4  5  2  0
  6  4  1  0
  7  6  1  0
  8  9  1  0
  8  7  1  0
  9 10  1  0
 10  6  1  0
 10 11  1  1
 11 12  2  0
 11 17  1  0
 14 13  1  6
 14 16  1  0
 15 14  1  0
 16 18  1  0
 16 17  1  6
 18 20  2  0
 18 19  1  0
M  END
$$$$
