APT.pdb
     RDKit          3D

 20 20  0  0  1  0  0  0  0  0999 V2000
   20.0365  -10.5691  -18.5790 C   0  0  0  0  0  0  0  0  0  0  0  0
   19.7839  -11.2367  -17.2217 C   0  0  2  0  0  0  0  0  0  0  0  0
   18.4588  -11.7282  -17.2373 N   0  0  0  0  0  0  0  0  0  0  0  0
   20.1455  -10.2694  -16.1987 C   0  0  0  0  0  0  0  0  0  0  0  0
   19.2454   -9.3874  -15.9408 O   0  0  0  0  0  0  0  0  0  0  0  0
   21.3458  -10.1766  -15.4616 N   0  0  0  0  0  0  0  0  0  0  0  0
   22.5609  -10.9002  -15.7167 C   0  0  0  0  0  0  0  0  0  0  0  0
   23.1726  -11.1508  -14.3303 C   0  0  0  0  0  0  0  0  0  0  0  0
   22.7695   -9.9125  -13.5689 C   0  0  0  0  0  0  0  0  0  0  0  0
   21.6013   -9.3342  -14.3134 C   0  0  1  0  0  0  0  0  0  0  0  0
   21.8649   -7.9335  -14.7784 C   0  0  0  0  0  0  0  0  0  0  0  0
   22.5470   -7.7422  -15.8331 O   0  0  0  0  0  0  0  0  0  0  0  0
   19.6276   -5.4290  -15.9704 C   0  0  0  0  0  0  0  0  0  0  0  0
   20.2589   -4.8004  -14.7253 C   0  0  1  0  0  0  0  0  0  0  0  0
   19.4586   -4.9627  -13.6156 O   0  0  0  0  0  0  0  0  0  0  0  0
   21.6154   -5.4414  -14.5685 C   0  0  2  0  0  0  0  0  0  0  0  0
   21.3828   -6.8112  -14.0874 N   0  0  0  0  0  0  0  0  0  0  0  0
   22.3426   -4.6996  -13.5084 C   0  0  0  0  0  0  0  0  0  0  0  0
   22.8369   -3.4289  -13.7272 O   0  0  0  0  0  0  0  0  0  0  0  0
   22.5264   -5.2143  -12.3797 O   0  0  0  0  0  0  0  0  0  0  0  0
  2  1  1  6
  2  4  1  0
  2  3  1  0
  4  5  2  0
  6  4  1  0
  7  6  1  0
  8  9  1  0
  8  7  1  0
  9 10  1  0
 10  6  1  0
 10 11  1  6
 11 12  2  0
 11 17  1  0
 14 13  1  6
 14 16  1  0
 15 14  1  0
 16 18  1  0
 16 17  1  1
 18 20  2  0
 18 19  1  0
M  END
$$$$
