APT.pdb
     RDKit          3D

 20 20  0  0  1  0  0  0  0  0999 V2000
   27.5648  -18.2954  -14.6248 C   0  0  0  0  0  0  0  0  0  0  0  0
   27.8899  -19.7869  -14.4769 C   0  0  2  0  0  0  0  0  0  0  0  0
   28.4618  -20.2134  -15.6971 N   0  0  0  0  0  0  0  0  0  0  0  0
   26.6756  -20.4432  -14.0213 C   0  0  0  0  0  0  0  0  0  0  0  0
   26.0007  -21.0387  -14.9403 O   0  0  0  0  0  0  0  0  0  0  0  0
   26.1495  -20.5083  -12.7130 N   0  0  0  0  0  0  0  0  0  0  0  0
   26.6188  -19.7776  -11.5681 C   0  0  0  0  0  0  0  0  0  0  0  0
   26.4033  -20.7235  -10.3773 C   0  0  0  0  0  0  0  0  0  0  0  0
   25.1481  -21.4615  -10.7718 C   0  0  0  0  0  0  0  0  0  0  0  0
   25.0329  -21.3098  -12.2609 C   0  0  1  0  0  0  0  0  0  0  0  0
   23.7521  -20.6426  -12.6635 C   0  0  0  0  0  0  0  0  0  0  0  0
   23.6311  -19.3854  -12.5256 O   0  0  0  0  0  0  0  0  0  0  0  0
   21.2500  -22.7587  -14.9683 C   0  0  0  0  0  0  0  0  0  0  0  0
   21.2320  -21.2334  -15.0998 C   0  0  1  0  0  0  0  0  0  0  0  0
   20.0534  -20.7875  -15.6569 O   0  0  0  0  0  0  0  0  0  0  0  0
   21.4694  -20.6859  -13.7144 C   0  0  2  0  0  0  0  0  0  0  0  0
   22.6680  -21.3594  -13.1932 N   0  0  0  0  0  0  0  0  0  0  0  0
   20.3153  -21.0841  -12.8705 C   0  0  0  0  0  0  0  0  0  0  0  0
   19.0857  -20.4677  -12.9932 O   0  0  0  0  0  0  0  0  0  0  0  0
   20.4313  -21.9975  -12.0190 O   0  0  0  0  0  0  0  0  0  0  0  0
  2  1  1  6
  2  4  1  0
  2  3  1  0
  4  5  2  0
  6  4  1  0
  7  6  1  0
  8  9  1  0
  8  7  1  0
  9 10  1  0
 10  6  1  0
 10 11  1  1
 11 12  2  0
 11 17  1  0
 14 13  1  1
 14 16  1  0
 15 14  1  0
 16 18  1  0
 16 17  1  1
 18 20  2  0
 18 19  1  0
M  END
$$$$
