APT.pdb
     RDKit          3D

 20 20  0  0  1  0  0  0  0  0999 V2000
   20.9036  -10.6478  -19.1487 C   0  0  0  0  0  0  0  0  0  0  0  0
   20.6291  -11.5034  -17.9059 C   0  0  2  0  0  0  0  0  0  0  0  0
   19.3326  -12.0475  -18.0505 N   0  0  0  0  0  0  0  0  0  0  0  0
   20.8976  -10.6677  -16.7473 C   0  0  0  0  0  0  0  0  0  0  0  0
   19.8985   -9.9695  -16.3361 O   0  0  0  0  0  0  0  0  0  0  0  0
   22.1023  -10.5271  -16.0252 N   0  0  0  0  0  0  0  0  0  0  0  0
   23.3728  -11.1062  -16.3654 C   0  0  0  0  0  0  0  0  0  0  0  0
   24.0401  -11.4196  -15.0181 C   0  0  0  0  0  0  0  0  0  0  0  0
   23.5428  -10.2979  -14.1405 C   0  0  0  0  0  0  0  0  0  0  0  0
   22.3072   -9.7695  -14.8096 C   0  0  1  0  0  0  0  0  0  0  0  0
   22.4272   -8.3143  -15.1497 C   0  0  0  0  0  0  0  0  0  0  0  0
   23.1329   -7.9605  -16.1453 O   0  0  0  0  0  0  0  0  0  0  0  0
   20.0348   -6.1099  -16.3925 C   0  0  0  0  0  0  0  0  0  0  0  0
   20.4317   -5.4580  -15.0653 C   0  0  1  0  0  0  0  0  0  0  0  0
   19.5573   -5.7942  -14.0550 O   0  0  0  0  0  0  0  0  0  0  0  0
   21.8476   -5.8961  -14.7848 C   0  0  2  0  0  0  0  0  0  0  0  0
   21.7837   -7.3148  -14.4038 N   0  0  0  0  0  0  0  0  0  0  0  0
   22.3315   -5.1268  -13.6114 C   0  0  0  0  0  0  0  0  0  0  0  0
   22.6110   -3.7774  -13.6994 O   0  0  0  0  0  0  0  0  0  0  0  0
   22.4990   -5.6896  -12.5032 O   0  0  0  0  0  0  0  0  0  0  0  0
  2  1  1  6
  2  4  1  0
  2  3  1  0
  4  5  2  0
  6  4  1  0
  7  6  1  0
  8  9  1  0
  8  7  1  0
  9 10  1  0
 10  6  1  0
 10 11  1  6
 11 12  2  0
 11 17  1  0
 14 13  1  6
 14 16  1  0
 15 14  1  0
 16 18  1  0
 16 17  1  1
 18 20  2  0
 18 19  1  0
M  END
$$$$
