APT.pdb
     RDKit          3D

 20 20  0  0  1  0  0  0  0  0999 V2000
   23.3795  -32.6474  -12.3817 C   0  0  0  0  0  0  0  0  0  0  0  0
   24.4391  -33.7490  -12.2571 C   0  0  2  0  0  0  0  0  0  0  0  0
   24.1266  -34.7405  -13.2147 N   0  0  0  0  0  0  0  0  0  0  0  0
   24.4856  -34.1371  -10.8570 C   0  0  0  0  0  0  0  0  0  0  0  0
   23.6235  -35.0264  -10.5095 O   0  0  0  0  0  0  0  0  0  0  0  0
   25.3469  -33.6665   -9.8425 N   0  0  0  0  0  0  0  0  0  0  0  0
   26.2221  -32.5298   -9.9267 C   0  0  0  0  0  0  0  0  0  0  0  0
   27.4487  -32.9095   -9.0839 C   0  0  0  0  0  0  0  0  0  0  0  0
   26.8424  -33.7516   -7.9889 C   0  0  0  0  0  0  0  0  0  0  0  0
   25.5177  -34.2207   -8.5169 C   0  0  1  0  0  0  0  0  0  0  0  0
   24.3764  -33.7831   -7.6487 C   0  0  0  0  0  0  0  0  0  0  0  0
   23.8738  -32.6275   -7.8113 O   0  0  0  0  0  0  0  0  0  0  0  0
   20.9296  -35.0664   -4.3798 C   0  0  0  0  0  0  0  0  0  0  0  0
   22.0212  -35.4890   -5.3666 C   0  0  1  0  0  0  0  0  0  0  0  0
   21.5127  -36.2753   -6.3773 O   0  0  0  0  0  0  0  0  0  0  0  0
   22.6492  -34.2151   -5.8747 C   0  0  2  0  0  0  0  0  0  0  0  0
   23.8340  -34.6084   -6.6516 N   0  0  0  0  0  0  0  0  0  0  0  0
   23.1096  -33.4402   -4.6956 C   0  0  0  0  0  0  0  0  0  0  0  0
   22.2673  -32.5718   -4.0298 O   0  0  0  0  0  0  0  0  0  0  0  0
   24.2846  -33.5572   -4.2731 O   0  0  0  0  0  0  0  0  0  0  0  0
  2  1  1  1
  2  4  1  0
  2  3  1  0
  4  5  2  0
  6  4  1  0
  7  6  1  0
  8  9  1  0
  8  7  1  0
  9 10  1  0
 10  6  1  0
 10 11  1  1
 11 12  2  0
 11 17  1  0
 14 13  1  1
 14 16  1  0
 15 14  1  0
 16 18  1  0
 16 17  1  6
 18 20  2  0
 18 19  1  0
M  END
$$$$
