APT.pdb
     RDKit          3D

 20 20  0  0  1  0  0  0  0  0999 V2000
   24.7324  -16.7694  -16.7295 C   0  0  0  0  0  0  0  0  0  0  0  0
   25.3703  -18.0556  -17.2689 C   0  0  2  0  0  0  0  0  0  0  0  0
   24.6343  -18.4398  -18.4128 N   0  0  0  0  0  0  0  0  0  0  0  0
   25.4489  -18.9891  -16.1575 C   0  0  0  0  0  0  0  0  0  0  0  0
   24.3841  -19.6808  -15.9509 O   0  0  0  0  0  0  0  0  0  0  0  0
   26.5333  -19.2294  -15.2863 N   0  0  0  0  0  0  0  0  0  0  0  0
   27.7461  -18.4630  -15.2034 C   0  0  0  0  0  0  0  0  0  0  0  0
   28.8389  -19.4850  -14.8563 C   0  0  0  0  0  0  0  0  0  0  0  0
   28.0984  -20.4691  -13.9852 C   0  0  0  0  0  0  0  0  0  0  0  0
   26.6424  -20.2815  -14.2991 C   0  0  1  0  0  0  0  0  0  0  0  0
   25.8469  -19.9036  -13.0858 C   0  0  0  0  0  0  0  0  0  0  0  0
   25.9123  -18.7157  -12.6396 O   0  0  0  0  0  0  0  0  0  0  0  0
   22.2312  -20.0823  -12.5070 C   0  0  0  0  0  0  0  0  0  0  0  0
   22.8549  -20.9587  -11.4176 C   0  0  1  0  0  0  0  0  0  0  0  0
   22.8153  -22.2933  -11.7577 O   0  0  0  0  0  0  0  0  0  0  0  0
   24.2594  -20.4472  -11.2146 C   0  0  2  0  0  0  0  0  0  0  0  0
   25.0228  -20.8201  -12.4146 N   0  0  0  0  0  0  0  0  0  0  0  0
   24.8389  -21.1736  -10.0574 C   0  0  0  0  0  0  0  0  0  0  0  0
   24.3621  -20.9846   -8.7753 O   0  0  0  0  0  0  0  0  0  0  0  0
   25.7833  -21.9828  -10.2187 O   0  0  0  0  0  0  0  0  0  0  0  0
  2  1  1  1
  2  4  1  0
  2  3  1  0
  4  5  2  0
  6  4  1  0
  7  6  1  0
  8  9  1  0
  8  7  1  0
  9 10  1  0
 10  6  1  0
 10 11  1  1
 11 12  2  0
 11 17  1  0
 14 13  1  6
 14 16  1  0
 15 14  1  0
 16 18  1  0
 16 17  1  6
 18 20  2  0
 18 19  1  0
M  END
$$$$
