APT.pdb
     RDKit          3D

 20 20  0  0  1  0  0  0  0  0999 V2000
   18.0309  -19.0915    2.1090 C   0  0  0  0  0  0  0  0  0  0  0  0
   17.0038  -19.9112    2.8995 C   0  0  2  0  0  0  0  0  0  0  0  0
   15.7416  -19.3084    2.6963 N   0  0  0  0  0  0  0  0  0  0  0  0
   17.5025  -20.0179    4.2607 C   0  0  0  0  0  0  0  0  0  0  0  0
   16.9379  -19.2345    5.1106 O   0  0  0  0  0  0  0  0  0  0  0  0
   18.5166  -20.8625    4.7616 N   0  0  0  0  0  0  0  0  0  0  0  0
   19.3077  -21.7892    3.9998 C   0  0  0  0  0  0  0  0  0  0  0  0
   19.5656  -22.9672    4.9511 C   0  0  0  0  0  0  0  0  0  0  0  0
   19.6594  -22.2859    6.2937 C   0  0  0  0  0  0  0  0  0  0  0  0
   18.9715  -20.9615    6.1316 C   0  0  1  0  0  0  0  0  0  0  0  0
   19.8837  -19.8103    6.4326 C   0  0  0  0  0  0  0  0  0  0  0  0
   20.7427  -19.4500    5.5686 O   0  0  0  0  0  0  0  0  0  0  0  0
   18.8609  -16.3551    7.5495 C   0  0  0  0  0  0  0  0  0  0  0  0
   19.8106  -16.9191    8.6097 C   0  0  1  0  0  0  0  0  0  0  0  0
   19.1195  -17.4517    9.6760 O   0  0  0  0  0  0  0  0  0  0  0  0
   20.6760  -17.9347    7.9061 C   0  0  2  0  0  0  0  0  0  0  0  0
   19.8264  -19.1060    7.6452 N   0  0  0  0  0  0  0  0  0  0  0  0
   21.7454  -18.3443    8.8502 C   0  0  0  0  0  0  0  0  0  0  0  0
   21.7598  -19.6010    9.4223 O   0  0  0  0  0  0  0  0  0  0  0  0
   22.6688  -17.5514    9.1528 O   0  0  0  0  0  0  0  0  0  0  0  0
  2  1  1  6
  2  4  1  0
  2  3  1  0
  4  5  2  0
  6  4  1  0
  7  6  1  0
  8  9  1  0
  8  7  1  0
  9 10  1  0
 10  6  1  0
 10 11  1  6
 11 12  2  0
 11 17  1  0
 14 13  1  6
 14 16  1  0
 15 14  1  0
 16 18  1  0
 16 17  1  1
 18 20  2  0
 18 19  1  0
M  END
$$$$
