RTY.pdb
     RDKit          3D

 31 31  0  0  1  0  0  0  0  0999 V2000
    8.0667  -11.7975   18.9203 N   0  0  0  0  0  0  0  0  0  0  0  0
    8.7336  -12.7960   18.1720 C   0  0  0  0  0  0  0  0  0  0  0  0
    9.9357  -12.6750   17.7154 N   0  0  0  0  0  0  0  0  0  0  0  0
    8.0272  -14.0128   17.9049 N   0  0  0  0  0  0  0  0  0  0  0  0
    7.8132  -14.9852   18.9525 C   0  0  0  0  0  0  0  0  0  0  0  0
    7.0864  -14.3399   20.1001 C   0  0  0  0  0  0  0  0  0  0  0  0
    6.8345  -15.3748   21.1595 C   0  0  0  0  0  0  0  0  0  0  0  0
    8.0252  -16.3041   21.3233 C   0  0  2  0  0  0  0  0  0  0  0  0
    7.7532  -17.4762   20.5449 N   0  0  0  0  0  0  0  0  0  0  0  0
    8.0967  -16.6666   22.7683 C   0  0  0  0  0  0  0  0  0  0  0  0
    7.0508  -16.8221   23.4481 O   0  0  0  0  0  0  0  0  0  0  0  0
   10.3815  -13.4364   17.1570 C   0  0  0  0  0  0  0  0  0  0  0  0
    9.4796  -19.6831   23.9413 C   0  0  2  0  0  0  0  0  0  0  0  0
   10.1889  -18.6824   24.8331 O   0  0  0  0  0  0  0  0  0  0  0  0
   11.4427  -18.4879   24.3132 C   0  0  2  0  0  0  0  0  0  0  0  0
    9.3853  -17.3928   24.7561 N   0  0  0  0  0  0  0  0  0  0  0  0
    9.3270  -16.8528   23.4416 C   0  0  0  0  0  0  0  0  0  0  0  0
    9.8997  -16.4035   25.7542 O   0  0  0  0  0  0  0  0  0  0  0  0
   10.7191  -15.5029   25.4366 O   0  0  0  0  0  0  0  0  0  0  0  0
    6.3159  -11.5101   25.0416 C   0  0  0  0  0  0  0  0  0  0  0  0
    7.0149  -12.2829   25.9765 C   0  0  0  0  0  0  0  0  0  0  0  0
    8.2372  -11.8982   26.4757 C   0  0  0  0  0  0  0  0  0  0  0  0
    8.8981  -12.6837   27.3974 C   0  0  0  0  0  0  0  0  0  0  0  0
    8.3737  -13.8928   27.8674 C   0  0  0  0  0  0  0  0  0  0  0  0
    9.1034  -14.7343   28.8327 C   0  0  2  0  0  0  0  0  0  0  0  0
   10.1221  -15.5603   28.1323 N   0  0  0  0  0  0  0  0  0  0  0  0
    9.4950  -16.4210   27.1138 C   0  0  0  0  0  0  0  0  0  0  0  0
   10.9693  -16.3420   29.0289 O   0  0  0  0  0  0  0  0  0  0  0  0
   10.9959  -17.6200   28.9869 C   0  0  0  0  0  0  0  0  0  0  0  0
    7.1452  -14.2475   27.3444 C   0  0  0  0  0  0  0  0  0  0  0  0
    6.4656  -13.4661   26.4146 O   0  0  0  0  0  0  0  0  0  0  0  0
  1  2  1  0
  2  3  2  0
  4  2  1  0
  4  5  1  0
  6  5  1  0
  7  6  1  0
  8  7  1  0
  8  9  1  6
 10  8  1  0
 10 11  2  0
 13 12  1  1
 13 15  1  0
 14 13  1  0
 15 16  1  1
 15 17  1  0
 16 10  1  0
 17 18  2  0
 17 26  1  0
 19 20  1  0
 20 21  2  0
 20 30  1  0
 21 22  1  0
 22 23  2  0
 23 24  1  0
 25 24  1  6
 25 27  1  0
 26 25  1  0
 27 28  2  0
 27 31  1  0
 29 23  1  0
 30 29  2  0
M  END
$$$$
