RTY.pdb
     RDKit          3D

 31 31  0  0  1  0  0  0  0  0999 V2000
    9.8915  -13.7084   13.8771 N   0  0  0  0  0  0  0  0  0  0  0  0
    8.7871  -12.9754   13.3825 C   0  0  0  0  0  0  0  0  0  0  0  0
    8.8839  -12.0101   12.5298 N   0  0  0  0  0  0  0  0  0  0  0  0
    7.4843  -13.3274   13.8617 N   0  0  0  0  0  0  0  0  0  0  0  0
    7.3308  -14.1824   15.0168 C   0  0  0  0  0  0  0  0  0  0  0  0
    7.9321  -13.5152   16.2229 C   0  0  0  0  0  0  0  0  0  0  0  0
    7.6983  -14.3837   17.4261 C   0  0  0  0  0  0  0  0  0  0  0  0
    8.9562  -14.5185   18.2675 C   0  0  2  0  0  0  0  0  0  0  0  0
    9.8026  -15.4683   17.6078 N   0  0  0  0  0  0  0  0  0  0  0  0
    8.5354  -15.0570   19.5932 C   0  0  0  0  0  0  0  0  0  0  0  0
    7.7580  -14.4073   20.3375 O   0  0  0  0  0  0  0  0  0  0  0  0
    8.0538  -11.4321   12.2706 C   0  0  0  0  0  0  0  0  0  0  0  0
    7.7156  -18.8396   20.1822 C   0  0  2  0  0  0  0  0  0  0  0  0
    8.5508  -18.3613   21.3542 O   0  0  0  0  0  0  0  0  0  0  0  0
    9.8307  -18.8111   21.1548 C   0  0  2  0  0  0  0  0  0  0  0  0
    8.5188  -16.8408   21.3127 N   0  0  0  0  0  0  0  0  0  0  0  0
    8.9813  -16.3094   20.0772 C   0  0  0  0  0  0  0  0  0  0  0  0
    9.2574  -16.2766   22.4857 O   0  0  0  0  0  0  0  0  0  0  0  0
   10.4866  -16.0129   22.4335 O   0  0  0  0  0  0  0  0  0  0  0  0
   11.4606  -14.3025   30.7912 C   0  0  0  0  0  0  0  0  0  0  0  0
   10.7171  -14.5541   29.6320 C   0  0  0  0  0  0  0  0  0  0  0  0
   10.2553  -15.8108   29.3178 C   0  0  0  0  0  0  0  0  0  0  0  0
    9.5240  -16.0227   28.1673 C   0  0  0  0  0  0  0  0  0  0  0  0
    9.2168  -14.9925   27.2718 C   0  0  0  0  0  0  0  0  0  0  0  0
    8.4567  -15.2390   26.0334 C   0  0  1  0  0  0  0  0  0  0  0  0
    9.3728  -15.6529   24.9379 N   0  0  0  0  0  0  0  0  0  0  0  0
    8.6177  -16.0052   23.7226 C   0  0  0  0  0  0  0  0  0  0  0  0
   10.2956  -16.7220   25.3094 O   0  0  0  0  0  0  0  0  0  0  0  0
   11.5296  -16.4921   25.5545 C   0  0  0  0  0  0  0  0  0  0  0  0
    9.6967  -13.7445   27.6192 C   0  0  0  0  0  0  0  0  0  0  0  0
   10.4353  -13.5140   28.7761 O   0  0  0  0  0  0  0  0  0  0  0  0
  1  2  1  0
  2  3  2  0
  4  2  1  0
  4  5  1  0
  6  5  1  0
  7  6  1  0
  8  7  1  0
  8  9  1  6
 10  8  1  0
 10 11  2  0
 13 12  1  1
 13 15  1  0
 14 13  1  0
 15 16  1  1
 15 17  1  0
 16 10  1  0
 17 18  2  0
 17 26  1  0
 19 20  1  0
 20 21  2  0
 20 30  1  0
 21 22  1  0
 22 23  2  0
 23 24  1  0
 25 24  1  6
 25 27  1  0
 26 25  1  0
 27 28  2  0
 27 31  1  0
 29 23  1  0
 30 29  2  0
M  END
$$$$
