RTY.pdb
     RDKit          3D

 31 31  0  0  1  0  0  0  0  0999 V2000
   10.0011  -14.9267   15.6620 N   0  0  0  0  0  0  0  0  0  0  0  0
    8.8938  -14.4868   14.8991 C   0  0  0  0  0  0  0  0  0  0  0  0
    8.8999  -14.3794   13.6120 N   0  0  0  0  0  0  0  0  0  0  0  0
    7.6959  -14.1379   15.6020 N   0  0  0  0  0  0  0  0  0  0  0  0
    7.5292  -14.4910   16.9935 C   0  0  0  0  0  0  0  0  0  0  0  0
    7.9954  -13.3556   17.8624 C   0  0  0  0  0  0  0  0  0  0  0  0
    7.7242  -13.6999   19.2993 C   0  0  0  0  0  0  0  0  0  0  0  0
    8.9655  -14.2465   19.9839 C   0  0  2  0  0  0  0  0  0  0  0  0
    9.6290  -15.0928   19.0367 N   0  0  0  0  0  0  0  0  0  0  0  0
    8.4984  -15.0604   21.1432 C   0  0  0  0  0  0  0  0  0  0  0  0
    7.2823  -15.0963   21.4595 O   0  0  0  0  0  0  0  0  0  0  0  0
    8.0522  -14.0615   13.0917 C   0  0  0  0  0  0  0  0  0  0  0  0
    8.3634  -18.5182   21.5814 C   0  0  2  0  0  0  0  0  0  0  0  0
    9.1770  -18.1151   22.7960 O   0  0  0  0  0  0  0  0  0  0  0  0
   10.4974  -18.3250   22.4919 C   0  0  2  0  0  0  0  0  0  0  0  0
    8.9200  -16.6312   23.0123 N   0  0  0  0  0  0  0  0  0  0  0  0
    9.3854  -15.8249   21.9373 C   0  0  0  0  0  0  0  0  0  0  0  0
    9.4789  -16.1973   24.3311 O   0  0  0  0  0  0  0  0  0  0  0  0
   10.5875  -15.6092   24.4226 O   0  0  0  0  0  0  0  0  0  0  0  0
    6.1066  -10.6688   25.6451 C   0  0  0  0  0  0  0  0  0  0  0  0
    6.6294  -11.8639   26.1533 C   0  0  0  0  0  0  0  0  0  0  0  0
    5.8983  -13.0283   26.1816 C   0  0  0  0  0  0  0  0  0  0  0  0
    6.4456  -14.1890   26.6884 C   0  0  0  0  0  0  0  0  0  0  0  0
    7.7494  -14.2469   27.1930 C   0  0  0  0  0  0  0  0  0  0  0  0
    8.3115  -15.4879   27.7551 C   0  0  2  0  0  0  0  0  0  0  0  0
    9.3626  -16.0334   26.8560 N   0  0  0  0  0  0  0  0  0  0  0  0
    8.7940  -16.4213   25.5531 C   0  0  0  0  0  0  0  0  0  0  0  0
   10.1307  -17.1298   27.4395 O   0  0  0  0  0  0  0  0  0  0  0  0
   10.1102  -18.3072   26.9403 C   0  0  0  0  0  0  0  0  0  0  0  0
    8.4537  -13.0592   27.1488 C   0  0  0  0  0  0  0  0  0  0  0  0
    7.9163  -11.8804   26.6405 O   0  0  0  0  0  0  0  0  0  0  0  0
  1  2  1  0
  2  3  2  0
  4  2  1  0
  4  5  1  0
  6  5  1  0
  7  6  1  0
  8  7  1  0
  8  9  1  6
 10  8  1  0
 10 11  2  0
 13 12  1  1
 13 15  1  0
 14 13  1  0
 15 16  1  1
 15 17  1  0
 16 10  1  0
 17 18  2  0
 17 26  1  0
 19 20  1  0
 20 21  2  0
 20 30  1  0
 21 22  1  0
 22 23  2  0
 23 24  1  0
 25 24  1  6
 25 27  1  0
 26 25  1  0
 27 28  2  0
 27 31  1  0
 29 23  1  0
 30 29  2  0
M  END
$$$$
