RTY.pdb
     RDKit          3D

 31 31  0  0  1  0  0  0  0  0999 V2000
   13.2327  -16.7677   12.0340 N   0  0  0  0  0  0  0  0  0  0  0  0
   12.3139  -17.8419   12.0922 C   0  0  0  0  0  0  0  0  0  0  0  0
   12.5576  -19.0267   11.6392 N   0  0  0  0  0  0  0  0  0  0  0  0
   11.0356  -17.5947   12.6885 N   0  0  0  0  0  0  0  0  0  0  0  0
   10.9331  -16.8837   13.9426 C   0  0  0  0  0  0  0  0  0  0  0  0
   10.7374  -17.8649   15.0652 C   0  0  0  0  0  0  0  0  0  0  0  0
   10.8160  -17.1294   16.3729 C   0  0  0  0  0  0  0  0  0  0  0  0
    9.8921  -15.9234   16.3888 C   0  0  2  0  0  0  0  0  0  0  0  0
   10.3533  -15.0278   15.3696 N   0  0  0  0  0  0  0  0  0  0  0  0
   10.0412  -15.2808   17.7266 C   0  0  0  0  0  0  0  0  0  0  0  0
   11.1391  -14.7860   18.0871 O   0  0  0  0  0  0  0  0  0  0  0  0
   11.8664  -19.8013   11.7510 C   0  0  0  0  0  0  0  0  0  0  0  0
    7.6688  -12.7775   19.3407 C   0  0  2  0  0  0  0  0  0  0  0  0
    7.9245  -13.8312   20.4009 O   0  0  0  0  0  0  0  0  0  0  0  0
    6.8221  -14.6455   20.4424 C   0  0  2  0  0  0  0  0  0  0  0  0
    9.1401  -14.6205   19.9381 N   0  0  0  0  0  0  0  0  0  0  0  0
    8.9709  -15.1943   18.6478 C   0  0  0  0  0  0  0  0  0  0  0  0
    9.5170  -15.6390   20.9678 O   0  0  0  0  0  0  0  0  0  0  0  0
    9.3822  -16.8732   20.7631 O   0  0  0  0  0  0  0  0  0  0  0  0
   16.3928  -14.8085   21.8186 C   0  0  0  0  0  0  0  0  0  0  0  0
   15.1555  -15.4078   22.0824 C   0  0  0  0  0  0  0  0  0  0  0  0
   14.7728  -15.7663   23.3538 C   0  0  0  0  0  0  0  0  0  0  0  0
   13.5449  -16.3540   23.5780 C   0  0  0  0  0  0  0  0  0  0  0  0
   12.6369  -16.6145   22.5458 C   0  0  0  0  0  0  0  0  0  0  0  0
   11.3395  -17.2668   22.7973 C   0  0  1  0  0  0  0  0  0  0  0  0
   10.3444  -16.2715   23.2767 N   0  0  0  0  0  0  0  0  0  0  0  0
   10.0481  -15.2753   22.2320 C   0  0  0  0  0  0  0  0  0  0  0  0
   10.7141  -15.6209   24.5307 O   0  0  0  0  0  0  0  0  0  0  0  0
   10.7619  -14.3476   24.6407 C   0  0  0  0  0  0  0  0  0  0  0  0
   13.0547  -16.2417   21.2829 C   0  0  0  0  0  0  0  0  0  0  0  0
   14.2896  -15.6474   21.0401 O   0  0  0  0  0  0  0  0  0  0  0  0
  1  2  1  0
  2  3  2  0
  4  2  1  0
  4  5  1  0
  6  5  1  0
  7  6  1  0
  8  7  1  0
  8  9  1  6
 10  8  1  0
 10 11  2  0
 13 12  1  1
 13 15  1  0
 14 13  1  0
 15 16  1  1
 15 17  1  0
 16 10  1  0
 17 18  2  0
 17 26  1  0
 19 20  1  0
 20 21  2  0
 20 30  1  0
 21 22  1  0
 22 23  2  0
 23 24  1  0
 25 24  1  6
 25 27  1  0
 26 25  1  0
 27 28  2  0
 27 31  1  0
 29 23  1  0
 30 29  2  0
M  END
$$$$
