RTY.pdb
     RDKit          3D

 31 31  0  0  1  0  0  0  0  0999 V2000
   15.0111  -15.0658   18.3689 N   0  0  0  0  0  0  0  0  0  0  0  0
   14.6865  -14.3695   19.5569 C   0  0  0  0  0  0  0  0  0  0  0  0
   15.5625  -13.8811   20.3708 N   0  0  0  0  0  0  0  0  0  0  0  0
   13.3000  -14.2007   19.8735 N   0  0  0  0  0  0  0  0  0  0  0  0
   12.2803  -14.8620   19.0915 C   0  0  0  0  0  0  0  0  0  0  0  0
   11.7450  -13.9140   18.0541 C   0  0  0  0  0  0  0  0  0  0  0  0
   10.5260  -13.2294   18.6040 C   0  0  0  0  0  0  0  0  0  0  0  0
    9.2827  -14.0857   18.4330 C   0  0  2  0  0  0  0  0  0  0  0  0
    8.5097  -13.4978   17.3793 N   0  0  0  0  0  0  0  0  0  0  0  0
    8.5240  -14.0093   19.7148 C   0  0  0  0  0  0  0  0  0  0  0  0
    7.8972  -12.9673   20.0337 O   0  0  0  0  0  0  0  0  0  0  0  0
   15.2733  -13.3841   21.2423 C   0  0  0  0  0  0  0  0  0  0  0  0
    5.6428  -15.5700   21.0210 C   0  0  2  0  0  0  0  0  0  0  0  0
    6.6737  -15.9366   22.0710 O   0  0  0  0  0  0  0  0  0  0  0  0
    7.0872  -17.2174   21.8087 C   0  0  2  0  0  0  0  0  0  0  0  0
    7.8323  -14.9667   21.8929 N   0  0  0  0  0  0  0  0  0  0  0  0
    8.4692  -15.0893   20.6272 C   0  0  0  0  0  0  0  0  0  0  0  0
    8.7969  -15.1001   23.0294 O   0  0  0  0  0  0  0  0  0  0  0  0
    9.9218  -15.6455   22.8865 O   0  0  0  0  0  0  0  0  0  0  0  0
   11.9741  -15.6709   31.2774 C   0  0  0  0  0  0  0  0  0  0  0  0
   11.2255  -15.3119   30.1502 C   0  0  0  0  0  0  0  0  0  0  0  0
   11.6288  -14.3166   29.2911 C   0  0  0  0  0  0  0  0  0  0  0  0
   10.8669  -13.9895   28.1884 C   0  0  0  0  0  0  0  0  0  0  0  0
    9.6642  -14.6379   27.8871 C   0  0  0  0  0  0  0  0  0  0  0  0
    8.8478  -14.2598   26.7197 C   0  0  1  0  0  0  0  0  0  0  0  0
    9.3260  -14.9678   25.5028 N   0  0  0  0  0  0  0  0  0  0  0  0
    8.5021  -14.6205   24.3315 C   0  0  0  0  0  0  0  0  0  0  0  0
    9.4269  -16.4160   25.6613 O   0  0  0  0  0  0  0  0  0  0  0  0
    8.4238  -17.1862   25.4704 C   0  0  0  0  0  0  0  0  0  0  0  0
    9.2904  -15.6313   28.7714 C   0  0  0  0  0  0  0  0  0  0  0  0
   10.0479  -15.9736   29.8876 O   0  0  0  0  0  0  0  0  0  0  0  0
  1  2  1  0
  2  3  2  0
  4  2  1  0
  4  5  1  0
  6  5  1  0
  7  6  1  0
  8  7  1  0
  8  9  1  6
 10  8  1  0
 10 11  2  0
 13 12  1  1
 13 15  1  0
 14 13  1  0
 15 16  1  1
 15 17  1  0
 16 10  1  0
 17 18  2  0
 17 26  1  0
 19 20  1  0
 20 21  2  0
 20 30  1  0
 21 22  1  0
 22 23  2  0
 23 24  1  0
 25 24  1  6
 25 27  1  0
 26 25  1  0
 27 28  2  0
 27 31  1  0
 29 23  1  0
 30 29  2  0
M  END
$$$$
