RTY.pdb
     RDKit          3D

 31 31  0  0  1  0  0  0  0  0999 V2000
    7.3326  -20.9516   24.5469 N   0  0  0  0  0  0  0  0  0  0  0  0
    7.6054  -19.5755   24.7301 C   0  0  0  0  0  0  0  0  0  0  0  0
    8.7527  -19.1086   25.0962 N   0  0  0  0  0  0  0  0  0  0  0  0
    6.5399  -18.6474   24.4967 N   0  0  0  0  0  0  0  0  0  0  0  0
    5.4625  -18.9758   23.5911 C   0  0  0  0  0  0  0  0  0  0  0  0
    5.5308  -18.0860   22.3808 C   0  0  0  0  0  0  0  0  0  0  0  0
    5.7450  -18.9382   21.1623 C   0  0  0  0  0  0  0  0  0  0  0  0
    5.8337  -18.0942   19.9021 C   0  0  2  0  0  0  0  0  0  0  0  0
    6.0911  -18.9904   18.8139 N   0  0  0  0  0  0  0  0  0  0  0  0
    6.9931  -17.1726   20.0782 C   0  0  0  0  0  0  0  0  0  0  0  0
    8.1735  -17.6022   20.0288 O   0  0  0  0  0  0  0  0  0  0  0  0
    8.8932  -18.0872   25.2619 C   0  0  0  0  0  0  0  0  0  0  0  0
    6.5598  -12.9240   20.4742 C   0  0  2  0  0  0  0  0  0  0  0  0
    7.7731  -13.5696   19.8332 O   0  0  0  0  0  0  0  0  0  0  0  0
    8.8533  -12.7701   20.1051 C   0  0  1  0  0  0  0  0  0  0  0  0
    7.9438  -14.9245   20.5040 N   0  0  0  0  0  0  0  0  0  0  0  0
    6.8295  -15.7859   20.3064 C   0  0  0  0  0  0  0  0  0  0  0  0
    8.2735  -14.7455   21.9528 O   0  0  0  0  0  0  0  0  0  0  0  0
    7.6365  -13.9457   22.6860 O   0  0  0  0  0  0  0  0  0  0  0  0
   10.3159  -14.8742   30.3029 C   0  0  0  0  0  0  0  0  0  0  0  0
    9.8773  -15.0072   28.9802 C   0  0  0  0  0  0  0  0  0  0  0  0
    9.6070  -16.2334   28.4192 C   0  0  0  0  0  0  0  0  0  0  0  0
    9.1748  -16.3279   27.1124 C   0  0  0  0  0  0  0  0  0  0  0  0
    8.9909  -15.2044   26.2989 C   0  0  0  0  0  0  0  0  0  0  0  0
    8.5537  -15.3228   24.8964 C   0  0  1  0  0  0  0  0  0  0  0  0
    9.7191  -15.2107   23.9800 N   0  0  0  0  0  0  0  0  0  0  0  0
    9.3202  -15.4653   22.5844 C   0  0  0  0  0  0  0  0  0  0  0  0
   10.8547  -16.0461   24.3607 O   0  0  0  0  0  0  0  0  0  0  0  0
   11.4884  -15.8631   25.4564 C   0  0  0  0  0  0  0  0  0  0  0  0
    9.2721  -13.9904   26.8951 C   0  0  0  0  0  0  0  0  0  0  0  0
    9.7082  -13.8781   28.2119 O   0  0  0  0  0  0  0  0  0  0  0  0
  1  2  1  0
  2  3  2  0
  4  2  1  0
  4  5  1  0
  6  5  1  0
  7  6  1  0
  8  7  1  0
  8  9  1  6
 10  8  1  0
 10 11  2  0
 13 12  1  6
 13 15  1  0
 14 13  1  0
 15 16  1  6
 15 17  1  0
 16 10  1  0
 17 18  2  0
 17 26  1  0
 19 20  1  0
 20 21  2  0
 20 30  1  0
 21 22  1  0
 22 23  2  0
 23 24  1  0
 25 24  1  6
 25 27  1  0
 26 25  1  0
 27 28  2  0
 27 31  1  0
 29 23  1  0
 30 29  2  0
M  END
$$$$
