RTY.pdb
     RDKit          3D

 31 31  0  0  1  0  0  0  0  0999 V2000
   11.0426  -21.1465   15.3875 N   0  0  0  0  0  0  0  0  0  0  0  0
    9.8434  -20.6403   14.8334 C   0  0  0  0  0  0  0  0  0  0  0  0
    9.6439  -20.4789   13.5675 N   0  0  0  0  0  0  0  0  0  0  0  0
    8.7899  -20.2840   15.7357 N   0  0  0  0  0  0  0  0  0  0  0  0
    8.9911  -19.2593   16.7347 C   0  0  0  0  0  0  0  0  0  0  0  0
    9.9794  -19.7409   17.7607 C   0  0  0  0  0  0  0  0  0  0  0  0
   10.0944  -18.7093   18.8467 C   0  0  0  0  0  0  0  0  0  0  0  0
    9.5771  -17.3571   18.3862 C   0  0  2  0  0  0  0  0  0  0  0  0
   10.3932  -16.9498   17.2809 N   0  0  0  0  0  0  0  0  0  0  0  0
    9.7643  -16.4109   19.5238 C   0  0  0  0  0  0  0  0  0  0  0  0
   10.9137  -16.0440   19.8768 O   0  0  0  0  0  0  0  0  0  0  0  0
    8.7155  -20.1721   13.2010 C   0  0  0  0  0  0  0  0  0  0  0  0
    7.7357  -13.1660   20.2393 C   0  0  2  0  0  0  0  0  0  0  0  0
    7.7483  -13.9888   21.5131 O   0  0  0  0  0  0  0  0  0  0  0  0
    6.5397  -14.6310   21.5973 C   0  0  2  0  0  0  0  0  0  0  0  0
    8.8701  -15.0048   21.3574 N   0  0  0  0  0  0  0  0  0  0  0  0
    8.6748  -15.8828   20.2558 C   0  0  0  0  0  0  0  0  0  0  0  0
    9.0799  -15.7433   22.6421 O   0  0  0  0  0  0  0  0  0  0  0  0
    8.8845  -16.9827   22.7364 O   0  0  0  0  0  0  0  0  0  0  0  0
    6.3372  -10.3398   27.5041 C   0  0  0  0  0  0  0  0  0  0  0  0
    6.6852  -11.5945   26.9900 C   0  0  0  0  0  0  0  0  0  0  0  0
    7.9940  -12.0016   26.8782 C   0  0  0  0  0  0  0  0  0  0  0  0
    8.3011  -13.2462   26.3681 C   0  0  0  0  0  0  0  0  0  0  0  0
    7.3187  -14.1473   25.9431 C   0  0  0  0  0  0  0  0  0  0  0  0
    7.6632  -15.4633   25.3760 C   0  0  2  0  0  0  0  0  0  0  0  0
    9.1318  -15.5687   25.1685 N   0  0  0  0  0  0  0  0  0  0  0  0
    9.5112  -15.0924   23.8266 C   0  0  0  0  0  0  0  0  0  0  0  0
    9.6719  -16.9013   25.4232 O   0  0  0  0  0  0  0  0  0  0  0  0
    9.6216  -17.4383   26.5829 C   0  0  0  0  0  0  0  0  0  0  0  0
    6.0161  -13.7048   26.0697 C   0  0  0  0  0  0  0  0  0  0  0  0
    5.6897  -12.4529   26.5827 O   0  0  0  0  0  0  0  0  0  0  0  0
  1  2  1  0
  2  3  2  0
  4  2  1  0
  4  5  1  0
  6  5  1  0
  7  6  1  0
  8  7  1  0
  8  9  1  6
 10  8  1  0
 10 11  2  0
 13 12  1  1
 13 15  1  0
 14 13  1  0
 15 16  1  1
 15 17  1  0
 16 10  1  0
 17 18  2  0
 17 26  1  0
 19 20  1  0
 20 21  2  0
 20 30  1  0
 21 22  1  0
 22 23  2  0
 23 24  1  0
 25 24  1  1
 25 27  1  0
 26 25  1  0
 27 28  2  0
 27 31  1  0
 29 23  1  0
 30 29  2  0
M  END
$$$$
