RTY.pdb
     RDKit          3D

 31 31  0  0  1  0  0  0  0  0999 V2000
    9.0667  -13.6790   16.8084 N   0  0  0  0  0  0  0  0  0  0  0  0
    9.0359  -13.0847   18.0920 C   0  0  0  0  0  0  0  0  0  0  0  0
   10.0889  -12.8234   18.7929 N   0  0  0  0  0  0  0  0  0  0  0  0
    7.7561  -12.7569   18.6447 N   0  0  0  0  0  0  0  0  0  0  0  0
    6.9413  -13.7742   19.2692 C   0  0  0  0  0  0  0  0  0  0  0  0
    7.8250  -14.8432   19.8502 C   0  0  0  0  0  0  0  0  0  0  0  0
    7.3887  -15.1212   21.2606 C   0  0  0  0  0  0  0  0  0  0  0  0
    7.1750  -16.6072   21.4939 C   0  0  2  0  0  0  0  0  0  0  0  0
    5.9320  -16.9553   20.8713 N   0  0  0  0  0  0  0  0  0  0  0  0
    7.0701  -16.8039   22.9686 C   0  0  0  0  0  0  0  0  0  0  0  0
    6.0012  -16.5508   23.5800 O   0  0  0  0  0  0  0  0  0  0  0  0
   10.0261  -12.2766   19.6802 C   0  0  0  0  0  0  0  0  0  0  0  0
    6.8991  -19.5965   24.8734 C   0  0  2  0  0  0  0  0  0  0  0  0
    8.0722  -18.9284   25.5640 O   0  0  0  0  0  0  0  0  0  0  0  0
    9.2155  -19.5214   25.0937 C   0  0  2  0  0  0  0  0  0  0  0  0
    8.0359  -17.4640   25.1527 N   0  0  0  0  0  0  0  0  0  0  0  0
    8.1515  -17.2792   23.7473 C   0  0  0  0  0  0  0  0  0  0  0  0
    9.0646  -16.6882   25.9141 O   0  0  0  0  0  0  0  0  0  0  0  0
   10.1358  -16.3008   25.3795 O   0  0  0  0  0  0  0  0  0  0  0  0
    5.9006  -11.5237   25.2752 C   0  0  0  0  0  0  0  0  0  0  0  0
    6.7323  -12.2520   26.1340 C   0  0  0  0  0  0  0  0  0  0  0  0
    6.2364  -12.9727   27.1951 C   0  0  0  0  0  0  0  0  0  0  0  0
    7.0851  -13.6806   28.0210 C   0  0  0  0  0  0  0  0  0  0  0  0
    8.4710  -13.7050   27.8308 C   0  0  0  0  0  0  0  0  0  0  0  0
    9.3676  -14.4448   28.7370 C   0  0  2  0  0  0  0  0  0  0  0  0
    9.9328  -15.6348   28.0477 N   0  0  0  0  0  0  0  0  0  0  0  0
    8.8939  -16.3433   27.2796 C   0  0  0  0  0  0  0  0  0  0  0  0
   10.6444  -16.5509   28.9348 O   0  0  0  0  0  0  0  0  0  0  0  0
   10.3018  -17.7775   29.0520 C   0  0  0  0  0  0  0  0  0  0  0  0
    8.9334  -12.9701   26.7563 C   0  0  0  0  0  0  0  0  0  0  0  0
    8.0906  -12.2513   25.9137 O   0  0  0  0  0  0  0  0  0  0  0  0
  1  2  1  0
  2  3  2  0
  4  2  1  0
  4  5  1  0
  6  5  1  0
  7  6  1  0
  8  7  1  0
  8  9  1  6
 10  8  1  0
 10 11  2  0
 13 12  1  1
 13 15  1  0
 14 13  1  0
 15 16  1  1
 15 17  1  0
 16 10  1  0
 17 18  2  0
 17 26  1  0
 19 20  1  0
 20 21  2  0
 20 30  1  0
 21 22  1  0
 22 23  2  0
 23 24  1  0
 25 24  1  6
 25 27  1  0
 26 25  1  0
 27 28  2  0
 27 31  1  0
 29 23  1  0
 30 29  2  0
M  END
$$$$
