SDT.pdb
     RDKit          3D

 22 21  0  0  1  0  0  0  0  0999 V2000
    7.5500  -13.2305   17.0865 O   0  0  0  0  0  0  0  0  0  0  0  0
    8.6994  -13.1998   16.3143 C   0  0  0  0  0  0  0  0  0  0  0  0
    9.0571  -14.6176   15.9016 C   0  0  2  0  0  0  0  0  0  0  0  0
    7.9222  -15.1660   15.1537 N   0  0  0  0  0  0  0  0  0  0  0  0
    9.2728  -15.4751   17.1007 C   0  0  0  0  0  0  0  0  0  0  0  0
    8.3552  -16.2534   17.5295 O   0  0  0  0  0  0  0  0  0  0  0  0
   10.4866  -15.4840   17.8311 N   0  0  0  0  0  0  0  0  0  0  0  0
   10.6751  -16.3877   18.9799 C   0  0  1  0  0  0  0  0  0  0  0  0
   12.0523  -16.9762   18.9528 C   0  0  0  0  0  0  0  0  0  0  0  0
   12.3727  -17.8939   20.0340 C   0  0  0  0  0  0  0  0  0  0  0  0
   11.5587  -18.6973   20.5380 O   0  0  0  0  0  0  0  0  0  0  0  0
   10.4058  -15.6203   20.2235 C   0  0  0  0  0  0  0  0  0  0  0  0
   11.0073  -14.5619   20.4365 O   0  0  0  0  0  0  0  0  0  0  0  0
   13.6805  -17.9109   20.5784 O   0  0  0  0  0  0  0  0  0  0  0  0
    7.3302  -13.8684   21.2139 C   0  0  0  0  0  0  0  0  0  0  0  0
    7.6888  -14.8116   22.3025 C   0  0  1  0  0  0  0  0  0  0  0  0
    6.8821  -15.9442   22.2132 O   0  0  0  0  0  0  0  0  0  0  0  0
    9.1417  -15.2150   22.3084 C   0  0  2  0  0  0  0  0  0  0  0  0
    9.4652  -16.0662   21.1927 N   0  0  0  0  0  0  0  0  0  0  0  0
    9.5728  -15.8382   23.5551 C   0  0  0  0  0  0  0  0  0  0  0  0
    9.9514  -17.0382   23.5327 O   0  0  0  0  0  0  0  0  0  0  0  0
    9.5996  -15.2044   24.7886 O   0  0  0  0  0  0  0  0  0  0  0  0
  1  2  1  0
  2  3  1  0
  3  4  1  6
  5  3  1  0
  5  7  1  0
  6  5  2  0
  8  7  1  0
  8 12  1  0
  8  9  1  1
 10  9  1  0
 10 14  1  0
 11 10  2  0
 12 13  2  0
 12 19  1  0
 16 15  1  6
 17 16  1  0
 18 16  1  0
 18 20  1  0
 18 19  1  6
 20 22  1  0
 21 20  2  0
M  END
$$$$
