SDT.pdb
     RDKit          3D

 22 21  0  0  1  0  0  0  0  0999 V2000
   12.0171  -17.1334   18.1246 O   0  0  0  0  0  0  0  0  0  0  0  0
   13.0281  -17.8811   18.7053 C   0  0  0  0  0  0  0  0  0  0  0  0
   12.4311  -19.1468   19.2968 C   0  0  2  0  0  0  0  0  0  0  0  0
   11.6532  -19.8085   18.2455 N   0  0  0  0  0  0  0  0  0  0  0  0
   11.5029  -18.8172   20.4147 C   0  0  0  0  0  0  0  0  0  0  0  0
   10.2368  -18.8260   20.2461 O   0  0  0  0  0  0  0  0  0  0  0  0
   11.9544  -18.4785   21.7141 N   0  0  0  0  0  0  0  0  0  0  0  0
   11.0035  -18.2981   22.8254 C   0  0  1  0  0  0  0  0  0  0  0  0
   11.6677  -18.6172   24.1296 C   0  0  0  0  0  0  0  0  0  0  0  0
   12.2498  -19.9450   24.2383 C   0  0  0  0  0  0  0  0  0  0  0  0
   11.6786  -20.9947   23.8723 O   0  0  0  0  0  0  0  0  0  0  0  0
   10.4864  -16.9060   22.7729 C   0  0  0  0  0  0  0  0  0  0  0  0
   11.2713  -15.9625   22.6275 O   0  0  0  0  0  0  0  0  0  0  0  0
   13.5462  -20.1022   24.7877 O   0  0  0  0  0  0  0  0  0  0  0  0
    6.9638  -13.7335   21.7054 C   0  0  0  0  0  0  0  0  0  0  0  0
    7.4786  -15.1197   21.8359 C   0  0  1  0  0  0  0  0  0  0  0  0
    7.8245  -15.6016   20.5751 O   0  0  0  0  0  0  0  0  0  0  0  0
    8.6507  -15.2510   22.7754 C   0  0  2  0  0  0  0  0  0  0  0  0
    9.0987  -16.6153   22.8846 N   0  0  0  0  0  0  0  0  0  0  0  0
    8.4041  -14.6972   24.1025 C   0  0  0  0  0  0  0  0  0  0  0  0
    8.2954  -15.4861   25.0770 O   0  0  0  0  0  0  0  0  0  0  0  0
    8.2762  -13.3452   24.3843 O   0  0  0  0  0  0  0  0  0  0  0  0
  1  2  1  0
  2  3  1  0
  3  4  1  6
  5  3  1  0
  5  7  1  0
  6  5  2  0
  8  7  1  0
  8 12  1  0
  8  9  1  1
 10  9  1  0
 10 14  1  0
 11 10  2  0
 12 13  2  0
 12 19  1  0
 16 15  1  6
 17 16  1  0
 18 16  1  0
 18 20  1  0
 18 19  1  1
 20 22  1  0
 21 20  2  0
M  END
$$$$
