SDT.pdb
     RDKit          3D

 22 21  0  0  1  0  0  0  0  0999 V2000
    9.4203  -12.2350   19.4504 O   0  0  0  0  0  0  0  0  0  0  0  0
    9.8710  -12.9683   18.3652 C   0  0  0  0  0  0  0  0  0  0  0  0
    8.9005  -14.1066   18.0988 C   0  0  2  0  0  0  0  0  0  0  0  0
    7.5928  -13.5182   17.7955 N   0  0  0  0  0  0  0  0  0  0  0  0
    8.7485  -14.9615   19.3095 C   0  0  0  0  0  0  0  0  0  0  0  0
    7.6319  -15.0428   19.9244 O   0  0  0  0  0  0  0  0  0  0  0  0
    9.8121  -15.7263   19.8489 N   0  0  0  0  0  0  0  0  0  0  0  0
    9.5832  -16.6685   20.9586 C   0  0  1  0  0  0  0  0  0  0  0  0
   10.5906  -17.7762   20.9110 C   0  0  0  0  0  0  0  0  0  0  0  0
   10.5762  -18.6971   22.0358 C   0  0  0  0  0  0  0  0  0  0  0  0
    9.5678  -19.3338   22.4098 O   0  0  0  0  0  0  0  0  0  0  0  0
    9.6321  -15.9060   22.2330 C   0  0  0  0  0  0  0  0  0  0  0  0
   10.4170  -14.9590   22.3544 O   0  0  0  0  0  0  0  0  0  0  0  0
   11.7609  -18.9160   22.7814 O   0  0  0  0  0  0  0  0  0  0  0  0
    7.2378  -13.6867   25.6485 C   0  0  0  0  0  0  0  0  0  0  0  0
    7.4119  -14.5644   24.4641 C   0  0  1  0  0  0  0  0  0  0  0  0
    7.2998  -13.7992   23.3050 O   0  0  0  0  0  0  0  0  0  0  0  0
    8.7133  -15.3259   24.4530 C   0  0  2  0  0  0  0  0  0  0  0  0
    8.7943  -16.2307   23.3355 N   0  0  0  0  0  0  0  0  0  0  0  0
    8.9863  -16.0396   25.6959 C   0  0  0  0  0  0  0  0  0  0  0  0
    9.0108  -17.2977   25.6786 O   0  0  0  0  0  0  0  0  0  0  0  0
    9.2252  -15.4332   26.9202 O   0  0  0  0  0  0  0  0  0  0  0  0
  1  2  1  0
  2  3  1  0
  3  4  1  1
  5  3  1  0
  5  7  1  0
  6  5  2  0
  8  7  1  0
  8 12  1  0
  8  9  1  1
 10  9  1  0
 10 14  1  0
 11 10  2  0
 12 13  2  0
 12 19  1  0
 16 15  1  1
 17 16  1  0
 18 16  1  0
 18 20  1  0
 18 19  1  6
 20 22  1  0
 21 20  2  0
M  END
$$$$
