SDT.pdb
     RDKit          3D

 22 21  0  0  1  0  0  0  0  0999 V2000
    7.8113  -12.3714   19.7195 O   0  0  0  0  0  0  0  0  0  0  0  0
    8.8592  -12.7711   18.9068 C   0  0  0  0  0  0  0  0  0  0  0  0
    8.6528  -14.2232   18.5104 C   0  0  2  0  0  0  0  0  0  0  0  0
    7.3514  -14.3247   17.8440 N   0  0  0  0  0  0  0  0  0  0  0  0
    8.6192  -15.0973   19.7165 C   0  0  0  0  0  0  0  0  0  0  0  0
    7.5153  -15.5474   20.1751 O   0  0  0  0  0  0  0  0  0  0  0  0
    9.7870  -15.4797   20.4214 N   0  0  0  0  0  0  0  0  0  0  0  0
    9.7100  -16.3744   21.5899 C   0  0  1  0  0  0  0  0  0  0  0  0
   10.8649  -17.3284   21.5863 C   0  0  0  0  0  0  0  0  0  0  0  0
   10.9125  -18.2729   22.6905 C   0  0  0  0  0  0  0  0  0  0  0  0
    9.9111  -18.8528   23.1627 O   0  0  0  0  0  0  0  0  0  0  0  0
    9.6657  -15.5352   22.8153 C   0  0  0  0  0  0  0  0  0  0  0  0
   10.5648  -14.7158   23.0335 O   0  0  0  0  0  0  0  0  0  0  0  0
   12.1543  -18.5841   23.2974 O   0  0  0  0  0  0  0  0  0  0  0  0
    7.0542  -12.9978   23.9755 C   0  0  0  0  0  0  0  0  0  0  0  0
    7.2682  -14.0334   25.0173 C   0  0  1  0  0  0  0  0  0  0  0  0
    6.2178  -14.9481   24.9781 O   0  0  0  0  0  0  0  0  0  0  0  0
    8.5851  -14.7580   24.8980 C   0  0  2  0  0  0  0  0  0  0  0  0
    8.6086  -15.6416   23.7610 N   0  0  0  0  0  0  0  0  0  0  0  0
    8.9668  -15.4843   26.1044 C   0  0  0  0  0  0  0  0  0  0  0  0
    9.0781  -14.8479   27.1844 O   0  0  0  0  0  0  0  0  0  0  0  0
    9.2231  -16.8463   26.1601 O   0  0  0  0  0  0  0  0  0  0  0  0
  1  2  1  0
  2  3  1  0
  3  4  1  1
  5  3  1  0
  5  7  1  0
  6  5  2  0
  8  7  1  0
  8 12  1  0
  8  9  1  1
 10  9  1  0
 10 14  1  0
 11 10  2  0
 12 13  2  0
 12 19  1  0
 16 15  1  6
 17 16  1  0
 18 16  1  0
 18 20  1  0
 18 19  1  6
 20 22  1  0
 21 20  2  0
M  END
$$$$
