SDT.pdb
     RDKit          3D

 22 21  0  0  1  0  0  0  0  0999 V2000
    7.9724  -13.2320   17.4730 O   0  0  0  0  0  0  0  0  0  0  0  0
    8.2491  -14.1000   18.5162 C   0  0  0  0  0  0  0  0  0  0  0  0
    8.7719  -15.4082   17.9470 C   0  0  2  0  0  0  0  0  0  0  0  0
    7.6489  -16.0976   17.3053 N   0  0  0  0  0  0  0  0  0  0  0  0
    9.2868  -16.2860   19.0351 C   0  0  0  0  0  0  0  0  0  0  0  0
    8.5855  -17.2502   19.4932 O   0  0  0  0  0  0  0  0  0  0  0  0
   10.5642  -16.1127   19.6228 N   0  0  0  0  0  0  0  0  0  0  0  0
   11.0264  -16.9950   20.7089 C   0  0  1  0  0  0  0  0  0  0  0  0
   12.4606  -17.3702   20.4937 C   0  0  0  0  0  0  0  0  0  0  0  0
   13.0729  -18.1689   21.5428 C   0  0  0  0  0  0  0  0  0  0  0  0
   13.6650  -17.6913   22.5345 O   0  0  0  0  0  0  0  0  0  0  0  0
   10.8064  -16.2954   22.0012 C   0  0  0  0  0  0  0  0  0  0  0  0
   11.2272  -15.1440   22.1576 O   0  0  0  0  0  0  0  0  0  0  0  0
   13.0159  -19.5829   21.4749 O   0  0  0  0  0  0  0  0  0  0  0  0
    7.3992  -16.1857   23.8720 C   0  0  0  0  0  0  0  0  0  0  0  0
    8.5934  -15.3684   24.2026 C   0  0  1  0  0  0  0  0  0  0  0  0
    8.3721  -14.6966   25.4031 O   0  0  0  0  0  0  0  0  0  0  0  0
    9.8733  -16.1612   24.2860 C   0  0  2  0  0  0  0  0  0  0  0  0
   10.1170  -16.9122   23.0815 N   0  0  0  0  0  0  0  0  0  0  0  0
    9.9440  -17.0412   25.4476 C   0  0  0  0  0  0  0  0  0  0  0  0
   10.0730  -18.2793   25.2621 O   0  0  0  0  0  0  0  0  0  0  0  0
    9.8787  -16.6171   26.7666 O   0  0  0  0  0  0  0  0  0  0  0  0
  1  2  1  0
  2  3  1  0
  3  4  1  1
  5  3  1  0
  5  7  1  0
  6  5  2  0
  8  7  1  0
  8 12  1  0
  8  9  1  6
 10  9  1  0
 10 14  1  0
 11 10  2  0
 12 13  2  0
 12 19  1  0
 16 15  1  1
 17 16  1  0
 18 16  1  0
 18 20  1  0
 18 19  1  6
 20 22  1  0
 21 20  2  0
M  END
$$$$
