SDT.pdb
     RDKit          3D

 22 21  0  0  1  0  0  0  0  0999 V2000
    8.2111  -15.9998   16.7406 O   0  0  0  0  0  0  0  0  0  0  0  0
    8.7668  -16.5072   17.9034 C   0  0  0  0  0  0  0  0  0  0  0  0
    9.3112  -17.8984   17.6266 C   0  0  2  0  0  0  0  0  0  0  0  0
    8.1686  -18.7981   17.4447 N   0  0  0  0  0  0  0  0  0  0  0  0
   10.1034  -18.3930   18.7874 C   0  0  0  0  0  0  0  0  0  0  0  0
    9.5418  -19.0069   19.7565 O   0  0  0  0  0  0  0  0  0  0  0  0
   11.5055  -18.2185   18.8913 N   0  0  0  0  0  0  0  0  0  0  0  0
   12.2354  -18.6381   20.1009 C   0  0  1  0  0  0  0  0  0  0  0  0
   13.6070  -19.1169   19.7357 C   0  0  0  0  0  0  0  0  0  0  0  0
   13.6634  -20.2715   18.8540 C   0  0  0  0  0  0  0  0  0  0  0  0
   13.0363  -21.3351   19.0482 O   0  0  0  0  0  0  0  0  0  0  0  0
   12.2629  -17.4931   21.0474 C   0  0  0  0  0  0  0  0  0  0  0  0
   12.9310  -16.4885   20.7796 O   0  0  0  0  0  0  0  0  0  0  0  0
   14.4680  -20.2286   17.6887 O   0  0  0  0  0  0  0  0  0  0  0  0
   10.2505  -17.5074   24.9280 C   0  0  0  0  0  0  0  0  0  0  0  0
   10.3883  -16.3111   24.0600 C   0  0  1  0  0  0  0  0  0  0  0  0
   10.4539  -15.1703   24.8572 O   0  0  0  0  0  0  0  0  0  0  0  0
   11.5780  -16.3605   23.1349 C   0  0  2  0  0  0  0  0  0  0  0  0
   11.5357  -17.5110   22.2696 N   0  0  0  0  0  0  0  0  0  0  0  0
   12.8616  -16.3006   23.8258 C   0  0  0  0  0  0  0  0  0  0  0  0
   13.4973  -17.3701   24.0157 O   0  0  0  0  0  0  0  0  0  0  0  0
   13.4509  -15.1384   24.3009 O   0  0  0  0  0  0  0  0  0  0  0  0
  1  2  1  0
  2  3  1  0
  3  4  1  1
  5  3  1  0
  5  7  1  0
  6  5  2  0
  8  7  1  0
  8 12  1  0
  8  9  1  6
 10  9  1  0
 10 14  1  0
 11 10  2  0
 12 13  2  0
 12 19  1  0
 16 15  1  1
 17 16  1  0
 18 16  1  0
 18 20  1  0
 18 19  1  1
 20 22  1  0
 21 20  2  0
M  END
$$$$
