SDT.pdb
     RDKit          3D

 22 21  0  0  1  0  0  0  0  0999 V2000
    8.2554  -12.5230   18.7993 O   0  0  0  0  0  0  0  0  0  0  0  0
    7.5817  -12.9634   17.6721 C   0  0  0  0  0  0  0  0  0  0  0  0
    8.4217  -14.0192   16.9736 C   0  0  2  0  0  0  0  0  0  0  0  0
    7.6113  -14.5959   15.8971 N   0  0  0  0  0  0  0  0  0  0  0  0
    8.7775  -15.1161   17.9170 C   0  0  0  0  0  0  0  0  0  0  0  0
    8.0517  -16.1625   18.0168 O   0  0  0  0  0  0  0  0  0  0  0  0
    9.9225  -15.0723   18.7500 N   0  0  0  0  0  0  0  0  0  0  0  0
   10.2512  -16.1931   19.6487 C   0  0  1  0  0  0  0  0  0  0  0  0
   11.4877  -16.8912   19.1717 C   0  0  0  0  0  0  0  0  0  0  0  0
   11.9146  -18.0365   19.9588 C   0  0  0  0  0  0  0  0  0  0  0  0
   11.1885  -18.6323   20.7834 O   0  0  0  0  0  0  0  0  0  0  0  0
   10.3933  -15.6569   21.0272 C   0  0  0  0  0  0  0  0  0  0  0  0
   10.9802  -14.5854   21.2138 O   0  0  0  0  0  0  0  0  0  0  0  0
   13.2300  -18.5415   19.8106 O   0  0  0  0  0  0  0  0  0  0  0  0
    7.0848  -15.3293   22.3487 C   0  0  0  0  0  0  0  0  0  0  0  0
    8.2794  -14.6471   22.9067 C   0  0  1  0  0  0  0  0  0  0  0  0
    7.9001  -13.8868   24.0110 O   0  0  0  0  0  0  0  0  0  0  0  0
    9.3969  -15.5849   23.2880 C   0  0  2  0  0  0  0  0  0  0  0  0
    9.8689  -16.3424   22.1577 N   0  0  0  0  0  0  0  0  0  0  0  0
    9.0600  -16.4832   24.3872 C   0  0  0  0  0  0  0  0  0  0  0  0
    8.6600  -15.9880   25.4728 O   0  0  0  0  0  0  0  0  0  0  0  0
    9.1468  -17.8665   24.3334 O   0  0  0  0  0  0  0  0  0  0  0  0
  1  2  1  0
  2  3  1  0
  3  4  1  6
  5  3  1  0
  5  7  1  0
  6  5  2  0
  8  7  1  0
  8 12  1  0
  8  9  1  6
 10  9  1  0
 10 14  1  0
 11 10  2  0
 12 13  2  0
 12 19  1  0
 16 15  1  1
 17 16  1  0
 18 16  1  0
 18 20  1  0
 18 19  1  6
 20 22  1  0
 21 20  2  0
M  END
$$$$
