YYF.pdb
     RDKit          3D

 36 38  0  0  1  0  0  0  0  0999 V2000
   35.1832  -27.3697  -23.9063 O   0  0  0  0  0  0  0  0  0  0  0  0
   35.4094  -28.4846  -23.1046 C   0  0  0  0  0  0  0  0  0  0  0  0
   34.5196  -28.8310  -22.1053 C   0  0  0  0  0  0  0  0  0  0  0  0
   34.7406  -29.9306  -21.3130 C   0  0  0  0  0  0  0  0  0  0  0  0
   35.8642  -30.7229  -21.4955 C   0  0  0  0  0  0  0  0  0  0  0  0
   36.1303  -31.9182  -20.6525 C   0  0  0  0  0  0  0  0  0  0  0  0
   36.8355  -31.4598  -19.3927 C   0  0  2  0  0  0  0  0  0  0  0  0
   38.2196  -31.1787  -19.6958 N   0  0  0  0  0  0  0  0  0  0  0  0
   36.7859  -32.4833  -18.3281 C   0  0  0  0  0  0  0  0  0  0  0  0
   37.7410  -33.2852  -18.2145 O   0  0  0  0  0  0  0  0  0  0  0  0
   36.7310  -30.3443  -22.5052 C   0  0  0  0  0  0  0  0  0  0  0  0
   36.5214  -29.2434  -23.3075 C   0  0  0  0  0  0  0  0  0  0  0  0
   41.9109  -33.0059  -15.5440 O   0  0  0  0  0  0  0  0  0  0  0  0
   40.5339  -33.0376  -15.4424 C   0  0  0  0  0  0  0  0  0  0  0  0
   39.8077  -31.8605  -15.5521 C   0  0  0  0  0  0  0  0  0  0  0  0
   38.4357  -31.8708  -15.4537 C   0  0  0  0  0  0  0  0  0  0  0  0
   37.7263  -33.0322  -15.2446 C   0  0  0  0  0  0  0  0  0  0  0  0
   36.2693  -33.0634  -15.1381 C   0  0  0  0  0  0  0  0  0  0  0  0
   35.5931  -33.5306  -16.4074 C   0  0  2  0  0  0  0  0  0  0  0  0
   35.6630  -32.5417  -17.4550 N   0  0  0  0  0  0  0  0  0  0  0  0
   34.1849  -33.9392  -16.1425 C   0  0  0  0  0  0  0  0  0  0  0  0
   33.4064  -33.1251  -15.5822 O   0  0  0  0  0  0  0  0  0  0  0  0
   38.4361  -34.2092  -15.1338 C   0  0  0  0  0  0  0  0  0  0  0  0
   39.8134  -34.1986  -15.2326 C   0  0  0  0  0  0  0  0  0  0  0  0
   33.6749  -35.2100  -16.4929 N   0  0  0  0  0  0  0  0  0  0  0  0
   32.2549  -35.5416  -16.4444 C   0  0  1  0  0  0  0  0  0  0  0  0
   31.4078  -34.4460  -16.9905 C   0  0  0  0  0  0  0  0  0  0  0  0
   30.3604  -33.9315  -16.1227 C   0  0  0  0  0  0  0  0  0  0  0  0
   30.3280  -32.5982  -15.7885 C   0  0  0  0  0  0  0  0  0  0  0  0
   29.3387  -32.0695  -14.9618 C   0  0  0  0  0  0  0  0  0  0  0  0
   28.3606  -32.9056  -14.4617 C   0  0  0  0  0  0  0  0  0  0  0  0
   28.3651  -34.2492  -14.7784 C   0  0  0  0  0  0  0  0  0  0  0  0
   29.3546  -34.7497  -15.5986 C   0  0  0  0  0  0  0  0  0  0  0  0
   31.9827  -36.8419  -17.0886 C   0  0  0  0  0  0  0  0  0  0  0  0
   32.9161  -37.4274  -17.6838 O   0  0  0  0  0  0  0  0  0  0  0  0
   30.7441  -37.4718  -17.0811 O   0  0  0  0  0  0  0  0  0  0  0  0
  2  1  1  0
  3  2  2  0
  4  3  1  0
  5  4  2  0
  5 11  1  0
  6  5  1  0
  7  9  1  0
  7  6  1  0
  7  8  1  6
  9 10  2  0
 11 12  2  0
 12  2  1  0
 13 14  1  0
 14 15  2  0
 15 16  1  0
 17 16  2  0
 17 18  1  0
 19 18  1  1
 19 21  1  0
 20 19  1  0
 20  9  1  0
 21 25  1  0
 21 22  2  0
 23 17  1  0
 24 14  1  0
 24 23  2  0
 25 26  1  0
 26 27  1  6
 28 27  1  0
 29 28  2  0
 30 29  1  0
 31 30  2  0
 31 32  1  0
 32 33  2  0
 33 28  1  0
 34 36  1  0
 34 26  1  0
 35 34  2  0
M  END
$$$$
