YYF.pdb
     RDKit          3D

 36 38  0  0  1  0  0  0  0  0999 V2000
   31.7250  -15.2480  -20.7380 O   0  0  0  0  0  0  0  0  0  0  0  0
   30.7923  -15.9666  -19.9957 C   0  0  0  0  0  0  0  0  0  0  0  0
   29.5897  -16.3556  -20.5548 C   0  0  0  0  0  0  0  0  0  0  0  0
   28.6680  -17.0646  -19.8245 C   0  0  0  0  0  0  0  0  0  0  0  0
   28.9207  -17.4089  -18.5050 C   0  0  0  0  0  0  0  0  0  0  0  0
   27.9414  -18.1747  -17.6895 C   0  0  0  0  0  0  0  0  0  0  0  0
   28.5225  -19.5473  -17.4202 C   0  0  2  0  0  0  0  0  0  0  0  0
   28.5775  -20.2933  -18.6560 N   0  0  0  0  0  0  0  0  0  0  0  0
   27.7124  -20.3091  -16.4471 C   0  0  0  0  0  0  0  0  0  0  0  0
   26.7518  -20.9952  -16.8649 O   0  0  0  0  0  0  0  0  0  0  0  0
   30.1347  -17.0019  -17.9808 C   0  0  0  0  0  0  0  0  0  0  0  0
   31.0686  -16.2901  -18.7025 C   0  0  0  0  0  0  0  0  0  0  0  0
   23.7317  -21.6403   -8.6881 O   0  0  0  0  0  0  0  0  0  0  0  0
   24.6633  -21.3123   -9.6536 C   0  0  0  0  0  0  0  0  0  0  0  0
   25.2205  -22.3100  -10.4405 C   0  0  0  0  0  0  0  0  0  0  0  0
   26.1499  -22.0040  -11.4073 C   0  0  0  0  0  0  0  0  0  0  0  0
   26.5666  -20.7122  -11.6383 C   0  0  0  0  0  0  0  0  0  0  0  0
   27.5519  -20.3674  -12.6608 C   0  0  0  0  0  0  0  0  0  0  0  0
   27.0788  -20.6711  -14.0646 C   0  0  2  0  0  0  0  0  0  0  0  0
   28.0334  -20.2521  -15.0614 N   0  0  0  0  0  0  0  0  0  0  0  0
   25.7370  -20.0742  -14.3162 C   0  0  0  0  0  0  0  0  0  0  0  0
   25.6214  -18.8221  -14.3551 O   0  0  0  0  0  0  0  0  0  0  0  0
   26.0206  -19.7111  -10.8630 C   0  0  0  0  0  0  0  0  0  0  0  0
   25.0876  -20.0185   -9.8925 C   0  0  0  0  0  0  0  0  0  0  0  0
   24.5746  -20.8536  -14.5151 N   0  0  0  0  0  0  0  0  0  0  0  0
   23.2356  -20.2815  -14.6065 C   0  0  1  0  0  0  0  0  0  0  0  0
   22.6628  -20.4193  -15.9736 C   0  0  0  0  0  0  0  0  0  0  0  0
   21.3174  -19.9060  -16.1763 C   0  0  0  0  0  0  0  0  0  0  0  0
   20.2407  -20.7611  -16.1773 C   0  0  0  0  0  0  0  0  0  0  0  0
   18.9375  -20.3051  -16.3661 C   0  0  0  0  0  0  0  0  0  0  0  0
   18.7169  -18.9560  -16.5580 C   0  0  0  0  0  0  0  0  0  0  0  0
   19.7766  -18.0712  -16.5624 C   0  0  0  0  0  0  0  0  0  0  0  0
   21.0577  -18.5461  -16.3735 C   0  0  0  0  0  0  0  0  0  0  0  0
   22.3446  -20.8254  -13.5623 C   0  0  0  0  0  0  0  0  0  0  0  0
   21.5838  -20.0413  -12.9502 O   0  0  0  0  0  0  0  0  0  0  0  0
   22.2901  -22.1671  -13.2052 O   0  0  0  0  0  0  0  0  0  0  0  0
  2  1  1  0
  3  2  2  0
  4  3  1  0
  5  4  2  0
  5 11  1  0
  6  5  1  0
  7  9  1  0
  7  6  1  0
  7  8  1  6
  9 10  2  0
 11 12  2  0
 12  2  1  0
 13 14  1  0
 14 15  2  0
 15 16  1  0
 17 16  2  0
 17 18  1  0
 19 18  1  1
 19 21  1  0
 20 19  1  0
 20  9  1  0
 21 25  1  0
 21 22  2  0
 23 17  1  0
 24 14  1  0
 24 23  2  0
 25 26  1  0
 26 27  1  6
 28 27  1  0
 29 28  2  0
 30 29  1  0
 31 30  2  0
 31 32  1  0
 32 33  2  0
 33 28  1  0
 34 36  1  0
 34 26  1  0
 35 34  2  0
M  END
$$$$
