YYF.pdb
     RDKit          3D

 36 38  0  0  1  0  0  0  0  0999 V2000
   33.3298  -18.4167  -20.4483 O   0  0  0  0  0  0  0  0  0  0  0  0
   32.3318  -18.2971  -19.4856 C   0  0  0  0  0  0  0  0  0  0  0  0
   31.5401  -19.3784  -19.1476 C   0  0  0  0  0  0  0  0  0  0  0  0
   30.5549  -19.2628  -18.1981 C   0  0  0  0  0  0  0  0  0  0  0  0
   30.3285  -18.0561  -17.5531 C   0  0  0  0  0  0  0  0  0  0  0  0
   29.2686  -17.9008  -16.5222 C   0  0  0  0  0  0  0  0  0  0  0  0
   27.9275  -18.1402  -17.1845 C   0  0  2  0  0  0  0  0  0  0  0  0
   27.6369  -17.0472  -18.0830 N   0  0  0  0  0  0  0  0  0  0  0  0
   26.8333  -18.2400  -16.1964 C   0  0  0  0  0  0  0  0  0  0  0  0
   26.6395  -17.2855  -15.4094 O   0  0  0  0  0  0  0  0  0  0  0  0
   31.1409  -16.9973  -17.9183 C   0  0  0  0  0  0  0  0  0  0  0  0
   32.1332  -17.0995  -18.8693 C   0  0  0  0  0  0  0  0  0  0  0  0
   19.7536  -20.6759  -11.6702 O   0  0  0  0  0  0  0  0  0  0  0  0
   20.7186  -20.5254  -12.6468 C   0  0  0  0  0  0  0  0  0  0  0  0
   20.9408  -19.2766  -13.2091 C   0  0  0  0  0  0  0  0  0  0  0  0
   21.8971  -19.1058  -14.1830 C   0  0  0  0  0  0  0  0  0  0  0  0
   22.6691  -20.1499  -14.6408 C   0  0  0  0  0  0  0  0  0  0  0  0
   23.6899  -19.9882  -15.6738 C   0  0  0  0  0  0  0  0  0  0  0  0
   25.0375  -19.5882  -15.1164 C   0  0  2  0  0  0  0  0  0  0  0  0
   26.0228  -19.4096  -16.1545 N   0  0  0  0  0  0  0  0  0  0  0  0
   25.5024  -20.5651  -14.0919 C   0  0  0  0  0  0  0  0  0  0  0  0
   25.7593  -21.7454  -14.4435 O   0  0  0  0  0  0  0  0  0  0  0  0
   22.4583  -21.3964  -14.0903 C   0  0  0  0  0  0  0  0  0  0  0  0
   21.4983  -21.5676  -13.1126 C   0  0  0  0  0  0  0  0  0  0  0  0
   25.6705  -20.2280  -12.7295 N   0  0  0  0  0  0  0  0  0  0  0  0
   25.9956  -21.2080  -11.6986 C   0  0  1  0  0  0  0  0  0  0  0  0
   27.3577  -20.9949  -11.1370 C   0  0  0  0  0  0  0  0  0  0  0  0
   27.4347  -20.4573   -9.7880 C   0  0  0  0  0  0  0  0  0  0  0  0
   27.1244  -19.1398   -9.5466 C   0  0  0  0  0  0  0  0  0  0  0  0
   27.1846  -18.5908   -8.2673 C   0  0  0  0  0  0  0  0  0  0  0  0
   27.5665  -19.3900   -7.2084 C   0  0  0  0  0  0  0  0  0  0  0  0
   27.8845  -20.7170   -7.4174 C   0  0  0  0  0  0  0  0  0  0  0  0
   27.8176  -21.2380   -8.6928 C   0  0  0  0  0  0  0  0  0  0  0  0
   24.9540  -21.2568  -10.6534 C   0  0  0  0  0  0  0  0  0  0  0  0
   24.9880  -22.1824   -9.8106 O   0  0  0  0  0  0  0  0  0  0  0  0
   23.9221  -20.3334  -10.5373 O   0  0  0  0  0  0  0  0  0  0  0  0
  2  1  1  0
  3  2  2  0
  4  3  1  0
  5  4  2  0
  5 11  1  0
  6  5  1  0
  7  9  1  0
  7  6  1  0
  7  8  1  6
  9 10  2  0
 11 12  2  0
 12  2  1  0
 13 14  1  0
 14 15  2  0
 15 16  1  0
 17 16  2  0
 17 18  1  0
 19 18  1  6
 19 21  1  0
 20 19  1  0
 20  9  1  0
 21 25  1  0
 21 22  2  0
 23 17  1  0
 24 14  1  0
 24 23  2  0
 25 26  1  0
 26 27  1  1
 28 27  1  0
 29 28  2  0
 30 29  1  0
 31 30  2  0
 31 32  1  0
 32 33  2  0
 33 28  1  0
 34 36  1  0
 34 26  1  0
 35 34  2  0
M  END
$$$$
