YYF.pdb
     RDKit          3D

 36 38  0  0  1  0  0  0  0  0999 V2000
   18.5744  -39.6602   -0.3027 O   0  0  0  0  0  0  0  0  0  0  0  0
   19.8046  -39.0961    0.0220 C   0  0  0  0  0  0  0  0  0  0  0  0
   19.8848  -37.8092    0.5198 C   0  0  0  0  0  0  0  0  0  0  0  0
   21.0974  -37.2506    0.8408 C   0  0  0  0  0  0  0  0  0  0  0  0
   22.2746  -37.9645    0.6735 C   0  0  0  0  0  0  0  0  0  0  0  0
   23.6016  -37.3853    1.0111 C   0  0  0  0  0  0  0  0  0  0  0  0
   23.9391  -36.3394   -0.0312 C   0  0  2  0  0  0  0  0  0  0  0  0
   24.1637  -36.9874   -1.3025 N   0  0  0  0  0  0  0  0  0  0  0  0
   25.1512  -35.5737    0.3267 C   0  0  0  0  0  0  0  0  0  0  0  0
   26.2619  -36.1514    0.3001 O   0  0  0  0  0  0  0  0  0  0  0  0
   22.1537  -39.2487    0.1731 C   0  0  0  0  0  0  0  0  0  0  0  0
   20.9433  -39.8215   -0.1531 C   0  0  0  0  0  0  0  0  0  0  0  0
   26.6599  -33.4605   -5.4094 O   0  0  0  0  0  0  0  0  0  0  0  0
   26.5878  -33.1564   -4.0640 C   0  0  0  0  0  0  0  0  0  0  0  0
   25.4529  -32.5402   -3.5569 C   0  0  0  0  0  0  0  0  0  0  0  0
   25.3615  -32.2290   -2.2201 C   0  0  0  0  0  0  0  0  0  0  0  0
   26.3764  -32.5096   -1.3330 C   0  0  0  0  0  0  0  0  0  0  0  0
   26.2976  -32.1876    0.0901 C   0  0  0  0  0  0  0  0  0  0  0  0
   26.2145  -33.4141    0.9706 C   0  0  2  0  0  0  0  0  0  0  0  0
   25.0391  -34.2026    0.6930 N   0  0  0  0  0  0  0  0  0  0  0  0
   26.2885  -33.0426    2.4116 C   0  0  0  0  0  0  0  0  0  0  0  0
   25.3132  -32.4509    2.9422 O   0  0  0  0  0  0  0  0  0  0  0  0
   27.5100  -33.1220   -1.8242 C   0  0  0  0  0  0  0  0  0  0  0  0
   27.6015  -33.4342   -3.1662 C   0  0  0  0  0  0  0  0  0  0  0  0
   27.4126  -33.3246    3.2209 N   0  0  0  0  0  0  0  0  0  0  0  0
   27.5581  -32.8301    4.5858 C   0  0  1  0  0  0  0  0  0  0  0  0
   28.4830  -33.6758    5.3892 C   0  0  0  0  0  0  0  0  0  0  0  0
   28.6987  -33.2814    6.7722 C   0  0  0  0  0  0  0  0  0  0  0  0
   27.8509  -33.7226    7.7606 C   0  0  0  0  0  0  0  0  0  0  0  0
   28.0279  -33.3672    9.0963 C   0  0  0  0  0  0  0  0  0  0  0  0
   29.0842  -32.5482    9.4414 C   0  0  0  0  0  0  0  0  0  0  0  0
   29.9535  -32.0881    8.4726 C   0  0  0  0  0  0  0  0  0  0  0  0
   29.7580  -32.4534    7.1570 C   0  0  0  0  0  0  0  0  0  0  0  0
   27.9360  -31.4029    4.6048 C   0  0  0  0  0  0  0  0  0  0  0  0
   27.3378  -30.6309    5.3886 O   0  0  0  0  0  0  0  0  0  0  0  0
   28.9241  -30.8472    3.8012 O   0  0  0  0  0  0  0  0  0  0  0  0
  2  1  1  0
  3  2  2  0
  4  3  1  0
  5  4  2  0
  5 11  1  0
  6  5  1  0
  7  9  1  0
  7  6  1  0
  7  8  1  6
  9 10  2  0
 11 12  2  0
 12  2  1  0
 13 14  1  0
 14 15  2  0
 15 16  1  0
 17 16  2  0
 17 18  1  0
 19 18  1  6
 19 21  1  0
 20 19  1  0
 20  9  1  0
 21 25  1  0
 21 22  2  0
 23 17  1  0
 24 14  1  0
 24 23  2  0
 25 26  1  0
 26 27  1  6
 28 27  1  0
 29 28  2  0
 30 29  1  0
 31 30  2  0
 31 32  1  0
 32 33  2  0
 33 28  1  0
 34 36  1  0
 34 26  1  0
 35 34  2  0
M  END
$$$$
