YYF.pdb
     RDKit          3D

 36 38  0  0  1  0  0  0  0  0999 V2000
   27.7771  -21.9323  -23.7582 O   0  0  0  0  0  0  0  0  0  0  0  0
   26.4217  -21.7964  -23.4726 C   0  0  0  0  0  0  0  0  0  0  0  0
   25.7523  -20.6209  -23.7562 C   0  0  0  0  0  0  0  0  0  0  0  0
   24.4151  -20.4844  -23.4754 C   0  0  0  0  0  0  0  0  0  0  0  0
   23.7009  -21.5243  -22.8990 C   0  0  0  0  0  0  0  0  0  0  0  0
   22.2531  -21.4050  -22.5827 C   0  0  0  0  0  0  0  0  0  0  0  0
   21.4720  -22.1064  -23.6747 C   0  0  2  0  0  0  0  0  0  0  0  0
   21.4621  -21.2809  -24.8600 N   0  0  0  0  0  0  0  0  0  0  0  0
   20.0745  -22.3688  -23.2729 C   0  0  0  0  0  0  0  0  0  0  0  0
   19.2791  -21.4056  -23.1847 O   0  0  0  0  0  0  0  0  0  0  0  0
   24.4053  -22.6843  -22.6301 C   0  0  0  0  0  0  0  0  0  0  0  0
   25.7470  -22.8347  -22.9068 C   0  0  0  0  0  0  0  0  0  0  0  0
   14.9931  -21.2659  -27.3649 O   0  0  0  0  0  0  0  0  0  0  0  0
   15.5984  -22.1111  -26.4555 C   0  0  0  0  0  0  0  0  0  0  0  0
   16.9391  -22.4360  -26.6034 C   0  0  0  0  0  0  0  0  0  0  0  0
   17.5604  -23.2759  -25.7086 C   0  0  0  0  0  0  0  0  0  0  0  0
   16.8923  -23.8272  -24.6383 C   0  0  0  0  0  0  0  0  0  0  0  0
   17.5350  -24.7207  -23.6771 C   0  0  0  0  0  0  0  0  0  0  0  0
   18.2980  -23.9817  -22.6009 C   0  0  2  0  0  0  0  0  0  0  0  0
   19.6569  -23.7010  -22.9947 N   0  0  0  0  0  0  0  0  0  0  0  0
   18.2515  -24.7229  -21.3092 C   0  0  0  0  0  0  0  0  0  0  0  0
   19.1678  -25.5417  -21.0398 O   0  0  0  0  0  0  0  0  0  0  0  0
   15.5592  -23.5124  -24.4798 C   0  0  0  0  0  0  0  0  0  0  0  0
   14.9358  -22.6692  -25.3782 C   0  0  0  0  0  0  0  0  0  0  0  0
   17.2173  -24.5501  -20.3612 N   0  0  0  0  0  0  0  0  0  0  0  0
   17.1710  -25.2659  -19.0907 C   0  0  1  0  0  0  0  0  0  0  0  0
   16.4490  -24.4940  -18.0423 C   0  0  0  0  0  0  0  0  0  0  0  0
   15.0985  -24.0587  -18.3608 C   0  0  0  0  0  0  0  0  0  0  0  0
   14.0142  -24.7800  -17.9201 C   0  0  0  0  0  0  0  0  0  0  0  0
   12.7063  -24.3921  -18.2040 C   0  0  0  0  0  0  0  0  0  0  0  0
   12.4886  -23.2506  -18.9491 C   0  0  0  0  0  0  0  0  0  0  0  0
   13.5560  -22.5041  -19.4065 C   0  0  0  0  0  0  0  0  0  0  0  0
   14.8418  -22.9080  -19.1129 C   0  0  0  0  0  0  0  0  0  0  0  0
   16.6329  -26.6304  -19.2600 C   0  0  0  0  0  0  0  0  0  0  0  0
   16.8052  -27.4649  -18.3423 O   0  0  0  0  0  0  0  0  0  0  0  0
   15.9380  -27.0606  -20.3837 O   0  0  0  0  0  0  0  0  0  0  0  0
  2  1  1  0
  3  2  2  0
  4  3  1  0
  5  4  2  0
  5 11  1  0
  6  5  1  0
  7  9  1  0
  7  6  1  0
  7  8  1  6
  9 10  2  0
 11 12  2  0
 12  2  1  0
 13 14  1  0
 14 15  2  0
 15 16  1  0
 17 16  2  0
 17 18  1  0
 19 18  1  6
 19 21  1  0
 20 19  1  0
 20  9  1  0
 21 25  1  0
 21 22  2  0
 23 17  1  0
 24 14  1  0
 24 23  2  0
 25 26  1  0
 26 27  1  1
 28 27  1  0
 29 28  2  0
 30 29  1  0
 31 30  2  0
 31 32  1  0
 32 33  2  0
 33 28  1  0
 34 36  1  0
 34 26  1  0
 35 34  2  0
M  END
$$$$
