YYF.pdb
     RDKit          3D

 36 38  0  0  1  0  0  0  0  0999 V2000
   39.2093  -30.5673  -23.0386 O   0  0  0  0  0  0  0  0  0  0  0  0
   37.9734  -30.6147  -22.4003 C   0  0  0  0  0  0  0  0  0  0  0  0
   37.1804  -31.7442  -22.4746 C   0  0  0  0  0  0  0  0  0  0  0  0
   35.9607  -31.7933  -21.8457 C   0  0  0  0  0  0  0  0  0  0  0  0
   35.4926  -30.7090  -21.1187 C   0  0  0  0  0  0  0  0  0  0  0  0
   34.1760  -30.7328  -20.4285 C   0  0  0  0  0  0  0  0  0  0  0  0
   33.0983  -30.4635  -21.4583 C   0  0  2  0  0  0  0  0  0  0  0  0
   33.0976  -29.0581  -21.7923 N   0  0  0  0  0  0  0  0  0  0  0  0
   31.7556  -30.8292  -20.9615 C   0  0  0  0  0  0  0  0  0  0  0  0
   30.9693  -29.9180  -20.6158 O   0  0  0  0  0  0  0  0  0  0  0  0
   36.3144  -29.5971  -21.0674 C   0  0  0  0  0  0  0  0  0  0  0  0
   37.5405  -29.5345  -21.6938 C   0  0  0  0  0  0  0  0  0  0  0  0
   27.1227  -30.6251  -25.8801 O   0  0  0  0  0  0  0  0  0  0  0  0
   27.6926  -31.3246  -24.8344 C   0  0  0  0  0  0  0  0  0  0  0  0
   27.0095  -31.4450  -23.6327 C   0  0  0  0  0  0  0  0  0  0  0  0
   27.5598  -32.1374  -22.5792 C   0  0  0  0  0  0  0  0  0  0  0  0
   28.7968  -32.7360  -22.6641 C   0  0  0  0  0  0  0  0  0  0  0  0
   29.3976  -33.4761  -21.5565 C   0  0  0  0  0  0  0  0  0  0  0  0
   30.0353  -32.5773  -20.5212 C   0  0  2  0  0  0  0  0  0  0  0  0
   31.3793  -32.2000  -20.8842 N   0  0  0  0  0  0  0  0  0  0  0  0
   29.9963  -33.2068  -19.1713 C   0  0  0  0  0  0  0  0  0  0  0  0
   30.6626  -34.2537  -18.9645 O   0  0  0  0  0  0  0  0  0  0  0  0
   29.4864  -32.6238  -23.8529 C   0  0  0  0  0  0  0  0  0  0  0  0
   28.9337  -31.9287  -24.9104 C   0  0  0  0  0  0  0  0  0  0  0  0
   29.2391  -32.6806  -18.0999 N   0  0  0  0  0  0  0  0  0  0  0  0
   29.1937  -33.2944  -16.7771 C   0  0  1  0  0  0  0  0  0  0  0  0
   28.8901  -32.3001  -15.7115 C   0  0  0  0  0  0  0  0  0  0  0  0
   27.5631  -31.7055  -15.7275 C   0  0  0  0  0  0  0  0  0  0  0  0
   26.5670  -32.2086  -14.9244 C   0  0  0  0  0  0  0  0  0  0  0  0
   25.2847  -31.6633  -14.9116 C   0  0  0  0  0  0  0  0  0  0  0  0
   25.0023  -30.5863  -15.7277 C   0  0  0  0  0  0  0  0  0  0  0  0
   25.9805  -30.0577  -16.5459 C   0  0  0  0  0  0  0  0  0  0  0  0
   27.2425  -30.6145  -16.5414 C   0  0  0  0  0  0  0  0  0  0  0  0
   28.2756  -34.4504  -16.7504 C   0  0  0  0  0  0  0  0  0  0  0  0
   28.4224  -35.3168  -15.8582 O   0  0  0  0  0  0  0  0  0  0  0  0
   27.2438  -34.6479  -17.6600 O   0  0  0  0  0  0  0  0  0  0  0  0
  2  1  1  0
  3  2  2  0
  4  3  1  0
  5  4  2  0
  5 11  1  0
  6  5  1  0
  7  9  1  0
  7  6  1  0
  7  8  1  1
  9 10  2  0
 11 12  2  0
 12  2  1  0
 13 14  1  0
 14 15  2  0
 15 16  1  0
 17 16  2  0
 17 18  1  0
 19 18  1  6
 19 21  1  0
 20 19  1  0
 20  9  1  0
 21 25  1  0
 21 22  2  0
 23 17  1  0
 24 14  1  0
 24 23  2  0
 25 26  1  0
 26 27  1  1
 28 27  1  0
 29 28  2  0
 30 29  1  0
 31 30  2  0
 31 32  1  0
 32 33  2  0
 33 28  1  0
 34 36  1  0
 34 26  1  0
 35 34  2  0
M  END
$$$$
