YYF.pdb
     RDKit          3D

 36 38  0  0  1  0  0  0  0  0999 V2000
   22.6659  -41.8755  -17.6168 O   0  0  0  0  0  0  0  0  0  0  0  0
   23.0265  -40.7561  -16.8724 C   0  0  0  0  0  0  0  0  0  0  0  0
   22.0649  -39.9030  -16.3646 C   0  0  0  0  0  0  0  0  0  0  0  0
   22.4182  -38.7981  -15.6299 C   0  0  0  0  0  0  0  0  0  0  0  0
   23.7512  -38.5093  -15.3782 C   0  0  0  0  0  0  0  0  0  0  0  0
   24.1636  -37.3200  -14.5873 C   0  0  0  0  0  0  0  0  0  0  0  0
   23.8798  -36.0823  -15.4133 C   0  0  2  0  0  0  0  0  0  0  0  0
   24.9144  -35.9255  -16.4091 N   0  0  0  0  0  0  0  0  0  0  0  0
   23.8381  -34.8611  -14.5824 C   0  0  0  0  0  0  0  0  0  0  0  0
   24.7636  -34.0243  -14.6896 O   0  0  0  0  0  0  0  0  0  0  0  0
   24.6840  -39.3862  -15.9028 C   0  0  0  0  0  0  0  0  0  0  0  0
   24.3433  -40.4986  -16.6417 C   0  0  0  0  0  0  0  0  0  0  0  0
   21.0695  -27.9592  -10.0377 O   0  0  0  0  0  0  0  0  0  0  0  0
   21.1363  -29.1406  -10.7502 C   0  0  0  0  0  0  0  0  0  0  0  0
   20.7340  -30.3276  -10.1552 C   0  0  0  0  0  0  0  0  0  0  0  0
   20.7928  -31.5147  -10.8477 C   0  0  0  0  0  0  0  0  0  0  0  0
   21.2470  -31.5822  -12.1457 C   0  0  0  0  0  0  0  0  0  0  0  0
   21.3162  -32.8331  -12.8978 C   0  0  0  0  0  0  0  0  0  0  0  0
   22.6886  -33.4672  -12.8665 C   0  0  2  0  0  0  0  0  0  0  0  0
   22.7559  -34.6559  -13.6807 N   0  0  0  0  0  0  0  0  0  0  0  0
   23.1159  -33.7457  -11.4665 C   0  0  0  0  0  0  0  0  0  0  0  0
   22.6416  -34.7463  -10.8693 O   0  0  0  0  0  0  0  0  0  0  0  0
   21.6500  -30.4095  -12.7488 C   0  0  0  0  0  0  0  0  0  0  0  0
   21.5908  -29.2180  -12.0534 C   0  0  0  0  0  0  0  0  0  0  0  0
   24.0373  -32.9324  -10.7683 N   0  0  0  0  0  0  0  0  0  0  0  0
   24.4234  -33.1722   -9.3819 C   0  0  1  0  0  0  0  0  0  0  0  0
   25.4168  -32.1739   -8.8994 C   0  0  0  0  0  0  0  0  0  0  0  0
   25.9563  -32.3773   -7.5644 C   0  0  0  0  0  0  0  0  0  0  0  0
   25.4078  -31.7231   -6.4866 C   0  0  0  0  0  0  0  0  0  0  0  0
   25.8968  -31.8951   -5.1932 C   0  0  0  0  0  0  0  0  0  0  0  0
   26.9631  -32.7464   -4.9835 C   0  0  0  0  0  0  0  0  0  0  0  0
   27.5363  -33.4181   -6.0446 C   0  0  0  0  0  0  0  0  0  0  0  0
   27.0350  -33.2319   -7.3161 C   0  0  0  0  0  0  0  0  0  0  0  0
   23.2417  -33.2653   -8.5016 C   0  0  0  0  0  0  0  0  0  0  0  0
   23.1382  -34.2483   -7.7327 O   0  0  0  0  0  0  0  0  0  0  0  0
   22.2199  -32.3243   -8.4659 O   0  0  0  0  0  0  0  0  0  0  0  0
  2  1  1  0
  3  2  2  0
  4  3  1  0
  5  4  2  0
  5 11  1  0
  6  5  1  0
  7  9  1  0
  7  6  1  0
  7  8  1  6
  9 10  2  0
 11 12  2  0
 12  2  1  0
 13 14  1  0
 14 15  2  0
 15 16  1  0
 17 16  2  0
 17 18  1  0
 19 18  1  1
 19 21  1  0
 20 19  1  0
 20  9  1  0
 21 25  1  0
 21 22  2  0
 23 17  1  0
 24 14  1  0
 24 23  2  0
 25 26  1  0
 26 27  1  1
 28 27  1  0
 29 28  2  0
 30 29  1  0
 31 30  2  0
 31 32  1  0
 32 33  2  0
 33 28  1  0
 34 36  1  0
 34 26  1  0
 35 34  2  0
M  END
$$$$
