IFG.pdb
     RDKit          3D

 24 24  0  0  1  0  0  0  0  0999 V2000
    7.9508  -20.3362   18.8343 C   0  0  0  0  0  0  0  0  0  0  0  0
    7.1681  -19.0605   19.0326 C   0  0  0  0  0  0  0  0  0  0  0  0
    7.7828  -18.1578   20.0460 C   0  0  2  0  0  0  0  0  0  0  0  0
    8.0584  -18.9256   21.3191 C   0  0  0  0  0  0  0  0  0  0  0  0
    7.0338  -16.8944   20.2678 C   0  0  2  0  0  0  0  0  0  0  0  0
    6.7326  -16.2188   18.9993 N   0  0  0  0  0  0  0  0  0  0  0  0
    7.6089  -15.9428   21.2133 C   0  0  0  0  0  0  0  0  0  0  0  0
    8.5490  -15.1390   20.9904 O   0  0  0  0  0  0  0  0  0  0  0  0
    7.0652  -15.9002   22.5355 N   0  0  0  0  0  0  0  0  0  0  0  0
    7.5718  -14.9472   23.5319 C   0  0  1  0  0  0  0  0  0  0  0  0
    6.4218  -14.4753   24.3904 C   0  0  0  0  0  0  0  0  0  0  0  0
    6.7895  -13.4917   25.4102 C   0  0  0  0  0  0  0  0  0  0  0  0
    7.0610  -12.1511   25.0862 C   0  0  0  0  0  0  0  0  0  0  0  0
    7.4042  -11.2249   26.0247 C   0  0  0  0  0  0  0  0  0  0  0  0
    7.5013  -11.5655   27.3481 C   0  0  0  0  0  0  0  0  0  0  0  0
    7.2375  -12.8907   27.7025 C   0  0  0  0  0  0  0  0  0  0  0  0
    6.8922  -13.8144   26.7440 C   0  0  0  0  0  0  0  0  0  0  0  0
    8.5451  -15.6643   24.3592 C   0  0  0  0  0  0  0  0  0  0  0  0
    8.1838  -16.1335   25.4595 O   0  0  0  0  0  0  0  0  0  0  0  0
    9.8946  -15.8625   23.9722 N   0  0  0  0  0  0  0  0  0  0  0  0
   10.8637  -16.2310   24.9930 C   0  0  0  0  0  0  0  0  0  0  0  0
   12.2499  -16.0250   24.5358 C   0  0  0  0  0  0  0  0  0  0  0  0
   12.5321  -15.5815   23.2583 O   0  0  0  0  0  0  0  0  0  0  0  0
   13.1970  -16.2559   25.3196 O   0  0  0  0  0  0  0  0  0  0  0  0
  2  1  1  0
  3  2  1  0
  3  5  1  0
  3  4  1  1
  5  6  1  6
  5  7  1  0
  7  8  2  0
  9  7  1  0
  9 10  1  0
 10 11  1  1
 11 12  1  0
 12 13  2  0
 13 14  1  0
 15 14  2  0
 16 15  1  0
 17 12  1  0
 17 16  2  0
 18 10  1  0
 18 20  1  0
 19 18  2  0
 21 22  1  0
 21 20  1  0
 22 23  1  0
 24 22  2  0
M  END
$$$$
