IFG.pdb
     RDKit          3D

 24 24  0  0  1  0  0  0  0  0999 V2000
    7.1447  -18.3829   18.6539 C   0  0  0  0  0  0  0  0  0  0  0  0
    6.6235  -17.2128   19.4529 C   0  0  0  0  0  0  0  0  0  0  0  0
    7.5651  -16.7795   20.5231 C   0  0  2  0  0  0  0  0  0  0  0  0
    8.0621  -17.9842   21.2898 C   0  0  0  0  0  0  0  0  0  0  0  0
    7.0371  -15.6996   21.3959 C   0  0  2  0  0  0  0  0  0  0  0  0
    6.4543  -14.6075   20.6061 N   0  0  0  0  0  0  0  0  0  0  0  0
    7.9478  -15.1564   22.3989 C   0  0  0  0  0  0  0  0  0  0  0  0
    8.7181  -14.1734   22.2586 O   0  0  0  0  0  0  0  0  0  0  0  0
    7.9867  -15.7889   23.6811 N   0  0  0  0  0  0  0  0  0  0  0  0
    8.9497  -15.3642   24.7056 C   0  0  1  0  0  0  0  0  0  0  0  0
    8.2179  -15.1491   26.0096 C   0  0  0  0  0  0  0  0  0  0  0  0
    7.6964  -13.7942   26.1965 C   0  0  0  0  0  0  0  0  0  0  0  0
    8.5301  -12.7188   26.5495 C   0  0  0  0  0  0  0  0  0  0  0  0
    8.0586  -11.4528   26.7266 C   0  0  0  0  0  0  0  0  0  0  0  0
    6.7284  -11.1676   26.5656 C   0  0  0  0  0  0  0  0  0  0  0  0
    5.8736  -12.2151   26.2147 C   0  0  0  0  0  0  0  0  0  0  0  0
    6.3641  -13.4879   26.0394 C   0  0  0  0  0  0  0  0  0  0  0  0
    9.9238  -16.4477   24.8579 C   0  0  0  0  0  0  0  0  0  0  0  0
    9.7480  -17.3068   25.7481 O   0  0  0  0  0  0  0  0  0  0  0  0
   11.0708  -16.5802   24.0351 N   0  0  0  0  0  0  0  0  0  0  0  0
   12.3288  -16.9704   24.6532 C   0  0  0  0  0  0  0  0  0  0  0  0
   13.4630  -16.8447   23.7199 C   0  0  0  0  0  0  0  0  0  0  0  0
   14.1402  -15.6513   23.5610 O   0  0  0  0  0  0  0  0  0  0  0  0
   13.8247  -17.8396   23.0537 O   0  0  0  0  0  0  0  0  0  0  0  0
  2  1  1  0
  3  2  1  0
  3  5  1  0
  3  4  1  1
  5  6  1  6
  5  7  1  0
  7  8  2  0
  9  7  1  0
  9 10  1  0
 10 11  1  1
 11 12  1  0
 12 13  2  0
 13 14  1  0
 15 14  2  0
 16 15  1  0
 17 12  1  0
 17 16  2  0
 18 10  1  0
 18 20  1  0
 19 18  2  0
 21 22  1  0
 21 20  1  0
 22 23  1  0
 24 22  2  0
M  END
$$$$
