IFG.pdb
     RDKit          3D

 24 24  0  0  1  0  0  0  0  0999 V2000
    7.0942  -12.2654   19.0630 C   0  0  0  0  0  0  0  0  0  0  0  0
    7.2398  -13.6356   19.6799 C   0  0  0  0  0  0  0  0  0  0  0  0
    8.0337  -13.6196   20.9406 C   0  0  2  0  0  0  0  0  0  0  0  0
    9.2879  -12.7973   20.7484 C   0  0  0  0  0  0  0  0  0  0  0  0
    8.2912  -14.9658   21.5132 C   0  0  2  0  0  0  0  0  0  0  0  0
    7.0557  -15.7536   21.6099 N   0  0  0  0  0  0  0  0  0  0  0  0
    9.0138  -15.0175   22.7803 C   0  0  0  0  0  0  0  0  0  0  0  0
   10.1527  -14.5405   23.0143 O   0  0  0  0  0  0  0  0  0  0  0  0
    8.3836  -15.6723   23.8847 N   0  0  0  0  0  0  0  0  0  0  0  0
    8.9900  -15.6530   25.2224 C   0  0  1  0  0  0  0  0  0  0  0  0
    7.9074  -15.4209   26.2501 C   0  0  0  0  0  0  0  0  0  0  0  0
    7.4260  -14.0405   26.3234 C   0  0  0  0  0  0  0  0  0  0  0  0
    8.2841  -12.9690   26.6258 C   0  0  0  0  0  0  0  0  0  0  0  0
    7.8500  -11.6795   26.6972 C   0  0  0  0  0  0  0  0  0  0  0  0
    6.5355  -11.3653   26.4737 C   0  0  0  0  0  0  0  0  0  0  0  0
    5.6571  -12.4083   26.1708 C   0  0  0  0  0  0  0  0  0  0  0  0
    6.1099  -13.7050   26.1022 C   0  0  0  0  0  0  0  0  0  0  0  0
    9.6030  -16.9660   25.4374 C   0  0  0  0  0  0  0  0  0  0  0  0
    9.8423  -17.3451   26.6038 O   0  0  0  0  0  0  0  0  0  0  0  0
    9.9407  -17.8465   24.3787 N   0  0  0  0  0  0  0  0  0  0  0  0
   10.5045  -19.1465   24.7085 C   0  0  0  0  0  0  0  0  0  0  0  0
   11.9314  -19.0528   25.0672 C   0  0  0  0  0  0  0  0  0  0  0  0
   12.8707  -18.5689   24.1773 O   0  0  0  0  0  0  0  0  0  0  0  0
   12.3056  -19.4188   26.2032 O   0  0  0  0  0  0  0  0  0  0  0  0
  2  1  1  0
  3  2  1  0
  3  5  1  0
  3  4  1  6
  5  6  1  1
  5  7  1  0
  7  8  2  0
  9  7  1  0
  9 10  1  0
 10 11  1  1
 11 12  1  0
 12 13  2  0
 13 14  1  0
 15 14  2  0
 16 15  1  0
 17 12  1  0
 17 16  2  0
 18 10  1  0
 18 20  1  0
 19 18  2  0
 21 22  1  0
 21 20  1  0
 22 23  1  0
 24 22  2  0
M  END
$$$$
