IFG.pdb
     RDKit          3D

 24 24  0  0  1  0  0  0  0  0999 V2000
    9.3707  -19.3132   19.6038 C   0  0  0  0  0  0  0  0  0  0  0  0
    9.2258  -17.8168   19.7423 C   0  0  0  0  0  0  0  0  0  0  0  0
    7.8084  -17.3866   19.9029 C   0  0  2  0  0  0  0  0  0  0  0  0
    6.9718  -17.9382   18.7706 C   0  0  0  0  0  0  0  0  0  0  0  0
    7.6367  -15.9254   20.1075 C   0  0  2  0  0  0  0  0  0  0  0  0
    8.0801  -15.1629   18.9334 N   0  0  0  0  0  0  0  0  0  0  0  0
    8.2182  -15.3552   21.3188 C   0  0  0  0  0  0  0  0  0  0  0  0
    9.2286  -14.6111   21.3873 O   0  0  0  0  0  0  0  0  0  0  0  0
    7.5933  -15.6588   22.5690 N   0  0  0  0  0  0  0  0  0  0  0  0
    8.1132  -15.1096   23.8281 C   0  0  1  0  0  0  0  0  0  0  0  0
    6.9819  -15.0061   24.8240 C   0  0  0  0  0  0  0  0  0  0  0  0
    7.0011  -13.7911   25.6402 C   0  0  0  0  0  0  0  0  0  0  0  0
    5.9476  -12.8609   25.6132 C   0  0  0  0  0  0  0  0  0  0  0  0
    5.9519  -11.7261   26.3674 C   0  0  0  0  0  0  0  0  0  0  0  0
    7.0012  -11.4371   27.1993 C   0  0  0  0  0  0  0  0  0  0  0  0
    8.0641  -12.3422   27.2486 C   0  0  0  0  0  0  0  0  0  0  0  0
    8.0456  -13.4835   26.4815 C   0  0  0  0  0  0  0  0  0  0  0  0
    9.1239  -16.0472   24.3233 C   0  0  0  0  0  0  0  0  0  0  0  0
    8.8183  -17.2487   24.4801 O   0  0  0  0  0  0  0  0  0  0  0  0
   10.4523  -15.6618   24.6349 N   0  0  0  0  0  0  0  0  0  0  0  0
   11.3896  -16.6860   25.0699 C   0  0  0  0  0  0  0  0  0  0  0  0
   12.5900  -16.7322   24.2155 C   0  0  0  0  0  0  0  0  0  0  0  0
   13.5907  -15.7858   24.3219 O   0  0  0  0  0  0  0  0  0  0  0  0
   12.7102  -17.6483   23.3722 O   0  0  0  0  0  0  0  0  0  0  0  0
  2  1  1  0
  3  2  1  0
  3  5  1  0
  3  4  1  6
  5  6  1  6
  5  7  1  0
  7  8  2  0
  9  7  1  0
  9 10  1  0
 10 11  1  1
 11 12  1  0
 12 13  2  0
 13 14  1  0
 15 14  2  0
 16 15  1  0
 17 12  1  0
 17 16  2  0
 18 10  1  0
 18 20  1  0
 19 18  2  0
 21 22  1  0
 21 20  1  0
 22 23  1  0
 24 22  2  0
M  END
$$$$
