IFG.pdb
     RDKit          3D

 24 24  0  0  1  0  0  0  0  0999 V2000
    7.0180  -12.4577   18.9559 C   0  0  0  0  0  0  0  0  0  0  0  0
    7.1394  -13.7919   19.6520 C   0  0  0  0  0  0  0  0  0  0  0  0
    8.1330  -13.7754   20.7621 C   0  0  2  0  0  0  0  0  0  0  0  0
    9.4590  -13.2522   20.2579 C   0  0  0  0  0  0  0  0  0  0  0  0
    8.2453  -15.0621   21.4957 C   0  0  2  0  0  0  0  0  0  0  0  0
    6.9332  -15.6985   21.6678 N   0  0  0  0  0  0  0  0  0  0  0  0
    8.9558  -15.0358   22.7705 C   0  0  0  0  0  0  0  0  0  0  0  0
   10.0894  -14.5387   22.9873 O   0  0  0  0  0  0  0  0  0  0  0  0
    8.3186  -15.6299   23.9049 N   0  0  0  0  0  0  0  0  0  0  0  0
    8.9340  -15.5680   25.2372 C   0  0  1  0  0  0  0  0  0  0  0  0
    7.8487  -15.3869   26.2724 C   0  0  0  0  0  0  0  0  0  0  0  0
    7.3295  -14.0221   26.3750 C   0  0  0  0  0  0  0  0  0  0  0  0
    8.1443  -12.9439   26.7616 C   0  0  0  0  0  0  0  0  0  0  0  0
    7.6747  -11.6687   26.8612 C   0  0  0  0  0  0  0  0  0  0  0  0
    6.3652  -11.3766   26.5842 C   0  0  0  0  0  0  0  0  0  0  0  0
    5.5295  -12.4268   26.1973 C   0  0  0  0  0  0  0  0  0  0  0  0
    6.0178  -13.7089   26.1011 C   0  0  0  0  0  0  0  0  0  0  0  0
    9.6185  -16.8444   25.4562 C   0  0  0  0  0  0  0  0  0  0  0  0
   10.0884  -17.0999   26.5855 O   0  0  0  0  0  0  0  0  0  0  0  0
    9.7758  -17.8235   24.4429 N   0  0  0  0  0  0  0  0  0  0  0  0
   10.3961  -19.0923   24.7922 C   0  0  0  0  0  0  0  0  0  0  0  0
   11.8621  -18.9780   24.8970 C   0  0  0  0  0  0  0  0  0  0  0  0
   12.5848  -19.7396   25.7948 O   0  0  0  0  0  0  0  0  0  0  0  0
   12.4710  -18.1735   24.1575 O   0  0  0  0  0  0  0  0  0  0  0  0
  2  1  1  0
  3  2  1  0
  3  5  1  0
  3  4  1  6
  5  6  1  1
  5  7  1  0
  7  8  2  0
  9  7  1  0
  9 10  1  0
 10 11  1  1
 11 12  1  0
 12 13  2  0
 13 14  1  0
 15 14  2  0
 16 15  1  0
 17 12  1  0
 17 16  2  0
 18 10  1  0
 18 20  1  0
 19 18  2  0
 21 22  1  0
 21 20  1  0
 22 23  1  0
 24 22  2  0
M  END
$$$$
