IFG.pdb
     RDKit          3D

 24 24  0  0  1  0  0  0  0  0999 V2000
    8.3873  -12.0746   19.3734 C   0  0  0  0  0  0  0  0  0  0  0  0
    7.6291  -12.9979   20.2965 C   0  0  0  0  0  0  0  0  0  0  0  0
    8.0832  -14.4135   20.1975 C   0  0  2  0  0  0  0  0  0  0  0  0
    7.9541  -14.8966   18.7706 C   0  0  0  0  0  0  0  0  0  0  0  0
    7.4549  -15.3236   21.1892 C   0  0  2  0  0  0  0  0  0  0  0  0
    6.0329  -15.5404   20.8937 N   0  0  0  0  0  0  0  0  0  0  0  0
    7.6232  -14.9824   22.5983 C   0  0  0  0  0  0  0  0  0  0  0  0
    6.8811  -14.2338   23.2826 O   0  0  0  0  0  0  0  0  0  0  0  0
    8.7387  -15.5444   23.2951 N   0  0  0  0  0  0  0  0  0  0  0  0
    8.9733  -15.2458   24.7140 C   0  0  1  0  0  0  0  0  0  0  0  0
    7.6539  -15.2825   25.4491 C   0  0  0  0  0  0  0  0  0  0  0  0
    7.2339  -13.9960   26.0068 C   0  0  0  0  0  0  0  0  0  0  0  0
    8.1564  -12.9776   26.3032 C   0  0  0  0  0  0  0  0  0  0  0  0
    7.7799  -11.7755   26.8224 C   0  0  0  0  0  0  0  0  0  0  0  0
    6.4630  -11.5020   27.0829 C   0  0  0  0  0  0  0  0  0  0  0  0
    5.5215  -12.4940   26.7992 C   0  0  0  0  0  0  0  0  0  0  0  0
    5.9166  -13.7026   26.2753 C   0  0  0  0  0  0  0  0  0  0  0  0
    9.8587  -16.2904   25.2343 C   0  0  0  0  0  0  0  0  0  0  0  0
    9.3830  -17.1883   25.9616 O   0  0  0  0  0  0  0  0  0  0  0  0
   11.2467  -16.3426   24.9498 N   0  0  0  0  0  0  0  0  0  0  0  0
   11.7660  -17.4952   24.2297 C   0  0  0  0  0  0  0  0  0  0  0  0
   13.2285  -17.4240   24.0584 C   0  0  0  0  0  0  0  0  0  0  0  0
   14.0451  -18.4971   24.3583 O   0  0  0  0  0  0  0  0  0  0  0  0
   13.7474  -16.3689   23.6317 O   0  0  0  0  0  0  0  0  0  0  0  0
  2  1  1  0
  3  2  1  0
  3  5  1  0
  3  4  1  6
  5  6  1  6
  5  7  1  0
  7  8  2  0
  9  7  1  0
  9 10  1  0
 10 11  1  1
 11 12  1  0
 12 13  2  0
 13 14  1  0
 15 14  2  0
 16 15  1  0
 17 12  1  0
 17 16  2  0
 18 10  1  0
 18 20  1  0
 19 18  2  0
 21 22  1  0
 21 20  1  0
 22 23  1  0
 24 22  2  0
M  END
$$$$
