FTK.pdb
     RDKit          3D

 28 28  0  0  1  0  0  0  0  0999 V2000
    6.5811  -16.4111   25.4574 N   0  0  0  0  0  0  0  0  0  0  0  0
    7.2315  -15.5930   24.4249 C   0  0  1  0  0  0  0  0  0  0  0  0
    8.1722  -14.6381   25.1662 C   0  0  0  0  0  0  0  0  0  0  0  0
    7.3971  -13.5200   25.7423 C   0  0  0  0  0  0  0  0  0  0  0  0
    7.0429  -12.4218   24.9815 C   0  0  0  0  0  0  0  0  0  0  0  0
    6.3147  -11.3871   25.5501 C   0  0  0  0  0  0  0  0  0  0  0  0
    5.9271  -11.4207   26.8721 C   0  0  0  0  0  0  0  0  0  0  0  0
    6.2760  -12.5136   27.6411 C   0  0  0  0  0  0  0  0  0  0  0  0
    7.0069  -13.5472   27.0615 C   0  0  0  0  0  0  0  0  0  0  0  0
    8.0915  -16.5021   23.6398 C   0  0  0  0  0  0  0  0  0  0  0  0
    8.4299  -17.5916   24.1492 O   0  0  0  0  0  0  0  0  0  0  0  0
    7.6961  -16.8117   19.7802 C   0  0  0  0  0  0  0  0  0  0  0  0
    9.1770  -16.8556   20.0685 C   0  0  1  0  0  0  0  0  0  0  0  0
    9.7124  -15.6165   19.7440 O   0  0  0  0  0  0  0  0  0  0  0  0
    9.3592  -17.0848   21.5322 C   0  0  2  0  0  0  0  0  0  0  0  0
    8.5508  -16.2113   22.3517 N   0  0  0  0  0  0  0  0  0  0  0  0
   10.7815  -16.8230   21.8822 C   0  0  0  0  0  0  0  0  0  0  0  0
   11.0642  -15.8290   22.6460 O   0  0  0  0  0  0  0  0  0  0  0  0
   11.8893  -17.5723   21.4541 N   0  0  0  0  0  0  0  0  0  0  0  0
   12.9146  -17.9811   22.3599 C   0  0  1  0  0  0  0  0  0  0  0  0
   12.4235  -18.8391   23.4911 C   0  0  0  0  0  0  0  0  0  0  0  0
   13.5080  -19.2977   24.4100 C   0  0  0  0  0  0  0  0  0  0  0  0
   12.9836  -20.1442   25.5275 C   0  0  0  0  0  0  0  0  0  0  0  0
   14.0796  -20.6942   26.4103 C   0  0  0  0  0  0  0  0  0  0  0  0
   13.5266  -21.4129   27.5428 N   0  0  0  0  0  0  0  0  0  0  0  0
   13.9626  -18.7512   21.6471 C   0  0  0  0  0  0  0  0  0  0  0  0
   13.6038  -19.7538   20.9824 O   0  0  0  0  0  0  0  0  0  0  0  0
   15.3021  -18.4151   21.6835 O   0  0  0  0  0  0  0  0  0  0  0  0
  2  1  1  1
  2  3  1  0
  3  4  1  0
  4  9  2  0
  5  6  2  0
  5  4  1  0
  6  7  1  0
  7  8  2  0
  9  8  1  0
 10  2  1  0
 10 16  1  0
 11 10  2  0
 13 12  1  1
 13 15  1  0
 14 13  1  0
 15 16  1  1
 17 15  1  0
 18 17  2  0
 19 17  1  0
 20 19  1  0
 20 26  1  0
 20 21  1  1
 22 21  1  0
 23 22  1  0
 24 23  1  0
 24 25  1  0
 26 28  1  0
 27 26  2  0
M  END
$$$$
