FTK.pdb
     RDKit          3D

 28 28  0  0  1  0  0  0  0  0999 V2000
    5.6637  -18.0236   25.2430 N   0  0  0  0  0  0  0  0  0  0  0  0
    6.1719  -16.6558   25.0712 C   0  0  1  0  0  0  0  0  0  0  0  0
    6.7457  -16.2396   26.4291 C   0  0  0  0  0  0  0  0  0  0  0  0
    6.9624  -14.7784   26.4535 C   0  0  0  0  0  0  0  0  0  0  0  0
    5.9026  -13.8944   26.5294 C   0  0  0  0  0  0  0  0  0  0  0  0
    6.1372  -12.5273   26.5506 C   0  0  0  0  0  0  0  0  0  0  0  0
    7.4153  -12.0148   26.4974 C   0  0  0  0  0  0  0  0  0  0  0  0
    8.4812  -12.8898   26.4213 C   0  0  0  0  0  0  0  0  0  0  0  0
    8.2358  -14.2601   26.4006 C   0  0  0  0  0  0  0  0  0  0  0  0
    7.3166  -16.7402   24.1411 C   0  0  0  0  0  0  0  0  0  0  0  0
    8.1045  -17.7037   24.2504 O   0  0  0  0  0  0  0  0  0  0  0  0
    6.9873  -15.4813   20.4238 C   0  0  0  0  0  0  0  0  0  0  0  0
    8.3572  -15.0937   20.9252 C   0  0  1  0  0  0  0  0  0  0  0  0
    8.3283  -13.7436   21.2472 O   0  0  0  0  0  0  0  0  0  0  0  0
    8.6359  -15.8737   22.1670 C   0  0  2  0  0  0  0  0  0  0  0  0
    7.5700  -15.7980   23.1398 N   0  0  0  0  0  0  0  0  0  0  0  0
    9.8585  -15.3227   22.8117 C   0  0  0  0  0  0  0  0  0  0  0  0
    9.7566  -14.2796   23.5554 O   0  0  0  0  0  0  0  0  0  0  0  0
   11.1592  -15.8382   22.6927 N   0  0  0  0  0  0  0  0  0  0  0  0
   12.0552  -15.8790   23.8038 C   0  0  1  0  0  0  0  0  0  0  0  0
   11.5861  -16.7494   24.9349 C   0  0  0  0  0  0  0  0  0  0  0  0
   12.5677  -16.8567   26.0555 C   0  0  0  0  0  0  0  0  0  0  0  0
   12.0276  -17.6437   27.2085 C   0  0  0  0  0  0  0  0  0  0  0  0
   12.9529  -17.6436   28.4029 C   0  0  0  0  0  0  0  0  0  0  0  0
   12.3760  -18.3822   29.5105 N   0  0  0  0  0  0  0  0  0  0  0  0
   13.3845  -16.3842   23.3826 C   0  0  0  0  0  0  0  0  0  0  0  0
   14.4023  -15.8215   23.8548 O   0  0  0  0  0  0  0  0  0  0  0  0
   13.5474  -17.4364   22.5022 O   0  0  0  0  0  0  0  0  0  0  0  0
  2  1  1  1
  2  3  1  0
  3  4  1  0
  4  9  2  0
  5  6  2  0
  5  4  1  0
  6  7  1  0
  7  8  2  0
  9  8  1  0
 10  2  1  0
 10 16  1  0
 11 10  2  0
 13 12  1  1
 13 15  1  0
 14 13  1  0
 15 16  1  1
 17 15  1  0
 18 17  2  0
 19 17  1  0
 20 19  1  0
 20 26  1  0
 20 21  1  1
 22 21  1  0
 23 22  1  0
 24 23  1  0
 24 25  1  0
 26 28  1  0
 27 26  2  0
M  END
$$$$
