FTK.pdb
     RDKit          3D

 28 28  0  0  1  0  0  0  0  0999 V2000
    8.2990  -13.3378   20.8628 N   0  0  0  0  0  0  0  0  0  0  0  0
    8.2656  -13.4299   22.3287 C   0  0  1  0  0  0  0  0  0  0  0  0
    7.1714  -12.4635   22.7926 C   0  0  0  0  0  0  0  0  0  0  0  0
    6.9989  -12.5692   24.2561 C   0  0  0  0  0  0  0  0  0  0  0  0
    7.9534  -12.0849   25.1306 C   0  0  0  0  0  0  0  0  0  0  0  0
    7.7636  -12.1984   26.5001 C   0  0  0  0  0  0  0  0  0  0  0  0
    6.6343  -12.7889   27.0244 C   0  0  0  0  0  0  0  0  0  0  0  0
    5.6745  -13.2761   26.1590 C   0  0  0  0  0  0  0  0  0  0  0  0
    5.8737  -13.1576   24.7862 C   0  0  0  0  0  0  0  0  0  0  0  0
    7.7913  -14.7893   22.6596 C   0  0  0  0  0  0  0  0  0  0  0  0
    6.7575  -15.2132   22.1006 O   0  0  0  0  0  0  0  0  0  0  0  0
    8.6415  -17.7933   21.5812 C   0  0  0  0  0  0  0  0  0  0  0  0
    8.9359  -17.9794   23.0498 C   0  0  1  0  0  0  0  0  0  0  0  0
   10.2723  -17.6680   23.2606 O   0  0  0  0  0  0  0  0  0  0  0  0
    8.0950  -17.0149   23.8185 C   0  0  2  0  0  0  0  0  0  0  0  0
    8.4371  -15.6335   23.5678 N   0  0  0  0  0  0  0  0  0  0  0  0
    8.2965  -17.2602   25.2722 C   0  0  0  0  0  0  0  0  0  0  0  0
    9.0703  -16.4783   25.9364 O   0  0  0  0  0  0  0  0  0  0  0  0
    7.7102  -18.2902   26.0254 N   0  0  0  0  0  0  0  0  0  0  0  0
    8.0868  -18.5372   27.3804 C   0  0  1  0  0  0  0  0  0  0  0  0
    7.2414  -19.5695   28.0707 C   0  0  0  0  0  0  0  0  0  0  0  0
    7.3251  -20.9254   27.4498 C   0  0  0  0  0  0  0  0  0  0  0  0
    6.0238  -21.6618   27.5193 C   0  0  0  0  0  0  0  0  0  0  0  0
    6.0923  -23.0337   26.8899 C   0  0  0  0  0  0  0  0  0  0  0  0
    4.7896  -23.6724   26.8868 N   0  0  0  0  0  0  0  0  0  0  0  0
    9.4937  -19.0007   27.4538 C   0  0  0  0  0  0  0  0  0  0  0  0
   10.0144  -19.4621   26.4090 O   0  0  0  0  0  0  0  0  0  0  0  0
   10.2466  -18.9465   28.6109 O   0  0  0  0  0  0  0  0  0  0  0  0
  2  1  1  6
  2  3  1  0
  3  4  1  0
  4  9  2  0
  5  6  2  0
  5  4  1  0
  6  7  1  0
  7  8  2  0
  9  8  1  0
 10  2  1  0
 10 16  1  0
 11 10  2  0
 13 12  1  6
 13 15  1  0
 14 13  1  0
 15 16  1  1
 17 15  1  0
 18 17  2  0
 19 17  1  0
 20 19  1  0
 20 26  1  0
 20 21  1  6
 22 21  1  0
 23 22  1  0
 24 23  1  0
 24 25  1  0
 26 28  1  0
 27 26  2  0
M  END
$$$$
