FTK.pdb
     RDKit          3D

 28 28  0  0  1  0  0  0  0  0999 V2000
    5.9653  -16.4443   25.6097 N   0  0  0  0  0  0  0  0  0  0  0  0
    6.7341  -15.4733   24.8194 C   0  0  1  0  0  0  0  0  0  0  0  0
    7.6762  -14.7723   25.8030 C   0  0  0  0  0  0  0  0  0  0  0  0
    7.0957  -13.4776   26.2146 C   0  0  0  0  0  0  0  0  0  0  0  0
    7.3936  -12.3080   25.5409 C   0  0  0  0  0  0  0  0  0  0  0  0
    6.8332  -11.1071   25.9507 C   0  0  0  0  0  0  0  0  0  0  0  0
    5.9744  -11.0428   27.0266 C   0  0  0  0  0  0  0  0  0  0  0  0
    5.6703  -12.2058   27.7066 C   0  0  0  0  0  0  0  0  0  0  0  0
    6.2377  -13.4063   27.2879 C   0  0  0  0  0  0  0  0  0  0  0  0
    7.5909  -16.2530   23.9026 C   0  0  0  0  0  0  0  0  0  0  0  0
    7.8572  -17.4375   24.1973 O   0  0  0  0  0  0  0  0  0  0  0  0
    7.4740  -15.3210   20.1060 C   0  0  0  0  0  0  0  0  0  0  0  0
    8.8596  -15.8533   20.3792 C   0  0  1  0  0  0  0  0  0  0  0  0
    9.7340  -14.7753   20.4061 O   0  0  0  0  0  0  0  0  0  0  0  0
    8.8538  -16.4957   21.7266 C   0  0  2  0  0  0  0  0  0  0  0  0
    8.1237  -15.7379   22.7171 N   0  0  0  0  0  0  0  0  0  0  0  0
   10.2575  -16.6083   22.2071 C   0  0  0  0  0  0  0  0  0  0  0  0
   10.6948  -15.7565   23.0641 O   0  0  0  0  0  0  0  0  0  0  0  0
   11.1904  -17.5808   21.8125 N   0  0  0  0  0  0  0  0  0  0  0  0
   12.3718  -17.8397   22.5716 C   0  0  1  0  0  0  0  0  0  0  0  0
   12.5785  -19.2901   22.9039 C   0  0  0  0  0  0  0  0  0  0  0  0
   13.8847  -19.5718   23.5714 C   0  0  0  0  0  0  0  0  0  0  0  0
   13.9805  -20.9849   24.0556 C   0  0  0  0  0  0  0  0  0  0  0  0
   15.2571  -21.2586   24.8162 C   0  0  0  0  0  0  0  0  0  0  0  0
   14.9787  -21.5944   26.1999 N   0  0  0  0  0  0  0  0  0  0  0  0
   13.5749  -17.3817   21.8351 C   0  0  0  0  0  0  0  0  0  0  0  0
   14.6787  -17.4232   22.4315 O   0  0  0  0  0  0  0  0  0  0  0  0
   13.5321  -16.9167   20.5349 O   0  0  0  0  0  0  0  0  0  0  0  0
  2  1  1  1
  2  3  1  0
  3  4  1  0
  4  9  2  0
  5  6  2  0
  5  4  1  0
  6  7  1  0
  7  8  2  0
  9  8  1  0
 10  2  1  0
 10 16  1  0
 11 10  2  0
 13 12  1  1
 13 15  1  0
 14 13  1  0
 15 16  1  1
 17 15  1  0
 18 17  2  0
 19 17  1  0
 20 19  1  0
 20 26  1  0
 20 21  1  6
 22 21  1  0
 23 22  1  0
 24 23  1  0
 24 25  1  0
 26 28  1  0
 27 26  2  0
M  END
$$$$
