FTK.pdb
     RDKit          3D

 28 28  0  0  1  0  0  0  0  0999 V2000
    6.2570  -16.0639   25.7047 N   0  0  0  0  0  0  0  0  0  0  0  0
    6.9141  -15.2365   24.6839 C   0  0  1  0  0  0  0  0  0  0  0  0
    7.9148  -14.3500   25.4316 C   0  0  0  0  0  0  0  0  0  0  0  0
    7.2272  -13.1518   25.9550 C   0  0  0  0  0  0  0  0  0  0  0  0
    6.9405  -13.0160   27.3003 C   0  0  0  0  0  0  0  0  0  0  0  0
    6.2938  -11.8792   27.7625 C   0  0  0  0  0  0  0  0  0  0  0  0
    5.9220  -10.8641   26.9078 C   0  0  0  0  0  0  0  0  0  0  0  0
    6.2039  -10.9900   25.5616 C   0  0  0  0  0  0  0  0  0  0  0  0
    6.8533  -12.1346   25.1072 C   0  0  0  0  0  0  0  0  0  0  0  0
    7.7126  -16.1518   23.8428 C   0  0  0  0  0  0  0  0  0  0  0  0
    8.0005  -17.2800   24.2958 O   0  0  0  0  0  0  0  0  0  0  0  0
    7.6180  -15.7361   19.8882 C   0  0  0  0  0  0  0  0  0  0  0  0
    8.9941  -16.2133   20.2843 C   0  0  1  0  0  0  0  0  0  0  0  0
    9.8567  -15.1272   20.2245 O   0  0  0  0  0  0  0  0  0  0  0  0
    8.9311  -16.6945   21.6959 C   0  0  2  0  0  0  0  0  0  0  0  0
    8.1671  -15.8255   22.5616 N   0  0  0  0  0  0  0  0  0  0  0  0
   10.3140  -16.7525   22.2419 C   0  0  0  0  0  0  0  0  0  0  0  0
   10.7436  -15.7772   22.9600 O   0  0  0  0  0  0  0  0  0  0  0  0
   11.2342  -17.7961   22.0521 N   0  0  0  0  0  0  0  0  0  0  0  0
   12.4119  -17.9131   22.8510 C   0  0  1  0  0  0  0  0  0  0  0  0
   12.4754  -19.1748   23.6640 C   0  0  0  0  0  0  0  0  0  0  0  0
   13.7624  -19.3482   24.4019 C   0  0  0  0  0  0  0  0  0  0  0  0
   13.8231  -20.6506   25.1371 C   0  0  0  0  0  0  0  0  0  0  0  0
   15.0974  -20.8164   25.9317 C   0  0  0  0  0  0  0  0  0  0  0  0
   15.0367  -21.9945   26.7763 N   0  0  0  0  0  0  0  0  0  0  0  0
   13.6250  -17.8781   21.9986 C   0  0  0  0  0  0  0  0  0  0  0  0
   13.5059  -18.2134   20.7948 O   0  0  0  0  0  0  0  0  0  0  0  0
   14.8667  -17.4961   22.4687 O   0  0  0  0  0  0  0  0  0  0  0  0
  2  1  1  1
  2  3  1  0
  3  4  1  0
  4  9  2  0
  5  6  2  0
  5  4  1  0
  6  7  1  0
  7  8  2  0
  9  8  1  0
 10  2  1  0
 10 16  1  0
 11 10  2  0
 13 12  1  1
 13 15  1  0
 14 13  1  0
 15 16  1  1
 17 15  1  0
 18 17  2  0
 19 17  1  0
 20 19  1  0
 20 26  1  0
 20 21  1  6
 22 21  1  0
 23 22  1  0
 24 23  1  0
 24 25  1  0
 26 28  1  0
 27 26  2  0
M  END
$$$$
