RGF.pdb
     RDKit          3D

 27 27  0  0  1  0  0  0  0  0999 V2000
   21.5145  -22.1541  -12.9788 N   0  0  0  0  0  0  0  0  0  0  0  0
   22.0493  -20.9539  -12.4412 C   0  0  0  0  0  0  0  0  0  0  0  0
   21.5021  -19.8145  -12.7273 N   0  0  0  0  0  0  0  0  0  0  0  0
   23.1815  -20.9351  -11.5848 N   0  0  0  0  0  0  0  0  0  0  0  0
   24.5006  -20.5973  -12.0661 C   0  0  0  0  0  0  0  0  0  0  0  0
   25.2052  -21.8741  -12.4814 C   0  0  0  0  0  0  0  0  0  0  0  0
   26.2134  -21.6388  -13.5617 C   0  0  0  0  0  0  0  0  0  0  0  0
   27.4214  -20.9616  -12.9443 C   0  0  2  0  0  0  0  0  0  0  0  0
   27.5611  -21.2279  -11.5434 N   0  0  0  0  0  0  0  0  0  0  0  0
   27.2382  -19.4966  -13.1470 C   0  0  0  0  0  0  0  0  0  0  0  0
   27.6694  -18.6443  -12.3287 O   0  0  0  0  0  0  0  0  0  0  0  0
   21.7913  -18.9160  -12.3313 N   0  0  0  0  0  0  0  0  0  0  0  0
   26.5481  -18.9645  -14.3049 C   0  0  0  0  0  0  0  0  0  0  0  0
   26.6163  -17.5645  -14.5862 C   0  0  0  0  0  0  0  0  0  0  0  0
   25.8633  -17.1911  -15.7730 O   0  0  0  0  0  0  0  0  0  0  0  0
   26.0778  -17.9021  -16.8202 N   0  0  0  0  0  0  0  0  0  0  0  0
   24.9470  -16.1307  -15.8297 C   0  0  1  0  0  0  0  0  0  0  0  0
   24.2067  -15.8748  -17.0803 C   0  0  0  0  0  0  0  0  0  0  0  0
   22.7729  -16.1549  -16.8247 C   0  0  0  0  0  0  0  0  0  0  0  0
   22.4686  -17.5733  -16.5312 C   0  0  0  0  0  0  0  0  0  0  0  0
   21.7619  -18.2744  -17.4957 C   0  0  0  0  0  0  0  0  0  0  0  0
   21.4324  -19.5920  -17.3182 C   0  0  0  0  0  0  0  0  0  0  0  0
   21.8181  -20.2068  -16.1600 C   0  0  0  0  0  0  0  0  0  0  0  0
   22.5213  -19.5328  -15.1848 C   0  0  0  0  0  0  0  0  0  0  0  0
   22.8389  -18.2094  -15.3904 C   0  0  0  0  0  0  0  0  0  0  0  0
   24.5383  -14.5285  -17.5371 O   0  0  0  0  0  0  0  0  0  0  0  0
   25.1890  -13.7563  -16.7951 O   0  0  0  0  0  0  0  0  0  0  0  0
  2  3  2  0
  2  1  1  0
  4  2  1  0
  5  4  1  0
  6  5  1  0
  7  6  1  0
  8  7  1  0
  8  9  1  1
 10  8  1  0
 11 10  2  0
 12 10  1  0
 13 14  1  0
 13 12  1  0
 14 15  2  0
 16 17  1  0
 16 14  1  0
 17 18  1  6
 19 20  2  0
 19 18  1  0
 21 20  1  0
 22 21  2  0
 23 22  1  0
 23 24  2  0
 24 19  1  0
 25 17  1  0
 26 25  2  0
 27 25  1  0
M  END
$$$$
