RGF.pdb
     RDKit          3D

 27 27  0  0  1  0  0  0  0  0999 V2000
   21.8497  -25.5892  -15.9627 N   0  0  0  0  0  0  0  0  0  0  0  0
   22.7796  -25.8960  -14.9348 C   0  0  0  0  0  0  0  0  0  0  0  0
   23.4807  -26.9841  -14.9978 N   0  0  0  0  0  0  0  0  0  0  0  0
   22.9874  -25.0522  -13.8121 N   0  0  0  0  0  0  0  0  0  0  0  0
   22.3694  -23.7512  -13.7068 C   0  0  0  0  0  0  0  0  0  0  0  0
   23.4584  -22.7122  -13.5228 C   0  0  0  0  0  0  0  0  0  0  0  0
   23.4877  -21.7185  -14.6410 C   0  0  0  0  0  0  0  0  0  0  0  0
   24.8685  -21.7483  -15.2666 C   0  0  2  0  0  0  0  0  0  0  0  0
   25.4531  -23.0565  -15.2778 N   0  0  0  0  0  0  0  0  0  0  0  0
   25.7239  -20.8381  -14.4541 C   0  0  0  0  0  0  0  0  0  0  0  0
   26.2513  -19.8022  -14.9344 O   0  0  0  0  0  0  0  0  0  0  0  0
   24.2066  -27.2466  -14.3255 N   0  0  0  0  0  0  0  0  0  0  0  0
   26.0009  -21.0945  -13.0549 C   0  0  0  0  0  0  0  0  0  0  0  0
   26.9360  -20.2683  -12.3570 C   0  0  0  0  0  0  0  0  0  0  0  0
   27.0375  -20.6010  -10.9450 O   0  0  0  0  0  0  0  0  0  0  0  0
   27.6789  -21.6779  -10.6671 N   0  0  0  0  0  0  0  0  0  0  0  0
   26.4893  -19.8324   -9.9078 C   0  0  1  0  0  0  0  0  0  0  0  0
   26.6946  -20.2485   -8.5069 C   0  0  0  0  0  0  0  0  0  0  0  0
   27.4808  -19.1893   -7.8292 C   0  0  0  0  0  0  0  0  0  0  0  0
   27.8611  -19.5063   -6.4344 C   0  0  0  0  0  0  0  0  0  0  0  0
   26.8449  -19.9182   -5.5866 C   0  0  0  0  0  0  0  0  0  0  0  0
   27.0954  -20.2351   -4.2779 C   0  0  0  0  0  0  0  0  0  0  0  0
   28.3796  -20.1358   -3.8207 C   0  0  0  0  0  0  0  0  0  0  0  0
   29.4086  -19.7287   -4.6424 C   0  0  0  0  0  0  0  0  0  0  0  0
   29.1275  -19.4168   -5.9533 C   0  0  0  0  0  0  0  0  0  0  0  0
   25.3906  -20.5641   -7.9313 O   0  0  0  0  0  0  0  0  0  0  0  0
   24.3679  -19.9539   -8.3210 O   0  0  0  0  0  0  0  0  0  0  0  0
  2  3  2  0
  2  1  1  0
  4  2  1  0
  5  4  1  0
  6  5  1  0
  7  6  1  0
  8  7  1  0
  8  9  1  1
 10  8  1  0
 11 10  2  0
 12 10  1  0
 13 14  1  0
 13 12  1  0
 14 15  2  0
 16 17  1  0
 16 14  1  0
 17 18  1  1
 19 20  2  0
 19 18  1  0
 21 20  1  0
 22 21  2  0
 23 22  1  0
 23 24  2  0
 24 19  1  0
 25 17  1  0
 26 25  2  0
 27 25  1  0
M  END
$$$$
