RGF.pdb
     RDKit          3D

 27 27  0  0  1  0  0  0  0  0999 V2000
   34.0726  -25.4236  -14.9321 N   0  0  0  0  0  0  0  0  0  0  0  0
   33.3542  -24.5003  -14.1279 C   0  0  0  0  0  0  0  0  0  0  0  0
   33.9543  -23.8755  -13.1639 N   0  0  0  0  0  0  0  0  0  0  0  0
   31.9774  -24.2180  -14.3284 N   0  0  0  0  0  0  0  0  0  0  0  0
   31.2728  -24.6446  -15.5148 C   0  0  0  0  0  0  0  0  0  0  0  0
   31.1464  -23.4606  -16.4538 C   0  0  0  0  0  0  0  0  0  0  0  0
   30.1757  -22.4394  -15.9499 C   0  0  0  0  0  0  0  0  0  0  0  0
   28.8467  -23.1273  -15.7065 C   0  0  2  0  0  0  0  0  0  0  0  0
   28.4503  -23.9836  -16.7848 N   0  0  0  0  0  0  0  0  0  0  0  0
   27.8324  -22.0481  -15.5418 C   0  0  0  0  0  0  0  0  0  0  0  0
   28.0133  -21.0644  -14.7791 O   0  0  0  0  0  0  0  0  0  0  0  0
   33.4988  -23.2155  -12.5278 N   0  0  0  0  0  0  0  0  0  0  0  0
   26.5705  -22.0686  -16.2539 C   0  0  0  0  0  0  0  0  0  0  0  0
   25.6509  -20.9858  -16.0930 C   0  0  0  0  0  0  0  0  0  0  0  0
   24.7854  -21.1491  -14.9358 O   0  0  0  0  0  0  0  0  0  0  0  0
   24.7863  -22.3132  -14.3944 N   0  0  0  0  0  0  0  0  0  0  0  0
   23.9780  -20.1351  -14.4001 C   0  0  1  0  0  0  0  0  0  0  0  0
   23.1790  -20.4045  -13.1890 C   0  0  0  0  0  0  0  0  0  0  0  0
   23.6015  -19.4420  -12.1429 C   0  0  0  0  0  0  0  0  0  0  0  0
   24.7021  -19.9216  -11.2775 C   0  0  0  0  0  0  0  0  0  0  0  0
   25.9559  -20.0260  -11.8592 C   0  0  0  0  0  0  0  0  0  0  0  0
   27.0389  -20.4594  -11.1415 C   0  0  0  0  0  0  0  0  0  0  0  0
   26.8564  -20.7902   -9.8279 C   0  0  0  0  0  0  0  0  0  0  0  0
   25.6205  -20.6958   -9.2250 C   0  0  0  0  0  0  0  0  0  0  0  0
   24.5501  -20.2569   -9.9707 C   0  0  0  0  0  0  0  0  0  0  0  0
   21.7678  -20.3863  -13.5626 O   0  0  0  0  0  0  0  0  0  0  0  0
   21.4107  -19.8584  -14.6414 O   0  0  0  0  0  0  0  0  0  0  0  0
  2  3  2  0
  2  1  1  0
  4  2  1  0
  5  4  1  0
  6  5  1  0
  7  6  1  0
  8  7  1  0
  8  9  1  6
 10  8  1  0
 11 10  2  0
 12 10  1  0
 13 14  1  0
 13 12  1  0
 14 15  2  0
 16 17  1  0
 16 14  1  0
 17 18  1  1
 19 20  2  0
 19 18  1  0
 21 20  1  0
 22 21  2  0
 23 22  1  0
 23 24  2  0
 24 19  1  0
 25 17  1  0
 26 25  2  0
 27 25  1  0
M  END
$$$$
