RGF.pdb
     RDKit          3D

 27 27  0  0  1  0  0  0  0  0999 V2000
   20.6103  -20.8803  -12.2051 N   0  0  0  0  0  0  0  0  0  0  0  0
   20.3491  -19.8410  -13.1361 C   0  0  0  0  0  0  0  0  0  0  0  0
   19.4737  -18.9264  -12.8589 N   0  0  0  0  0  0  0  0  0  0  0  0
   21.0130  -19.7480  -14.3876 N   0  0  0  0  0  0  0  0  0  0  0  0
   22.0932  -20.6356  -14.7496 C   0  0  0  0  0  0  0  0  0  0  0  0
   23.3874  -20.0734  -14.1941 C   0  0  0  0  0  0  0  0  0  0  0  0
   24.2979  -19.5766  -15.2725 C   0  0  0  0  0  0  0  0  0  0  0  0
   25.5086  -20.4876  -15.3287 C   0  0  2  0  0  0  0  0  0  0  0  0
   25.1711  -21.8778  -15.2462 N   0  0  0  0  0  0  0  0  0  0  0  0
   26.3692  -20.1243  -14.1678 C   0  0  0  0  0  0  0  0  0  0  0  0
   26.8456  -18.9700  -14.0175 O   0  0  0  0  0  0  0  0  0  0  0  0
   19.2072  -18.1672  -13.4915 N   0  0  0  0  0  0  0  0  0  0  0  0
   26.7107  -21.0850  -13.1379 C   0  0  0  0  0  0  0  0  0  0  0  0
   27.3465  -20.6382  -11.9379 C   0  0  0  0  0  0  0  0  0  0  0  0
   26.5960  -20.9826  -10.7408 O   0  0  0  0  0  0  0  0  0  0  0  0
   25.3315  -21.1399  -10.8975 N   0  0  0  0  0  0  0  0  0  0  0  0
   27.1634  -21.1456   -9.4686 C   0  0  2  0  0  0  0  0  0  0  0  0
   26.2977  -21.4906   -8.3245 C   0  0  0  0  0  0  0  0  0  0  0  0
   27.1725  -21.9170   -7.2054 C   0  0  0  0  0  0  0  0  0  0  0  0
   27.7859  -20.8028   -6.4485 C   0  0  0  0  0  0  0  0  0  0  0  0
   27.1682  -20.4366   -5.2629 C   0  0  0  0  0  0  0  0  0  0  0  0
   27.6597  -19.4181   -4.4903 C   0  0  0  0  0  0  0  0  0  0  0  0
   28.7818  -18.7641   -4.9161 C   0  0  0  0  0  0  0  0  0  0  0  0
   29.4154  -19.1080   -6.0909 C   0  0  0  0  0  0  0  0  0  0  0  0
   28.8992  -20.1358   -6.8471 C   0  0  0  0  0  0  0  0  0  0  0  0
   25.4124  -20.3586   -8.0673 O   0  0  0  0  0  0  0  0  0  0  0  0
   24.3683  -20.5185   -7.3931 O   0  0  0  0  0  0  0  0  0  0  0  0
  2  3  2  0
  2  1  1  0
  4  2  1  0
  5  4  1  0
  6  5  1  0
  7  6  1  0
  8  7  1  0
  8  9  1  1
 10  8  1  0
 11 10  2  0
 12 10  1  0
 13 14  1  0
 13 12  1  0
 14 15  2  0
 16 17  1  0
 16 14  1  0
 17 18  1  6
 19 20  2  0
 19 18  1  0
 21 20  1  0
 22 21  2  0
 23 22  1  0
 23 24  2  0
 24 19  1  0
 25 17  1  0
 26 25  2  0
 27 25  1  0
M  END
$$$$
