RGF.pdb
     RDKit          3D

 27 27  0  0  1  0  0  0  0  0999 V2000
   24.8637  -16.5045  -18.8255 N   0  0  0  0  0  0  0  0  0  0  0  0
   24.1904  -16.2866  -17.5949 C   0  0  0  0  0  0  0  0  0  0  0  0
   23.1117  -15.5691  -17.5637 N   0  0  0  0  0  0  0  0  0  0  0  0
   24.6483  -16.8267  -16.3643 N   0  0  0  0  0  0  0  0  0  0  0  0
   25.8272  -17.6571  -16.2836 C   0  0  0  0  0  0  0  0  0  0  0  0
   25.4026  -19.1097  -16.3776 C   0  0  0  0  0  0  0  0  0  0  0  0
   25.7919  -19.8931  -15.1636 C   0  0  0  0  0  0  0  0  0  0  0  0
   24.5398  -20.5188  -14.5808 C   0  0  2  0  0  0  0  0  0  0  0  0
   23.4947  -19.5683  -14.3413 N   0  0  0  0  0  0  0  0  0  0  0  0
   24.9380  -21.1430  -13.2876 C   0  0  0  0  0  0  0  0  0  0  0  0
   25.7682  -22.0856  -13.2219 O   0  0  0  0  0  0  0  0  0  0  0  0
   22.5715  -15.3697  -16.7174 N   0  0  0  0  0  0  0  0  0  0  0  0
   24.3885  -20.6990  -12.0222 C   0  0  0  0  0  0  0  0  0  0  0  0
   24.7558  -21.3743  -10.8168 C   0  0  0  0  0  0  0  0  0  0  0  0
   25.7747  -20.6635  -10.0609 O   0  0  0  0  0  0  0  0  0  0  0  0
   26.2135  -19.5801  -10.5919 N   0  0  0  0  0  0  0  0  0  0  0  0
   26.2846  -21.0867   -8.8248 C   0  0  1  0  0  0  0  0  0  0  0  0
   27.3069  -20.2707   -8.1415 C   0  0  0  0  0  0  0  0  0  0  0  0
   27.1339  -20.4564   -6.6803 C   0  0  0  0  0  0  0  0  0  0  0  0
   28.0898  -19.6920   -5.8482 C   0  0  0  0  0  0  0  0  0  0  0  0
   29.0216  -20.4259   -5.1311 C   0  0  0  0  0  0  0  0  0  0  0  0
   29.9492  -19.8109   -4.3328 C   0  0  0  0  0  0  0  0  0  0  0  0
   29.9369  -18.4463   -4.2567 C   0  0  0  0  0  0  0  0  0  0  0  0
   29.0212  -17.6926   -4.9591 C   0  0  0  0  0  0  0  0  0  0  0  0
   28.1009  -18.3377   -5.7538 C   0  0  0  0  0  0  0  0  0  0  0  0
   28.6117  -20.6208   -8.6949 O   0  0  0  0  0  0  0  0  0  0  0  0
   28.8536  -21.8027   -9.0333 O   0  0  0  0  0  0  0  0  0  0  0  0
  2  3  2  0
  2  1  1  0
  4  2  1  0
  5  4  1  0
  6  5  1  0
  7  6  1  0
  8  7  1  0
  8  9  1  1
 10  8  1  0
 11 10  2  0
 12 10  1  0
 13 14  1  0
 13 12  1  0
 14 15  2  0
 16 17  1  0
 16 14  1  0
 17 18  1  6
 19 20  2  0
 19 18  1  0
 21 20  1  0
 22 21  2  0
 23 22  1  0
 23 24  2  0
 24 19  1  0
 25 17  1  0
 26 25  2  0
 27 25  1  0
M  END
$$$$
