RGF.pdb
     RDKit          3D

 27 27  0  0  1  0  0  0  0  0999 V2000
   18.6709  -19.1139  -14.2410 N   0  0  0  0  0  0  0  0  0  0  0  0
   18.9801  -19.5307  -15.5623 C   0  0  0  0  0  0  0  0  0  0  0  0
   18.2104  -19.1887  -16.5473 N   0  0  0  0  0  0  0  0  0  0  0  0
   20.1171  -20.3232  -15.8701 N   0  0  0  0  0  0  0  0  0  0  0  0
   21.2616  -20.3943  -14.9921 C   0  0  0  0  0  0  0  0  0  0  0  0
   22.1581  -19.2032  -15.2694 C   0  0  0  0  0  0  0  0  0  0  0  0
   23.6030  -19.5159  -15.0378 C   0  0  0  0  0  0  0  0  0  0  0  0
   23.6916  -20.5823  -13.9637 C   0  0  2  0  0  0  0  0  0  0  0  0
   22.5095  -20.6698  -13.1586 N   0  0  0  0  0  0  0  0  0  0  0  0
   24.8473  -20.2182  -13.0963 C   0  0  0  0  0  0  0  0  0  0  0  0
   26.0385  -20.3001  -13.4919 O   0  0  0  0  0  0  0  0  0  0  0  0
   18.3667  -19.4510  -17.5243 N   0  0  0  0  0  0  0  0  0  0  0  0
   24.6662  -19.7463  -11.7381 C   0  0  0  0  0  0  0  0  0  0  0  0
   25.8110  -19.4547  -10.9331 C   0  0  0  0  0  0  0  0  0  0  0  0
   25.9735  -20.3847   -9.8269 O   0  0  0  0  0  0  0  0  0  0  0  0
   25.1075  -21.3299   -9.7568 N   0  0  0  0  0  0  0  0  0  0  0  0
   26.9924  -20.3043   -8.8664 C   0  0  2  0  0  0  0  0  0  0  0  0
   27.0608  -21.3135   -7.7919 C   0  0  0  0  0  0  0  0  0  0  0  0
   28.4154  -21.2466   -7.1918 C   0  0  0  0  0  0  0  0  0  0  0  0
   28.5803  -20.1911   -6.1675 C   0  0  0  0  0  0  0  0  0  0  0  0
   28.4260  -20.5734   -4.8442 C   0  0  0  0  0  0  0  0  0  0  0  0
   28.5597  -19.6704   -3.8230 C   0  0  0  0  0  0  0  0  0  0  0  0
   28.8509  -18.3728   -4.1384 C   0  0  0  0  0  0  0  0  0  0  0  0
   29.0094  -17.9661   -5.4458 C   0  0  0  0  0  0  0  0  0  0  0  0
   28.8695  -18.8953   -6.4516 C   0  0  0  0  0  0  0  0  0  0  0  0
   25.9345  -21.0932   -6.8895 O   0  0  0  0  0  0  0  0  0  0  0  0
   25.3965  -19.9636   -6.8210 O   0  0  0  0  0  0  0  0  0  0  0  0
  2  3  2  0
  2  1  1  0
  4  2  1  0
  5  4  1  0
  6  5  1  0
  7  6  1  0
  8  7  1  0
  8  9  1  1
 10  8  1  0
 11 10  2  0
 12 10  1  0
 13 14  1  0
 13 12  1  0
 14 15  2  0
 16 17  1  0
 16 14  1  0
 17 18  1  6
 19 20  2  0
 19 18  1  0
 21 20  1  0
 22 21  2  0
 23 22  1  0
 23 24  2  0
 24 19  1  0
 25 17  1  0
 26 25  2  0
 27 25  1  0
M  END
$$$$
