RGF.pdb
     RDKit          3D

 27 27  0  0  1  0  0  0  0  0999 V2000
   23.6191  -26.8226  -20.9112 N   0  0  0  0  0  0  0  0  0  0  0  0
   24.0485  -28.1748  -20.9611 C   0  0  0  0  0  0  0  0  0  0  0  0
   23.7740  -28.9050  -21.9961 N   0  0  0  0  0  0  0  0  0  0  0  0
   24.7816  -28.7858  -19.9099 N   0  0  0  0  0  0  0  0  0  0  0  0
   25.0779  -28.0917  -18.6786 C   0  0  0  0  0  0  0  0  0  0  0  0
   24.0117  -28.4407  -17.6584 C   0  0  0  0  0  0  0  0  0  0  0  0
   24.1806  -27.6810  -16.3804 C   0  0  0  0  0  0  0  0  0  0  0  0
   23.1088  -28.1389  -15.4107 C   0  0  2  0  0  0  0  0  0  0  0  0
   22.8208  -29.5390  -15.5103 N   0  0  0  0  0  0  0  0  0  0  0  0
   21.8792  -27.3629  -15.7374 C   0  0  0  0  0  0  0  0  0  0  0  0
   21.8595  -26.1054  -15.7487 O   0  0  0  0  0  0  0  0  0  0  0  0
   24.0293  -29.8913  -22.0948 N   0  0  0  0  0  0  0  0  0  0  0  0
   20.6265  -28.0150  -16.0625 C   0  0  0  0  0  0  0  0  0  0  0  0
   19.5017  -27.2265  -16.4583 C   0  0  0  0  0  0  0  0  0  0  0  0
   18.7501  -26.7089  -15.3260 O   0  0  0  0  0  0  0  0  0  0  0  0
   19.0277  -27.2268  -14.1846 N   0  0  0  0  0  0  0  0  0  0  0  0
   17.7717  -25.7078  -15.4145 C   0  0  2  0  0  0  0  0  0  0  0  0
   17.0248  -25.3114  -14.2052 C   0  0  0  0  0  0  0  0  0  0  0  0
   16.2261  -24.1072  -14.5392 C   0  0  0  0  0  0  0  0  0  0  0  0
   15.1196  -24.3507  -15.4915 C   0  0  0  0  0  0  0  0  0  0  0  0
   13.9082  -24.7558  -14.9533 C   0  0  0  0  0  0  0  0  0  0  0  0
   12.8237  -25.0054  -15.7516 C   0  0  0  0  0  0  0  0  0  0  0  0
   12.9615  -24.8457  -17.1020 C   0  0  0  0  0  0  0  0  0  0  0  0
   14.1547  -24.4441  -17.6630 C   0  0  0  0  0  0  0  0  0  0  0  0
   15.2279  -24.2000  -16.8364 C   0  0  0  0  0  0  0  0  0  0  0  0
   16.2841  -26.4750  -13.7270 O   0  0  0  0  0  0  0  0  0  0  0  0
   16.0853  -27.4494  -14.4893 O   0  0  0  0  0  0  0  0  0  0  0  0
  2  3  2  0
  2  1  1  0
  4  2  1  0
  5  4  1  0
  6  5  1  0
  7  6  1  0
  8  7  1  0
  8  9  1  6
 10  8  1  0
 11 10  2  0
 12 10  1  0
 13 14  1  0
 13 12  1  0
 14 15  2  0
 16 17  1  0
 16 14  1  0
 17 18  1  6
 19 20  2  0
 19 18  1  0
 21 20  1  0
 22 21  2  0
 23 22  1  0
 23 24  2  0
 24 19  1  0
 25 17  1  0
 26 25  2  0
 27 25  1  0
M  END
$$$$
