RGF.pdb
     RDKit          3D

 27 27  0  0  1  0  0  0  0  0999 V2000
   24.8398  -18.2963  -20.0014 N   0  0  0  0  0  0  0  0  0  0  0  0
   23.8440  -19.2828  -19.7766 C   0  0  0  0  0  0  0  0  0  0  0  0
   23.1201  -19.7106  -20.7628 N   0  0  0  0  0  0  0  0  0  0  0  0
   23.5922  -19.8400  -18.4953 N   0  0  0  0  0  0  0  0  0  0  0  0
   24.5497  -19.7473  -17.4180 C   0  0  0  0  0  0  0  0  0  0  0  0
   25.8755  -20.3026  -17.9007 C   0  0  0  0  0  0  0  0  0  0  0  0
   26.9132  -20.3082  -16.8227 C   0  0  0  0  0  0  0  0  0  0  0  0
   26.4131  -21.1789  -15.6868 C   0  0  2  0  0  0  0  0  0  0  0  0
   25.0499  -20.9144  -15.3330 N   0  0  0  0  0  0  0  0  0  0  0  0
   27.2864  -20.8920  -14.5139 C   0  0  0  0  0  0  0  0  0  0  0  0
   28.5167  -21.1534  -14.5103 O   0  0  0  0  0  0  0  0  0  0  0  0
   22.3878  -20.4209  -20.6800 N   0  0  0  0  0  0  0  0  0  0  0  0
   26.7668  -20.2923  -13.3012 C   0  0  0  0  0  0  0  0  0  0  0  0
   27.5941  -20.2221  -12.1374 C   0  0  0  0  0  0  0  0  0  0  0  0
   26.9452  -20.7590  -10.9518 O   0  0  0  0  0  0  0  0  0  0  0  0
   26.7374  -22.0259  -10.9512 N   0  0  0  0  0  0  0  0  0  0  0  0
   26.5488  -19.9901   -9.8478 C   0  0  1  0  0  0  0  0  0  0  0  0
   25.7355  -20.6097   -8.7838 C   0  0  0  0  0  0  0  0  0  0  0  0
   25.9120  -19.8050   -7.5506 C   0  0  0  0  0  0  0  0  0  0  0  0
   27.2841  -19.8264   -6.9961 C   0  0  0  0  0  0  0  0  0  0  0  0
   27.8783  -21.0694   -6.8436 C   0  0  0  0  0  0  0  0  0  0  0  0
   29.1457  -21.1945   -6.3397 C   0  0  0  0  0  0  0  0  0  0  0  0
   29.8187  -20.0584   -5.9870 C   0  0  0  0  0  0  0  0  0  0  0  0
   29.2512  -18.8103   -6.1282 C   0  0  0  0  0  0  0  0  0  0  0  0
   27.9761  -18.7147   -6.6376 C   0  0  0  0  0  0  0  0  0  0  0  0
   24.3704  -20.7531   -9.2809 O   0  0  0  0  0  0  0  0  0  0  0  0
   24.0071  -20.1316  -10.3065 O   0  0  0  0  0  0  0  0  0  0  0  0
  2  3  2  0
  2  1  1  0
  4  2  1  0
  5  4  1  0
  6  5  1  0
  7  6  1  0
  8  7  1  0
  8  9  1  1
 10  8  1  0
 11 10  2  0
 12 10  1  0
 13 14  1  0
 13 12  1  0
 14 15  2  0
 16 17  1  0
 16 14  1  0
 17 18  1  1
 19 20  2  0
 19 18  1  0
 21 20  1  0
 22 21  2  0
 23 22  1  0
 23 24  2  0
 24 19  1  0
 25 17  1  0
 26 25  2  0
 27 25  1  0
M  END
$$$$
