RGF.pdb
     RDKit          3D

 27 27  0  0  1  0  0  0  0  0999 V2000
   26.4361  -19.8013  -20.7350 N   0  0  0  0  0  0  0  0  0  0  0  0
   27.0593  -18.8123  -21.5406 C   0  0  0  0  0  0  0  0  0  0  0  0
   26.5298  -18.4696  -22.6728 N   0  0  0  0  0  0  0  0  0  0  0  0
   28.2633  -18.1622  -21.1622 N   0  0  0  0  0  0  0  0  0  0  0  0
   28.9298  -18.4503  -19.9138 C   0  0  0  0  0  0  0  0  0  0  0  0
   28.9648  -17.1837  -19.0809 C   0  0  0  0  0  0  0  0  0  0  0  0
   28.9865  -17.4718  -17.6128 C   0  0  0  0  0  0  0  0  0  0  0  0
   27.6873  -18.1618  -17.2452 C   0  0  2  0  0  0  0  0  0  0  0  0
   26.5295  -17.3616  -17.5141 N   0  0  0  0  0  0  0  0  0  0  0  0
   27.7552  -18.4471  -15.7841 C   0  0  0  0  0  0  0  0  0  0  0  0
   28.6060  -19.2303  -15.2896 O   0  0  0  0  0  0  0  0  0  0  0  0
   26.9111  -17.7556  -23.2994 N   0  0  0  0  0  0  0  0  0  0  0  0
   26.8394  -17.8361  -14.8417 C   0  0  0  0  0  0  0  0  0  0  0  0
   26.9718  -18.1153  -13.4459 C   0  0  0  0  0  0  0  0  0  0  0  0
   26.2887  -19.3361  -13.0483 O   0  0  0  0  0  0  0  0  0  0  0  0
   25.3496  -19.7329  -13.8286 N   0  0  0  0  0  0  0  0  0  0  0  0
   26.5928  -20.0758  -11.8962 C   0  0  2  0  0  0  0  0  0  0  0  0
   25.8293  -21.3025  -11.5963 C   0  0  0  0  0  0  0  0  0  0  0  0
   26.5510  -22.0370  -10.5290 C   0  0  0  0  0  0  0  0  0  0  0  0
   26.7906  -21.2503   -9.2984 C   0  0  0  0  0  0  0  0  0  0  0  0
   25.7306  -21.1349   -8.4128 C   0  0  0  0  0  0  0  0  0  0  0  0
   25.8528  -20.4283   -7.2459 C   0  0  0  0  0  0  0  0  0  0  0  0
   27.0522  -19.8338   -6.9700 C   0  0  0  0  0  0  0  0  0  0  0  0
   28.1222  -19.9328   -7.8333 C   0  0  0  0  0  0  0  0  0  0  0  0
   27.9706  -20.6495   -8.9986 C   0  0  0  0  0  0  0  0  0  0  0  0
   24.4500  -20.9200  -11.3088 O   0  0  0  0  0  0  0  0  0  0  0  0
   23.5332  -21.7705  -11.3874 O   0  0  0  0  0  0  0  0  0  0  0  0
  2  3  2  0
  2  1  1  0
  4  2  1  0
  5  4  1  0
  6  5  1  0
  7  6  1  0
  8  7  1  0
  8  9  1  1
 10  8  1  0
 11 10  2  0
 12 10  1  0
 13 14  1  0
 13 12  1  0
 14 15  2  0
 16 17  1  0
 16 14  1  0
 17 18  1  1
 19 20  2  0
 19 18  1  0
 21 20  1  0
 22 21  2  0
 23 22  1  0
 23 24  2  0
 24 19  1  0
 25 17  1  0
 26 25  2  0
 27 25  1  0
M  END
$$$$
