SNP.pdb
     RDKit          3D

 22 22  0  0  1  0  0  0  0  0999 V2000
   11.0067  -15.9042   13.7154 O   0  0  0  0  0  0  0  0  0  0  0  0
   10.4839  -17.1691   13.9008 C   0  0  0  0  0  0  0  0  0  0  0  0
    8.9722  -17.0886   13.8117 C   0  0  2  0  0  0  0  0  0  0  0  0
    8.6411  -16.2863   12.6740 N   0  0  0  0  0  0  0  0  0  0  0  0
    8.4248  -16.4164   15.0364 C   0  0  0  0  0  0  0  0  0  0  0  0
    8.0898  -15.2018   15.0117 O   0  0  0  0  0  0  0  0  0  0  0  0
    6.6949  -17.2774   20.6469 N   0  0  0  0  0  0  0  0  0  0  0  0
    7.5172  -17.7418   19.6005 C   0  0  0  0  0  0  0  0  0  0  0  0
    8.6596  -18.1744   19.8876 O   0  0  0  0  0  0  0  0  0  0  0  0
    6.9849  -17.6919   18.2236 C   0  0  0  0  0  0  0  0  0  0  0  0
    7.5899  -16.5719   17.3931 C   0  0  2  0  0  0  0  0  0  0  0  0
    8.2740  -17.1318   16.2421 N   0  0  0  0  0  0  0  0  0  0  0  0
    8.6308  -15.9485   18.2656 C   0  0  0  0  0  0  0  0  0  0  0  0
    9.8329  -16.3847   18.1203 O   0  0  0  0  0  0  0  0  0  0  0  0
    8.3793  -14.9378   19.2111 N   0  0  0  0  0  0  0  0  0  0  0  0
    7.0821  -14.5025   19.6614 C   0  0  0  0  0  0  0  0  0  0  0  0
    7.2798  -13.0977   20.2139 C   0  0  0  0  0  0  0  0  0  0  0  0
    8.7147  -12.7673   19.7798 C   0  0  0  0  0  0  0  0  0  0  0  0
    9.3435  -14.1627   19.9414 C   0  0  1  0  0  0  0  0  0  0  0  0
    9.2598  -14.4892   21.4138 C   0  0  0  0  0  0  0  0  0  0  0  0
    8.3441  -15.3879   21.9049 O   0  0  0  0  0  0  0  0  0  0  0  0
   10.0436  -13.9297   22.2186 O   0  0  0  0  0  0  0  0  0  0  0  0
  1  2  1  0
  3  4  1  6
  3  2  1  0
  3  5  1  0
  5 12  1  0
  5  6  2  0
  8  7  1  0
  8 10  1  0
  9  8  2  0
 11 10  1  1
 11 13  1  0
 12 11  1  0
 13 14  2  0
 13 15  1  0
 15 16  1  0
 16 17  1  0
 18 17  1  0
 19 15  1  0
 19 18  1  0
 19 20  1  1
 21 20  1  0
 22 20  2  0
M  END
$$$$
