SNP.pdb
     RDKit          3D

 22 22  0  0  1  0  0  0  0  0999 V2000
    8.1802  -17.9364   18.0795 O   0  0  0  0  0  0  0  0  0  0  0  0
    7.9578  -19.2994   18.1042 C   0  0  0  0  0  0  0  0  0  0  0  0
    6.6184  -19.5618   18.7651 C   0  0  2  0  0  0  0  0  0  0  0  0
    5.5941  -19.3076   17.7987 N   0  0  0  0  0  0  0  0  0  0  0  0
    6.4243  -18.6179   19.9153 C   0  0  0  0  0  0  0  0  0  0  0  0
    5.6514  -17.6277   19.8152 O   0  0  0  0  0  0  0  0  0  0  0  0
    7.6865  -18.1990   25.6974 N   0  0  0  0  0  0  0  0  0  0  0  0
    6.6132  -18.1143   24.7877 C   0  0  0  0  0  0  0  0  0  0  0  0
    5.6322  -17.3921   25.0893 O   0  0  0  0  0  0  0  0  0  0  0  0
    6.7059  -18.8823   23.5295 C   0  0  0  0  0  0  0  0  0  0  0  0
    6.8576  -17.9973   22.3031 C   0  0  2  0  0  0  0  0  0  0  0  0
    7.1043  -18.8206   21.1338 N   0  0  0  0  0  0  0  0  0  0  0  0
    8.0931  -17.1921   22.5452 C   0  0  0  0  0  0  0  0  0  0  0  0
    9.1947  -17.6910   22.1047 O   0  0  0  0  0  0  0  0  0  0  0  0
    8.1208  -15.9518   23.2083 N   0  0  0  0  0  0  0  0  0  0  0  0
    7.0184  -15.3375   23.9028 C   0  0  0  0  0  0  0  0  0  0  0  0
    7.3361  -13.8497   23.9608 C   0  0  0  0  0  0  0  0  0  0  0  0
    8.5504  -13.7313   23.0291 C   0  0  0  0  0  0  0  0  0  0  0  0
    9.2412  -15.0659   23.3616 C   0  0  1  0  0  0  0  0  0  0  0  0
    9.6355  -14.9795   24.8171 C   0  0  0  0  0  0  0  0  0  0  0  0
    8.9246  -15.6259   25.7991 O   0  0  0  0  0  0  0  0  0  0  0  0
   10.6380  -14.3013   25.1489 O   0  0  0  0  0  0  0  0  0  0  0  0
  1  2  1  0
  3  4  1  6
  3  2  1  0
  3  5  1  0
  5 12  1  0
  5  6  2  0
  8  7  1  0
  8 10  1  0
  9  8  2  0
 11 10  1  1
 11 13  1  0
 12 11  1  0
 13 14  2  0
 13 15  1  0
 15 16  1  0
 16 17  1  0
 18 17  1  0
 19 15  1  0
 19 18  1  0
 19 20  1  1
 21 20  1  0
 22 20  2  0
M  END
$$$$
