SNP.pdb
     RDKit          3D

 22 22  0  0  1  0  0  0  0  0999 V2000
    9.6636  -15.4233   18.6964 O   0  0  0  0  0  0  0  0  0  0  0  0
   10.2512  -15.8322   19.8776 C   0  0  0  0  0  0  0  0  0  0  0  0
    9.3780  -16.8973   20.5122 C   0  0  2  0  0  0  0  0  0  0  0  0
    8.6154  -17.5175   19.4722 N   0  0  0  0  0  0  0  0  0  0  0  0
    8.4235  -16.2629   21.4807 C   0  0  0  0  0  0  0  0  0  0  0  0
    7.4683  -15.5492   21.0730 O   0  0  0  0  0  0  0  0  0  0  0  0
    5.2991  -18.0766   23.4149 N   0  0  0  0  0  0  0  0  0  0  0  0
    6.5889  -18.1978   23.9703 C   0  0  0  0  0  0  0  0  0  0  0  0
    7.2143  -19.2716   23.7953 O   0  0  0  0  0  0  0  0  0  0  0  0
    7.1304  -17.0512   24.7276 C   0  0  0  0  0  0  0  0  0  0  0  0
    7.6252  -15.9278   23.8313 C   0  0  2  0  0  0  0  0  0  0  0  0
    8.5766  -16.4531   22.8694 N   0  0  0  0  0  0  0  0  0  0  0  0
    8.3747  -15.0014   24.7333 C   0  0  0  0  0  0  0  0  0  0  0  0
    9.6463  -14.9298   24.5484 O   0  0  0  0  0  0  0  0  0  0  0  0
    7.7857  -14.2223   25.7456 N   0  0  0  0  0  0  0  0  0  0  0  0
    6.3946  -14.2304   26.1198 C   0  0  0  0  0  0  0  0  0  0  0  0
    6.1411  -12.9023   26.8197 C   0  0  0  0  0  0  0  0  0  0  0  0
    7.4386  -12.1285   26.5472 C   0  0  0  0  0  0  0  0  0  0  0  0
    8.4380  -13.2960   26.6288 C   0  0  1  0  0  0  0  0  0  0  0  0
    8.3708  -13.8032   28.0500 C   0  0  0  0  0  0  0  0  0  0  0  0
    9.0444  -13.1810   29.0731 O   0  0  0  0  0  0  0  0  0  0  0  0
    7.6838  -14.8197   28.3139 O   0  0  0  0  0  0  0  0  0  0  0  0
  1  2  1  0
  3  4  1  6
  3  2  1  0
  3  5  1  0
  5 12  1  0
  5  6  2  0
  8  7  1  0
  8 10  1  0
  9  8  2  0
 11 10  1  1
 11 13  1  0
 12 11  1  0
 13 14  2  0
 13 15  1  0
 15 16  1  0
 16 17  1  0
 18 17  1  0
 19 15  1  0
 19 18  1  0
 19 20  1  1
 21 20  1  0
 22 20  2  0
M  END
$$$$
