SNP.pdb
     RDKit          3D

 22 22  0  0  1  0  0  0  0  0999 V2000
    9.5399  -13.3898   20.7128 O   0  0  0  0  0  0  0  0  0  0  0  0
    8.4053  -13.3823   19.9251 C   0  0  0  0  0  0  0  0  0  0  0  0
    7.7163  -14.7273   20.0517 C   0  0  2  0  0  0  0  0  0  0  0  0
    6.5950  -14.7322   19.1627 N   0  0  0  0  0  0  0  0  0  0  0  0
    7.2073  -14.9091   21.4515 C   0  0  0  0  0  0  0  0  0  0  0  0
    6.1308  -14.3694   21.8228 O   0  0  0  0  0  0  0  0  0  0  0  0
    5.9797  -17.7316   25.9897 N   0  0  0  0  0  0  0  0  0  0  0  0
    7.3157  -17.5723   25.5694 C   0  0  0  0  0  0  0  0  0  0  0  0
    8.2240  -17.6407   26.4325 O   0  0  0  0  0  0  0  0  0  0  0  0
    7.5691  -17.3336   24.1340 C   0  0  0  0  0  0  0  0  0  0  0  0
    7.4779  -15.8655   23.7508 C   0  0  2  0  0  0  0  0  0  0  0  0
    7.9248  -15.6892   22.3813 N   0  0  0  0  0  0  0  0  0  0  0  0
    8.4615  -15.1639   24.6304 C   0  0  0  0  0  0  0  0  0  0  0  0
    9.6969  -15.2378   24.2771 O   0  0  0  0  0  0  0  0  0  0  0  0
    8.1238  -14.4450   25.7913 N   0  0  0  0  0  0  0  0  0  0  0  0
    6.8036  -14.3134   26.3525 C   0  0  0  0  0  0  0  0  0  0  0  0
    6.8384  -13.0607   27.2170 C   0  0  0  0  0  0  0  0  0  0  0  0
    8.1933  -12.4394   26.8497 C   0  0  0  0  0  0  0  0  0  0  0  0
    9.0102  -13.7311   26.6679 C   0  0  1  0  0  0  0  0  0  0  0  0
    9.0431  -14.3973   28.0231 C   0  0  0  0  0  0  0  0  0  0  0  0
    8.3025  -15.5221   28.2948 O   0  0  0  0  0  0  0  0  0  0  0  0
    9.7634  -13.9182   28.9323 O   0  0  0  0  0  0  0  0  0  0  0  0
  1  2  1  0
  3  4  1  6
  3  2  1  0
  3  5  1  0
  5 12  1  0
  5  6  2  0
  8  7  1  0
  8 10  1  0
  9  8  2  0
 11 10  1  1
 11 13  1  0
 12 11  1  0
 13 14  2  0
 13 15  1  0
 15 16  1  0
 16 17  1  0
 18 17  1  0
 19 15  1  0
 19 18  1  0
 19 20  1  1
 21 20  1  0
 22 20  2  0
M  END
$$$$
