SNP.pdb
     RDKit          3D

 22 22  0  0  1  0  0  0  0  0999 V2000
   10.2779  -14.6914   19.2180 O   0  0  0  0  0  0  0  0  0  0  0  0
    9.1229  -14.2022   19.7964 C   0  0  0  0  0  0  0  0  0  0  0  0
    8.1161  -15.3312   19.9024 C   0  0  2  0  0  0  0  0  0  0  0  0
    7.1314  -15.1394   18.8820 N   0  0  0  0  0  0  0  0  0  0  0  0
    7.4287  -15.2772   21.2352 C   0  0  0  0  0  0  0  0  0  0  0  0
    6.2213  -14.9281   21.3259 O   0  0  0  0  0  0  0  0  0  0  0  0
    7.7240  -17.9995   26.4385 N   0  0  0  0  0  0  0  0  0  0  0  0
    6.8983  -17.2963   25.5383 C   0  0  0  0  0  0  0  0  0  0  0  0
    5.8122  -16.8332   25.9634 O   0  0  0  0  0  0  0  0  0  0  0  0
    7.3606  -17.1451   24.1437 C   0  0  0  0  0  0  0  0  0  0  0  0
    7.4609  -15.6932   23.7052 C   0  0  2  0  0  0  0  0  0  0  0  0
    8.1217  -15.6168   22.4153 N   0  0  0  0  0  0  0  0  0  0  0  0
    8.3612  -15.0388   24.7024 C   0  0  0  0  0  0  0  0  0  0  0  0
    9.6243  -15.2236   24.5382 O   0  0  0  0  0  0  0  0  0  0  0  0
    7.9196  -14.2517   25.7813 N   0  0  0  0  0  0  0  0  0  0  0  0
    6.5487  -14.0376   26.1686 C   0  0  0  0  0  0  0  0  0  0  0  0
    6.5382  -12.7478   26.9775 C   0  0  0  0  0  0  0  0  0  0  0  0
    7.9560  -12.2029   26.7551 C   0  0  0  0  0  0  0  0  0  0  0  0
    8.7259  -13.5353   26.7302 C   0  0  1  0  0  0  0  0  0  0  0  0
    8.5615  -14.1371   28.1058 C   0  0  0  0  0  0  0  0  0  0  0  0
    7.7201  -15.1986   28.3355 O   0  0  0  0  0  0  0  0  0  0  0  0
    9.2064  -13.6618   29.0717 O   0  0  0  0  0  0  0  0  0  0  0  0
  1  2  1  0
  3  4  1  6
  3  2  1  0
  3  5  1  0
  5 12  1  0
  5  6  2  0
  8  7  1  0
  8 10  1  0
  9  8  2  0
 11 10  1  1
 11 13  1  0
 12 11  1  0
 13 14  2  0
 13 15  1  0
 15 16  1  0
 16 17  1  0
 18 17  1  0
 19 15  1  0
 19 18  1  0
 19 20  1  1
 21 20  1  0
 22 20  2  0
M  END
$$$$
