SLC.pdb
     RDKit          3D

 21 20  0  0  1  0  0  0  0  0999 V2000
   26.4694  -19.1371  -17.0700 O   0  0  0  0  0  0  0  0  0  0  0  0
   27.4907  -18.6888  -16.2751 C   0  0  0  0  0  0  0  0  0  0  0  0
   28.1614  -19.8724  -15.6043 C   0  0  2  0  0  0  0  0  0  0  0  0
   28.7203  -20.7685  -16.6351 N   0  0  0  0  0  0  0  0  0  0  0  0
   27.2142  -20.7054  -14.8268 C   0  0  0  0  0  0  0  0  0  0  0  0
   26.8729  -21.8725  -15.1658 O   0  0  0  0  0  0  0  0  0  0  0  0
   25.8853  -20.7266   -8.9385 C   0  0  0  0  0  0  0  0  0  0  0  0
   25.3870  -21.2248  -10.2776 C   0  0  1  0  0  0  0  0  0  0  0  0
   23.8943  -20.8509  -10.3168 C   0  0  0  0  0  0  0  0  0  0  0  0
   26.0750  -20.5367  -11.3978 C   0  0  0  0  0  0  0  0  0  0  0  0
   25.7615  -20.9774  -12.7827 C   0  0  2  0  0  0  0  0  0  0  0  0
   26.6564  -20.1939  -13.6520 N   0  0  0  0  0  0  0  0  0  0  0  0
   24.4037  -20.7360  -13.2637 C   0  0  0  0  0  0  0  0  0  0  0  0
   23.9682  -19.5660  -13.4131 O   0  0  0  0  0  0  0  0  0  0  0  0
   23.5071  -21.7790  -13.5891 N   0  0  0  0  0  0  0  0  0  0  0  0
   22.1646  -21.5133  -14.0980 C   0  0  1  0  0  0  0  0  0  0  0  0
   21.5908  -22.7718  -14.7485 C   0  0  0  0  0  0  0  0  0  0  0  0
   19.8585  -22.4807  -15.1764 S   0  0  0  0  0  0  0  0  0  0  0  0
   21.2754  -21.0673  -12.9959 C   0  0  0  0  0  0  0  0  0  0  0  0
   21.4251  -21.5785  -11.8661 O   0  0  0  0  0  0  0  0  0  0  0  0
   20.2954  -20.1067  -13.1965 O   0  0  0  0  0  0  0  0  0  0  0  0
  2  1  1  0
  3  2  1  0
  3  4  1  6
  5  3  1  0
  6  5  2  0
  8  9  1  1
  8  7  1  0
 10  8  1  0
 11 10  1  1
 11 13  1  0
 11 12  1  0
 12  5  1  0
 13 15  1  0
 14 13  2  0
 15 16  1  0
 16 19  1  0
 16 17  1  1
 18 17  1  0
 19 21  1  0
 20 19  2  0
M  END
$$$$
