SLC.pdb
     RDKit          3D

 21 20  0  0  1  0  0  0  0  0999 V2000
   18.5588  -10.6098  -20.4653 O   0  0  0  0  0  0  0  0  0  0  0  0
   19.2165  -10.0586  -19.3978 C   0  0  0  0  0  0  0  0  0  0  0  0
   20.2940  -11.0152  -18.9236 C   0  0  2  0  0  0  0  0  0  0  0  0
   19.6821  -12.3150  -18.5864 N   0  0  0  0  0  0  0  0  0  0  0  0
   20.9629  -10.5585  -17.6828 C   0  0  0  0  0  0  0  0  0  0  0  0
   20.4618  -10.6919  -16.5320 O   0  0  0  0  0  0  0  0  0  0  0  0
   25.1463  -10.1698  -14.4740 C   0  0  0  0  0  0  0  0  0  0  0  0
   25.3584   -9.4385  -15.7816 C   0  0  1  0  0  0  0  0  0  0  0  0
   26.7540   -9.8724  -16.2646 C   0  0  0  0  0  0  0  0  0  0  0  0
   24.3585   -9.8511  -16.7974 C   0  0  0  0  0  0  0  0  0  0  0  0
   22.9436   -9.4472  -16.5853 C   0  0  2  0  0  0  0  0  0  0  0  0
   22.2159   -9.9452  -17.7655 N   0  0  0  0  0  0  0  0  0  0  0  0
   22.6681   -8.0151  -16.5047 C   0  0  0  0  0  0  0  0  0  0  0  0
   22.9137   -7.2530  -17.4742 O   0  0  0  0  0  0  0  0  0  0  0  0
   22.1164   -7.4022  -15.3568 N   0  0  0  0  0  0  0  0  0  0  0  0
   21.9169   -5.9583  -15.2722 C   0  0  1  0  0  0  0  0  0  0  0  0
   20.4241   -5.6315  -15.3043 C   0  0  0  0  0  0  0  0  0  0  0  0
   19.7104   -6.2698  -16.8379 S   0  0  0  0  0  0  0  0  0  0  0  0
   22.5207   -5.4275  -14.0240 C   0  0  0  0  0  0  0  0  0  0  0  0
   22.9644   -6.2396  -13.1851 O   0  0  0  0  0  0  0  0  0  0  0  0
   22.5993   -4.0651  -13.7771 O   0  0  0  0  0  0  0  0  0  0  0  0
  2  1  1  0
  3  2  1  0
  3  4  1  1
  5  3  1  0
  6  5  2  0
  8  9  1  6
  8  7  1  0
 10  8  1  0
 11 10  1  6
 11 13  1  0
 11 12  1  0
 12  5  1  0
 13 15  1  0
 14 13  2  0
 15 16  1  0
 16 19  1  0
 16 17  1  1
 18 17  1  0
 19 21  1  0
 20 19  2  0
M  END
$$$$
