SLC.pdb
     RDKit          3D

 21 20  0  0  1  0  0  0  0  0999 V2000
   17.5469  -12.7657  -15.8103 O   0  0  0  0  0  0  0  0  0  0  0  0
   17.9848  -11.5961  -16.3727 C   0  0  0  0  0  0  0  0  0  0  0  0
   18.0693  -10.5250  -15.3021 C   0  0  2  0  0  0  0  0  0  0  0  0
   16.7099  -10.1877  -14.8372 N   0  0  0  0  0  0  0  0  0  0  0  0
   18.6429   -9.2543  -15.8040 C   0  0  0  0  0  0  0  0  0  0  0  0
   19.8593   -9.1119  -16.1095 O   0  0  0  0  0  0  0  0  0  0  0  0
   18.1585   -4.8421  -18.8283 C   0  0  0  0  0  0  0  0  0  0  0  0
   17.2978   -4.8006  -17.5844 C   0  0  1  0  0  0  0  0  0  0  0  0
   15.9291   -4.2797  -18.0583 C   0  0  0  0  0  0  0  0  0  0  0  0
   17.1135   -6.1571  -17.0118 C   0  0  0  0  0  0  0  0  0  0  0  0
   18.3027   -6.8349  -16.4317 C   0  0  2  0  0  0  0  0  0  0  0  0
   17.8127   -8.1404  -15.9561 N   0  0  0  0  0  0  0  0  0  0  0  0
   18.9394   -6.1908  -15.2858 C   0  0  0  0  0  0  0  0  0  0  0  0
   18.6936   -6.5682  -14.1119 O   0  0  0  0  0  0  0  0  0  0  0  0
   19.8573   -5.1240  -15.4161 N   0  0  0  0  0  0  0  0  0  0  0  0
   20.6000   -4.5996  -14.2735 C   0  0  1  0  0  0  0  0  0  0  0  0
   21.4406   -5.7079  -13.6400 C   0  0  0  0  0  0  0  0  0  0  0  0
   22.5236   -4.9864  -12.3849 S   0  0  0  0  0  0  0  0  0  0  0  0
   21.4803   -3.4830  -14.7005 C   0  0  0  0  0  0  0  0  0  0  0  0
   22.0523   -3.5656  -15.8078 O   0  0  0  0  0  0  0  0  0  0  0  0
   21.6757   -2.3658  -13.9023 O   0  0  0  0  0  0  0  0  0  0  0  0
  2  1  1  0
  3  2  1  0
  3  4  1  6
  5  3  1  0
  6  5  2  0
  8  9  1  6
  8  7  1  0
 10  8  1  0
 11 10  1  1
 11 13  1  0
 11 12  1  0
 12  5  1  0
 13 15  1  0
 14 13  2  0
 15 16  1  0
 16 19  1  0
 16 17  1  6
 18 17  1  0
 19 21  1  0
 20 19  2  0
M  END
$$$$
