SLC.pdb
     RDKit          3D

 21 20  0  0  1  0  0  0  0  0999 V2000
   18.3057   -8.3767  -19.0125 O   0  0  0  0  0  0  0  0  0  0  0  0
   18.9716   -9.5259  -19.3471 C   0  0  0  0  0  0  0  0  0  0  0  0
   18.8747  -10.5142  -18.2004 C   0  0  2  0  0  0  0  0  0  0  0  0
   17.4565  -10.7178  -17.8469 N   0  0  0  0  0  0  0  0  0  0  0  0
   19.5251  -10.0242  -16.9625 C   0  0  0  0  0  0  0  0  0  0  0  0
   18.8908   -9.7348  -15.9102 O   0  0  0  0  0  0  0  0  0  0  0  0
   24.2405  -12.1942  -15.4056 C   0  0  0  0  0  0  0  0  0  0  0  0
   22.8647  -11.5659  -15.3613 C   0  0  1  0  0  0  0  0  0  0  0  0
   22.4164  -11.6796  -13.8932 C   0  0  0  0  0  0  0  0  0  0  0  0
   22.9170  -10.1291  -15.7282 C   0  0  0  0  0  0  0  0  0  0  0  0
   21.6391   -9.3698  -15.7518 C   0  0  2  0  0  0  0  0  0  0  0  0
   20.9133   -9.8665  -16.9338 N   0  0  0  0  0  0  0  0  0  0  0  0
   21.7320   -7.9202  -15.9037 C   0  0  0  0  0  0  0  0  0  0  0  0
   21.8610   -7.3952  -17.0390 O   0  0  0  0  0  0  0  0  0  0  0  0
   21.6821   -7.0280  -14.8087 N   0  0  0  0  0  0  0  0  0  0  0  0
   21.7367   -5.5801  -14.9884 C   0  0  1  0  0  0  0  0  0  0  0  0
   20.3742   -5.0551  -15.4405 C   0  0  0  0  0  0  0  0  0  0  0  0
   20.4153   -3.2479  -15.4700 S   0  0  0  0  0  0  0  0  0  0  0  0
   22.1345   -4.9186  -13.7202 C   0  0  0  0  0  0  0  0  0  0  0  0
   21.8939   -5.5031  -12.6429 O   0  0  0  0  0  0  0  0  0  0  0  0
   22.7595   -3.6806  -13.7114 O   0  0  0  0  0  0  0  0  0  0  0  0
  2  1  1  0
  3  2  1  0
  3  4  1  1
  5  3  1  0
  6  5  2  0
  8  9  1  1
  8  7  1  0
 10  8  1  0
 11 10  1  6
 11 13  1  0
 11 12  1  0
 12  5  1  0
 13 15  1  0
 14 13  2  0
 15 16  1  0
 16 19  1  0
 16 17  1  1
 18 17  1  0
 19 21  1  0
 20 19  2  0
M  END
$$$$
