SLC.pdb
     RDKit          3D

 21 20  0  0  1  0  0  0  0  0999 V2000
   18.2934  -11.5147  -18.9469 O   0  0  0  0  0  0  0  0  0  0  0  0
   18.7715  -10.7649  -17.9053 C   0  0  0  0  0  0  0  0  0  0  0  0
   19.9320  -11.4928  -17.2539 C   0  0  2  0  0  0  0  0  0  0  0  0
   19.4193  -12.6405  -16.4808 N   0  0  0  0  0  0  0  0  0  0  0  0
   20.6627  -10.6519  -16.2769 C   0  0  0  0  0  0  0  0  0  0  0  0
   20.2496  -10.4267  -15.1055 O   0  0  0  0  0  0  0  0  0  0  0  0
   26.1455  -10.7700  -16.0511 C   0  0  0  0  0  0  0  0  0  0  0  0
   24.7211  -10.6405  -15.5569 C   0  0  1  0  0  0  0  0  0  0  0  0
   24.8362  -10.4938  -14.0290 C   0  0  0  0  0  0  0  0  0  0  0  0
   24.0717   -9.4219  -16.1000 C   0  0  0  0  0  0  0  0  0  0  0  0
   22.6453   -9.1817  -15.7565 C   0  0  2  0  0  0  0  0  0  0  0  0
   21.8761  -10.0667  -16.6485 N   0  0  0  0  0  0  0  0  0  0  0  0
   22.1303   -7.8318  -15.9702 C   0  0  0  0  0  0  0  0  0  0  0  0
   22.0508   -7.3448  -17.1267 O   0  0  0  0  0  0  0  0  0  0  0  0
   21.6935   -6.9999  -14.9144 N   0  0  0  0  0  0  0  0  0  0  0  0
   21.1900   -5.6501  -15.1518 C   0  0  1  0  0  0  0  0  0  0  0  0
   19.7529   -5.5289  -14.6455 C   0  0  0  0  0  0  0  0  0  0  0  0
   19.2052   -3.8148  -14.8207 S   0  0  0  0  0  0  0  0  0  0  0  0
   22.0498   -4.6521  -14.4669 C   0  0  0  0  0  0  0  0  0  0  0  0
   21.8811   -3.4422  -14.7273 O   0  0  0  0  0  0  0  0  0  0  0  0
   23.0231   -5.0349  -13.5560 O   0  0  0  0  0  0  0  0  0  0  0  0
  2  1  1  0
  3  2  1  0
  3  4  1  1
  5  3  1  0
  6  5  2  0
  8  9  1  1
  8  7  1  0
 10  8  1  0
 11 10  1  6
 11 13  1  0
 11 12  1  0
 12  5  1  0
 13 15  1  0
 14 13  2  0
 15 16  1  0
 16 19  1  0
 16 17  1  1
 18 17  1  0
 19 21  1  0
 20 19  2  0
M  END
$$$$
