SLC.pdb
     RDKit          3D

 21 20  0  0  1  0  0  0  0  0999 V2000
   21.1204  -12.3305  -20.4971 O   0  0  0  0  0  0  0  0  0  0  0  0
   20.6774  -13.4552  -19.8532 C   0  0  0  0  0  0  0  0  0  0  0  0
   21.7453  -13.9350  -18.8888 C   0  0  2  0  0  0  0  0  0  0  0  0
   21.2690  -15.1457  -18.1921 N   0  0  0  0  0  0  0  0  0  0  0  0
   22.0380  -12.9521  -17.8194 C   0  0  0  0  0  0  0  0  0  0  0  0
   21.2881  -12.7646  -16.8215 O   0  0  0  0  0  0  0  0  0  0  0  0
   25.3041  -10.2233  -14.5027 C   0  0  0  0  0  0  0  0  0  0  0  0
   25.6908  -10.1595  -15.9642 C   0  0  1  0  0  0  0  0  0  0  0  0
   27.2080  -10.4173  -15.9916 C   0  0  0  0  0  0  0  0  0  0  0  0
   25.0172  -11.2257  -16.7461 C   0  0  0  0  0  0  0  0  0  0  0  0
   23.5416  -11.1435  -16.9077 C   0  0  2  0  0  0  0  0  0  0  0  0
   23.2004  -12.1802  -17.8973 N   0  0  0  0  0  0  0  0  0  0  0  0
   23.0000   -9.8882  -17.4217 C   0  0  0  0  0  0  0  0  0  0  0  0
   23.1643   -9.5560  -18.6232 O   0  0  0  0  0  0  0  0  0  0  0  0
   22.2681   -8.9821  -16.6210 N   0  0  0  0  0  0  0  0  0  0  0  0
   21.7493   -7.7254  -17.1534 C   0  0  1  0  0  0  0  0  0  0  0  0
   20.2378   -7.8255  -17.3571 C   0  0  0  0  0  0  0  0  0  0  0  0
   19.5790   -6.1823  -17.7240 S   0  0  0  0  0  0  0  0  0  0  0  0
   22.0584   -6.6073  -16.2268 C   0  0  0  0  0  0  0  0  0  0  0  0
   22.0027   -6.8201  -14.9973 O   0  0  0  0  0  0  0  0  0  0  0  0
   22.4031   -5.3487  -16.6964 O   0  0  0  0  0  0  0  0  0  0  0  0
  2  1  1  0
  3  2  1  0
  3  4  1  1
  5  3  1  0
  6  5  2  0
  8  9  1  1
  8  7  1  0
 10  8  1  0
 11 10  1  6
 11 13  1  0
 11 12  1  0
 12  5  1  0
 13 15  1  0
 14 13  2  0
 15 16  1  0
 16 19  1  0
 16 17  1  1
 18 17  1  0
 19 21  1  0
 20 19  2  0
M  END
$$$$
