SLC.pdb
     RDKit          3D

 21 20  0  0  1  0  0  0  0  0999 V2000
   19.6672  -10.6827  -21.2778 O   0  0  0  0  0  0  0  0  0  0  0  0
   19.8804  -10.3488  -19.9667 C   0  0  0  0  0  0  0  0  0  0  0  0
   20.8230  -11.3577  -19.3386 C   0  0  2  0  0  0  0  0  0  0  0  0
   20.0878  -12.6054  -19.0548 N   0  0  0  0  0  0  0  0  0  0  0  0
   21.3592  -10.9081  -18.0324 C   0  0  0  0  0  0  0  0  0  0  0  0
   20.6907  -10.9259  -16.9618 O   0  0  0  0  0  0  0  0  0  0  0  0
   25.1322  -10.5622  -14.2818 C   0  0  0  0  0  0  0  0  0  0  0  0
   25.5357   -9.9181  -15.5903 C   0  0  1  0  0  0  0  0  0  0  0  0
   26.9668  -10.4164  -15.8605 C   0  0  0  0  0  0  0  0  0  0  0  0
   24.6624  -10.3666  -16.7028 C   0  0  0  0  0  0  0  0  0  0  0  0
   23.2556   -9.8859  -16.7204 C   0  0  2  0  0  0  0  0  0  0  0  0
   22.6722  -10.4357  -17.9565 N   0  0  0  0  0  0  0  0  0  0  0  0
   23.0496   -8.4410  -16.7741 C   0  0  0  0  0  0  0  0  0  0  0  0
   23.4774   -7.7615  -17.7417 O   0  0  0  0  0  0  0  0  0  0  0  0
   22.3679   -7.7240  -15.7647 N   0  0  0  0  0  0  0  0  0  0  0  0
   22.1599   -6.2812  -15.8480 C   0  0  1  0  0  0  0  0  0  0  0  0
   20.6816   -5.9767  -16.0894 C   0  0  0  0  0  0  0  0  0  0  0  0
   20.1835   -6.6800  -17.6787 S   0  0  0  0  0  0  0  0  0  0  0  0
   22.6104   -5.6231  -14.5957 C   0  0  0  0  0  0  0  0  0  0  0  0
   22.9114   -6.3425  -13.6200 O   0  0  0  0  0  0  0  0  0  0  0  0
   22.7013   -4.2430  -14.4922 O   0  0  0  0  0  0  0  0  0  0  0  0
  2  1  1  0
  3  2  1  0
  3  4  1  1
  5  3  1  0
  6  5  2  0
  8  9  1  6
  8  7  1  0
 10  8  1  0
 11 10  1  6
 11 13  1  0
 11 12  1  0
 12  5  1  0
 13 15  1  0
 14 13  2  0
 15 16  1  0
 16 19  1  0
 16 17  1  1
 18 17  1  0
 19 21  1  0
 20 19  2  0
M  END
$$$$
