SLC.pdb
     RDKit          3D

 21 20  0  0  1  0  0  0  0  0999 V2000
   19.1286  -12.9166  -18.7971 O   0  0  0  0  0  0  0  0  0  0  0  0
   20.3148  -13.3191  -19.3510 C   0  0  0  0  0  0  0  0  0  0  0  0
   21.1431  -14.0332  -18.2998 C   0  0  2  0  0  0  0  0  0  0  0  0
   20.3418  -15.1152  -17.6957 N   0  0  0  0  0  0  0  0  0  0  0  0
   21.5288  -13.1501  -17.1742 C   0  0  0  0  0  0  0  0  0  0  0  0
   20.9596  -13.1688  -16.0477 O   0  0  0  0  0  0  0  0  0  0  0  0
   26.6945  -10.8182  -15.3114 C   0  0  0  0  0  0  0  0  0  0  0  0
   25.2028  -10.5719  -15.2507 C   0  0  1  0  0  0  0  0  0  0  0  0
   25.0250   -9.0842  -15.6033 C   0  0  0  0  0  0  0  0  0  0  0  0
   24.4814  -11.3853  -16.2605 C   0  0  0  0  0  0  0  0  0  0  0  0
   22.9976  -11.2983  -16.2931 C   0  0  2  0  0  0  0  0  0  0  0  0
   22.5758  -12.2403  -17.3444 N   0  0  0  0  0  0  0  0  0  0  0  0
   22.4170  -10.0042  -16.6416 C   0  0  0  0  0  0  0  0  0  0  0  0
   22.5311   -9.5349  -17.8025 O   0  0  0  0  0  0  0  0  0  0  0  0
   21.7008   -9.2097  -15.7179 N   0  0  0  0  0  0  0  0  0  0  0  0
   21.0495   -7.9638  -16.1122 C   0  0  1  0  0  0  0  0  0  0  0  0
   19.5411   -8.0653  -15.8866 C   0  0  0  0  0  0  0  0  0  0  0  0
   18.7965   -6.4337  -16.1151 S   0  0  0  0  0  0  0  0  0  0  0  0
   21.5987   -6.8264  -15.3318 C   0  0  0  0  0  0  0  0  0  0  0  0
   21.9580   -7.0313  -14.1532 O   0  0  0  0  0  0  0  0  0  0  0  0
   21.7181   -5.5586  -15.8812 O   0  0  0  0  0  0  0  0  0  0  0  0
  2  1  1  0
  3  2  1  0
  3  4  1  1
  5  3  1  0
  6  5  2  0
  8  9  1  6
  8  7  1  0
 10  8  1  0
 11 10  1  6
 11 13  1  0
 11 12  1  0
 12  5  1  0
 13 15  1  0
 14 13  2  0
 15 16  1  0
 16 19  1  0
 16 17  1  1
 18 17  1  0
 19 21  1  0
 20 19  2  0
M  END
$$$$
