SLC.pdb
     RDKit          3D

 21 20  0  0  1  0  0  0  0  0999 V2000
   23.5483  -38.3537   -6.2374 O   0  0  0  0  0  0  0  0  0  0  0  0
   24.3660  -38.9006   -7.1904 C   0  0  0  0  0  0  0  0  0  0  0  0
   24.7940  -37.8198   -8.1648 C   0  0  2  0  0  0  0  0  0  0  0  0
   25.6816  -38.4054   -9.1881 N   0  0  0  0  0  0  0  0  0  0  0  0
   25.5864  -36.7460   -7.5208 C   0  0  0  0  0  0  0  0  0  0  0  0
   26.8225  -36.8399   -7.2827 O   0  0  0  0  0  0  0  0  0  0  0  0
   24.5095  -31.6151   -8.9363 C   0  0  0  0  0  0  0  0  0  0  0  0
   25.2670  -32.8603   -8.5298 C   0  0  1  0  0  0  0  0  0  0  0  0
   26.7544  -32.4970   -8.6874 C   0  0  0  0  0  0  0  0  0  0  0  0
   25.0138  -33.2046   -7.1088 C   0  0  0  0  0  0  0  0  0  0  0  0
   25.6758  -34.4163   -6.5577 C   0  0  2  0  0  0  0  0  0  0  0  0
   24.9540  -35.5566   -7.1488 N   0  0  0  0  0  0  0  0  0  0  0  0
   25.6225  -34.6001   -5.1098 C   0  0  0  0  0  0  0  0  0  0  0  0
   24.5235  -34.6165   -4.4992 O   0  0  0  0  0  0  0  0  0  0  0  0
   26.7780  -34.7708   -4.3139 N   0  0  0  0  0  0  0  0  0  0  0  0
   26.6963  -35.0610   -2.8852 C   0  0  1  0  0  0  0  0  0  0  0  0
   27.4197  -36.3707   -2.5731 C   0  0  0  0  0  0  0  0  0  0  0  0
   26.2419  -37.7383   -2.6790 S   0  0  0  0  0  0  0  0  0  0  0  0
   27.2991  -33.9545   -2.1000 C   0  0  0  0  0  0  0  0  0  0  0  0
   28.1978  -33.2684   -2.6308 O   0  0  0  0  0  0  0  0  0  0  0  0
   26.8874  -33.6739   -0.8057 O   0  0  0  0  0  0  0  0  0  0  0  0
  2  1  1  0
  3  2  1  0
  3  4  1  6
  5  3  1  0
  6  5  2  0
  8  9  1  1
  8  7  1  0
 10  8  1  0
 11 10  1  1
 11 13  1  0
 11 12  1  0
 12  5  1  0
 13 15  1  0
 14 13  2  0
 15 16  1  0
 16 19  1  0
 16 17  1  6
 18 17  1  0
 19 21  1  0
 20 19  2  0
M  END
$$$$
