IWF.pdb
     RDKit          3D

 34 36  0  0  1  0  0  0  0  0999 V2000
   30.7943  -21.5552  -16.8941 C   0  0  0  0  0  0  0  0  0  0  0  0
   29.2842  -21.5659  -16.9405 C   0  0  0  0  0  0  0  0  0  0  0  0
   28.6509  -20.9580  -15.7080 C   0  0  2  0  0  0  0  0  0  0  0  0
   29.1194  -21.7210  -14.4931 C   0  0  0  0  0  0  0  0  0  0  0  0
   27.1640  -21.0405  -15.8341 C   0  0  2  0  0  0  0  0  0  0  0  0
   26.7129  -20.3347  -16.9913 N   0  0  0  0  0  0  0  0  0  0  0  0
   26.4732  -20.5659  -14.5859 C   0  0  0  0  0  0  0  0  0  0  0  0
   26.4350  -19.3357  -14.3302 O   0  0  0  0  0  0  0  0  0  0  0  0
   25.8608  -21.4550  -13.6834 N   0  0  0  0  0  0  0  0  0  0  0  0
   25.0526  -20.9302  -12.5537 C   0  0  1  0  0  0  0  0  0  0  0  0
   23.7577  -21.6838  -12.5480 C   0  0  0  0  0  0  0  0  0  0  0  0
   22.5489  -20.8616  -12.3940 C   0  0  0  0  0  0  0  0  0  0  0  0
   22.4098  -19.4839  -12.4703 C   0  0  0  0  0  0  0  0  0  0  0  0
   21.1353  -19.1216  -12.2453 N   0  0  0  0  0  0  0  0  0  0  0  0
   20.4164  -20.2520  -12.0176 C   0  0  0  0  0  0  0  0  0  0  0  0
   19.0858  -20.4539  -11.7381 C   0  0  0  0  0  0  0  0  0  0  0  0
   18.6360  -21.7326  -11.5516 C   0  0  0  0  0  0  0  0  0  0  0  0
   19.4663  -22.8052  -11.6348 C   0  0  0  0  0  0  0  0  0  0  0  0
   20.8043  -22.6027  -11.9158 C   0  0  0  0  0  0  0  0  0  0  0  0
   21.2681  -21.3266  -12.1051 C   0  0  0  0  0  0  0  0  0  0  0  0
   25.7942  -21.1416  -11.3219 C   0  0  0  0  0  0  0  0  0  0  0  0
   26.3357  -22.2950  -11.1539 O   0  0  0  0  0  0  0  0  0  0  0  0
   25.9949  -20.2144  -10.2811 N   0  0  0  0  0  0  0  0  0  0  0  0
   26.6196  -20.6675   -9.0454 C   0  0  1  0  0  0  0  0  0  0  0  0
   27.6024  -19.5438   -8.6932 C   0  0  0  0  0  0  0  0  0  0  0  0
   27.9857  -19.6845   -7.2892 C   0  0  0  0  0  0  0  0  0  0  0  0
   27.3555  -18.9354   -6.3180 C   0  0  0  0  0  0  0  0  0  0  0  0
   27.6700  -19.0584   -4.9794 C   0  0  0  0  0  0  0  0  0  0  0  0
   28.6440  -19.9622   -4.6334 C   0  0  0  0  0  0  0  0  0  0  0  0
   29.2995  -20.7344   -5.5922 C   0  0  0  0  0  0  0  0  0  0  0  0
   28.9576  -20.5840   -6.9268 C   0  0  0  0  0  0  0  0  0  0  0  0
   25.6577  -20.7856   -7.9485 C   0  0  0  0  0  0  0  0  0  0  0  0
   24.5659  -20.1507   -7.9151 O   0  0  0  0  0  0  0  0  0  0  0  0
   25.8781  -21.6217   -6.8422 O   0  0  0  0  0  0  0  0  0  0  0  0
  2  1  1  0
  3  5  1  0
  3  2  1  0
  3  4  1  1
  5  6  1  6
  7  5  1  0
  8  7  2  0
  9  7  1  0
 10 21  1  0
 10  9  1  0
 10 11  1  1
 12 11  1  0
 13 12  2  0
 14 15  1  0
 14 13  1  0
 15 20  2  0
 16 17  2  0
 16 15  1  0
 17 18  1  0
 18 19  2  0
 20 19  1  0
 20 12  1  0
 21 22  2  0
 23 24  1  0
 23 21  1  0
 24 25  1  1
 25 26  1  0
 26 27  2  0
 27 28  1  0
 29 28  2  0
 30 29  1  0
 31 26  1  0
 31 30  2  0
 32 34  1  0
 32 24  1  0
 33 32  2  0
M  END
$$$$
