IWF.pdb
     RDKit          3D

 34 36  0  0  1  0  0  0  0  0999 V2000
   29.2195  -18.9279  -15.7344 C   0  0  0  0  0  0  0  0  0  0  0  0
   29.6200  -19.3243  -14.3326 C   0  0  0  0  0  0  0  0  0  0  0  0
   28.4892  -19.9582  -13.5521 C   0  0  2  0  0  0  0  0  0  0  0  0
   27.3100  -19.0163  -13.5514 C   0  0  0  0  0  0  0  0  0  0  0  0
   28.9493  -20.2186  -12.1542 C   0  0  2  0  0  0  0  0  0  0  0  0
   30.0789  -21.0932  -12.1463 N   0  0  0  0  0  0  0  0  0  0  0  0
   27.8344  -20.7387  -11.2900 C   0  0  0  0  0  0  0  0  0  0  0  0
   27.7157  -21.9777  -11.1133 O   0  0  0  0  0  0  0  0  0  0  0  0
   26.9089  -19.8832  -10.6643 N   0  0  0  0  0  0  0  0  0  0  0  0
   25.8248  -20.4477   -9.8210 C   0  0  1  0  0  0  0  0  0  0  0  0
   25.6264  -19.5104   -8.6691 C   0  0  0  0  0  0  0  0  0  0  0  0
   26.8097  -19.2859   -7.8263 C   0  0  0  0  0  0  0  0  0  0  0  0
   27.7885  -18.3091   -7.9310 C   0  0  0  0  0  0  0  0  0  0  0  0
   28.7194  -18.4643   -6.9740 N   0  0  0  0  0  0  0  0  0  0  0  0
   28.3694  -19.5432   -6.2257 C   0  0  0  0  0  0  0  0  0  0  0  0
   28.9614  -20.1367   -5.1362 C   0  0  0  0  0  0  0  0  0  0  0  0
   28.3684  -21.2367   -4.5791 C   0  0  0  0  0  0  0  0  0  0  0  0
   27.2137  -21.7570   -5.0719 C   0  0  0  0  0  0  0  0  0  0  0  0
   26.6182  -21.1607   -6.1672 C   0  0  0  0  0  0  0  0  0  0  0  0
   27.2017  -20.0577   -6.7350 C   0  0  0  0  0  0  0  0  0  0  0  0
   24.6226  -20.5548  -10.6303 C   0  0  0  0  0  0  0  0  0  0  0  0
   24.5394  -19.7914  -11.6609 O   0  0  0  0  0  0  0  0  0  0  0  0
   23.5274  -21.4136  -10.4155 N   0  0  0  0  0  0  0  0  0  0  0  0
   22.4335  -21.4137  -11.3778 C   0  0  1  0  0  0  0  0  0  0  0  0
   21.6992  -22.7322  -11.1041 C   0  0  0  0  0  0  0  0  0  0  0  0
   20.5383  -22.8102  -11.9895 C   0  0  0  0  0  0  0  0  0  0  0  0
   20.6690  -23.3197  -13.2643 C   0  0  0  0  0  0  0  0  0  0  0  0
   19.5926  -23.4346  -14.1209 C   0  0  0  0  0  0  0  0  0  0  0  0
   18.3659  -23.0212  -13.6629 C   0  0  0  0  0  0  0  0  0  0  0  0
   18.2013  -22.5019  -12.3791 C   0  0  0  0  0  0  0  0  0  0  0  0
   19.3048  -22.4013  -11.5466 C   0  0  0  0  0  0  0  0  0  0  0  0
   21.4920  -20.3169  -11.1473 C   0  0  0  0  0  0  0  0  0  0  0  0
   20.7486  -19.8423  -12.0519 O   0  0  0  0  0  0  0  0  0  0  0  0
   21.3429  -19.7055   -9.8920 O   0  0  0  0  0  0  0  0  0  0  0  0
  2  1  1  0
  3  5  1  0
  3  2  1  0
  3  4  1  1
  5  6  1  6
  7  5  1  0
  8  7  2  0
  9  7  1  0
 10 21  1  0
 10  9  1  0
 10 11  1  1
 12 11  1  0
 13 12  2  0
 14 15  1  0
 14 13  1  0
 15 20  2  0
 16 17  2  0
 16 15  1  0
 17 18  1  0
 18 19  2  0
 20 19  1  0
 20 12  1  0
 21 22  2  0
 23 24  1  0
 23 21  1  0
 24 25  1  1
 25 26  1  0
 26 27  2  0
 27 28  1  0
 29 28  2  0
 30 29  1  0
 31 26  1  0
 31 30  2  0
 32 34  1  0
 32 24  1  0
 33 32  2  0
M  END
$$$$
