IWF.pdb
     RDKit          3D

 34 36  0  0  1  0  0  0  0  0999 V2000
   27.7211  -18.2569  -17.9446 C   0  0  0  0  0  0  0  0  0  0  0  0
   27.6596  -19.3466  -16.8998 C   0  0  0  0  0  0  0  0  0  0  0  0
   27.0597  -18.8780  -15.5921 C   0  0  2  0  0  0  0  0  0  0  0  0
   27.8380  -17.6822  -15.1001 C   0  0  0  0  0  0  0  0  0  0  0  0
   27.1307  -19.9914  -14.5977 C   0  0  2  0  0  0  0  0  0  0  0  0
   26.6791  -21.2174  -15.1754 N   0  0  0  0  0  0  0  0  0  0  0  0
   26.3822  -19.6591  -13.3369 C   0  0  0  0  0  0  0  0  0  0  0  0
   26.6533  -18.5990  -12.7181 O   0  0  0  0  0  0  0  0  0  0  0  0
   25.3788  -20.4977  -12.8172 N   0  0  0  0  0  0  0  0  0  0  0  0
   24.6616  -20.1186  -11.5735 C   0  0  1  0  0  0  0  0  0  0  0  0
   23.3327  -20.8102  -11.6005 C   0  0  0  0  0  0  0  0  0  0  0  0
   22.3645  -20.3576  -10.5912 C   0  0  0  0  0  0  0  0  0  0  0  0
   21.5834  -19.2118  -10.5769 C   0  0  0  0  0  0  0  0  0  0  0  0
   20.8432  -19.1549   -9.4565 N   0  0  0  0  0  0  0  0  0  0  0  0
   21.1244  -20.2595   -8.7167 C   0  0  0  0  0  0  0  0  0  0  0  0
   20.6559  -20.6939   -7.4996 C   0  0  0  0  0  0  0  0  0  0  0  0
   21.1316  -21.8712   -6.9900 C   0  0  0  0  0  0  0  0  0  0  0  0
   22.0518  -22.6206   -7.6522 C   0  0  0  0  0  0  0  0  0  0  0  0
   22.5232  -22.1843   -8.8759 C   0  0  0  0  0  0  0  0  0  0  0  0
   22.0548  -21.0064   -9.3982 C   0  0  0  0  0  0  0  0  0  0  0  0
   25.4585  -20.5459  -10.4359 C   0  0  0  0  0  0  0  0  0  0  0  0
   26.0746  -21.6690  -10.5401 O   0  0  0  0  0  0  0  0  0  0  0  0
   25.6399  -19.8595   -9.2197 N   0  0  0  0  0  0  0  0  0  0  0  0
   26.4994  -20.4476   -8.2009 C   0  0  1  0  0  0  0  0  0  0  0  0
   27.5208  -19.3447   -7.8959 C   0  0  0  0  0  0  0  0  0  0  0  0
   27.9757  -19.5013   -6.5151 C   0  0  0  0  0  0  0  0  0  0  0  0
   28.8496  -20.5147   -6.1816 C   0  0  0  0  0  0  0  0  0  0  0  0
   29.3229  -20.6796   -4.8954 C   0  0  0  0  0  0  0  0  0  0  0  0
   28.8935  -19.7928   -3.9390 C   0  0  0  0  0  0  0  0  0  0  0  0
   28.0103  -18.7577   -4.2449 C   0  0  0  0  0  0  0  0  0  0  0  0
   27.5559  -18.6228   -5.5472 C   0  0  0  0  0  0  0  0  0  0  0  0
   25.7724  -20.7433   -6.9653 C   0  0  0  0  0  0  0  0  0  0  0  0
   26.2105  -21.5264   -6.0760 O   0  0  0  0  0  0  0  0  0  0  0  0
   24.5231  -20.1725   -6.6732 O   0  0  0  0  0  0  0  0  0  0  0  0
  2  1  1  0
  3  5  1  0
  3  2  1  0
  3  4  1  1
  5  6  1  6
  7  5  1  0
  8  7  2  0
  9  7  1  0
 10 21  1  0
 10  9  1  0
 10 11  1  6
 12 11  1  0
 13 12  2  0
 14 15  1  0
 14 13  1  0
 15 20  2  0
 16 17  2  0
 16 15  1  0
 17 18  1  0
 18 19  2  0
 20 19  1  0
 20 12  1  0
 21 22  2  0
 23 24  1  0
 23 21  1  0
 24 25  1  1
 25 26  1  0
 26 27  2  0
 27 28  1  0
 29 28  2  0
 30 29  1  0
 31 26  1  0
 31 30  2  0
 32 34  1  0
 32 24  1  0
 33 32  2  0
M  END
$$$$
