IWF.pdb
     RDKit          3D

 34 36  0  0  1  0  0  0  0  0999 V2000
   24.6774  -18.9547  -19.8507 C   0  0  0  0  0  0  0  0  0  0  0  0
   26.0350  -19.1969  -19.2334 C   0  0  0  0  0  0  0  0  0  0  0  0
   25.9557  -19.8338  -17.8630 C   0  0  2  0  0  0  0  0  0  0  0  0
   25.1050  -18.9637  -16.9702 C   0  0  0  0  0  0  0  0  0  0  0  0
   27.3363  -19.9608  -17.3051 C   0  0  2  0  0  0  0  0  0  0  0  0
   28.1726  -20.7125  -18.1863 N   0  0  0  0  0  0  0  0  0  0  0  0
   27.3240  -20.5398  -15.9177 C   0  0  0  0  0  0  0  0  0  0  0  0
   27.0481  -21.7557  -15.7577 O   0  0  0  0  0  0  0  0  0  0  0  0
   27.6128  -19.7650  -14.7791 N   0  0  0  0  0  0  0  0  0  0  0  0
   27.5788  -20.3832  -13.4294 C   0  0  1  0  0  0  0  0  0  0  0  0
   28.5814  -19.6578  -12.5848 C   0  0  0  0  0  0  0  0  0  0  0  0
   28.8546  -20.2595  -11.2717 C   0  0  0  0  0  0  0  0  0  0  0  0
   29.7331  -21.2800  -10.9402 C   0  0  0  0  0  0  0  0  0  0  0  0
   29.6676  -21.5557   -9.6264 N   0  0  0  0  0  0  0  0  0  0  0  0
   28.7470  -20.7234   -9.0730 C   0  0  0  0  0  0  0  0  0  0  0  0
   28.2940  -20.5823   -7.7829 C   0  0  0  0  0  0  0  0  0  0  0  0
   27.3391  -19.6392   -7.5169 C   0  0  0  0  0  0  0  0  0  0  0  0
   26.8278  -18.8405   -8.4904 C   0  0  0  0  0  0  0  0  0  0  0  0
   27.2831  -18.9819   -9.7877 C   0  0  0  0  0  0  0  0  0  0  0  0
   28.2398  -19.9230  -10.0679 C   0  0  0  0  0  0  0  0  0  0  0  0
   26.2349  -20.2434  -12.8944 C   0  0  0  0  0  0  0  0  0  0  0  0
   25.7101  -19.0706  -12.9261 O   0  0  0  0  0  0  0  0  0  0  0  0
   25.4297  -21.2590  -12.3436 N   0  0  0  0  0  0  0  0  0  0  0  0
   24.2231  -20.8848  -11.6178 C   0  0  1  0  0  0  0  0  0  0  0  0
   23.0960  -21.5866  -12.3857 C   0  0  0  0  0  0  0  0  0  0  0  0
   22.6825  -20.7266  -13.4935 C   0  0  0  0  0  0  0  0  0  0  0  0
   21.8725  -19.6349  -13.2614 C   0  0  0  0  0  0  0  0  0  0  0  0
   21.4822  -18.7839  -14.2759 C   0  0  0  0  0  0  0  0  0  0  0  0
   21.9293  -19.0570  -15.5451 C   0  0  0  0  0  0  0  0  0  0  0  0
   22.7493  -20.1531  -15.8119 C   0  0  0  0  0  0  0  0  0  0  0  0
   23.1211  -20.9859  -14.7684 C   0  0  0  0  0  0  0  0  0  0  0  0
   24.2202  -21.3954  -10.2460 C   0  0  0  0  0  0  0  0  0  0  0  0
   23.2893  -21.1634   -9.4240 O   0  0  0  0  0  0  0  0  0  0  0  0
   25.2608  -22.1892   -9.7373 O   0  0  0  0  0  0  0  0  0  0  0  0
  2  1  1  0
  3  5  1  0
  3  2  1  0
  3  4  1  1
  5  6  1  6
  7  5  1  0
  8  7  2  0
  9  7  1  0
 10 21  1  0
 10  9  1  0
 10 11  1  1
 12 11  1  0
 13 12  2  0
 14 15  1  0
 14 13  1  0
 15 20  2  0
 16 17  2  0
 16 15  1  0
 17 18  1  0
 18 19  2  0
 20 19  1  0
 20 12  1  0
 21 22  2  0
 23 24  1  0
 23 21  1  0
 24 25  1  6
 25 26  1  0
 26 27  2  0
 27 28  1  0
 29 28  2  0
 30 29  1  0
 31 26  1  0
 31 30  2  0
 32 34  1  0
 32 24  1  0
 33 32  2  0
M  END
$$$$
