IWF.pdb
     RDKit          3D

 34 36  0  0  1  0  0  0  0  0999 V2000
   30.3957  -21.8456  -17.3823 C   0  0  0  0  0  0  0  0  0  0  0  0
   28.9184  -21.9771  -17.0940 C   0  0  0  0  0  0  0  0  0  0  0  0
   28.4719  -21.1499  -15.9082 C   0  0  2  0  0  0  0  0  0  0  0  0
   29.2360  -21.5982  -14.6864 C   0  0  0  0  0  0  0  0  0  0  0  0
   27.0040  -21.3433  -15.7053 C   0  0  2  0  0  0  0  0  0  0  0  0
   26.2755  -20.9612  -16.8732 N   0  0  0  0  0  0  0  0  0  0  0  0
   26.5126  -20.6233  -14.4803 C   0  0  0  0  0  0  0  0  0  0  0  0
   26.4616  -19.3673  -14.4803 O   0  0  0  0  0  0  0  0  0  0  0  0
   26.1030  -21.3084  -13.3215 N   0  0  0  0  0  0  0  0  0  0  0  0
   25.3801  -20.5849  -12.2450 C   0  0  1  0  0  0  0  0  0  0  0  0
   23.9651  -21.0774  -12.2534 C   0  0  0  0  0  0  0  0  0  0  0  0
   23.0419  -20.3316  -13.1208 C   0  0  0  0  0  0  0  0  0  0  0  0
   23.2760  -19.1936  -13.8779 C   0  0  0  0  0  0  0  0  0  0  0  0
   22.1573  -18.8081  -14.5152 N   0  0  0  0  0  0  0  0  0  0  0  0
   21.1709  -19.6838  -14.1888 C   0  0  0  0  0  0  0  0  0  0  0  0
   19.8481  -19.7560  -14.5556 C   0  0  0  0  0  0  0  0  0  0  0  0
   19.0784  -20.7715  -14.0571 C   0  0  0  0  0  0  0  0  0  0  0  0
   19.5843  -21.7077  -13.2118 C   0  0  0  0  0  0  0  0  0  0  0  0
   20.9143  -21.6354  -12.8429 C   0  0  0  0  0  0  0  0  0  0  0  0
   21.6968  -20.6232  -13.3352 C   0  0  0  0  0  0  0  0  0  0  0  0
   26.0340  -20.8729  -10.9795 C   0  0  0  0  0  0  0  0  0  0  0  0
   26.2759  -22.1064  -10.7117 O   0  0  0  0  0  0  0  0  0  0  0  0
   26.4432  -19.9436  -10.0037 N   0  0  0  0  0  0  0  0  0  0  0  0
   26.9805  -20.4375   -8.7428 C   0  0  1  0  0  0  0  0  0  0  0  0
   27.5445  -19.1833   -8.0635 C   0  0  0  0  0  0  0  0  0  0  0  0
   28.1401  -19.5741   -6.7866 C   0  0  0  0  0  0  0  0  0  0  0  0
   27.4269  -19.4337   -5.6147 C   0  0  0  0  0  0  0  0  0  0  0  0
   27.9436  -19.8155   -4.3929 C   0  0  0  0  0  0  0  0  0  0  0  0
   29.2090  -20.3484   -4.3738 C   0  0  0  0  0  0  0  0  0  0  0  0
   29.9554  -20.5032   -5.5417 C   0  0  0  0  0  0  0  0  0  0  0  0
   29.4042  -20.1087   -6.7506 C   0  0  0  0  0  0  0  0  0  0  0  0
   25.9396  -20.9909   -7.8751 C   0  0  0  0  0  0  0  0  0  0  0  0
   24.7684  -20.5212   -7.8144 O   0  0  0  0  0  0  0  0  0  0  0  0
   26.1671  -22.0958   -7.0388 O   0  0  0  0  0  0  0  0  0  0  0  0
  2  1  1  0
  3  5  1  0
  3  2  1  0
  3  4  1  1
  5  6  1  6
  7  5  1  0
  8  7  2  0
  9  7  1  0
 10 21  1  0
 10  9  1  0
 10 11  1  1
 12 11  1  0
 13 12  2  0
 14 15  1  0
 14 13  1  0
 15 20  2  0
 16 17  2  0
 16 15  1  0
 17 18  1  0
 18 19  2  0
 20 19  1  0
 20 12  1  0
 21 22  2  0
 23 24  1  0
 23 21  1  0
 24 25  1  1
 25 26  1  0
 26 27  2  0
 27 28  1  0
 29 28  2  0
 30 29  1  0
 31 26  1  0
 31 30  2  0
 32 34  1  0
 32 24  1  0
 33 32  2  0
M  END
$$$$
