IWF.pdb
     RDKit          3D

 34 36  0  0  1  0  0  0  0  0999 V2000
   29.6714  -19.0207  -17.7303 C   0  0  0  0  0  0  0  0  0  0  0  0
   28.2306  -19.4734  -17.6876 C   0  0  0  0  0  0  0  0  0  0  0  0
   27.5983  -19.3038  -16.3233 C   0  0  2  0  0  0  0  0  0  0  0  0
   28.4247  -20.0534  -15.3070 C   0  0  0  0  0  0  0  0  0  0  0  0
   26.2051  -19.8433  -16.3625 C   0  0  2  0  0  0  0  0  0  0  0  0
   25.4633  -19.2558  -17.4327 N   0  0  0  0  0  0  0  0  0  0  0  0
   25.5070  -19.6761  -15.0415 C   0  0  0  0  0  0  0  0  0  0  0  0
   25.1589  -18.5276  -14.6673 O   0  0  0  0  0  0  0  0  0  0  0  0
   25.2249  -20.7671  -14.1989 N   0  0  0  0  0  0  0  0  0  0  0  0
   24.3904  -20.5750  -12.9858 C   0  0  1  0  0  0  0  0  0  0  0  0
   23.1050  -21.3111  -13.2115 C   0  0  0  0  0  0  0  0  0  0  0  0
   22.1050  -20.6018  -14.0226 C   0  0  0  0  0  0  0  0  0  0  0  0
   21.8182  -19.2460  -14.0729 C   0  0  0  0  0  0  0  0  0  0  0  0
   20.8114  -19.0045  -14.9298 N   0  0  0  0  0  0  0  0  0  0  0  0
   20.4199  -20.1945  -15.4562 C   0  0  0  0  0  0  0  0  0  0  0  0
   19.4447  -20.5190  -16.3691 C   0  0  0  0  0  0  0  0  0  0  0  0
   19.2745  -21.8314  -16.7163 C   0  0  0  0  0  0  0  0  0  0  0  0
   20.0408  -22.8200  -16.1848 C   0  0  0  0  0  0  0  0  0  0  0  0
   21.0214  -22.4942  -15.2670 C   0  0  0  0  0  0  0  0  0  0  0  0
   21.2026  -21.1830  -14.9104 C   0  0  0  0  0  0  0  0  0  0  0  0
   25.1127  -21.1080  -11.8429 C   0  0  0  0  0  0  0  0  0  0  0  0
   26.1923  -21.7621  -12.0845 O   0  0  0  0  0  0  0  0  0  0  0  0
   24.7642  -20.9834  -10.4841 N   0  0  0  0  0  0  0  0  0  0  0  0
   25.7994  -21.1549   -9.4734 C   0  0  1  0  0  0  0  0  0  0  0  0
   26.6565  -19.8895   -9.6024 C   0  0  0  0  0  0  0  0  0  0  0  0
   27.5389  -19.8052   -8.4395 C   0  0  0  0  0  0  0  0  0  0  0  0
   28.7303  -20.4994   -8.4189 C   0  0  0  0  0  0  0  0  0  0  0  0
   29.6027  -20.4250   -7.3516 C   0  0  0  0  0  0  0  0  0  0  0  0
   29.2475  -19.6275   -6.2917 C   0  0  0  0  0  0  0  0  0  0  0  0
   28.0498  -18.9131   -6.2828 C   0  0  0  0  0  0  0  0  0  0  0  0
   27.1984  -19.0120   -7.3719 C   0  0  0  0  0  0  0  0  0  0  0  0
   25.2498  -21.1911   -8.1172 C   0  0  0  0  0  0  0  0  0  0  0  0
   25.8218  -21.7765   -7.1548 O   0  0  0  0  0  0  0  0  0  0  0  0
   24.0353  -20.5713   -7.7816 O   0  0  0  0  0  0  0  0  0  0  0  0
  2  1  1  0
  3  5  1  0
  3  2  1  0
  3  4  1  1
  5  6  1  6
  7  5  1  0
  8  7  2  0
  9  7  1  0
 10 21  1  0
 10  9  1  0
 10 11  1  6
 12 11  1  0
 13 12  2  0
 14 15  1  0
 14 13  1  0
 15 20  2  0
 16 17  2  0
 16 15  1  0
 17 18  1  0
 18 19  2  0
 20 19  1  0
 20 12  1  0
 21 22  2  0
 23 24  1  0
 23 21  1  0
 24 25  1  1
 25 26  1  0
 26 27  2  0
 27 28  1  0
 29 28  2  0
 30 29  1  0
 31 26  1  0
 31 30  2  0
 32 34  1  0
 32 24  1  0
 33 32  2  0
M  END
$$$$
