IWF.pdb
     RDKit          3D

 34 36  0  0  1  0  0  0  0  0999 V2000
   29.9257  -16.5689  -20.4972 C   0  0  0  0  0  0  0  0  0  0  0  0
   30.0143  -17.4717  -19.2890 C   0  0  0  0  0  0  0  0  0  0  0  0
   28.8595  -17.2884  -18.3286 C   0  0  2  0  0  0  0  0  0  0  0  0
   29.3405  -16.5030  -17.1329 C   0  0  0  0  0  0  0  0  0  0  0  0
   28.3621  -18.6322  -17.9039 C   0  0  2  0  0  0  0  0  0  0  0  0
   27.9436  -19.3989  -19.0343 N   0  0  0  0  0  0  0  0  0  0  0  0
   27.2754  -18.5216  -16.8709 C   0  0  0  0  0  0  0  0  0  0  0  0
   27.5173  -17.9496  -15.7779 O   0  0  0  0  0  0  0  0  0  0  0  0
   25.9840  -19.0389  -17.0824 N   0  0  0  0  0  0  0  0  0  0  0  0
   24.9436  -18.8971  -16.0324 C   0  0  1  0  0  0  0  0  0  0  0  0
   23.6163  -18.8597  -16.7265 C   0  0  0  0  0  0  0  0  0  0  0  0
   22.4532  -18.6435  -15.8540 C   0  0  0  0  0  0  0  0  0  0  0  0
   22.1124  -17.5255  -15.1077 C   0  0  0  0  0  0  0  0  0  0  0  0
   20.9768  -17.7399  -14.4215 N   0  0  0  0  0  0  0  0  0  0  0  0
   20.5527  -18.9996  -14.7041 C   0  0  0  0  0  0  0  0  0  0  0  0
   19.4614  -19.7188  -14.2781 C   0  0  0  0  0  0  0  0  0  0  0  0
   19.2890  -20.9948  -14.7409 C   0  0  0  0  0  0  0  0  0  0  0  0
   20.1644  -21.5689  -15.6074 C   0  0  0  0  0  0  0  0  0  0  0  0
   21.2617  -20.8461  -16.0360 C   0  0  0  0  0  0  0  0  0  0  0  0
   21.4464  -19.5665  -15.5803 C   0  0  0  0  0  0  0  0  0  0  0  0
   25.0402  -20.0354  -15.1342 C   0  0  0  0  0  0  0  0  0  0  0  0
   25.1046  -21.2017  -15.6703 O   0  0  0  0  0  0  0  0  0  0  0  0
   25.0775  -20.0065  -13.7268 N   0  0  0  0  0  0  0  0  0  0  0  0
   24.9387  -21.2574  -12.9930 C   0  0  1  0  0  0  0  0  0  0  0  0
   26.3177  -21.4681  -12.3554 C   0  0  0  0  0  0  0  0  0  0  0  0
   26.3876  -20.6779  -11.1271 C   0  0  0  0  0  0  0  0  0  0  0  0
   26.1960  -21.2797   -9.9012 C   0  0  0  0  0  0  0  0  0  0  0  0
   26.2801  -20.5738   -8.7179 C   0  0  0  0  0  0  0  0  0  0  0  0
   26.5647  -19.2327   -8.7940 C   0  0  0  0  0  0  0  0  0  0  0  0
   26.7638  -18.5953  -10.0183 C   0  0  0  0  0  0  0  0  0  0  0  0
   26.6715  -19.3359  -11.1861 C   0  0  0  0  0  0  0  0  0  0  0  0
   23.9532  -21.1617  -11.9150 C   0  0  0  0  0  0  0  0  0  0  0  0
   23.5042  -22.1682  -11.2974 O   0  0  0  0  0  0  0  0  0  0  0  0
   23.4295  -19.9327  -11.4823 O   0  0  0  0  0  0  0  0  0  0  0  0
  2  1  1  0
  3  5  1  0
  3  2  1  0
  3  4  1  1
  5  6  1  6
  7  5  1  0
  8  7  2  0
  9  7  1  0
 10 21  1  0
 10  9  1  0
 10 11  1  6
 12 11  1  0
 13 12  2  0
 14 15  1  0
 14 13  1  0
 15 20  2  0
 16 17  2  0
 16 15  1  0
 17 18  1  0
 18 19  2  0
 20 19  1  0
 20 12  1  0
 21 22  2  0
 23 24  1  0
 23 21  1  0
 24 25  1  1
 25 26  1  0
 26 27  2  0
 27 28  1  0
 29 28  2  0
 30 29  1  0
 31 26  1  0
 31 30  2  0
 32 34  1  0
 32 24  1  0
 33 32  2  0
M  END
$$$$
