IWF.pdb
     RDKit          3D

 34 36  0  0  1  0  0  0  0  0999 V2000
   25.4433  -17.8873  -16.1072 C   0  0  0  0  0  0  0  0  0  0  0  0
   26.0819  -19.1139  -15.4986 C   0  0  0  0  0  0  0  0  0  0  0  0
   27.3947  -18.8154  -14.8079 C   0  0  2  0  0  0  0  0  0  0  0  0
   28.3608  -18.2516  -15.8212 C   0  0  0  0  0  0  0  0  0  0  0  0
   27.9339  -20.0796  -14.2208 C   0  0  2  0  0  0  0  0  0  0  0  0
   28.0038  -21.1088  -15.2091 N   0  0  0  0  0  0  0  0  0  0  0  0
   27.1449  -20.5140  -13.0170 C   0  0  0  0  0  0  0  0  0  0  0  0
   26.4538  -21.5624  -13.0763 O   0  0  0  0  0  0  0  0  0  0  0  0
   27.1504  -19.7849  -11.8135 N   0  0  0  0  0  0  0  0  0  0  0  0
   26.4769  -20.3317  -10.6084 C   0  0  1  0  0  0  0  0  0  0  0  0
   27.0187  -19.5910   -9.4240 C   0  0  0  0  0  0  0  0  0  0  0  0
   26.6701  -20.1557   -8.1123 C   0  0  0  0  0  0  0  0  0  0  0  0
   25.5649  -20.9099   -7.7479 C   0  0  0  0  0  0  0  0  0  0  0  0
   25.6067  -21.2127   -6.4391 N   0  0  0  0  0  0  0  0  0  0  0  0
   26.7372  -20.6640   -5.9219 C   0  0  0  0  0  0  0  0  0  0  0  0
   27.2615  -20.6668   -4.6513 C   0  0  0  0  0  0  0  0  0  0  0  0
   28.4424  -20.0148   -4.4220 C   0  0  0  0  0  0  0  0  0  0  0  0
   29.1089  -19.3664   -5.4131 C   0  0  0  0  0  0  0  0  0  0  0  0
   28.5820  -19.3634   -6.6908 C   0  0  0  0  0  0  0  0  0  0  0  0
   27.3997  -20.0130   -6.9343 C   0  0  0  0  0  0  0  0  0  0  0  0
   25.0450  -20.1283  -10.7510 C   0  0  0  0  0  0  0  0  0  0  0  0
   24.6436  -18.9310  -10.9898 O   0  0  0  0  0  0  0  0  0  0  0  0
   24.0350  -21.1056  -10.6621 N   0  0  0  0  0  0  0  0  0  0  0  0
   22.6483  -20.7048  -10.8600 C   0  0  1  0  0  0  0  0  0  0  0  0
   22.1253  -21.6878  -11.9149 C   0  0  0  0  0  0  0  0  0  0  0  0
   22.4941  -21.1886  -13.2388 C   0  0  0  0  0  0  0  0  0  0  0  0
   21.8004  -20.1395  -13.8045 C   0  0  0  0  0  0  0  0  0  0  0  0
   22.1344  -19.6224  -15.0400 C   0  0  0  0  0  0  0  0  0  0  0  0
   23.1944  -20.1895  -15.7036 C   0  0  0  0  0  0  0  0  0  0  0  0
   23.9157  -21.2511  -15.1580 C   0  0  0  0  0  0  0  0  0  0  0  0
   23.5517  -21.7445  -13.9151 C   0  0  0  0  0  0  0  0  0  0  0  0
   21.8441  -20.8732   -9.6486 C   0  0  0  0  0  0  0  0  0  0  0  0
   20.6076  -20.6186   -9.5987 O   0  0  0  0  0  0  0  0  0  0  0  0
   22.3918  -21.3355   -8.4410 O   0  0  0  0  0  0  0  0  0  0  0  0
  2  1  1  0
  3  5  1  0
  3  2  1  0
  3  4  1  6
  5  6  1  6
  7  5  1  0
  8  7  2  0
  9  7  1  0
 10 21  1  0
 10  9  1  0
 10 11  1  1
 12 11  1  0
 13 12  2  0
 14 15  1  0
 14 13  1  0
 15 20  2  0
 16 17  2  0
 16 15  1  0
 17 18  1  0
 18 19  2  0
 20 19  1  0
 20 12  1  0
 21 22  2  0
 23 24  1  0
 23 21  1  0
 24 25  1  6
 25 26  1  0
 26 27  2  0
 27 28  1  0
 29 28  2  0
 30 29  1  0
 31 26  1  0
 31 30  2  0
 32 34  1  0
 32 24  1  0
 33 32  2  0
M  END
$$$$
