IWF.pdb
     RDKit          3D

 34 36  0  0  1  0  0  0  0  0999 V2000
   24.5551  -22.9428  -18.0050 C   0  0  0  0  0  0  0  0  0  0  0  0
   23.9748  -22.3388  -16.7477 C   0  0  0  0  0  0  0  0  0  0  0  0
   24.8836  -22.4874  -15.5469 C   0  0  2  0  0  0  0  0  0  0  0  0
   25.1344  -23.9558  -15.3049 C   0  0  0  0  0  0  0  0  0  0  0  0
   24.2235  -21.8682  -14.3577 C   0  0  2  0  0  0  0  0  0  0  0  0
   23.8012  -20.5348  -14.6485 N   0  0  0  0  0  0  0  0  0  0  0  0
   25.1059  -21.9218  -13.1416 C   0  0  0  0  0  0  0  0  0  0  0  0
   25.3853  -23.0352  -12.6292 O   0  0  0  0  0  0  0  0  0  0  0  0
   25.6370  -20.7615  -12.5485 N   0  0  0  0  0  0  0  0  0  0  0  0
   26.3746  -20.8529  -11.2631 C   0  0  1  0  0  0  0  0  0  0  0  0
   27.1983  -19.6079  -11.1358 C   0  0  0  0  0  0  0  0  0  0  0  0
   27.9647  -19.4824   -9.8876 C   0  0  0  0  0  0  0  0  0  0  0  0
   27.7660  -18.6207   -8.8194 C   0  0  0  0  0  0  0  0  0  0  0  0
   28.7057  -18.8074   -7.8768 N   0  0  0  0  0  0  0  0  0  0  0  0
   29.5363  -19.7926   -8.3082 C   0  0  0  0  0  0  0  0  0  0  0  0
   30.6486  -20.3695   -7.7429 C   0  0  0  0  0  0  0  0  0  0  0  0
   31.2976  -21.3620   -8.4254 C   0  0  0  0  0  0  0  0  0  0  0  0
   30.8740  -21.7917   -9.6431 C   0  0  0  0  0  0  0  0  0  0  0  0
   29.7557  -21.2119  -10.2118 C   0  0  0  0  0  0  0  0  0  0  0  0
   29.0958  -20.2165   -9.5386 C   0  0  0  0  0  0  0  0  0  0  0  0
   25.4061  -20.9602  -10.1849 C   0  0  0  0  0  0  0  0  0  0  0  0
   24.2156  -21.3277  -10.5004 O   0  0  0  0  0  0  0  0  0  0  0  0
   25.6266  -20.7101   -8.8167 N   0  0  0  0  0  0  0  0  0  0  0  0
   25.1821  -21.6960   -7.8404 C   0  0  1  0  0  0  0  0  0  0  0  0
   26.4693  -22.4280   -7.4406 C   0  0  0  0  0  0  0  0  0  0  0  0
   27.0960  -21.6985   -6.3392 C   0  0  0  0  0  0  0  0  0  0  0  0
   28.4608  -21.5011   -6.3234 C   0  0  0  0  0  0  0  0  0  0  0  0
   29.0868  -20.7952   -5.3158 C   0  0  0  0  0  0  0  0  0  0  0  0
   28.3017  -20.2853   -4.3112 C   0  0  0  0  0  0  0  0  0  0  0  0
   26.9192  -20.4679   -4.2990 C   0  0  0  0  0  0  0  0  0  0  0  0
   26.3250  -21.1821   -5.3274 C   0  0  0  0  0  0  0  0  0  0  0  0
   24.6250  -21.0740   -6.6382 C   0  0  0  0  0  0  0  0  0  0  0  0
   24.7292  -19.8403   -6.3865 O   0  0  0  0  0  0  0  0  0  0  0  0
   23.9260  -21.8085   -5.6669 O   0  0  0  0  0  0  0  0  0  0  0  0
  2  1  1  0
  3  5  1  0
  3  2  1  0
  3  4  1  1
  5  6  1  6
  7  5  1  0
  8  7  2  0
  9  7  1  0
 10 21  1  0
 10  9  1  0
 10 11  1  1
 12 11  1  0
 13 12  2  0
 14 15  1  0
 14 13  1  0
 15 20  2  0
 16 17  2  0
 16 15  1  0
 17 18  1  0
 18 19  2  0
 20 19  1  0
 20 12  1  0
 21 22  2  0
 23 24  1  0
 23 21  1  0
 24 25  1  1
 25 26  1  0
 26 27  2  0
 27 28  1  0
 29 28  2  0
 30 29  1  0
 31 26  1  0
 31 30  2  0
 32 34  1  0
 32 24  1  0
 33 32  2  0
M  END
$$$$
