IWF.pdb
     RDKit          3D

 34 36  0  0  1  0  0  0  0  0999 V2000
   14.7137  -22.8816    3.6162 C   0  0  0  0  0  0  0  0  0  0  0  0
   14.8409  -21.4288    3.2213 C   0  0  0  0  0  0  0  0  0  0  0  0
   15.9930  -20.7286    3.9085 C   0  0  2  0  0  0  0  0  0  0  0  0
   15.7820  -20.7943    5.4015 C   0  0  0  0  0  0  0  0  0  0  0  0
   16.0405  -19.3067    3.4508 C   0  0  2  0  0  0  0  0  0  0  0  0
   16.0972  -19.2340    2.0253 N   0  0  0  0  0  0  0  0  0  0  0  0
   17.1716  -18.5534    4.0938 C   0  0  0  0  0  0  0  0  0  0  0  0
   18.2887  -18.5066    3.5191 O   0  0  0  0  0  0  0  0  0  0  0  0
   17.0267  -17.8913    5.3269 N   0  0  0  0  0  0  0  0  0  0  0  0
   18.1840  -17.1867    5.9345 C   0  0  1  0  0  0  0  0  0  0  0  0
   17.6523  -15.9538    6.5994 C   0  0  0  0  0  0  0  0  0  0  0  0
   18.0089  -14.6832    5.9518 C   0  0  0  0  0  0  0  0  0  0  0  0
   17.3027  -13.9506    5.0096 C   0  0  0  0  0  0  0  0  0  0  0  0
   17.9882  -12.8517    4.6506 N   0  0  0  0  0  0  0  0  0  0  0  0
   19.1539  -12.8431    5.3488 C   0  0  0  0  0  0  0  0  0  0  0  0
   20.2087  -11.9617    5.3650 C   0  0  0  0  0  0  0  0  0  0  0  0
   21.2721  -12.2183    6.1868 C   0  0  0  0  0  0  0  0  0  0  0  0
   21.3140  -13.3174    6.9850 C   0  0  0  0  0  0  0  0  0  0  0  0
   20.2537  -14.2038    6.9691 C   0  0  0  0  0  0  0  0  0  0  0  0
   19.1818  -13.9586    6.1505 C   0  0  0  0  0  0  0  0  0  0  0  0
   18.8112  -18.0785    6.8954 C   0  0  0  0  0  0  0  0  0  0  0  0
   18.0350  -18.8284    7.5931 O   0  0  0  0  0  0  0  0  0  0  0  0
   20.1891  -18.2211    7.1487 N   0  0  0  0  0  0  0  0  0  0  0  0
   20.6219  -19.1482    8.1859 C   0  0  1  0  0  0  0  0  0  0  0  0
   21.7154  -19.9813    7.5056 C   0  0  0  0  0  0  0  0  0  0  0  0
   21.0759  -21.0418    6.7283 C   0  0  0  0  0  0  0  0  0  0  0  0
   20.7919  -20.8501    5.3925 C   0  0  0  0  0  0  0  0  0  0  0  0
   20.2133  -21.8356    4.6182 C   0  0  0  0  0  0  0  0  0  0  0  0
   19.9225  -23.0336    5.2230 C   0  0  0  0  0  0  0  0  0  0  0  0
   20.1976  -23.2581    6.5717 C   0  0  0  0  0  0  0  0  0  0  0  0
   20.7791  -22.2455    7.3181 C   0  0  0  0  0  0  0  0  0  0  0  0
   21.2245  -18.4599    9.3286 C   0  0  0  0  0  0  0  0  0  0  0  0
   21.5077  -17.2287    9.3233 O   0  0  0  0  0  0  0  0  0  0  0  0
   21.5345  -19.1227   10.5271 O   0  0  0  0  0  0  0  0  0  0  0  0
  2  1  1  0
  3  5  1  0
  3  2  1  0
  3  4  1  1
  5  6  1  6
  7  5  1  0
  8  7  2  0
  9  7  1  0
 10 21  1  0
 10  9  1  0
 10 11  1  1
 12 11  1  0
 13 12  2  0
 14 15  1  0
 14 13  1  0
 15 20  2  0
 16 17  2  0
 16 15  1  0
 17 18  1  0
 18 19  2  0
 20 19  1  0
 20 12  1  0
 21 22  2  0
 23 24  1  0
 23 21  1  0
 24 25  1  6
 25 26  1  0
 26 27  2  0
 27 28  1  0
 29 28  2  0
 30 29  1  0
 31 26  1  0
 31 30  2  0
 32 34  1  0
 32 24  1  0
 33 32  2  0
M  END
$$$$
