IWF.pdb
     RDKit          3D

 34 36  0  0  1  0  0  0  0  0999 V2000
   29.9904  -27.4181  -17.0618 C   0  0  0  0  0  0  0  0  0  0  0  0
   29.6848  -26.1874  -17.8832 C   0  0  0  0  0  0  0  0  0  0  0  0
   28.6430  -25.2947  -17.2448 C   0  0  2  0  0  0  0  0  0  0  0  0
   27.3765  -26.0906  -17.0442 C   0  0  0  0  0  0  0  0  0  0  0  0
   28.3882  -24.1265  -18.1413 C   0  0  2  0  0  0  0  0  0  0  0  0
   29.5959  -23.4056  -18.3913 N   0  0  0  0  0  0  0  0  0  0  0  0
   27.3075  -23.2338  -17.5975 C   0  0  0  0  0  0  0  0  0  0  0  0
   27.5621  -22.4752  -16.6280 O   0  0  0  0  0  0  0  0  0  0  0  0
   26.0084  -23.2143  -18.1376 N   0  0  0  0  0  0  0  0  0  0  0  0
   24.9779  -22.3104  -17.5667 C   0  0  1  0  0  0  0  0  0  0  0  0
   24.3462  -21.5797  -18.7121 C   0  0  0  0  0  0  0  0  0  0  0  0
   23.2684  -20.6481  -18.3496 C   0  0  0  0  0  0  0  0  0  0  0  0
   23.2701  -19.6274  -17.4109 C   0  0  0  0  0  0  0  0  0  0  0  0
   22.0717  -19.0206  -17.3661 N   0  0  0  0  0  0  0  0  0  0  0  0
   21.2635  -19.6306  -18.2724 C   0  0  0  0  0  0  0  0  0  0  0  0
   19.9545  -19.4114  -18.6301 C   0  0  0  0  0  0  0  0  0  0  0  0
   19.3918  -20.2012  -19.5953 C   0  0  0  0  0  0  0  0  0  0  0  0
   20.0895  -21.1935  -20.2081 C   0  0  0  0  0  0  0  0  0  0  0  0
   21.4057  -21.4141  -19.8488 C   0  0  0  0  0  0  0  0  0  0  0  0
   21.9818  -20.6299  -18.8832 C   0  0  0  0  0  0  0  0  0  0  0  0
   24.0041  -23.1184  -16.8519 C   0  0  0  0  0  0  0  0  0  0  0  0
   23.7056  -24.2614  -17.3581 O   0  0  0  0  0  0  0  0  0  0  0  0
   23.3463  -22.7910  -15.6505 N   0  0  0  0  0  0  0  0  0  0  0  0
   22.3750  -23.7282  -15.1018 C   0  0  1  0  0  0  0  0  0  0  0  0
   22.5912  -23.6409  -13.5858 C   0  0  0  0  0  0  0  0  0  0  0  0
   21.6498  -24.5465  -12.9291 C   0  0  0  0  0  0  0  0  0  0  0  0
   21.9563  -25.8833  -12.7850 C   0  0  0  0  0  0  0  0  0  0  0  0
   21.1064  -26.7648  -12.1477 C   0  0  0  0  0  0  0  0  0  0  0  0
   19.9263  -26.2676  -11.6519 C   0  0  0  0  0  0  0  0  0  0  0  0
   19.5879  -24.9210  -11.7817 C   0  0  0  0  0  0  0  0  0  0  0  0
   20.4659  -24.0650  -12.4276 C   0  0  0  0  0  0  0  0  0  0  0  0
   20.9961  -23.3268  -15.3846 C   0  0  0  0  0  0  0  0  0  0  0  0
   20.6021  -22.1272  -15.3394 O   0  0  0  0  0  0  0  0  0  0  0  0
   19.9996  -24.2533  -15.7315 O   0  0  0  0  0  0  0  0  0  0  0  0
  2  1  1  0
  3  5  1  0
  3  2  1  0
  3  4  1  6
  5  6  1  1
  7  5  1  0
  8  7  2  0
  9  7  1  0
 10 21  1  0
 10  9  1  0
 10 11  1  6
 12 11  1  0
 13 12  2  0
 14 15  1  0
 14 13  1  0
 15 20  2  0
 16 17  2  0
 16 15  1  0
 17 18  1  0
 18 19  2  0
 20 19  1  0
 20 12  1  0
 21 22  2  0
 23 24  1  0
 23 21  1  0
 24 25  1  1
 25 26  1  0
 26 27  2  0
 27 28  1  0
 29 28  2  0
 30 29  1  0
 31 26  1  0
 31 30  2  0
 32 34  1  0
 32 24  1  0
 33 32  2  0
M  END
$$$$
