SEN.pdb
     RDKit          3D

 24 23  0  0  1  0  0  0  0  0999 V2000
   15.2589  -13.6194   19.4739 O   0  0  0  0  0  0  0  0  0  0  0  0
   14.1904  -13.9451   20.3344 C   0  0  0  0  0  0  0  0  0  0  0  0
   13.3544  -14.9880   19.6642 C   0  0  2  0  0  0  0  0  0  0  0  0
   12.6682  -14.3978   18.5344 N   0  0  0  0  0  0  0  0  0  0  0  0
   12.3276  -15.5073   20.6146 C   0  0  0  0  0  0  0  0  0  0  0  0
   11.1595  -15.0481   20.6252 O   0  0  0  0  0  0  0  0  0  0  0  0
   12.6405  -16.5454   21.5448 N   0  0  0  0  0  0  0  0  0  0  0  0
   11.7095  -17.0444   22.5238 C   0  0  1  0  0  0  0  0  0  0  0  0
   11.7143  -18.5697   22.5709 C   0  0  0  0  0  0  0  0  0  0  0  0
   11.0664  -19.0880   21.3070 C   0  0  0  0  0  0  0  0  0  0  0  0
   11.0721  -20.5532   21.2877 C   0  0  0  0  0  0  0  0  0  0  0  0
   12.0665  -21.1641   20.8608 O   0  0  0  0  0  0  0  0  0  0  0  0
   11.9473  -16.4697   23.8738 C   0  0  0  0  0  0  0  0  0  0  0  0
   13.1048  -16.2443   24.2501 O   0  0  0  0  0  0  0  0  0  0  0  0
    9.9950  -21.2953   21.7341 O   0  0  0  0  0  0  0  0  0  0  0  0
   11.2523  -14.4951   28.7351 N   0  0  0  0  0  0  0  0  0  0  0  0
   10.0945  -14.2768   27.9698 C   0  0  0  0  0  0  0  0  0  0  0  0
    9.1810  -13.5679   28.4528 O   0  0  0  0  0  0  0  0  0  0  0  0
    9.9363  -14.8482   26.6470 C   0  0  0  0  0  0  0  0  0  0  0  0
   11.0822  -15.5825   26.0670 C   0  0  2  0  0  0  0  0  0  0  0  0
   10.8773  -16.1581   24.7784 N   0  0  0  0  0  0  0  0  0  0  0  0
   11.5158  -16.6383   27.0132 C   0  0  0  0  0  0  0  0  0  0  0  0
   11.9972  -16.2804   28.1131 O   0  0  0  0  0  0  0  0  0  0  0  0
   11.3925  -17.9758   26.6899 O   0  0  0  0  0  0  0  0  0  0  0  0
  1  2  1  0
  2  3  1  0
  3  5  1  0
  3  4  1  6
  5  6  2  0
  7  8  1  0
  7  5  1  0
  8 13  1  0
  8  9  1  1
 10  9  1  0
 10 11  1  0
 11 12  2  0
 11 15  1  0
 13 21  1  0
 13 14  2  0
 17 16  1  0
 17 18  2  0
 19 17  1  0
 20 19  1  1
 21 20  1  0
 22 24  1  0
 22 20  1  0
 23 22  2  0
M  END
$$$$
