SEN.pdb
     RDKit          3D

 24 23  0  0  1  0  0  0  0  0999 V2000
    9.7517  -14.6961   24.6171 O   0  0  0  0  0  0  0  0  0  0  0  0
   10.9659  -15.4045   24.5063 C   0  0  0  0  0  0  0  0  0  0  0  0
   10.8383  -16.3725   23.3738 C   0  0  2  0  0  0  0  0  0  0  0  0
    9.9647  -17.4575   23.7679 N   0  0  0  0  0  0  0  0  0  0  0  0
   12.1748  -16.9469   23.0404 C   0  0  0  0  0  0  0  0  0  0  0  0
   12.6112  -17.9648   23.6310 O   0  0  0  0  0  0  0  0  0  0  0  0
   13.0027  -16.3565   22.0369 N   0  0  0  0  0  0  0  0  0  0  0  0
   14.2780  -16.8945   21.6391 C   0  0  1  0  0  0  0  0  0  0  0  0
   14.6036  -16.5435   20.1902 C   0  0  0  0  0  0  0  0  0  0  0  0
   15.9097  -17.2089   19.8201 C   0  0  0  0  0  0  0  0  0  0  0  0
   16.2761  -16.8928   18.4369 C   0  0  0  0  0  0  0  0  0  0  0  0
   15.7623  -17.5257   17.4990 O   0  0  0  0  0  0  0  0  0  0  0  0
   15.3765  -16.4745   22.5481 C   0  0  0  0  0  0  0  0  0  0  0  0
   15.4357  -15.3015   22.9387 O   0  0  0  0  0  0  0  0  0  0  0  0
   17.1873  -15.9001   18.1297 O   0  0  0  0  0  0  0  0  0  0  0  0
   17.4414  -20.3373   25.2634 N   0  0  0  0  0  0  0  0  0  0  0  0
   17.5414  -18.9482   25.4482 C   0  0  0  0  0  0  0  0  0  0  0  0
   17.0235  -18.4402   26.4700 O   0  0  0  0  0  0  0  0  0  0  0  0
   18.2242  -18.0993   24.4919 C   0  0  0  0  0  0  0  0  0  0  0  0
   17.4564  -16.9988   23.8691 C   0  0  2  0  0  0  0  0  0  0  0  0
   16.3909  -17.3828   23.0025 N   0  0  0  0  0  0  0  0  0  0  0  0
   18.3870  -16.1063   23.1375 C   0  0  0  0  0  0  0  0  0  0  0  0
   18.7355  -16.4406   21.9814 O   0  0  0  0  0  0  0  0  0  0  0  0
   18.8555  -14.9419   23.7149 O   0  0  0  0  0  0  0  0  0  0  0  0
  1  2  1  0
  2  3  1  0
  3  5  1  0
  3  4  1  1
  5  6  2  0
  7  8  1  0
  7  5  1  0
  8 13  1  0
  8  9  1  6
 10  9  1  0
 10 11  1  0
 11 12  2  0
 11 15  1  0
 13 21  1  0
 13 14  2  0
 17 16  1  0
 17 18  2  0
 19 17  1  0
 20 19  1  6
 21 20  1  0
 22 24  1  0
 22 20  1  0
 23 22  2  0
M  END
$$$$
