SEN.pdb
     RDKit          3D

 24 23  0  0  1  0  0  0  0  0999 V2000
    8.6372  -17.6918   19.4726 O   0  0  0  0  0  0  0  0  0  0  0  0
    9.4279  -17.3060   18.3706 C   0  0  0  0  0  0  0  0  0  0  0  0
   10.3442  -18.4392   18.0359 C   0  0  2  0  0  0  0  0  0  0  0  0
    9.5666  -19.6478   17.8616 N   0  0  0  0  0  0  0  0  0  0  0  0
   11.3091  -18.6619   19.1523 C   0  0  0  0  0  0  0  0  0  0  0  0
   11.0556  -19.4680   20.0804 O   0  0  0  0  0  0  0  0  0  0  0  0
   12.5549  -17.9642   19.2018 N   0  0  0  0  0  0  0  0  0  0  0  0
   13.4763  -18.0574   20.3047 C   0  0  1  0  0  0  0  0  0  0  0  0
   14.8596  -17.5401   19.9206 C   0  0  0  0  0  0  0  0  0  0  0  0
   15.7813  -17.7178   21.1058 C   0  0  0  0  0  0  0  0  0  0  0  0
   17.1124  -17.1816   20.8091 C   0  0  0  0  0  0  0  0  0  0  0  0
   17.4423  -16.0650   21.2434 O   0  0  0  0  0  0  0  0  0  0  0  0
   12.9708  -17.3710   21.5225 C   0  0  0  0  0  0  0  0  0  0  0  0
   12.7618  -16.1513   21.4977 O   0  0  0  0  0  0  0  0  0  0  0  0
   18.0316  -17.8824   20.0514 O   0  0  0  0  0  0  0  0  0  0  0  0
    9.4118  -19.5772   23.1421 N   0  0  0  0  0  0  0  0  0  0  0  0
   10.1872  -19.0129   24.1687 C   0  0  0  0  0  0  0  0  0  0  0  0
   10.4538  -19.7133   25.1731 O   0  0  0  0  0  0  0  0  0  0  0  0
   10.6803  -17.6520   24.0913 C   0  0  0  0  0  0  0  0  0  0  0  0
   12.1329  -17.4505   23.8968 C   0  0  2  0  0  0  0  0  0  0  0  0
   12.7090  -18.0698   22.7486 N   0  0  0  0  0  0  0  0  0  0  0  0
   12.8556  -17.8987   25.1112 C   0  0  0  0  0  0  0  0  0  0  0  0
   12.5602  -17.3606   26.2034 O   0  0  0  0  0  0  0  0  0  0  0  0
   13.8256  -18.8798   25.0388 O   0  0  0  0  0  0  0  0  0  0  0  0
  1  2  1  0
  2  3  1  0
  3  5  1  0
  3  4  1  1
  5  6  2  0
  7  8  1  0
  7  5  1  0
  8 13  1  0
  8  9  1  6
 10  9  1  0
 10 11  1  0
 11 12  2  0
 11 15  1  0
 13 21  1  0
 13 14  2  0
 17 16  1  0
 17 18  2  0
 19 17  1  0
 20 19  1  1
 21 20  1  0
 22 24  1  0
 22 20  1  0
 23 22  2  0
M  END
$$$$
