SEN.pdb
     RDKit          3D

 24 23  0  0  1  0  0  0  0  0999 V2000
    7.7484  -12.0407   18.4604 O   0  0  0  0  0  0  0  0  0  0  0  0
    8.0860  -13.1458   19.2686 C   0  0  0  0  0  0  0  0  0  0  0  0
    8.3083  -14.3246   18.3759 C   0  0  2  0  0  0  0  0  0  0  0  0
    7.0424  -14.7428   17.8115 N   0  0  0  0  0  0  0  0  0  0  0  0
    8.8670  -15.4627   19.1632 C   0  0  0  0  0  0  0  0  0  0  0  0
    8.1162  -16.3139   19.6991 O   0  0  0  0  0  0  0  0  0  0  0  0
   10.2766  -15.6213   19.3332 N   0  0  0  0  0  0  0  0  0  0  0  0
   10.8729  -16.7089   20.0651 C   0  0  1  0  0  0  0  0  0  0  0  0
   12.1617  -17.1865   19.4023 C   0  0  0  0  0  0  0  0  0  0  0  0
   11.8180  -17.7502   18.0421 C   0  0  0  0  0  0  0  0  0  0  0  0
   13.0129  -18.2965   17.3931 C   0  0  0  0  0  0  0  0  0  0  0  0
   13.2085  -19.5237   17.3858 O   0  0  0  0  0  0  0  0  0  0  0  0
   11.1036  -16.3688   21.4936 C   0  0  0  0  0  0  0  0  0  0  0  0
   11.8272  -15.4084   21.7871 O   0  0  0  0  0  0  0  0  0  0  0  0
   13.9473  -17.4851   16.7779 O   0  0  0  0  0  0  0  0  0  0  0  0
    7.1256  -17.1087   23.9966 N   0  0  0  0  0  0  0  0  0  0  0  0
    8.2340  -16.3432   24.3956 C   0  0  0  0  0  0  0  0  0  0  0  0
    8.1319  -15.0942   24.3948 O   0  0  0  0  0  0  0  0  0  0  0  0
    9.4799  -16.9613   24.8040 C   0  0  0  0  0  0  0  0  0  0  0  0
   10.6666  -16.7652   23.9426 C   0  0  2  0  0  0  0  0  0  0  0  0
   10.5156  -17.1163   22.5687 N   0  0  0  0  0  0  0  0  0  0  0  0
   11.8148  -17.5074   24.5159 C   0  0  0  0  0  0  0  0  0  0  0  0
   12.3198  -18.4282   23.8327 O   0  0  0  0  0  0  0  0  0  0  0  0
   12.3113  -17.1923   25.7660 O   0  0  0  0  0  0  0  0  0  0  0  0
  1  2  1  0
  2  3  1  0
  3  5  1  0
  3  4  1  1
  5  6  2  0
  7  8  1  0
  7  5  1  0
  8 13  1  0
  8  9  1  6
 10  9  1  0
 10 11  1  0
 11 12  2  0
 11 15  1  0
 13 21  1  0
 13 14  2  0
 17 16  1  0
 17 18  2  0
 19 17  1  0
 20 19  1  1
 21 20  1  0
 22 24  1  0
 22 20  1  0
 23 22  2  0
M  END
$$$$
