SEN.pdb
     RDKit          3D

 24 23  0  0  1  0  0  0  0  0999 V2000
   16.3320  -15.6996   17.1753 O   0  0  0  0  0  0  0  0  0  0  0  0
   15.1846  -15.1998   16.5257 C   0  0  0  0  0  0  0  0  0  0  0  0
   14.8292  -13.8892   17.1517 C   0  0  2  0  0  0  0  0  0  0  0  0
   15.8545  -12.9161   16.8392 N   0  0  0  0  0  0  0  0  0  0  0  0
   14.7603  -14.0344   18.6354 C   0  0  0  0  0  0  0  0  0  0  0  0
   15.7226  -13.6978   19.3676 O   0  0  0  0  0  0  0  0  0  0  0  0
   13.5954  -14.5620   19.2723 N   0  0  0  0  0  0  0  0  0  0  0  0
   13.4991  -14.7933   20.6905 C   0  0  1  0  0  0  0  0  0  0  0  0
   12.0792  -15.1761   21.0978 C   0  0  0  0  0  0  0  0  0  0  0  0
   12.0146  -15.2320   22.6073 C   0  0  0  0  0  0  0  0  0  0  0  0
   10.6719  -15.6146   23.0524 C   0  0  0  0  0  0  0  0  0  0  0  0
    9.8065  -15.9258   22.2166 O   0  0  0  0  0  0  0  0  0  0  0  0
   14.4798  -15.8042   21.1658 C   0  0  0  0  0  0  0  0  0  0  0  0
   15.1429  -16.4501   20.3441 O   0  0  0  0  0  0  0  0  0  0  0  0
   10.3247  -15.6433   24.3899 O   0  0  0  0  0  0  0  0  0  0  0  0
   19.4378  -15.9451   23.4909 N   0  0  0  0  0  0  0  0  0  0  0  0
   18.4048  -16.1277   22.5564 C   0  0  0  0  0  0  0  0  0  0  0  0
   18.6294  -16.8311   21.5438 O   0  0  0  0  0  0  0  0  0  0  0  0
   17.0985  -15.5260   22.7370 C   0  0  0  0  0  0  0  0  0  0  0  0
   15.9714  -16.4117   23.1027 C   0  0  2  0  0  0  0  0  0  0  0  0
   14.6977  -16.0713   22.5592 N   0  0  0  0  0  0  0  0  0  0  0  0
   15.8701  -16.4895   24.5798 C   0  0  0  0  0  0  0  0  0  0  0  0
   15.5307  -15.4558   25.2011 O   0  0  0  0  0  0  0  0  0  0  0  0
   16.1427  -17.6668   25.2493 O   0  0  0  0  0  0  0  0  0  0  0  0
  1  2  1  0
  2  3  1  0
  3  5  1  0
  3  4  1  1
  5  6  2  0
  7  8  1  0
  7  5  1  0
  8 13  1  0
  8  9  1  6
 10  9  1  0
 10 11  1  0
 11 12  2  0
 11 15  1  0
 13 21  1  0
 13 14  2  0
 17 16  1  0
 17 18  2  0
 19 17  1  0
 20 19  1  1
 21 20  1  0
 22 24  1  0
 22 20  1  0
 23 22  2  0
M  END
$$$$
