SEN.pdb
     RDKit          3D

 24 23  0  0  1  0  0  0  0  0999 V2000
    8.4892  -15.8242   15.8826 O   0  0  0  0  0  0  0  0  0  0  0  0
    9.4287  -16.2411   16.8479 C   0  0  0  0  0  0  0  0  0  0  0  0
   10.7978  -15.9590   16.3170 C   0  0  2  0  0  0  0  0  0  0  0  0
   11.1020  -16.8958   15.2561 N   0  0  0  0  0  0  0  0  0  0  0  0
   11.8107  -16.1341   17.3989 C   0  0  0  0  0  0  0  0  0  0  0  0
   12.2767  -17.2659   17.6770 O   0  0  0  0  0  0  0  0  0  0  0  0
   12.2841  -15.0181   18.1549 N   0  0  0  0  0  0  0  0  0  0  0  0
   13.3695  -15.0982   19.0980 C   0  0  1  0  0  0  0  0  0  0  0  0
   14.4533  -14.0693   18.7893 C   0  0  0  0  0  0  0  0  0  0  0  0
   15.4558  -14.6998   17.8496 C   0  0  0  0  0  0  0  0  0  0  0  0
   16.5784  -13.7898   17.6064 C   0  0  0  0  0  0  0  0  0  0  0  0
   16.7038  -13.2418   16.4982 O   0  0  0  0  0  0  0  0  0  0  0  0
   12.9055  -14.9763   20.5049 C   0  0  0  0  0  0  0  0  0  0  0  0
   12.0278  -14.1523   20.7928 O   0  0  0  0  0  0  0  0  0  0  0  0
   17.5198  -13.5125   18.5795 O   0  0  0  0  0  0  0  0  0  0  0  0
    8.9677  -15.9374   22.4447 N   0  0  0  0  0  0  0  0  0  0  0  0
   10.2227  -15.9371   23.0763 C   0  0  0  0  0  0  0  0  0  0  0  0
   10.3613  -15.2809   24.1348 O   0  0  0  0  0  0  0  0  0  0  0  0
   11.3485  -16.6724   22.5349 C   0  0  0  0  0  0  0  0  0  0  0  0
   12.7039  -16.1170   22.7419 C   0  0  2  0  0  0  0  0  0  0  0  0
   13.4376  -15.7847   21.5650 N   0  0  0  0  0  0  0  0  0  0  0  0
   13.4980  -17.0596   23.5658 C   0  0  0  0  0  0  0  0  0  0  0  0
   13.1335  -17.2582   24.7479 O   0  0  0  0  0  0  0  0  0  0  0  0
   14.6066  -17.6983   23.0445 O   0  0  0  0  0  0  0  0  0  0  0  0
  1  2  1  0
  2  3  1  0
  3  5  1  0
  3  4  1  6
  5  6  2  0
  7  8  1  0
  7  5  1  0
  8 13  1  0
  8  9  1  6
 10  9  1  0
 10 11  1  0
 11 12  2  0
 11 15  1  0
 13 21  1  0
 13 14  2  0
 17 16  1  0
 17 18  2  0
 19 17  1  0
 20 19  1  6
 21 20  1  0
 22 24  1  0
 22 20  1  0
 23 22  2  0
M  END
$$$$
