SEN.pdb
     RDKit          3D

 24 23  0  0  1  0  0  0  0  0999 V2000
    8.3745  -13.7498   19.5933 O   0  0  0  0  0  0  0  0  0  0  0  0
    8.8613  -12.8477   18.6250 C   0  0  0  0  0  0  0  0  0  0  0  0
    9.4926  -13.6408   17.5258 C   0  0  2  0  0  0  0  0  0  0  0  0
    8.4678  -14.3813   16.8207 N   0  0  0  0  0  0  0  0  0  0  0  0
   10.4659  -14.6181   18.0959 C   0  0  0  0  0  0  0  0  0  0  0  0
   10.1261  -15.7979   18.3569 O   0  0  0  0  0  0  0  0  0  0  0  0
   11.8181  -14.2428   18.3637 N   0  0  0  0  0  0  0  0  0  0  0  0
   12.7921  -15.1332   18.9404 C   0  0  1  0  0  0  0  0  0  0  0  0
   14.0984  -15.1165   18.1518 C   0  0  0  0  0  0  0  0  0  0  0  0
   14.6860  -13.7258   18.2316 C   0  0  0  0  0  0  0  0  0  0  0  0
   15.9927  -13.6790   17.5699 C   0  0  0  0  0  0  0  0  0  0  0  0
   16.0583  -13.5833   16.3327 O   0  0  0  0  0  0  0  0  0  0  0  0
   13.0355  -14.8489   20.3790 C   0  0  0  0  0  0  0  0  0  0  0  0
   12.4499  -13.9055   20.9260 O   0  0  0  0  0  0  0  0  0  0  0  0
   17.1760  -13.7383   18.2815 O   0  0  0  0  0  0  0  0  0  0  0  0
   13.2702  -16.4710   25.3526 N   0  0  0  0  0  0  0  0  0  0  0  0
   12.2970  -16.7886   24.3904 C   0  0  0  0  0  0  0  0  0  0  0  0
   11.2152  -17.2911   24.7747 O   0  0  0  0  0  0  0  0  0  0  0  0
   12.5156  -16.5495   22.9775 C   0  0  0  0  0  0  0  0  0  0  0  0
   13.7551  -15.8487   22.5763 C   0  0  2  0  0  0  0  0  0  0  0  0
   13.9345  -15.6319   21.1782 N   0  0  0  0  0  0  0  0  0  0  0  0
   14.9267  -16.5810   23.1140 C   0  0  0  0  0  0  0  0  0  0  0  0
   15.3952  -16.2126   24.2160 O   0  0  0  0  0  0  0  0  0  0  0  0
   15.4841  -17.6371   22.4192 O   0  0  0  0  0  0  0  0  0  0  0  0
  1  2  1  0
  2  3  1  0
  3  5  1  0
  3  4  1  1
  5  6  2  0
  7  8  1  0
  7  5  1  0
  8 13  1  0
  8  9  1  6
 10  9  1  0
 10 11  1  0
 11 12  2  0
 11 15  1  0
 13 21  1  0
 13 14  2  0
 17 16  1  0
 17 18  2  0
 19 17  1  0
 20 19  1  6
 21 20  1  0
 22 24  1  0
 22 20  1  0
 23 22  2  0
M  END
$$$$
