RRS.pdb
     RDKit          3D

 29 28  0  0  1  0  0  0  0  0999 V2000
   19.7880  -25.5759  -13.3855 N   0  0  0  0  0  0  0  0  0  0  0  0
   18.7649  -24.5863  -13.5238 C   0  0  0  0  0  0  0  0  0  0  0  0
   17.5327  -24.8780  -13.4327 N   0  0  0  0  0  0  0  0  0  0  0  0
   19.1361  -23.2282  -13.7688 N   0  0  0  0  0  0  0  0  0  0  0  0
   19.9495  -22.8032  -14.8687 C   0  0  0  0  0  0  0  0  0  0  0  0
   21.3988  -22.6128  -14.4718 C   0  0  0  0  0  0  0  0  0  0  0  0
   21.5343  -21.9031  -13.1568 C   0  0  0  0  0  0  0  0  0  0  0  0
   22.0587  -20.4812  -13.2918 C   0  0  2  0  0  0  0  0  0  0  0  0
   21.3403  -19.7972  -14.3334 N   0  0  0  0  0  0  0  0  0  0  0  0
   23.5249  -20.5041  -13.5791 C   0  0  0  0  0  0  0  0  0  0  0  0
   23.9685  -20.2175  -14.6960 O   0  0  0  0  0  0  0  0  0  0  0  0
   16.8123  -24.1343  -13.5509 N   0  0  0  0  0  0  0  0  0  0  0  0
   30.8289  -21.9244   -8.8630 C   0  0  0  0  0  0  0  0  0  0  0  0
   31.1639  -21.9957  -10.2391 N   0  0  0  0  0  0  0  0  0  0  0  0
   32.1932  -22.6703  -10.6632 N   0  0  0  0  0  0  0  0  0  0  0  0
   30.3945  -21.3355  -11.2225 C   0  0  0  0  0  0  0  0  0  0  0  0
   29.0688  -20.8592  -11.0109 C   0  0  0  0  0  0  0  0  0  0  0  0
   28.0221  -21.7205  -11.7089 C   0  0  0  0  0  0  0  0  0  0  0  0
   26.6372  -21.1647  -11.4583 C   0  0  1  0  0  0  0  0  0  0  0  0
   25.8786  -20.9316  -12.7483 N   0  0  0  0  0  0  0  0  0  0  0  0
   24.4703  -20.8584  -12.5600 C   0  0  0  0  0  0  0  0  0  0  0  0
   26.2324  -22.0290  -13.6848 O   0  0  0  0  0  0  0  0  0  0  0  0
   25.4954  -23.0610  -13.6205 O   0  0  0  0  0  0  0  0  0  0  0  0
   32.3375  -22.6871  -11.7135 C   0  0  0  0  0  0  0  0  0  0  0  0
   26.0237  -21.2613  -17.9395 C   0  0  2  0  0  0  0  0  0  0  0  0
   26.1228  -21.0842  -16.5533 N   0  0  0  0  0  0  0  0  0  0  0  0
   27.2400  -21.9341  -16.0364 C   0  0  0  0  0  0  0  0  0  0  0  0
   27.2862  -22.0015  -14.6014 O   0  0  0  0  0  0  0  0  0  0  0  0
   28.5058  -21.7137  -16.7370 O   0  0  0  0  0  0  0  0  0  0  0  0
  2  1  1  0
  3  2  2  0
  4  2  1  0
  5  4  1  0
  6  5  1  0
  7  6  1  0
  8 10  1  0
  8  7  1  0
  8  9  1  6
 10 11  2  0
 13 12  1  0
 14 13  2  0
 15 13  1  0
 16 15  1  0
 17 16  1  0
 18 17  1  0
 19 18  1  1
 19 21  1  0
 20 10  1  0
 20 19  1  0
 21 26  1  0
 21 22  2  0
 23 24  1  0
 25 24  1  6
 25 27  1  0
 26 25  1  0
 27 28  2  0
 27 29  1  0
M  END
$$$$
