RRS.pdb
     RDKit          3D

 29 28  0  0  1  0  0  0  0  0999 V2000
   25.0617  -12.8209  -19.8299 N   0  0  0  0  0  0  0  0  0  0  0  0
   24.7504  -11.9046  -18.7770 C   0  0  0  0  0  0  0  0  0  0  0  0
   23.8077  -11.0604  -18.8792 N   0  0  0  0  0  0  0  0  0  0  0  0
   25.5181  -11.9390  -17.5721 N   0  0  0  0  0  0  0  0  0  0  0  0
   25.8284  -13.1371  -16.8507 C   0  0  0  0  0  0  0  0  0  0  0  0
   24.6150  -13.7210  -16.1574 C   0  0  0  0  0  0  0  0  0  0  0  0
   24.9389  -14.9932  -15.4308 C   0  0  0  0  0  0  0  0  0  0  0  0
   25.5178  -16.0716  -16.3346 C   0  0  2  0  0  0  0  0  0  0  0  0
   24.8175  -16.0773  -17.5911 N   0  0  0  0  0  0  0  0  0  0  0  0
   25.4237  -17.4033  -15.6635 C   0  0  0  0  0  0  0  0  0  0  0  0
   25.8652  -17.5847  -14.5239 O   0  0  0  0  0  0  0  0  0  0  0  0
   23.6342  -10.3791  -18.1099 N   0  0  0  0  0  0  0  0  0  0  0  0
   20.9502  -22.0880  -12.7029 C   0  0  0  0  0  0  0  0  0  0  0  0
   21.1881  -22.9380  -13.8128 N   0  0  0  0  0  0  0  0  0  0  0  0
   21.3346  -24.2242  -13.6764 N   0  0  0  0  0  0  0  0  0  0  0  0
   21.2783  -22.4295  -15.1275 C   0  0  0  0  0  0  0  0  0  0  0  0
   21.1592  -21.0492  -15.4586 C   0  0  0  0  0  0  0  0  0  0  0  0
   22.4235  -20.2612  -15.1343 C   0  0  0  0  0  0  0  0  0  0  0  0
   23.5134  -20.5893  -16.1314 C   0  0  2  0  0  0  0  0  0  0  0  0
   24.8009  -19.8526  -15.8258 N   0  0  0  0  0  0  0  0  0  0  0  0
   24.8108  -18.5198  -16.3235 C   0  0  0  0  0  0  0  0  0  0  0  0
   25.9203  -20.6420  -16.4005 O   0  0  0  0  0  0  0  0  0  0  0  0
   25.8824  -20.8077  -17.6588 O   0  0  0  0  0  0  0  0  0  0  0  0
   21.5199  -24.7683  -14.5674 C   0  0  0  0  0  0  0  0  0  0  0  0
   29.1310  -24.1114  -16.0926 C   0  0  2  0  0  0  0  0  0  0  0  0
   27.9703  -23.4348  -15.6952 N   0  0  0  0  0  0  0  0  0  0  0  0
   28.0690  -22.0079  -16.1334 C   0  0  0  0  0  0  0  0  0  0  0  0
   26.9768  -21.1949  -15.6729 O   0  0  0  0  0  0  0  0  0  0  0  0
   28.4701  -21.8594  -17.5329 O   0  0  0  0  0  0  0  0  0  0  0  0
  2  1  1  0
  3  2  2  0
  4  2  1  0
  5  4  1  0
  6  5  1  0
  7  6  1  0
  8 10  1  0
  8  7  1  0
  8  9  1  6
 10 11  2  0
 13 12  1  0
 14 13  2  0
 15 13  1  0
 16 15  1  0
 17 16  1  0
 18 17  1  0
 19 18  1  1
 19 21  1  0
 20 10  1  0
 20 19  1  0
 21 26  1  0
 21 22  2  0
 23 24  1  0
 25 24  1  6
 25 27  1  0
 26 25  1  0
 27 28  2  0
 27 29  1  0
M  END
$$$$
