RRS.pdb
     RDKit          3D

 29 28  0  0  1  0  0  0  0  0999 V2000
   19.6948  -24.1086   -8.4306 N   0  0  0  0  0  0  0  0  0  0  0  0
   19.2721  -23.2560   -9.4981 C   0  0  0  0  0  0  0  0  0  0  0  0
   18.2093  -23.4805  -10.1553 N   0  0  0  0  0  0  0  0  0  0  0  0
   20.0644  -22.1156   -9.8360 N   0  0  0  0  0  0  0  0  0  0  0  0
   21.3413  -21.8238   -9.2562 C   0  0  0  0  0  0  0  0  0  0  0  0
   21.9351  -20.5373   -9.7916 C   0  0  0  0  0  0  0  0  0  0  0  0
   23.1411  -20.7871  -10.6486 C   0  0  0  0  0  0  0  0  0  0  0  0
   24.4284  -20.9263   -9.8497 C   0  0  2  0  0  0  0  0  0  0  0  0
   24.2749  -20.2889   -8.5694 N   0  0  0  0  0  0  0  0  0  0  0  0
   25.5675  -20.3300  -10.6112 C   0  0  0  0  0  0  0  0  0  0  0  0
   25.9596  -19.1793  -10.3907 O   0  0  0  0  0  0  0  0  0  0  0  0
   17.8954  -22.8038  -10.8831 N   0  0  0  0  0  0  0  0  0  0  0  0
   33.0733  -23.7947  -13.1605 C   0  0  0  0  0  0  0  0  0  0  0  0
   32.5359  -23.0469  -12.0821 N   0  0  0  0  0  0  0  0  0  0  0  0
   33.0616  -23.0797  -10.8918 N   0  0  0  0  0  0  0  0  0  0  0  0
   31.3985  -22.2256  -12.2462 C   0  0  0  0  0  0  0  0  0  0  0  0
   30.7239  -22.0363  -13.4864 C   0  0  0  0  0  0  0  0  0  0  0  0
   29.5964  -21.0148  -13.3861 C   0  0  0  0  0  0  0  0  0  0  0  0
   28.4944  -21.5396  -12.4919 C   0  0  1  0  0  0  0  0  0  0  0  0
   27.3200  -20.5858  -12.4213 N   0  0  0  0  0  0  0  0  0  0  0  0
   26.2487  -21.0804  -11.6264 C   0  0  0  0  0  0  0  0  0  0  0  0
   26.8702  -20.3195  -13.8116 O   0  0  0  0  0  0  0  0  0  0  0  0
   26.2620  -21.2772  -14.3820 O   0  0  0  0  0  0  0  0  0  0  0  0
   32.5790  -22.4907  -10.1539 C   0  0  0  0  0  0  0  0  0  0  0  0
   28.2083  -17.0227  -15.9738 C   0  0  2  0  0  0  0  0  0  0  0  0
   26.8509  -17.3201  -16.1529 N   0  0  0  0  0  0  0  0  0  0  0  0
   26.6258  -18.7631  -15.8296 C   0  0  0  0  0  0  0  0  0  0  0  0
   27.0647  -19.1252  -14.5097 O   0  0  0  0  0  0  0  0  0  0  0  0
   26.9859  -19.6640  -16.9251 O   0  0  0  0  0  0  0  0  0  0  0  0
  2  1  1  0
  3  2  2  0
  4  2  1  0
  5  4  1  0
  6  5  1  0
  7  6  1  0
  8 10  1  0
  8  7  1  0
  8  9  1  1
 10 11  2  0
 13 12  1  0
 14 13  2  0
 15 13  1  0
 16 15  1  0
 17 16  1  0
 18 17  1  0
 19 18  1  1
 19 21  1  0
 20 10  1  0
 20 19  1  0
 21 26  1  0
 21 22  2  0
 23 24  1  0
 25 24  1  1
 25 27  1  0
 26 25  1  0
 27 28  2  0
 27 29  1  0
M  END
$$$$
