RRS.pdb
     RDKit          3D

 29 28  0  0  1  0  0  0  0  0999 V2000
   26.8978  -16.3795  -14.1206 N   0  0  0  0  0  0  0  0  0  0  0  0
   25.8144  -16.7861  -14.9608 C   0  0  0  0  0  0  0  0  0  0  0  0
   25.0609  -17.7623  -14.6588 N   0  0  0  0  0  0  0  0  0  0  0  0
   25.5675  -16.0738  -16.1750 N   0  0  0  0  0  0  0  0  0  0  0  0
   26.1402  -14.7991  -16.4896 C   0  0  0  0  0  0  0  0  0  0  0  0
   25.2069  -13.6526  -16.1600 C   0  0  0  0  0  0  0  0  0  0  0  0
   25.9408  -12.4747  -15.5897 C   0  0  0  0  0  0  0  0  0  0  0  0
   25.7970  -11.2130  -16.4278 C   0  0  2  0  0  0  0  0  0  0  0  0
   24.5955  -11.2893  -17.2151 N   0  0  0  0  0  0  0  0  0  0  0  0
   26.9981  -11.0410  -17.2998 C   0  0  0  0  0  0  0  0  0  0  0  0
   27.2612  -11.8430  -18.2020 O   0  0  0  0  0  0  0  0  0  0  0  0
   24.3465  -18.0975  -15.3394 N   0  0  0  0  0  0  0  0  0  0  0  0
   31.9569   -3.6760  -19.1390 C   0  0  0  0  0  0  0  0  0  0  0  0
   32.5543   -4.7906  -19.7807 N   0  0  0  0  0  0  0  0  0  0  0  0
   33.5772   -4.6611  -20.5752 N   0  0  0  0  0  0  0  0  0  0  0  0
   32.0673   -6.1025  -19.5892 C   0  0  0  0  0  0  0  0  0  0  0  0
   30.9976   -6.4356  -18.7096 C   0  0  0  0  0  0  0  0  0  0  0  0
   30.6057   -7.9063  -18.7998 C   0  0  0  0  0  0  0  0  0  0  0  0
   29.4232   -8.1878  -17.8985 C   0  0  2  0  0  0  0  0  0  0  0  0
   29.0087   -9.6437  -17.9464 N   0  0  0  0  0  0  0  0  0  0  0  0
   27.8879   -9.9305  -17.1184 C   0  0  0  0  0  0  0  0  0  0  0  0
   30.1840  -10.4612  -17.5504 O   0  0  0  0  0  0  0  0  0  0  0  0
   30.5629  -10.3258  -16.3460 O   0  0  0  0  0  0  0  0  0  0  0  0
   33.9379   -5.5543  -21.0183 C   0  0  0  0  0  0  0  0  0  0  0  0
   33.5349  -13.8134  -18.7007 C   0  0  2  0  0  0  0  0  0  0  0  0
   32.3985  -13.1127  -19.1255 N   0  0  0  0  0  0  0  0  0  0  0  0
   32.1439  -11.9846  -18.1767 C   0  0  0  0  0  0  0  0  0  0  0  0
   30.8765  -11.3401  -18.3867 O   0  0  0  0  0  0  0  0  0  0  0  0
   33.3089  -11.1214  -17.9790 O   0  0  0  0  0  0  0  0  0  0  0  0
  2  1  1  0
  3  2  2  0
  4  2  1  0
  5  4  1  0
  6  5  1  0
  7  6  1  0
  8 10  1  0
  8  7  1  0
  8  9  1  6
 10 11  2  0
 13 12  1  0
 14 13  2  0
 15 13  1  0
 16 15  1  0
 17 16  1  0
 18 17  1  0
 19 18  1  6
 19 21  1  0
 20 10  1  0
 20 19  1  0
 21 26  1  0
 21 22  2  0
 23 24  1  0
 25 24  1  6
 25 27  1  0
 26 25  1  0
 27 28  2  0
 27 29  1  0
M  END
$$$$
