RRS.pdb
     RDKit          3D

 29 28  0  0  1  0  0  0  0  0999 V2000
   21.3541  -20.0095  -10.2445 N   0  0  0  0  0  0  0  0  0  0  0  0
   22.0557  -20.6299   -9.1638 C   0  0  0  0  0  0  0  0  0  0  0  0
   21.6476  -20.5485   -7.9643 N   0  0  0  0  0  0  0  0  0  0  0  0
   23.2495  -21.3662   -9.4379 N   0  0  0  0  0  0  0  0  0  0  0  0
   23.8533  -21.4649  -10.7332 C   0  0  0  0  0  0  0  0  0  0  0  0
   24.7486  -20.2827  -11.0414 C   0  0  0  0  0  0  0  0  0  0  0  0
   25.9464  -20.6795  -11.8534 C   0  0  0  0  0  0  0  0  0  0  0  0
   25.5996  -21.5541  -13.0491 C   0  0  2  0  0  0  0  0  0  0  0  0
   25.6361  -22.9392  -12.6625 N   0  0  0  0  0  0  0  0  0  0  0  0
   26.5515  -21.2861  -14.1693 C   0  0  0  0  0  0  0  0  0  0  0  0
   26.7980  -20.1354  -14.5458 O   0  0  0  0  0  0  0  0  0  0  0  0
   22.2083  -20.9719   -7.1946 N   0  0  0  0  0  0  0  0  0  0  0  0
   31.0254  -25.8891  -15.4649 C   0  0  0  0  0  0  0  0  0  0  0  0
   31.9662  -25.5241  -16.4611 N   0  0  0  0  0  0  0  0  0  0  0  0
   33.2403  -25.7509  -16.3213 N   0  0  0  0  0  0  0  0  0  0  0  0
   31.5664  -24.8933  -17.6600 C   0  0  0  0  0  0  0  0  0  0  0  0
   30.2089  -24.6692  -18.0288 C   0  0  0  0  0  0  0  0  0  0  0  0
   29.6884  -23.3208  -17.5436 C   0  0  0  0  0  0  0  0  0  0  0  0
   28.6672  -23.5199  -16.4448 C   0  0  2  0  0  0  0  0  0  0  0  0
   28.1523  -22.2019  -15.9048 N   0  0  0  0  0  0  0  0  0  0  0  0
   27.2163  -22.3626  -14.8454 C   0  0  0  0  0  0  0  0  0  0  0  0
   27.5484  -21.4547  -17.0376 O   0  0  0  0  0  0  0  0  0  0  0  0
   26.4696  -21.9401  -17.4991 O   0  0  0  0  0  0  0  0  0  0  0  0
   33.8441  -25.5514  -17.1698 C   0  0  0  0  0  0  0  0  0  0  0  0
   27.6986  -17.7076  -17.1850 C   0  0  1  0  0  0  0  0  0  0  0  0
   27.8079  -18.0410  -18.5414 N   0  0  0  0  0  0  0  0  0  0  0  0
   27.5595  -19.5076  -18.6998 C   0  0  0  0  0  0  0  0  0  0  0  0
   28.0707  -20.2920  -17.6092 O   0  0  0  0  0  0  0  0  0  0  0  0
   27.8208  -19.9951  -20.0547 O   0  0  0  0  0  0  0  0  0  0  0  0
  2  1  1  0
  3  2  2  0
  4  2  1  0
  5  4  1  0
  6  5  1  0
  7  6  1  0
  8 10  1  0
  8  7  1  0
  8  9  1  1
 10 11  2  0
 13 12  1  0
 14 13  2  0
 15 13  1  0
 16 15  1  0
 17 16  1  0
 18 17  1  0
 19 18  1  1
 19 21  1  0
 20 10  1  0
 20 19  1  0
 21 26  1  0
 21 22  2  0
 23 24  1  0
 25 24  1  6
 25 27  1  0
 26 25  1  0
 27 28  2  0
 27 29  1  0
M  END
$$$$
