RRS.pdb
     RDKit          3D

 29 28  0  0  1  0  0  0  0  0999 V2000
   27.2501  -29.7126  -18.3489 N   0  0  0  0  0  0  0  0  0  0  0  0
   26.4515  -29.1694  -17.2942 C   0  0  0  0  0  0  0  0  0  0  0  0
   25.3660  -29.7150  -16.9255 N   0  0  0  0  0  0  0  0  0  0  0  0
   26.8856  -27.9799  -16.6317 N   0  0  0  0  0  0  0  0  0  0  0  0
   27.8867  -27.0935  -17.1456 C   0  0  0  0  0  0  0  0  0  0  0  0
   28.1061  -25.8927  -16.2489 C   0  0  0  0  0  0  0  0  0  0  0  0
   26.8118  -25.2765  -15.8055 C   0  0  0  0  0  0  0  0  0  0  0  0
   26.4208  -24.0496  -16.6159 C   0  0  2  0  0  0  0  0  0  0  0  0
   27.3963  -23.0105  -16.4220 N   0  0  0  0  0  0  0  0  0  0  0  0
   25.0583  -23.5864  -16.2135 C   0  0  0  0  0  0  0  0  0  0  0  0
   24.8662  -22.9973  -15.1447 O   0  0  0  0  0  0  0  0  0  0  0  0
   24.8010  -29.2850  -16.1626 N   0  0  0  0  0  0  0  0  0  0  0  0
   18.8162  -20.8068  -21.2529 C   0  0  0  0  0  0  0  0  0  0  0  0
   18.6011  -22.1786  -20.9648 N   0  0  0  0  0  0  0  0  0  0  0  0
   17.9274  -22.9530  -21.7652 N   0  0  0  0  0  0  0  0  0  0  0  0
   19.1091  -22.7757  -19.7899 C   0  0  0  0  0  0  0  0  0  0  0  0
   19.7700  -22.0578  -18.7521 C   0  0  0  0  0  0  0  0  0  0  0  0
   20.2805  -22.9730  -17.6447 C   0  0  0  0  0  0  0  0  0  0  0  0
   21.6753  -23.4603  -17.9715 C   0  0  2  0  0  0  0  0  0  0  0  0
   22.5961  -23.3876  -16.7712 N   0  0  0  0  0  0  0  0  0  0  0  0
   23.9235  -23.8091  -17.0622 C   0  0  0  0  0  0  0  0  0  0  0  0
   21.9999  -24.2181  -15.6936 O   0  0  0  0  0  0  0  0  0  0  0  0
   22.2918  -25.4533  -15.7308 O   0  0  0  0  0  0  0  0  0  0  0  0
   17.7938  -23.9536  -21.4408 C   0  0  0  0  0  0  0  0  0  0  0  0
   20.0707  -22.6173  -12.2695 C   0  0  1  0  0  0  0  0  0  0  0  0
   19.4406  -23.6745  -12.9390 N   0  0  0  0  0  0  0  0  0  0  0  0
   20.4787  -24.4822  -13.6515 C   0  0  0  0  0  0  0  0  0  0  0  0
   21.1679  -23.7460  -14.6756 O   0  0  0  0  0  0  0  0  0  0  0  0
   20.0299  -25.8342  -13.9863 O   0  0  0  0  0  0  0  0  0  0  0  0
  2  1  1  0
  3  2  2  0
  4  2  1  0
  5  4  1  0
  6  5  1  0
  7  6  1  0
  8 10  1  0
  8  7  1  0
  8  9  1  1
 10 11  2  0
 13 12  1  0
 14 13  2  0
 15 13  1  0
 16 15  1  0
 17 16  1  0
 18 17  1  0
 19 18  1  6
 19 21  1  0
 20 10  1  0
 20 19  1  0
 21 26  1  0
 21 22  2  0
 23 24  1  0
 25 24  1  1
 25 27  1  0
 26 25  1  0
 27 28  2  0
 27 29  1  0
M  END
$$$$
