RRS.pdb
     RDKit          3D

 29 28  0  0  1  0  0  0  0  0999 V2000
   18.9304  -19.5004  -14.4605 N   0  0  0  0  0  0  0  0  0  0  0  0
   18.9079  -20.9169  -14.6558 C   0  0  0  0  0  0  0  0  0  0  0  0
   17.9510  -21.4962  -15.2566 N   0  0  0  0  0  0  0  0  0  0  0  0
   19.9931  -21.7066  -14.1648 N   0  0  0  0  0  0  0  0  0  0  0  0
   21.2733  -21.1761  -13.8020 C   0  0  0  0  0  0  0  0  0  0  0  0
   21.9634  -20.4943  -14.9651 C   0  0  0  0  0  0  0  0  0  0  0  0
   23.3049  -19.9434  -14.5800 C   0  0  0  0  0  0  0  0  0  0  0  0
   24.2909  -21.0147  -14.1382 C   0  0  2  0  0  0  0  0  0  0  0  0
   24.2812  -21.1194  -12.7036 N   0  0  0  0  0  0  0  0  0  0  0  0
   25.6590  -20.6866  -14.6415 C   0  0  0  0  0  0  0  0  0  0  0  0
   26.3200  -19.7612  -14.1585 O   0  0  0  0  0  0  0  0  0  0  0  0
   17.9402  -22.5352  -15.3362 N   0  0  0  0  0  0  0  0  0  0  0  0
   31.7754  -24.9838  -15.8231 C   0  0  0  0  0  0  0  0  0  0  0  0
   30.4885  -25.3805  -16.2673 N   0  0  0  0  0  0  0  0  0  0  0  0
   29.9401  -26.4961  -15.8810 N   0  0  0  0  0  0  0  0  0  0  0  0
   29.7340  -24.5819  -17.1550 C   0  0  0  0  0  0  0  0  0  0  0  0
   30.2461  -23.4356  -17.8279 C   0  0  0  0  0  0  0  0  0  0  0  0
   29.5785  -22.1440  -17.3688 C   0  0  0  0  0  0  0  0  0  0  0  0
   28.2180  -22.4413  -16.7769 C   0  0  1  0  0  0  0  0  0  0  0  0
   27.5383  -21.1892  -16.2628 N   0  0  0  0  0  0  0  0  0  0  0  0
   26.2539  -21.4424  -15.7059 C   0  0  0  0  0  0  0  0  0  0  0  0
   27.4471  -20.2287  -17.3921 O   0  0  0  0  0  0  0  0  0  0  0  0
   26.6864  -20.5784  -18.3468 O   0  0  0  0  0  0  0  0  0  0  0  0
   28.9626  -26.6847  -16.2460 C   0  0  0  0  0  0  0  0  0  0  0  0
   27.9273  -16.2614  -16.9964 C   0  0  1  0  0  0  0  0  0  0  0  0
   28.6485  -16.7022  -18.1137 N   0  0  0  0  0  0  0  0  0  0  0  0
   28.1217  -18.0381  -18.5325 C   0  0  0  0  0  0  0  0  0  0  0  0
   28.1196  -19.0068  -17.4707 O   0  0  0  0  0  0  0  0  0  0  0  0
   28.6239  -18.4749  -19.8358 O   0  0  0  0  0  0  0  0  0  0  0  0
  2  1  1  0
  3  2  2  0
  4  2  1  0
  5  4  1  0
  6  5  1  0
  7  6  1  0
  8 10  1  0
  8  7  1  0
  8  9  1  1
 10 11  2  0
 13 12  1  0
 14 13  2  0
 15 13  1  0
 16 15  1  0
 17 16  1  0
 18 17  1  0
 19 18  1  1
 19 21  1  0
 20 10  1  0
 20 19  1  0
 21 26  1  0
 21 22  2  0
 23 24  1  0
 25 24  1  6
 25 27  1  0
 26 25  1  0
 27 28  2  0
 27 29  1  0
M  END
$$$$
