RRS.pdb
     RDKit          3D

 29 28  0  0  1  0  0  0  0  0999 V2000
   17.6871  -18.8233  -14.6300 N   0  0  0  0  0  0  0  0  0  0  0  0
   17.7879  -20.1396  -15.1800 C   0  0  0  0  0  0  0  0  0  0  0  0
   16.7973  -20.7163  -15.7259 N   0  0  0  0  0  0  0  0  0  0  0  0
   19.0387  -20.8280  -15.1180 N   0  0  0  0  0  0  0  0  0  0  0  0
   19.9684  -20.7097  -14.0346 C   0  0  0  0  0  0  0  0  0  0  0  0
   21.1739  -19.8693  -14.4011 C   0  0  0  0  0  0  0  0  0  0  0  0
   22.3220  -20.7088  -14.8789 C   0  0  0  0  0  0  0  0  0  0  0  0
   23.3097  -21.0609  -13.7763 C   0  0  2  0  0  0  0  0  0  0  0  0
   23.0438  -20.2569  -12.6136 N   0  0  0  0  0  0  0  0  0  0  0  0
   24.7082  -20.8554  -14.2606 C   0  0  0  0  0  0  0  0  0  0  0  0
   25.4057  -19.9247  -13.8437 O   0  0  0  0  0  0  0  0  0  0  0  0
   16.8930  -21.6927  -16.0772 N   0  0  0  0  0  0  0  0  0  0  0  0
   31.9412  -23.7538  -17.6447 C   0  0  0  0  0  0  0  0  0  0  0  0
   31.3365  -24.6516  -16.7285 N   0  0  0  0  0  0  0  0  0  0  0  0
   32.0362  -25.3304  -15.8659 N   0  0  0  0  0  0  0  0  0  0  0  0
   29.9390  -24.8552  -16.7061 C   0  0  0  0  0  0  0  0  0  0  0  0
   29.0097  -24.0934  -17.4710 C   0  0  0  0  0  0  0  0  0  0  0  0
   28.5779  -22.8162  -16.7590 C   0  0  0  0  0  0  0  0  0  0  0  0
   27.1459  -22.9405  -16.2863 C   0  0  2  0  0  0  0  0  0  0  0  0
   26.6177  -21.6344  -15.7303 N   0  0  0  0  0  0  0  0  0  0  0  0
   25.2906  -21.7397  -15.2285 C   0  0  0  0  0  0  0  0  0  0  0  0
   26.6974  -20.6184  -16.8109 O   0  0  0  0  0  0  0  0  0  0  0  0
   25.8723  -20.7690  -17.7644 O   0  0  0  0  0  0  0  0  0  0  0  0
   31.4832  -25.9174  -15.1776 C   0  0  0  0  0  0  0  0  0  0  0  0
   29.7952  -17.8183  -16.9286 C   0  0  2  0  0  0  0  0  0  0  0  0
   28.5530  -17.3555  -17.3821 N   0  0  0  0  0  0  0  0  0  0  0  0
   27.7428  -18.5238  -17.8472 C   0  0  0  0  0  0  0  0  0  0  0  0
   27.5893  -19.5439  -16.8463 O   0  0  0  0  0  0  0  0  0  0  0  0
   28.0835  -18.9611  -19.2016 O   0  0  0  0  0  0  0  0  0  0  0  0
  2  1  1  0
  3  2  2  0
  4  2  1  0
  5  4  1  0
  6  5  1  0
  7  6  1  0
  8 10  1  0
  8  7  1  0
  8  9  1  1
 10 11  2  0
 13 12  1  0
 14 13  2  0
 15 13  1  0
 16 15  1  0
 17 16  1  0
 18 17  1  0
 19 18  1  1
 19 21  1  0
 20 10  1  0
 20 19  1  0
 21 26  1  0
 21 22  2  0
 23 24  1  0
 25 24  1  1
 25 27  1  0
 26 25  1  0
 27 28  2  0
 27 29  1  0
M  END
$$$$
