YDS.pdb
     RDKit          3D

 27 27  0  0  1  0  0  0  0  0999 V2000
    5.5411  -10.3468   27.8377 O   0  0  0  0  0  0  0  0  0  0  0  0
    6.1478  -11.3758   27.1173 C   0  0  0  0  0  0  0  0  0  0  0  0
    6.0685  -11.4200   25.7409 C   0  0  0  0  0  0  0  0  0  0  0  0
    6.6610  -12.4288   25.0086 C   0  0  0  0  0  0  0  0  0  0  0  0
    7.3650  -13.4470   25.6258 C   0  0  0  0  0  0  0  0  0  0  0  0
    7.9887  -14.5154   24.8074 C   0  0  0  0  0  0  0  0  0  0  0  0
    6.9202  -15.4972   24.2917 C   0  0  2  0  0  0  0  0  0  0  0  0
    6.5302  -16.3637   25.4062 N   0  0  0  0  0  0  0  0  0  0  0  0
    7.6200  -16.3263   23.2740 C   0  0  0  0  0  0  0  0  0  0  0  0
    8.0251  -17.4633   23.6125 O   0  0  0  0  0  0  0  0  0  0  0  0
    7.4433  -13.4016   27.0008 C   0  0  0  0  0  0  0  0  0  0  0  0
    6.8494  -12.3897   27.7390 C   0  0  0  0  0  0  0  0  0  0  0  0
    7.7979  -15.8086   21.9819 N   0  0  0  0  0  0  0  0  0  0  0  0
    8.4563  -16.6400   20.9669 C   0  0  1  0  0  0  0  0  0  0  0  0
    8.1146  -16.1132   19.5982 C   0  0  0  0  0  0  0  0  0  0  0  0
    8.7951  -16.8343   18.5183 C   0  0  0  0  0  0  0  0  0  0  0  0
    8.5556  -18.0753   18.3141 O   0  0  0  0  0  0  0  0  0  0  0  0
    9.8955  -16.6269   21.2898 C   0  0  0  0  0  0  0  0  0  0  0  0
   10.4819  -15.4982   21.4994 O   0  0  0  0  0  0  0  0  0  0  0  0
    9.7044  -16.2068   17.6942 O   0  0  0  0  0  0  0  0  0  0  0  0
   11.6358  -19.6825   22.7486 O   0  0  0  0  0  0  0  0  0  0  0  0
   12.4433  -18.5333   22.7979 C   0  0  0  0  0  0  0  0  0  0  0  0
   12.1051  -17.7132   21.5693 C   0  0  2  0  0  0  0  0  0  0  0  0
   10.6522  -17.8218   21.3786 N   0  0  0  0  0  0  0  0  0  0  0  0
   12.8729  -18.2750   20.4420 C   0  0  0  0  0  0  0  0  0  0  0  0
   14.2452  -18.3815   20.4777 O   0  0  0  0  0  0  0  0  0  0  0  0
   12.2950  -18.6785   19.4037 O   0  0  0  0  0  0  0  0  0  0  0  0
  2  3  2  0
  2  1  1  0
  4  3  1  0
  5  4  2  0
  6  5  1  0
  7  6  1  0
  7  8  1  1
  9  7  1  0
  9 10  2  0
 11  5  1  0
 11 12  2  0
 12  2  1  0
 13  9  1  0
 14 13  1  0
 14 15  1  6
 16 15  1  0
 16 17  2  0
 18 14  1  0
 19 18  2  0
 20 16  1  0
 22 21  1  0
 23 22  1  1
 23 24  1  0
 24 18  1  0
 25 23  1  0
 26 25  1  0
 27 25  2  0
M  END
$$$$
