YDS.pdb
     RDKit          3D

 27 27  0  0  1  0  0  0  0  0999 V2000
    5.6795  -12.2403   18.9884 O   0  0  0  0  0  0  0  0  0  0  0  0
    6.9961  -12.6459   19.2073 C   0  0  0  0  0  0  0  0  0  0  0  0
    7.2762  -13.7768   19.9458 C   0  0  0  0  0  0  0  0  0  0  0  0
    8.5712  -14.1958   20.1745 C   0  0  0  0  0  0  0  0  0  0  0  0
    9.6529  -13.4963   19.6706 C   0  0  0  0  0  0  0  0  0  0  0  0
   11.0313  -13.9754   19.9365 C   0  0  0  0  0  0  0  0  0  0  0  0
   11.6499  -14.5817   18.6631 C   0  0  2  0  0  0  0  0  0  0  0  0
   10.7922  -15.6864   18.2285 N   0  0  0  0  0  0  0  0  0  0  0  0
   12.9556  -15.1441   19.1010 C   0  0  0  0  0  0  0  0  0  0  0  0
   13.0038  -16.3575   19.4120 O   0  0  0  0  0  0  0  0  0  0  0  0
    9.3716  -12.3668   18.9331 C   0  0  0  0  0  0  0  0  0  0  0  0
    8.0721  -11.9434   18.7016 C   0  0  0  0  0  0  0  0  0  0  0  0
   14.0767  -14.3014   19.1477 N   0  0  0  0  0  0  0  0  0  0  0  0
   15.3851  -14.8761   19.4829 C   0  0  1  0  0  0  0  0  0  0  0  0
   16.4664  -14.0659   18.8179 C   0  0  0  0  0  0  0  0  0  0  0  0
   17.8139  -14.5800   19.0810 C   0  0  0  0  0  0  0  0  0  0  0  0
   18.7106  -13.8215   19.5905 O   0  0  0  0  0  0  0  0  0  0  0  0
   15.4586  -14.9095   20.9557 C   0  0  0  0  0  0  0  0  0  0  0  0
   15.8944  -13.8731   21.5864 O   0  0  0  0  0  0  0  0  0  0  0  0
   18.1564  -15.8838   18.7934 O   0  0  0  0  0  0  0  0  0  0  0  0
   13.3741  -17.4459   23.0358 O   0  0  0  0  0  0  0  0  0  0  0  0
   13.8805  -16.3518   23.7581 C   0  0  0  0  0  0  0  0  0  0  0  0
   15.2326  -16.0245   23.1571 C   0  0  2  0  0  0  0  0  0  0  0  0
   15.0609  -16.0493   21.6980 N   0  0  0  0  0  0  0  0  0  0  0  0
   16.1846  -17.0436   23.6378 C   0  0  0  0  0  0  0  0  0  0  0  0
   16.5118  -17.1627   24.9699 O   0  0  0  0  0  0  0  0  0  0  0  0
   16.7323  -17.8434   22.8408 O   0  0  0  0  0  0  0  0  0  0  0  0
  2  3  2  0
  2  1  1  0
  4  3  1  0
  5  4  2  0
  6  5  1  0
  7  6  1  0
  7  8  1  1
  9  7  1  0
  9 10  2  0
 11  5  1  0
 11 12  2  0
 12  2  1  0
 13  9  1  0
 14 13  1  0
 14 15  1  1
 16 15  1  0
 16 17  2  0
 18 14  1  0
 19 18  2  0
 20 16  1  0
 22 21  1  0
 23 22  1  1
 23 24  1  0
 24 18  1  0
 25 23  1  0
 26 25  1  0
 27 25  2  0
M  END
$$$$
