YDS.pdb
     RDKit          3D

 27 27  0  0  1  0  0  0  0  0999 V2000
    5.4680  -12.3783   18.7957 O   0  0  0  0  0  0  0  0  0  0  0  0
    6.7504  -12.8471   19.0813 C   0  0  0  0  0  0  0  0  0  0  0  0
    7.8607  -12.2780   18.4930 C   0  0  0  0  0  0  0  0  0  0  0  0
    9.1382  -12.7262   18.7612 C   0  0  0  0  0  0  0  0  0  0  0  0
    9.3640  -13.7728   19.6371 C   0  0  0  0  0  0  0  0  0  0  0  0
   10.7504  -14.2288   19.9016 C   0  0  0  0  0  0  0  0  0  0  0  0
   11.3159  -14.9807   18.6824 C   0  0  2  0  0  0  0  0  0  0  0  0
   10.4895  -16.1700   18.4644 N   0  0  0  0  0  0  0  0  0  0  0  0
   12.6741  -15.4217   19.0996 C   0  0  0  0  0  0  0  0  0  0  0  0
   12.7769  -16.4875   19.7513 O   0  0  0  0  0  0  0  0  0  0  0  0
    8.2539  -14.3403   20.2240 C   0  0  0  0  0  0  0  0  0  0  0  0
    6.9695  -13.8923   19.9567 C   0  0  0  0  0  0  0  0  0  0  0  0
   13.7813  -14.6342   18.7490 N   0  0  0  0  0  0  0  0  0  0  0  0
   15.1217  -15.0676   19.1618 C   0  0  1  0  0  0  0  0  0  0  0  0
   16.1532  -14.2983   18.3794 C   0  0  0  0  0  0  0  0  0  0  0  0
   17.5295  -14.6511   18.7408 C   0  0  0  0  0  0  0  0  0  0  0  0
   17.7597  -15.5568   19.6159 O   0  0  0  0  0  0  0  0  0  0  0  0
   15.1881  -14.8757   20.6228 C   0  0  0  0  0  0  0  0  0  0  0  0
   15.3444  -13.6859   21.0935 O   0  0  0  0  0  0  0  0  0  0  0  0
   18.6104  -14.0277   18.1553 O   0  0  0  0  0  0  0  0  0  0  0  0
   13.3679  -17.0580   23.2130 O   0  0  0  0  0  0  0  0  0  0  0  0
   13.8864  -15.8080   23.5922 C   0  0  0  0  0  0  0  0  0  0  0  0
   15.2589  -15.6983   22.9592 C   0  0  2  0  0  0  0  0  0  0  0  0
   15.0824  -15.9636   21.5248 N   0  0  0  0  0  0  0  0  0  0  0  0
   16.1276  -16.6899   23.6210 C   0  0  0  0  0  0  0  0  0  0  0  0
   16.5021  -16.5638   24.9399 O   0  0  0  0  0  0  0  0  0  0  0  0
   16.5576  -17.6907   22.9977 O   0  0  0  0  0  0  0  0  0  0  0  0
  2  3  2  0
  2  1  1  0
  4  3  1  0
  5  4  2  0
  6  5  1  0
  7  6  1  0
  7  8  1  1
  9  7  1  0
  9 10  2  0
 11  5  1  0
 11 12  2  0
 12  2  1  0
 13  9  1  0
 14 13  1  0
 14 15  1  6
 16 15  1  0
 16 17  2  0
 18 14  1  0
 19 18  2  0
 20 16  1  0
 22 21  1  0
 23 22  1  1
 23 24  1  0
 24 18  1  0
 25 23  1  0
 26 25  1  0
 27 25  2  0
M  END
$$$$
