YDS.pdb
     RDKit          3D

 27 27  0  0  1  0  0  0  0  0999 V2000
    8.2375  -11.7739   18.4136 O   0  0  0  0  0  0  0  0  0  0  0  0
    8.3024  -12.7094   19.4464 C   0  0  0  0  0  0  0  0  0  0  0  0
    9.4747  -13.3828   19.7203 C   0  0  0  0  0  0  0  0  0  0  0  0
    9.5610  -14.3122   20.7370 C   0  0  0  0  0  0  0  0  0  0  0  0
    8.4692  -14.6120   21.5317 C   0  0  0  0  0  0  0  0  0  0  0  0
    8.5978  -15.6167   22.6153 C   0  0  0  0  0  0  0  0  0  0  0  0
    8.4495  -17.0428   22.0533 C   0  0  2  0  0  0  0  0  0  0  0  0
    7.0554  -17.2213   21.6416 N   0  0  0  0  0  0  0  0  0  0  0  0
    8.7174  -17.9405   23.2089 C   0  0  0  0  0  0  0  0  0  0  0  0
    7.7821  -18.1681   24.0118 O   0  0  0  0  0  0  0  0  0  0  0  0
    7.2988  -13.9386   21.2568 C   0  0  0  0  0  0  0  0  0  0  0  0
    7.2090  -13.0045   20.2364 C   0  0  0  0  0  0  0  0  0  0  0  0
    9.9977  -18.4961   23.3547 N   0  0  0  0  0  0  0  0  0  0  0  0
   10.2059  -19.5507   24.3543 C   0  0  1  0  0  0  0  0  0  0  0  0
   10.8985  -20.7191   23.7040 C   0  0  0  0  0  0  0  0  0  0  0  0
   11.2060  -21.8010   24.6443 C   0  0  0  0  0  0  0  0  0  0  0  0
   10.4923  -21.9726   25.6932 O   0  0  0  0  0  0  0  0  0  0  0  0
   10.9555  -18.9298   25.4626 C   0  0  0  0  0  0  0  0  0  0  0  0
   11.3961  -17.7260   25.3260 O   0  0  0  0  0  0  0  0  0  0  0  0
   12.2615  -22.6617   24.4320 O   0  0  0  0  0  0  0  0  0  0  0  0
   10.6386  -18.0408   29.5798 O   0  0  0  0  0  0  0  0  0  0  0  0
   10.8902  -17.8140   28.2158 C   0  0  0  0  0  0  0  0  0  0  0  0
   11.8596  -18.8898   27.7694 C   0  0  2  0  0  0  0  0  0  0  0  0
   11.2033  -19.6192   26.6757 N   0  0  0  0  0  0  0  0  0  0  0  0
   12.1369  -19.7435   28.9399 C   0  0  0  0  0  0  0  0  0  0  0  0
   12.7948  -19.2643   30.0504 O   0  0  0  0  0  0  0  0  0  0  0  0
   11.7784  -20.9460   28.9624 O   0  0  0  0  0  0  0  0  0  0  0  0
  2  3  2  0
  2  1  1  0
  4  3  1  0
  5  4  2  0
  6  5  1  0
  7  6  1  0
  7  8  1  1
  9  7  1  0
  9 10  2  0
 11  5  1  0
 11 12  2  0
 12  2  1  0
 13  9  1  0
 14 13  1  0
 14 15  1  6
 16 15  1  0
 16 17  2  0
 18 14  1  0
 19 18  2  0
 20 16  1  0
 22 21  1  0
 23 22  1  1
 23 24  1  0
 24 18  1  0
 25 23  1  0
 26 25  1  0
 27 25  2  0
M  END
$$$$
