YDS.pdb
     RDKit          3D

 27 27  0  0  1  0  0  0  0  0999 V2000
    5.1871  -10.4811   27.2191 O   0  0  0  0  0  0  0  0  0  0  0  0
    6.0114  -11.4774   26.6957 C   0  0  0  0  0  0  0  0  0  0  0  0
    6.6749  -12.3571   27.5255 C   0  0  0  0  0  0  0  0  0  0  0  0
    7.4952  -13.3498   27.0290 C   0  0  0  0  0  0  0  0  0  0  0  0
    7.6901  -13.5080   25.6687 C   0  0  0  0  0  0  0  0  0  0  0  0
    8.5791  -14.5856   25.1702 C   0  0  0  0  0  0  0  0  0  0  0  0
    7.7963  -15.5637   24.2745 C   0  0  2  0  0  0  0  0  0  0  0  0
    6.9427  -16.3810   25.1395 N   0  0  0  0  0  0  0  0  0  0  0  0
    8.8323  -16.4432   23.6694 C   0  0  0  0  0  0  0  0  0  0  0  0
    9.0130  -17.5777   24.1709 O   0  0  0  0  0  0  0  0  0  0  0  0
    7.0267  -12.6285   24.8410 C   0  0  0  0  0  0  0  0  0  0  0  0
    6.2021  -11.6305   25.3367 C   0  0  0  0  0  0  0  0  0  0  0  0
    9.5622  -15.9735   22.5668 N   0  0  0  0  0  0  0  0  0  0  0  0
   10.6229  -16.8179   22.0041 C   0  0  1  0  0  0  0  0  0  0  0  0
   10.9991  -16.2977   20.6418 C   0  0  0  0  0  0  0  0  0  0  0  0
    9.9688  -16.5431   19.6281 C   0  0  0  0  0  0  0  0  0  0  0  0
    9.2555  -17.6054   19.6708 O   0  0  0  0  0  0  0  0  0  0  0  0
   11.7212  -16.8158   22.9887 C   0  0  0  0  0  0  0  0  0  0  0  0
   11.7744  -15.8747   23.8681 O   0  0  0  0  0  0  0  0  0  0  0  0
    9.7348  -15.6472   18.6071 O   0  0  0  0  0  0  0  0  0  0  0  0
   13.4730  -18.4598   26.4711 O   0  0  0  0  0  0  0  0  0  0  0  0
   12.6519  -18.2793   25.3449 C   0  0  0  0  0  0  0  0  0  0  0  0
   13.5715  -17.9474   24.1871 C   0  0  2  0  0  0  0  0  0  0  0  0
   12.7195  -17.8216   22.9966 N   0  0  0  0  0  0  0  0  0  0  0  0
   14.5503  -19.0454   24.0757 C   0  0  0  0  0  0  0  0  0  0  0  0
   15.5547  -19.2212   25.0009 O   0  0  0  0  0  0  0  0  0  0  0  0
   14.4988  -19.8632   23.1253 O   0  0  0  0  0  0  0  0  0  0  0  0
  2  3  2  0
  2  1  1  0
  4  3  1  0
  5  4  2  0
  6  5  1  0
  7  6  1  0
  7  8  1  1
  9  7  1  0
  9 10  2  0
 11  5  1  0
 11 12  2  0
 12  2  1  0
 13  9  1  0
 14 13  1  0
 14 15  1  6
 16 15  1  0
 16 17  2  0
 18 14  1  0
 19 18  2  0
 20 16  1  0
 22 21  1  0
 23 22  1  1
 23 24  1  0
 24 18  1  0
 25 23  1  0
 26 25  1  0
 27 25  2  0
M  END
$$$$
