YDS.pdb
     RDKit          3D

 27 27  0  0  1  0  0  0  0  0999 V2000
    6.2544  -10.4152   26.6401 O   0  0  0  0  0  0  0  0  0  0  0  0
    6.4957  -11.7704   26.4144 C   0  0  0  0  0  0  0  0  0  0  0  0
    5.7284  -12.7390   27.0276 C   0  0  0  0  0  0  0  0  0  0  0  0
    5.9501  -14.0851   26.8186 C   0  0  0  0  0  0  0  0  0  0  0  0
    6.9578  -14.5261   25.9798 C   0  0  0  0  0  0  0  0  0  0  0  0
    7.1678  -15.9806   25.7787 C   0  0  0  0  0  0  0  0  0  0  0  0
    6.8605  -16.3768   24.3226 C   0  0  2  0  0  0  0  0  0  0  0  0
    5.7981  -17.3846   24.3453 N   0  0  0  0  0  0  0  0  0  0  0  0
    8.1078  -17.0193   23.8282 C   0  0  0  0  0  0  0  0  0  0  0  0
    8.3072  -18.2236   24.1131 O   0  0  0  0  0  0  0  0  0  0  0  0
    7.7234  -13.5575   25.3681 C   0  0  0  0  0  0  0  0  0  0  0  0
    7.5032  -12.2047   25.5759 C   0  0  0  0  0  0  0  0  0  0  0  0
    9.0073  -16.2588   23.0656 N   0  0  0  0  0  0  0  0  0  0  0  0
   10.2629  -16.8763   22.6219 C   0  0  1  0  0  0  0  0  0  0  0  0
   10.8449  -16.0611   21.4974 C   0  0  0  0  0  0  0  0  0  0  0  0
   12.0570  -16.6545   20.9248 C   0  0  0  0  0  0  0  0  0  0  0  0
   12.7538  -16.0084   20.0668 O   0  0  0  0  0  0  0  0  0  0  0  0
   11.1210  -16.9768   23.8175 C   0  0  0  0  0  0  0  0  0  0  0  0
   11.4259  -15.9038   24.4637 O   0  0  0  0  0  0  0  0  0  0  0  0
   12.4837  -17.9137   21.2885 O   0  0  0  0  0  0  0  0  0  0  0  0
   10.6500  -18.8112   26.9656 O   0  0  0  0  0  0  0  0  0  0  0  0
   11.4886  -17.7382   26.6183 C   0  0  0  0  0  0  0  0  0  0  0  0
   12.4032  -18.2411   25.5197 C   0  0  2  0  0  0  0  0  0  0  0  0
   11.6183  -18.2214   24.2777 N   0  0  0  0  0  0  0  0  0  0  0  0
   12.8388  -19.5986   25.8988 C   0  0  0  0  0  0  0  0  0  0  0  0
   13.5970  -19.8316   27.0242 O   0  0  0  0  0  0  0  0  0  0  0  0
   12.5292  -20.5950   25.2016 O   0  0  0  0  0  0  0  0  0  0  0  0
  2  3  2  0
  2  1  1  0
  4  3  1  0
  5  4  2  0
  6  5  1  0
  7  6  1  0
  7  8  1  1
  9  7  1  0
  9 10  2  0
 11  5  1  0
 11 12  2  0
 12  2  1  0
 13  9  1  0
 14 13  1  0
 14 15  1  6
 16 15  1  0
 16 17  2  0
 18 14  1  0
 19 18  2  0
 20 16  1  0
 22 21  1  0
 23 22  1  1
 23 24  1  0
 24 18  1  0
 25 23  1  0
 26 25  1  0
 27 25  2  0
M  END
$$$$
