YDS.pdb
     RDKit          3D

 27 27  0  0  1  0  0  0  0  0999 V2000
    5.2458  -12.4073   19.0319 O   0  0  0  0  0  0  0  0  0  0  0  0
    6.5551  -12.8503   19.2201 C   0  0  0  0  0  0  0  0  0  0  0  0
    7.5821  -12.3855   18.4251 C   0  0  0  0  0  0  0  0  0  0  0  0
    8.8843  -12.8105   18.5939 C   0  0  0  0  0  0  0  0  0  0  0  0
    9.2201  -13.7275   19.5736 C   0  0  0  0  0  0  0  0  0  0  0  0
   10.6299  -14.1624   19.7265 C   0  0  0  0  0  0  0  0  0  0  0  0
   11.0871  -14.9637   18.4934 C   0  0  2  0  0  0  0  0  0  0  0  0
   10.2200  -16.1379   18.3732 N   0  0  0  0  0  0  0  0  0  0  0  0
   12.4618  -15.4261   18.8242 C   0  0  0  0  0  0  0  0  0  0  0  0
   12.6118  -16.6082   19.2134 O   0  0  0  0  0  0  0  0  0  0  0  0
    8.1931  -14.1910   20.3670 C   0  0  0  0  0  0  0  0  0  0  0  0
    6.8843  -13.7659   20.2000 C   0  0  0  0  0  0  0  0  0  0  0  0
   13.5315  -14.5283   18.6877 N   0  0  0  0  0  0  0  0  0  0  0  0
   14.8997  -15.0136   18.9051 C   0  0  1  0  0  0  0  0  0  0  0  0
   15.8448  -14.2408   18.0234 C   0  0  0  0  0  0  0  0  0  0  0  0
   17.2294  -14.7145   18.1106 C   0  0  0  0  0  0  0  0  0  0  0  0
   17.5268  -15.7207   18.8442 O   0  0  0  0  0  0  0  0  0  0  0  0
   15.1612  -14.8834   20.3509 C   0  0  0  0  0  0  0  0  0  0  0  0
   15.6627  -13.7849   20.8020 O   0  0  0  0  0  0  0  0  0  0  0  0
   18.2464  -14.1003   17.4117 O   0  0  0  0  0  0  0  0  0  0  0  0
   13.7445  -17.5717   22.7934 O   0  0  0  0  0  0  0  0  0  0  0  0
   14.0651  -16.3807   23.4670 C   0  0  0  0  0  0  0  0  0  0  0  0
   15.1832  -15.7260   22.6811 C   0  0  2  0  0  0  0  0  0  0  0  0
   14.8743  -15.9324   21.2595 N   0  0  0  0  0  0  0  0  0  0  0  0
   16.4443  -16.3721   23.0914 C   0  0  0  0  0  0  0  0  0  0  0  0
   16.9425  -16.2492   24.3690 O   0  0  0  0  0  0  0  0  0  0  0  0
   17.1104  -17.0618   22.2818 O   0  0  0  0  0  0  0  0  0  0  0  0
  2  3  2  0
  2  1  1  0
  4  3  1  0
  5  4  2  0
  6  5  1  0
  7  6  1  0
  7  8  1  1
  9  7  1  0
  9 10  2  0
 11  5  1  0
 11 12  2  0
 12  2  1  0
 13  9  1  0
 14 13  1  0
 14 15  1  6
 16 15  1  0
 16 17  2  0
 18 14  1  0
 19 18  2  0
 20 16  1  0
 22 21  1  0
 23 22  1  1
 23 24  1  0
 24 18  1  0
 25 23  1  0
 26 25  1  0
 27 25  2  0
M  END
$$$$
