YDS.pdb
     RDKit          3D

 27 27  0  0  1  0  0  0  0  0999 V2000
    7.0385  -11.7326   18.3530 O   0  0  0  0  0  0  0  0  0  0  0  0
    7.6844  -12.6323   19.2010 C   0  0  0  0  0  0  0  0  0  0  0  0
    9.0561  -12.7756   19.1705 C   0  0  0  0  0  0  0  0  0  0  0  0
    9.7153  -13.6596   20.0004 C   0  0  0  0  0  0  0  0  0  0  0  0
    9.0260  -14.4466   20.9054 C   0  0  0  0  0  0  0  0  0  0  0  0
    9.7670  -15.3863   21.7818 C   0  0  0  0  0  0  0  0  0  0  0  0
   10.2731  -16.5962   20.9745 C   0  0  2  0  0  0  0  0  0  0  0  0
    9.1063  -17.3681   20.5416 N   0  0  0  0  0  0  0  0  0  0  0  0
   11.0424  -17.4141   21.9504 C   0  0  0  0  0  0  0  0  0  0  0  0
   10.4173  -18.2463   22.6491 O   0  0  0  0  0  0  0  0  0  0  0  0
    7.6559  -14.3024   20.9347 C   0  0  0  0  0  0  0  0  0  0  0  0
    6.9909  -13.4153   20.1026 C   0  0  0  0  0  0  0  0  0  0  0  0
   12.4293  -17.2255   22.0505 N   0  0  0  0  0  0  0  0  0  0  0  0
   13.1999  -18.0823   22.9599 C   0  0  1  0  0  0  0  0  0  0  0  0
   14.6699  -17.8813   22.7023 C   0  0  0  0  0  0  0  0  0  0  0  0
   15.1032  -18.4071   21.4043 C   0  0  0  0  0  0  0  0  0  0  0  0
   14.6348  -19.5136   20.9624 O   0  0  0  0  0  0  0  0  0  0  0  0
   12.7615  -17.7378   24.3255 C   0  0  0  0  0  0  0  0  0  0  0  0
   12.9737  -16.5472   24.7717 O   0  0  0  0  0  0  0  0  0  0  0  0
   16.0182  -17.7341   20.6234 O   0  0  0  0  0  0  0  0  0  0  0  0
    9.7291  -19.0351   26.1540 O   0  0  0  0  0  0  0  0  0  0  0  0
   10.4610  -17.9969   26.7553 C   0  0  0  0  0  0  0  0  0  0  0  0
   11.9262  -18.3413   26.5791 C   0  0  2  0  0  0  0  0  0  0  0  0
   12.1107  -18.6794   25.1611 N   0  0  0  0  0  0  0  0  0  0  0  0
   12.2223  -19.4718   27.4792 C   0  0  0  0  0  0  0  0  0  0  0  0
   12.6445  -20.6917   27.0004 O   0  0  0  0  0  0  0  0  0  0  0  0
   12.0984  -19.3575   28.7228 O   0  0  0  0  0  0  0  0  0  0  0  0
  2  3  2  0
  2  1  1  0
  4  3  1  0
  5  4  2  0
  6  5  1  0
  7  6  1  0
  7  8  1  1
  9  7  1  0
  9 10  2  0
 11  5  1  0
 11 12  2  0
 12  2  1  0
 13  9  1  0
 14 13  1  0
 14 15  1  1
 16 15  1  0
 16 17  2  0
 18 14  1  0
 19 18  2  0
 20 16  1  0
 22 21  1  0
 23 22  1  6
 23 24  1  0
 24 18  1  0
 25 23  1  0
 26 25  1  0
 27 25  2  0
M  END
$$$$
