YDS.pdb
     RDKit          3D

 27 27  0  0  1  0  0  0  0  0999 V2000
    7.5854  -12.1701   27.8739 O   0  0  0  0  0  0  0  0  0  0  0  0
    7.2846  -12.9525   26.7589 C   0  0  0  0  0  0  0  0  0  0  0  0
    6.9269  -12.3711   25.5603 C   0  0  0  0  0  0  0  0  0  0  0  0
    6.6252  -13.1263   24.4451 C   0  0  0  0  0  0  0  0  0  0  0  0
    6.6681  -14.5084   24.4796 C   0  0  0  0  0  0  0  0  0  0  0  0
    6.3372  -15.2884   23.2621 C   0  0  0  0  0  0  0  0  0  0  0  0
    6.4699  -16.7986   23.5326 C   0  0  2  0  0  0  0  0  0  0  0  0
    6.4178  -17.0022   24.9820 N   0  0  0  0  0  0  0  0  0  0  0  0
    7.8332  -17.1556   23.0563 C   0  0  0  0  0  0  0  0  0  0  0  0
    8.5172  -17.9421   23.7526 O   0  0  0  0  0  0  0  0  0  0  0  0
    7.0255  -15.0878   25.6776 C   0  0  0  0  0  0  0  0  0  0  0  0
    7.3292  -14.3321   26.7994 C   0  0  0  0  0  0  0  0  0  0  0  0
    8.2984  -16.6035   21.8530 N   0  0  0  0  0  0  0  0  0  0  0  0
    9.5754  -17.0728   21.3018 C   0  0  1  0  0  0  0  0  0  0  0  0
    9.6855  -16.6339   19.8655 C   0  0  0  0  0  0  0  0  0  0  0  0
    8.8080  -17.3879   18.9651 C   0  0  0  0  0  0  0  0  0  0  0  0
    8.6025  -18.6374   19.1540 O   0  0  0  0  0  0  0  0  0  0  0  0
   10.6291  -16.5455   22.1891 C   0  0  0  0  0  0  0  0  0  0  0  0
   10.5430  -15.3314   22.6139 O   0  0  0  0  0  0  0  0  0  0  0  0
    8.1800  -16.7831   17.8975 O   0  0  0  0  0  0  0  0  0  0  0  0
   11.5100  -17.7232   25.2470 O   0  0  0  0  0  0  0  0  0  0  0  0
   12.0076  -16.4839   24.8093 C   0  0  0  0  0  0  0  0  0  0  0  0
   12.7234  -16.7428   23.4989 C   0  0  2  0  0  0  0  0  0  0  0  0
   11.7338  -17.3375   22.5901 N   0  0  0  0  0  0  0  0  0  0  0  0
   13.8515  -17.6485   23.7869 C   0  0  0  0  0  0  0  0  0  0  0  0
   14.9550  -17.2329   24.4977 O   0  0  0  0  0  0  0  0  0  0  0  0
   13.8422  -18.8390   23.3900 O   0  0  0  0  0  0  0  0  0  0  0  0
  2  3  2  0
  2  1  1  0
  4  3  1  0
  5  4  2  0
  6  5  1  0
  7  6  1  0
  7  8  1  1
  9  7  1  0
  9 10  2  0
 11  5  1  0
 11 12  2  0
 12  2  1  0
 13  9  1  0
 14 13  1  0
 14 15  1  6
 16 15  1  0
 16 17  2  0
 18 14  1  0
 19 18  2  0
 20 16  1  0
 22 21  1  0
 23 22  1  1
 23 24  1  0
 24 18  1  0
 25 23  1  0
 26 25  1  0
 27 25  2  0
M  END
$$$$
