PPY.pdb
     RDKit          3D

 27 29  0  0  1  0  0  0  0  0999 V2000
    6.7682  -18.6517   19.9366 N   0  0  0  0  0  0  0  0  0  0  0  0
    5.4470  -19.3295   20.0422 C   0  0  0  0  0  0  0  0  0  0  0  0
    5.0732  -18.9559   21.4676 C   0  0  0  0  0  0  0  0  0  0  0  0
    5.5149  -17.5224   21.5805 C   0  0  0  0  0  0  0  0  0  0  0  0
    6.4617  -17.3275   20.4491 C   0  0  1  0  0  0  0  0  0  0  0  0
    7.6528  -16.5639   20.8439 C   0  0  0  0  0  0  0  0  0  0  0  0
    8.6497  -17.2430   21.3281 O   0  0  0  0  0  0  0  0  0  0  0  0
    7.8512  -15.1674   20.7648 N   0  0  0  0  0  0  0  0  0  0  0  0
    6.9975  -14.2039   20.1332 C   0  0  0  0  0  0  0  0  0  0  0  0
    7.4432  -12.8509   20.7163 C   0  0  0  0  0  0  0  0  0  0  0  0
    8.9459  -13.0701   20.8356 C   0  0  0  0  0  0  0  0  0  0  0  0
    8.9801  -14.4846   21.3453 C   0  0  1  0  0  0  0  0  0  0  0  0
    8.8138  -14.3689   22.8420 C   0  0  0  0  0  0  0  0  0  0  0  0
    8.4349  -13.2819   23.3542 O   0  0  0  0  0  0  0  0  0  0  0  0
    4.7189  -13.0720   26.6505 O   0  0  0  0  0  0  0  0  0  0  0  0
    6.0723  -13.3397   26.4008 C   0  0  0  0  0  0  0  0  0  0  0  0
    6.3825  -14.5716   25.8831 C   0  0  0  0  0  0  0  0  0  0  0  0
    7.7048  -14.8654   25.6271 C   0  0  0  0  0  0  0  0  0  0  0  0
    8.7109  -13.9663   25.8738 C   0  0  0  0  0  0  0  0  0  0  0  0
   10.1332  -14.2779   25.5987 C   0  0  0  0  0  0  0  0  0  0  0  0
   10.1839  -15.4622   24.6520 C   0  0  2  0  0  0  0  0  0  0  0  0
    9.0680  -15.4463   23.7262 N   0  0  0  0  0  0  0  0  0  0  0  0
   10.1520  -16.7547   25.3715 C   0  0  0  0  0  0  0  0  0  0  0  0
    9.1655  -17.7223   25.1364 O   0  0  0  0  0  0  0  0  0  0  0  0
    8.3626  -12.7269   26.3986 C   0  0  0  0  0  0  0  0  0  0  0  0
    7.0583  -12.4258   26.6556 C   0  0  0  0  0  0  0  0  0  0  0  0
   11.0139  -17.0527   26.2370 O   0  0  0  0  0  0  0  0  0  0  0  0
  1  2  1  0
  2  3  1  0
  4  3  1  0
  5  4  1  0
  5  1  1  0
  6  7  2  0
  5  6  1  1
  8  6  1  0
  9  8  1  0
 10  9  1  0
 11 10  1  0
 11 12  1  0
 12  8  1  0
 12 13  1  1
 14 13  2  0
 16 15  1  0
 17 16  2  0
 18 17  1  0
 19 25  1  0
 19 18  2  0
 20 19  1  0
 21 20  1  1
 21 22  1  0
 22 13  1  0
 23 21  1  0
 24 23  1  0
 25 26  2  0
 26 16  1  0
 27 23  2  0
M  END
$$$$
