PPY.pdb
     RDKit          3D

 27 29  0  0  1  0  0  0  0  0999 V2000
    7.3762  -14.8015   18.6562 N   0  0  0  0  0  0  0  0  0  0  0  0
    7.7009  -13.7008   17.7079 C   0  0  0  0  0  0  0  0  0  0  0  0
    8.0261  -12.5911   18.6948 C   0  0  0  0  0  0  0  0  0  0  0  0
    8.8060  -13.2970   19.7700 C   0  0  0  0  0  0  0  0  0  0  0  0
    8.5001  -14.7402   19.5745 C   0  0  1  0  0  0  0  0  0  0  0  0
    8.2547  -15.4352   20.8451 C   0  0  0  0  0  0  0  0  0  0  0  0
    7.5503  -14.7997   21.7336 O   0  0  0  0  0  0  0  0  0  0  0  0
    8.6962  -16.7216   21.2273 N   0  0  0  0  0  0  0  0  0  0  0  0
    9.3844  -17.6805   20.4131 C   0  0  0  0  0  0  0  0  0  0  0  0
    9.9946  -18.6743   21.4178 C   0  0  0  0  0  0  0  0  0  0  0  0
    8.9001  -18.7218   22.4762 C   0  0  0  0  0  0  0  0  0  0  0  0
    8.5223  -17.2680   22.5497 C   0  0  1  0  0  0  0  0  0  0  0  0
    9.5119  -16.6511   23.5095 C   0  0  0  0  0  0  0  0  0  0  0  0
   10.7348  -16.5990   23.2106 O   0  0  0  0  0  0  0  0  0  0  0  0
    4.7897  -12.3103   26.7133 O   0  0  0  0  0  0  0  0  0  0  0  0
    6.1089  -12.7292   26.4894 C   0  0  0  0  0  0  0  0  0  0  0  0
    6.3844  -13.3124   25.2786 C   0  0  0  0  0  0  0  0  0  0  0  0
    7.6722  -13.7356   25.0284 C   0  0  0  0  0  0  0  0  0  0  0  0
    8.6779  -13.5904   25.9498 C   0  0  0  0  0  0  0  0  0  0  0  0
   10.0636  -14.0428   25.6840 C   0  0  0  0  0  0  0  0  0  0  0  0
   10.0794  -15.5596   25.7084 C   0  0  2  0  0  0  0  0  0  0  0  0
    9.1293  -16.1128   24.7630 N   0  0  0  0  0  0  0  0  0  0  0  0
    9.7492  -16.1005   27.0455 C   0  0  0  0  0  0  0  0  0  0  0  0
   10.5798  -15.9131   28.1589 O   0  0  0  0  0  0  0  0  0  0  0  0
    8.3651  -12.9955   27.1669 C   0  0  0  0  0  0  0  0  0  0  0  0
    7.0951  -12.5734   27.4250 C   0  0  0  0  0  0  0  0  0  0  0  0
    8.6996  -16.7610   27.2522 O   0  0  0  0  0  0  0  0  0  0  0  0
  1  2  1  0
  2  3  1  0
  4  3  1  0
  5  4  1  0
  5  1  1  0
  6  7  2  0
  5  6  1  1
  8  6  1  0
  9  8  1  0
 10  9  1  0
 11 10  1  0
 11 12  1  0
 12  8  1  0
 12 13  1  1
 14 13  2  0
 16 15  1  0
 17 16  2  0
 18 17  1  0
 19 25  1  0
 19 18  2  0
 20 19  1  0
 21 20  1  1
 21 22  1  0
 22 13  1  0
 23 21  1  0
 24 23  1  0
 25 26  2  0
 26 16  1  0
 27 23  2  0
M  END
$$$$
