PPY.pdb
     RDKit          3D

 27 29  0  0  1  0  0  0  0  0999 V2000
   10.3219  -17.2929   17.5758 N   0  0  0  0  0  0  0  0  0  0  0  0
   11.0581  -18.4069   16.9177 C   0  0  0  0  0  0  0  0  0  0  0  0
   11.6466  -19.0916   18.1408 C   0  0  0  0  0  0  0  0  0  0  0  0
   10.5267  -19.0389   19.1436 C   0  0  0  0  0  0  0  0  0  0  0  0
    9.6023  -17.9946   18.6247 C   0  0  1  0  0  0  0  0  0  0  0  0
    9.1086  -17.1089   19.6874 C   0  0  0  0  0  0  0  0  0  0  0  0
    9.8239  -16.0563   19.9517 O   0  0  0  0  0  0  0  0  0  0  0  0
    7.9416  -17.2615   20.4689 N   0  0  0  0  0  0  0  0  0  0  0  0
    6.9680  -18.3102   20.3791 C   0  0  0  0  0  0  0  0  0  0  0  0
    6.1900  -18.2306   21.7049 C   0  0  0  0  0  0  0  0  0  0  0  0
    6.1587  -16.7243   21.9299 C   0  0  0  0  0  0  0  0  0  0  0  0
    7.5575  -16.3537   21.5206 C   0  0  1  0  0  0  0  0  0  0  0  0
    8.4028  -16.5840   22.7508 C   0  0  0  0  0  0  0  0  0  0  0  0
    8.9650  -17.6969   22.9329 O   0  0  0  0  0  0  0  0  0  0  0  0
    5.2317  -11.4372   26.3948 O   0  0  0  0  0  0  0  0  0  0  0  0
    6.4028  -12.1575   26.1200 C   0  0  0  0  0  0  0  0  0  0  0  0
    6.8535  -13.0154   27.0911 C   0  0  0  0  0  0  0  0  0  0  0  0
    8.0029  -13.7376   26.8511 C   0  0  0  0  0  0  0  0  0  0  0  0
    8.7027  -13.6228   25.6770 C   0  0  0  0  0  0  0  0  0  0  0  0
    9.9378  -14.3983   25.4150 C   0  0  0  0  0  0  0  0  0  0  0  0
    9.5389  -15.7428   24.8366 C   0  0  2  0  0  0  0  0  0  0  0  0
    8.6036  -15.5891   23.7392 N   0  0  0  0  0  0  0  0  0  0  0  0
    8.9063  -16.6201   25.8462 C   0  0  0  0  0  0  0  0  0  0  0  0
    7.5633  -17.0132   25.7655 O   0  0  0  0  0  0  0  0  0  0  0  0
    8.2190  -12.7446   24.7138 C   0  0  0  0  0  0  0  0  0  0  0  0
    7.0836  -12.0254   24.9405 C   0  0  0  0  0  0  0  0  0  0  0  0
    9.5456  -17.0602   26.8353 O   0  0  0  0  0  0  0  0  0  0  0  0
  1  2  1  0
  2  3  1  0
  4  3  1  0
  5  4  1  0
  5  1  1  0
  6  7  2  0
  5  6  1  1
  8  6  1  0
  9  8  1  0
 10  9  1  0
 11 10  1  0
 11 12  1  0
 12  8  1  0
 12 13  1  1
 14 13  2  0
 16 15  1  0
 17 16  2  0
 18 17  1  0
 19 25  1  0
 19 18  2  0
 20 19  1  0
 21 20  1  1
 21 22  1  0
 22 13  1  0
 23 21  1  0
 24 23  1  0
 25 26  2  0
 26 16  1  0
 27 23  2  0
M  END
$$$$
