PPY.pdb
     RDKit          3D

 27 29  0  0  1  0  0  0  0  0999 V2000
    6.5462  -19.4702   21.4360 N   0  0  0  0  0  0  0  0  0  0  0  0
    5.3886  -20.1654   22.0628 C   0  0  0  0  0  0  0  0  0  0  0  0
    5.5663  -19.7225   23.5061 C   0  0  0  0  0  0  0  0  0  0  0  0
    5.9642  -18.2772   23.3818 C   0  0  0  0  0  0  0  0  0  0  0  0
    6.4064  -18.1262   21.9690 C   0  0  1  0  0  0  0  0  0  0  0  0
    7.6291  -17.3207   21.8504 C   0  0  0  0  0  0  0  0  0  0  0  0
    8.7506  -17.9701   21.7504 O   0  0  0  0  0  0  0  0  0  0  0  0
    7.7397  -15.9124   21.8340 N   0  0  0  0  0  0  0  0  0  0  0  0
    6.6876  -14.9570   22.0241 C   0  0  0  0  0  0  0  0  0  0  0  0
    7.4151  -13.6387   22.3437 C   0  0  0  0  0  0  0  0  0  0  0  0
    8.6358  -13.7575   21.4402 C   0  0  0  0  0  0  0  0  0  0  0  0
    8.9810  -15.2088   21.6301 C   0  0  1  0  0  0  0  0  0  0  0  0
    9.8243  -15.2533   22.8823 C   0  0  0  0  0  0  0  0  0  0  0  0
   11.0464  -14.9508   22.8329 O   0  0  0  0  0  0  0  0  0  0  0  0
    4.9148  -12.4248   26.1953 O   0  0  0  0  0  0  0  0  0  0  0  0
    6.2214  -12.9334   26.1922 C   0  0  0  0  0  0  0  0  0  0  0  0
    6.3728  -14.2739   26.4414 C   0  0  0  0  0  0  0  0  0  0  0  0
    7.6452  -14.8042   26.4459 C   0  0  0  0  0  0  0  0  0  0  0  0
    8.7554  -14.0340   26.2096 C   0  0  0  0  0  0  0  0  0  0  0  0
   10.1245  -14.6006   26.2123 C   0  0  0  0  0  0  0  0  0  0  0  0
   10.1319  -15.8251   25.3168 C   0  0  2  0  0  0  0  0  0  0  0  0
    9.3014  -15.6273   24.1448 N   0  0  0  0  0  0  0  0  0  0  0  0
    9.6404  -17.0325   26.0169 C   0  0  0  0  0  0  0  0  0  0  0  0
    8.4967  -17.7289   25.6027 O   0  0  0  0  0  0  0  0  0  0  0  0
    8.5671  -12.6792   25.9605 C   0  0  0  0  0  0  0  0  0  0  0  0
    7.3135  -12.1443   25.9538 C   0  0  0  0  0  0  0  0  0  0  0  0
   10.2275  -17.4980   27.0265 O   0  0  0  0  0  0  0  0  0  0  0  0
  1  2  1  0
  2  3  1  0
  4  3  1  0
  5  4  1  0
  5  1  1  0
  6  7  2  0
  5  6  1  1
  8  6  1  0
  9  8  1  0
 10  9  1  0
 11 10  1  0
 11 12  1  0
 12  8  1  0
 12 13  1  1
 14 13  2  0
 16 15  1  0
 17 16  2  0
 18 17  1  0
 19 25  1  0
 19 18  2  0
 20 19  1  0
 21 20  1  1
 21 22  1  0
 22 13  1  0
 23 21  1  0
 24 23  1  0
 25 26  2  0
 26 16  1  0
 27 23  2  0
M  END
$$$$
