ETG.pdb
     RDKit          3D

 21 20  0  0  1  0  0  0  0  0999 V2000
    6.9224  -20.7477   23.2113 N   0  0  0  0  0  0  0  0  0  0  0  0
    6.4373  -19.7628   24.1436 C   0  0  1  0  0  0  0  0  0  0  0  0
    6.4885  -20.2376   25.5683 C   0  0  0  0  0  0  0  0  0  0  0  0
    6.7721  -21.6924   25.7371 C   0  0  0  0  0  0  0  0  0  0  0  0
    6.8712  -22.1588   27.1196 C   0  0  0  0  0  0  0  0  0  0  0  0
    7.9836  -22.4040   27.6200 O   0  0  0  0  0  0  0  0  0  0  0  0
    7.4004  -18.6028   24.0694 C   0  0  0  0  0  0  0  0  0  0  0  0
    8.6242  -18.8338   23.9125 O   0  0  0  0  0  0  0  0  0  0  0  0
    5.7134  -22.3203   27.8527 O   0  0  0  0  0  0  0  0  0  0  0  0
    6.4323  -14.5328   23.3509 C   0  0  0  0  0  0  0  0  0  0  0  0
    7.6687  -15.3091   22.9894 C   0  0  1  0  0  0  0  0  0  0  0  0
    8.7430  -14.3754   22.9460 O   0  0  0  0  0  0  0  0  0  0  0  0
    8.0199  -16.2129   24.1701 C   0  0  2  0  0  0  0  0  0  0  0  0
    6.9799  -17.2607   24.1698 N   0  0  0  0  0  0  0  0  0  0  0  0
    8.0593  -15.5280   25.4627 C   0  0  0  0  0  0  0  0  0  0  0  0
    6.9318  -15.2804   26.0303 O   0  0  0  0  0  0  0  0  0  0  0  0
    9.1772  -15.0980   26.1823 N   0  0  0  0  0  0  0  0  0  0  0  0
    9.0634  -14.4468   27.4777 C   0  0  0  0  0  0  0  0  0  0  0  0
   10.4273  -14.0779   27.9590 C   0  0  0  0  0  0  0  0  0  0  0  0
   11.4686  -14.2886   27.2983 O   0  0  0  0  0  0  0  0  0  0  0  0
   10.5475  -13.4757   29.1909 O   0  0  0  0  0  0  0  0  0  0  0  0
  2  1  1  6
  3  2  1  0
  4  3  1  0
  5  6  2  0
  5  4  1  0
  7  8  2  0
  7  2  1  0
  9  5  1  0
 11 10  1  1
 11 13  1  0
 12 11  1  0
 13 14  1  1
 13 15  1  0
 14  7  1  0
 15 17  1  0
 16 15  2  0
 17 18  1  0
 19 21  1  0
 19 18  1  0
 20 19  2  0
M  END
$$$$
