ETG.pdb
     RDKit          3D

 21 20  0  0  1  0  0  0  0  0999 V2000
    5.7091  -19.0008   19.4666 N   0  0  0  0  0  0  0  0  0  0  0  0
    5.8664  -18.4836   20.8017 C   0  0  1  0  0  0  0  0  0  0  0  0
    6.2333  -19.5481   21.7968 C   0  0  0  0  0  0  0  0  0  0  0  0
    5.1528  -20.5335   22.0915 C   0  0  0  0  0  0  0  0  0  0  0  0
    5.5149  -21.6084   23.0146 C   0  0  0  0  0  0  0  0  0  0  0  0
    5.3021  -21.4851   24.2342 O   0  0  0  0  0  0  0  0  0  0  0  0
    7.0510  -17.5493   20.7542 C   0  0  0  0  0  0  0  0  0  0  0  0
    8.0496  -17.8635   20.0616 O   0  0  0  0  0  0  0  0  0  0  0  0
    6.0934  -22.7543   22.5085 O   0  0  0  0  0  0  0  0  0  0  0  0
    7.0562  -14.0885   19.8843 C   0  0  0  0  0  0  0  0  0  0  0  0
    7.8657  -14.1003   21.1519 C   0  0  1  0  0  0  0  0  0  0  0  0
    6.9607  -13.8424   22.2207 O   0  0  0  0  0  0  0  0  0  0  0  0
    8.3264  -15.5350   21.4038 C   0  0  2  0  0  0  0  0  0  0  0  0
    7.0832  -16.3293   21.4605 N   0  0  0  0  0  0  0  0  0  0  0  0
    9.1055  -15.7116   22.6298 C   0  0  0  0  0  0  0  0  0  0  0  0
    8.4645  -15.6673   23.7442 O   0  0  0  0  0  0  0  0  0  0  0  0
   10.4798  -15.9281   22.7599 N   0  0  0  0  0  0  0  0  0  0  0  0
   11.1274  -16.0494   24.0565 C   0  0  0  0  0  0  0  0  0  0  0  0
   12.5818  -16.3158   23.8516 C   0  0  0  0  0  0  0  0  0  0  0  0
   13.4004  -16.4154   24.7925 O   0  0  0  0  0  0  0  0  0  0  0  0
   13.0474  -16.4593   22.5644 O   0  0  0  0  0  0  0  0  0  0  0  0
  2  1  1  6
  3  2  1  0
  4  3  1  0
  5  6  2  0
  5  4  1  0
  7  8  2  0
  7  2  1  0
  9  5  1  0
 11 10  1  6
 11 13  1  0
 12 11  1  0
 13 14  1  1
 13 15  1  0
 14  7  1  0
 15 17  1  0
 16 15  2  0
 17 18  1  0
 19 21  1  0
 19 18  1  0
 20 19  2  0
M  END
$$$$
