ETG.pdb
     RDKit          3D

 21 20  0  0  1  0  0  0  0  0999 V2000
    9.4271  -17.5165   17.2494 N   0  0  0  0  0  0  0  0  0  0  0  0
   10.3488  -16.4560   16.9329 C   0  0  1  0  0  0  0  0  0  0  0  0
    9.9980  -15.7437   15.6572 C   0  0  0  0  0  0  0  0  0  0  0  0
    9.9786  -16.6056   14.4399 C   0  0  0  0  0  0  0  0  0  0  0  0
    9.5805  -15.9378   13.2012 C   0  0  0  0  0  0  0  0  0  0  0  0
    9.2628  -14.7349   13.2121 O   0  0  0  0  0  0  0  0  0  0  0  0
   10.1966  -15.4260   18.0259 C   0  0  0  0  0  0  0  0  0  0  0  0
   10.9336  -14.4100   18.0148 O   0  0  0  0  0  0  0  0  0  0  0  0
    9.5646  -16.6643   12.0283 O   0  0  0  0  0  0  0  0  0  0  0  0
    7.4326  -13.4169   19.1141 C   0  0  0  0  0  0  0  0  0  0  0  0
    7.8679  -14.1235   20.3684 C   0  0  1  0  0  0  0  0  0  0  0  0
    7.1306  -15.3401   20.4326 O   0  0  0  0  0  0  0  0  0  0  0  0
    9.3118  -14.5834   20.1736 C   0  0  2  0  0  0  0  0  0  0  0  0
    9.2544  -15.5583   19.0664 N   0  0  0  0  0  0  0  0  0  0  0  0
    9.9171  -15.1884   21.3605 C   0  0  0  0  0  0  0  0  0  0  0  0
   10.3048  -16.4111   21.2633 O   0  0  0  0  0  0  0  0  0  0  0  0
   10.1388  -14.6079   22.6121 N   0  0  0  0  0  0  0  0  0  0  0  0
   10.8293  -15.3101   23.6823 C   0  0  0  0  0  0  0  0  0  0  0  0
    9.8210  -15.9830   24.5534 C   0  0  0  0  0  0  0  0  0  0  0  0
    8.5980  -16.0120   24.2914 O   0  0  0  0  0  0  0  0  0  0  0  0
   10.2565  -16.6029   25.7024 O   0  0  0  0  0  0  0  0  0  0  0  0
  2  1  1  1
  3  2  1  0
  4  3  1  0
  5  6  2  0
  5  4  1  0
  7  8  2  0
  7  2  1  0
  9  5  1  0
 11 10  1  6
 11 13  1  0
 12 11  1  0
 13 14  1  6
 13 15  1  0
 14  7  1  0
 15 17  1  0
 16 15  2  0
 17 18  1  0
 19 21  1  0
 19 18  1  0
 20 19  2  0
M  END
$$$$
