ETG.pdb
     RDKit          3D

 21 20  0  0  1  0  0  0  0  0999 V2000
    9.7979  -15.2994   14.8834 N   0  0  0  0  0  0  0  0  0  0  0  0
    9.0241  -15.9155   15.9303 C   0  0  1  0  0  0  0  0  0  0  0  0
    9.2051  -17.4062   15.9850 C   0  0  0  0  0  0  0  0  0  0  0  0
   10.6215  -17.8708   15.9276 C   0  0  0  0  0  0  0  0  0  0  0  0
   10.8091  -19.3211   15.9196 C   0  0  0  0  0  0  0  0  0  0  0  0
    9.8234  -20.0804   15.9144 O   0  0  0  0  0  0  0  0  0  0  0  0
    9.5838  -15.3925   17.2309 C   0  0  0  0  0  0  0  0  0  0  0  0
   10.8066  -15.1184   17.3035 O   0  0  0  0  0  0  0  0  0  0  0  0
   12.0929  -19.8267   15.9178 O   0  0  0  0  0  0  0  0  0  0  0  0
    7.7899  -12.7418   18.9479 C   0  0  0  0  0  0  0  0  0  0  0  0
    8.2869  -13.6038   20.0758 C   0  0  1  0  0  0  0  0  0  0  0  0
    7.2370  -14.5121   20.3932 O   0  0  0  0  0  0  0  0  0  0  0  0
    9.3934  -14.5041   19.5288 C   0  0  2  0  0  0  0  0  0  0  0  0
    8.7848  -15.1975   18.3762 N   0  0  0  0  0  0  0  0  0  0  0  0
    9.9154  -15.4721   20.4941 C   0  0  0  0  0  0  0  0  0  0  0  0
    9.2899  -16.5912   20.5999 O   0  0  0  0  0  0  0  0  0  0  0  0
   11.0251  -15.3468   21.3339 N   0  0  0  0  0  0  0  0  0  0  0  0
   11.3588  -16.3484   22.3342 C   0  0  0  0  0  0  0  0  0  0  0  0
   12.5893  -15.9190   23.0619 C   0  0  0  0  0  0  0  0  0  0  0  0
   13.2340  -14.8871   22.7708 O   0  0  0  0  0  0  0  0  0  0  0  0
   13.0387  -16.6956   24.1056 O   0  0  0  0  0  0  0  0  0  0  0  0
  2  1  1  6
  3  2  1  0
  4  3  1  0
  5  6  2  0
  5  4  1  0
  7  8  2  0
  7  2  1  0
  9  5  1  0
 11 10  1  6
 11 13  1  0
 12 11  1  0
 13 14  1  6
 13 15  1  0
 14  7  1  0
 15 17  1  0
 16 15  2  0
 17 18  1  0
 19 21  1  0
 19 18  1  0
 20 19  2  0
M  END
$$$$
