ETG.pdb
     RDKit          3D

 21 20  0  0  1  0  0  0  0  0999 V2000
    6.6230  -18.9050   20.4183 N   0  0  0  0  0  0  0  0  0  0  0  0
    6.0167  -18.2196   21.5307 C   0  0  1  0  0  0  0  0  0  0  0  0
    5.3191  -19.1545   22.4779 C   0  0  0  0  0  0  0  0  0  0  0  0
    6.0884  -20.3831   22.8303 C   0  0  0  0  0  0  0  0  0  0  0  0
    5.3819  -21.3497   23.6700 C   0  0  0  0  0  0  0  0  0  0  0  0
    4.1875  -21.1668   23.9669 O   0  0  0  0  0  0  0  0  0  0  0  0
    7.1514  -17.6153   22.3217 C   0  0  0  0  0  0  0  0  0  0  0  0
    8.3058  -18.0918   22.1957 O   0  0  0  0  0  0  0  0  0  0  0  0
    6.0624  -22.4612   24.1232 O   0  0  0  0  0  0  0  0  0  0  0  0
    7.7817  -14.0771   22.3989 C   0  0  0  0  0  0  0  0  0  0  0  0
    7.9896  -14.4726   23.8350 C   0  0  1  0  0  0  0  0  0  0  0  0
    6.7545  -14.2474   24.5070 O   0  0  0  0  0  0  0  0  0  0  0  0
    8.1599  -15.9900   23.8861 C   0  0  2  0  0  0  0  0  0  0  0  0
    6.9677  -16.5299   23.2027 N   0  0  0  0  0  0  0  0  0  0  0  0
    8.2701  -16.5391   25.2381 C   0  0  0  0  0  0  0  0  0  0  0  0
    7.1792  -16.6810   25.9048 O   0  0  0  0  0  0  0  0  0  0  0  0
    9.4221  -16.9411   25.9192 N   0  0  0  0  0  0  0  0  0  0  0  0
    9.3805  -17.4548   27.2791 C   0  0  0  0  0  0  0  0  0  0  0  0
   10.7764  -17.6805   27.7575 C   0  0  0  0  0  0  0  0  0  0  0  0
   11.7877  -17.4428   27.0604 O   0  0  0  0  0  0  0  0  0  0  0  0
   10.9622  -18.1748   29.0286 O   0  0  0  0  0  0  0  0  0  0  0  0
  2  1  1  6
  3  2  1  0
  4  3  1  0
  5  6  2  0
  5  4  1  0
  7  8  2  0
  7  2  1  0
  9  5  1  0
 11 10  1  6
 11 13  1  0
 12 11  1  0
 13 14  1  1
 13 15  1  0
 14  7  1  0
 15 17  1  0
 16 15  2  0
 17 18  1  0
 19 21  1  0
 19 18  1  0
 20 19  2  0
M  END
$$$$
