ETG.pdb
     RDKit          3D

 21 20  0  0  1  0  0  0  0  0999 V2000
    8.0507  -18.2336   22.5480 N   0  0  0  0  0  0  0  0  0  0  0  0
    8.7239  -16.9811   22.7774 C   0  0  1  0  0  0  0  0  0  0  0  0
    9.9975  -17.1414   23.5584 C   0  0  0  0  0  0  0  0  0  0  0  0
    9.8137  -17.4754   25.0007 C   0  0  0  0  0  0  0  0  0  0  0  0
   11.0437  -17.5832   25.7843 C   0  0  0  0  0  0  0  0  0  0  0  0
   12.1459  -17.3521   25.2553 O   0  0  0  0  0  0  0  0  0  0  0  0
    9.1439  -16.4742   21.4191 C   0  0  0  0  0  0  0  0  0  0  0  0
    9.5483  -17.2942   20.5590 O   0  0  0  0  0  0  0  0  0  0  0  0
   10.9573  -17.9441   27.1132 O   0  0  0  0  0  0  0  0  0  0  0  0
    7.2697  -13.8422   19.9195 C   0  0  0  0  0  0  0  0  0  0  0  0
    8.6176  -13.5896   19.3018 C   0  0  1  0  0  0  0  0  0  0  0  0
    9.1632  -12.4488   19.9567 O   0  0  0  0  0  0  0  0  0  0  0  0
    9.5479  -14.7276   19.7184 C   0  0  2  0  0  0  0  0  0  0  0  0
    9.1007  -15.1079   21.0731 N   0  0  0  0  0  0  0  0  0  0  0  0
   10.9677  -14.3734   19.7263 C   0  0  0  0  0  0  0  0  0  0  0  0
   11.4131  -13.7567   20.7636 O   0  0  0  0  0  0  0  0  0  0  0  0
   11.9281  -14.6196   18.7416 N   0  0  0  0  0  0  0  0  0  0  0  0
   13.2934  -14.1304   18.8491 C   0  0  0  0  0  0  0  0  0  0  0  0
   14.0502  -14.5249   17.6245 C   0  0  0  0  0  0  0  0  0  0  0  0
   13.5620  -15.2297   16.7133 O   0  0  0  0  0  0  0  0  0  0  0  0
   15.3500  -14.0929   17.4890 O   0  0  0  0  0  0  0  0  0  0  0  0
  2  1  1  6
  3  2  1  0
  4  3  1  0
  5  6  2  0
  5  4  1  0
  7  8  2  0
  7  2  1  0
  9  5  1  0
 11 10  1  1
 11 13  1  0
 12 11  1  0
 13 14  1  1
 13 15  1  0
 14  7  1  0
 15 17  1  0
 16 15  2  0
 17 18  1  0
 19 21  1  0
 19 18  1  0
 20 19  2  0
M  END
$$$$
