ETG.pdb
     RDKit          3D

 21 20  0  0  1  0  0  0  0  0999 V2000
    9.7141  -14.9640   15.4996 N   0  0  0  0  0  0  0  0  0  0  0  0
    9.9858  -15.9523   16.5114 C   0  0  1  0  0  0  0  0  0  0  0  0
   11.3192  -16.6201   16.3270 C   0  0  0  0  0  0  0  0  0  0  0  0
   11.5300  -17.2464   14.9896 C   0  0  0  0  0  0  0  0  0  0  0  0
   12.8490  -17.8392   14.7723 C   0  0  0  0  0  0  0  0  0  0  0  0
   13.7885  -17.1403   14.3515 O   0  0  0  0  0  0  0  0  0  0  0  0
   10.0869  -15.2014   17.8169 C   0  0  0  0  0  0  0  0  0  0  0  0
   10.9503  -14.2982   17.9369 O   0  0  0  0  0  0  0  0  0  0  0  0
   13.0291  -19.1805   15.0416 O   0  0  0  0  0  0  0  0  0  0  0  0
    7.8775  -13.0509   19.0777 C   0  0  0  0  0  0  0  0  0  0  0  0
    8.0815  -13.9159   20.2911 C   0  0  1  0  0  0  0  0  0  0  0  0
    7.1107  -14.9555   20.2235 O   0  0  0  0  0  0  0  0  0  0  0  0
    9.4118  -14.6495   20.1289 C   0  0  2  0  0  0  0  0  0  0  0  0
    9.2460  -15.4739   18.9154 N   0  0  0  0  0  0  0  0  0  0  0  0
    9.7826  -15.4852   21.2715 C   0  0  0  0  0  0  0  0  0  0  0  0
    8.9730  -16.4313   21.5940 O   0  0  0  0  0  0  0  0  0  0  0  0
   10.9208  -15.3965   22.0772 N   0  0  0  0  0  0  0  0  0  0  0  0
   11.1299  -16.2660   23.2240 C   0  0  0  0  0  0  0  0  0  0  0  0
   12.3897  -15.8644   23.9167 C   0  0  0  0  0  0  0  0  0  0  0  0
   13.1582  -14.9772   23.4836 O   0  0  0  0  0  0  0  0  0  0  0  0
   12.7242  -16.5005   25.0905 O   0  0  0  0  0  0  0  0  0  0  0  0
  2  1  1  6
  3  2  1  0
  4  3  1  0
  5  6  2  0
  5  4  1  0
  7  8  2  0
  7  2  1  0
  9  5  1  0
 11 10  1  6
 11 13  1  0
 12 11  1  0
 13 14  1  6
 13 15  1  0
 14  7  1  0
 15 17  1  0
 16 15  2  0
 17 18  1  0
 19 21  1  0
 19 18  1  0
 20 19  2  0
M  END
$$$$
