ETG.pdb
     RDKit          3D

 21 20  0  0  1  0  0  0  0  0999 V2000
    7.7151  -13.2105   15.4075 N   0  0  0  0  0  0  0  0  0  0  0  0
    7.6342  -14.4276   16.1734 C   0  0  1  0  0  0  0  0  0  0  0  0
    8.3453  -15.5759   15.5148 C   0  0  0  0  0  0  0  0  0  0  0  0
    9.4122  -15.1847   14.5484 C   0  0  0  0  0  0  0  0  0  0  0  0
   10.0949  -16.2924   13.8810 C   0  0  0  0  0  0  0  0  0  0  0  0
   10.0468  -17.4389   14.3619 O   0  0  0  0  0  0  0  0  0  0  0  0
    8.3867  -14.1684   17.4560 C   0  0  0  0  0  0  0  0  0  0  0  0
    9.3519  -13.3661   17.4467 O   0  0  0  0  0  0  0  0  0  0  0  0
   10.7888  -16.0416   12.7150 O   0  0  0  0  0  0  0  0  0  0  0  0
    6.7142  -14.9849   21.0810 C   0  0  0  0  0  0  0  0  0  0  0  0
    7.6763  -13.8561   20.8314 C   0  0  1  0  0  0  0  0  0  0  0  0
    8.3666  -13.6253   22.0553 O   0  0  0  0  0  0  0  0  0  0  0  0
    8.7664  -14.3653   19.8897 C   0  0  2  0  0  0  0  0  0  0  0  0
    8.0482  -14.7945   18.6733 N   0  0  0  0  0  0  0  0  0  0  0  0
    9.5646  -15.4660   20.4308 C   0  0  0  0  0  0  0  0  0  0  0  0
    9.0674  -16.6493   20.3446 O   0  0  0  0  0  0  0  0  0  0  0  0
   10.8208  -15.4081   21.0399 N   0  0  0  0  0  0  0  0  0  0  0  0
   11.5529  -16.6043   21.4247 C   0  0  0  0  0  0  0  0  0  0  0  0
   12.9334  -16.2178   21.8409 C   0  0  0  0  0  0  0  0  0  0  0  0
   13.6919  -16.9734   22.4881 O   0  0  0  0  0  0  0  0  0  0  0  0
   13.3967  -14.9684   21.4964 O   0  0  0  0  0  0  0  0  0  0  0  0
  2  1  1  6
  3  2  1  0
  4  3  1  0
  5  6  2  0
  5  4  1  0
  7  8  2  0
  7  2  1  0
  9  5  1  0
 11 10  1  1
 11 13  1  0
 12 11  1  0
 13 14  1  6
 13 15  1  0
 14  7  1  0
 15 17  1  0
 16 15  2  0
 17 18  1  0
 19 21  1  0
 19 18  1  0
 20 19  2  0
M  END
$$$$
