DGG.pdb
     RDKit          3D

 17 16  0  0  1  0  0  0  0  0999 V2000
    8.9631  -16.0376   21.2847 N   0  0  0  0  0  0  0  0  0  0  0  0
    8.7284  -14.7246   21.8272 C   0  0  1  0  0  0  0  0  0  0  0  0
    7.5392  -14.0460   21.1782 C   0  0  0  0  0  0  0  0  0  0  0  0
    6.7328  -14.9808   20.3811 C   0  0  0  0  0  0  0  0  0  0  0  0
    7.0952  -16.1770   20.2927 O   0  0  0  0  0  0  0  0  0  0  0  0
    8.5708  -14.7973   23.3016 C   0  0  0  0  0  0  0  0  0  0  0  0
    9.5530  -14.5161   24.0480 O   0  0  0  0  0  0  0  0  0  0  0  0
    5.5948  -14.5733   19.7334 O   0  0  0  0  0  0  0  0  0  0  0  0
    7.3641  -15.1692   23.9217 N   0  0  0  0  0  0  0  0  0  0  0  0
    7.2080  -15.2854   25.3584 C   0  0  0  0  0  0  0  0  0  0  0  0
    7.1643  -16.7036   25.7843 C   0  0  0  0  0  0  0  0  0  0  0  0
    6.2723  -17.4390   25.3024 O   0  0  0  0  0  0  0  0  0  0  0  0
    8.0956  -17.2305   26.7085 N   0  0  0  0  0  0  0  0  0  0  0  0
    7.9510  -18.6128   27.1237 C   0  0  0  0  0  0  0  0  0  0  0  0
    9.0398  -19.0101   28.0290 C   0  0  0  0  0  0  0  0  0  0  0  0
    9.1091  -20.3105   28.4891 O   0  0  0  0  0  0  0  0  0  0  0  0
    9.9029  -18.1851   28.3867 O   0  0  0  0  0  0  0  0  0  0  0  0
  2  1  1  6
  2  3  1  0
  3  4  1  0
  4  8  1  0
  4  5  2  0
  6  7  2  0
  6  2  1  0
  9  6  1  0
 10 11  1  0
 10  9  1  0
 11 13  1  0
 12 11  2  0
 13 14  1  0
 14 15  1  0
 15 17  2  0
 15 16  1  0
M  END
$$$$
