DGG.pdb
     RDKit          3D

 17 16  0  0  1  0  0  0  0  0999 V2000
    1.2033  -24.4720   22.1258 N   0  0  0  0  0  0  0  0  0  0  0  0
    0.3404  -23.3383   22.3340 C   0  0  1  0  0  0  0  0  0  0  0  0
   -0.2513  -23.3231   23.7289 C   0  0  0  0  0  0  0  0  0  0  0  0
   -1.6101  -23.8816   23.7620 C   0  0  0  0  0  0  0  0  0  0  0  0
   -2.1343  -24.2748   22.6940 O   0  0  0  0  0  0  0  0  0  0  0  0
    1.0674  -22.0773   22.0417 C   0  0  0  0  0  0  0  0  0  0  0  0
    0.5332  -21.2092   21.2923 O   0  0  0  0  0  0  0  0  0  0  0  0
   -2.3155  -23.9815   24.9339 O   0  0  0  0  0  0  0  0  0  0  0  0
    2.3422  -21.7938   22.5648 N   0  0  0  0  0  0  0  0  0  0  0  0
    3.0347  -20.5395   22.3432 C   0  0  0  0  0  0  0  0  0  0  0  0
    4.3436  -20.5149   23.0365 C   0  0  0  0  0  0  0  0  0  0  0  0
    5.0998  -19.5362   22.8386 O   0  0  0  0  0  0  0  0  0  0  0  0
    4.7455  -21.5585   23.9016 N   0  0  0  0  0  0  0  0  0  0  0  0
    6.0884  -21.5242   24.4490 C   0  0  0  0  0  0  0  0  0  0  0  0
    6.9546  -22.5122   23.7884 C   0  0  0  0  0  0  0  0  0  0  0  0
    6.5347  -23.1213   22.6221 O   0  0  0  0  0  0  0  0  0  0  0  0
    8.0658  -22.8072   24.2699 O   0  0  0  0  0  0  0  0  0  0  0  0
  2  1  1  1
  2  3  1  0
  3  4  1  0
  4  8  1  0
  4  5  2  0
  6  7  2  0
  6  2  1  0
  9  6  1  0
 10 11  1  0
 10  9  1  0
 11 13  1  0
 12 11  2  0
 13 14  1  0
 14 15  1  0
 15 17  2  0
 15 16  1  0
M  END
$$$$
