DGG.pdb
     RDKit          3D

 17 16  0  0  1  0  0  0  0  0999 V2000
    7.8903  -15.9533   17.5329 N   0  0  0  0  0  0  0  0  0  0  0  0
    8.6577  -14.7582   17.2966 C   0  0  1  0  0  0  0  0  0  0  0  0
    8.3726  -14.1599   15.9340 C   0  0  0  0  0  0  0  0  0  0  0  0
    9.1011  -14.8502   14.8606 C   0  0  0  0  0  0  0  0  0  0  0  0
    9.9207  -15.7495   15.1601 O   0  0  0  0  0  0  0  0  0  0  0  0
    8.4208  -13.7714   18.3803 C   0  0  0  0  0  0  0  0  0  0  0  0
    9.2120  -12.7936   18.5167 O   0  0  0  0  0  0  0  0  0  0  0  0
    8.9040  -14.5323   13.5412 O   0  0  0  0  0  0  0  0  0  0  0  0
    7.3428  -13.8702   19.2786 N   0  0  0  0  0  0  0  0  0  0  0  0
    7.1478  -12.9644   20.3937 C   0  0  0  0  0  0  0  0  0  0  0  0
    7.8752  -13.4262   21.5987 C   0  0  0  0  0  0  0  0  0  0  0  0
    7.7122  -12.7932   22.6672 O   0  0  0  0  0  0  0  0  0  0  0  0
    8.7343  -14.5485   21.5630 N   0  0  0  0  0  0  0  0  0  0  0  0
    9.3333  -15.0004   22.8045 C   0  0  0  0  0  0  0  0  0  0  0  0
   10.6656  -15.5773   22.5700 C   0  0  0  0  0  0  0  0  0  0  0  0
   11.4888  -15.8604   23.6423 O   0  0  0  0  0  0  0  0  0  0  0  0
   11.0616  -15.8144   21.4121 O   0  0  0  0  0  0  0  0  0  0  0  0
  2  1  1  1
  2  3  1  0
  3  4  1  0
  4  8  1  0
  4  5  2  0
  6  7  2  0
  6  2  1  0
  9  6  1  0
 10 11  1  0
 10  9  1  0
 11 13  1  0
 12 11  2  0
 13 14  1  0
 14 15  1  0
 15 17  2  0
 15 16  1  0
M  END
$$$$
