DGG.pdb
     RDKit          3D

 17 16  0  0  1  0  0  0  0  0999 V2000
    6.4980  -17.2965   19.0329 N   0  0  0  0  0  0  0  0  0  0  0  0
    7.9154  -17.0451   19.0631 C   0  0  1  0  0  0  0  0  0  0  0  0
    8.4653  -16.7260   17.6876 C   0  0  0  0  0  0  0  0  0  0  0  0
    8.4019  -17.8817   16.7822 C   0  0  0  0  0  0  0  0  0  0  0  0
    7.9451  -18.9673   17.2098 O   0  0  0  0  0  0  0  0  0  0  0  0
    8.2262  -15.9650   20.0332 C   0  0  0  0  0  0  0  0  0  0  0  0
    9.4327  -15.7071   20.3132 O   0  0  0  0  0  0  0  0  0  0  0  0
    8.8307  -17.7980   15.4823 O   0  0  0  0  0  0  0  0  0  0  0  0
    7.2301  -15.2007   20.6677 N   0  0  0  0  0  0  0  0  0  0  0  0
    7.5199  -14.1099   21.5776 C   0  0  0  0  0  0  0  0  0  0  0  0
    7.6180  -14.5852   22.9773 C   0  0  0  0  0  0  0  0  0  0  0  0
    6.6454  -15.2099   23.4596 O   0  0  0  0  0  0  0  0  0  0  0  0
    8.7698  -14.3496   23.7626 N   0  0  0  0  0  0  0  0  0  0  0  0
    8.8014  -14.8690   25.1167 C   0  0  0  0  0  0  0  0  0  0  0  0
    9.7013  -16.0278   25.2182 C   0  0  0  0  0  0  0  0  0  0  0  0
   10.4887  -16.1883   26.3414 O   0  0  0  0  0  0  0  0  0  0  0  0
    9.7619  -16.8688   24.3002 O   0  0  0  0  0  0  0  0  0  0  0  0
  2  1  1  6
  2  3  1  0
  3  4  1  0
  4  8  1  0
  4  5  2  0
  6  7  2  0
  6  2  1  0
  9  6  1  0
 10 11  1  0
 10  9  1  0
 11 13  1  0
 12 11  2  0
 13 14  1  0
 14 15  1  0
 15 17  2  0
 15 16  1  0
M  END
$$$$
