LQY.pdb
     RDKit          3D

 30 30  0  0  1  0  0  0  0  0999 V2000
    8.9323  -13.1510   17.9692 C   0  0  0  0  0  0  0  0  0  0  0  0
    7.7138  -13.5761   18.7310 C   0  0  2  0  0  0  0  0  0  0  0  0
    6.7609  -12.4070   18.8787 C   0  0  0  0  0  0  0  0  0  0  0  0
    8.0328  -14.1262   20.0991 C   0  0  0  0  0  0  0  0  0  0  0  0
    9.0118  -15.2660   20.0047 C   0  0  2  0  0  0  0  0  0  0  0  0
    8.4385  -16.3321   19.2130 N   0  0  0  0  0  0  0  0  0  0  0  0
    9.4260  -15.7918   21.2988 C   0  0  0  0  0  0  0  0  0  0  0  0
    9.2686  -15.0753   22.3239 O   0  0  0  0  0  0  0  0  0  0  0  0
   11.0488  -21.6857   23.0452 N   0  0  0  0  0  0  0  0  0  0  0  0
   11.2094  -20.9221   24.2468 C   0  0  0  0  0  0  0  0  0  0  0  0
   11.5404  -21.4853   25.3173 O   0  0  0  0  0  0  0  0  0  0  0  0
   10.9897  -19.4562   24.2542 C   0  0  0  0  0  0  0  0  0  0  0  0
   10.6653  -18.9899   22.8776 C   0  0  0  0  0  0  0  0  0  0  0  0
   10.3811  -17.5002   22.8133 C   0  0  2  0  0  0  0  0  0  0  0  0
   10.0044  -17.0725   21.5023 N   0  0  0  0  0  0  0  0  0  0  0  0
   11.5331  -16.7158   23.3528 C   0  0  0  0  0  0  0  0  0  0  0  0
   12.6057  -16.5627   22.7019 O   0  0  0  0  0  0  0  0  0  0  0  0
    9.8427  -16.9155   30.6357 O   0  0  0  0  0  0  0  0  0  0  0  0
   10.4278  -16.2758   29.5443 C   0  0  0  0  0  0  0  0  0  0  0  0
   11.8064  -16.1967   29.4167 C   0  0  0  0  0  0  0  0  0  0  0  0
   12.3978  -15.5632   28.3359 C   0  0  0  0  0  0  0  0  0  0  0  0
   11.6034  -15.0031   27.3728 C   0  0  0  0  0  0  0  0  0  0  0  0
   12.1293  -14.3120   26.1894 C   0  0  0  0  0  0  0  0  0  0  0  0
   12.5674  -15.2255   25.0751 C   0  0  2  0  0  0  0  0  0  0  0  0
   11.4940  -16.0941   24.6297 N   0  0  0  0  0  0  0  0  0  0  0  0
   13.6679  -16.0927   25.5630 C   0  0  0  0  0  0  0  0  0  0  0  0
   14.9093  -15.6340   25.9405 O   0  0  0  0  0  0  0  0  0  0  0  0
   10.2236  -15.0855   27.5063 C   0  0  0  0  0  0  0  0  0  0  0  0
    9.6296  -15.7138   28.5781 C   0  0  0  0  0  0  0  0  0  0  0  0
   13.4456  -17.3285   25.6344 O   0  0  0  0  0  0  0  0  0  0  0  0
  2  1  1  1
  2  3  1  0
  4  2  1  0
  5  6  1  6
  5  4  1  0
  7  8  2  0
  7  5  1  0
  9 10  1  0
 10 12  1  0
 11 10  2  0
 12 13  1  0
 14 15  1  0
 14 13  1  6
 15  7  1  0
 16 14  1  0
 17 16  2  0
 19 29  2  0
 19 18  1  0
 20 19  1  0
 21 22  1  0
 21 20  2  0
 22 28  2  0
 24 23  1  1
 23 22  1  0
 24 25  1  0
 25 16  1  0
 26 27  1  0
 26 24  1  0
 28 29  1  0
 30 26  2  0
M  END
$$$$
