LQY.pdb
     RDKit          3D

 30 30  0  0  1  0  0  0  0  0999 V2000
    8.6939  -13.0732   17.5687 C   0  0  0  0  0  0  0  0  0  0  0  0
    7.5541  -13.4172   18.4788 C   0  0  2  0  0  0  0  0  0  0  0  0
    7.0084  -12.1591   19.1240 C   0  0  0  0  0  0  0  0  0  0  0  0
    7.9348  -14.3985   19.5596 C   0  0  0  0  0  0  0  0  0  0  0  0
    8.4446  -15.6832   18.9630 C   0  0  2  0  0  0  0  0  0  0  0  0
    7.3765  -16.3393   18.2414 N   0  0  0  0  0  0  0  0  0  0  0  0
    9.0039  -16.6039   19.9441 C   0  0  0  0  0  0  0  0  0  0  0  0
    8.2172  -17.2953   20.6455 O   0  0  0  0  0  0  0  0  0  0  0  0
   14.1923  -19.9502   20.0131 N   0  0  0  0  0  0  0  0  0  0  0  0
   14.2873  -18.5263   19.8849 C   0  0  0  0  0  0  0  0  0  0  0  0
   15.3337  -17.9976   19.4398 O   0  0  0  0  0  0  0  0  0  0  0  0
   13.1578  -17.6484   20.2730 C   0  0  0  0  0  0  0  0  0  0  0  0
   12.0491  -18.4725   20.8292 C   0  0  0  0  0  0  0  0  0  0  0  0
   10.8443  -17.6418   21.2325 C   0  0  2  0  0  0  0  0  0  0  0  0
   10.3921  -16.7886   20.1784 N   0  0  0  0  0  0  0  0  0  0  0  0
   11.1182  -16.8853   22.4919 C   0  0  0  0  0  0  0  0  0  0  0  0
   11.7341  -15.7816   22.4926 O   0  0  0  0  0  0  0  0  0  0  0  0
   10.4981  -14.2658   30.9304 O   0  0  0  0  0  0  0  0  0  0  0  0
   10.2918  -14.7865   29.6541 C   0  0  0  0  0  0  0  0  0  0  0  0
   10.0116  -13.9557   28.5797 C   0  0  0  0  0  0  0  0  0  0  0  0
    9.8049  -14.4632   27.3073 C   0  0  0  0  0  0  0  0  0  0  0  0
    9.8790  -15.8148   27.1066 C   0  0  0  0  0  0  0  0  0  0  0  0
    9.6784  -16.4523   25.7997 C   0  0  0  0  0  0  0  0  0  0  0  0
   10.9269  -16.5776   24.9669 C   0  0  2  0  0  0  0  0  0  0  0  0
   10.7034  -17.3595   23.7653 N   0  0  0  0  0  0  0  0  0  0  0  0
   11.9717  -17.2705   25.7604 C   0  0  0  0  0  0  0  0  0  0  0  0
   12.9818  -16.6307   26.4418 O   0  0  0  0  0  0  0  0  0  0  0  0
   10.1599  -16.6415   28.1865 C   0  0  0  0  0  0  0  0  0  0  0  0
   10.3663  -16.1434   29.4536 C   0  0  0  0  0  0  0  0  0  0  0  0
   11.9261  -18.5264   25.8100 O   0  0  0  0  0  0  0  0  0  0  0  0
  2  1  1  1
  2  3  1  0
  4  2  1  0
  5  6  1  1
  5  4  1  0
  7  8  2  0
  7  5  1  0
  9 10  1  0
 10 12  1  0
 11 10  2  0
 12 13  1  0
 14 15  1  0
 14 13  1  6
 15  7  1  0
 16 14  1  0
 17 16  2  0
 19 29  2  0
 19 18  1  0
 20 19  1  0
 21 22  1  0
 21 20  2  0
 22 28  2  0
 24 23  1  1
 23 22  1  0
 24 25  1  0
 25 16  1  0
 26 27  1  0
 26 24  1  0
 28 29  1  0
 30 26  2  0
M  END
$$$$
