LQY.pdb
     RDKit          3D

 30 30  0  0  1  0  0  0  0  0999 V2000
    9.0509  -12.1746   19.2655 C   0  0  0  0  0  0  0  0  0  0  0  0
    7.9031  -13.0968   18.9862 C   0  0  2  0  0  0  0  0  0  0  0  0
    6.6122  -12.3072   18.9045 C   0  0  0  0  0  0  0  0  0  0  0  0
    7.7504  -14.1828   20.0222 C   0  0  0  0  0  0  0  0  0  0  0  0
    9.0934  -14.7232   20.4356 C   0  0  2  0  0  0  0  0  0  0  0  0
    9.7177  -15.3819   19.3093 N   0  0  0  0  0  0  0  0  0  0  0  0
    9.0331  -15.6437   21.5634 C   0  0  0  0  0  0  0  0  0  0  0  0
    7.9505  -15.7544   22.1994 O   0  0  0  0  0  0  0  0  0  0  0  0
   12.4216  -20.8128   22.4427 N   0  0  0  0  0  0  0  0  0  0  0  0
   12.3658  -19.8410   21.3915 C   0  0  0  0  0  0  0  0  0  0  0  0
   13.0593  -19.9848   20.3566 O   0  0  0  0  0  0  0  0  0  0  0  0
   11.4920  -18.6486   21.5006 C   0  0  0  0  0  0  0  0  0  0  0  0
   10.7923  -18.6572   22.8151 C   0  0  0  0  0  0  0  0  0  0  0  0
    9.9215  -17.4317   23.0255 C   0  0  2  0  0  0  0  0  0  0  0  0
   10.1178  -16.4423   22.0126 N   0  0  0  0  0  0  0  0  0  0  0  0
   10.1093  -16.8762   24.4001 C   0  0  0  0  0  0  0  0  0  0  0  0
   11.0363  -16.0624   24.6754 O   0  0  0  0  0  0  0  0  0  0  0  0
    6.2306  -11.1699   25.7022 O   0  0  0  0  0  0  0  0  0  0  0  0
    6.7239  -12.4027   26.1260 C   0  0  0  0  0  0  0  0  0  0  0  0
    8.0469  -12.5477   26.5155 C   0  0  0  0  0  0  0  0  0  0  0  0
    8.5470  -13.7685   26.9383 C   0  0  0  0  0  0  0  0  0  0  0  0
    7.7165  -14.8554   26.9722 C   0  0  0  0  0  0  0  0  0  0  0  0
    8.1462  -16.1906   27.4051 C   0  0  0  0  0  0  0  0  0  0  0  0
    9.4453  -16.6556   26.8017 C   0  0  2  0  0  0  0  0  0  0  0  0
    9.2581  -17.2283   25.4818 N   0  0  0  0  0  0  0  0  0  0  0  0
   10.0311  -17.7103   27.6651 C   0  0  0  0  0  0  0  0  0  0  0  0
   10.2213  -19.0165   27.2755 O   0  0  0  0  0  0  0  0  0  0  0  0
    6.3927  -14.7039   26.5809 C   0  0  0  0  0  0  0  0  0  0  0  0
    5.8895  -13.4932   26.1596 C   0  0  0  0  0  0  0  0  0  0  0  0
   10.3750  -17.3830   28.8298 O   0  0  0  0  0  0  0  0  0  0  0  0
  2  1  1  1
  2  3  1  0
  4  2  1  0
  5  6  1  6
  5  4  1  0
  7  8  2  0
  7  5  1  0
  9 10  1  0
 10 12  1  0
 11 10  2  0
 12 13  1  0
 14 15  1  0
 14 13  1  6
 15  7  1  0
 16 14  1  0
 17 16  2  0
 19 29  2  0
 19 18  1  0
 20 19  1  0
 21 22  1  0
 21 20  2  0
 22 28  2  0
 24 23  1  1
 23 22  1  0
 24 25  1  0
 25 16  1  0
 26 27  1  0
 26 24  1  0
 28 29  1  0
 30 26  2  0
M  END
$$$$
