LQY.pdb
     RDKit          3D

 30 30  0  0  1  0  0  0  0  0999 V2000
    9.8405  -13.8841   18.7328 C   0  0  0  0  0  0  0  0  0  0  0  0
    8.4761  -13.5301   19.2417 C   0  0  2  0  0  0  0  0  0  0  0  0
    8.3091  -12.0242   19.2726 C   0  0  0  0  0  0  0  0  0  0  0  0
    8.1947  -14.0843   20.6164 C   0  0  0  0  0  0  0  0  0  0  0  0
    8.4056  -15.5745   20.6481 C   0  0  2  0  0  0  0  0  0  0  0  0
    7.2456  -16.2394   20.0962 N   0  0  0  0  0  0  0  0  0  0  0  0
    8.6780  -16.0999   21.9795 C   0  0  0  0  0  0  0  0  0  0  0  0
    7.7748  -16.0306   22.8560 O   0  0  0  0  0  0  0  0  0  0  0  0
   11.6090  -21.2489   23.4505 N   0  0  0  0  0  0  0  0  0  0  0  0
   11.3663  -20.6998   24.7513 C   0  0  0  0  0  0  0  0  0  0  0  0
   11.5474  -21.3964   25.7783 O   0  0  0  0  0  0  0  0  0  0  0  0
   10.8978  -19.3030   24.9144 C   0  0  0  0  0  0  0  0  0  0  0  0
   10.6836  -18.6855   23.5763 C   0  0  0  0  0  0  0  0  0  0  0  0
   10.0278  -17.3189   23.6576 C   0  0  2  0  0  0  0  0  0  0  0  0
    9.9039  -16.6959   22.3770 N   0  0  0  0  0  0  0  0  0  0  0  0
   10.7373  -16.4470   24.6424 C   0  0  0  0  0  0  0  0  0  0  0  0
   11.8729  -15.9470   24.4018 O   0  0  0  0  0  0  0  0  0  0  0  0
    4.9108  -13.2951   26.9817 O   0  0  0  0  0  0  0  0  0  0  0  0
    6.2939  -13.4627   27.0199 C   0  0  0  0  0  0  0  0  0  0  0  0
    6.9791  -13.4798   28.2254 C   0  0  0  0  0  0  0  0  0  0  0  0
    8.3536  -13.6458   28.2742 C   0  0  0  0  0  0  0  0  0  0  0  0
    9.0505  -13.7961   27.1062 C   0  0  0  0  0  0  0  0  0  0  0  0
   10.5057  -13.9798   27.0486 C   0  0  0  0  0  0  0  0  0  0  0  0
   10.9502  -15.4119   26.9097 C   0  0  2  0  0  0  0  0  0  0  0  0
   10.1796  -16.1263   25.9092 N   0  0  0  0  0  0  0  0  0  0  0  0
   10.7526  -16.1089   28.2045 C   0  0  0  0  0  0  0  0  0  0  0  0
   11.3571  -15.7411   29.3849 O   0  0  0  0  0  0  0  0  0  0  0  0
    8.3588  -13.7781   25.9022 C   0  0  0  0  0  0  0  0  0  0  0  0
    6.9927  -13.6135   25.8469 C   0  0  0  0  0  0  0  0  0  0  0  0
    9.9801  -17.1013   28.2181 O   0  0  0  0  0  0  0  0  0  0  0  0
  2  1  1  1
  2  3  1  0
  4  2  1  0
  5  6  1  1
  5  4  1  0
  7  8  2  0
  7  5  1  0
  9 10  1  0
 10 12  1  0
 11 10  2  0
 12 13  1  0
 14 15  1  0
 14 13  1  6
 15  7  1  0
 16 14  1  0
 17 16  2  0
 19 29  2  0
 19 18  1  0
 20 19  1  0
 21 22  1  0
 21 20  2  0
 22 28  2  0
 24 23  1  1
 23 22  1  0
 24 25  1  0
 25 16  1  0
 26 27  1  0
 26 24  1  0
 28 29  1  0
 30 26  2  0
M  END
$$$$
