LQY.pdb
     RDKit          3D

 30 30  0  0  1  0  0  0  0  0999 V2000
    8.5575  -13.4547   18.3435 C   0  0  0  0  0  0  0  0  0  0  0  0
    7.6344  -13.4247   19.5237 C   0  0  2  0  0  0  0  0  0  0  0  0
    7.4279  -11.9957   19.9839 C   0  0  0  0  0  0  0  0  0  0  0  0
    8.1319  -14.2484   20.6856 C   0  0  0  0  0  0  0  0  0  0  0  0
    8.1895  -15.7084   20.3232 C   0  0  2  0  0  0  0  0  0  0  0  0
    6.8802  -16.1541   19.8999 N   0  0  0  0  0  0  0  0  0  0  0  0
    8.6667  -16.5622   21.4031 C   0  0  0  0  0  0  0  0  0  0  0  0
    7.8294  -17.2446   22.0528 O   0  0  0  0  0  0  0  0  0  0  0  0
   11.0539  -20.0160   19.9022 N   0  0  0  0  0  0  0  0  0  0  0  0
   12.1615  -19.1368   20.1326 C   0  0  0  0  0  0  0  0  0  0  0  0
   13.0430  -18.9827   19.2541 O   0  0  0  0  0  0  0  0  0  0  0  0
   12.2918  -18.3920   21.4076 C   0  0  0  0  0  0  0  0  0  0  0  0
   11.1888  -18.7787   22.3303 C   0  0  0  0  0  0  0  0  0  0  0  0
   10.4029  -17.5843   22.8402 C   0  0  2  0  0  0  0  0  0  0  0  0
   10.0268  -16.6899   21.7903 N   0  0  0  0  0  0  0  0  0  0  0  0
   11.1449  -16.8883   23.9349 C   0  0  0  0  0  0  0  0  0  0  0  0
   11.9693  -17.4928   24.6782 O   0  0  0  0  0  0  0  0  0  0  0  0
    5.0967  -11.6156   27.4763 O   0  0  0  0  0  0  0  0  0  0  0  0
    5.9623  -12.3979   26.7138 C   0  0  0  0  0  0  0  0  0  0  0  0
    5.5958  -13.6677   26.2937 C   0  0  0  0  0  0  0  0  0  0  0  0
    6.4488  -14.4533   25.5356 C   0  0  0  0  0  0  0  0  0  0  0  0
    7.6805  -13.9648   25.1939 C   0  0  0  0  0  0  0  0  0  0  0  0
    8.6561  -14.7146   24.3935 C   0  0  0  0  0  0  0  0  0  0  0  0
    9.9362  -15.0437   25.1154 C   0  0  2  0  0  0  0  0  0  0  0  0
   10.9698  -15.5050   24.2077 N   0  0  0  0  0  0  0  0  0  0  0  0
    9.6783  -16.1348   26.0871 C   0  0  0  0  0  0  0  0  0  0  0  0
   10.0652  -17.4432   25.9068 O   0  0  0  0  0  0  0  0  0  0  0  0
    8.0417  -12.6927   25.6176 C   0  0  0  0  0  0  0  0  0  0  0  0
    7.1986  -11.9069   26.3713 C   0  0  0  0  0  0  0  0  0  0  0  0
    9.0649  -15.8383   27.1443 O   0  0  0  0  0  0  0  0  0  0  0  0
  2  1  1  6
  2  3  1  0
  4  2  1  0
  5  6  1  1
  5  4  1  0
  7  8  2  0
  7  5  1  0
  9 10  1  0
 10 12  1  0
 11 10  2  0
 12 13  1  0
 14 15  1  0
 14 13  1  6
 15  7  1  0
 16 14  1  0
 17 16  2  0
 19 29  2  0
 19 18  1  0
 20 19  1  0
 21 22  1  0
 21 20  2  0
 22 28  2  0
 24 23  1  6
 23 22  1  0
 24 25  1  0
 25 16  1  0
 26 27  1  0
 26 24  1  0
 28 29  1  0
 30 26  2  0
M  END
$$$$
