LQY.pdb
     RDKit          3D

 30 30  0  0  1  0  0  0  0  0999 V2000
    9.2670  -13.0036   19.0147 C   0  0  0  0  0  0  0  0  0  0  0  0
    7.8972  -13.1504   19.6043 C   0  0  2  0  0  0  0  0  0  0  0  0
    7.3332  -11.7871   19.9506 C   0  0  0  0  0  0  0  0  0  0  0  0
    7.8731  -14.0199   20.8370 C   0  0  0  0  0  0  0  0  0  0  0  0
    8.4117  -15.3931   20.5361 C   0  0  2  0  0  0  0  0  0  0  0  0
    7.4154  -16.1572   19.8179 N   0  0  0  0  0  0  0  0  0  0  0  0
    8.8285  -16.1320   21.7206 C   0  0  0  0  0  0  0  0  0  0  0  0
    7.9445  -16.6450   22.4584 O   0  0  0  0  0  0  0  0  0  0  0  0
   14.1509  -19.2867   22.5938 N   0  0  0  0  0  0  0  0  0  0  0  0
   13.3924  -19.6054   23.7668 C   0  0  0  0  0  0  0  0  0  0  0  0
   13.8215  -20.4477   24.5908 O   0  0  0  0  0  0  0  0  0  0  0  0
   12.0893  -18.9511   24.0336 C   0  0  0  0  0  0  0  0  0  0  0  0
   11.8017  -17.9514   22.9680 C   0  0  0  0  0  0  0  0  0  0  0  0
   10.4988  -17.2068   23.1968 C   0  0  2  0  0  0  0  0  0  0  0  0
   10.1778  -16.3246   22.1188 N   0  0  0  0  0  0  0  0  0  0  0  0
   10.5133  -16.5036   24.5154 C   0  0  0  0  0  0  0  0  0  0  0  0
   11.1513  -15.4276   24.6965 O   0  0  0  0  0  0  0  0  0  0  0  0
    5.7792  -11.7763   25.0349 O   0  0  0  0  0  0  0  0  0  0  0  0
    6.4722  -12.8148   25.6545 C   0  0  0  0  0  0  0  0  0  0  0  0
    7.5071  -12.5552   26.5403 C   0  0  0  0  0  0  0  0  0  0  0  0
    8.2022  -13.5801   27.1614 C   0  0  0  0  0  0  0  0  0  0  0  0
    7.8594  -14.8777   26.8945 C   0  0  0  0  0  0  0  0  0  0  0  0
    8.5305  -16.0342   27.5003 C   0  0  0  0  0  0  0  0  0  0  0  0
    9.8926  -16.3347   26.9328 C   0  0  2  0  0  0  0  0  0  0  0  0
    9.8114  -17.0007   25.6463 N   0  0  0  0  0  0  0  0  0  0  0  0
   10.6144  -17.2421   27.8585 C   0  0  0  0  0  0  0  0  0  0  0  0
   11.0659  -18.4976   27.5210 O   0  0  0  0  0  0  0  0  0  0  0  0
    6.8222  -15.1312   26.0066 C   0  0  0  0  0  0  0  0  0  0  0  0
    6.1275  -14.1170   25.3860 C   0  0  0  0  0  0  0  0  0  0  0  0
   10.8247  -16.8311   29.0284 O   0  0  0  0  0  0  0  0  0  0  0  0
  2  1  1  1
  2  3  1  0
  4  2  1  0
  5  6  1  1
  5  4  1  0
  7  8  2  0
  7  5  1  0
  9 10  1  0
 10 12  1  0
 11 10  2  0
 12 13  1  0
 14 15  1  0
 14 13  1  6
 15  7  1  0
 16 14  1  0
 17 16  2  0
 19 29  2  0
 19 18  1  0
 20 19  1  0
 21 22  1  0
 21 20  2  0
 22 28  2  0
 24 23  1  1
 23 22  1  0
 24 25  1  0
 25 16  1  0
 26 27  1  0
 26 24  1  0
 28 29  1  0
 30 26  2  0
M  END
$$$$
