LQY.pdb
     RDKit          3D

 30 30  0  0  1  0  0  0  0  0999 V2000
    7.5221  -11.4317   24.8958 C   0  0  0  0  0  0  0  0  0  0  0  0
    6.5371  -12.5612   24.9026 C   0  0  2  0  0  0  0  0  0  0  0  0
    5.5557  -12.3860   26.0439 C   0  0  0  0  0  0  0  0  0  0  0  0
    7.1905  -13.9159   25.0196 C   0  0  0  0  0  0  0  0  0  0  0  0
    7.0120  -14.7094   23.7527 C   0  0  2  0  0  0  0  0  0  0  0  0
    5.7846  -15.4710   23.8275 N   0  0  0  0  0  0  0  0  0  0  0  0
    8.1224  -15.6067   23.4616 C   0  0  0  0  0  0  0  0  0  0  0  0
    8.4930  -16.4219   24.3487 O   0  0  0  0  0  0  0  0  0  0  0  0
   11.3452  -16.6367   18.0540 N   0  0  0  0  0  0  0  0  0  0  0  0
   12.0107  -17.4681   19.0125 C   0  0  0  0  0  0  0  0  0  0  0  0
   12.9586  -18.2096   18.6600 O   0  0  0  0  0  0  0  0  0  0  0  0
   11.5975  -17.4723   20.4360 C   0  0  0  0  0  0  0  0  0  0  0  0
   10.4523  -16.5402   20.6294 C   0  0  0  0  0  0  0  0  0  0  0  0
    9.9482  -16.5174   22.0610 C   0  0  2  0  0  0  0  0  0  0  0  0
    8.8352  -15.6373   22.2338 N   0  0  0  0  0  0  0  0  0  0  0  0
   11.0607  -16.2127   23.0112 C   0  0  0  0  0  0  0  0  0  0  0  0
   11.5762  -15.0617   23.0958 O   0  0  0  0  0  0  0  0  0  0  0  0
   11.5730  -15.0707   31.4144 O   0  0  0  0  0  0  0  0  0  0  0  0
   11.3538  -15.4223   30.0836 C   0  0  0  0  0  0  0  0  0  0  0  0
   11.1831  -16.7477   29.7131 C   0  0  0  0  0  0  0  0  0  0  0  0
   10.9647  -17.1078   28.3933 C   0  0  0  0  0  0  0  0  0  0  0  0
   10.9164  -16.1333   27.4339 C   0  0  0  0  0  0  0  0  0  0  0  0
   10.6890  -16.4083   26.0101 C   0  0  0  0  0  0  0  0  0  0  0  0
   11.9043  -16.8944   25.2653 C   0  0  2  0  0  0  0  0  0  0  0  0
   11.6073  -17.1970   23.8777 N   0  0  0  0  0  0  0  0  0  0  0  0
   12.3934  -18.1440   25.8982 C   0  0  0  0  0  0  0  0  0  0  0  0
   11.9604  -19.4063   25.5618 O   0  0  0  0  0  0  0  0  0  0  0  0
   11.0882  -14.8078   27.8111 C   0  0  0  0  0  0  0  0  0  0  0  0
   11.3056  -14.4434   29.1212 C   0  0  0  0  0  0  0  0  0  0  0  0
   13.2616  -18.0363   26.8018 O   0  0  0  0  0  0  0  0  0  0  0  0
  2  1  1  1
  2  3  1  0
  4  2  1  0
  5  6  1  1
  5  4  1  0
  7  8  2  0
  7  5  1  0
  9 10  1  0
 10 12  1  0
 11 10  2  0
 12 13  1  0
 14 15  1  0
 14 13  1  6
 15  7  1  0
 16 14  1  0
 17 16  2  0
 19 29  2  0
 19 18  1  0
 20 19  1  0
 21 22  1  0
 21 20  2  0
 22 28  2  0
 24 23  1  1
 23 22  1  0
 24 25  1  0
 25 16  1  0
 26 27  1  0
 26 24  1  0
 28 29  1  0
 30 26  2  0
M  END
$$$$
