LQY.pdb
     RDKit          3D

 30 30  0  0  1  0  0  0  0  0999 V2000
    8.8689  -13.6964   17.6996 C   0  0  0  0  0  0  0  0  0  0  0  0
    7.7904  -13.7990   18.7350 C   0  0  2  0  0  0  0  0  0  0  0  0
    7.2837  -12.4167   19.0942 C   0  0  0  0  0  0  0  0  0  0  0  0
    8.2417  -14.4993   19.9927 C   0  0  0  0  0  0  0  0  0  0  0  0
    8.6407  -15.9215   19.7018 C   0  0  2  0  0  0  0  0  0  0  0  0
    7.4836  -16.6679   19.2589 N   0  0  0  0  0  0  0  0  0  0  0  0
    9.2522  -16.6025   20.8354 C   0  0  0  0  0  0  0  0  0  0  0  0
    8.5071  -17.0561   21.7453 O   0  0  0  0  0  0  0  0  0  0  0  0
   15.3859  -18.7144   24.3089 N   0  0  0  0  0  0  0  0  0  0  0  0
   14.5806  -18.7283   23.1240 C   0  0  0  0  0  0  0  0  0  0  0  0
   15.1157  -18.8247   21.9939 O   0  0  0  0  0  0  0  0  0  0  0  0
   13.1038  -18.6296   23.2042 C   0  0  0  0  0  0  0  0  0  0  0  0
   12.5807  -17.9308   21.9976 C   0  0  0  0  0  0  0  0  0  0  0  0
   11.1590  -17.4306   22.1782 C   0  0  2  0  0  0  0  0  0  0  0  0
   10.6485  -16.8003   21.0010 N   0  0  0  0  0  0  0  0  0  0  0  0
   11.0547  -16.5486   23.3801 C   0  0  0  0  0  0  0  0  0  0  0  0
   11.5453  -15.3839   23.4039 O   0  0  0  0  0  0  0  0  0  0  0  0
    6.2358  -11.2084   27.7819 O   0  0  0  0  0  0  0  0  0  0  0  0
    6.8236  -12.2062   27.0062 C   0  0  0  0  0  0  0  0  0  0  0  0
    6.0571  -13.2066   26.4276 C   0  0  0  0  0  0  0  0  0  0  0  0
    6.6316  -14.2029   25.6551 C   0  0  0  0  0  0  0  0  0  0  0  0
    7.9858  -14.1992   25.4588 C   0  0  0  0  0  0  0  0  0  0  0  0
    8.6912  -15.2063   24.6571 C   0  0  0  0  0  0  0  0  0  0  0  0
    9.7103  -16.0110   25.4199 C   0  0  2  0  0  0  0  0  0  0  0  0
   10.3983  -16.9643   24.5696 N   0  0  0  0  0  0  0  0  0  0  0  0
    9.0219  -16.7810   26.4850 C   0  0  0  0  0  0  0  0  0  0  0  0
    8.8808  -16.3531   27.7854 O   0  0  0  0  0  0  0  0  0  0  0  0
    8.7479  -13.1947   26.0408 C   0  0  0  0  0  0  0  0  0  0  0  0
    8.1830  -12.2017   26.8098 C   0  0  0  0  0  0  0  0  0  0  0  0
    8.5369  -17.8986   26.1727 O   0  0  0  0  0  0  0  0  0  0  0  0
  2  1  1  6
  2  3  1  0
  4  2  1  0
  5  6  1  1
  5  4  1  0
  7  8  2  0
  7  5  1  0
  9 10  1  0
 10 12  1  0
 11 10  2  0
 12 13  1  0
 14 15  1  0
 14 13  1  6
 15  7  1  0
 16 14  1  0
 17 16  2  0
 19 29  2  0
 19 18  1  0
 20 19  1  0
 21 22  1  0
 21 20  2  0
 22 28  2  0
 24 23  1  6
 23 22  1  0
 24 25  1  0
 25 16  1  0
 26 27  1  0
 26 24  1  0
 28 29  1  0
 30 26  2  0
M  END
$$$$
