LQY.pdb
     RDKit          3D

 30 30  0  0  1  0  0  0  0  0999 V2000
    8.8136  -13.0280   17.6615 C   0  0  0  0  0  0  0  0  0  0  0  0
    7.6142  -13.3346   18.5061 C   0  0  2  0  0  0  0  0  0  0  0  0
    7.0535  -12.0551   19.0937 C   0  0  0  0  0  0  0  0  0  0  0  0
    7.9100  -14.3014   19.6258 C   0  0  0  0  0  0  0  0  0  0  0  0
    8.4503  -15.5989   19.0863 C   0  0  2  0  0  0  0  0  0  0  0  0
    7.4009  -16.3061   18.3856 N   0  0  0  0  0  0  0  0  0  0  0  0
    9.0211  -16.4664   20.1082 C   0  0  0  0  0  0  0  0  0  0  0  0
    8.2447  -17.0534   20.9092 O   0  0  0  0  0  0  0  0  0  0  0  0
   12.5124  -20.9400   20.0808 N   0  0  0  0  0  0  0  0  0  0  0  0
   12.7902  -20.6394   21.4539 C   0  0  0  0  0  0  0  0  0  0  0  0
   13.2214  -21.5302   22.2240 O   0  0  0  0  0  0  0  0  0  0  0  0
   12.5760  -19.2760   21.9947 C   0  0  0  0  0  0  0  0  0  0  0  0
   12.0891  -18.3769   20.9120 C   0  0  0  0  0  0  0  0  0  0  0  0
   10.8763  -17.5628   21.3250 C   0  0  2  0  0  0  0  0  0  0  0  0
   10.4099  -16.7088   20.2778 N   0  0  0  0  0  0  0  0  0  0  0  0
   11.1463  -16.8106   22.5878 C   0  0  0  0  0  0  0  0  0  0  0  0
   12.0824  -15.9664   22.6803 O   0  0  0  0  0  0  0  0  0  0  0  0
   10.8923  -14.5126   31.1541 O   0  0  0  0  0  0  0  0  0  0  0  0
   10.5631  -14.9339   29.8669 C   0  0  0  0  0  0  0  0  0  0  0  0
   10.2701  -14.0178   28.8678 C   0  0  0  0  0  0  0  0  0  0  0  0
    9.9418  -14.4261   27.5854 C   0  0  0  0  0  0  0  0  0  0  0  0
    9.9060  -15.7636   27.2984 C   0  0  0  0  0  0  0  0  0  0  0  0
    9.5721  -16.2995   25.9732 C   0  0  0  0  0  0  0  0  0  0  0  0
   10.7304  -16.3583   25.0126 C   0  0  2  0  0  0  0  0  0  0  0  0
   10.3680  -16.9977   23.7616 N   0  0  0  0  0  0  0  0  0  0  0  0
   11.8240  -17.1564   25.6195 C   0  0  0  0  0  0  0  0  0  0  0  0
   11.8483  -18.5316   25.6664 O   0  0  0  0  0  0  0  0  0  0  0  0
   10.2004  -16.6760   28.3030 C   0  0  0  0  0  0  0  0  0  0  0  0
   10.5274  -16.2766   29.5797 C   0  0  0  0  0  0  0  0  0  0  0  0
   12.7906  -16.5289   26.1232 O   0  0  0  0  0  0  0  0  0  0  0  0
  2  1  1  1
  2  3  1  0
  4  2  1  0
  5  6  1  1
  5  4  1  0
  7  8  2  0
  7  5  1  0
  9 10  1  0
 10 12  1  0
 11 10  2  0
 12 13  1  0
 14 15  1  0
 14 13  1  6
 15  7  1  0
 16 14  1  0
 17 16  2  0
 19 29  2  0
 19 18  1  0
 20 19  1  0
 21 22  1  0
 21 20  2  0
 22 28  2  0
 24 23  1  1
 23 22  1  0
 24 25  1  0
 25 16  1  0
 26 27  1  0
 26 24  1  0
 28 29  1  0
 30 26  2  0
M  END
$$$$
