LQY.pdb
     RDKit          3D

 30 30  0  0  1  0  0  0  0  0999 V2000
    9.2073  -12.8741   19.3759 C   0  0  0  0  0  0  0  0  0  0  0  0
    7.8046  -13.0148   19.8842 C   0  0  2  0  0  0  0  0  0  0  0  0
    7.3014  -11.6788   20.3928 C   0  0  0  0  0  0  0  0  0  0  0  0
    7.6729  -14.0403   20.9828 C   0  0  0  0  0  0  0  0  0  0  0  0
    8.2567  -15.3611   20.5572 C   0  0  2  0  0  0  0  0  0  0  0  0
    7.2633  -16.1163   19.8258 N   0  0  0  0  0  0  0  0  0  0  0  0
    8.7583  -16.1644   21.6644 C   0  0  0  0  0  0  0  0  0  0  0  0
    7.9309  -16.7560   22.4089 O   0  0  0  0  0  0  0  0  0  0  0  0
   12.5908  -20.2655   21.5883 N   0  0  0  0  0  0  0  0  0  0  0  0
   12.5765  -20.2013   23.0196 C   0  0  0  0  0  0  0  0  0  0  0  0
   12.8679  -21.2115   23.7032 O   0  0  0  0  0  0  0  0  0  0  0  0
   12.2192  -18.9467   23.7235 C   0  0  0  0  0  0  0  0  0  0  0  0
   11.8691  -17.8950   22.7289 C   0  0  0  0  0  0  0  0  0  0  0  0
   10.5327  -17.2352   23.0168 C   0  0  2  0  0  0  0  0  0  0  0  0
   10.1321  -16.3380   21.9786 N   0  0  0  0  0  0  0  0  0  0  0  0
   10.5435  -16.5764   24.3582 C   0  0  0  0  0  0  0  0  0  0  0  0
   11.2022  -15.5215   24.5837 O   0  0  0  0  0  0  0  0  0  0  0  0
    6.1799  -11.4126   25.4366 O   0  0  0  0  0  0  0  0  0  0  0  0
    6.7450  -12.6034   25.8898 C   0  0  0  0  0  0  0  0  0  0  0  0
    6.4214  -13.8173   25.3026 C   0  0  0  0  0  0  0  0  0  0  0  0
    6.9774  -15.0064   25.7456 C   0  0  0  0  0  0  0  0  0  0  0  0
    7.8658  -14.9820   26.7860 C   0  0  0  0  0  0  0  0  0  0  0  0
    8.5116  -16.1834   27.3286 C   0  0  0  0  0  0  0  0  0  0  0  0
    9.8805  -16.4650   26.7676 C   0  0  2  0  0  0  0  0  0  0  0  0
    9.8147  -17.0947   25.4622 N   0  0  0  0  0  0  0  0  0  0  0  0
   10.5945  -17.3965   27.6753 C   0  0  0  0  0  0  0  0  0  0  0  0
   11.0569  -18.6390   27.3062 O   0  0  0  0  0  0  0  0  0  0  0  0
    8.1858  -13.7633   27.3699 C   0  0  0  0  0  0  0  0  0  0  0  0
    7.6367  -12.5780   26.9344 C   0  0  0  0  0  0  0  0  0  0  0  0
   10.7870  -17.0200   28.8598 O   0  0  0  0  0  0  0  0  0  0  0  0
  2  1  1  1
  2  3  1  0
  4  2  1  0
  5  6  1  1
  5  4  1  0
  7  8  2  0
  7  5  1  0
  9 10  1  0
 10 12  1  0
 11 10  2  0
 12 13  1  0
 14 15  1  0
 14 13  1  6
 15  7  1  0
 16 14  1  0
 17 16  2  0
 19 29  2  0
 19 18  1  0
 20 19  1  0
 21 22  1  0
 21 20  2  0
 22 28  2  0
 24 23  1  1
 23 22  1  0
 24 25  1  0
 25 16  1  0
 26 27  1  0
 26 24  1  0
 28 29  1  0
 30 26  2  0
M  END
$$$$
