MFG.pdb
     RDKit          3D

 24 24  0  0  1  0  0  0  0  0999 V2000
   21.8875  -24.5544  -13.9251 C   0  0  0  0  0  0  0  0  0  0  0  0
   20.9717  -23.2891  -12.9712 S   0  0  0  0  0  0  0  0  0  0  0  0
   20.7813  -21.8249  -14.0322 C   0  0  0  0  0  0  0  0  0  0  0  0
   22.0725  -20.9960  -14.0240 C   0  0  0  0  0  0  0  0  0  0  0  0
   22.3676  -20.6855  -12.5763 C   0  0  2  0  0  0  0  0  0  0  0  0
   21.5093  -19.5939  -12.1976 N   0  0  0  0  0  0  0  0  0  0  0  0
   23.7735  -20.3401  -12.3365 C   0  0  0  0  0  0  0  0  0  0  0  0
   24.2382  -19.1887  -12.5621 O   0  0  0  0  0  0  0  0  0  0  0  0
   24.6603  -21.3151  -11.8343 N   0  0  0  0  0  0  0  0  0  0  0  0
   26.0849  -21.1886  -11.7709 C   0  0  1  0  0  0  0  0  0  0  0  0
   26.7223  -21.6686  -10.5229 C   0  0  0  0  0  0  0  0  0  0  0  0
   26.5050  -20.9405   -9.2950 C   0  0  0  0  0  0  0  0  0  0  0  0
   25.5945  -21.2391   -8.3158 C   0  0  0  0  0  0  0  0  0  0  0  0
   25.4497  -20.4980   -7.1625 C   0  0  0  0  0  0  0  0  0  0  0  0
   26.2561  -19.3858   -6.9578 C   0  0  0  0  0  0  0  0  0  0  0  0
   27.1767  -19.0712   -7.9319 C   0  0  0  0  0  0  0  0  0  0  0  0
   27.3012  -19.8233   -9.0688 C   0  0  0  0  0  0  0  0  0  0  0  0
   26.8134  -21.5356  -13.0168 C   0  0  0  0  0  0  0  0  0  0  0  0
   26.3302  -22.4550  -13.7190 O   0  0  0  0  0  0  0  0  0  0  0  0
   27.9974  -20.9259  -13.4759 N   0  0  0  0  0  0  0  0  0  0  0  0
   28.0051  -20.0099  -14.6234 C   0  0  0  0  0  0  0  0  0  0  0  0
   27.9856  -20.7189  -15.9004 C   0  0  0  0  0  0  0  0  0  0  0  0
   28.5245  -21.8441  -16.0048 O   0  0  0  0  0  0  0  0  0  0  0  0
   27.3806  -20.1784  -17.0178 O   0  0  0  0  0  0  0  0  0  0  0  0
  2  1  1  0
  3  2  1  0
  4  3  1  0
  5  7  1  0
  5  4  1  0
  5  6  1  6
  7  8  2  0
  9  7  1  0
  9 10  1  0
 10 11  1  1
 11 12  1  0
 12 17  2  0
 13 12  1  0
 13 14  2  0
 14 15  1  0
 15 16  2  0
 17 16  1  0
 18 20  1  0
 18 10  1  0
 19 18  2  0
 21 20  1  0
 22 24  1  0
 22 21  1  0
 23 22  2  0
M  END
$$$$
