MFG.pdb
     RDKit          3D

 24 24  0  0  1  0  0  0  0  0999 V2000
   20.6289  -22.7439  -14.8102 C   0  0  0  0  0  0  0  0  0  0  0  0
   19.5977  -22.6164  -13.3035 S   0  0  0  0  0  0  0  0  0  0  0  0
   20.1900  -21.1893  -12.3452 C   0  0  0  0  0  0  0  0  0  0  0  0
   21.6607  -20.9045  -12.6775 C   0  0  0  0  0  0  0  0  0  0  0  0
   22.2304  -20.1730  -11.4861 C   0  0  2  0  0  0  0  0  0  0  0  0
   21.5886  -18.8856  -11.4374 N   0  0  0  0  0  0  0  0  0  0  0  0
   23.6882  -20.0178  -11.5489 C   0  0  0  0  0  0  0  0  0  0  0  0
   24.2435  -19.0485  -12.1360 O   0  0  0  0  0  0  0  0  0  0  0  0
   24.5235  -20.9754  -10.9369 N   0  0  0  0  0  0  0  0  0  0  0  0
   25.9533  -20.9959  -11.0054 C   0  0  1  0  0  0  0  0  0  0  0  0
   26.6539  -21.4316   -9.7752 C   0  0  0  0  0  0  0  0  0  0  0  0
   26.6000  -20.5952   -8.5993 C   0  0  0  0  0  0  0  0  0  0  0  0
   27.1243  -19.3367   -8.4644 C   0  0  0  0  0  0  0  0  0  0  0  0
   27.0261  -18.5935   -7.3075 C   0  0  0  0  0  0  0  0  0  0  0  0
   26.3664  -19.1247   -6.2067 C   0  0  0  0  0  0  0  0  0  0  0  0
   25.8333  -20.3885   -6.3249 C   0  0  0  0  0  0  0  0  0  0  0  0
   25.9442  -21.1066   -7.4849 C   0  0  0  0  0  0  0  0  0  0  0  0
   26.5250  -21.5243  -12.2693 C   0  0  0  0  0  0  0  0  0  0  0  0
   26.8119  -22.7445  -12.2955 O   0  0  0  0  0  0  0  0  0  0  0  0
   26.7749  -20.7764  -13.4366 N   0  0  0  0  0  0  0  0  0  0  0  0
   27.3023  -21.3966  -14.6585 C   0  0  0  0  0  0  0  0  0  0  0  0
   27.3472  -20.4626  -15.7807 C   0  0  0  0  0  0  0  0  0  0  0  0
   26.8668  -19.3124  -15.6631 O   0  0  0  0  0  0  0  0  0  0  0  0
   27.9131  -20.8133  -16.9905 O   0  0  0  0  0  0  0  0  0  0  0  0
  2  1  1  0
  3  2  1  0
  4  3  1  0
  5  7  1  0
  5  4  1  0
  5  6  1  6
  7  8  2  0
  9  7  1  0
  9 10  1  0
 10 11  1  1
 11 12  1  0
 12 17  2  0
 13 12  1  0
 13 14  2  0
 14 15  1  0
 15 16  2  0
 17 16  1  0
 18 20  1  0
 18 10  1  0
 19 18  2  0
 21 20  1  0
 22 24  1  0
 22 21  1  0
 23 22  2  0
M  END
$$$$
