MFG.pdb
     RDKit          3D

 24 24  0  0  1  0  0  0  0  0999 V2000
   29.2059  -20.4505  -18.6174 C   0  0  0  0  0  0  0  0  0  0  0  0
   28.0249  -21.7923  -18.2251 S   0  0  0  0  0  0  0  0  0  0  0  0
   26.6616  -21.0680  -17.2645 C   0  0  0  0  0  0  0  0  0  0  0  0
   27.2195  -20.2079  -16.1228 C   0  0  0  0  0  0  0  0  0  0  0  0
   27.6662  -21.1689  -15.0476 C   0  0  2  0  0  0  0  0  0  0  0  0
   27.9847  -22.4113  -15.7007 N   0  0  0  0  0  0  0  0  0  0  0  0
   26.6531  -21.3807  -14.0074 C   0  0  0  0  0  0  0  0  0  0  0  0
   26.0166  -22.4640  -13.8897 O   0  0  0  0  0  0  0  0  0  0  0  0
   26.3611  -20.3491  -13.0910 N   0  0  0  0  0  0  0  0  0  0  0  0
   25.3722  -20.4110  -12.0578 C   0  0  1  0  0  0  0  0  0  0  0  0
   25.7436  -19.7842  -10.7681 C   0  0  0  0  0  0  0  0  0  0  0  0
   26.9203  -20.2483  -10.0716 C   0  0  0  0  0  0  0  0  0  0  0  0
   27.1167  -20.2644   -8.7159 C   0  0  0  0  0  0  0  0  0  0  0  0
   28.2693  -20.7317   -8.1214 C   0  0  0  0  0  0  0  0  0  0  0  0
   29.3006  -21.2170   -8.9151 C   0  0  0  0  0  0  0  0  0  0  0  0
   29.1200  -21.2082  -10.2799 C   0  0  0  0  0  0  0  0  0  0  0  0
   27.9656  -20.7387  -10.8463 C   0  0  0  0  0  0  0  0  0  0  0  0
   23.9756  -20.1601  -12.4939 C   0  0  0  0  0  0  0  0  0  0  0  0
   23.7248  -19.0275  -12.9697 O   0  0  0  0  0  0  0  0  0  0  0  0
   22.9109  -21.0793  -12.4177 N   0  0  0  0  0  0  0  0  0  0  0  0
   21.5664  -20.7533  -12.9096 C   0  0  0  0  0  0  0  0  0  0  0  0
   20.6145  -21.8383  -12.6850 C   0  0  0  0  0  0  0  0  0  0  0  0
   20.4794  -22.3319  -11.5424 O   0  0  0  0  0  0  0  0  0  0  0  0
   19.8438  -22.3474  -13.7116 O   0  0  0  0  0  0  0  0  0  0  0  0
  2  1  1  0
  3  2  1  0
  4  3  1  0
  5  7  1  0
  5  4  1  0
  5  6  1  6
  7  8  2  0
  9  7  1  0
  9 10  1  0
 10 11  1  1
 11 12  1  0
 12 17  2  0
 13 12  1  0
 13 14  2  0
 14 15  1  0
 15 16  2  0
 17 16  1  0
 18 20  1  0
 18 10  1  0
 19 18  2  0
 21 20  1  0
 22 24  1  0
 22 21  1  0
 23 22  2  0
M  END
$$$$
