MFG.pdb
     RDKit          3D

 24 24  0  0  1  0  0  0  0  0999 V2000
   25.5160  -17.1403  -14.2662 C   0  0  0  0  0  0  0  0  0  0  0  0
   26.7459  -17.7793  -15.4615 S   0  0  0  0  0  0  0  0  0  0  0  0
   27.8482  -18.9166  -14.5685 C   0  0  0  0  0  0  0  0  0  0  0  0
   27.1621  -19.4235  -13.2931 C   0  0  0  0  0  0  0  0  0  0  0  0
   28.1161  -20.4082  -12.6612 C   0  0  2  0  0  0  0  0  0  0  0  0
   28.1744  -21.5536  -13.5309 N   0  0  0  0  0  0  0  0  0  0  0  0
   27.7157  -20.8108  -11.3082 C   0  0  0  0  0  0  0  0  0  0  0  0
   27.1369  -21.9064  -11.0688 O   0  0  0  0  0  0  0  0  0  0  0  0
   27.9768  -19.9581  -10.2155 N   0  0  0  0  0  0  0  0  0  0  0  0
   27.6499  -20.2342   -8.8494 C   0  0  1  0  0  0  0  0  0  0  0  0
   28.3303  -19.3925   -7.8383 C   0  0  0  0  0  0  0  0  0  0  0  0
   28.0806  -19.6337   -6.4366 C   0  0  0  0  0  0  0  0  0  0  0  0
   27.1156  -19.0441   -5.6632 C   0  0  0  0  0  0  0  0  0  0  0  0
   26.9324  -19.3322   -4.3276 C   0  0  0  0  0  0  0  0  0  0  0  0
   27.7553  -20.2648   -3.7094 C   0  0  0  0  0  0  0  0  0  0  0  0
   28.7306  -20.8671   -4.4720 C   0  0  0  0  0  0  0  0  0  0  0  0
   28.8924  -20.5638   -5.7970 C   0  0  0  0  0  0  0  0  0  0  0  0
   26.2150  -20.4995   -8.5767 C   0  0  0  0  0  0  0  0  0  0  0  0
   25.9115  -20.8275   -7.4053 O   0  0  0  0  0  0  0  0  0  0  0  0
   25.1689  -20.4178   -9.5166 N   0  0  0  0  0  0  0  0  0  0  0  0
   23.7648  -20.6157   -9.1354 C   0  0  0  0  0  0  0  0  0  0  0  0
   22.8572  -20.4892  -10.2729 C   0  0  0  0  0  0  0  0  0  0  0  0
   23.3132  -20.3598  -11.4317 O   0  0  0  0  0  0  0  0  0  0  0  0
   21.4862  -20.5081  -10.1089 O   0  0  0  0  0  0  0  0  0  0  0  0
  2  1  1  0
  3  2  1  0
  4  3  1  0
  5  7  1  0
  5  4  1  0
  5  6  1  6
  7  8  2  0
  9  7  1  0
  9 10  1  0
 10 11  1  1
 11 12  1  0
 12 17  2  0
 13 12  1  0
 13 14  2  0
 14 15  1  0
 15 16  2  0
 17 16  1  0
 18 20  1  0
 18 10  1  0
 19 18  2  0
 21 20  1  0
 22 24  1  0
 22 21  1  0
 23 22  2  0
M  END
$$$$
