MFG.pdb
     RDKit          3D

 24 24  0  0  1  0  0  0  0  0999 V2000
   22.7812  -14.9047  -19.0444 C   0  0  0  0  0  0  0  0  0  0  0  0
   23.7196  -13.6217  -18.1372 S   0  0  0  0  0  0  0  0  0  0  0  0
   23.1032  -11.9984  -18.6764 C   0  0  0  0  0  0  0  0  0  0  0  0
   23.6725  -10.8928  -17.7776 C   0  0  0  0  0  0  0  0  0  0  0  0
   23.1307   -9.5897  -18.3136 C   0  0  2  0  0  0  0  0  0  0  0  0
   24.0843   -9.1023  -19.2754 N   0  0  0  0  0  0  0  0  0  0  0  0
   22.8998   -8.5879  -17.2666 C   0  0  0  0  0  0  0  0  0  0  0  0
   23.8181   -7.8441  -16.8237 O   0  0  0  0  0  0  0  0  0  0  0  0
   21.6102   -8.4302  -16.7177 N   0  0  0  0  0  0  0  0  0  0  0  0
   21.2585   -7.5194  -15.6706 C   0  0  1  0  0  0  0  0  0  0  0  0
   20.6372   -6.2460  -16.1022 C   0  0  0  0  0  0  0  0  0  0  0  0
   21.3411   -5.3990  -17.0362 C   0  0  0  0  0  0  0  0  0  0  0  0
   21.2039   -5.3917  -18.3993 C   0  0  0  0  0  0  0  0  0  0  0  0
   21.9081   -4.5449  -19.2285 C   0  0  0  0  0  0  0  0  0  0  0  0
   22.8100   -3.6427  -18.6792 C   0  0  0  0  0  0  0  0  0  0  0  0
   22.9603   -3.6365  -17.3107 C   0  0  0  0  0  0  0  0  0  0  0  0
   22.2490   -4.4877  -16.5086 C   0  0  0  0  0  0  0  0  0  0  0  0
   20.6467   -8.1354  -14.4665 C   0  0  0  0  0  0  0  0  0  0  0  0
   19.7002   -8.9352  -14.6574 O   0  0  0  0  0  0  0  0  0  0  0  0
   21.0337   -7.8984  -13.1329 N   0  0  0  0  0  0  0  0  0  0  0  0
   20.3373   -8.5203  -11.9997 C   0  0  0  0  0  0  0  0  0  0  0  0
   18.9835   -7.9997  -11.8262 C   0  0  0  0  0  0  0  0  0  0  0  0
   18.5155   -7.1755  -12.6442 O   0  0  0  0  0  0  0  0  0  0  0  0
   18.1876   -8.3944  -10.7691 O   0  0  0  0  0  0  0  0  0  0  0  0
  2  1  1  0
  3  2  1  0
  4  3  1  0
  5  7  1  0
  5  4  1  0
  5  6  1  6
  7  8  2  0
  9  7  1  0
  9 10  1  0
 10 11  1  6
 11 12  1  0
 12 17  2  0
 13 12  1  0
 13 14  2  0
 14 15  1  0
 15 16  2  0
 17 16  1  0
 18 20  1  0
 18 10  1  0
 19 18  2  0
 21 20  1  0
 22 24  1  0
 22 21  1  0
 23 22  2  0
M  END
$$$$
