MFG.pdb
     RDKit          3D

 24 24  0  0  1  0  0  0  0  0999 V2000
   26.5869  -33.9679  -18.2770 C   0  0  0  0  0  0  0  0  0  0  0  0
   27.7732  -35.1546  -17.5462 S   0  0  0  0  0  0  0  0  0  0  0  0
   28.5818  -34.3350  -16.1390 C   0  0  0  0  0  0  0  0  0  0  0  0
   29.7641  -33.4888  -16.6296 C   0  0  0  0  0  0  0  0  0  0  0  0
   30.6155  -33.2059  -15.4154 C   0  0  2  0  0  0  0  0  0  0  0  0
   29.9742  -32.1395  -14.6920 N   0  0  0  0  0  0  0  0  0  0  0  0
   31.9959  -32.8399  -15.7527 C   0  0  0  0  0  0  0  0  0  0  0  0
   32.3814  -31.6406  -15.8288 O   0  0  0  0  0  0  0  0  0  0  0  0
   32.9482  -33.8489  -16.0059 N   0  0  0  0  0  0  0  0  0  0  0  0
   34.3084  -33.6291  -16.3945 C   0  0  1  0  0  0  0  0  0  0  0  0
   35.3384  -34.1028  -15.4413 C   0  0  0  0  0  0  0  0  0  0  0  0
   35.4551  -33.4612  -14.1530 C   0  0  0  0  0  0  0  0  0  0  0  0
   35.0280  -33.9569  -12.9493 C   0  0  0  0  0  0  0  0  0  0  0  0
   35.1817  -33.2864  -11.7547 C   0  0  0  0  0  0  0  0  0  0  0  0
   35.7982  -32.0419  -11.7427 C   0  0  0  0  0  0  0  0  0  0  0  0
   36.2337  -31.5286  -12.9436 C   0  0  0  0  0  0  0  0  0  0  0  0
   36.0692  -32.2143  -14.1169 C   0  0  0  0  0  0  0  0  0  0  0  0
   34.6146  -33.8887  -17.8237 C   0  0  0  0  0  0  0  0  0  0  0  0
   33.9335  -34.7705  -18.3986 O   0  0  0  0  0  0  0  0  0  0  0  0
   35.6019  -33.2348  -18.5867 N   0  0  0  0  0  0  0  0  0  0  0  0
   35.8766  -33.6032  -19.9812 C   0  0  0  0  0  0  0  0  0  0  0  0
   34.9510  -32.9683  -20.9162 C   0  0  0  0  0  0  0  0  0  0  0  0
   35.3882  -32.3346  -21.9034 O   0  0  0  0  0  0  0  0  0  0  0  0
   33.5831  -33.0458  -20.7435 O   0  0  0  0  0  0  0  0  0  0  0  0
  2  1  1  0
  3  2  1  0
  4  3  1  0
  5  7  1  0
  5  4  1  0
  5  6  1  6
  7  8  2  0
  9  7  1  0
  9 10  1  0
 10 11  1  1
 11 12  1  0
 12 17  2  0
 13 12  1  0
 13 14  2  0
 14 15  1  0
 15 16  2  0
 17 16  1  0
 18 20  1  0
 18 10  1  0
 19 18  2  0
 21 20  1  0
 22 24  1  0
 22 21  1  0
 23 22  2  0
M  END
$$$$
