MFG.pdb
     RDKit          3D

 24 24  0  0  1  0  0  0  0  0999 V2000
   24.7612  -16.1565  -15.7511 C   0  0  0  0  0  0  0  0  0  0  0  0
   26.4152  -15.3893  -15.5927 S   0  0  0  0  0  0  0  0  0  0  0  0
   27.5330  -16.6260  -14.8668 C   0  0  0  0  0  0  0  0  0  0  0  0
   26.7637  -17.9181  -14.5622 C   0  0  0  0  0  0  0  0  0  0  0  0
   27.6736  -18.7602  -13.7008 C   0  0  2  0  0  0  0  0  0  0  0  0
   28.7965  -19.1366  -14.5189 N   0  0  0  0  0  0  0  0  0  0  0  0
   27.0120  -19.9520  -13.1576 C   0  0  0  0  0  0  0  0  0  0  0  0
   27.0525  -21.0738  -13.7342 O   0  0  0  0  0  0  0  0  0  0  0  0
   26.2966  -19.8668  -11.9450 N   0  0  0  0  0  0  0  0  0  0  0  0
   25.5658  -20.9358  -11.3346 C   0  0  1  0  0  0  0  0  0  0  0  0
   25.6348  -21.0057   -9.8567 C   0  0  0  0  0  0  0  0  0  0  0  0
   26.9090  -20.8279   -9.2011 C   0  0  0  0  0  0  0  0  0  0  0  0
   28.0911  -21.4378   -9.5290 C   0  0  0  0  0  0  0  0  0  0  0  0
   29.2739  -21.2111   -8.8583 C   0  0  0  0  0  0  0  0  0  0  0  0
   29.2959  -20.3228   -7.7908 C   0  0  0  0  0  0  0  0  0  0  0  0
   28.1167  -19.7008   -7.4476 C   0  0  0  0  0  0  0  0  0  0  0  0
   26.9548  -19.9429   -8.1296 C   0  0  0  0  0  0  0  0  0  0  0  0
   24.2235  -21.2024  -11.9098 C   0  0  0  0  0  0  0  0  0  0  0  0
   23.5154  -20.2046  -12.1834 O   0  0  0  0  0  0  0  0  0  0  0  0
   23.6770  -22.4741  -12.1714 N   0  0  0  0  0  0  0  0  0  0  0  0
   23.2808  -22.8862  -13.5238 C   0  0  0  0  0  0  0  0  0  0  0  0
   22.0660  -22.2128  -13.9762 C   0  0  0  0  0  0  0  0  0  0  0  0
   21.0724  -22.1294  -13.2191 O   0  0  0  0  0  0  0  0  0  0  0  0
   21.9758  -21.6546  -15.2360 O   0  0  0  0  0  0  0  0  0  0  0  0
  2  1  1  0
  3  2  1  0
  4  3  1  0
  5  7  1  0
  5  4  1  0
  5  6  1  6
  7  8  2  0
  9  7  1  0
  9 10  1  0
 10 11  1  1
 11 12  1  0
 12 17  2  0
 13 12  1  0
 13 14  2  0
 14 15  1  0
 15 16  2  0
 17 16  1  0
 18 20  1  0
 18 10  1  0
 19 18  2  0
 21 20  1  0
 22 24  1  0
 22 21  1  0
 23 22  2  0
M  END
$$$$
