MFG.pdb
     RDKit          3D

 24 24  0  0  1  0  0  0  0  0999 V2000
   22.5618  -22.9741  -16.5960 C   0  0  0  0  0  0  0  0  0  0  0  0
   20.8159  -22.4496  -16.4337 S   0  0  0  0  0  0  0  0  0  0  0  0
   20.6499  -21.5537  -14.8602 C   0  0  0  0  0  0  0  0  0  0  0  0
   21.9334  -20.7670  -14.5632 C   0  0  0  0  0  0  0  0  0  0  0  0
   22.1568  -20.8673  -13.0736 C   0  0  2  0  0  0  0  0  0  0  0  0
   21.1390  -20.0695  -12.4416 N   0  0  0  0  0  0  0  0  0  0  0  0
   23.4913  -20.4186  -12.6600 C   0  0  0  0  0  0  0  0  0  0  0  0
   23.7751  -19.2013  -12.4860 O   0  0  0  0  0  0  0  0  0  0  0  0
   24.5140  -21.3650  -12.4416 N   0  0  0  0  0  0  0  0  0  0  0  0
   25.8825  -21.0581  -12.1541 C   0  0  1  0  0  0  0  0  0  0  0  0
   26.4280  -21.6409  -10.9064 C   0  0  0  0  0  0  0  0  0  0  0  0
   26.2934  -20.9092   -9.6688 C   0  0  0  0  0  0  0  0  0  0  0  0
   26.6289  -19.5989   -9.4512 C   0  0  0  0  0  0  0  0  0  0  0  0
   26.4637  -18.9644   -8.2385 C   0  0  0  0  0  0  0  0  0  0  0  0
   25.9315  -19.6671   -7.1652 C   0  0  0  0  0  0  0  0  0  0  0  0
   25.5887  -20.9852   -7.3663 C   0  0  0  0  0  0  0  0  0  0  0  0
   25.7626  -21.5928   -8.5806 C   0  0  0  0  0  0  0  0  0  0  0  0
   26.8045  -21.0989  -13.3169 C   0  0  0  0  0  0  0  0  0  0  0  0
   26.7054  -22.0849  -14.0849 O   0  0  0  0  0  0  0  0  0  0  0  0
   27.7791  -20.1312  -13.6298 N   0  0  0  0  0  0  0  0  0  0  0  0
   27.5184  -19.0468  -14.5849 C   0  0  0  0  0  0  0  0  0  0  0  0
   27.3666  -19.5360  -15.9529 C   0  0  0  0  0  0  0  0  0  0  0  0
   26.2375  -19.8632  -16.3836 O   0  0  0  0  0  0  0  0  0  0  0  0
   28.4486  -19.6517  -16.8032 O   0  0  0  0  0  0  0  0  0  0  0  0
  2  1  1  0
  3  2  1  0
  4  3  1  0
  5  7  1  0
  5  4  1  0
  5  6  1  1
  7  8  2  0
  9  7  1  0
  9 10  1  0
 10 11  1  1
 11 12  1  0
 12 17  2  0
 13 12  1  0
 13 14  2  0
 14 15  1  0
 15 16  2  0
 17 16  1  0
 18 20  1  0
 18 10  1  0
 19 18  2  0
 21 20  1  0
 22 24  1  0
 22 21  1  0
 23 22  2  0
M  END
$$$$
