MFG.pdb
     RDKit          3D

 24 24  0  0  1  0  0  0  0  0999 V2000
   24.0534  -16.5372  -14.9566 C   0  0  0  0  0  0  0  0  0  0  0  0
   25.6091  -15.7622  -15.5298 S   0  0  0  0  0  0  0  0  0  0  0  0
   26.9926  -16.7001  -14.8139 C   0  0  0  0  0  0  0  0  0  0  0  0
   26.5089  -18.0790  -14.3460 C   0  0  0  0  0  0  0  0  0  0  0  0
   27.6526  -18.6893  -13.5724 C   0  0  2  0  0  0  0  0  0  0  0  0
   28.7025  -18.9606  -14.5190 N   0  0  0  0  0  0  0  0  0  0  0  0
   27.2759  -19.9147  -12.8585 C   0  0  0  0  0  0  0  0  0  0  0  0
   27.6838  -21.0569  -13.2074 O   0  0  0  0  0  0  0  0  0  0  0  0
   26.4262  -19.8401  -11.7352 N   0  0  0  0  0  0  0  0  0  0  0  0
   25.9109  -20.9599  -11.0073 C   0  0  1  0  0  0  0  0  0  0  0  0
   25.7483  -20.7639   -9.5482 C   0  0  0  0  0  0  0  0  0  0  0  0
   26.9092  -20.4646   -8.7432 C   0  0  0  0  0  0  0  0  0  0  0  0
   28.0713  -21.1874   -8.6811 C   0  0  0  0  0  0  0  0  0  0  0  0
   29.1441  -20.8333   -7.8910 C   0  0  0  0  0  0  0  0  0  0  0  0
   29.0689  -19.6889   -7.1075 C   0  0  0  0  0  0  0  0  0  0  0  0
   27.9081  -18.9505   -7.1579 C   0  0  0  0  0  0  0  0  0  0  0  0
   26.8564  -19.3233   -7.9508 C   0  0  0  0  0  0  0  0  0  0  0  0
   24.8013  -21.6942  -11.6656 C   0  0  0  0  0  0  0  0  0  0  0  0
   23.7749  -21.0334  -11.9515 O   0  0  0  0  0  0  0  0  0  0  0  0
   24.8001  -23.0642  -11.9933 N   0  0  0  0  0  0  0  0  0  0  0  0
   24.9429  -23.5319  -13.3778 C   0  0  0  0  0  0  0  0  0  0  0  0
   23.6585  -23.6275  -14.0671 C   0  0  0  0  0  0  0  0  0  0  0  0
   22.6088  -23.2494  -13.4992 O   0  0  0  0  0  0  0  0  0  0  0  0
   23.5624  -24.1310  -15.3493 O   0  0  0  0  0  0  0  0  0  0  0  0
  2  1  1  0
  3  2  1  0
  4  3  1  0
  5  7  1  0
  5  4  1  0
  5  6  1  6
  7  8  2  0
  9  7  1  0
  9 10  1  0
 10 11  1  1
 11 12  1  0
 12 17  2  0
 13 12  1  0
 13 14  2  0
 14 15  1  0
 15 16  2  0
 17 16  1  0
 18 20  1  0
 18 10  1  0
 19 18  2  0
 21 20  1  0
 22 24  1  0
 22 21  1  0
 23 22  2  0
M  END
$$$$
