MFG.pdb
     RDKit          3D

 24 24  0  0  1  0  0  0  0  0999 V2000
   25.3403  -16.9529  -15.9687 C   0  0  0  0  0  0  0  0  0  0  0  0
   27.1264  -16.5750  -16.0980 S   0  0  0  0  0  0  0  0  0  0  0  0
   28.0150  -17.7090  -14.9888 C   0  0  0  0  0  0  0  0  0  0  0  0
   27.0249  -18.6592  -14.3024 C   0  0  0  0  0  0  0  0  0  0  0  0
   27.8545  -19.6069  -13.4701 C   0  0  2  0  0  0  0  0  0  0  0  0
   28.6809  -20.3533  -14.3820 N   0  0  0  0  0  0  0  0  0  0  0  0
   27.0434  -20.5152  -12.6514 C   0  0  0  0  0  0  0  0  0  0  0  0
   26.9402  -21.7475  -12.9032 O   0  0  0  0  0  0  0  0  0  0  0  0
   26.3422  -20.0164  -11.5339 N   0  0  0  0  0  0  0  0  0  0  0  0
   25.5208  -20.7919  -10.6544 C   0  0  1  0  0  0  0  0  0  0  0  0
   25.5140  -20.3693   -9.2348 C   0  0  0  0  0  0  0  0  0  0  0  0
   26.7380  -20.4408   -8.4720 C   0  0  0  0  0  0  0  0  0  0  0  0
   27.7657  -21.3284   -8.6536 C   0  0  0  0  0  0  0  0  0  0  0  0
   28.9114  -21.3302   -7.8869 C   0  0  0  0  0  0  0  0  0  0  0  0
   29.0567  -20.3943   -6.8710 C   0  0  0  0  0  0  0  0  0  0  0  0
   28.0333  -19.4946   -6.6746 C   0  0  0  0  0  0  0  0  0  0  0  0
   26.9052  -19.5133   -7.4497 C   0  0  0  0  0  0  0  0  0  0  0  0
   24.1944  -21.1808  -11.1959 C   0  0  0  0  0  0  0  0  0  0  0  0
   23.4464  -21.8456  -10.4407 O   0  0  0  0  0  0  0  0  0  0  0  0
   23.7060  -20.8714  -12.4804 N   0  0  0  0  0  0  0  0  0  0  0  0
   22.4164  -21.3799  -12.9644 C   0  0  0  0  0  0  0  0  0  0  0  0
   21.2984  -20.5289  -12.5649 C   0  0  0  0  0  0  0  0  0  0  0  0
   21.5042  -19.4901  -11.8971 O   0  0  0  0  0  0  0  0  0  0  0  0
   19.9967  -20.8386  -12.9062 O   0  0  0  0  0  0  0  0  0  0  0  0
  2  1  1  0
  3  2  1  0
  4  3  1  0
  5  7  1  0
  5  4  1  0
  5  6  1  6
  7  8  2  0
  9  7  1  0
  9 10  1  0
 10 11  1  1
 11 12  1  0
 12 17  2  0
 13 12  1  0
 13 14  2  0
 14 15  1  0
 15 16  2  0
 17 16  1  0
 18 20  1  0
 18 10  1  0
 19 18  2  0
 21 20  1  0
 22 24  1  0
 22 21  1  0
 23 22  2  0
M  END
$$$$
