MFG.pdb
     RDKit          3D

 24 24  0  0  1  0  0  0  0  0999 V2000
   20.6847  -13.1211  -17.1946 C   0  0  0  0  0  0  0  0  0  0  0  0
   20.5714  -12.7482  -18.9828 S   0  0  0  0  0  0  0  0  0  0  0  0
   20.4640  -10.9425  -19.1670 C   0  0  0  0  0  0  0  0  0  0  0  0
   20.8432  -10.2543  -17.8491 C   0  0  0  0  0  0  0  0  0  0  0  0
   20.7315   -8.7696  -18.0988 C   0  0  2  0  0  0  0  0  0  0  0  0
   21.7693   -8.4218  -19.0335 N   0  0  0  0  0  0  0  0  0  0  0  0
   20.8534   -7.9691  -16.8750 C   0  0  0  0  0  0  0  0  0  0  0  0
   20.0969   -8.1325  -15.8782 O   0  0  0  0  0  0  0  0  0  0  0  0
   21.8469   -6.9721  -16.7841 N   0  0  0  0  0  0  0  0  0  0  0  0
   22.1090   -6.1629  -15.6326 C   0  0  1  0  0  0  0  0  0  0  0  0
   23.4551   -6.3089  -15.0319 C   0  0  0  0  0  0  0  0  0  0  0  0
   24.0626   -7.6175  -14.9726 C   0  0  0  0  0  0  0  0  0  0  0  0
   23.7557   -8.6242  -14.0954 C   0  0  0  0  0  0  0  0  0  0  0  0
   24.3767   -9.8549  -14.1049 C   0  0  0  0  0  0  0  0  0  0  0  0
   25.3685  -10.1139  -15.0422 C   0  0  0  0  0  0  0  0  0  0  0  0
   25.6895   -9.1133  -15.9316 C   0  0  0  0  0  0  0  0  0  0  0  0
   25.0580   -7.8991  -15.9017 C   0  0  0  0  0  0  0  0  0  0  0  0
   21.6055   -4.7683  -15.7034 C   0  0  0  0  0  0  0  0  0  0  0  0
   21.9200   -4.1026  -16.7183 O   0  0  0  0  0  0  0  0  0  0  0  0
   20.8102   -4.1291  -14.7321 N   0  0  0  0  0  0  0  0  0  0  0  0
   20.2493   -2.7892  -14.9464 C   0  0  0  0  0  0  0  0  0  0  0  0
   18.8925   -2.8346  -15.4856 C   0  0  0  0  0  0  0  0  0  0  0  0
   18.7045   -3.0741  -16.6999 O   0  0  0  0  0  0  0  0  0  0  0  0
   17.7890   -2.6177  -14.6843 O   0  0  0  0  0  0  0  0  0  0  0  0
  2  1  1  0
  3  2  1  0
  4  3  1  0
  5  7  1  0
  5  4  1  0
  5  6  1  6
  7  8  2  0
  9  7  1  0
  9 10  1  0
 10 11  1  6
 11 12  1  0
 12 17  2  0
 13 12  1  0
 13 14  2  0
 14 15  1  0
 15 16  2  0
 17 16  1  0
 18 20  1  0
 18 10  1  0
 19 18  2  0
 21 20  1  0
 22 24  1  0
 22 21  1  0
 23 22  2  0
M  END
$$$$
