CVC.pdb
     RDKit          3D

 20 19  0  0  1  0  0  0  0  0999 V2000
   15.2290  -11.4866  -11.4453 N   0  0  0  0  0  0  0  0  0  0  0  0
   16.0393  -10.2845  -11.4943 C   0  0  1  0  0  0  0  0  0  0  0  0
   16.6714  -10.2258  -12.8598 C   0  0  0  0  0  0  0  0  0  0  0  0
   17.9831  -11.5078  -12.8859 S   0  0  0  0  0  0  0  0  0  0  0  0
   15.2623   -9.0810  -11.1570 C   0  0  0  0  0  0  0  0  0  0  0  0
   14.1700   -8.8625  -11.7244 O   0  0  0  0  0  0  0  0  0  0  0  0
   15.6085   -7.2768   -7.4826 C   0  0  0  0  0  0  0  0  0  0  0  0
   14.4801   -7.1321   -8.4657 C   0  0  2  0  0  0  0  0  0  0  0  0
   13.4666   -8.2376   -8.2764 C   0  0  0  0  0  0  0  0  0  0  0  0
   14.9058   -6.9739   -9.8995 C   0  0  2  0  0  0  0  0  0  0  0  0
   15.7063   -8.1498  -10.2055 N   0  0  0  0  0  0  0  0  0  0  0  0
   15.6026   -5.7303  -10.2249 C   0  0  0  0  0  0  0  0  0  0  0  0
   16.8717   -5.6150  -10.0578 O   0  0  0  0  0  0  0  0  0  0  0  0
   14.9883   -4.5636  -10.7406 N   0  0  0  0  0  0  0  0  0  0  0  0
   15.7592   -3.3441  -11.0299 C   0  0  1  0  0  0  0  0  0  0  0  0
   15.6843   -3.0106  -12.5048 C   0  0  0  0  0  0  0  0  0  0  0  0
   16.5757   -1.4685  -12.8123 S   0  0  0  0  0  0  0  0  0  0  0  0
   15.1774   -2.2505  -10.2108 C   0  0  0  0  0  0  0  0  0  0  0  0
   13.9510   -2.2589   -9.8774 O   0  0  0  0  0  0  0  0  0  0  0  0
   15.9200   -1.1701   -9.7651 O   0  0  0  0  0  0  0  0  0  0  0  0
  2  1  1  6
  2  3  1  0
  4  3  1  0
  5  2  1  0
  6  5  2  0
  8  7  1  1
  8 10  1  0
  9  8  1  0
 10 12  1  0
 10 11  1  1
 11  5  1  0
 12 14  1  0
 13 12  2  0
 14 15  1  0
 15 16  1  6
 17 16  1  0
 18 15  1  0
 19 18  2  0
 20 18  1  0
M  END
$$$$
