CVC.pdb
     RDKit          3D

 20 19  0  0  1  0  0  0  0  0999 V2000
   18.7808  -25.9624  -10.0247 N   0  0  0  0  0  0  0  0  0  0  0  0
   18.3405  -25.0280   -9.0064 C   0  0  1  0  0  0  0  0  0  0  0  0
   17.6550  -23.8875   -9.7114 C   0  0  0  0  0  0  0  0  0  0  0  0
   18.9623  -22.6744  -10.1400 S   0  0  0  0  0  0  0  0  0  0  0  0
   17.4990  -25.6771   -7.9884 C   0  0  0  0  0  0  0  0  0  0  0  0
   16.6796  -26.5594   -8.3243 O   0  0  0  0  0  0  0  0  0  0  0  0
   18.5215  -25.4209   -3.8714 C   0  0  0  0  0  0  0  0  0  0  0  0
   17.8448  -26.5391   -4.6145 C   0  0  2  0  0  0  0  0  0  0  0  0
   18.8689  -27.4961   -5.1804 C   0  0  0  0  0  0  0  0  0  0  0  0
   16.8337  -26.0988   -5.6372 C   0  0  2  0  0  0  0  0  0  0  0  0
   17.5803  -25.3393   -6.6286 N   0  0  0  0  0  0  0  0  0  0  0  0
   15.6853  -25.3557   -5.1208 C   0  0  0  0  0  0  0  0  0  0  0  0
   15.7084  -24.0740   -5.0292 O   0  0  0  0  0  0  0  0  0  0  0  0
   14.4696  -25.9355   -4.6842 N   0  0  0  0  0  0  0  0  0  0  0  0
   13.3626  -25.1174   -4.1641 C   0  0  1  0  0  0  0  0  0  0  0  0
   12.0828  -25.9254   -4.1259 C   0  0  0  0  0  0  0  0  0  0  0  0
   10.7391  -24.8830   -3.5135 S   0  0  0  0  0  0  0  0  0  0  0  0
   13.7471  -24.6717   -2.8008 C   0  0  0  0  0  0  0  0  0  0  0  0
   14.4138  -25.4262   -2.0252 O   0  0  0  0  0  0  0  0  0  0  0  0
   13.4102  -23.4274   -2.2951 O   0  0  0  0  0  0  0  0  0  0  0  0
  2  1  1  6
  2  3  1  0
  4  3  1  0
  5  2  1  0
  6  5  2  0
  8  7  1  6
  8 10  1  0
  9  8  1  0
 10 12  1  0
 10 11  1  6
 11  5  1  0
 12 14  1  0
 13 12  2  0
 14 15  1  0
 15 16  1  1
 17 16  1  0
 18 15  1  0
 19 18  2  0
 20 18  1  0
M  END
$$$$
