CVC.pdb
     RDKit          3D

 20 19  0  0  1  0  0  0  0  0999 V2000
   29.2166  -19.4250  -15.0555 N   0  0  0  0  0  0  0  0  0  0  0  0
   27.9607  -18.9649  -14.4942 C   0  0  1  0  0  0  0  0  0  0  0  0
   27.1911  -18.2995  -15.6045 C   0  0  0  0  0  0  0  0  0  0  0  0
   28.0389  -16.7102  -15.9508 S   0  0  0  0  0  0  0  0  0  0  0  0
   27.2180  -20.0527  -13.8378 C   0  0  0  0  0  0  0  0  0  0  0  0
   27.7839  -21.1418  -13.6003 O   0  0  0  0  0  0  0  0  0  0  0  0
   25.6033  -21.9966  -10.3710 C   0  0  0  0  0  0  0  0  0  0  0  0
   25.8841  -20.8400  -11.2897 C   0  0  2  0  0  0  0  0  0  0  0  0
   25.6002  -19.5286  -10.5937 C   0  0  0  0  0  0  0  0  0  0  0  0
   25.2322  -20.9329  -12.6419 C   0  0  2  0  0  0  0  0  0  0  0  0
   25.8734  -19.9146  -13.4599 N   0  0  0  0  0  0  0  0  0  0  0  0
   23.7747  -20.8178  -12.6572 C   0  0  0  0  0  0  0  0  0  0  0  0
   23.1928  -19.6976  -12.4152 O   0  0  0  0  0  0  0  0  0  0  0  0
   22.8769  -21.8780  -12.9302 N   0  0  0  0  0  0  0  0  0  0  0  0
   21.5208  -21.6329  -13.4461 C   0  0  1  0  0  0  0  0  0  0  0  0
   21.0469  -22.8146  -14.2653 C   0  0  0  0  0  0  0  0  0  0  0  0
   22.2577  -23.1645  -15.5610 S   0  0  0  0  0  0  0  0  0  0  0  0
   20.6364  -21.4141  -12.2735 C   0  0  0  0  0  0  0  0  0  0  0  0
   21.0006  -21.7485  -11.1027 O   0  0  0  0  0  0  0  0  0  0  0  0
   19.3798  -20.8417  -12.3777 O   0  0  0  0  0  0  0  0  0  0  0  0
  2  1  1  6
  2  3  1  0
  4  3  1  0
  5  2  1  0
  6  5  2  0
  8  7  1  1
  8 10  1  0
  9  8  1  0
 10 12  1  0
 10 11  1  6
 11  5  1  0
 12 14  1  0
 13 12  2  0
 14 15  1  0
 15 16  1  1
 17 16  1  0
 18 15  1  0
 19 18  2  0
 20 18  1  0
M  END
$$$$
