CVC.pdb
     RDKit          3D

 20 19  0  0  1  0  0  0  0  0999 V2000
   24.4472  -13.2357  -18.0691 N   0  0  0  0  0  0  0  0  0  0  0  0
   24.3817  -12.3869  -16.8947 C   0  0  1  0  0  0  0  0  0  0  0  0
   25.7977  -12.1029  -16.4679 C   0  0  0  0  0  0  0  0  0  0  0  0
   26.4303  -13.6408  -15.6936 S   0  0  0  0  0  0  0  0  0  0  0  0
   23.5884  -11.1711  -17.1359 C   0  0  0  0  0  0  0  0  0  0  0  0
   23.8582  -10.4305  -18.1062 O   0  0  0  0  0  0  0  0  0  0  0  0
   19.6711  -10.9688  -15.8373 C   0  0  0  0  0  0  0  0  0  0  0  0
   20.3298  -10.2246  -16.9656 C   0  0  2  0  0  0  0  0  0  0  0  0
   20.3295  -11.0613  -18.2245 C   0  0  0  0  0  0  0  0  0  0  0  0
   21.6858   -9.6588  -16.6445 C   0  0  2  0  0  0  0  0  0  0  0  0
   22.5198  -10.8016  -16.3045 N   0  0  0  0  0  0  0  0  0  0  0  0
   21.7176   -8.6240  -15.6120 C   0  0  0  0  0  0  0  0  0  0  0  0
   21.7464   -8.9296  -14.3640 O   0  0  0  0  0  0  0  0  0  0  0  0
   21.7225   -7.2295  -15.8566 N   0  0  0  0  0  0  0  0  0  0  0  0
   21.6812   -6.2493  -14.7599 C   0  0  1  0  0  0  0  0  0  0  0  0
   22.5732   -5.0673  -15.0755 C   0  0  0  0  0  0  0  0  0  0  0  0
   22.4686   -3.8665  -13.7284 S   0  0  0  0  0  0  0  0  0  0  0  0
   20.2683   -5.8189  -14.6068 C   0  0  0  0  0  0  0  0  0  0  0  0
   19.4912   -5.7420  -15.6096 O   0  0  0  0  0  0  0  0  0  0  0  0
   19.7154   -5.4795  -13.3834 O   0  0  0  0  0  0  0  0  0  0  0  0
  2  1  1  6
  2  3  1  0
  4  3  1  0
  5  2  1  0
  6  5  2  0
  8  7  1  1
  8 10  1  0
  9  8  1  0
 10 12  1  0
 10 11  1  1
 11  5  1  0
 12 14  1  0
 13 12  2  0
 14 15  1  0
 15 16  1  6
 17 16  1  0
 18 15  1  0
 19 18  2  0
 20 18  1  0
M  END
$$$$
