CVC.pdb
     RDKit          3D

 20 19  0  0  1  0  0  0  0  0999 V2000
   13.7922  -11.1564  -11.1223 N   0  0  0  0  0  0  0  0  0  0  0  0
   15.0553  -10.7033  -10.5716 C   0  0  1  0  0  0  0  0  0  0  0  0
   16.1146  -11.6738  -11.0231 C   0  0  0  0  0  0  0  0  0  0  0  0
   15.8890  -13.1972  -10.0265 S   0  0  0  0  0  0  0  0  0  0  0  0
   15.3472   -9.3076  -10.9357 C   0  0  0  0  0  0  0  0  0  0  0  0
   15.1161   -8.9024  -12.0955 O   0  0  0  0  0  0  0  0  0  0  0  0
   16.0727   -4.6831   -9.5369 C   0  0  0  0  0  0  0  0  0  0  0  0
   15.7239   -6.1346   -9.3575 C   0  0  2  0  0  0  0  0  0  0  0  0
   16.1003   -6.6032   -7.9706 C   0  0  0  0  0  0  0  0  0  0  0  0
   16.2362   -7.0470  -10.4378 C   0  0  2  0  0  0  0  0  0  0  0  0
   15.8852   -8.3945  -10.0156 N   0  0  0  0  0  0  0  0  0  0  0  0
   17.6568   -6.9205  -10.7597 C   0  0  0  0  0  0  0  0  0  0  0  0
   18.5636   -7.2788   -9.9223 O   0  0  0  0  0  0  0  0  0  0  0  0
   18.1743   -6.4140  -11.9764 N   0  0  0  0  0  0  0  0  0  0  0  0
   19.6214   -6.2929  -12.2134 C   0  0  1  0  0  0  0  0  0  0  0  0
   20.1214   -7.4639  -13.0325 C   0  0  0  0  0  0  0  0  0  0  0  0
   21.8508   -7.1837  -13.4774 S   0  0  0  0  0  0  0  0  0  0  0  0
   19.8444   -5.0123  -12.9314 C   0  0  0  0  0  0  0  0  0  0  0  0
   18.9216   -4.4744  -13.6201 O   0  0  0  0  0  0  0  0  0  0  0  0
   21.0507   -4.3332  -12.8977 O   0  0  0  0  0  0  0  0  0  0  0  0
  2  1  1  6
  2  3  1  0
  4  3  1  0
  5  2  1  0
  6  5  2  0
  8  7  1  6
  8 10  1  0
  9  8  1  0
 10 12  1  0
 10 11  1  1
 11  5  1  0
 12 14  1  0
 13 12  2  0
 14 15  1  0
 15 16  1  6
 17 16  1  0
 18 15  1  0
 19 18  2  0
 20 18  1  0
M  END
$$$$
