CVC.pdb
     RDKit          3D

 20 19  0  0  1  0  0  0  0  0999 V2000
   16.8471  -13.0132  -15.0622 N   0  0  0  0  0  0  0  0  0  0  0  0
   17.0757  -11.9017  -15.9656 C   0  0  1  0  0  0  0  0  0  0  0  0
   15.7265  -11.3852  -16.3906 C   0  0  0  0  0  0  0  0  0  0  0  0
   14.8916  -12.7613  -17.2703 S   0  0  0  0  0  0  0  0  0  0  0  0
   17.9345  -10.8690  -15.3641 C   0  0  0  0  0  0  0  0  0  0  0  0
   17.7865  -10.5542  -14.1633 O   0  0  0  0  0  0  0  0  0  0  0  0
   21.7543  -10.6614  -15.2440 C   0  0  0  0  0  0  0  0  0  0  0  0
   21.1506   -9.4368  -15.8739 C   0  0  2  0  0  0  0  0  0  0  0  0
   22.0541   -8.2405  -15.6804 C   0  0  0  0  0  0  0  0  0  0  0  0
   19.7262   -9.1588  -15.4792 C   0  0  2  0  0  0  0  0  0  0  0  0
   18.9328  -10.2099  -16.0979 N   0  0  0  0  0  0  0  0  0  0  0  0
   19.2235   -7.8241  -15.8012 C   0  0  0  0  0  0  0  0  0  0  0  0
   19.0378   -7.4587  -17.0193 O   0  0  0  0  0  0  0  0  0  0  0  0
   18.8959   -6.8263  -14.8516 N   0  0  0  0  0  0  0  0  0  0  0  0
   18.4774   -5.4755  -15.2585 C   0  0  1  0  0  0  0  0  0  0  0  0
   17.2471   -5.0496  -14.4857 C   0  0  0  0  0  0  0  0  0  0  0  0
   16.9598   -3.2847  -14.7500 S   0  0  0  0  0  0  0  0  0  0  0  0
   19.6153   -4.5612  -14.9860 C   0  0  0  0  0  0  0  0  0  0  0  0
   20.3777   -4.7392  -13.9849 O   0  0  0  0  0  0  0  0  0  0  0  0
   19.9143   -3.4746  -15.7906 O   0  0  0  0  0  0  0  0  0  0  0  0
  2  1  1  1
  2  3  1  0
  4  3  1  0
  5  2  1  0
  6  5  2  0
  8  7  1  1
  8 10  1  0
  9  8  1  0
 10 12  1  0
 10 11  1  6
 11  5  1  0
 12 14  1  0
 13 12  2  0
 14 15  1  0
 15 16  1  1
 17 16  1  0
 18 15  1  0
 19 18  2  0
 20 18  1  0
M  END
$$$$
