CVC.pdb
     RDKit          3D

 20 19  0  0  1  0  0  0  0  0999 V2000
   28.5979  -19.7762  -15.9759 N   0  0  0  0  0  0  0  0  0  0  0  0
   27.8075  -19.1310  -14.9448 C   0  0  1  0  0  0  0  0  0  0  0  0
   27.2263  -17.8778  -15.5444 C   0  0  0  0  0  0  0  0  0  0  0  0
   26.4869  -16.9283  -14.1601 S   0  0  0  0  0  0  0  0  0  0  0  0
   26.7924  -20.0350  -14.3808 C   0  0  0  0  0  0  0  0  0  0  0  0
   26.1649  -20.8154  -15.1292 O   0  0  0  0  0  0  0  0  0  0  0  0
   25.2766  -19.8913  -10.1897 C   0  0  0  0  0  0  0  0  0  0  0  0
   25.7009  -21.0645  -11.0290 C   0  0  2  0  0  0  0  0  0  0  0  0
   27.1335  -21.4414  -10.7282 C   0  0  0  0  0  0  0  0  0  0  0  0
   25.4360  -20.9178  -12.5022 C   0  0  2  0  0  0  0  0  0  0  0  0
   26.4939  -20.0573  -13.0096 N   0  0  0  0  0  0  0  0  0  0  0  0
   24.1056  -20.4325  -12.8664 C   0  0  0  0  0  0  0  0  0  0  0  0
   23.8237  -19.1789  -12.8386 O   0  0  0  0  0  0  0  0  0  0  0  0
   23.0243  -21.2500  -13.2753 N   0  0  0  0  0  0  0  0  0  0  0  0
   21.6921  -20.6915  -13.5551 C   0  0  1  0  0  0  0  0  0  0  0  0
   21.4045  -20.7330  -15.0409 C   0  0  0  0  0  0  0  0  0  0  0  0
   19.6909  -20.2354  -15.3295 S   0  0  0  0  0  0  0  0  0  0  0  0
   20.7055  -21.5077  -12.8030 C   0  0  0  0  0  0  0  0  0  0  0  0
   19.6742  -20.9786  -12.2818 O   0  0  0  0  0  0  0  0  0  0  0  0
   20.8428  -22.8740  -12.6239 O   0  0  0  0  0  0  0  0  0  0  0  0
  2  1  1  6
  2  3  1  0
  4  3  1  0
  5  2  1  0
  6  5  2  0
  8  7  1  1
  8 10  1  0
  9  8  1  0
 10 12  1  0
 10 11  1  1
 11  5  1  0
 12 14  1  0
 13 12  2  0
 14 15  1  0
 15 16  1  6
 17 16  1  0
 18 15  1  0
 19 18  2  0
 20 18  1  0
M  END
$$$$
