CVC.pdb
     RDKit          3D

 20 19  0  0  1  0  0  0  0  0999 V2000
   16.9581  -10.3671  -12.6026 N   0  0  0  0  0  0  0  0  0  0  0  0
   17.4159   -9.3237  -11.7050 C   0  0  1  0  0  0  0  0  0  0  0  0
   18.6089   -8.6694  -12.3502 C   0  0  0  0  0  0  0  0  0  0  0  0
   19.9529   -9.9177  -12.3546 S   0  0  0  0  0  0  0  0  0  0  0  0
   16.3416   -8.3769  -11.3658 C   0  0  0  0  0  0  0  0  0  0  0  0
   15.5619   -7.9711  -12.2547 O   0  0  0  0  0  0  0  0  0  0  0  0
   12.8880   -7.1044   -8.4024 C   0  0  0  0  0  0  0  0  0  0  0  0
   14.1745   -7.7856   -8.7786 C   0  0  2  0  0  0  0  0  0  0  0  0
   14.9310   -8.2112   -7.5410 C   0  0  0  0  0  0  0  0  0  0  0  0
   15.0330   -7.0245   -9.7511 C   0  0  2  0  0  0  0  0  0  0  0  0
   16.1527   -7.9012  -10.0590 N   0  0  0  0  0  0  0  0  0  0  0  0
   15.4714   -5.6997   -9.3146 C   0  0  0  0  0  0  0  0  0  0  0  0
   16.4503   -5.5594   -8.4937 O   0  0  0  0  0  0  0  0  0  0  0  0
   14.8960   -4.4741   -9.7287 N   0  0  0  0  0  0  0  0  0  0  0  0
   15.4255   -3.1771   -9.2786 C   0  0  1  0  0  0  0  0  0  0  0  0
   15.3476   -2.1593  -10.3966 C   0  0  0  0  0  0  0  0  0  0  0  0
   16.2622   -2.7767  -11.8283 S   0  0  0  0  0  0  0  0  0  0  0  0
   14.6086   -2.7477   -8.1152 C   0  0  0  0  0  0  0  0  0  0  0  0
   13.5073   -3.3181   -7.8377 O   0  0  0  0  0  0  0  0  0  0  0  0
   14.9869   -1.7164   -7.2722 O   0  0  0  0  0  0  0  0  0  0  0  0
  2  1  1  6
  2  3  1  0
  4  3  1  0
  5  2  1  0
  6  5  2  0
  8  7  1  1
  8 10  1  0
  9  8  1  0
 10 12  1  0
 10 11  1  1
 11  5  1  0
 12 14  1  0
 13 12  2  0
 14 15  1  0
 15 16  1  6
 17 16  1  0
 18 15  1  0
 19 18  2  0
 20 18  1  0
M  END
$$$$
