CVC.pdb
     RDKit          3D

 20 19  0  0  1  0  0  0  0  0999 V2000
   24.5987  -12.9101  -15.8766 N   0  0  0  0  0  0  0  0  0  0  0  0
   23.4622  -12.0883  -16.2467 C   0  0  1  0  0  0  0  0  0  0  0  0
   22.3918  -12.3118  -15.2113 C   0  0  0  0  0  0  0  0  0  0  0  0
   21.7550  -14.0118  -15.4741 S   0  0  0  0  0  0  0  0  0  0  0  0
   23.8335  -10.6734  -16.4084 C   0  0  0  0  0  0  0  0  0  0  0  0
   24.7681  -10.1910  -15.7327 O   0  0  0  0  0  0  0  0  0  0  0  0
   24.1565   -6.8134  -19.3064 C   0  0  0  0  0  0  0  0  0  0  0  0
   23.7118   -8.1986  -18.9268 C   0  0  2  0  0  0  0  0  0  0  0  0
   22.4702   -8.5868  -19.6967 C   0  0  0  0  0  0  0  0  0  0  0  0
   23.5764   -8.4370  -17.4480 C   0  0  2  0  0  0  0  0  0  0  0  0
   23.1679   -9.8265  -17.3080 N   0  0  0  0  0  0  0  0  0  0  0  0
   22.6858   -7.5240  -16.7330 C   0  0  0  0  0  0  0  0  0  0  0  0
   21.4124   -7.6978  -16.7359 O   0  0  0  0  0  0  0  0  0  0  0  0
   23.1044   -6.3957  -15.9871 N   0  0  0  0  0  0  0  0  0  0  0  0
   22.1455   -5.5404  -15.2700 C   0  0  1  0  0  0  0  0  0  0  0  0
   22.4725   -5.5058  -13.7922 C   0  0  0  0  0  0  0  0  0  0  0  0
   21.4039   -4.2990  -12.9743 S   0  0  0  0  0  0  0  0  0  0  0  0
   22.2373   -4.1823  -15.8635 C   0  0  0  0  0  0  0  0  0  0  0  0
   23.2934   -3.7913  -16.4525 O   0  0  0  0  0  0  0  0  0  0  0  0
   21.1968   -3.2700  -15.8145 O   0  0  0  0  0  0  0  0  0  0  0  0
  2  1  1  1
  2  3  1  0
  4  3  1  0
  5  2  1  0
  6  5  2  0
  8  7  1  1
  8 10  1  0
  9  8  1  0
 10 12  1  0
 10 11  1  6
 11  5  1  0
 12 14  1  0
 13 12  2  0
 14 15  1  0
 15 16  1  1
 17 16  1  0
 18 15  1  0
 19 18  2  0
 20 18  1  0
M  END
$$$$
