CVC.pdb
     RDKit          3D

 20 19  0  0  1  0  0  0  0  0999 V2000
   29.0972  -21.8213  -18.2026 N   0  0  0  0  0  0  0  0  0  0  0  0
   28.4012  -22.4498  -17.0960 C   0  0  1  0  0  0  0  0  0  0  0  0
   29.3970  -23.3220  -16.3780 C   0  0  0  0  0  0  0  0  0  0  0  0
   29.3177  -24.9728  -17.1738 S   0  0  0  0  0  0  0  0  0  0  0  0
   27.7505  -21.4619  -16.2206 C   0  0  0  0  0  0  0  0  0  0  0  0
   28.3165  -20.3744  -15.9758 O   0  0  0  0  0  0  0  0  0  0  0  0
   25.1007  -19.4494  -16.8448 C   0  0  0  0  0  0  0  0  0  0  0  0
   24.7273  -20.1350  -15.5599 C   0  0  2  0  0  0  0  0  0  0  0  0
   23.8332  -19.2470  -14.7251 C   0  0  0  0  0  0  0  0  0  0  0  0
   25.8862  -20.6909  -14.7789 C   0  0  2  0  0  0  0  0  0  0  0  0
   26.4954  -21.6952  -15.6376 N   0  0  0  0  0  0  0  0  0  0  0  0
   25.5684  -21.2166  -13.4520 C   0  0  0  0  0  0  0  0  0  0  0  0
   24.7528  -22.1985  -13.3029 O   0  0  0  0  0  0  0  0  0  0  0  0
   26.1000  -20.7285  -12.2339 N   0  0  0  0  0  0  0  0  0  0  0  0
   25.5351  -21.1140  -10.9311 C   0  0  1  0  0  0  0  0  0  0  0  0
   26.2482  -20.3865   -9.8112 C   0  0  0  0  0  0  0  0  0  0  0  0
   25.5658  -20.9210   -8.2250 S   0  0  0  0  0  0  0  0  0  0  0  0
   24.0925  -20.7624  -10.9552 C   0  0  0  0  0  0  0  0  0  0  0  0
   23.6967  -19.6359  -11.3906 O   0  0  0  0  0  0  0  0  0  0  0  0
   23.1026  -21.6238  -10.5129 O   0  0  0  0  0  0  0  0  0  0  0  0
  2  1  1  6
  2  3  1  0
  4  3  1  0
  5  2  1  0
  6  5  2  0
  8  7  1  6
  8 10  1  0
  9  8  1  0
 10 12  1  0
 10 11  1  6
 11  5  1  0
 12 14  1  0
 13 12  2  0
 14 15  1  0
 15 16  1  1
 17 16  1  0
 18 15  1  0
 19 18  2  0
 20 18  1  0
M  END
$$$$
