CVC.pdb
     RDKit          3D

 20 19  0  0  1  0  0  0  0  0999 V2000
   19.4876  -13.3464  -17.7711 N   0  0  0  0  0  0  0  0  0  0  0  0
   18.9097  -12.3240  -16.9199 C   0  0  1  0  0  0  0  0  0  0  0  0
   19.1304  -12.7518  -15.4930 C   0  0  0  0  0  0  0  0  0  0  0  0
   17.9107  -14.0780  -15.1487 S   0  0  0  0  0  0  0  0  0  0  0  0
   19.4474  -10.9873  -17.2197 C   0  0  0  0  0  0  0  0  0  0  0  0
   20.6492  -10.8534  -17.5368 O   0  0  0  0  0  0  0  0  0  0  0  0
   18.5079   -6.6232  -19.0927 C   0  0  0  0  0  0  0  0  0  0  0  0
   18.1668   -7.9788  -18.5387 C   0  0  2  0  0  0  0  0  0  0  0  0
   16.7686   -7.9807  -17.9642 C   0  0  0  0  0  0  0  0  0  0  0  0
   19.1851   -8.5496  -17.5905 C   0  0  2  0  0  0  0  0  0  0  0  0
   18.6503   -9.8336  -17.1631 N   0  0  0  0  0  0  0  0  0  0  0  0
   19.5515   -7.6988  -16.4592 C   0  0  0  0  0  0  0  0  0  0  0  0
   18.8036   -7.6184  -15.4171 O   0  0  0  0  0  0  0  0  0  0  0  0
   20.7204   -6.9035  -16.3834 N   0  0  0  0  0  0  0  0  0  0  0  0
   21.0618   -6.1395  -15.1730 C   0  0  1  0  0  0  0  0  0  0  0  0
   22.5643   -6.0694  -15.0003 C   0  0  0  0  0  0  0  0  0  0  0  0
   22.9507   -5.0460  -13.5613 S   0  0  0  0  0  0  0  0  0  0  0  0
   20.4843   -4.7808  -15.3323 C   0  0  0  0  0  0  0  0  0  0  0  0
   20.3953   -4.2332  -16.4758 O   0  0  0  0  0  0  0  0  0  0  0  0
   20.0135   -4.0355  -14.2644 O   0  0  0  0  0  0  0  0  0  0  0  0
  2  1  1  6
  2  3  1  0
  4  3  1  0
  5  2  1  0
  6  5  2  0
  8  7  1  1
  8 10  1  0
  9  8  1  0
 10 12  1  0
 10 11  1  1
 11  5  1  0
 12 14  1  0
 13 12  2  0
 14 15  1  0
 15 16  1  6
 17 16  1  0
 18 15  1  0
 19 18  2  0
 20 18  1  0
M  END
$$$$
