CVC.pdb
     RDKit          3D

 20 19  0  0  1  0  0  0  0  0999 V2000
   24.1594  -12.0751  -17.6094 N   0  0  0  0  0  0  0  0  0  0  0  0
   23.9987  -11.1429  -16.5098 C   0  0  1  0  0  0  0  0  0  0  0  0
   25.3759  -10.6932  -16.0989 C   0  0  0  0  0  0  0  0  0  0  0  0
   26.1802  -12.1336  -15.2969 S   0  0  0  0  0  0  0  0  0  0  0  0
   23.0991  -10.0308  -16.8559 C   0  0  0  0  0  0  0  0  0  0  0  0
   23.1526   -9.5139  -17.9930 O   0  0  0  0  0  0  0  0  0  0  0  0
   19.4575  -10.0531  -17.1199 C   0  0  0  0  0  0  0  0  0  0  0  0
   19.8727   -8.9931  -16.1378 C   0  0  2  0  0  0  0  0  0  0  0  0
   18.8256   -7.9059  -16.0563 C   0  0  0  0  0  0  0  0  0  0  0  0
   21.2599   -8.4491  -16.3422 C   0  0  2  0  0  0  0  0  0  0  0  0
   22.1650   -9.5164  -15.9435 N   0  0  0  0  0  0  0  0  0  0  0  0
   21.5578   -7.1887  -15.6635 C   0  0  0  0  0  0  0  0  0  0  0  0
   21.6571   -7.1292  -14.3835 O   0  0  0  0  0  0  0  0  0  0  0  0
   21.7643   -5.9454  -16.3086 N   0  0  0  0  0  0  0  0  0  0  0  0
   21.9963   -4.7065  -15.5494 C   0  0  1  0  0  0  0  0  0  0  0  0
   22.9066   -3.7766  -16.3233 C   0  0  0  0  0  0  0  0  0  0  0  0
   23.1682   -2.2664  -15.3651 S   0  0  0  0  0  0  0  0  0  0  0  0
   20.6713   -4.0772  -15.3180 C   0  0  0  0  0  0  0  0  0  0  0  0
   19.7585   -4.1208  -16.2013 O   0  0  0  0  0  0  0  0  0  0  0  0
   20.3501   -3.4137  -14.1458 O   0  0  0  0  0  0  0  0  0  0  0  0
  2  1  1  6
  2  3  1  0
  4  3  1  0
  5  2  1  0
  6  5  2  0
  8  7  1  6
  8 10  1  0
  9  8  1  0
 10 12  1  0
 10 11  1  1
 11  5  1  0
 12 14  1  0
 13 12  2  0
 14 15  1  0
 15 16  1  6
 17 16  1  0
 18 15  1  0
 19 18  2  0
 20 18  1  0
M  END
$$$$
