WVW.pdb
     RDKit          3D

 36 39  0  0  1  0  0  0  0  0999 V2000
    5.6058  -19.4966   20.4163 N   0  0  0  0  0  0  0  0  0  0  0  0
    6.3687  -19.0675   21.5394 C   0  0  1  0  0  0  0  0  0  0  0  0
    6.9175  -20.1592   22.3703 C   0  0  0  0  0  0  0  0  0  0  0  0
    6.9383  -19.7977   23.7918 C   0  0  0  0  0  0  0  0  0  0  0  0
    5.7897  -19.7211   24.5677 C   0  0  0  0  0  0  0  0  0  0  0  0
    6.1006  -19.4125   25.8278 N   0  0  0  0  0  0  0  0  0  0  0  0
    7.4412  -19.2908   25.8615 C   0  0  0  0  0  0  0  0  0  0  0  0
    8.2936  -18.9770   26.8955 C   0  0  0  0  0  0  0  0  0  0  0  0
    9.6545  -18.8866   26.7313 C   0  0  0  0  0  0  0  0  0  0  0  0
   10.1940  -19.1135   25.5032 C   0  0  0  0  0  0  0  0  0  0  0  0
    9.3576  -19.4299   24.4517 C   0  0  0  0  0  0  0  0  0  0  0  0
    7.9817  -19.5278   24.5956 C   0  0  0  0  0  0  0  0  0  0  0  0
    7.3927  -18.0043   21.2142 C   0  0  0  0  0  0  0  0  0  0  0  0
    8.5331  -18.3796   20.8368 O   0  0  0  0  0  0  0  0  0  0  0  0
    8.0058  -13.0169   20.8675 C   0  0  0  0  0  0  0  0  0  0  0  0
    7.0838  -14.2114   21.0660 C   0  0  1  0  0  0  0  0  0  0  0  0
    6.5131  -14.4636   19.6610 C   0  0  0  0  0  0  0  0  0  0  0  0
    7.9265  -15.4728   21.3663 C   0  0  2  0  0  0  0  0  0  0  0  0
    7.0887  -16.6614   21.3273 N   0  0  0  0  0  0  0  0  0  0  0  0
    8.4442  -15.3333   22.7372 C   0  0  0  0  0  0  0  0  0  0  0  0
    7.8623  -14.4901   23.5149 O   0  0  0  0  0  0  0  0  0  0  0  0
    9.5144  -16.0220   23.3293 N   0  0  0  0  0  0  0  0  0  0  0  0
   10.3391  -15.4612   24.3993 C   0  0  1  0  0  0  0  0  0  0  0  0
    9.6618  -15.8983   25.6719 C   0  0  0  0  0  0  0  0  0  0  0  0
    8.3067  -15.3866   25.8557 C   0  0  0  0  0  0  0  0  0  0  0  0
    7.1263  -16.1113   25.6401 C   0  0  0  0  0  0  0  0  0  0  0  0
    6.0647  -15.3383   25.8668 N   0  0  0  0  0  0  0  0  0  0  0  0
    6.4833  -14.1205   26.2277 C   0  0  0  0  0  0  0  0  0  0  0  0
    5.8385  -12.9465   26.5909 C   0  0  0  0  0  0  0  0  0  0  0  0
    6.5551  -11.8437   26.9358 C   0  0  0  0  0  0  0  0  0  0  0  0
    7.9351  -11.8378   26.9416 C   0  0  0  0  0  0  0  0  0  0  0  0
    8.5855  -12.9811   26.5870 C   0  0  0  0  0  0  0  0  0  0  0  0
    7.8771  -14.1199   26.2300 C   0  0  0  0  0  0  0  0  0  0  0  0
   11.7300  -15.8277   24.3679 C   0  0  0  0  0  0  0  0  0  0  0  0
   12.5467  -15.3283   25.1784 O   0  0  0  0  0  0  0  0  0  0  0  0
   12.2225  -16.7400   23.4497 O   0  0  0  0  0  0  0  0  0  0  0  0
  2  1  1  6
  3  2  1  0
  4  3  1  0
  4  5  2  0
  6  5  1  0
  7 12  2  0
  7  6  1  0
  8  7  1  0
  9 10  1  0
  9  8  2  0
 10 11  2  0
 11 12  1  0
 12  4  1  0
 13  2  1  0
 14 13  2  0
 16 15  1  6
 16 18  1  0
 17 16  1  0
 18 20  1  0
 18 19  1  1
 19 13  1  0
 20 21  2  0
 22 23  1  0
 22 20  1  0
 23 24  1  1
 24 25  1  0
 25 33  1  0
 26 25  2  0
 26 27  1  0
 27 28  1  0
 28 29  1  0
 29 30  2  0
 31 30  1  0
 32 31  2  0
 33 28  2  0
 33 32  1  0
 34 36  1  0
 34 23  1  0
 35 34  2  0
M  END
$$$$
