WVW.pdb
     RDKit          3D

 36 39  0  0  1  0  0  0  0  0999 V2000
    5.8688  -19.9106   21.4330 N   0  0  0  0  0  0  0  0  0  0  0  0
    6.8207  -19.1931   22.2118 C   0  0  1  0  0  0  0  0  0  0  0  0
    7.6389  -20.0282   23.1155 C   0  0  0  0  0  0  0  0  0  0  0  0
    7.3410  -19.7503   24.5247 C   0  0  0  0  0  0  0  0  0  0  0  0
    6.1294  -20.0771   25.1184 C   0  0  0  0  0  0  0  0  0  0  0  0
    6.1434  -19.7502   26.4117 N   0  0  0  0  0  0  0  0  0  0  0  0
    7.3566  -19.2160   26.6478 C   0  0  0  0  0  0  0  0  0  0  0  0
    7.9087  -18.7030   27.7995 C   0  0  0  0  0  0  0  0  0  0  0  0
    9.1792  -18.1821   27.8429 C   0  0  0  0  0  0  0  0  0  0  0  0
    9.9319  -18.1663   26.7098 C   0  0  0  0  0  0  0  0  0  0  0  0
    9.3981  -18.6759   25.5433 C   0  0  0  0  0  0  0  0  0  0  0  0
    8.1189  -19.2075   25.4776 C   0  0  0  0  0  0  0  0  0  0  0  0
    7.6445  -18.2066   21.4161 C   0  0  0  0  0  0  0  0  0  0  0  0
    8.6570  -18.6397   20.8071 O   0  0  0  0  0  0  0  0  0  0  0  0
    6.4754  -14.1833   22.1714 C   0  0  0  0  0  0  0  0  0  0  0  0
    7.0755  -14.4798   20.8045 C   0  0  1  0  0  0  0  0  0  0  0  0
    8.0114  -13.2861   20.5551 C   0  0  0  0  0  0  0  0  0  0  0  0
    8.0273  -15.6943   20.9082 C   0  0  2  0  0  0  0  0  0  0  0  0
    7.2987  -16.8704   21.3578 N   0  0  0  0  0  0  0  0  0  0  0  0
    9.0340  -15.3712   21.9323 C   0  0  0  0  0  0  0  0  0  0  0  0
    9.9164  -14.4803   21.6457 O   0  0  0  0  0  0  0  0  0  0  0  0
    9.1598  -15.9153   23.2201 N   0  0  0  0  0  0  0  0  0  0  0  0
   10.1387  -15.4457   24.2003 C   0  0  1  0  0  0  0  0  0  0  0  0
    9.5683  -15.8525   25.5339 C   0  0  0  0  0  0  0  0  0  0  0  0
    8.2037  -15.3976   25.7849 C   0  0  0  0  0  0  0  0  0  0  0  0
    7.0598  -16.2077   25.7720 C   0  0  0  0  0  0  0  0  0  0  0  0
    5.9734  -15.4723   26.0059 N   0  0  0  0  0  0  0  0  0  0  0  0
    6.3402  -14.1977   26.1771 C   0  0  0  0  0  0  0  0  0  0  0  0
    5.6534  -13.0250   26.4580 C   0  0  0  0  0  0  0  0  0  0  0  0
    6.3226  -11.8498   26.5983 C   0  0  0  0  0  0  0  0  0  0  0  0
    7.6942  -11.7669   26.4705 C   0  0  0  0  0  0  0  0  0  0  0  0
    8.3854  -12.9079   26.1938 C   0  0  0  0  0  0  0  0  0  0  0  0
    7.7255  -14.1198   26.0451 C   0  0  0  0  0  0  0  0  0  0  0  0
   11.4828  -15.9235   24.0132 C   0  0  0  0  0  0  0  0  0  0  0  0
   12.4255  -15.4881   24.7169 O   0  0  0  0  0  0  0  0  0  0  0  0
   11.7908  -16.8765   23.0568 O   0  0  0  0  0  0  0  0  0  0  0  0
  2  1  1  6
  3  2  1  0
  4  3  1  0
  4  5  2  0
  6  5  1  0
  7 12  2  0
  7  6  1  0
  8  7  1  0
  9 10  1  0
  9  8  2  0
 10 11  2  0
 11 12  1  0
 12  4  1  0
 13  2  1  0
 14 13  2  0
 16 15  1  1
 16 18  1  0
 17 16  1  0
 18 20  1  0
 18 19  1  1
 19 13  1  0
 20 21  2  0
 22 23  1  0
 22 20  1  0
 23 24  1  1
 24 25  1  0
 25 33  1  0
 26 25  2  0
 26 27  1  0
 27 28  1  0
 28 29  1  0
 29 30  2  0
 31 30  1  0
 32 31  2  0
 33 28  2  0
 33 32  1  0
 34 36  1  0
 34 23  1  0
 35 34  2  0
M  END
$$$$
