WVW.pdb
     RDKit          3D

 36 39  0  0  1  0  0  0  0  0999 V2000
    5.4985  -18.2396   24.7738 N   0  0  0  0  0  0  0  0  0  0  0  0
    6.2254  -17.0204   24.6612 C   0  0  1  0  0  0  0  0  0  0  0  0
    6.6116  -16.4072   25.9489 C   0  0  0  0  0  0  0  0  0  0  0  0
    6.0062  -15.0819   26.1190 C   0  0  0  0  0  0  0  0  0  0  0  0
    4.7209  -14.8969   26.6098 C   0  0  0  0  0  0  0  0  0  0  0  0
    4.4409  -13.5956   26.6984 N   0  0  0  0  0  0  0  0  0  0  0  0
    5.5395  -12.9479   26.2663 C   0  0  0  0  0  0  0  0  0  0  0  0
    5.8020  -11.6032   26.1355 C   0  0  0  0  0  0  0  0  0  0  0  0
    6.9979  -11.1257   25.6569 C   0  0  0  0  0  0  0  0  0  0  0  0
    7.9696  -12.0060   25.2940 C   0  0  0  0  0  0  0  0  0  0  0  0
    7.7279  -13.3594   25.4171 C   0  0  0  0  0  0  0  0  0  0  0  0
    6.5288  -13.8628   25.8990 C   0  0  0  0  0  0  0  0  0  0  0  0
    7.3660  -17.0764   23.6710 C   0  0  0  0  0  0  0  0  0  0  0  0
    8.0101  -18.1532   23.5736 O   0  0  0  0  0  0  0  0  0  0  0  0
    9.5758  -14.2580   20.0903 C   0  0  0  0  0  0  0  0  0  0  0  0
    8.5205  -14.4241   21.1743 C   0  0  1  0  0  0  0  0  0  0  0  0
    7.2238  -14.6575   20.3823 C   0  0  0  0  0  0  0  0  0  0  0  0
    8.7530  -15.7562   21.9247 C   0  0  2  0  0  0  0  0  0  0  0  0
    7.6934  -15.9808   22.8958 N   0  0  0  0  0  0  0  0  0  0  0  0
   10.0188  -15.6231   22.6641 C   0  0  0  0  0  0  0  0  0  0  0  0
   10.2851  -14.4830   23.1969 O   0  0  0  0  0  0  0  0  0  0  0  0
   10.9998  -16.6039   22.8784 N   0  0  0  0  0  0  0  0  0  0  0  0
   12.2993  -16.3230   23.4882 C   0  0  1  0  0  0  0  0  0  0  0  0
   12.3480  -17.2072   24.7069 C   0  0  0  0  0  0  0  0  0  0  0  0
   11.2815  -16.9778   25.6773 C   0  0  0  0  0  0  0  0  0  0  0  0
   10.1760  -17.8141   25.8856 C   0  0  0  0  0  0  0  0  0  0  0  0
    9.3774  -17.2964   26.8184 N   0  0  0  0  0  0  0  0  0  0  0  0
    9.9018  -16.1437   27.2481 C   0  0  0  0  0  0  0  0  0  0  0  0
    9.5227  -15.2055   28.1977 C   0  0  0  0  0  0  0  0  0  0  0  0
   10.2945  -14.1111   28.4333 C   0  0  0  0  0  0  0  0  0  0  0  0
   11.4726  -13.8837   27.7514 C   0  0  0  0  0  0  0  0  0  0  0  0
   11.8604  -14.7936   26.8146 C   0  0  0  0  0  0  0  0  0  0  0  0
   11.0899  -15.9184   26.5549 C   0  0  0  0  0  0  0  0  0  0  0  0
   13.4403  -16.5107   22.6321 C   0  0  0  0  0  0  0  0  0  0  0  0
   14.6012  -16.2747   23.0443 O   0  0  0  0  0  0  0  0  0  0  0  0
   13.3070  -16.9565   21.3277 O   0  0  0  0  0  0  0  0  0  0  0  0
  2  1  1  1
  3  2  1  0
  4  3  1  0
  4  5  2  0
  6  5  1  0
  7 12  2  0
  7  6  1  0
  8  7  1  0
  9 10  1  0
  9  8  2  0
 10 11  2  0
 11 12  1  0
 12  4  1  0
 13  2  1  0
 14 13  2  0
 16 15  1  6
 16 18  1  0
 17 16  1  0
 18 20  1  0
 18 19  1  1
 19 13  1  0
 20 21  2  0
 22 23  1  0
 22 20  1  0
 23 24  1  1
 24 25  1  0
 25 33  1  0
 26 25  2  0
 26 27  1  0
 27 28  1  0
 28 29  1  0
 29 30  2  0
 31 30  1  0
 32 31  2  0
 33 28  2  0
 33 32  1  0
 34 36  1  0
 34 23  1  0
 35 34  2  0
M  END
$$$$
