WVW.pdb
     RDKit          3D

 36 39  0  0  1  0  0  0  0  0999 V2000
    7.6239  -18.0613   20.3202 N   0  0  0  0  0  0  0  0  0  0  0  0
    8.0463  -17.1798   21.3557 C   0  0  1  0  0  0  0  0  0  0  0  0
    7.0624  -16.1415   21.7262 C   0  0  0  0  0  0  0  0  0  0  0  0
    6.9414  -15.1161   20.6842 C   0  0  0  0  0  0  0  0  0  0  0  0
    5.9881  -15.1731   19.6766 C   0  0  0  0  0  0  0  0  0  0  0  0
    6.0763  -14.0971   18.8930 N   0  0  0  0  0  0  0  0  0  0  0  0
    7.0808  -13.3531   19.3936 C   0  0  0  0  0  0  0  0  0  0  0  0
    7.6089  -12.1520   18.9775 C   0  0  0  0  0  0  0  0  0  0  0  0
    8.6591  -11.5430   19.6205 C   0  0  0  0  0  0  0  0  0  0  0  0
    9.2083  -12.1400   20.7126 C   0  0  0  0  0  0  0  0  0  0  0  0
    8.6942  -13.3449   21.1475 C   0  0  0  0  0  0  0  0  0  0  0  0
    7.6339  -13.9762   20.5144 C   0  0  0  0  0  0  0  0  0  0  0  0
    8.6387  -17.8833   22.5552 C   0  0  0  0  0  0  0  0  0  0  0  0
    8.0419  -18.8991   22.9975 O   0  0  0  0  0  0  0  0  0  0  0  0
   12.4867  -16.8814   22.9034 C   0  0  0  0  0  0  0  0  0  0  0  0
   12.0994  -18.1227   23.6943 C   0  0  1  0  0  0  0  0  0  0  0  0
   12.9499  -18.0168   24.9705 C   0  0  0  0  0  0  0  0  0  0  0  0
   10.6428  -17.9850   24.1953 C   0  0  2  0  0  0  0  0  0  0  0  0
    9.7994  -17.4270   23.1496 N   0  0  0  0  0  0  0  0  0  0  0  0
   10.6573  -17.0317   25.3168 C   0  0  0  0  0  0  0  0  0  0  0  0
   11.0878  -15.8417   25.0867 O   0  0  0  0  0  0  0  0  0  0  0  0
   10.2458  -17.2511   26.6407 N   0  0  0  0  0  0  0  0  0  0  0  0
   10.5547  -16.3386   27.7414 C   0  0  1  0  0  0  0  0  0  0  0  0
    9.2329  -16.1047   28.4253 C   0  0  0  0  0  0  0  0  0  0  0  0
    8.1455  -15.6964   27.5407 C   0  0  0  0  0  0  0  0  0  0  0  0
    7.2599  -16.5629   26.8850 C   0  0  0  0  0  0  0  0  0  0  0  0
    6.4109  -15.8669   26.1295 N   0  0  0  0  0  0  0  0  0  0  0  0
    6.6890  -14.5644   26.2508 C   0  0  0  0  0  0  0  0  0  0  0  0
    6.1366  -13.4062   25.7224 C   0  0  0  0  0  0  0  0  0  0  0  0
    6.6384  -12.1875   26.0562 C   0  0  0  0  0  0  0  0  0  0  0  0
    7.7034  -12.0448   26.9222 C   0  0  0  0  0  0  0  0  0  0  0  0
    8.2594  -13.1709   27.4503 C   0  0  0  0  0  0  0  0  0  0  0  0
    7.7660  -14.4266   27.1246 C   0  0  0  0  0  0  0  0  0  0  0  0
   11.5697  -16.7901   28.6557 C   0  0  0  0  0  0  0  0  0  0  0  0
   11.9504  -16.0647   29.6055 O   0  0  0  0  0  0  0  0  0  0  0  0
   12.1642  -18.0343   28.5278 O   0  0  0  0  0  0  0  0  0  0  0  0
  2  1  1  6
  3  2  1  0
  4  3  1  0
  4  5  2  0
  6  5  1  0
  7 12  2  0
  7  6  1  0
  8  7  1  0
  9 10  1  0
  9  8  2  0
 10 11  2  0
 11 12  1  0
 12  4  1  0
 13  2  1  0
 14 13  2  0
 16 15  1  6
 16 18  1  0
 17 16  1  0
 18 20  1  0
 18 19  1  6
 19 13  1  0
 20 21  2  0
 22 23  1  0
 22 20  1  0
 23 24  1  1
 24 25  1  0
 25 33  1  0
 26 25  2  0
 26 27  1  0
 27 28  1  0
 28 29  1  0
 29 30  2  0
 31 30  1  0
 32 31  2  0
 33 28  2  0
 33 32  1  0
 34 36  1  0
 34 23  1  0
 35 34  2  0
M  END
$$$$
