WVW.pdb
     RDKit          3D

 36 39  0  0  1  0  0  0  0  0999 V2000
    8.9310  -17.0892   20.4032 N   0  0  0  0  0  0  0  0  0  0  0  0
    8.6531  -16.4637   21.6518 C   0  0  1  0  0  0  0  0  0  0  0  0
    7.2972  -15.8884   21.7694 C   0  0  0  0  0  0  0  0  0  0  0  0
    6.9887  -14.9989   20.6445 C   0  0  0  0  0  0  0  0  0  0  0  0
    5.9206  -15.2133   19.7840 C   0  0  0  0  0  0  0  0  0  0  0  0
    5.8491  -14.2345   18.8803 N   0  0  0  0  0  0  0  0  0  0  0  0
    6.8656  -13.3962   19.1580 C   0  0  0  0  0  0  0  0  0  0  0  0
    7.2692  -12.2321   18.5445 C   0  0  0  0  0  0  0  0  0  0  0  0
    8.3565  -11.5091   18.9715 C   0  0  0  0  0  0  0  0  0  0  0  0
    9.0715  -11.9501   20.0416 C   0  0  0  0  0  0  0  0  0  0  0  0
    8.6843  -13.1153   20.6722 C   0  0  0  0  0  0  0  0  0  0  0  0
    7.5896  -13.8597   20.2587 C   0  0  0  0  0  0  0  0  0  0  0  0
    9.0464  -17.2926   22.8531 C   0  0  0  0  0  0  0  0  0  0  0  0
    8.1344  -17.8907   23.4811 O   0  0  0  0  0  0  0  0  0  0  0  0
   13.1265  -19.1471   25.1715 C   0  0  0  0  0  0  0  0  0  0  0  0
   12.4930  -18.3552   24.0367 C   0  0  1  0  0  0  0  0  0  0  0  0
   12.4694  -19.3547   22.8690 C   0  0  0  0  0  0  0  0  0  0  0  0
   11.0002  -18.1020   24.3511 C   0  0  2  0  0  0  0  0  0  0  0  0
   10.3655  -17.3919   23.2515 N   0  0  0  0  0  0  0  0  0  0  0  0
   10.9474  -17.2320   25.5372 C   0  0  0  0  0  0  0  0  0  0  0  0
   11.5267  -16.0857   25.4663 O   0  0  0  0  0  0  0  0  0  0  0  0
   10.3256  -17.4896   26.7690 N   0  0  0  0  0  0  0  0  0  0  0  0
   10.5524  -16.6849   27.9692 C   0  0  1  0  0  0  0  0  0  0  0  0
    9.1734  -16.4052   28.5071 C   0  0  0  0  0  0  0  0  0  0  0  0
    8.2539  -15.7890   27.5549 C   0  0  0  0  0  0  0  0  0  0  0  0
    7.3135  -16.4725   26.7717 C   0  0  0  0  0  0  0  0  0  0  0  0
    6.6605  -15.6166   25.9864 N   0  0  0  0  0  0  0  0  0  0  0  0
    7.1233  -14.3820   26.2101 C   0  0  0  0  0  0  0  0  0  0  0  0
    6.8109  -13.1278   25.7049 C   0  0  0  0  0  0  0  0  0  0  0  0
    7.4599  -12.0210   26.1550 C   0  0  0  0  0  0  0  0  0  0  0  0
    8.4442  -12.0895   27.1199 C   0  0  0  0  0  0  0  0  0  0  0  0
    8.7651  -13.3125   27.6270 C   0  0  0  0  0  0  0  0  0  0  0  0
    8.1179  -14.4575   27.1836 C   0  0  0  0  0  0  0  0  0  0  0  0
   11.4146  -17.2749   28.9584 C   0  0  0  0  0  0  0  0  0  0  0  0
   11.7530  -16.6349   29.9827 O   0  0  0  0  0  0  0  0  0  0  0  0
   11.9032  -18.5637   28.8233 O   0  0  0  0  0  0  0  0  0  0  0  0
  2  1  1  6
  3  2  1  0
  4  3  1  0
  4  5  2  0
  6  5  1  0
  7 12  2  0
  7  6  1  0
  8  7  1  0
  9 10  1  0
  9  8  2  0
 10 11  2  0
 11 12  1  0
 12  4  1  0
 13  2  1  0
 14 13  2  0
 16 15  1  1
 16 18  1  0
 17 16  1  0
 18 20  1  0
 18 19  1  6
 19 13  1  0
 20 21  2  0
 22 23  1  0
 22 20  1  0
 23 24  1  1
 24 25  1  0
 25 33  1  0
 26 25  2  0
 26 27  1  0
 27 28  1  0
 28 29  1  0
 29 30  2  0
 31 30  1  0
 32 31  2  0
 33 28  2  0
 33 32  1  0
 34 36  1  0
 34 23  1  0
 35 34  2  0
M  END
$$$$
