WVW.pdb
     RDKit          3D

 36 39  0  0  1  0  0  0  0  0999 V2000
    5.9136  -18.2763   25.2029 N   0  0  0  0  0  0  0  0  0  0  0  0
    6.5839  -17.0596   24.8903 C   0  0  1  0  0  0  0  0  0  0  0  0
    7.2500  -16.4062   26.0361 C   0  0  0  0  0  0  0  0  0  0  0  0
    6.6136  -15.1282   26.3735 C   0  0  0  0  0  0  0  0  0  0  0  0
    5.4637  -15.0387   27.1461 C   0  0  0  0  0  0  0  0  0  0  0  0
    5.1267  -13.7611   27.3301 N   0  0  0  0  0  0  0  0  0  0  0  0
    6.0541  -13.0337   26.6790 C   0  0  0  0  0  0  0  0  0  0  0  0
    6.1917  -11.6725   26.5283 C   0  0  0  0  0  0  0  0  0  0  0  0
    7.2142  -11.1076   25.8054 C   0  0  0  0  0  0  0  0  0  0  0  0
    8.1337  -11.9140   25.2096 C   0  0  0  0  0  0  0  0  0  0  0  0
    8.0151  -13.2822   25.3478 C   0  0  0  0  0  0  0  0  0  0  0  0
    6.9920  -13.8733   26.0740 C   0  0  0  0  0  0  0  0  0  0  0  0
    7.4671  -17.1437   23.6666 C   0  0  0  0  0  0  0  0  0  0  0  0
    7.9955  -18.2533   23.3957 O   0  0  0  0  0  0  0  0  0  0  0  0
    9.0011  -14.4088   19.7139 C   0  0  0  0  0  0  0  0  0  0  0  0
    8.2190  -14.5021   21.0163 C   0  0  1  0  0  0  0  0  0  0  0  0
    6.7726  -14.7376   20.5521 C   0  0  0  0  0  0  0  0  0  0  0  0
    8.5980  -15.8058   21.7567 C   0  0  2  0  0  0  0  0  0  0  0  0
    7.6893  -16.0380   22.8687 N   0  0  0  0  0  0  0  0  0  0  0  0
    9.9474  -15.6134   22.3124 C   0  0  0  0  0  0  0  0  0  0  0  0
   10.4082  -14.4137   22.3662 O   0  0  0  0  0  0  0  0  0  0  0  0
   10.8217  -16.5909   22.8128 N   0  0  0  0  0  0  0  0  0  0  0  0
   12.1113  -16.2784   23.4283 C   0  0  1  0  0  0  0  0  0  0  0  0
   12.1943  -17.1907   24.6241 C   0  0  0  0  0  0  0  0  0  0  0  0
   11.0342  -17.1524   25.5098 C   0  0  0  0  0  0  0  0  0  0  0  0
   10.0516  -18.1473   25.6085 C   0  0  0  0  0  0  0  0  0  0  0  0
    9.1160  -17.7837   26.4850 N   0  0  0  0  0  0  0  0  0  0  0  0
    9.4299  -16.5825   26.9821 C   0  0  0  0  0  0  0  0  0  0  0  0
    8.8445  -15.7427   27.9191 C   0  0  0  0  0  0  0  0  0  0  0  0
    9.4259  -14.5566   28.2416 C   0  0  0  0  0  0  0  0  0  0  0  0
   10.6063  -14.1370   27.6628 C   0  0  0  0  0  0  0  0  0  0  0  0
   11.1951  -14.9479   26.7400 C   0  0  0  0  0  0  0  0  0  0  0  0
   10.6213  -16.1631   26.3930 C   0  0  0  0  0  0  0  0  0  0  0  0
   13.2567  -16.4027   22.5666 C   0  0  0  0  0  0  0  0  0  0  0  0
   13.1433  -16.8653   21.4062 O   0  0  0  0  0  0  0  0  0  0  0  0
   14.5225  -16.0198   22.9776 O   0  0  0  0  0  0  0  0  0  0  0  0
  2  1  1  1
  3  2  1  0
  4  3  1  0
  4  5  2  0
  6  5  1  0
  7 12  2  0
  7  6  1  0
  8  7  1  0
  9 10  1  0
  9  8  2  0
 10 11  2  0
 11 12  1  0
 12  4  1  0
 13  2  1  0
 14 13  2  0
 16 15  1  6
 16 18  1  0
 17 16  1  0
 18 20  1  0
 18 19  1  1
 19 13  1  0
 20 21  2  0
 22 23  1  0
 22 20  1  0
 23 24  1  1
 24 25  1  0
 25 33  1  0
 26 25  2  0
 26 27  1  0
 27 28  1  0
 28 29  1  0
 29 30  2  0
 31 30  1  0
 32 31  2  0
 33 28  2  0
 33 32  1  0
 34 36  1  0
 34 23  1  0
 35 34  2  0
M  END
$$$$
