WVW.pdb
     RDKit          3D

 36 39  0  0  1  0  0  0  0  0999 V2000
    8.0205  -17.3862   19.6839 N   0  0  0  0  0  0  0  0  0  0  0  0
    8.1449  -17.2305   21.0938 C   0  0  1  0  0  0  0  0  0  0  0  0
    6.9221  -17.5417   21.8626 C   0  0  0  0  0  0  0  0  0  0  0  0
    6.8316  -16.7334   23.0834 C   0  0  0  0  0  0  0  0  0  0  0  0
    6.5672  -17.2795   24.3321 C   0  0  0  0  0  0  0  0  0  0  0  0
    6.5811  -16.3280   25.2670 N   0  0  0  0  0  0  0  0  0  0  0  0
    6.8521  -15.1770   24.6230 C   0  0  0  0  0  0  0  0  0  0  0  0
    6.9757  -13.8883   25.0905 C   0  0  0  0  0  0  0  0  0  0  0  0
    7.2481  -12.8246   24.2650 C   0  0  0  0  0  0  0  0  0  0  0  0
    7.4037  -13.0393   22.9307 C   0  0  0  0  0  0  0  0  0  0  0  0
    7.2842  -14.3240   22.4401 C   0  0  0  0  0  0  0  0  0  0  0  0
    7.0112  -15.4121   23.2555 C   0  0  0  0  0  0  0  0  0  0  0  0
    9.3839  -17.8733   21.6740 C   0  0  0  0  0  0  0  0  0  0  0  0
    9.4378  -19.1303   21.7027 O   0  0  0  0  0  0  0  0  0  0  0  0
   12.1184  -15.6215   20.9339 C   0  0  0  0  0  0  0  0  0  0  0  0
   12.8181  -16.5856   21.8812 C   0  0  1  0  0  0  0  0  0  0  0  0
   13.3751  -15.6686   22.9821 C   0  0  0  0  0  0  0  0  0  0  0  0
   11.7653  -17.4553   22.6070 C   0  0  2  0  0  0  0  0  0  0  0  0
   10.4260  -17.1067   22.1587 N   0  0  0  0  0  0  0  0  0  0  0  0
   11.8550  -17.1390   24.0418 C   0  0  0  0  0  0  0  0  0  0  0  0
   12.9838  -16.7197   24.4940 O   0  0  0  0  0  0  0  0  0  0  0  0
   10.8426  -17.2294   25.0099 N   0  0  0  0  0  0  0  0  0  0  0  0
   11.0774  -17.6839   26.3802 C   0  0  1  0  0  0  0  0  0  0  0  0
    9.7862  -17.4005   27.1026 C   0  0  0  0  0  0  0  0  0  0  0  0
    9.1799  -16.1080   26.7964 C   0  0  0  0  0  0  0  0  0  0  0  0
    8.1555  -15.8890   25.8650 C   0  0  0  0  0  0  0  0  0  0  0  0
    7.8580  -14.5914   25.8057 N   0  0  0  0  0  0  0  0  0  0  0  0
    8.6414  -13.9266   26.6617 C   0  0  0  0  0  0  0  0  0  0  0  0
    8.7597  -12.5926   27.0254 C   0  0  0  0  0  0  0  0  0  0  0  0
    9.6620  -12.2117   27.9686 C   0  0  0  0  0  0  0  0  0  0  0  0
   10.4902  -13.1174   28.5997 C   0  0  0  0  0  0  0  0  0  0  0  0
   10.3889  -14.4315   28.2549 C   0  0  0  0  0  0  0  0  0  0  0  0
    9.4765  -14.8458   27.2946 C   0  0  0  0  0  0  0  0  0  0  0  0
   11.4895  -19.0556   26.5172 C   0  0  0  0  0  0  0  0  0  0  0  0
   11.3186  -19.8762   25.5841 O   0  0  0  0  0  0  0  0  0  0  0  0
   12.0877  -19.5244   27.6749 O   0  0  0  0  0  0  0  0  0  0  0  0
  2  1  1  6
  3  2  1  0
  4  3  1  0
  4  5  2  0
  6  5  1  0
  7 12  2  0
  7  6  1  0
  8  7  1  0
  9 10  1  0
  9  8  2  0
 10 11  2  0
 11 12  1  0
 12  4  1  0
 13  2  1  0
 14 13  2  0
 16 15  1  6
 16 18  1  0
 17 16  1  0
 18 20  1  0
 18 19  1  6
 19 13  1  0
 20 21  2  0
 22 23  1  0
 22 20  1  0
 23 24  1  1
 24 25  1  0
 25 33  1  0
 26 25  2  0
 26 27  1  0
 27 28  1  0
 28 29  1  0
 29 30  2  0
 31 30  1  0
 32 31  2  0
 33 28  2  0
 33 32  1  0
 34 36  1  0
 34 23  1  0
 35 34  2  0
M  END
$$$$
