WVW.pdb
     RDKit          3D

 36 39  0  0  1  0  0  0  0  0999 V2000
    7.5574  -17.7775   27.0734 N   0  0  0  0  0  0  0  0  0  0  0  0
    7.7643  -17.2933   25.7504 C   0  0  1  0  0  0  0  0  0  0  0  0
    8.8233  -16.2708   25.6224 C   0  0  0  0  0  0  0  0  0  0  0  0
    8.5919  -15.1380   26.5252 C   0  0  0  0  0  0  0  0  0  0  0  0
    9.3256  -14.9364   27.6864 C   0  0  0  0  0  0  0  0  0  0  0  0
    8.9352  -13.8142   28.2929 N   0  0  0  0  0  0  0  0  0  0  0  0
    7.9560  -13.2978   27.5265 C   0  0  0  0  0  0  0  0  0  0  0  0
    7.1940  -12.1617   27.6792 C   0  0  0  0  0  0  0  0  0  0  0  0
    6.2174  -11.7998   26.7835 C   0  0  0  0  0  0  0  0  0  0  0  0
    5.9836  -12.5865   25.6985 C   0  0  0  0  0  0  0  0  0  0  0  0
    6.7362  -13.7307   25.5255 C   0  0  0  0  0  0  0  0  0  0  0  0
    7.7276  -14.1138   26.4163 C   0  0  0  0  0  0  0  0  0  0  0  0
    7.8705  -18.3834   24.7087 C   0  0  0  0  0  0  0  0  0  0  0  0
    8.8965  -19.1120   24.7200 O   0  0  0  0  0  0  0  0  0  0  0  0
    5.6622  -17.0906   20.4980 C   0  0  0  0  0  0  0  0  0  0  0  0
    5.7290  -17.2963   22.0046 C   0  0  1  0  0  0  0  0  0  0  0  0
    4.4112  -18.0185   22.3285 C   0  0  0  0  0  0  0  0  0  0  0  0
    6.8244  -18.3357   22.3381 C   0  0  2  0  0  0  0  0  0  0  0  0
    6.8734  -18.5759   23.7720 N   0  0  0  0  0  0  0  0  0  0  0  0
    8.1145  -17.7515   21.9364 C   0  0  0  0  0  0  0  0  0  0  0  0
    8.4495  -17.8325   20.6972 O   0  0  0  0  0  0  0  0  0  0  0  0
    9.0523  -17.0923   22.7464 N   0  0  0  0  0  0  0  0  0  0  0  0
   10.2758  -16.4812   22.2275 C   0  0  1  0  0  0  0  0  0  0  0  0
   10.1030  -15.0064   22.4817 C   0  0  0  0  0  0  0  0  0  0  0  0
    8.9442  -14.4009   21.8318 C   0  0  0  0  0  0  0  0  0  0  0  0
    7.7116  -14.1375   22.4453 C   0  0  0  0  0  0  0  0  0  0  0  0
    6.8618  -13.6135   21.5626 N   0  0  0  0  0  0  0  0  0  0  0  0
    7.4736  -13.5124   20.3777 C   0  0  0  0  0  0  0  0  0  0  0  0
    7.0916  -13.0357   19.1317 C   0  0  0  0  0  0  0  0  0  0  0  0
    7.9667  -13.0448   18.0911 C   0  0  0  0  0  0  0  0  0  0  0  0
    9.2557  -13.5203   18.2208 C   0  0  0  0  0  0  0  0  0  0  0  0
    9.6484  -13.9933   19.4366 C   0  0  0  0  0  0  0  0  0  0  0  0
    8.7738  -13.9956   20.5143 C   0  0  0  0  0  0  0  0  0  0  0  0
   11.5047  -16.9892   22.7768 C   0  0  0  0  0  0  0  0  0  0  0  0
   11.4961  -17.8073   23.7276 O   0  0  0  0  0  0  0  0  0  0  0  0
   12.7389  -16.6006   22.2833 O   0  0  0  0  0  0  0  0  0  0  0  0
  2  1  1  1
  3  2  1  0
  4  3  1  0
  4  5  2  0
  6  5  1  0
  7 12  2  0
  7  6  1  0
  8  7  1  0
  9 10  1  0
  9  8  2  0
 10 11  2  0
 11 12  1  0
 12  4  1  0
 13  2  1  0
 14 13  2  0
 16 15  1  6
 16 18  1  0
 17 16  1  0
 18 20  1  0
 18 19  1  1
 19 13  1  0
 20 21  2  0
 22 23  1  0
 22 20  1  0
 23 24  1  1
 24 25  1  0
 25 33  1  0
 26 25  2  0
 26 27  1  0
 27 28  1  0
 28 29  1  0
 29 30  2  0
 31 30  1  0
 32 31  2  0
 33 28  2  0
 33 32  1  0
 34 36  1  0
 34 23  1  0
 35 34  2  0
M  END
$$$$
