HQG.pdb
     RDKit          3D

 24 24  0  0  1  0  0  0  0  0999 V2000
   19.7116  -12.1449  -16.6614 N   0  0  0  0  0  0  0  0  0  0  0  0
   19.2584  -10.9464  -16.0101 C   0  0  1  0  0  0  0  0  0  0  0  0
   18.5543  -11.2936  -14.7160 C   0  0  0  0  0  0  0  0  0  0  0  0
   17.3510  -12.0904  -15.0668 C   0  0  0  0  0  0  0  0  0  0  0  0
   16.2103  -11.6834  -15.7230 C   0  0  0  0  0  0  0  0  0  0  0  0
   15.3562  -12.7259  -15.8392 N   0  0  0  0  0  0  0  0  0  0  0  0
   15.9505  -13.7828  -15.2622 C   0  0  0  0  0  0  0  0  0  0  0  0
   17.1503  -13.4122  -14.7943 N   0  0  0  0  0  0  0  0  0  0  0  0
   20.3964  -10.0008  -15.7584 C   0  0  0  0  0  0  0  0  0  0  0  0
   21.4022  -10.3032  -15.0844 O   0  0  0  0  0  0  0  0  0  0  0  0
   24.6516   -7.8538  -16.8662 N   0  0  0  0  0  0  0  0  0  0  0  0
   23.9734   -8.4116  -17.9690 C   0  0  0  0  0  0  0  0  0  0  0  0
   24.6374   -9.2139  -18.6744 O   0  0  0  0  0  0  0  0  0  0  0  0
   22.5888   -8.1286  -18.3381 C   0  0  0  0  0  0  0  0  0  0  0  0
   21.9930   -7.1449  -17.3717 C   0  0  0  0  0  0  0  0  0  0  0  0
   21.4679   -7.7692  -16.1262 C   0  0  2  0  0  0  0  0  0  0  0  0
   20.3925   -8.6813  -16.2839 N   0  0  0  0  0  0  0  0  0  0  0  0
   21.0935   -6.7055  -15.1734 C   0  0  0  0  0  0  0  0  0  0  0  0
   19.8745   -6.3317  -15.0789 O   0  0  0  0  0  0  0  0  0  0  0  0
   22.0101   -6.0346  -14.3176 N   0  0  0  0  0  0  0  0  0  0  0  0
   21.6021   -5.0774  -13.3078 C   0  0  0  0  0  0  0  0  0  0  0  0
   21.0424   -3.8883  -13.9987 C   0  0  0  0  0  0  0  0  0  0  0  0
   20.0254   -3.1333  -13.4284 O   0  0  0  0  0  0  0  0  0  0  0  0
   21.4666   -3.5202  -15.1237 O   0  0  0  0  0  0  0  0  0  0  0  0
  2  1  1  1
  2  9  1  0
  3  2  1  0
  4  5  2  0
  4  3  1  0
  6  5  1  0
  7  8  2  0
  7  6  1  0
  8  4  1  0
  9 10  2  0
 11 12  1  0
 12 14  1  0
 13 12  2  0
 14 15  1  0
 16 15  1  6
 16 18  1  0
 17  9  1  0
 17 16  1  0
 18 20  1  0
 19 18  2  0
 20 21  1  0
 22 23  1  0
 22 21  1  0
 24 22  2  0
M  END
$$$$
