HQG.pdb
     RDKit          3D

 24 24  0  0  1  0  0  0  0  0999 V2000
   27.7560  -19.8026  -17.1544 N   0  0  0  0  0  0  0  0  0  0  0  0
   27.1939  -19.2292  -15.9623 C   0  0  1  0  0  0  0  0  0  0  0  0
   26.4255  -17.9707  -16.3042 C   0  0  0  0  0  0  0  0  0  0  0  0
   27.3316  -17.1005  -17.0965 C   0  0  0  0  0  0  0  0  0  0  0  0
   28.6314  -17.3386  -17.4852 C   0  0  0  0  0  0  0  0  0  0  0  0
   29.0935  -16.2848  -18.1964 N   0  0  0  0  0  0  0  0  0  0  0  0
   28.0958  -15.3882  -18.2574 C   0  0  0  0  0  0  0  0  0  0  0  0
   27.0316  -15.8681  -17.5995 N   0  0  0  0  0  0  0  0  0  0  0  0
   26.3121  -20.2127  -15.2496 C   0  0  0  0  0  0  0  0  0  0  0  0
   25.7140  -21.1421  -15.8293 O   0  0  0  0  0  0  0  0  0  0  0  0
   26.9612  -21.7170   -9.2247 N   0  0  0  0  0  0  0  0  0  0  0  0
   26.1015  -20.6256   -9.4633 C   0  0  0  0  0  0  0  0  0  0  0  0
   25.7855  -19.9438   -8.4546 O   0  0  0  0  0  0  0  0  0  0  0  0
   25.5669  -20.2431  -10.7677 C   0  0  0  0  0  0  0  0  0  0  0  0
   25.7322  -21.3761  -11.7400 C   0  0  0  0  0  0  0  0  0  0  0  0
   25.2903  -21.0495  -13.1238 C   0  0  2  0  0  0  0  0  0  0  0  0
   26.1044  -20.1393  -13.8466 N   0  0  0  0  0  0  0  0  0  0  0  0
   23.8979  -20.5609  -13.0836 C   0  0  0  0  0  0  0  0  0  0  0  0
   23.6588  -19.3060  -13.1359 O   0  0  0  0  0  0  0  0  0  0  0  0
   22.7542  -21.4008  -12.9879 N   0  0  0  0  0  0  0  0  0  0  0  0
   21.4076  -20.8948  -12.8060 C   0  0  0  0  0  0  0  0  0  0  0  0
   20.7505  -20.8436  -14.1364 C   0  0  0  0  0  0  0  0  0  0  0  0
   19.3958  -20.5637  -14.2630 O   0  0  0  0  0  0  0  0  0  0  0  0
   21.3936  -21.0510  -15.1968 O   0  0  0  0  0  0  0  0  0  0  0  0
  2  1  1  6
  2  9  1  0
  3  2  1  0
  4  5  2  0
  4  3  1  0
  6  5  1  0
  7  8  2  0
  7  6  1  0
  8  4  1  0
  9 10  2  0
 11 12  1  0
 12 14  1  0
 13 12  2  0
 14 15  1  0
 16 15  1  1
 16 18  1  0
 17  9  1  0
 17 16  1  0
 18 20  1  0
 19 18  2  0
 20 21  1  0
 22 23  1  0
 22 21  1  0
 24 22  2  0
M  END
$$$$
