HQG.pdb
     RDKit          3D

 24 24  0  0  1  0  0  0  0  0999 V2000
   19.4043  -12.0589  -18.0968 N   0  0  0  0  0  0  0  0  0  0  0  0
   18.9730  -11.3028  -16.9531 C   0  0  1  0  0  0  0  0  0  0  0  0
   19.4028  -11.9981  -15.6791 C   0  0  0  0  0  0  0  0  0  0  0  0
   18.4820  -13.1443  -15.4683 C   0  0  0  0  0  0  0  0  0  0  0  0
   17.3981  -13.5285  -16.2265 C   0  0  0  0  0  0  0  0  0  0  0  0
   16.8312  -14.6302  -15.6837 N   0  0  0  0  0  0  0  0  0  0  0  0
   17.5493  -14.9405  -14.5923 C   0  0  0  0  0  0  0  0  0  0  0  0
   18.5443  -14.0538  -14.4531 N   0  0  0  0  0  0  0  0  0  0  0  0
   19.5039   -9.8996  -16.9973 C   0  0  0  0  0  0  0  0  0  0  0  0
   20.6396   -9.6099  -17.4261 O   0  0  0  0  0  0  0  0  0  0  0  0
   18.7937   -5.6288  -19.5358 N   0  0  0  0  0  0  0  0  0  0  0  0
   18.9962   -4.7392  -18.4612 C   0  0  0  0  0  0  0  0  0  0  0  0
   19.4455   -3.6040  -18.7643 O   0  0  0  0  0  0  0  0  0  0  0  0
   18.7270   -5.0383  -17.0571 C   0  0  0  0  0  0  0  0  0  0  0  0
   18.1640   -6.4250  -16.9287 C   0  0  0  0  0  0  0  0  0  0  0  0
   19.1787   -7.4548  -16.5725 C   0  0  2  0  0  0  0  0  0  0  0  0
   18.7277   -8.7999  -16.5442 N   0  0  0  0  0  0  0  0  0  0  0  0
   19.7933   -7.0999  -15.2781 C   0  0  0  0  0  0  0  0  0  0  0  0
   19.0972   -7.1428  -14.2066 O   0  0  0  0  0  0  0  0  0  0  0  0
   21.1479   -6.6983  -15.1153 N   0  0  0  0  0  0  0  0  0  0  0  0
   21.7385   -6.3931  -13.8267 C   0  0  0  0  0  0  0  0  0  0  0  0
   22.0840   -4.9493  -13.8079 C   0  0  0  0  0  0  0  0  0  0  0  0
   22.7373   -4.3765  -12.7241 O   0  0  0  0  0  0  0  0  0  0  0  0
   21.7992   -4.1916  -14.7702 O   0  0  0  0  0  0  0  0  0  0  0  0
  2  1  1  6
  2  9  1  0
  3  2  1  0
  4  5  2  0
  4  3  1  0
  6  5  1  0
  7  8  2  0
  7  6  1  0
  8  4  1  0
  9 10  2  0
 11 12  1  0
 12 14  1  0
 13 12  2  0
 14 15  1  0
 16 15  1  1
 16 18  1  0
 17  9  1  0
 17 16  1  0
 18 20  1  0
 19 18  2  0
 20 21  1  0
 22 23  1  0
 22 21  1  0
 24 22  2  0
M  END
$$$$
