HQG.pdb
     RDKit          3D

 24 24  0  0  1  0  0  0  0  0999 V2000
   26.5811  -19.6515  -16.6884 N   0  0  0  0  0  0  0  0  0  0  0  0
   25.5016  -18.9388  -16.0617 C   0  0  1  0  0  0  0  0  0  0  0  0
   24.7192  -18.1640  -17.1003 C   0  0  0  0  0  0  0  0  0  0  0  0
   25.6456  -17.1716  -17.7028 C   0  0  0  0  0  0  0  0  0  0  0  0
   26.7248  -17.3928  -18.5297 C   0  0  0  0  0  0  0  0  0  0  0  0
   27.2998  -16.2117  -18.8524 N   0  0  0  0  0  0  0  0  0  0  0  0
   26.5915  -15.2520  -18.2357 C   0  0  0  0  0  0  0  0  0  0  0  0
   25.5944  -15.8177  -17.5416 N   0  0  0  0  0  0  0  0  0  0  0  0
   24.6011  -19.8714  -15.3053 C   0  0  0  0  0  0  0  0  0  0  0  0
   23.7537  -20.6030  -15.8566 O   0  0  0  0  0  0  0  0  0  0  0  0
   25.8457  -20.6927   -9.4640 N   0  0  0  0  0  0  0  0  0  0  0  0
   26.5632  -21.1818  -10.5745 C   0  0  0  0  0  0  0  0  0  0  0  0
   27.8043  -21.3093  -10.4144 O   0  0  0  0  0  0  0  0  0  0  0  0
   25.9787  -21.5410  -11.8639 C   0  0  0  0  0  0  0  0  0  0  0  0
   24.4922  -21.3270  -11.8287 C   0  0  0  0  0  0  0  0  0  0  0  0
   23.9134  -20.9152  -13.1372 C   0  0  2  0  0  0  0  0  0  0  0  0
   24.6642  -19.9758  -13.8903 N   0  0  0  0  0  0  0  0  0  0  0  0
   22.5427  -20.4111  -12.9218 C   0  0  0  0  0  0  0  0  0  0  0  0
   22.3318  -19.1540  -12.8228 O   0  0  0  0  0  0  0  0  0  0  0  0
   21.3908  -21.2380  -12.8107 N   0  0  0  0  0  0  0  0  0  0  0  0
   20.0637  -20.7221  -12.5371 C   0  0  0  0  0  0  0  0  0  0  0  0
   19.3351  -20.6159  -13.8264 C   0  0  0  0  0  0  0  0  0  0  0  0
   17.9625  -20.4063  -13.8657 O   0  0  0  0  0  0  0  0  0  0  0  0
   19.9313  -20.7114  -14.9294 O   0  0  0  0  0  0  0  0  0  0  0  0
  2  1  1  6
  2  9  1  0
  3  2  1  0
  4  5  2  0
  4  3  1  0
  6  5  1  0
  7  8  2  0
  7  6  1  0
  8  4  1  0
  9 10  2  0
 11 12  1  0
 12 14  1  0
 13 12  2  0
 14 15  1  0
 16 15  1  1
 16 18  1  0
 17  9  1  0
 17 16  1  0
 18 20  1  0
 19 18  2  0
 20 21  1  0
 22 23  1  0
 22 21  1  0
 24 22  2  0
M  END
$$$$
