HQG.pdb
     RDKit          3D

 24 24  0  0  1  0  0  0  0  0999 V2000
   22.2513  -11.7361  -18.0384 N   0  0  0  0  0  0  0  0  0  0  0  0
   22.8995  -10.9322  -17.0388 C   0  0  1  0  0  0  0  0  0  0  0  0
   24.3371  -10.6714  -17.4345 C   0  0  0  0  0  0  0  0  0  0  0  0
   25.0294  -11.9846  -17.4775 C   0  0  0  0  0  0  0  0  0  0  0  0
   24.8955  -13.0567  -16.6231 C   0  0  0  0  0  0  0  0  0  0  0  0
   25.7112  -14.0598  -17.0209 N   0  0  0  0  0  0  0  0  0  0  0  0
   26.3554  -13.6269  -18.1168 C   0  0  0  0  0  0  0  0  0  0  0  0
   25.9532  -12.3804  -18.4004 N   0  0  0  0  0  0  0  0  0  0  0  0
   22.1663   -9.6409  -16.8200 C   0  0  0  0  0  0  0  0  0  0  0  0
   21.9597   -8.8083  -17.7264 O   0  0  0  0  0  0  0  0  0  0  0  0
   17.8985  -10.2752  -13.3419 N   0  0  0  0  0  0  0  0  0  0  0  0
   17.8910  -10.2873  -14.7515 C   0  0  0  0  0  0  0  0  0  0  0  0
   17.1637  -11.1610  -15.2900 O   0  0  0  0  0  0  0  0  0  0  0  0
   18.6502   -9.3783  -15.6063 C   0  0  0  0  0  0  0  0  0  0  0  0
   19.4686   -8.4450  -14.7603 C   0  0  0  0  0  0  0  0  0  0  0  0
   20.8213   -8.1621  -15.3142 C   0  0  2  0  0  0  0  0  0  0  0  0
   21.6560   -9.2867  -15.5428 N   0  0  0  0  0  0  0  0  0  0  0  0
   21.5084   -7.1918  -14.4392 C   0  0  0  0  0  0  0  0  0  0  0  0
   22.3544   -7.6000  -13.5719 O   0  0  0  0  0  0  0  0  0  0  0  0
   21.3010   -5.7853  -14.4807 N   0  0  0  0  0  0  0  0  0  0  0  0
   22.0008   -4.8515  -13.6201 C   0  0  0  0  0  0  0  0  0  0  0  0
   21.4563   -3.4937  -13.8734 C   0  0  0  0  0  0  0  0  0  0  0  0
   21.8054   -2.4140  -13.0723 O   0  0  0  0  0  0  0  0  0  0  0  0
   20.6602   -3.2697  -14.8207 O   0  0  0  0  0  0  0  0  0  0  0  0
  2  1  1  6
  2  9  1  0
  3  2  1  0
  4  5  2  0
  4  3  1  0
  6  5  1  0
  7  8  2  0
  7  6  1  0
  8  4  1  0
  9 10  2  0
 11 12  1  0
 12 14  1  0
 13 12  2  0
 14 15  1  0
 16 15  1  1
 16 18  1  0
 17  9  1  0
 17 16  1  0
 18 20  1  0
 19 18  2  0
 20 21  1  0
 22 23  1  0
 22 21  1  0
 24 22  2  0
M  END
$$$$
