HQG.pdb
     RDKit          3D

 24 24  0  0  1  0  0  0  0  0999 V2000
   23.0061  -22.3411  -18.9986 N   0  0  0  0  0  0  0  0  0  0  0  0
   22.1143  -21.2291  -18.8140 C   0  0  1  0  0  0  0  0  0  0  0  0
   20.6847  -21.6648  -19.0543 C   0  0  0  0  0  0  0  0  0  0  0  0
   20.5796  -22.0718  -20.4788 C   0  0  0  0  0  0  0  0  0  0  0  0
   20.4329  -23.3366  -21.0041 C   0  0  0  0  0  0  0  0  0  0  0  0
   20.3776  -23.2647  -22.3538 N   0  0  0  0  0  0  0  0  0  0  0  0
   20.4882  -21.9668  -22.6798 C   0  0  0  0  0  0  0  0  0  0  0  0
   20.6102  -21.2404  -21.5603 N   0  0  0  0  0  0  0  0  0  0  0  0
   22.2648  -20.6330  -17.4448 C   0  0  0  0  0  0  0  0  0  0  0  0
   22.6480  -21.2850  -16.4521 O   0  0  0  0  0  0  0  0  0  0  0  0
   23.9545  -15.5846  -17.9104 N   0  0  0  0  0  0  0  0  0  0  0  0
   24.7975  -16.5193  -17.2756 C   0  0  0  0  0  0  0  0  0  0  0  0
   25.9956  -16.5283  -17.6587 O   0  0  0  0  0  0  0  0  0  0  0  0
   24.3850  -17.4532  -16.2311 C   0  0  0  0  0  0  0  0  0  0  0  0
   22.9086  -17.3254  -15.9852 C   0  0  0  0  0  0  0  0  0  0  0  0
   22.1908  -18.6293  -15.9471 C   0  0  2  0  0  0  0  0  0  0  0  0
   21.9735  -19.2653  -17.1968 N   0  0  0  0  0  0  0  0  0  0  0  0
   20.9075  -18.4538  -15.2388 C   0  0  0  0  0  0  0  0  0  0  0  0
   19.8800  -18.0322  -15.8722 O   0  0  0  0  0  0  0  0  0  0  0  0
   20.7091  -18.7248  -13.8568 N   0  0  0  0  0  0  0  0  0  0  0  0
   19.4466  -18.5109  -13.1767 C   0  0  0  0  0  0  0  0  0  0  0  0
   18.6704  -19.7752  -13.2362 C   0  0  0  0  0  0  0  0  0  0  0  0
   17.8719  -20.1836  -12.1755 O   0  0  0  0  0  0  0  0  0  0  0  0
   18.7062  -20.5228  -14.2466 O   0  0  0  0  0  0  0  0  0  0  0  0
  2  1  1  1
  2  9  1  0
  3  2  1  0
  4  5  2  0
  4  3  1  0
  6  5  1  0
  7  8  2  0
  7  6  1  0
  8  4  1  0
  9 10  2  0
 11 12  1  0
 12 14  1  0
 13 12  2  0
 14 15  1  0
 16 15  1  6
 16 18  1  0
 17  9  1  0
 17 16  1  0
 18 20  1  0
 19 18  2  0
 20 21  1  0
 22 23  1  0
 22 21  1  0
 24 22  2  0
M  END
$$$$
