HQG.pdb
     RDKit          3D

 24 24  0  0  1  0  0  0  0  0999 V2000
   20.8657  -32.1692  -10.2093 N   0  0  0  0  0  0  0  0  0  0  0  0
   22.2003  -32.4632  -10.6545 C   0  0  1  0  0  0  0  0  0  0  0  0
   22.8987  -31.1888  -11.0778 C   0  0  0  0  0  0  0  0  0  0  0  0
   22.1765  -30.6613  -12.2636 C   0  0  0  0  0  0  0  0  0  0  0  0
   22.3227  -31.0130  -13.5873 C   0  0  0  0  0  0  0  0  0  0  0  0
   21.4691  -30.2891  -14.3470 N   0  0  0  0  0  0  0  0  0  0  0  0
   20.7890  -29.4868  -13.5122 C   0  0  0  0  0  0  0  0  0  0  0  0
   21.2061  -29.7021  -12.2570 N   0  0  0  0  0  0  0  0  0  0  0  0
   22.9856  -33.1702   -9.5885 C   0  0  0  0  0  0  0  0  0  0  0  0
   24.1868  -33.4834   -9.7165 O   0  0  0  0  0  0  0  0  0  0  0  0
   25.0949  -34.2659   -4.0366 N   0  0  0  0  0  0  0  0  0  0  0  0
   25.2754  -33.1437   -4.8704 C   0  0  0  0  0  0  0  0  0  0  0  0
   26.3103  -32.4611   -4.6574 O   0  0  0  0  0  0  0  0  0  0  0  0
   24.3664  -32.7308   -5.9366 C   0  0  0  0  0  0  0  0  0  0  0  0
   23.2112  -33.6872   -6.0222 C   0  0  0  0  0  0  0  0  0  0  0  0
   23.0479  -34.3135   -7.3631 C   0  0  2  0  0  0  0  0  0  0  0  0
   22.3935  -33.5299   -8.3487 N   0  0  0  0  0  0  0  0  0  0  0  0
   22.3605  -35.6109   -7.2098 C   0  0  0  0  0  0  0  0  0  0  0  0
   21.0945  -35.6868   -7.3713 O   0  0  0  0  0  0  0  0  0  0  0  0
   23.0129  -36.8322   -6.8850 N   0  0  0  0  0  0  0  0  0  0  0  0
   22.3095  -38.0872   -6.7046 C   0  0  0  0  0  0  0  0  0  0  0  0
   23.3189  -39.1562   -6.4976 C   0  0  0  0  0  0  0  0  0  0  0  0
   22.9508  -40.4237   -6.0647 O   0  0  0  0  0  0  0  0  0  0  0  0
   24.5426  -38.9555   -6.7057 O   0  0  0  0  0  0  0  0  0  0  0  0
  2  1  1  1
  2  9  1  0
  3  2  1  0
  4  5  2  0
  4  3  1  0
  6  5  1  0
  7  8  2  0
  7  6  1  0
  8  4  1  0
  9 10  2  0
 11 12  1  0
 12 14  1  0
 13 12  2  0
 14 15  1  0
 16 15  1  1
 16 18  1  0
 17  9  1  0
 17 16  1  0
 18 20  1  0
 19 18  2  0
 20 21  1  0
 22 23  1  0
 22 21  1  0
 24 22  2  0
M  END
$$$$
