HQG.pdb
     RDKit          3D

 24 24  0  0  1  0  0  0  0  0999 V2000
   26.2484  -20.8757  -16.7888 N   0  0  0  0  0  0  0  0  0  0  0  0
   25.3122  -21.9637  -16.7144 C   0  0  1  0  0  0  0  0  0  0  0  0
   25.9868  -23.2573  -17.1177 C   0  0  0  0  0  0  0  0  0  0  0  0
   26.4134  -23.1116  -18.5328 C   0  0  0  0  0  0  0  0  0  0  0  0
   27.6902  -23.0875  -19.0489 C   0  0  0  0  0  0  0  0  0  0  0  0
   27.6350  -22.9372  -20.3921 N   0  0  0  0  0  0  0  0  0  0  0  0
   26.3356  -22.8668  -20.7232 C   0  0  0  0  0  0  0  0  0  0  0  0
   25.5920  -22.9705  -19.6132 N   0  0  0  0  0  0  0  0  0  0  0  0
   24.7209  -22.0792  -15.3397 C   0  0  0  0  0  0  0  0  0  0  0  0
   24.0301  -23.0507  -14.9704 O   0  0  0  0  0  0  0  0  0  0  0  0
   27.4724  -19.4786  -13.2682 N   0  0  0  0  0  0  0  0  0  0  0  0
   27.6390  -20.6446  -12.4936 C   0  0  0  0  0  0  0  0  0  0  0  0
   28.8155  -21.0805  -12.4022 O   0  0  0  0  0  0  0  0  0  0  0  0
   26.5669  -21.3617  -11.8083 C   0  0  0  0  0  0  0  0  0  0  0  0
   25.2734  -20.6130  -11.9592 C   0  0  0  0  0  0  0  0  0  0  0  0
   24.3983  -21.1380  -13.0434 C   0  0  2  0  0  0  0  0  0  0  0  0
   24.9185  -21.0685  -14.3617 N   0  0  0  0  0  0  0  0  0  0  0  0
   23.0894  -20.4583  -12.9794 C   0  0  0  0  0  0  0  0  0  0  0  0
   22.9140  -19.3497  -13.5916 O   0  0  0  0  0  0  0  0  0  0  0  0
   21.9621  -20.9517  -12.2663 N   0  0  0  0  0  0  0  0  0  0  0  0
   20.7005  -20.2421  -12.1819 C   0  0  0  0  0  0  0  0  0  0  0  0
   19.8188  -20.7375  -13.2689 C   0  0  0  0  0  0  0  0  0  0  0  0
   18.4997  -20.3163  -13.3781 O   0  0  0  0  0  0  0  0  0  0  0  0
   20.2316  -21.5554  -14.1302 O   0  0  0  0  0  0  0  0  0  0  0  0
  2  1  1  1
  2  9  1  0
  3  2  1  0
  4  5  2  0
  4  3  1  0
  6  5  1  0
  7  8  2  0
  7  6  1  0
  8  4  1  0
  9 10  2  0
 11 12  1  0
 12 14  1  0
 13 12  2  0
 14 15  1  0
 16 15  1  1
 16 18  1  0
 17  9  1  0
 17 16  1  0
 18 20  1  0
 19 18  2  0
 20 21  1  0
 22 23  1  0
 22 21  1  0
 24 22  2  0
M  END
$$$$
