HQG.pdb
     RDKit          3D

 24 24  0  0  1  0  0  0  0  0999 V2000
   19.4873   -9.5478  -14.6403 N   0  0  0  0  0  0  0  0  0  0  0  0
   18.5706   -8.7122  -15.3665 C   0  0  1  0  0  0  0  0  0  0  0  0
   17.2536   -8.6207  -14.6260 C   0  0  0  0  0  0  0  0  0  0  0  0
   16.6031   -9.9529  -14.7137 C   0  0  0  0  0  0  0  0  0  0  0  0
   17.0206  -11.0711  -15.4012 C   0  0  0  0  0  0  0  0  0  0  0  0
   16.1345  -12.0762  -15.2155 N   0  0  0  0  0  0  0  0  0  0  0  0
   15.1652  -11.5988  -14.4181 C   0  0  0  0  0  0  0  0  0  0  0  0
   15.4367  -10.3231  -14.1102 N   0  0  0  0  0  0  0  0  0  0  0  0
   19.1465   -7.3454  -15.5968 C   0  0  0  0  0  0  0  0  0  0  0  0
   19.9695   -6.8100  -14.8264 O   0  0  0  0  0  0  0  0  0  0  0  0
   17.6225   -5.8814  -20.4374 N   0  0  0  0  0  0  0  0  0  0  0  0
   18.9625   -6.3152  -20.3793 C   0  0  0  0  0  0  0  0  0  0  0  0
   19.3171   -7.1264  -21.2730 O   0  0  0  0  0  0  0  0  0  0  0  0
   19.9411   -5.8978  -19.3785 C   0  0  0  0  0  0  0  0  0  0  0  0
   19.3263   -4.8866  -18.4533 C   0  0  0  0  0  0  0  0  0  0  0  0
   19.3368   -5.2972  -17.0222 C   0  0  2  0  0  0  0  0  0  0  0  0
   18.7796   -6.5685  -16.7277 N   0  0  0  0  0  0  0  0  0  0  0  0
   18.6724   -4.2545  -16.2155 C   0  0  0  0  0  0  0  0  0  0  0  0
   17.4188   -4.3326  -15.9769 O   0  0  0  0  0  0  0  0  0  0  0  0
   19.3348   -3.1256  -15.6591 N   0  0  0  0  0  0  0  0  0  0  0  0
   18.6767   -2.1589  -14.8019 C   0  0  0  0  0  0  0  0  0  0  0  0
   19.5978   -1.0103  -14.6098 C   0  0  0  0  0  0  0  0  0  0  0  0
   19.2057    0.1203  -13.9045 O   0  0  0  0  0  0  0  0  0  0  0  0
   20.7652   -1.0173  -15.0769 O   0  0  0  0  0  0  0  0  0  0  0  0
  2  1  1  1
  2  9  1  0
  3  2  1  0
  4  5  2  0
  4  3  1  0
  6  5  1  0
  7  8  2  0
  7  6  1  0
  8  4  1  0
  9 10  2  0
 11 12  1  0
 12 14  1  0
 13 12  2  0
 14 15  1  0
 16 15  1  6
 16 18  1  0
 17  9  1  0
 17 16  1  0
 18 20  1  0
 19 18  2  0
 20 21  1  0
 22 23  1  0
 22 21  1  0
 24 22  2  0
M  END
$$$$
