EAW.pdb
     RDKit          3D

 29 30  0  0  1  0  0  0  0  0999 V2000
   31.3943  -31.4678  -17.0475 N   0  0  0  0  0  0  0  0  0  0  0  0
   30.8742  -32.6941  -16.5184 C   0  0  1  0  0  0  0  0  0  0  0  0
   31.9072  -33.5116  -15.7999 C   0  0  0  0  0  0  0  0  0  0  0  0
   33.0358  -33.9876  -16.6694 C   0  0  0  0  0  0  0  0  0  0  0  0
   33.4469  -35.3194  -16.1711 C   0  0  0  0  0  0  0  0  0  0  0  0
   32.8824  -35.8177  -15.1877 O   0  0  0  0  0  0  0  0  0  0  0  0
   29.6675  -32.4293  -15.7338 C   0  0  0  0  0  0  0  0  0  0  0  0
   29.4629  -31.3512  -15.1027 O   0  0  0  0  0  0  0  0  0  0  0  0
   34.4611  -36.0123  -16.7994 O   0  0  0  0  0  0  0  0  0  0  0  0
   26.2679  -33.7144  -15.6833 C   0  0  0  0  0  0  0  0  0  0  0  0
   27.4072  -33.1088  -14.8978 C   0  0  2  0  0  0  0  0  0  0  0  0
   28.6392  -33.4073  -15.6450 N   0  0  0  0  0  0  0  0  0  0  0  0
   27.4858  -33.7667  -13.5657 C   0  0  0  0  0  0  0  0  0  0  0  0
   28.0701  -34.8752  -13.4208 O   0  0  0  0  0  0  0  0  0  0  0  0
   26.9090  -33.1618  -12.4449 N   0  0  0  0  0  0  0  0  0  0  0  0
   26.9134  -33.7609  -11.0906 C   0  0  1  0  0  0  0  0  0  0  0  0
   26.6272  -32.6373  -10.1603 C   0  0  0  0  0  0  0  0  0  0  0  0
   26.3023  -32.9586   -8.7749 C   0  0  0  0  0  0  0  0  0  0  0  0
   27.1825  -33.3786   -7.7637 C   0  0  0  0  0  0  0  0  0  0  0  0
   26.5129  -33.6045   -6.6433 N   0  0  0  0  0  0  0  0  0  0  0  0
   25.2049  -33.3598   -6.8289 C   0  0  0  0  0  0  0  0  0  0  0  0
   24.0800  -33.4095   -6.0370 C   0  0  0  0  0  0  0  0  0  0  0  0
   22.8412  -33.0694   -6.5319 C   0  0  0  0  0  0  0  0  0  0  0  0
   22.6806  -32.6668   -7.8380 C   0  0  0  0  0  0  0  0  0  0  0  0
   23.8064  -32.6199   -8.6240 C   0  0  0  0  0  0  0  0  0  0  0  0
   25.0708  -32.9550   -8.1626 C   0  0  0  0  0  0  0  0  0  0  0  0
   25.9280  -34.8428  -11.0986 C   0  0  0  0  0  0  0  0  0  0  0  0
   24.9274  -34.7927  -11.8777 O   0  0  0  0  0  0  0  0  0  0  0  0
   26.0383  -35.9712  -10.2665 O   0  0  0  0  0  0  0  0  0  0  0  0
  2  1  1  1
  3  4  1  0
  3  2  1  0
  4  5  1  0
  5  9  1  0
  5  6  2  0
  7  8  2  0
  7  2  1  0
 11 10  1  6
 11 12  1  0
 11 13  1  0
 12  7  1  0
 13 15  1  0
 14 13  2  0
 15 16  1  0
 16 27  1  0
 16 17  1  1
 18 17  1  0
 19 18  2  0
 20 19  1  0
 21 20  1  0
 21 26  2  0
 22 23  2  0
 22 21  1  0
 23 24  1  0
 24 25  2  0
 26 25  1  0
 26 18  1  0
 27 28  2  0
 27 29  1  0
M  END
$$$$
