EAW.pdb
     RDKit          3D

 29 30  0  0  1  0  0  0  0  0999 V2000
   27.8835  -20.7112  -18.6816 N   0  0  0  0  0  0  0  0  0  0  0  0
   28.5876  -21.5407  -17.7486 C   0  0  1  0  0  0  0  0  0  0  0  0
   30.0463  -21.6837  -18.0705 C   0  0  0  0  0  0  0  0  0  0  0  0
   30.5812  -20.6345  -19.0027 C   0  0  0  0  0  0  0  0  0  0  0  0
   30.3243  -21.0981  -20.3847 C   0  0  0  0  0  0  0  0  0  0  0  0
   29.9809  -22.2693  -20.5949 O   0  0  0  0  0  0  0  0  0  0  0  0
   28.3165  -21.0977  -16.3803 C   0  0  0  0  0  0  0  0  0  0  0  0
   28.7548  -21.6898  -15.3509 O   0  0  0  0  0  0  0  0  0  0  0  0
   30.4662  -20.2277  -21.4459 O   0  0  0  0  0  0  0  0  0  0  0  0
   26.6192  -18.1226  -14.8817 C   0  0  0  0  0  0  0  0  0  0  0  0
   27.3572  -19.4360  -14.7716 C   0  0  2  0  0  0  0  0  0  0  0  0
   27.5214  -19.9430  -16.1432 N   0  0  0  0  0  0  0  0  0  0  0  0
   26.5251  -20.4006  -14.0029 C   0  0  0  0  0  0  0  0  0  0  0  0
   25.6601  -21.1164  -14.5778 O   0  0  0  0  0  0  0  0  0  0  0  0
   26.6903  -20.5298  -12.6205 N   0  0  0  0  0  0  0  0  0  0  0  0
   26.0058  -21.5555  -11.8005 C   0  0  1  0  0  0  0  0  0  0  0  0
   26.9098  -21.8079  -10.6476 C   0  0  0  0  0  0  0  0  0  0  0  0
   26.8961  -20.8553   -9.5430 C   0  0  0  0  0  0  0  0  0  0  0  0
   25.9271  -19.8760   -9.2680 C   0  0  0  0  0  0  0  0  0  0  0  0
   26.2753  -19.1804   -8.1958 N   0  0  0  0  0  0  0  0  0  0  0  0
   27.4440  -19.6323   -7.7109 C   0  0  0  0  0  0  0  0  0  0  0  0
   28.2489  -19.3079   -6.6423 C   0  0  0  0  0  0  0  0  0  0  0  0
   29.4166  -19.9930   -6.3924 C   0  0  0  0  0  0  0  0  0  0  0  0
   29.8236  -21.0285   -7.2021 C   0  0  0  0  0  0  0  0  0  0  0  0
   29.0170  -21.3475   -8.2675 C   0  0  0  0  0  0  0  0  0  0  0  0
   27.8343  -20.6811   -8.5526 C   0  0  0  0  0  0  0  0  0  0  0  0
   24.6849  -21.0226  -11.4645 C   0  0  0  0  0  0  0  0  0  0  0  0
   23.7703  -21.7952  -11.0433 O   0  0  0  0  0  0  0  0  0  0  0  0
   24.3687  -19.6574  -11.5827 O   0  0  0  0  0  0  0  0  0  0  0  0
  2  1  1  6
  3  4  1  0
  3  2  1  0
  4  5  1  0
  5  9  1  0
  5  6  2  0
  7  8  2  0
  7  2  1  0
 11 10  1  6
 11 12  1  0
 11 13  1  0
 12  7  1  0
 13 15  1  0
 14 13  2  0
 15 16  1  0
 16 27  1  0
 16 17  1  1
 18 17  1  0
 19 18  2  0
 20 19  1  0
 21 20  1  0
 21 26  2  0
 22 23  2  0
 22 21  1  0
 23 24  1  0
 24 25  2  0
 26 25  1  0
 26 18  1  0
 27 28  2  0
 27 29  1  0
M  END
$$$$
