EAW.pdb
     RDKit          3D

 29 30  0  0  1  0  0  0  0  0999 V2000
   28.5490  -22.4742  -17.0561 N   0  0  0  0  0  0  0  0  0  0  0  0
   27.7843  -21.3033  -16.7425 C   0  0  1  0  0  0  0  0  0  0  0  0
   26.3658  -21.3781  -17.2264 C   0  0  0  0  0  0  0  0  0  0  0  0
   25.5829  -22.5353  -16.6749 C   0  0  0  0  0  0  0  0  0  0  0  0
   24.9208  -22.0709  -15.4352 C   0  0  0  0  0  0  0  0  0  0  0  0
   25.0994  -22.6762  -14.3695 O   0  0  0  0  0  0  0  0  0  0  0  0
   27.9162  -20.9847  -15.3202 C   0  0  0  0  0  0  0  0  0  0  0  0
   28.5135  -21.7273  -14.4869 O   0  0  0  0  0  0  0  0  0  0  0  0
   24.1013  -20.9612  -15.4605 O   0  0  0  0  0  0  0  0  0  0  0  0
   27.1341  -17.9873  -13.2374 C   0  0  0  0  0  0  0  0  0  0  0  0
   27.6048  -19.4139  -13.3954 C   0  0  2  0  0  0  0  0  0  0  0  0
   27.3587  -19.7855  -14.7977 N   0  0  0  0  0  0  0  0  0  0  0  0
   26.7900  -20.2969  -12.5178 C   0  0  0  0  0  0  0  0  0  0  0  0
   25.7412  -20.8514  -12.9462 O   0  0  0  0  0  0  0  0  0  0  0  0
   27.1772  -20.5277  -11.1943 N   0  0  0  0  0  0  0  0  0  0  0  0
   26.4141  -21.3724  -10.2472 C   0  0  1  0  0  0  0  0  0  0  0  0
   27.2727  -21.4866   -9.0390 C   0  0  0  0  0  0  0  0  0  0  0  0
   27.3262  -20.3510   -8.1249 C   0  0  0  0  0  0  0  0  0  0  0  0
   26.7158  -19.0954   -8.2816 C   0  0  0  0  0  0  0  0  0  0  0  0
   27.0179  -18.3121   -7.2570 N   0  0  0  0  0  0  0  0  0  0  0  0
   27.8114  -18.9666   -6.3927 C   0  0  0  0  0  0  0  0  0  0  0  0
   28.4024  -18.6630   -5.1870 C   0  0  0  0  0  0  0  0  0  0  0  0
   29.1705  -19.5864   -4.5142 C   0  0  0  0  0  0  0  0  0  0  0  0
   29.3767  -20.8487   -5.0220 C   0  0  0  0  0  0  0  0  0  0  0  0
   28.7852  -21.1460   -6.2258 C   0  0  0  0  0  0  0  0  0  0  0  0
   28.0054  -20.2435   -6.9338 C   0  0  0  0  0  0  0  0  0  0  0  0
   25.1183  -20.7234  -10.0439 C   0  0  0  0  0  0  0  0  0  0  0  0
   24.1837  -21.3334   -9.4397 O   0  0  0  0  0  0  0  0  0  0  0  0
   24.8487  -19.4180  -10.4924 O   0  0  0  0  0  0  0  0  0  0  0  0
  2  1  1  1
  3  4  1  0
  3  2  1  0
  4  5  1  0
  5  9  1  0
  5  6  2  0
  7  8  2  0
  7  2  1  0
 11 10  1  6
 11 12  1  0
 11 13  1  0
 12  7  1  0
 13 15  1  0
 14 13  2  0
 15 16  1  0
 16 27  1  0
 16 17  1  1
 18 17  1  0
 19 18  2  0
 20 19  1  0
 21 20  1  0
 21 26  2  0
 22 23  2  0
 22 21  1  0
 23 24  1  0
 24 25  2  0
 26 25  1  0
 26 18  1  0
 27 28  2  0
 27 29  1  0
M  END
$$$$
