EAW.pdb
     RDKit          3D

 29 30  0  0  1  0  0  0  0  0999 V2000
   28.6822  -20.1901  -14.9317 N   0  0  0  0  0  0  0  0  0  0  0  0
   27.9290  -19.7030  -16.0497 C   0  0  1  0  0  0  0  0  0  0  0  0
   28.7849  -19.3643  -17.2348 C   0  0  0  0  0  0  0  0  0  0  0  0
   29.7639  -18.2506  -16.9945 C   0  0  0  0  0  0  0  0  0  0  0  0
   29.2450  -17.0487  -17.6853 C   0  0  0  0  0  0  0  0  0  0  0  0
   29.4100  -15.9258  -17.1896 O   0  0  0  0  0  0  0  0  0  0  0  0
   26.8270  -20.6185  -16.3485 C   0  0  0  0  0  0  0  0  0  0  0  0
   25.9989  -20.4371  -17.2886 O   0  0  0  0  0  0  0  0  0  0  0  0
   28.5749  -17.1733  -18.8849 O   0  0  0  0  0  0  0  0  0  0  0  0
   25.9848  -24.0352  -16.0759 C   0  0  0  0  0  0  0  0  0  0  0  0
   25.4602  -22.6448  -15.8049 C   0  0  2  0  0  0  0  0  0  0  0  0
   26.6346  -21.7907  -15.5670 N   0  0  0  0  0  0  0  0  0  0  0  0
   24.6296  -22.6683  -14.5707 C   0  0  0  0  0  0  0  0  0  0  0  0
   23.5447  -23.3105  -14.5287 O   0  0  0  0  0  0  0  0  0  0  0  0
   25.0417  -21.9737  -13.4295 N   0  0  0  0  0  0  0  0  0  0  0  0
   24.2841  -21.9546  -12.1572 C   0  0  1  0  0  0  0  0  0  0  0  0
   25.2517  -22.3858  -11.1143 C   0  0  0  0  0  0  0  0  0  0  0  0
   26.0225  -21.3567  -10.4252 C   0  0  0  0  0  0  0  0  0  0  0  0
   25.5576  -20.4264   -9.4808 C   0  0  0  0  0  0  0  0  0  0  0  0
   26.5467  -19.6314   -9.1009 N   0  0  0  0  0  0  0  0  0  0  0  0
   27.6807  -19.9671   -9.7383 C   0  0  0  0  0  0  0  0  0  0  0  0
   28.9796  -19.5114   -9.7263 C   0  0  0  0  0  0  0  0  0  0  0  0
   29.9504  -20.0967  -10.5075 C   0  0  0  0  0  0  0  0  0  0  0  0
   29.6587  -21.1602  -11.3306 C   0  0  0  0  0  0  0  0  0  0  0  0
   28.3607  -21.6105  -11.3393 C   0  0  0  0  0  0  0  0  0  0  0  0
   27.3550  -21.0474  -10.5677 C   0  0  0  0  0  0  0  0  0  0  0  0
   23.7453  -20.6030  -12.0008 C   0  0  0  0  0  0  0  0  0  0  0  0
   22.8150  -20.3763  -11.1677 O   0  0  0  0  0  0  0  0  0  0  0  0
   24.2225  -19.5088  -12.7443 O   0  0  0  0  0  0  0  0  0  0  0  0
  2  1  1  1
  3  4  1  0
  3  2  1  0
  4  5  1  0
  5  9  1  0
  5  6  2  0
  7  8  2  0
  7  2  1  0
 11 10  1  1
 11 12  1  0
 11 13  1  0
 12  7  1  0
 13 15  1  0
 14 13  2  0
 15 16  1  0
 16 27  1  0
 16 17  1  1
 18 17  1  0
 19 18  2  0
 20 19  1  0
 21 20  1  0
 21 26  2  0
 22 23  2  0
 22 21  1  0
 23 24  1  0
 24 25  2  0
 26 25  1  0
 26 18  1  0
 27 28  2  0
 27 29  1  0
M  END
$$$$
