EAW.pdb
     RDKit          3D

 29 30  0  0  1  0  0  0  0  0999 V2000
   23.2363  -17.9144  -17.0554 N   0  0  0  0  0  0  0  0  0  0  0  0
   24.2215  -18.7180  -16.3938 C   0  0  1  0  0  0  0  0  0  0  0  0
   25.6274  -18.2664  -16.6610 C   0  0  0  0  0  0  0  0  0  0  0  0
   26.3614  -19.0931  -17.6779 C   0  0  0  0  0  0  0  0  0  0  0  0
   25.6177  -18.9885  -18.9533 C   0  0  0  0  0  0  0  0  0  0  0  0
   25.6711  -17.9472  -19.6217 O   0  0  0  0  0  0  0  0  0  0  0  0
   23.8928  -18.8453  -14.9734 C   0  0  0  0  0  0  0  0  0  0  0  0
   24.3314  -18.0647  -14.0786 O   0  0  0  0  0  0  0  0  0  0  0  0
   24.8610  -20.0506  -19.4041 O   0  0  0  0  0  0  0  0  0  0  0  0
   21.5931  -21.0068  -12.9808 C   0  0  0  0  0  0  0  0  0  0  0  0
   22.7292  -20.0175  -13.0915 C   0  0  2  0  0  0  0  0  0  0  0  0
   23.0369  -19.8884  -14.5246 N   0  0  0  0  0  0  0  0  0  0  0  0
   23.9238  -20.5660  -12.3945 C   0  0  0  0  0  0  0  0  0  0  0  0
   24.9218  -20.9826  -13.0438 O   0  0  0  0  0  0  0  0  0  0  0  0
   23.9592  -20.6285  -10.9982 N   0  0  0  0  0  0  0  0  0  0  0  0
   25.1151  -21.1370  -10.2246 C   0  0  1  0  0  0  0  0  0  0  0  0
   26.2194  -20.1769  -10.4868 C   0  0  0  0  0  0  0  0  0  0  0  0
   27.4883  -20.3851   -9.7978 C   0  0  0  0  0  0  0  0  0  0  0  0
   28.5819  -21.1535  -10.2301 C   0  0  0  0  0  0  0  0  0  0  0  0
   29.5436  -21.1281   -9.3193 N   0  0  0  0  0  0  0  0  0  0  0  0
   29.1685  -20.3752   -8.2717 C   0  0  0  0  0  0  0  0  0  0  0  0
   29.7507  -19.9959   -7.0833 C   0  0  0  0  0  0  0  0  0  0  0  0
   29.0943  -19.1735   -6.1956 C   0  0  0  0  0  0  0  0  0  0  0  0
   27.8304  -18.6993   -6.4630 C   0  0  0  0  0  0  0  0  0  0  0  0
   27.2539  -19.0816   -7.6499 C   0  0  0  0  0  0  0  0  0  0  0  0
   27.8822  -19.9087   -8.5692 C   0  0  0  0  0  0  0  0  0  0  0  0
   24.6839  -21.2404   -8.8300 C   0  0  0  0  0  0  0  0  0  0  0  0
   25.3403  -21.9494   -8.0070 O   0  0  0  0  0  0  0  0  0  0  0  0
   23.5489  -20.5709   -8.3386 O   0  0  0  0  0  0  0  0  0  0  0  0
  2  1  1  1
  3  4  1  0
  3  2  1  0
  4  5  1  0
  5  9  1  0
  5  6  2  0
  7  8  2  0
  7  2  1  0
 11 10  1  6
 11 12  1  0
 11 13  1  0
 12  7  1  0
 13 15  1  0
 14 13  2  0
 15 16  1  0
 16 27  1  0
 16 17  1  1
 18 17  1  0
 19 18  2  0
 20 19  1  0
 21 20  1  0
 21 26  2  0
 22 23  2  0
 22 21  1  0
 23 24  1  0
 24 25  2  0
 26 25  1  0
 26 18  1  0
 27 28  2  0
 27 29  1  0
M  END
$$$$
