EAW.pdb
     RDKit          3D

 29 30  0  0  1  0  0  0  0  0999 V2000
   27.1893  -20.6932  -17.4922 N   0  0  0  0  0  0  0  0  0  0  0  0
   27.5401  -21.3734  -16.2803 C   0  0  1  0  0  0  0  0  0  0  0  0
   28.9972  -21.7233  -16.2008 C   0  0  0  0  0  0  0  0  0  0  0  0
   29.4320  -22.7901  -17.1647 C   0  0  0  0  0  0  0  0  0  0  0  0
   29.2939  -22.2356  -18.5301 C   0  0  0  0  0  0  0  0  0  0  0  0
   30.1089  -21.4024  -18.9491 O   0  0  0  0  0  0  0  0  0  0  0  0
   27.0388  -20.6285  -15.1245 C   0  0  0  0  0  0  0  0  0  0  0  0
   27.3650  -19.4334  -14.8643 O   0  0  0  0  0  0  0  0  0  0  0  0
   28.2565  -22.6440  -19.3429 O   0  0  0  0  0  0  0  0  0  0  0  0
   24.1639  -20.3599  -13.1798 C   0  0  0  0  0  0  0  0  0  0  0  0
   25.6620  -20.4910  -13.0376 C   0  0  2  0  0  0  0  0  0  0  0  0
   26.1328  -21.2387  -14.2143 N   0  0  0  0  0  0  0  0  0  0  0  0
   25.9691  -21.2820  -11.8155 C   0  0  0  0  0  0  0  0  0  0  0  0
   26.0607  -22.5393  -11.8601 O   0  0  0  0  0  0  0  0  0  0  0  0
   26.1625  -20.6392  -10.5890 N   0  0  0  0  0  0  0  0  0  0  0  0
   26.3670  -21.3523   -9.3074 C   0  0  1  0  0  0  0  0  0  0  0  0
   27.7311  -20.9708   -8.8560 C   0  0  0  0  0  0  0  0  0  0  0  0
   27.8505  -19.9725   -7.7991 C   0  0  0  0  0  0  0  0  0  0  0  0
   27.2617  -18.6978   -7.7542 C   0  0  0  0  0  0  0  0  0  0  0  0
   27.6265  -18.0673   -6.6478 N   0  0  0  0  0  0  0  0  0  0  0  0
   28.4430  -18.8468   -5.9192 C   0  0  0  0  0  0  0  0  0  0  0  0
   29.0938  -18.7209   -4.7127 C   0  0  0  0  0  0  0  0  0  0  0  0
   29.8704  -19.7400   -4.2091 C   0  0  0  0  0  0  0  0  0  0  0  0
   30.0257  -20.9237   -4.8934 C   0  0  0  0  0  0  0  0  0  0  0  0
   29.3747  -21.0437   -6.0973 C   0  0  0  0  0  0  0  0  0  0  0  0
   28.5843  -20.0402   -6.6380 C   0  0  0  0  0  0  0  0  0  0  0  0
   25.2729  -20.9577   -8.4193 C   0  0  0  0  0  0  0  0  0  0  0  0
   24.4684  -20.0381   -8.7628 O   0  0  0  0  0  0  0  0  0  0  0  0
   25.0571  -21.5663   -7.1700 O   0  0  0  0  0  0  0  0  0  0  0  0
  2  1  1  6
  3  4  1  0
  3  2  1  0
  4  5  1  0
  5  9  1  0
  5  6  2  0
  7  8  2  0
  7  2  1  0
 11 10  1  6
 11 12  1  0
 11 13  1  0
 12  7  1  0
 13 15  1  0
 14 13  2  0
 15 16  1  0
 16 27  1  0
 16 17  1  1
 18 17  1  0
 19 18  2  0
 20 19  1  0
 21 20  1  0
 21 26  2  0
 22 23  2  0
 22 21  1  0
 23 24  1  0
 24 25  2  0
 26 25  1  0
 26 18  1  0
 27 28  2  0
 27 29  1  0
M  END
$$$$
