EAW.pdb
     RDKit          3D

 29 30  0  0  1  0  0  0  0  0999 V2000
   28.5524  -15.9961  -17.8506 N   0  0  0  0  0  0  0  0  0  0  0  0
   28.5959  -17.3458  -17.3702 C   0  0  1  0  0  0  0  0  0  0  0  0
   29.9930  -17.8635  -17.1914 C   0  0  0  0  0  0  0  0  0  0  0  0
   30.7430  -18.0796  -18.4747 C   0  0  0  0  0  0  0  0  0  0  0  0
   29.8637  -18.8587  -19.3752 C   0  0  0  0  0  0  0  0  0  0  0  0
   29.4235  -18.3455  -20.4129 O   0  0  0  0  0  0  0  0  0  0  0  0
   27.7496  -17.4830  -16.1841 C   0  0  0  0  0  0  0  0  0  0  0  0
   27.9729  -16.8874  -15.0896 O   0  0  0  0  0  0  0  0  0  0  0  0
   29.5301  -20.1605  -19.0631 O   0  0  0  0  0  0  0  0  0  0  0  0
   24.3765  -18.1278  -15.3579 C   0  0  0  0  0  0  0  0  0  0  0  0
   25.7947  -18.5014  -14.9963 C   0  0  2  0  0  0  0  0  0  0  0  0
   26.6012  -18.3209  -16.2138 N   0  0  0  0  0  0  0  0  0  0  0  0
   25.8368  -19.9362  -14.6046 C   0  0  0  0  0  0  0  0  0  0  0  0
   25.8277  -20.8490  -15.4751 O   0  0  0  0  0  0  0  0  0  0  0  0
   25.8878  -20.2979  -13.2550 N   0  0  0  0  0  0  0  0  0  0  0  0
   26.0624  -21.6897  -12.7803 C   0  0  1  0  0  0  0  0  0  0  0  0
   27.0274  -21.6047  -11.6526 C   0  0  0  0  0  0  0  0  0  0  0  0
   26.5704  -21.0101  -10.4013 C   0  0  0  0  0  0  0  0  0  0  0  0
   25.2749  -20.5681  -10.0856 C   0  0  0  0  0  0  0  0  0  0  0  0
   25.2541  -20.0574   -8.8635 N   0  0  0  0  0  0  0  0  0  0  0  0
   26.4779  -20.1248   -8.3133 C   0  0  0  0  0  0  0  0  0  0  0  0
   27.0244  -19.7705   -7.1005 C   0  0  0  0  0  0  0  0  0  0  0  0
   28.3543  -19.9932   -6.8227 C   0  0  0  0  0  0  0  0  0  0  0  0
   29.1881  -20.5787   -7.7477 C   0  0  0  0  0  0  0  0  0  0  0  0
   28.6377  -20.9295   -8.9566 C   0  0  0  0  0  0  0  0  0  0  0  0
   27.3036  -20.7213   -9.2741 C   0  0  0  0  0  0  0  0  0  0  0  0
   24.7322  -22.1949  -12.4386 C   0  0  0  0  0  0  0  0  0  0  0  0
   24.5303  -23.4428  -12.3244 O   0  0  0  0  0  0  0  0  0  0  0  0
   23.6345  -21.3439  -12.2186 O   0  0  0  0  0  0  0  0  0  0  0  0
  2  1  1  1
  3  4  1  0
  3  2  1  0
  4  5  1  0
  5  9  1  0
  5  6  2  0
  7  8  2  0
  7  2  1  0
 11 10  1  6
 11 12  1  0
 11 13  1  0
 12  7  1  0
 13 15  1  0
 14 13  2  0
 15 16  1  0
 16 27  1  0
 16 17  1  1
 18 17  1  0
 19 18  2  0
 20 19  1  0
 21 20  1  0
 21 26  2  0
 22 23  2  0
 22 21  1  0
 23 24  1  0
 24 25  2  0
 26 25  1  0
 26 18  1  0
 27 28  2  0
 27 29  1  0
M  END
$$$$
