KLA.pdb
     RDKit          3D

 23 22  0  0  1  0  0  0  0  0999 V2000
    7.1671  -15.6262   20.9645 N   0  0  0  0  0  0  0  0  0  0  0  0
    8.4399  -15.0005   21.1360 C   0  0  1  0  0  0  0  0  0  0  0  0
    8.5893  -13.9094   20.1009 C   0  0  0  0  0  0  0  0  0  0  0  0
    8.2334  -14.4988   18.7644 C   0  0  0  0  0  0  0  0  0  0  0  0
    8.5682  -13.5896   17.6060 C   0  0  0  0  0  0  0  0  0  0  0  0
    8.1409  -14.1605   16.2822 C   0  0  0  0  0  0  0  0  0  0  0  0
    8.4864  -13.1865   15.2567 N   0  0  0  0  0  0  0  0  0  0  0  0
    8.6131  -14.5106   22.5142 C   0  0  0  0  0  0  0  0  0  0  0  0
    9.7431  -14.0793   22.9362 O   0  0  0  0  0  0  0  0  0  0  0  0
    7.9513  -12.1456   26.5472 C   0  0  0  0  0  0  0  0  0  0  0  0
    6.4506  -12.3682   26.3079 C   0  0  2  0  0  0  0  0  0  0  0  0
    5.8850  -12.9031   27.5733 C   0  0  0  0  0  0  0  0  0  0  0  0
    6.3209  -13.2065   25.1048 C   0  0  0  0  0  0  0  0  0  0  0  0
    7.5139  -14.0164   24.7143 C   0  0  2  0  0  0  0  0  0  0  0  0
    7.4892  -14.5231   23.3850 N   0  0  0  0  0  0  0  0  0  0  0  0
    7.8073  -15.0655   25.7389 C   0  0  0  0  0  0  0  0  0  0  0  0
    7.9052  -14.6976   26.9387 O   0  0  0  0  0  0  0  0  0  0  0  0
    7.7310  -18.7773   25.9880 C   0  0  0  0  0  0  0  0  0  0  0  0
    8.2478  -17.4455   26.4515 C   0  0  2  0  0  0  0  0  0  0  0  0
    7.9796  -16.4236   25.4530 N   0  0  0  0  0  0  0  0  0  0  0  0
    9.7050  -17.5827   26.7104 C   0  0  0  0  0  0  0  0  0  0  0  0
   10.4893  -16.8921   26.0153 O   0  0  0  0  0  0  0  0  0  0  0  0
   10.1606  -18.4488   27.6900 O   0  0  0  0  0  0  0  0  0  0  0  0
  2  8  1  0
  2  1  1  1
  3  2  1  0
  4  3  1  0
  5  4  1  0
  6  5  1  0
  6  7  1  0
  8  9  2  0
 11 10  1  1
 11 12  1  0
 14 13  1  1
 13 11  1  0
 15 14  1  0
 15  8  1  0
 16 17  2  0
 16 14  1  0
 19 18  1  6
 19 21  1  0
 19 20  1  0
 20 16  1  0
 21 23  1  0
 22 21  2  0
M  END
$$$$
