KLA.pdb
     RDKit          3D

 23 22  0  0  1  0  0  0  0  0999 V2000
    6.6262  -15.7402   21.3187 N   0  0  0  0  0  0  0  0  0  0  0  0
    7.9209  -15.1432   21.2289 C   0  0  1  0  0  0  0  0  0  0  0  0
    7.8016  -13.8313   20.4879 C   0  0  0  0  0  0  0  0  0  0  0  0
    7.8757  -14.1318   19.0166 C   0  0  0  0  0  0  0  0  0  0  0  0
    8.4219  -12.9832   18.2025 C   0  0  0  0  0  0  0  0  0  0  0  0
    8.4787  -13.2937   16.7323 C   0  0  0  0  0  0  0  0  0  0  0  0
    8.9802  -12.1058   16.0560 N   0  0  0  0  0  0  0  0  0  0  0  0
    8.5350  -14.9959   22.5596 C   0  0  0  0  0  0  0  0  0  0  0  0
    9.7862  -14.7592   22.6989 O   0  0  0  0  0  0  0  0  0  0  0  0
    8.0493  -12.0108   25.6833 C   0  0  0  0  0  0  0  0  0  0  0  0
    6.8219  -12.9283   25.5807 C   0  0  2  0  0  0  0  0  0  0  0  0
    5.7421  -12.2985   26.3835 C   0  0  0  0  0  0  0  0  0  0  0  0
    7.2538  -14.2793   25.9749 C   0  0  0  0  0  0  0  0  0  0  0  0
    8.1788  -14.9914   25.0428 C   0  0  2  0  0  0  0  0  0  0  0  0
    7.7054  -15.1222   23.7073 N   0  0  0  0  0  0  0  0  0  0  0  0
    8.6417  -16.2853   25.6327 C   0  0  0  0  0  0  0  0  0  0  0  0
    7.7616  -17.1000   26.0147 O   0  0  0  0  0  0  0  0  0  0  0  0
   11.8229  -18.2294   25.8539 C   0  0  0  0  0  0  0  0  0  0  0  0
   10.4326  -17.9201   26.3302 C   0  0  2  0  0  0  0  0  0  0  0  0
    9.9833  -16.6485   25.7875 N   0  0  0  0  0  0  0  0  0  0  0  0
   10.4494  -17.9007   27.8164 C   0  0  0  0  0  0  0  0  0  0  0  0
   10.1068  -16.8387   28.3906 O   0  0  0  0  0  0  0  0  0  0  0  0
   10.8334  -19.0273   28.5240 O   0  0  0  0  0  0  0  0  0  0  0  0
  2  8  1  0
  2  1  1  1
  3  2  1  0
  4  3  1  0
  5  4  1  0
  6  5  1  0
  6  7  1  0
  8  9  2  0
 11 10  1  1
 11 12  1  0
 14 13  1  1
 13 11  1  0
 15 14  1  0
 15  8  1  0
 16 17  2  0
 16 14  1  0
 19 18  1  6
 19 21  1  0
 19 20  1  0
 20 16  1  0
 21 23  1  0
 22 21  2  0
M  END
$$$$
