KLA.pdb
     RDKit          3D

 23 22  0  0  1  0  0  0  0  0999 V2000
    7.2723  -15.5810   20.8894 N   0  0  0  0  0  0  0  0  0  0  0  0
    8.5342  -14.9158   20.9650 C   0  0  1  0  0  0  0  0  0  0  0  0
    8.5122  -13.7231   20.0370 C   0  0  0  0  0  0  0  0  0  0  0  0
    7.8172  -14.1440   18.7721 C   0  0  0  0  0  0  0  0  0  0  0  0
    8.3788  -13.4812   17.5369 C   0  0  0  0  0  0  0  0  0  0  0  0
    7.5866  -13.8012   16.2995 C   0  0  0  0  0  0  0  0  0  0  0  0
    8.1667  -13.0393   15.2027 N   0  0  0  0  0  0  0  0  0  0  0  0
    8.8658  -14.5551   22.3541 C   0  0  0  0  0  0  0  0  0  0  0  0
   10.0271  -14.1204   22.6758 O   0  0  0  0  0  0  0  0  0  0  0  0
    5.6086  -12.4892   27.0657 C   0  0  0  0  0  0  0  0  0  0  0  0
    6.9942  -12.9580   26.5973 C   0  0  2  0  0  0  0  0  0  0  0  0
    7.8793  -11.7648   26.6014 C   0  0  0  0  0  0  0  0  0  0  0  0
    6.8077  -13.6540   25.3136 C   0  0  0  0  0  0  0  0  0  0  0  0
    8.0201  -14.2735   24.6990 C   0  0  2  0  0  0  0  0  0  0  0  0
    7.8616  -14.6985   23.3504 N   0  0  0  0  0  0  0  0  0  0  0  0
    8.5884  -15.3337   25.5875 C   0  0  0  0  0  0  0  0  0  0  0  0
    8.7450  -15.0525   26.8043 O   0  0  0  0  0  0  0  0  0  0  0  0
    9.2128  -19.0117   25.4146 C   0  0  0  0  0  0  0  0  0  0  0  0
    9.4497  -17.6633   26.0321 C   0  0  2  0  0  0  0  0  0  0  0  0
    8.9560  -16.6125   25.1571 N   0  0  0  0  0  0  0  0  0  0  0  0
   10.9081  -17.5217   26.2817 C   0  0  0  0  0  0  0  0  0  0  0  0
   11.5179  -16.6062   25.6774 O   0  0  0  0  0  0  0  0  0  0  0  0
   11.5526  -18.3813   27.1551 O   0  0  0  0  0  0  0  0  0  0  0  0
  2  8  1  0
  2  1  1  1
  3  2  1  0
  4  3  1  0
  5  4  1  0
  6  5  1  0
  6  7  1  0
  8  9  2  0
 11 10  1  6
 11 12  1  0
 14 13  1  1
 13 11  1  0
 15 14  1  0
 15  8  1  0
 16 17  2  0
 16 14  1  0
 19 18  1  6
 19 21  1  0
 19 20  1  0
 20 16  1  0
 21 23  1  0
 22 21  2  0
M  END
$$$$
