KLA.pdb
     RDKit          3D

 23 22  0  0  1  0  0  0  0  0999 V2000
    9.0055  -15.9217   20.4364 N   0  0  0  0  0  0  0  0  0  0  0  0
    8.1933  -16.2661   21.5600 C   0  0  1  0  0  0  0  0  0  0  0  0
    7.9982  -17.7648   21.5786 C   0  0  0  0  0  0  0  0  0  0  0  0
    7.8722  -18.2245   20.1527 C   0  0  0  0  0  0  0  0  0  0  0  0
    6.4533  -18.5608   19.7601 C   0  0  0  0  0  0  0  0  0  0  0  0
    6.3825  -19.3958   18.5117 C   0  0  0  0  0  0  0  0  0  0  0  0
    6.0302  -18.5071   17.4135 N   0  0  0  0  0  0  0  0  0  0  0  0
    8.7674  -15.7474   22.8134 C   0  0  0  0  0  0  0  0  0  0  0  0
   10.0326  -15.7221   23.0121 O   0  0  0  0  0  0  0  0  0  0  0  0
    8.3055  -11.9732   25.4882 C   0  0  0  0  0  0  0  0  0  0  0  0
    7.0168  -12.8040   25.3994 C   0  0  2  0  0  0  0  0  0  0  0  0
    5.9522  -12.0262   26.0842 C   0  0  0  0  0  0  0  0  0  0  0  0
    7.3229  -14.1414   25.9329 C   0  0  0  0  0  0  0  0  0  0  0  0
    8.2835  -14.9766   25.1511 C   0  0  2  0  0  0  0  0  0  0  0  0
    7.8825  -15.2667   23.8171 N   0  0  0  0  0  0  0  0  0  0  0  0
    8.6863  -16.1929   25.9224 C   0  0  0  0  0  0  0  0  0  0  0  0
    7.7853  -17.0205   26.2184 O   0  0  0  0  0  0  0  0  0  0  0  0
   11.7767  -18.1073   26.5012 C   0  0  0  0  0  0  0  0  0  0  0  0
   10.4077  -17.7092   26.9731 C   0  0  2  0  0  0  0  0  0  0  0  0
    9.9933  -16.4703   26.3353 N   0  0  0  0  0  0  0  0  0  0  0  0
   10.4536  -17.5696   28.4522 C   0  0  0  0  0  0  0  0  0  0  0  0
   10.1474  -16.4562   28.9436 O   0  0  0  0  0  0  0  0  0  0  0  0
   10.8246  -18.6443   29.2426 O   0  0  0  0  0  0  0  0  0  0  0  0
  2  8  1  0
  2  1  1  6
  3  2  1  0
  4  3  1  0
  5  4  1  0
  6  5  1  0
  6  7  1  0
  8  9  2  0
 11 10  1  1
 11 12  1  0
 14 13  1  1
 13 11  1  0
 15 14  1  0
 15  8  1  0
 16 17  2  0
 16 14  1  0
 19 18  1  6
 19 21  1  0
 19 20  1  0
 20 16  1  0
 21 23  1  0
 22 21  2  0
M  END
$$$$
