KLA.pdb
     RDKit          3D

 23 22  0  0  1  0  0  0  0  0999 V2000
    9.1125  -16.3299   20.5783 N   0  0  0  0  0  0  0  0  0  0  0  0
    8.1985  -16.4424   21.6704 C   0  0  1  0  0  0  0  0  0  0  0  0
    8.0356  -17.9036   22.0204 C   0  0  0  0  0  0  0  0  0  0  0  0
    7.5898  -18.6219   20.7771 C   0  0  0  0  0  0  0  0  0  0  0  0
    7.4527  -20.1134   20.9695 C   0  0  0  0  0  0  0  0  0  0  0  0
    7.0325  -20.8213   19.7111 C   0  0  0  0  0  0  0  0  0  0  0  0
    7.0592  -22.2507   19.9868 N   0  0  0  0  0  0  0  0  0  0  0  0
    8.6312  -15.6236   22.8159 C   0  0  0  0  0  0  0  0  0  0  0  0
    9.8692  -15.4933   23.1181 O   0  0  0  0  0  0  0  0  0  0  0  0
    8.4512  -12.7148   26.8794 C   0  0  0  0  0  0  0  0  0  0  0  0
    7.1967  -12.2090   26.1516 C   0  0  2  0  0  0  0  0  0  0  0  0
    6.1758  -11.9272   27.1935 C   0  0  0  0  0  0  0  0  0  0  0  0
    6.8550  -13.2089   25.1267 C   0  0  0  0  0  0  0  0  0  0  0  0
    7.9295  -14.1706   24.7366 C   0  0  2  0  0  0  0  0  0  0  0  0
    7.6386  -14.9684   23.5949 N   0  0  0  0  0  0  0  0  0  0  0  0
    8.3840  -14.9720   25.9146 C   0  0  0  0  0  0  0  0  0  0  0  0
    8.7845  -14.3427   26.9284 O   0  0  0  0  0  0  0  0  0  0  0  0
    8.2569  -18.5607   26.9974 C   0  0  0  0  0  0  0  0  0  0  0  0
    8.7450  -17.1476   27.1405 C   0  0  2  0  0  0  0  0  0  0  0  0
    8.3935  -16.3696   25.9638 N   0  0  0  0  0  0  0  0  0  0  0  0
   10.2167  -17.1880   27.3449 C   0  0  0  0  0  0  0  0  0  0  0  0
   10.9437  -16.6751   26.4599 O   0  0  0  0  0  0  0  0  0  0  0  0
   10.7468  -17.7767   28.4807 O   0  0  0  0  0  0  0  0  0  0  0  0
  2  8  1  0
  2  1  1  6
  3  2  1  0
  4  3  1  0
  5  4  1  0
  6  5  1  0
  6  7  1  0
  8  9  2  0
 11 10  1  1
 11 12  1  0
 14 13  1  1
 13 11  1  0
 15 14  1  0
 15  8  1  0
 16 17  2  0
 16 14  1  0
 19 18  1  6
 19 21  1  0
 19 20  1  0
 20 16  1  0
 21 23  1  0
 22 21  2  0
M  END
$$$$
