KLA.pdb
     RDKit          3D

 23 22  0  0  1  0  0  0  0  0999 V2000
    7.3099  -17.0513   21.8293 N   0  0  0  0  0  0  0  0  0  0  0  0
    6.7403  -16.7295   23.0993 C   0  0  1  0  0  0  0  0  0  0  0  0
    6.1626  -17.9873   23.7064 C   0  0  0  0  0  0  0  0  0  0  0  0
    5.9203  -18.9621   22.5878 C   0  0  0  0  0  0  0  0  0  0  0  0
    4.9242  -20.0397   22.9442 C   0  0  0  0  0  0  0  0  0  0  0  0
    4.6921  -21.0068   21.8164 C   0  0  0  0  0  0  0  0  0  0  0  0
    5.7145  -22.0390   21.9113 N   0  0  0  0  0  0  0  0  0  0  0  0
    7.7246  -16.0704   23.9748 C   0  0  0  0  0  0  0  0  0  0  0  0
    8.9847  -16.2217   23.8012 O   0  0  0  0  0  0  0  0  0  0  0  0
    7.3684  -11.6776   25.0425 C   0  0  0  0  0  0  0  0  0  0  0  0
    6.5224  -12.5940   25.9389 C   0  0  2  0  0  0  0  0  0  0  0  0
    5.6160  -11.7160   26.7230 C   0  0  0  0  0  0  0  0  0  0  0  0
    7.4553  -13.4458   26.6948 C   0  0  0  0  0  0  0  0  0  0  0  0
    8.0985  -14.5695   25.9498 C   0  0  2  0  0  0  0  0  0  0  0  0
    7.2484  -15.2497   25.0336 N   0  0  0  0  0  0  0  0  0  0  0  0
    8.8139  -15.4916   26.8849 C   0  0  0  0  0  0  0  0  0  0  0  0
    9.5910  -14.9767   27.7307 O   0  0  0  0  0  0  0  0  0  0  0  0
    8.8335  -19.1477   27.7397 C   0  0  0  0  0  0  0  0  0  0  0  0
    9.4713  -17.7887   27.6960 C   0  0  2  0  0  0  0  0  0  0  0  0
    8.6771  -16.8834   26.8815 N   0  0  0  0  0  0  0  0  0  0  0  0
   10.8462  -17.9432   27.1528 C   0  0  0  0  0  0  0  0  0  0  0  0
   11.1268  -17.3350   26.0915 O   0  0  0  0  0  0  0  0  0  0  0  0
   11.7707  -18.7364   27.8112 O   0  0  0  0  0  0  0  0  0  0  0  0
  2  8  1  0
  2  1  1  6
  3  2  1  0
  4  3  1  0
  5  4  1  0
  6  5  1  0
  6  7  1  0
  8  9  2  0
 11 10  1  6
 11 12  1  0
 14 13  1  1
 13 11  1  0
 15 14  1  0
 15  8  1  0
 16 17  2  0
 16 14  1  0
 19 18  1  6
 19 21  1  0
 19 20  1  0
 20 16  1  0
 21 23  1  0
 22 21  2  0
M  END
$$$$
