KLA.pdb
     RDKit          3D

 23 22  0  0  1  0  0  0  0  0999 V2000
    7.0276  -15.8137   21.5691 N   0  0  0  0  0  0  0  0  0  0  0  0
    8.2866  -15.1481   21.6811 C   0  0  1  0  0  0  0  0  0  0  0  0
    8.2463  -13.8871   20.8489 C   0  0  0  0  0  0  0  0  0  0  0  0
    7.6625  -14.2442   19.5103 C   0  0  0  0  0  0  0  0  0  0  0  0
    8.3279  -13.5252   18.3611 C   0  0  0  0  0  0  0  0  0  0  0  0
    7.6579  -13.7998   17.0432 C   0  0  0  0  0  0  0  0  0  0  0  0
    8.3898  -13.0642   16.0218 N   0  0  0  0  0  0  0  0  0  0  0  0
    8.6333  -14.8942   23.0900 C   0  0  0  0  0  0  0  0  0  0  0  0
    9.8447  -14.6997   23.4585 O   0  0  0  0  0  0  0  0  0  0  0  0
    7.8425  -11.6991   26.1660 C   0  0  0  0  0  0  0  0  0  0  0  0
    6.5802  -12.4449   25.7084 C   0  0  2  0  0  0  0  0  0  0  0  0
    5.4157  -11.6974   26.2491 C   0  0  0  0  0  0  0  0  0  0  0  0
    6.7300  -13.8496   26.1223 C   0  0  0  0  0  0  0  0  0  0  0  0
    7.7963  -14.6441   25.4415 C   0  0  2  0  0  0  0  0  0  0  0  0
    7.5868  -14.8674   24.0520 N   0  0  0  0  0  0  0  0  0  0  0  0
    8.0972  -15.8971   26.2004 C   0  0  0  0  0  0  0  0  0  0  0  0
    8.3277  -15.7910   27.4333 O   0  0  0  0  0  0  0  0  0  0  0  0
    7.8410  -19.5819   25.6882 C   0  0  0  0  0  0  0  0  0  0  0  0
    8.4522  -18.3896   26.3667 C   0  0  2  0  0  0  0  0  0  0  0  0
    8.1393  -17.1745   25.6326 N   0  0  0  0  0  0  0  0  0  0  0  0
    9.9197  -18.6106   26.4508 C   0  0  0  0  0  0  0  0  0  0  0  0
   10.6622  -17.8718   25.7595 O   0  0  0  0  0  0  0  0  0  0  0  0
   10.4293  -19.6036   27.2704 O   0  0  0  0  0  0  0  0  0  0  0  0
  2  8  1  0
  2  1  1  1
  3  2  1  0
  4  3  1  0
  5  4  1  0
  6  5  1  0
  6  7  1  0
  8  9  2  0
 11 10  1  1
 11 12  1  0
 14 13  1  1
 13 11  1  0
 15 14  1  0
 15  8  1  0
 16 17  2  0
 16 14  1  0
 19 18  1  6
 19 21  1  0
 19 20  1  0
 20 16  1  0
 21 23  1  0
 22 21  2  0
M  END
$$$$
