GFF.pdb
     RDKit          3D

 27 28  0  0  1  0  0  0  0  0999 V2000
    6.8331  -21.2988   23.2885 N   0  0  0  0  0  0  0  0  0  0  0  0
    6.2501  -20.0256   23.6879 C   0  0  0  0  0  0  0  0  0  0  0  0
    7.0104  -18.9370   23.0561 C   0  0  0  0  0  0  0  0  0  0  0  0
    8.0557  -19.1563   22.4180 O   0  0  0  0  0  0  0  0  0  0  0  0
    6.5246  -17.5982   23.1866 N   0  0  0  0  0  0  0  0  0  0  0  0
    7.2740  -16.5055   22.6006 C   0  0  1  0  0  0  0  0  0  0  0  0
    6.3363  -15.3905   22.2490 C   0  0  0  0  0  0  0  0  0  0  0  0
    6.9799  -14.3103   21.4598 C   0  0  0  0  0  0  0  0  0  0  0  0
    7.2036  -14.4779   20.1165 C   0  0  0  0  0  0  0  0  0  0  0  0
    7.8045  -13.4587   19.3809 C   0  0  0  0  0  0  0  0  0  0  0  0
    8.1804  -12.2806   19.9783 C   0  0  0  0  0  0  0  0  0  0  0  0
    7.9607  -12.1003   21.3295 C   0  0  0  0  0  0  0  0  0  0  0  0
    7.3660  -13.1089   22.0570 C   0  0  0  0  0  0  0  0  0  0  0  0
    8.3515  -16.1320   23.5444 C   0  0  0  0  0  0  0  0  0  0  0  0
    9.4330  -15.5929   23.1390 O   0  0  0  0  0  0  0  0  0  0  0  0
    8.2120  -16.3632   24.9283 N   0  0  0  0  0  0  0  0  0  0  0  0
    9.2345  -16.0502   25.9051 C   0  0  1  0  0  0  0  0  0  0  0  0
    8.5873  -15.4059   27.0874 C   0  0  0  0  0  0  0  0  0  0  0  0
    7.8607  -14.1692   26.7930 C   0  0  0  0  0  0  0  0  0  0  0  0
    6.4951  -14.1658   26.5898 C   0  0  0  0  0  0  0  0  0  0  0  0
    5.8160  -13.0067   26.3198 C   0  0  0  0  0  0  0  0  0  0  0  0
    6.4941  -11.7887   26.2427 C   0  0  0  0  0  0  0  0  0  0  0  0
    7.8552  -11.7641   26.4411 C   0  0  0  0  0  0  0  0  0  0  0  0
    8.5073  -12.9402   26.7096 C   0  0  0  0  0  0  0  0  0  0  0  0
   10.1130  -17.1817   26.2057 C   0  0  0  0  0  0  0  0  0  0  0  0
   11.0525  -17.0606   27.0122 O   0  0  0  0  0  0  0  0  0  0  0  0
    9.9008  -18.3926   25.5931 O   0  0  0  0  0  0  0  0  0  0  0  0
  1  2  1  0
  3  4  2  0
  3  2  1  0
  5  3  1  0
  6  5  1  0
  6  7  1  1
  8 13  1  0
  8  7  1  0
  9  8  2  0
 10  9  1  0
 10 11  2  0
 11 12  1  0
 12 13  2  0
 14  6  1  0
 15 14  2  0
 16 14  1  0
 17 18  1  1
 17 16  1  0
 18 19  1  0
 19 24  1  0
 19 20  2  0
 20 21  1  0
 21 22  2  0
 23 22  1  0
 24 23  2  0
 25 17  1  0
 26 25  2  0
 27 25  1  0
M  END
$$$$
