GFF.pdb
     RDKit          3D

 27 28  0  0  1  0  0  0  0  0999 V2000
    5.5834  -18.9358   22.6316 N   0  0  0  0  0  0  0  0  0  0  0  0
    5.8826  -18.2743   23.8940 C   0  0  0  0  0  0  0  0  0  0  0  0
    6.9536  -17.2915   23.6721 C   0  0  0  0  0  0  0  0  0  0  0  0
    7.5236  -17.1852   22.5712 O   0  0  0  0  0  0  0  0  0  0  0  0
    7.3393  -16.4435   24.7572 N   0  0  0  0  0  0  0  0  0  0  0  0
    8.3979  -15.4732   24.5649 C   0  0  1  0  0  0  0  0  0  0  0  0
    8.4261  -14.5295   25.7288 C   0  0  0  0  0  0  0  0  0  0  0  0
    7.3237  -13.5355   25.7043 C   0  0  0  0  0  0  0  0  0  0  0  0
    7.5163  -12.3071   25.1239 C   0  0  0  0  0  0  0  0  0  0  0  0
    6.4764  -11.3803   25.1008 C   0  0  0  0  0  0  0  0  0  0  0  0
    5.2532  -11.6740   25.6518 C   0  0  0  0  0  0  0  0  0  0  0  0
    5.0474  -12.9067   26.2387 C   0  0  0  0  0  0  0  0  0  0  0  0
    6.0765  -13.8236   26.2613 C   0  0  0  0  0  0  0  0  0  0  0  0
    9.6601  -16.2125   24.3384 C   0  0  0  0  0  0  0  0  0  0  0  0
   10.4051  -15.9640   23.3344 O   0  0  0  0  0  0  0  0  0  0  0  0
   10.0779  -17.2196   25.2323 N   0  0  0  0  0  0  0  0  0  0  0  0
   11.4556  -17.6391   25.3876 C   0  0  1  0  0  0  0  0  0  0  0  0
   12.2418  -16.5028   25.9556 C   0  0  0  0  0  0  0  0  0  0  0  0
   11.6664  -15.8967   27.1579 C   0  0  0  0  0  0  0  0  0  0  0  0
   11.6852  -16.5493   28.3745 C   0  0  0  0  0  0  0  0  0  0  0  0
   11.1511  -15.9782   29.4997 C   0  0  0  0  0  0  0  0  0  0  0  0
   10.5690  -14.7104   29.4439 C   0  0  0  0  0  0  0  0  0  0  0  0
   10.5371  -14.0383   28.2439 C   0  0  0  0  0  0  0  0  0  0  0  0
   11.0796  -14.6355   27.1350 C   0  0  0  0  0  0  0  0  0  0  0  0
   11.5958  -18.9160   26.0892 C   0  0  0  0  0  0  0  0  0  0  0  0
   12.7186  -19.4158   26.2818 O   0  0  0  0  0  0  0  0  0  0  0  0
   10.4777  -19.5727   26.5420 O   0  0  0  0  0  0  0  0  0  0  0  0
  1  2  1  0
  3  4  2  0
  3  2  1  0
  5  3  1  0
  6  5  1  0
  6  7  1  1
  8 13  1  0
  8  7  1  0
  9  8  2  0
 10  9  1  0
 10 11  2  0
 11 12  1  0
 12 13  2  0
 14  6  1  0
 15 14  2  0
 16 14  1  0
 17 18  1  1
 17 16  1  0
 18 19  1  0
 19 24  1  0
 19 20  2  0
 20 21  1  0
 21 22  2  0
 23 22  1  0
 24 23  2  0
 25 17  1  0
 26 25  2  0
 27 25  1  0
M  END
$$$$
