GFF.pdb
     RDKit          3D

 27 28  0  0  1  0  0  0  0  0999 V2000
   10.4826  -17.6588   18.3278 N   0  0  0  0  0  0  0  0  0  0  0  0
    9.7651  -18.2478   19.4497 C   0  0  0  0  0  0  0  0  0  0  0  0
    9.8466  -17.3325   20.5977 C   0  0  0  0  0  0  0  0  0  0  0  0
   10.7903  -16.5322   20.7282 O   0  0  0  0  0  0  0  0  0  0  0  0
    8.8087  -17.3742   21.5807 N   0  0  0  0  0  0  0  0  0  0  0  0
    8.8795  -16.4985   22.7327 C   0  0  1  0  0  0  0  0  0  0  0  0
    7.5710  -15.7868   22.8986 C   0  0  0  0  0  0  0  0  0  0  0  0
    7.3598  -14.7082   21.9007 C   0  0  0  0  0  0  0  0  0  0  0  0
    7.9597  -13.4858   22.0700 C   0  0  0  0  0  0  0  0  0  0  0  0
    7.7605  -12.4791   21.1277 C   0  0  0  0  0  0  0  0  0  0  0  0
    6.9694  -12.6876   20.0246 C   0  0  0  0  0  0  0  0  0  0  0  0
    6.3603  -13.9134   19.8435 C   0  0  0  0  0  0  0  0  0  0  0  0
    6.5577  -14.9093   20.7759 C   0  0  0  0  0  0  0  0  0  0  0  0
    9.2934  -17.3101   23.8993 C   0  0  0  0  0  0  0  0  0  0  0  0
    9.0061  -18.5491   23.9828 O   0  0  0  0  0  0  0  0  0  0  0  0
   10.0224  -16.7326   24.9591 N   0  0  0  0  0  0  0  0  0  0  0  0
   10.5651  -17.4874   26.0698 C   0  0  1  0  0  0  0  0  0  0  0  0
   11.5568  -16.6339   26.7909 C   0  0  0  0  0  0  0  0  0  0  0  0
   10.9779  -15.5140   27.5359 C   0  0  0  0  0  0  0  0  0  0  0  0
   10.4424  -14.4177   26.8897 C   0  0  0  0  0  0  0  0  0  0  0  0
    9.8963  -13.3731   27.5884 C   0  0  0  0  0  0  0  0  0  0  0  0
    9.8673  -13.3912   28.9841 C   0  0  0  0  0  0  0  0  0  0  0  0
   10.3943  -14.4718   29.6528 C   0  0  0  0  0  0  0  0  0  0  0  0
   10.9340  -15.5021   28.9263 C   0  0  0  0  0  0  0  0  0  0  0  0
    9.5358  -18.1037   26.9082 C   0  0  0  0  0  0  0  0  0  0  0  0
    8.3319  -17.8463   26.7294 O   0  0  0  0  0  0  0  0  0  0  0  0
    9.8988  -18.9770   27.9043 O   0  0  0  0  0  0  0  0  0  0  0  0
  1  2  1  0
  3  4  2  0
  3  2  1  0
  5  3  1  0
  6  5  1  0
  6  7  1  1
  8 13  1  0
  8  7  1  0
  9  8  2  0
 10  9  1  0
 10 11  2  0
 11 12  1  0
 12 13  2  0
 14  6  1  0
 15 14  2  0
 16 14  1  0
 17 18  1  1
 17 16  1  0
 18 19  1  0
 19 24  1  0
 19 20  2  0
 20 21  1  0
 21 22  2  0
 23 22  1  0
 24 23  2  0
 25 17  1  0
 26 25  2  0
 27 25  1  0
M  END
$$$$
