GFF.pdb
     RDKit          3D

 27 28  0  0  1  0  0  0  0  0999 V2000
    6.9270  -20.5125   21.4293 N   0  0  0  0  0  0  0  0  0  0  0  0
    6.6252  -20.0417   22.7738 C   0  0  0  0  0  0  0  0  0  0  0  0
    7.1182  -18.6636   22.9154 C   0  0  0  0  0  0  0  0  0  0  0  0
    7.8121  -18.1252   22.0341 O   0  0  0  0  0  0  0  0  0  0  0  0
    6.7841  -17.9361   24.1005 N   0  0  0  0  0  0  0  0  0  0  0  0
    7.1539  -16.5395   24.2101 C   0  0  1  0  0  0  0  0  0  0  0  0
    6.4420  -15.9259   25.3776 C   0  0  0  0  0  0  0  0  0  0  0  0
    6.6926  -14.4694   25.5172 C   0  0  0  0  0  0  0  0  0  0  0  0
    7.3185  -13.7782   24.5106 C   0  0  0  0  0  0  0  0  0  0  0  0
    7.5472  -12.4107   24.6464 C   0  0  0  0  0  0  0  0  0  0  0  0
    7.1558  -11.7356   25.7765 C   0  0  0  0  0  0  0  0  0  0  0  0
    6.5252  -12.4202   26.7963 C   0  0  0  0  0  0  0  0  0  0  0  0
    6.2990  -13.7734   26.6616 C   0  0  0  0  0  0  0  0  0  0  0  0
    8.6305  -16.4613   24.2764 C   0  0  0  0  0  0  0  0  0  0  0  0
    9.3007  -15.8028   23.4151 O   0  0  0  0  0  0  0  0  0  0  0  0
    9.3435  -17.1172   25.3009 N   0  0  0  0  0  0  0  0  0  0  0  0
   10.7706  -16.9788   25.5060 C   0  0  1  0  0  0  0  0  0  0  0  0
   11.0753  -15.5480   25.8087 C   0  0  0  0  0  0  0  0  0  0  0  0
   10.5248  -15.0559   27.0732 C   0  0  0  0  0  0  0  0  0  0  0  0
   10.7685  -15.7049   28.2672 C   0  0  0  0  0  0  0  0  0  0  0  0
   10.2570  -15.2399   29.4503 C   0  0  0  0  0  0  0  0  0  0  0  0
    9.4692  -14.0875   29.4784 C   0  0  0  0  0  0  0  0  0  0  0  0
    9.2110  -13.4217   28.3026 C   0  0  0  0  0  0  0  0  0  0  0  0
    9.7366  -13.9111   27.1344 C   0  0  0  0  0  0  0  0  0  0  0  0
   11.3162  -17.9536   26.4518 C   0  0  0  0  0  0  0  0  0  0  0  0
   10.5681  -18.7500   27.0465 O   0  0  0  0  0  0  0  0  0  0  0  0
   12.6686  -17.9930   26.6879 O   0  0  0  0  0  0  0  0  0  0  0  0
  1  2  1  0
  3  4  2  0
  3  2  1  0
  5  3  1  0
  6  5  1  0
  6  7  1  1
  8 13  1  0
  8  7  1  0
  9  8  2  0
 10  9  1  0
 10 11  2  0
 11 12  1  0
 12 13  2  0
 14  6  1  0
 15 14  2  0
 16 14  1  0
 17 18  1  1
 17 16  1  0
 18 19  1  0
 19 24  1  0
 19 20  2  0
 20 21  1  0
 21 22  2  0
 23 22  1  0
 24 23  2  0
 25 17  1  0
 26 25  2  0
 27 25  1  0
M  END
$$$$
