GFF.pdb
     RDKit          3D

 27 28  0  0  1  0  0  0  0  0999 V2000
    3.8246  -19.0092   22.1469 N   0  0  0  0  0  0  0  0  0  0  0  0
    5.0705  -19.2074   22.8742 C   0  0  0  0  0  0  0  0  0  0  0  0
    5.6599  -17.8936   23.1719 C   0  0  0  0  0  0  0  0  0  0  0  0
    5.6990  -16.9879   22.3197 O   0  0  0  0  0  0  0  0  0  0  0  0
    6.1977  -17.6652   24.4773 N   0  0  0  0  0  0  0  0  0  0  0  0
    6.8753  -16.4168   24.7630 C   0  0  1  0  0  0  0  0  0  0  0  0
    6.7369  -16.0972   26.2206 C   0  0  0  0  0  0  0  0  0  0  0  0
    7.0398  -14.6796   26.5411 C   0  0  0  0  0  0  0  0  0  0  0  0
    8.3113  -14.3114   26.9021 C   0  0  0  0  0  0  0  0  0  0  0  0
    8.5898  -12.9787   27.1979 C   0  0  0  0  0  0  0  0  0  0  0  0
    7.6093  -12.0191   27.1350 C   0  0  0  0  0  0  0  0  0  0  0  0
    6.3259  -12.3776   26.7731 C   0  0  0  0  0  0  0  0  0  0  0  0
    6.0508  -13.6963   26.4804 C   0  0  0  0  0  0  0  0  0  0  0  0
    8.2717  -16.5350   24.2863 C   0  0  0  0  0  0  0  0  0  0  0  0
    8.8995  -17.6432   24.3359 O   0  0  0  0  0  0  0  0  0  0  0  0
    8.9525  -15.4181   23.7602 N   0  0  0  0  0  0  0  0  0  0  0  0
   10.2698  -15.4851   23.1618 C   0  0  1  0  0  0  0  0  0  0  0  0
   10.3946  -14.3906   22.1527 C   0  0  0  0  0  0  0  0  0  0  0  0
    9.2258  -14.2145   21.2883 C   0  0  0  0  0  0  0  0  0  0  0  0
    8.8949  -15.1455   20.3240 C   0  0  0  0  0  0  0  0  0  0  0  0
    7.7977  -14.9818   19.5198 C   0  0  0  0  0  0  0  0  0  0  0  0
    6.9791  -13.8591   19.6564 C   0  0  0  0  0  0  0  0  0  0  0  0
    7.2863  -12.9160   20.6097 C   0  0  0  0  0  0  0  0  0  0  0  0
    8.3908  -13.1074   21.3997 C   0  0  0  0  0  0  0  0  0  0  0  0
   11.3495  -15.5605   24.1472 C   0  0  0  0  0  0  0  0  0  0  0  0
   11.1194  -15.3855   25.3572 O   0  0  0  0  0  0  0  0  0  0  0  0
   12.6323  -15.8277   23.7355 O   0  0  0  0  0  0  0  0  0  0  0  0
  1  2  1  0
  3  4  2  0
  3  2  1  0
  5  3  1  0
  6  5  1  0
  6  7  1  1
  8 13  1  0
  8  7  1  0
  9  8  2  0
 10  9  1  0
 10 11  2  0
 11 12  1  0
 12 13  2  0
 14  6  1  0
 15 14  2  0
 16 14  1  0
 17 18  1  1
 17 16  1  0
 18 19  1  0
 19 24  1  0
 19 20  2  0
 20 21  1  0
 21 22  2  0
 23 22  1  0
 24 23  2  0
 25 17  1  0
 26 25  2  0
 27 25  1  0
M  END
$$$$
