GFF.pdb
     RDKit          3D

 27 28  0  0  1  0  0  0  0  0999 V2000
   10.5079  -16.7212   18.4305 N   0  0  0  0  0  0  0  0  0  0  0  0
    9.6527  -17.3662   19.4169 C   0  0  0  0  0  0  0  0  0  0  0  0
    9.6207  -16.5374   20.6311 C   0  0  0  0  0  0  0  0  0  0  0  0
   10.6211  -15.9061   21.0165 O   0  0  0  0  0  0  0  0  0  0  0  0
    8.4029  -16.4645   21.3775 N   0  0  0  0  0  0  0  0  0  0  0  0
    8.3716  -15.7269   22.6242 C   0  0  1  0  0  0  0  0  0  0  0  0
    6.9579  -15.3430   22.9405 C   0  0  0  0  0  0  0  0  0  0  0  0
    6.8328  -14.5375   24.1812 C   0  0  0  0  0  0  0  0  0  0  0  0
    6.2123  -15.0649   25.2855 C   0  0  0  0  0  0  0  0  0  0  0  0
    6.1017  -14.3050   26.4480 C   0  0  0  0  0  0  0  0  0  0  0  0
    6.6052  -13.0287   26.5108 C   0  0  0  0  0  0  0  0  0  0  0  0
    7.2316  -12.4871   25.4059 C   0  0  0  0  0  0  0  0  0  0  0  0
    7.3409  -13.2393   24.2559 C   0  0  0  0  0  0  0  0  0  0  0  0
    9.0345  -16.5510   23.6598 C   0  0  0  0  0  0  0  0  0  0  0  0
    8.7745  -17.7921   23.7888 O   0  0  0  0  0  0  0  0  0  0  0  0
    9.9789  -15.9835   24.5396 N   0  0  0  0  0  0  0  0  0  0  0  0
   10.8007  -16.7562   25.4481 C   0  0  1  0  0  0  0  0  0  0  0  0
   11.7062  -15.8249   26.1860 C   0  0  0  0  0  0  0  0  0  0  0  0
   11.0632  -15.0622   27.2579 C   0  0  0  0  0  0  0  0  0  0  0  0
   11.7460  -14.0897   27.9610 C   0  0  0  0  0  0  0  0  0  0  0  0
   11.1411  -13.3732   28.9600 C   0  0  0  0  0  0  0  0  0  0  0  0
    9.8067  -13.6106   29.2954 C   0  0  0  0  0  0  0  0  0  0  0  0
    9.1034  -14.5743   28.6104 C   0  0  0  0  0  0  0  0  0  0  0  0
    9.7357  -15.2750   27.6156 C   0  0  0  0  0  0  0  0  0  0  0  0
   10.0298  -17.6794   26.2824 C   0  0  0  0  0  0  0  0  0  0  0  0
   10.6030  -18.5294   26.9870 O   0  0  0  0  0  0  0  0  0  0  0  0
    8.6581  -17.6093   26.2905 O   0  0  0  0  0  0  0  0  0  0  0  0
  1  2  1  0
  3  4  2  0
  3  2  1  0
  5  3  1  0
  6  5  1  0
  6  7  1  1
  8 13  1  0
  8  7  1  0
  9  8  2  0
 10  9  1  0
 10 11  2  0
 11 12  1  0
 12 13  2  0
 14  6  1  0
 15 14  2  0
 16 14  1  0
 17 18  1  1
 17 16  1  0
 18 19  1  0
 19 24  1  0
 19 20  2  0
 20 21  1  0
 21 22  2  0
 23 22  1  0
 24 23  2  0
 25 17  1  0
 26 25  2  0
 27 25  1  0
M  END
$$$$
