GFF.pdb
     RDKit          3D

 27 28  0  0  1  0  0  0  0  0999 V2000
   11.0482  -16.9741   18.8345 N   0  0  0  0  0  0  0  0  0  0  0  0
    9.8165  -17.3322   19.5239 C   0  0  0  0  0  0  0  0  0  0  0  0
    9.7801  -16.6393   20.8204 C   0  0  0  0  0  0  0  0  0  0  0  0
   10.8040  -16.1432   21.3238 O   0  0  0  0  0  0  0  0  0  0  0  0
    8.5301  -16.5409   21.5083 N   0  0  0  0  0  0  0  0  0  0  0  0
    8.4603  -15.8227   22.7648 C   0  0  1  0  0  0  0  0  0  0  0  0
    7.0626  -15.3251   22.9770 C   0  0  0  0  0  0  0  0  0  0  0  0
    6.8681  -14.6681   24.2940 C   0  0  0  0  0  0  0  0  0  0  0  0
    6.0968  -15.2692   25.2566 C   0  0  0  0  0  0  0  0  0  0  0  0
    5.9214  -14.6492   26.4918 C   0  0  0  0  0  0  0  0  0  0  0  0
    6.5094  -13.4390   26.7670 C   0  0  0  0  0  0  0  0  0  0  0  0
    7.2876  -12.8242   25.8063 C   0  0  0  0  0  0  0  0  0  0  0  0
    7.4610  -13.4381   24.5842 C   0  0  0  0  0  0  0  0  0  0  0  0
    8.9664  -16.7162   23.8309 C   0  0  0  0  0  0  0  0  0  0  0  0
    8.5709  -17.9239   23.9295 O   0  0  0  0  0  0  0  0  0  0  0  0
    9.9068  -16.2545   24.7746 N   0  0  0  0  0  0  0  0  0  0  0  0
   10.5388  -17.1024   25.7643 C   0  0  1  0  0  0  0  0  0  0  0  0
   11.6589  -16.3451   26.3998 C   0  0  0  0  0  0  0  0  0  0  0  0
   11.2455  -15.3620   27.4031 C   0  0  0  0  0  0  0  0  0  0  0  0
   11.0138  -14.0428   27.0679 C   0  0  0  0  0  0  0  0  0  0  0  0
   10.6218  -13.1255   28.0071 C   0  0  0  0  0  0  0  0  0  0  0  0
   10.4451  -13.5050   29.3391 C   0  0  0  0  0  0  0  0  0  0  0  0
   10.6694  -14.8134   29.6999 C   0  0  0  0  0  0  0  0  0  0  0  0
   11.0609  -15.7087   28.7377 C   0  0  0  0  0  0  0  0  0  0  0  0
    9.5876  -17.7175   26.6912 C   0  0  0  0  0  0  0  0  0  0  0  0
    8.4337  -17.2678   26.8096 O   0  0  0  0  0  0  0  0  0  0  0  0
    9.9691  -18.8038   27.4401 O   0  0  0  0  0  0  0  0  0  0  0  0
  1  2  1  0
  3  4  2  0
  3  2  1  0
  5  3  1  0
  6  5  1  0
  6  7  1  1
  8 13  1  0
  8  7  1  0
  9  8  2  0
 10  9  1  0
 10 11  2  0
 11 12  1  0
 12 13  2  0
 14  6  1  0
 15 14  2  0
 16 14  1  0
 17 18  1  1
 17 16  1  0
 18 19  1  0
 19 24  1  0
 19 20  2  0
 20 21  1  0
 21 22  2  0
 23 22  1  0
 24 23  2  0
 25 17  1  0
 26 25  2  0
 27 25  1  0
M  END
$$$$
