GFF.pdb
     RDKit          3D

 27 28  0  0  1  0  0  0  0  0999 V2000
   10.5465  -17.2958   18.4766 N   0  0  0  0  0  0  0  0  0  0  0  0
    9.5385  -17.7249   19.4360 C   0  0  0  0  0  0  0  0  0  0  0  0
    9.6414  -16.8860   20.6392 C   0  0  0  0  0  0  0  0  0  0  0  0
   10.7192  -16.3681   20.9831 O   0  0  0  0  0  0  0  0  0  0  0  0
    8.4657  -16.6684   21.4239 N   0  0  0  0  0  0  0  0  0  0  0  0
    8.5480  -15.8663   22.6277 C   0  0  1  0  0  0  0  0  0  0  0  0
    7.2176  -15.2299   22.8940 C   0  0  0  0  0  0  0  0  0  0  0  0
    7.1980  -14.4078   24.1301 C   0  0  0  0  0  0  0  0  0  0  0  0
    6.6550  -14.9125   25.2847 C   0  0  0  0  0  0  0  0  0  0  0  0
    6.6434  -14.1373   26.4422 C   0  0  0  0  0  0  0  0  0  0  0  0
    7.1684  -12.8682   26.4504 C   0  0  0  0  0  0  0  0  0  0  0  0
    7.7174  -12.3494   25.2946 C   0  0  0  0  0  0  0  0  0  0  0  0
    7.7289  -13.1168   24.1495 C   0  0  0  0  0  0  0  0  0  0  0  0
    9.0489  -16.7309   23.7198 C   0  0  0  0  0  0  0  0  0  0  0  0
    8.7491  -17.9684   23.7787 O   0  0  0  0  0  0  0  0  0  0  0  0
    9.8774  -16.2074   24.7334 N   0  0  0  0  0  0  0  0  0  0  0  0
   10.5858  -17.0239   25.6976 C   0  0  1  0  0  0  0  0  0  0  0  0
   11.4292  -16.1345   26.5517 C   0  0  0  0  0  0  0  0  0  0  0  0
   10.6909  -15.3641   27.5546 C   0  0  0  0  0  0  0  0  0  0  0  0
   10.1024  -14.1541   27.2453 C   0  0  0  0  0  0  0  0  0  0  0  0
    9.4073  -13.4373   28.1836 C   0  0  0  0  0  0  0  0  0  0  0  0
    9.2755  -13.9169   29.4883 C   0  0  0  0  0  0  0  0  0  0  0  0
    9.8524  -15.1201   29.8230 C   0  0  0  0  0  0  0  0  0  0  0  0
   10.5418  -15.8147   28.8624 C   0  0  0  0  0  0  0  0  0  0  0  0
    9.7148  -17.9518   26.4206 C   0  0  0  0  0  0  0  0  0  0  0  0
    8.4774  -17.8369   26.3646 O   0  0  0  0  0  0  0  0  0  0  0  0
   10.2659  -18.9622   27.1701 O   0  0  0  0  0  0  0  0  0  0  0  0
  1  2  1  0
  3  4  2  0
  3  2  1  0
  5  3  1  0
  6  5  1  0
  6  7  1  1
  8 13  1  0
  8  7  1  0
  9  8  2  0
 10  9  1  0
 10 11  2  0
 11 12  1  0
 12 13  2  0
 14  6  1  0
 15 14  2  0
 16 14  1  0
 17 18  1  1
 17 16  1  0
 18 19  1  0
 19 24  1  0
 19 20  2  0
 20 21  1  0
 21 22  2  0
 23 22  1  0
 24 23  2  0
 25 17  1  0
 26 25  2  0
 27 25  1  0
M  END
$$$$
