GFF.pdb
     RDKit          3D

 27 28  0  0  1  0  0  0  0  0999 V2000
    7.9603  -20.6634   20.2135 N   0  0  0  0  0  0  0  0  0  0  0  0
    6.9702  -20.1723   21.1617 C   0  0  0  0  0  0  0  0  0  0  0  0
    7.5209  -18.9999   21.8576 C   0  0  0  0  0  0  0  0  0  0  0  0
    8.7177  -18.6783   21.7472 O   0  0  0  0  0  0  0  0  0  0  0  0
    6.6478  -18.2191   22.6783 N   0  0  0  0  0  0  0  0  0  0  0  0
    7.1692  -17.0634   23.3794 C   0  0  1  0  0  0  0  0  0  0  0  0
    6.0793  -16.0482   23.5458 C   0  0  0  0  0  0  0  0  0  0  0  0
    6.5423  -14.7907   24.1847 C   0  0  0  0  0  0  0  0  0  0  0  0
    6.1575  -14.4867   25.4662 C   0  0  0  0  0  0  0  0  0  0  0  0
    6.5986  -13.3068   26.0614 C   0  0  0  0  0  0  0  0  0  0  0  0
    7.4171  -12.4353   25.3855 C   0  0  0  0  0  0  0  0  0  0  0  0
    7.8109  -12.7302   24.0954 C   0  0  0  0  0  0  0  0  0  0  0  0
    7.3743  -13.8978   23.5069 C   0  0  0  0  0  0  0  0  0  0  0  0
    7.7755  -17.5320   24.6459 C   0  0  0  0  0  0  0  0  0  0  0  0
    7.0616  -18.0080   25.5885 O   0  0  0  0  0  0  0  0  0  0  0  0
    9.1693  -17.4649   24.8479 N   0  0  0  0  0  0  0  0  0  0  0  0
    9.8153  -16.4808   25.6917 C   0  0  1  0  0  0  0  0  0  0  0  0
    9.2083  -16.5453   27.0552 C   0  0  0  0  0  0  0  0  0  0  0  0
    9.7778  -15.6097   28.0271 C   0  0  0  0  0  0  0  0  0  0  0  0
    9.6590  -14.2434   27.8684 C   0  0  0  0  0  0  0  0  0  0  0  0
   10.1878  -13.3696   28.7817 C   0  0  0  0  0  0  0  0  0  0  0  0
   10.8665  -13.8431   29.9062 C   0  0  0  0  0  0  0  0  0  0  0  0
   10.9992  -15.2003   30.0883 C   0  0  0  0  0  0  0  0  0  0  0  0
   10.4593  -16.0500   29.1572 C   0  0  0  0  0  0  0  0  0  0  0  0
   11.2766  -16.5513   25.6479 C   0  0  0  0  0  0  0  0  0  0  0  0
   11.9599  -15.5181   25.5318 O   0  0  0  0  0  0  0  0  0  0  0  0
   11.9045  -17.7697   25.7361 O   0  0  0  0  0  0  0  0  0  0  0  0
  1  2  1  0
  3  4  2  0
  3  2  1  0
  5  3  1  0
  6  5  1  0
  6  7  1  1
  8 13  1  0
  8  7  1  0
  9  8  2  0
 10  9  1  0
 10 11  2  0
 11 12  1  0
 12 13  2  0
 14  6  1  0
 15 14  2  0
 16 14  1  0
 17 18  1  1
 17 16  1  0
 18 19  1  0
 19 24  1  0
 19 20  2  0
 20 21  1  0
 21 22  2  0
 23 22  1  0
 24 23  2  0
 25 17  1  0
 26 25  2  0
 27 25  1  0
M  END
$$$$
