GFF.pdb
     RDKit          3D

 27 28  0  0  1  0  0  0  0  0999 V2000
    4.3610  -19.1542   21.7067 N   0  0  0  0  0  0  0  0  0  0  0  0
    4.7770  -19.0807   23.1003 C   0  0  0  0  0  0  0  0  0  0  0  0
    5.5026  -17.8195   23.3127 C   0  0  0  0  0  0  0  0  0  0  0  0
    5.6150  -16.9715   22.4092 O   0  0  0  0  0  0  0  0  0  0  0  0
    6.0885  -17.5749   24.5942 N   0  0  0  0  0  0  0  0  0  0  0  0
    6.8281  -16.3498   24.8201 C   0  0  1  0  0  0  0  0  0  0  0  0
    6.6691  -15.9282   26.2495 C   0  0  0  0  0  0  0  0  0  0  0  0
    7.0281  -14.5071   26.4849 C   0  0  0  0  0  0  0  0  0  0  0  0
    8.3155  -14.1674   26.8166 C   0  0  0  0  0  0  0  0  0  0  0  0
    8.6466  -12.8315   27.0323 C   0  0  0  0  0  0  0  0  0  0  0  0
    7.7027  -11.8403   26.9189 C   0  0  0  0  0  0  0  0  0  0  0  0
    6.4039  -12.1698   26.5858 C   0  0  0  0  0  0  0  0  0  0  0  0
    6.0766  -13.4918   26.3723 C   0  0  0  0  0  0  0  0  0  0  0  0
    8.2278  -16.5756   24.3947 C   0  0  0  0  0  0  0  0  0  0  0  0
    8.8200  -17.6822   24.6175 O   0  0  0  0  0  0  0  0  0  0  0  0
    8.9516  -15.5669   23.7264 N   0  0  0  0  0  0  0  0  0  0  0  0
   10.2208  -15.7889   23.0648 C   0  0  1  0  0  0  0  0  0  0  0  0
   10.4034  -14.7429   22.0139 C   0  0  0  0  0  0  0  0  0  0  0  0
    9.1784  -14.3574   21.3102 C   0  0  0  0  0  0  0  0  0  0  0  0
    8.5269  -15.2323   20.4639 C   0  0  0  0  0  0  0  0  0  0  0  0
    7.3777  -14.8716   19.8106 C   0  0  0  0  0  0  0  0  0  0  0  0
    6.8317  -13.5986   19.9857 C   0  0  0  0  0  0  0  0  0  0  0  0
    7.4612  -12.7074   20.8236 C   0  0  0  0  0  0  0  0  0  0  0  0
    8.6096  -13.0971   21.4637 C   0  0  0  0  0  0  0  0  0  0  0  0
   11.3384  -15.9489   23.9963 C   0  0  0  0  0  0  0  0  0  0  0  0
   12.4881  -16.1733   23.5774 O   0  0  0  0  0  0  0  0  0  0  0  0
   11.1197  -15.8503   25.3487 O   0  0  0  0  0  0  0  0  0  0  0  0
  1  2  1  0
  3  4  2  0
  3  2  1  0
  5  3  1  0
  6  5  1  0
  6  7  1  1
  8 13  1  0
  8  7  1  0
  9  8  2  0
 10  9  1  0
 10 11  2  0
 11 12  1  0
 12 13  2  0
 14  6  1  0
 15 14  2  0
 16 14  1  0
 17 18  1  6
 17 16  1  0
 18 19  1  0
 19 24  1  0
 19 20  2  0
 20 21  1  0
 21 22  2  0
 23 22  1  0
 24 23  2  0
 25 17  1  0
 26 25  2  0
 27 25  1  0
M  END
$$$$
