GFF.pdb
     RDKit          3D

 27 28  0  0  1  0  0  0  0  0999 V2000
    6.1610  -21.2323   23.8774 N   0  0  0  0  0  0  0  0  0  0  0  0
    5.8991  -19.9129   24.4351 C   0  0  0  0  0  0  0  0  0  0  0  0
    6.7167  -18.9238   23.7172 C   0  0  0  0  0  0  0  0  0  0  0  0
    7.7078  -19.2613   23.0449 O   0  0  0  0  0  0  0  0  0  0  0  0
    6.3521  -17.5436   23.8027 N   0  0  0  0  0  0  0  0  0  0  0  0
    7.1569  -16.5482   23.1241 C   0  0  1  0  0  0  0  0  0  0  0  0
    6.2781  -15.4225   22.6693 C   0  0  0  0  0  0  0  0  0  0  0  0
    6.9671  -14.4709   21.7619 C   0  0  0  0  0  0  0  0  0  0  0  0
    7.4421  -13.2781   22.2461 C   0  0  0  0  0  0  0  0  0  0  0  0
    8.0911  -12.3912   21.3900 C   0  0  0  0  0  0  0  0  0  0  0  0
    8.2661  -12.6893   20.0608 C   0  0  0  0  0  0  0  0  0  0  0  0
    7.7923  -13.8863   19.5618 C   0  0  0  0  0  0  0  0  0  0  0  0
    7.1502  -14.7638   20.4093 C   0  0  0  0  0  0  0  0  0  0  0  0
    8.2524  -16.1472   24.0353 C   0  0  0  0  0  0  0  0  0  0  0  0
    8.0237  -15.4782   25.0958 O   0  0  0  0  0  0  0  0  0  0  0  0
    9.5895  -16.4959   23.7549 N   0  0  0  0  0  0  0  0  0  0  0  0
   10.7174  -16.0817   24.5637 C   0  0  1  0  0  0  0  0  0  0  0  0
   10.4678  -16.4887   25.9793 C   0  0  0  0  0  0  0  0  0  0  0  0
   10.0723  -15.3978   26.8725 C   0  0  0  0  0  0  0  0  0  0  0  0
    9.1751  -14.4275   26.4728 C   0  0  0  0  0  0  0  0  0  0  0  0
    8.8020  -13.4105   27.3118 C   0  0  0  0  0  0  0  0  0  0  0  0
    9.3244  -13.3291   28.6040 C   0  0  0  0  0  0  0  0  0  0  0  0
   10.2204  -14.2833   29.0275 C   0  0  0  0  0  0  0  0  0  0  0  0
   10.5748  -15.2890   28.1652 C   0  0  0  0  0  0  0  0  0  0  0  0
   12.0085  -16.4903   24.0083 C   0  0  0  0  0  0  0  0  0  0  0  0
   13.0341  -15.8199   24.2235 O   0  0  0  0  0  0  0  0  0  0  0  0
   12.0930  -17.6262   23.2408 O   0  0  0  0  0  0  0  0  0  0  0  0
  1  2  1  0
  3  4  2  0
  3  2  1  0
  5  3  1  0
  6  5  1  0
  6  7  1  1
  8 13  1  0
  8  7  1  0
  9  8  2  0
 10  9  1  0
 10 11  2  0
 11 12  1  0
 12 13  2  0
 14  6  1  0
 15 14  2  0
 16 14  1  0
 17 18  1  1
 17 16  1  0
 18 19  1  0
 19 24  1  0
 19 20  2  0
 20 21  1  0
 21 22  2  0
 23 22  1  0
 24 23  2  0
 25 17  1  0
 26 25  2  0
 27 25  1  0
M  END
$$$$
