GFF.pdb
     RDKit          3D

 27 28  0  0  1  0  0  0  0  0999 V2000
    8.6393  -21.2176   19.7425 N   0  0  0  0  0  0  0  0  0  0  0  0
    7.6450  -20.5350   20.5586 C   0  0  0  0  0  0  0  0  0  0  0  0
    8.1389  -19.1877   20.8796 C   0  0  0  0  0  0  0  0  0  0  0  0
    9.3559  -18.9369   20.9425 O   0  0  0  0  0  0  0  0  0  0  0  0
    7.1855  -18.1499   21.1233 N   0  0  0  0  0  0  0  0  0  0  0  0
    7.6464  -16.8340   21.5174 C   0  0  1  0  0  0  0  0  0  0  0  0
    6.6191  -15.8116   21.1358 C   0  0  0  0  0  0  0  0  0  0  0  0
    7.0807  -14.4146   21.3341 C   0  0  0  0  0  0  0  0  0  0  0  0
    7.7680  -13.7680   20.3380 C   0  0  0  0  0  0  0  0  0  0  0  0
    8.1950  -12.4557   20.5290 C   0  0  0  0  0  0  0  0  0  0  0  0
    7.9399  -11.7916   21.7037 C   0  0  0  0  0  0  0  0  0  0  0  0
    7.2493  -12.4318   22.7136 C   0  0  0  0  0  0  0  0  0  0  0  0
    6.8269  -13.7302   22.5241 C   0  0  0  0  0  0  0  0  0  0  0  0
    7.9694  -16.8760   22.9613 C   0  0  0  0  0  0  0  0  0  0  0  0
    7.0536  -16.8725   23.8478 O   0  0  0  0  0  0  0  0  0  0  0  0
    9.3083  -16.9216   23.4011 N   0  0  0  0  0  0  0  0  0  0  0  0
    9.8628  -16.0215   24.3911 C   0  0  1  0  0  0  0  0  0  0  0  0
    8.9777  -16.0281   25.5947 C   0  0  0  0  0  0  0  0  0  0  0  0
    9.3706  -15.0947   26.6523 C   0  0  0  0  0  0  0  0  0  0  0  0
    9.9990  -15.5301   27.8019 C   0  0  0  0  0  0  0  0  0  0  0  0
   10.3708  -14.6545   28.7881 C   0  0  0  0  0  0  0  0  0  0  0  0
   10.1212  -13.2874   28.6542 C   0  0  0  0  0  0  0  0  0  0  0  0
    9.4962  -12.8270   27.5184 C   0  0  0  0  0  0  0  0  0  0  0  0
    9.1359  -13.7273   26.5487 C   0  0  0  0  0  0  0  0  0  0  0  0
   11.2841  -16.2537   24.6523 C   0  0  0  0  0  0  0  0  0  0  0  0
   12.1136  -15.3364   24.5169 O   0  0  0  0  0  0  0  0  0  0  0  0
   11.7110  -17.4965   25.0518 O   0  0  0  0  0  0  0  0  0  0  0  0
  1  2  1  0
  3  4  2  0
  3  2  1  0
  5  3  1  0
  6  5  1  0
  6  7  1  1
  8 13  1  0
  8  7  1  0
  9  8  2  0
 10  9  1  0
 10 11  2  0
 11 12  1  0
 12 13  2  0
 14  6  1  0
 15 14  2  0
 16 14  1  0
 17 18  1  1
 17 16  1  0
 18 19  1  0
 19 24  1  0
 19 20  2  0
 20 21  1  0
 21 22  2  0
 23 22  1  0
 24 23  2  0
 25 17  1  0
 26 25  2  0
 27 25  1  0
M  END
$$$$
