AFT.pdb
     RDKit          3D

 24 24  0  0  1  0  0  0  0  0999 V2000
    7.9621  -18.1083   19.8304 C   0  0  0  0  0  0  0  0  0  0  0  0
    8.2817  -16.6397   19.6387 C   0  0  2  0  0  0  0  0  0  0  0  0
    9.3308  -16.4318   18.6813 N   0  0  0  0  0  0  0  0  0  0  0  0
    8.7017  -16.0805   20.9431 C   0  0  0  0  0  0  0  0  0  0  0  0
    9.9296  -16.0529   21.2077 O   0  0  0  0  0  0  0  0  0  0  0  0
    7.7574  -15.5890   21.8719 N   0  0  0  0  0  0  0  0  0  0  0  0
    8.2368  -14.8854   23.0932 C   0  0  1  0  0  0  0  0  0  0  0  0
    7.0588  -14.0428   23.4994 C   0  0  0  0  0  0  0  0  0  0  0  0
    7.1465  -13.3470   24.7662 C   0  0  0  0  0  0  0  0  0  0  0  0
    8.1781  -12.5181   25.0997 C   0  0  0  0  0  0  0  0  0  0  0  0
    8.1885  -11.8893   26.3445 C   0  0  0  0  0  0  0  0  0  0  0  0
    7.1828  -12.0814   27.2517 C   0  0  0  0  0  0  0  0  0  0  0  0
    6.1428  -12.9137   26.9218 C   0  0  0  0  0  0  0  0  0  0  0  0
    6.1285  -13.5377   25.6919 C   0  0  0  0  0  0  0  0  0  0  0  0
    8.5869  -15.9313   24.0579 C   0  0  0  0  0  0  0  0  0  0  0  0
    7.7321  -16.8622   24.2482 O   0  0  0  0  0  0  0  0  0  0  0  0
   11.0026  -18.6263   23.6889 C   0  0  0  0  0  0  0  0  0  0  0  0
   11.2608  -17.9815   25.0076 C   0  0  1  0  0  0  0  0  0  0  0  0
   12.3125  -17.0710   24.9267 O   0  0  0  0  0  0  0  0  0  0  0  0
   10.0459  -17.2465   25.5578 C   0  0  2  0  0  0  0  0  0  0  0  0
    9.7872  -16.0343   24.8117 N   0  0  0  0  0  0  0  0  0  0  0  0
   10.3716  -16.9075   26.9503 C   0  0  0  0  0  0  0  0  0  0  0  0
   10.5358  -15.7126   27.3356 O   0  0  0  0  0  0  0  0  0  0  0  0
   10.5078  -17.9076   27.8923 O   0  0  0  0  0  0  0  0  0  0  0  0
  2  1  1  1
  3  2  1  0
  4  5  2  0
  4  2  1  0
  6  4  1  0
  7  6  1  0
  7  8  1  1
  8  9  1  0
  9 14  2  0
 10 11  2  0
 10  9  1  0
 11 12  1  0
 12 13  2  0
 14 13  1  0
 15  7  1  0
 16 15  2  0
 18 17  1  6
 18 20  1  0
 19 18  1  0
 20 22  1  0
 20 21  1  6
 21 15  1  0
 22 24  1  0
 23 22  2  0
M  END
$$$$
