AFT.pdb
     RDKit          3D

 24 24  0  0  1  0  0  0  0  0999 V2000
   10.0782  -16.1606   19.3094 C   0  0  0  0  0  0  0  0  0  0  0  0
    9.5987  -17.0596   20.4308 C   0  0  2  0  0  0  0  0  0  0  0  0
    8.2375  -17.4772   20.2489 N   0  0  0  0  0  0  0  0  0  0  0  0
    9.7081  -16.3137   21.7045 C   0  0  0  0  0  0  0  0  0  0  0  0
   10.8482  -15.9360   22.0733 O   0  0  0  0  0  0  0  0  0  0  0  0
    8.5697  -16.0291   22.4912 N   0  0  0  0  0  0  0  0  0  0  0  0
    8.7248  -15.2121   23.7260 C   0  0  1  0  0  0  0  0  0  0  0  0
    7.4489  -14.4175   23.7852 C   0  0  0  0  0  0  0  0  0  0  0  0
    7.1948  -13.6601   24.9928 C   0  0  0  0  0  0  0  0  0  0  0  0
    6.2128  -13.9757   25.8864 C   0  0  0  0  0  0  0  0  0  0  0  0
    6.0312  -13.1898   27.0241 C   0  0  0  0  0  0  0  0  0  0  0  0
    6.8181  -12.0991   27.2736 C   0  0  0  0  0  0  0  0  0  0  0  0
    7.8073  -11.7770   26.3785 C   0  0  0  0  0  0  0  0  0  0  0  0
    7.9904  -12.5513   25.2520 C   0  0  0  0  0  0  0  0  0  0  0  0
    8.8905  -16.1630   24.8285 C   0  0  0  0  0  0  0  0  0  0  0  0
    7.9443  -16.9987   25.0281 O   0  0  0  0  0  0  0  0  0  0  0  0
   10.6833  -19.1676   24.9885 C   0  0  0  0  0  0  0  0  0  0  0  0
   11.0948  -18.4045   26.2008 C   0  0  1  0  0  0  0  0  0  0  0  0
   12.2994  -17.7361   25.9914 O   0  0  0  0  0  0  0  0  0  0  0  0
   10.0586  -17.3773   26.6366 C   0  0  2  0  0  0  0  0  0  0  0  0
   10.0008  -16.2683   25.7093 N   0  0  0  0  0  0  0  0  0  0  0  0
   10.4935  -16.8946   27.9548 C   0  0  0  0  0  0  0  0  0  0  0  0
   10.7650  -15.6775   28.1744 O   0  0  0  0  0  0  0  0  0  0  0  0
   10.6177  -17.7776   29.0088 O   0  0  0  0  0  0  0  0  0  0  0  0
  2  1  1  6
  3  2  1  0
  4  5  2  0
  4  2  1  0
  6  4  1  0
  7  6  1  0
  7  8  1  1
  8  9  1  0
  9 14  2  0
 10 11  2  0
 10  9  1  0
 11 12  1  0
 12 13  2  0
 14 13  1  0
 15  7  1  0
 16 15  2  0
 18 17  1  6
 18 20  1  0
 19 18  1  0
 20 22  1  0
 20 21  1  6
 21 15  1  0
 22 24  1  0
 23 22  2  0
M  END
$$$$
