AFT.pdb
     RDKit          3D

 24 24  0  0  1  0  0  0  0  0999 V2000
    6.6038  -20.9328   23.8886 C   0  0  0  0  0  0  0  0  0  0  0  0
    5.4671  -19.9328   23.8289 C   0  0  2  0  0  0  0  0  0  0  0  0
    4.6309  -20.1278   22.6785 N   0  0  0  0  0  0  0  0  0  0  0  0
    6.0465  -18.5718   23.7786 C   0  0  0  0  0  0  0  0  0  0  0  0
    6.1760  -18.0246   22.6551 O   0  0  0  0  0  0  0  0  0  0  0  0
    6.4460  -17.8977   24.9542 N   0  0  0  0  0  0  0  0  0  0  0  0
    7.0468  -16.5399   24.8454 C   0  0  1  0  0  0  0  0  0  0  0  0
    6.6058  -15.8574   26.1114 C   0  0  0  0  0  0  0  0  0  0  0  0
    7.0355  -14.4892   26.3113 C   0  0  0  0  0  0  0  0  0  0  0  0
    8.3107  -14.1432   26.6529 C   0  0  0  0  0  0  0  0  0  0  0  0
    8.6410  -12.8000   26.8315 C   0  0  0  0  0  0  0  0  0  0  0  0
    7.7133  -11.8075   26.6721 C   0  0  0  0  0  0  0  0  0  0  0  0
    6.4294  -12.1496   26.3285 C   0  0  0  0  0  0  0  0  0  0  0  0
    6.0982  -13.4765   26.1510 C   0  0  0  0  0  0  0  0  0  0  0  0
    8.4950  -16.7393   24.7450 C   0  0  0  0  0  0  0  0  0  0  0  0
    9.0091  -17.6671   25.4581 O   0  0  0  0  0  0  0  0  0  0  0  0
   10.3234  -17.5726   21.4573 C   0  0  0  0  0  0  0  0  0  0  0  0
   11.0874  -16.5546   22.2328 C   0  0  1  0  0  0  0  0  0  0  0  0
   10.8704  -15.2722   21.7328 O   0  0  0  0  0  0  0  0  0  0  0  0
   10.7327  -16.5464   23.7137 C   0  0  2  0  0  0  0  0  0  0  0  0
    9.4050  -16.0138   23.9295 N   0  0  0  0  0  0  0  0  0  0  0  0
   11.7235  -15.6778   24.3646 C   0  0  0  0  0  0  0  0  0  0  0  0
   11.3952  -14.6283   24.9924 O   0  0  0  0  0  0  0  0  0  0  0  0
   13.0660  -15.9944   24.3063 O   0  0  0  0  0  0  0  0  0  0  0  0
  2  1  1  6
  3  2  1  0
  4  5  2  0
  4  2  1  0
  6  4  1  0
  7  6  1  0
  7  8  1  1
  8  9  1  0
  9 14  2  0
 10 11  2  0
 10  9  1  0
 11 12  1  0
 12 13  2  0
 14 13  1  0
 15  7  1  0
 16 15  2  0
 18 17  1  6
 18 20  1  0
 19 18  1  0
 20 22  1  0
 20 21  1  6
 21 15  1  0
 22 24  1  0
 23 22  2  0
M  END
$$$$
