AFT.pdb
     RDKit          3D

 24 24  0  0  1  0  0  0  0  0999 V2000
    8.7532  -18.3900   20.6152 C   0  0  0  0  0  0  0  0  0  0  0  0
    9.1207  -16.9298   20.4472 C   0  0  2  0  0  0  0  0  0  0  0  0
   10.3216  -16.7559   19.6805 N   0  0  0  0  0  0  0  0  0  0  0  0
    9.3172  -16.3416   21.7911 C   0  0  0  0  0  0  0  0  0  0  0  0
   10.4881  -16.2715   22.2411 O   0  0  0  0  0  0  0  0  0  0  0  0
    8.2266  -15.8693   22.5549 N   0  0  0  0  0  0  0  0  0  0  0  0
    8.4908  -15.1187   23.8131 C   0  0  1  0  0  0  0  0  0  0  0  0
    7.2636  -14.2644   23.9777 C   0  0  0  0  0  0  0  0  0  0  0  0
    7.1744  -13.4556   25.1754 C   0  0  0  0  0  0  0  0  0  0  0  0
    8.1404  -12.5718   25.5604 C   0  0  0  0  0  0  0  0  0  0  0  0
    7.9785  -11.8339   26.7326 C   0  0  0  0  0  0  0  0  0  0  0  0
    6.8663  -11.9715   27.5170 C   0  0  0  0  0  0  0  0  0  0  0  0
    5.8915  -12.8586   27.1348 C   0  0  0  0  0  0  0  0  0  0  0  0
    6.0475  -13.5906   25.9764 C   0  0  0  0  0  0  0  0  0  0  0  0
    8.6650  -16.1263   24.8626 C   0  0  0  0  0  0  0  0  0  0  0  0
    7.7099  -16.9565   25.0414 O   0  0  0  0  0  0  0  0  0  0  0  0
   10.4785  -19.2175   25.0276 C   0  0  0  0  0  0  0  0  0  0  0  0
   10.8664  -18.4318   26.2332 C   0  0  1  0  0  0  0  0  0  0  0  0
   12.0695  -17.7585   26.0310 O   0  0  0  0  0  0  0  0  0  0  0  0
    9.8168  -17.4049   26.6365 C   0  0  2  0  0  0  0  0  0  0  0  0
    9.7924  -16.2926   25.7116 N   0  0  0  0  0  0  0  0  0  0  0  0
   10.2062  -16.9274   27.9707 C   0  0  0  0  0  0  0  0  0  0  0  0
   10.5659  -15.7322   28.1837 O   0  0  0  0  0  0  0  0  0  0  0  0
   10.1870  -17.7910   29.0477 O   0  0  0  0  0  0  0  0  0  0  0  0
  2  1  1  1
  3  2  1  0
  4  5  2  0
  4  2  1  0
  6  4  1  0
  7  6  1  0
  7  8  1  1
  8  9  1  0
  9 14  2  0
 10 11  2  0
 10  9  1  0
 11 12  1  0
 12 13  2  0
 14 13  1  0
 15  7  1  0
 16 15  2  0
 18 17  1  6
 18 20  1  0
 19 18  1  0
 20 22  1  0
 20 21  1  6
 21 15  1  0
 22 24  1  0
 23 22  2  0
M  END
$$$$
