AFT.pdb
     RDKit          3D

 24 24  0  0  1  0  0  0  0  0999 V2000
    6.3877  -20.7388   23.0092 C   0  0  0  0  0  0  0  0  0  0  0  0
    5.4404  -19.5745   22.8034 C   0  0  2  0  0  0  0  0  0  0  0  0
    4.8871  -19.5509   21.4791 N   0  0  0  0  0  0  0  0  0  0  0  0
    6.1888  -18.3188   23.0356 C   0  0  0  0  0  0  0  0  0  0  0  0
    6.7578  -17.7787   22.0543 O   0  0  0  0  0  0  0  0  0  0  0  0
    6.2676  -17.7354   24.3198 N   0  0  0  0  0  0  0  0  0  0  0  0
    7.0123  -16.4581   24.4938 C   0  0  1  0  0  0  0  0  0  0  0  0
    6.3810  -15.8459   25.7143 C   0  0  0  0  0  0  0  0  0  0  0  0
    6.8906  -14.5631   26.1518 C   0  0  0  0  0  0  0  0  0  0  0  0
    7.8553  -14.4225   27.1067 C   0  0  0  0  0  0  0  0  0  0  0  0
    8.2875  -13.1484   27.4742 C   0  0  0  0  0  0  0  0  0  0  0  0
    7.7664  -12.0223   26.8986 C   0  0  0  0  0  0  0  0  0  0  0  0
    6.7960  -12.1575   25.9376 C   0  0  0  0  0  0  0  0  0  0  0  0
    6.3656  -13.4155   25.5711 C   0  0  0  0  0  0  0  0  0  0  0  0
    8.4203  -16.8248   24.6672 C   0  0  0  0  0  0  0  0  0  0  0  0
    8.6774  -17.8145   25.4339 O   0  0  0  0  0  0  0  0  0  0  0  0
   10.9370  -17.5821   21.7741 C   0  0  0  0  0  0  0  0  0  0  0  0
   11.5921  -16.7838   22.8487 C   0  0  1  0  0  0  0  0  0  0  0  0
   11.7120  -15.4451   22.4808 O   0  0  0  0  0  0  0  0  0  0  0  0
   10.8417  -16.8405   24.1726 C   0  0  2  0  0  0  0  0  0  0  0  0
    9.5478  -16.2019   24.0670 N   0  0  0  0  0  0  0  0  0  0  0  0
   11.6722  -16.1128   25.1425 C   0  0  0  0  0  0  0  0  0  0  0  0
   11.3058  -15.0167   25.6598 O   0  0  0  0  0  0  0  0  0  0  0  0
   12.8989  -16.6203   25.5216 O   0  0  0  0  0  0  0  0  0  0  0  0
  2  1  1  6
  3  2  1  0
  4  5  2  0
  4  2  1  0
  6  4  1  0
  7  6  1  0
  7  8  1  1
  8  9  1  0
  9 14  2  0
 10 11  2  0
 10  9  1  0
 11 12  1  0
 12 13  2  0
 14 13  1  0
 15  7  1  0
 16 15  2  0
 18 17  1  6
 18 20  1  0
 19 18  1  0
 20 22  1  0
 20 21  1  6
 21 15  1  0
 22 24  1  0
 23 22  2  0
M  END
$$$$
