WWR.pdb
     RDKit          3D

 40 43  0  0  1  0  0  0  0  0999 V2000
    7.5407  -19.8863   27.2990 N   0  0  0  0  0  0  0  0  0  0  0  0
    8.1812  -18.6591   26.8626 C   0  0  1  0  0  0  0  0  0  0  0  0
    9.6323  -18.5837   27.0066 C   0  0  0  0  0  0  0  0  0  0  0  0
   10.2182  -17.6494   27.9637 C   0  0  0  0  0  0  0  0  0  0  0  0
   10.4117  -18.0428   29.3067 C   0  0  0  0  0  0  0  0  0  0  0  0
   10.9603  -17.0308   29.9807 N   0  0  0  0  0  0  0  0  0  0  0  0
   11.1310  -16.0021   29.1386 C   0  0  0  0  0  0  0  0  0  0  0  0
   11.6464  -14.7349   29.3263 C   0  0  0  0  0  0  0  0  0  0  0  0
   11.7028  -13.8553   28.2697 C   0  0  0  0  0  0  0  0  0  0  0  0
   11.2564  -14.2050   27.0181 C   0  0  0  0  0  0  0  0  0  0  0  0
   10.7398  -15.4687   26.8207 C   0  0  0  0  0  0  0  0  0  0  0  0
   10.6763  -16.3577   27.8655 C   0  0  0  0  0  0  0  0  0  0  0  0
    7.8093  -18.5834   25.3936 C   0  0  0  0  0  0  0  0  0  0  0  0
    7.6558  -19.6615   24.7458 O   0  0  0  0  0  0  0  0  0  0  0  0
    7.6550  -17.3146   24.8105 N   0  0  0  0  0  0  0  0  0  0  0  0
    7.6425  -17.2172   23.3430 C   0  0  1  0  0  0  0  0  0  0  0  0
    6.8021  -16.0520   22.9513 C   0  0  0  0  0  0  0  0  0  0  0  0
    6.4006  -15.2676   24.1201 C   0  0  0  0  0  0  0  0  0  0  0  0
    5.7032  -15.7038   25.2499 C   0  0  0  0  0  0  0  0  0  0  0  0
    5.5488  -14.6747   26.0904 N   0  0  0  0  0  0  0  0  0  0  0  0
    6.1224  -13.5555   25.5611 C   0  0  0  0  0  0  0  0  0  0  0  0
    6.2446  -12.2596   26.0135 C   0  0  0  0  0  0  0  0  0  0  0  0
    6.9042  -11.3172   25.2315 C   0  0  0  0  0  0  0  0  0  0  0  0
    7.4164  -11.7280   24.0132 C   0  0  0  0  0  0  0  0  0  0  0  0
    7.3080  -13.0175   23.5387 C   0  0  0  0  0  0  0  0  0  0  0  0
    6.6406  -13.9327   24.3513 C   0  0  0  0  0  0  0  0  0  0  0  0
    9.0833  -16.9953   22.9458 C   0  0  0  0  0  0  0  0  0  0  0  0
    9.9604  -16.8031   23.8088 O   0  0  0  0  0  0  0  0  0  0  0  0
    7.5871  -19.7858   15.3013 N   0  0  0  0  0  0  0  0  0  0  0  0
    8.3028  -18.6677   15.7962 C   0  0  0  0  0  0  0  0  0  0  0  0
    8.3146  -17.5768   15.1725 N   0  0  0  0  0  0  0  0  0  0  0  0
    9.0305  -18.7652   17.0200 N   0  0  0  0  0  0  0  0  0  0  0  0
    9.7288  -17.6842   17.6483 C   0  0  0  0  0  0  0  0  0  0  0  0
   10.3410  -18.0852   18.9765 C   0  0  0  0  0  0  0  0  0  0  0  0
   10.8609  -16.8370   19.6444 C   0  0  0  0  0  0  0  0  0  0  0  0
   10.8659  -16.9817   21.1590 C   0  0  2  0  0  0  0  0  0  0  0  0
    9.4589  -17.0045   21.5726 N   0  0  0  0  0  0  0  0  0  0  0  0
   11.5459  -15.8323   21.7677 C   0  0  0  0  0  0  0  0  0  0  0  0
   12.8692  -15.9059   22.1176 O   0  0  0  0  0  0  0  0  0  0  0  0
   10.9001  -14.7817   21.9703 O   0  0  0  0  0  0  0  0  0  0  0  0
  2  3  1  0
  2  1  1  6
  4  5  2  0
  4  3  1  0
  6  5  1  0
  7 12  2  0
  7  6  1  0
  8  7  1  0
  9 10  1  0
  9  8  2  0
 10 11  2  0
 11 12  1  0
 12  4  1  0
 13  2  1  0
 14 13  2  0
 15 13  1  0
 16 15  1  0
 16 17  1  1
 17 18  1  0
 18 26  1  0
 18 19  2  0
 19 20  1  0
 21 22  2  0
 21 20  1  0
 23 22  1  0
 24 23  2  0
 25 24  1  0
 25 26  2  0
 26 21  1  0
 27 28  2  0
 27 16  1  0
 30 32  1  0
 30 29  1  0
 31 30  2  0
 33 32  1  0
 34 35  1  0
 34 33  1  0
 36 35  1  6
 36 38  1  0
 36 37  1  0
 37 27  1  0
 38 39  1  0
 40 38  2  0
M  END
$$$$
