WWR.pdb
     RDKit          3D

 40 43  0  0  1  0  0  0  0  0999 V2000
    7.8532  -18.1502   22.7613 N   0  0  0  0  0  0  0  0  0  0  0  0
    7.9269  -16.7006   22.7729 C   0  0  1  0  0  0  0  0  0  0  0  0
    6.7454  -15.9826   23.2424 C   0  0  0  0  0  0  0  0  0  0  0  0
    6.7997  -14.5339   23.4175 C   0  0  0  0  0  0  0  0  0  0  0  0
    7.3411  -13.7191   22.3983 C   0  0  0  0  0  0  0  0  0  0  0  0
    7.2781  -12.4434   22.7829 N   0  0  0  0  0  0  0  0  0  0  0  0
    6.7220  -12.3938   24.0015 C   0  0  0  0  0  0  0  0  0  0  0  0
    6.4361  -11.3347   24.8401 C   0  0  0  0  0  0  0  0  0  0  0  0
    5.8559  -11.5691   26.0655 C   0  0  0  0  0  0  0  0  0  0  0  0
    5.5484  -12.8412   26.4842 C   0  0  0  0  0  0  0  0  0  0  0  0
    5.8303  -13.9057   25.6535 C   0  0  0  0  0  0  0  0  0  0  0  0
    6.4098  -13.6880   24.4277 C   0  0  0  0  0  0  0  0  0  0  0  0
    9.0944  -16.4256   23.7021 C   0  0  0  0  0  0  0  0  0  0  0  0
    9.4366  -15.2241   23.9143 O   0  0  0  0  0  0  0  0  0  0  0  0
    9.7523  -17.5206   24.2867 N   0  0  0  0  0  0  0  0  0  0  0  0
   10.9991  -17.2727   25.0264 C   0  0  1  0  0  0  0  0  0  0  0  0
   11.1036  -18.2684   26.1287 C   0  0  0  0  0  0  0  0  0  0  0  0
   10.7897  -17.6640   27.4243 C   0  0  0  0  0  0  0  0  0  0  0  0
   10.5473  -18.3114   28.6389 C   0  0  0  0  0  0  0  0  0  0  0  0
   10.3107  -17.3931   29.5822 N   0  0  0  0  0  0  0  0  0  0  0  0
   10.3868  -16.1433   29.0399 C   0  0  0  0  0  0  0  0  0  0  0  0
   10.2338  -14.8797   29.5683 C   0  0  0  0  0  0  0  0  0  0  0  0
   10.3791  -13.7677   28.7454 C   0  0  0  0  0  0  0  0  0  0  0  0
   10.6749  -13.9818   27.4104 C   0  0  0  0  0  0  0  0  0  0  0  0
   10.8334  -15.2346   26.8582 C   0  0  0  0  0  0  0  0  0  0  0  0
   10.6803  -16.3236   27.7149 C   0  0  0  0  0  0  0  0  0  0  0  0
   12.1070  -17.4720   24.0185 C   0  0  0  0  0  0  0  0  0  0  0  0
   12.9073  -18.4197   24.1298 O   0  0  0  0  0  0  0  0  0  0  0  0
   16.4807  -14.4119   16.0546 N   0  0  0  0  0  0  0  0  0  0  0  0
   15.3486  -14.7943   16.8158 C   0  0  0  0  0  0  0  0  0  0  0  0
   14.5374  -15.6525   16.3861 N   0  0  0  0  0  0  0  0  0  0  0  0
   15.1083  -14.2028   18.0921 N   0  0  0  0  0  0  0  0  0  0  0  0
   13.9767  -14.4794   18.9252 C   0  0  0  0  0  0  0  0  0  0  0  0
   14.2299  -15.6285   19.8818 C   0  0  0  0  0  0  0  0  0  0  0  0
   13.1943  -15.5591   20.9760 C   0  0  0  0  0  0  0  0  0  0  0  0
   13.3043  -16.7493   21.9174 C   0  0  2  0  0  0  0  0  0  0  0  0
   12.2501  -16.5752   22.9222 N   0  0  0  0  0  0  0  0  0  0  0  0
   14.6192  -16.7498   22.5695 C   0  0  0  0  0  0  0  0  0  0  0  0
   14.9260  -15.8199   23.5287 O   0  0  0  0  0  0  0  0  0  0  0  0
   15.4632  -17.6086   22.2345 O   0  0  0  0  0  0  0  0  0  0  0  0
  2  3  1  0
  2  1  1  1
  4  5  2  0
  4  3  1  0
  6  5  1  0
  7 12  2  0
  7  6  1  0
  8  7  1  0
  9 10  1  0
  9  8  2  0
 10 11  2  0
 11 12  1  0
 12  4  1  0
 13  2  1  0
 14 13  2  0
 15 13  1  0
 16 15  1  0
 16 17  1  1
 17 18  1  0
 18 26  1  0
 18 19  2  0
 19 20  1  0
 21 22  2  0
 21 20  1  0
 23 22  1  0
 24 23  2  0
 25 24  1  0
 25 26  2  0
 26 21  1  0
 27 28  2  0
 27 16  1  0
 30 32  1  0
 30 29  1  0
 31 30  2  0
 33 32  1  0
 34 35  1  0
 34 33  1  0
 36 35  1  6
 36 38  1  0
 36 37  1  0
 37 27  1  0
 38 39  1  0
 40 38  2  0
M  END
$$$$
