WWR.pdb
     RDKit          3D

 40 43  0  0  1  0  0  0  0  0999 V2000
    7.4106  -18.0324   21.1870 N   0  0  0  0  0  0  0  0  0  0  0  0
    7.5485  -16.7442   21.8415 C   0  0  1  0  0  0  0  0  0  0  0  0
    6.5152  -15.7497   21.5671 C   0  0  0  0  0  0  0  0  0  0  0  0
    6.5407  -15.0055   20.3110 C   0  0  0  0  0  0  0  0  0  0  0  0
    5.8337  -15.4906   19.1882 C   0  0  0  0  0  0  0  0  0  0  0  0
    6.0024  -14.6450   18.1705 N   0  0  0  0  0  0  0  0  0  0  0  0
    6.7841  -13.6364   18.5808 C   0  0  0  0  0  0  0  0  0  0  0  0
    7.2610  -12.5173   17.9275 C   0  0  0  0  0  0  0  0  0  0  0  0
    8.0669  -11.6253   18.5969 C   0  0  0  0  0  0  0  0  0  0  0  0
    8.4148  -11.8173   19.9123 C   0  0  0  0  0  0  0  0  0  0  0  0
    7.9433  -12.9323   20.5734 C   0  0  0  0  0  0  0  0  0  0  0  0
    7.1385  -13.8321   19.9187 C   0  0  0  0  0  0  0  0  0  0  0  0
    7.5304  -17.1062   23.3148 C   0  0  0  0  0  0  0  0  0  0  0  0
    6.4430  -17.0004   23.9568 O   0  0  0  0  0  0  0  0  0  0  0  0
    8.7273  -17.5406   23.9084 N   0  0  0  0  0  0  0  0  0  0  0  0
    9.5098  -16.5728   24.6919 C   0  0  1  0  0  0  0  0  0  0  0  0
    8.9926  -16.5631   26.0883 C   0  0  0  0  0  0  0  0  0  0  0  0
    7.9124  -15.5886   26.2497 C   0  0  0  0  0  0  0  0  0  0  0  0
    6.5349  -15.8246   26.2514 C   0  0  0  0  0  0  0  0  0  0  0  0
    5.8948  -14.6652   26.4396 N   0  0  0  0  0  0  0  0  0  0  0  0
    6.8005  -13.6524   26.5656 C   0  0  0  0  0  0  0  0  0  0  0  0
    6.6697  -12.2965   26.7743 C   0  0  0  0  0  0  0  0  0  0  0  0
    7.8074  -11.5015   26.8654 C   0  0  0  0  0  0  0  0  0  0  0  0
    9.0410  -12.1162   26.7397 C   0  0  0  0  0  0  0  0  0  0  0  0
    9.1985  -13.4695   26.5314 C   0  0  0  0  0  0  0  0  0  0  0  0
    8.0349  -14.2324   26.4462 C   0  0  0  0  0  0  0  0  0  0  0  0
   10.9314  -17.0833   24.6515 C   0  0  0  0  0  0  0  0  0  0  0  0
   11.1996  -18.2506   24.9926 O   0  0  0  0  0  0  0  0  0  0  0  0
   14.1566  -14.4725   19.3846 N   0  0  0  0  0  0  0  0  0  0  0  0
   15.5254  -14.3276   19.7200 C   0  0  0  0  0  0  0  0  0  0  0  0
   16.2155  -13.3929   19.2412 N   0  0  0  0  0  0  0  0  0  0  0  0
   16.1478  -15.2513   20.6122 N   0  0  0  0  0  0  0  0  0  0  0  0
   15.4647  -16.2819   21.3349 C   0  0  0  0  0  0  0  0  0  0  0  0
   15.4656  -16.0369   22.8315 C   0  0  0  0  0  0  0  0  0  0  0  0
   14.0752  -15.6134   23.2339 C   0  0  0  0  0  0  0  0  0  0  0  0
   13.3118  -16.7620   23.8766 C   0  0  2  0  0  0  0  0  0  0  0  0
   11.9877  -16.2324   24.2191 N   0  0  0  0  0  0  0  0  0  0  0  0
   14.0034  -17.2010   25.0944 C   0  0  0  0  0  0  0  0  0  0  0  0
   15.0626  -18.0681   25.0247 O   0  0  0  0  0  0  0  0  0  0  0  0
   13.6100  -16.7779   26.2027 O   0  0  0  0  0  0  0  0  0  0  0  0
  2  3  1  0
  2  1  1  6
  4  5  2  0
  4  3  1  0
  6  5  1  0
  7 12  2  0
  7  6  1  0
  8  7  1  0
  9 10  1  0
  9  8  2  0
 10 11  2  0
 11 12  1  0
 12  4  1  0
 13  2  1  0
 14 13  2  0
 15 13  1  0
 16 15  1  0
 16 17  1  1
 17 18  1  0
 18 26  1  0
 18 19  2  0
 19 20  1  0
 21 22  2  0
 21 20  1  0
 23 22  1  0
 24 23  2  0
 25 24  1  0
 25 26  2  0
 26 21  1  0
 27 28  2  0
 27 16  1  0
 30 32  1  0
 30 29  1  0
 31 30  2  0
 33 32  1  0
 34 35  1  0
 34 33  1  0
 36 35  1  1
 36 38  1  0
 36 37  1  0
 37 27  1  0
 38 39  1  0
 40 38  2  0
M  END
$$$$
