WWR.pdb
     RDKit          3D

 40 43  0  0  1  0  0  0  0  0999 V2000
    8.0714  -17.9788   22.1176 N   0  0  0  0  0  0  0  0  0  0  0  0
    8.4212  -16.5779   21.9683 C   0  0  1  0  0  0  0  0  0  0  0  0
    7.3253  -15.6464   21.7163 C   0  0  0  0  0  0  0  0  0  0  0  0
    7.2597  -14.9314   20.4448 C   0  0  0  0  0  0  0  0  0  0  0  0
    6.8177  -15.5991   19.2810 C   0  0  0  0  0  0  0  0  0  0  0  0
    6.8397  -14.7457   18.2561 N   0  0  0  0  0  0  0  0  0  0  0  0
    7.2744  -13.5583   18.7008 C   0  0  0  0  0  0  0  0  0  0  0  0
    7.4835  -12.3549   18.0569 C   0  0  0  0  0  0  0  0  0  0  0  0
    7.9496  -11.2714   18.7652 C   0  0  0  0  0  0  0  0  0  0  0  0
    8.2161  -11.3523   20.1108 C   0  0  0  0  0  0  0  0  0  0  0  0
    8.0103  -12.5503   20.7629 C   0  0  0  0  0  0  0  0  0  0  0  0
    7.5459  -13.6409   20.0695 C   0  0  0  0  0  0  0  0  0  0  0  0
    9.0779  -16.2467   23.2954 C   0  0  0  0  0  0  0  0  0  0  0  0
    9.7519  -15.1782   23.3938 O   0  0  0  0  0  0  0  0  0  0  0  0
    8.9137  -17.1459   24.3622 N   0  0  0  0  0  0  0  0  0  0  0  0
    9.7148  -16.9404   25.5784 C   0  0  1  0  0  0  0  0  0  0  0  0
    8.7930  -16.8435   26.7438 C   0  0  0  0  0  0  0  0  0  0  0  0
    7.7779  -15.8097   26.5358 C   0  0  0  0  0  0  0  0  0  0  0  0
    6.4760  -15.9681   26.0531 C   0  0  0  0  0  0  0  0  0  0  0  0
    5.8731  -14.7743   26.0268 N   0  0  0  0  0  0  0  0  0  0  0  0
    6.7303  -13.8136   26.4787 C   0  0  0  0  0  0  0  0  0  0  0  0
    6.6072  -12.4521   26.6527 C   0  0  0  0  0  0  0  0  0  0  0  0
    7.6822  -11.7219   27.1488 C   0  0  0  0  0  0  0  0  0  0  0  0
    8.8475  -12.4050   27.4502 C   0  0  0  0  0  0  0  0  0  0  0  0
    8.9956  -13.7655   27.2859 C   0  0  0  0  0  0  0  0  0  0  0  0
    7.8961  -14.4621   26.7868 C   0  0  0  0  0  0  0  0  0  0  0  0
   10.5916  -18.1659   25.6902 C   0  0  0  0  0  0  0  0  0  0  0  0
   10.0924  -19.3065   25.7206 O   0  0  0  0  0  0  0  0  0  0  0  0
   12.7755  -20.7236   18.8779 N   0  0  0  0  0  0  0  0  0  0  0  0
   14.0415  -20.1495   19.1515 C   0  0  0  0  0  0  0  0  0  0  0  0
   15.0554  -20.4630   18.4785 N   0  0  0  0  0  0  0  0  0  0  0  0
   14.1865  -19.2003   20.2073 N   0  0  0  0  0  0  0  0  0  0  0  0
   13.1594  -18.8475   21.1408 C   0  0  0  0  0  0  0  0  0  0  0  0
   13.4849  -19.2912   22.5540 C   0  0  0  0  0  0  0  0  0  0  0  0
   12.5751  -18.5443   23.4968 C   0  0  0  0  0  0  0  0  0  0  0  0
   12.9010  -18.8636   24.9483 C   0  0  2  0  0  0  0  0  0  0  0  0
   12.0072  -18.0318   25.7610 N   0  0  0  0  0  0  0  0  0  0  0  0
   14.2989  -18.5188   25.2332 C   0  0  0  0  0  0  0  0  0  0  0  0
   14.6071  -17.4806   26.0735 O   0  0  0  0  0  0  0  0  0  0  0  0
   15.2104  -19.1821   24.6937 O   0  0  0  0  0  0  0  0  0  0  0  0
  2  3  1  0
  2  1  1  1
  4  5  2  0
  4  3  1  0
  6  5  1  0
  7 12  2  0
  7  6  1  0
  8  7  1  0
  9 10  1  0
  9  8  2  0
 10 11  2  0
 11 12  1  0
 12  4  1  0
 13  2  1  0
 14 13  2  0
 15 13  1  0
 16 15  1  0
 16 17  1  1
 17 18  1  0
 18 26  1  0
 18 19  2  0
 19 20  1  0
 21 22  2  0
 21 20  1  0
 23 22  1  0
 24 23  2  0
 25 24  1  0
 25 26  2  0
 26 21  1  0
 27 28  2  0
 27 16  1  0
 30 32  1  0
 30 29  1  0
 31 30  2  0
 33 32  1  0
 34 35  1  0
 34 33  1  0
 36 35  1  6
 36 38  1  0
 36 37  1  0
 37 27  1  0
 38 39  1  0
 40 38  2  0
M  END
$$$$
