WWR.pdb
     RDKit          3D

 40 43  0  0  1  0  0  0  0  0999 V2000
    7.6591  -17.6065   19.9180 N   0  0  0  0  0  0  0  0  0  0  0  0
    8.8586  -18.3105   20.3333 C   0  0  1  0  0  0  0  0  0  0  0  0
    9.8908  -18.5120   19.3203 C   0  0  0  0  0  0  0  0  0  0  0  0
    9.5370  -19.1024   18.0324 C   0  0  0  0  0  0  0  0  0  0  0  0
   10.0103  -18.5209   16.8351 C   0  0  0  0  0  0  0  0  0  0  0  0
    9.5629  -19.2335   15.8000 N   0  0  0  0  0  0  0  0  0  0  0  0
    8.8233  -20.2477   16.2701 C   0  0  0  0  0  0  0  0  0  0  0  0
    8.1375  -21.2607   15.6295 C   0  0  0  0  0  0  0  0  0  0  0  0
    7.4398  -22.1885   16.3680 C   0  0  0  0  0  0  0  0  0  0  0  0
    7.4051  -22.1365   17.7407 C   0  0  0  0  0  0  0  0  0  0  0  0
    8.0870  -21.1283   18.3897 C   0  0  0  0  0  0  0  0  0  0  0  0
    8.7876  -20.1944   17.6664 C   0  0  0  0  0  0  0  0  0  0  0  0
    9.4005  -17.4342   21.4470 C   0  0  0  0  0  0  0  0  0  0  0  0
   10.6299  -17.5132   21.7436 O   0  0  0  0  0  0  0  0  0  0  0  0
    8.5103  -16.5717   22.1085 N   0  0  0  0  0  0  0  0  0  0  0  0
    8.9731  -15.8913   23.3274 C   0  0  1  0  0  0  0  0  0  0  0  0
    8.0321  -14.7795   23.6373 C   0  0  0  0  0  0  0  0  0  0  0  0
    8.2805  -14.2269   24.9698 C   0  0  0  0  0  0  0  0  0  0  0  0
    9.3509  -14.4971   25.8267 C   0  0  0  0  0  0  0  0  0  0  0  0
    9.2070  -13.7758   26.9440 N   0  0  0  0  0  0  0  0  0  0  0  0
    8.0700  -13.0254   26.8665 C   0  0  0  0  0  0  0  0  0  0  0  0
    7.4774  -12.1272   27.7274 C   0  0  0  0  0  0  0  0  0  0  0  0
    6.2918  -11.5003   27.3585 C   0  0  0  0  0  0  0  0  0  0  0  0
    5.7496  -11.8113   26.1237 C   0  0  0  0  0  0  0  0  0  0  0  0
    6.3228  -12.7051   25.2448 C   0  0  0  0  0  0  0  0  0  0  0  0
    7.5103  -13.3123   25.6504 C   0  0  0  0  0  0  0  0  0  0  0  0
    8.9334  -16.9434   24.4111 C   0  0  0  0  0  0  0  0  0  0  0  0
    7.8536  -17.4519   24.7669 O   0  0  0  0  0  0  0  0  0  0  0  0
   12.2267  -24.1511   25.0590 N   0  0  0  0  0  0  0  0  0  0  0  0
   11.2865  -23.7909   26.0557 C   0  0  0  0  0  0  0  0  0  0  0  0
   11.2817  -24.3562   27.1780 N   0  0  0  0  0  0  0  0  0  0  0  0
   10.3195  -22.7737   25.7967 N   0  0  0  0  0  0  0  0  0  0  0  0
   10.0931  -21.6267   26.6237 C   0  0  0  0  0  0  0  0  0  0  0  0
   11.2211  -20.6171   26.5341 C   0  0  0  0  0  0  0  0  0  0  0  0
   10.8579  -19.6072   25.4745 C   0  0  0  0  0  0  0  0  0  0  0  0
   10.1364  -18.4103   26.0759 C   0  0  2  0  0  0  0  0  0  0  0  0
   10.1363  -17.3704   25.0416 N   0  0  0  0  0  0  0  0  0  0  0  0
   10.8606  -17.9349   27.2607 C   0  0  0  0  0  0  0  0  0  0  0  0
   10.7054  -18.5559   28.4727 O   0  0  0  0  0  0  0  0  0  0  0  0
   11.6203  -16.9483   27.1532 O   0  0  0  0  0  0  0  0  0  0  0  0
  2  3  1  0
  2  1  1  6
  4  5  2  0
  4  3  1  0
  6  5  1  0
  7 12  2  0
  7  6  1  0
  8  7  1  0
  9 10  1  0
  9  8  2  0
 10 11  2  0
 11 12  1  0
 12  4  1  0
 13  2  1  0
 14 13  2  0
 15 13  1  0
 16 15  1  0
 16 17  1  1
 17 18  1  0
 18 26  1  0
 18 19  2  0
 19 20  1  0
 21 22  2  0
 21 20  1  0
 23 22  1  0
 24 23  2  0
 25 24  1  0
 25 26  2  0
 26 21  1  0
 27 28  2  0
 27 16  1  0
 30 32  1  0
 30 29  1  0
 31 30  2  0
 33 32  1  0
 34 35  1  0
 34 33  1  0
 36 35  1  6
 36 38  1  0
 36 37  1  0
 37 27  1  0
 38 39  1  0
 40 38  2  0
M  END
$$$$
