WWR.pdb
     RDKit          3D

 40 43  0  0  1  0  0  0  0  0999 V2000
    8.0511  -16.1649   19.0372 N   0  0  0  0  0  0  0  0  0  0  0  0
    9.2917  -15.4206   19.1545 C   0  0  1  0  0  0  0  0  0  0  0  0
    9.3905  -14.1769   18.3959 C   0  0  0  0  0  0  0  0  0  0  0  0
    8.8691  -14.1158   17.0332 C   0  0  0  0  0  0  0  0  0  0  0  0
    7.6070  -13.5317   16.7855 C   0  0  0  0  0  0  0  0  0  0  0  0
    7.3518  -13.5879   15.4774 N   0  0  0  0  0  0  0  0  0  0  0  0
    8.3880  -14.1800   14.8673 C   0  0  0  0  0  0  0  0  0  0  0  0
    8.6235  -14.4844   13.5412 C   0  0  0  0  0  0  0  0  0  0  0  0
    9.7935  -15.1120   13.1802 C   0  0  0  0  0  0  0  0  0  0  0  0
   10.7462  -15.4484   14.1115 C   0  0  0  0  0  0  0  0  0  0  0  0
   10.5200  -15.1485   15.4387 C   0  0  0  0  0  0  0  0  0  0  0  0
    9.3568  -14.5228   15.8148 C   0  0  0  0  0  0  0  0  0  0  0  0
    9.3706  -15.1203   20.6397 C   0  0  0  0  0  0  0  0  0  0  0  0
   10.3091  -14.3828   21.0651 O   0  0  0  0  0  0  0  0  0  0  0  0
    8.3974  -15.6797   21.4846 N   0  0  0  0  0  0  0  0  0  0  0  0
    8.4585  -15.3703   22.9211 C   0  0  1  0  0  0  0  0  0  0  0  0
    7.0743  -15.1296   23.4146 C   0  0  0  0  0  0  0  0  0  0  0  0
    7.0567  -14.8964   24.8596 C   0  0  0  0  0  0  0  0  0  0  0  0
    6.8907  -15.8365   25.8801 C   0  0  0  0  0  0  0  0  0  0  0  0
    6.9489  -15.2117   27.0614 N   0  0  0  0  0  0  0  0  0  0  0  0
    7.1500  -13.8760   26.8683 C   0  0  0  0  0  0  0  0  0  0  0  0
    7.2861  -12.8123   27.7339 C   0  0  0  0  0  0  0  0  0  0  0  0
    7.4910  -11.5338   27.2258 C   0  0  0  0  0  0  0  0  0  0  0  0
    7.5495  -11.3827   25.8513 C   0  0  0  0  0  0  0  0  0  0  0  0
    7.4171  -12.4299   24.9649 C   0  0  0  0  0  0  0  0  0  0  0  0
    7.2133  -13.6956   25.5127 C   0  0  0  0  0  0  0  0  0  0  0  0
    9.0512  -16.5999   23.5691 C   0  0  0  0  0  0  0  0  0  0  0  0
    8.5566  -17.7257   23.3719 O   0  0  0  0  0  0  0  0  0  0  0  0
   15.0436  -14.4048   20.1170 N   0  0  0  0  0  0  0  0  0  0  0  0
   14.3315  -15.5516   20.5471 C   0  0  0  0  0  0  0  0  0  0  0  0
   13.5791  -16.1808   19.7614 N   0  0  0  0  0  0  0  0  0  0  0  0
   14.4563  -16.0118   21.8922 N   0  0  0  0  0  0  0  0  0  0  0  0
   13.7697  -17.1429   22.4399 C   0  0  0  0  0  0  0  0  0  0  0  0
   12.7406  -16.7466   23.4809 C   0  0  0  0  0  0  0  0  0  0  0  0
   11.9694  -17.9838   23.8667 C   0  0  0  0  0  0  0  0  0  0  0  0
   10.9047  -17.6694   24.9072 C   0  0  2  0  0  0  0  0  0  0  0  0
   10.1895  -16.4867   24.4165 N   0  0  0  0  0  0  0  0  0  0  0  0
   11.5400  -17.3689   26.1958 C   0  0  0  0  0  0  0  0  0  0  0  0
   12.2075  -18.3428   26.8920 O   0  0  0  0  0  0  0  0  0  0  0  0
   11.4602  -16.2100   26.6569 O   0  0  0  0  0  0  0  0  0  0  0  0
  2  3  1  0
  2  1  1  1
  4  5  2  0
  4  3  1  0
  6  5  1  0
  7 12  2  0
  7  6  1  0
  8  7  1  0
  9 10  1  0
  9  8  2  0
 10 11  2  0
 11 12  1  0
 12  4  1  0
 13  2  1  0
 14 13  2  0
 15 13  1  0
 16 15  1  0
 16 17  1  1
 17 18  1  0
 18 26  1  0
 18 19  2  0
 19 20  1  0
 21 22  2  0
 21 20  1  0
 23 22  1  0
 24 23  2  0
 25 24  1  0
 25 26  2  0
 26 21  1  0
 27 28  2  0
 27 16  1  0
 30 32  1  0
 30 29  1  0
 31 30  2  0
 33 32  1  0
 34 35  1  0
 34 33  1  0
 36 35  1  6
 36 38  1  0
 36 37  1  0
 37 27  1  0
 38 39  1  0
 40 38  2  0
M  END
$$$$
