WWR.pdb
     RDKit          3D

 40 43  0  0  1  0  0  0  0  0999 V2000
    8.2215  -16.0621   21.3326 N   0  0  0  0  0  0  0  0  0  0  0  0
    9.4634  -15.3367   21.1364 C   0  0  1  0  0  0  0  0  0  0  0  0
    9.3901  -14.0965   20.3692 C   0  0  0  0  0  0  0  0  0  0  0  0
    8.7360  -14.0894   19.0637 C   0  0  0  0  0  0  0  0  0  0  0  0
    8.5759  -12.8746   18.3606 C   0  0  0  0  0  0  0  0  0  0  0  0
    7.9612  -13.1209   17.2027 N   0  0  0  0  0  0  0  0  0  0  0  0
    7.7161  -14.4363   17.1230 C   0  0  0  0  0  0  0  0  0  0  0  0
    7.1063  -15.2013   16.1485 C   0  0  0  0  0  0  0  0  0  0  0  0
    6.9777  -16.5598   16.3254 C   0  0  0  0  0  0  0  0  0  0  0  0
    7.4442  -17.1852   17.4565 C   0  0  0  0  0  0  0  0  0  0  0  0
    8.0548  -16.4294   18.4356 C   0  0  0  0  0  0  0  0  0  0  0  0
    8.1901  -15.0724   18.2739 C   0  0  0  0  0  0  0  0  0  0  0  0
    9.9097  -15.0341   22.5547 C   0  0  0  0  0  0  0  0  0  0  0  0
   10.9206  -14.2910   22.7318 O   0  0  0  0  0  0  0  0  0  0  0  0
    9.1821  -15.5977   23.6161 N   0  0  0  0  0  0  0  0  0  0  0  0
    9.9160  -16.0245   24.8170 C   0  0  1  0  0  0  0  0  0  0  0  0
    9.4929  -15.1704   25.9611 C   0  0  0  0  0  0  0  0  0  0  0  0
    8.0871  -14.7799   25.8433 C   0  0  0  0  0  0  0  0  0  0  0  0
    7.0195  -15.5450   25.3656 C   0  0  0  0  0  0  0  0  0  0  0  0
    5.8980  -14.8193   25.4361 N   0  0  0  0  0  0  0  0  0  0  0  0
    6.1771  -13.5858   25.9484 C   0  0  0  0  0  0  0  0  0  0  0  0
    5.3952  -12.4853   26.2253 C   0  0  0  0  0  0  0  0  0  0  0  0
    5.9802  -11.3431   26.7618 C   0  0  0  0  0  0  0  0  0  0  0  0
    7.3439  -11.3612   26.9972 C   0  0  0  0  0  0  0  0  0  0  0  0
    8.1474  -12.4486   26.7296 C   0  0  0  0  0  0  0  0  0  0  0  0
    7.5241  -13.5742   26.1930 C   0  0  0  0  0  0  0  0  0  0  0  0
    9.5091  -17.4619   25.0433 C   0  0  0  0  0  0  0  0  0  0  0  0
    8.4989  -17.9336   24.4883 O   0  0  0  0  0  0  0  0  0  0  0  0
   13.0207  -21.0146   20.4415 N   0  0  0  0  0  0  0  0  0  0  0  0
   14.2440  -21.2408   21.1195 C   0  0  0  0  0  0  0  0  0  0  0  0
   14.9790  -22.2163   20.8240 N   0  0  0  0  0  0  0  0  0  0  0  0
   14.6622  -20.3582   22.1601 N   0  0  0  0  0  0  0  0  0  0  0  0
   13.8252  -19.3876   22.7990 C   0  0  0  0  0  0  0  0  0  0  0  0
   12.8407  -20.0187   23.7647 C   0  0  0  0  0  0  0  0  0  0  0  0
   11.9806  -18.9195   24.3361 C   0  0  0  0  0  0  0  0  0  0  0  0
   11.0141  -19.4600   25.3796 C   0  0  2  0  0  0  0  0  0  0  0  0
   10.2802  -18.3004   25.8972 N   0  0  0  0  0  0  0  0  0  0  0  0
   11.7620  -20.1025   26.4668 C   0  0  0  0  0  0  0  0  0  0  0  0
   11.9284  -19.4705   27.6717 O   0  0  0  0  0  0  0  0  0  0  0  0
   12.2532  -21.2363   26.2792 O   0  0  0  0  0  0  0  0  0  0  0  0
  2  3  1  0
  2  1  1  1
  4  5  2  0
  4  3  1  0
  6  5  1  0
  7 12  2  0
  7  6  1  0
  8  7  1  0
  9 10  1  0
  9  8  2  0
 10 11  2  0
 11 12  1  0
 12  4  1  0
 13  2  1  0
 14 13  2  0
 15 13  1  0
 16 15  1  0
 16 17  1  1
 17 18  1  0
 18 26  1  0
 18 19  2  0
 19 20  1  0
 21 22  2  0
 21 20  1  0
 23 22  1  0
 24 23  2  0
 25 24  1  0
 25 26  2  0
 26 21  1  0
 27 28  2  0
 27 16  1  0
 30 32  1  0
 30 29  1  0
 31 30  2  0
 33 32  1  0
 34 35  1  0
 34 33  1  0
 36 35  1  6
 36 38  1  0
 36 37  1  0
 37 27  1  0
 38 39  1  0
 40 38  2  0
M  END
$$$$
