LPQ.pdb
     RDKit          3D

 25 25  0  0  1  0  0  0  0  0999 V2000
    5.3883  -12.1124   25.8553 C   0  0  0  0  0  0  0  0  0  0  0  0
    6.4462  -12.8224   26.7057 C   0  0  2  0  0  0  0  0  0  0  0  0
    7.3033  -11.7661   27.3253 C   0  0  0  0  0  0  0  0  0  0  0  0
    7.1750  -13.7518   25.7883 C   0  0  0  0  0  0  0  0  0  0  0  0
    6.2632  -14.8422   25.2356 C   0  0  2  0  0  0  0  0  0  0  0  0
    5.8327  -15.7014   26.3596 N   0  0  0  0  0  0  0  0  0  0  0  0
    7.0797  -15.6783   24.3329 C   0  0  0  0  0  0  0  0  0  0  0  0
    7.1469  -16.9196   24.6402 O   0  0  0  0  0  0  0  0  0  0  0  0
    7.7723  -15.2483   23.1928 N   0  0  0  0  0  0  0  0  0  0  0  0
    7.8623  -13.8895   22.7479 C   0  0  0  0  0  0  0  0  0  0  0  0
    7.6252  -14.0664   21.2387 C   0  0  0  0  0  0  0  0  0  0  0  0
    8.2105  -15.4266   20.9464 C   0  0  0  0  0  0  0  0  0  0  0  0
    8.5288  -16.0425   22.2892 C   0  0  1  0  0  0  0  0  0  0  0  0
    9.9942  -16.0278   22.5822 C   0  0  0  0  0  0  0  0  0  0  0  0
   10.5550  -14.9035   22.6320 O   0  0  0  0  0  0  0  0  0  0  0  0
   11.8937  -20.2634   25.9299 N   0  0  0  0  0  0  0  0  0  0  0  0
   11.0651  -19.1773   26.3013 C   0  0  0  0  0  0  0  0  0  0  0  0
   10.3038  -19.3080   27.2830 O   0  0  0  0  0  0  0  0  0  0  0  0
   11.1277  -17.9247   25.5160 C   0  0  0  0  0  0  0  0  0  0  0  0
   12.2413  -18.0501   24.5226 C   0  0  0  0  0  0  0  0  0  0  0  0
   12.1310  -17.1228   23.3496 C   0  0  2  0  0  0  0  0  0  0  0  0
   10.7899  -17.1589   22.8038 N   0  0  0  0  0  0  0  0  0  0  0  0
   13.1780  -17.2756   22.3534 C   0  0  0  0  0  0  0  0  0  0  0  0
   14.4975  -17.0685   22.6721 O   0  0  0  0  0  0  0  0  0  0  0  0
   12.8920  -17.5989   21.1867 O   0  0  0  0  0  0  0  0  0  0  0  0
  2  1  1  6
  2  4  1  0
  3  2  1  0
  4  5  1  0
  5  6  1  1
  7  5  1  0
  7  8  2  0
  9  7  1  0
 10  9  1  0
 11 12  1  0
 11 10  1  0
 12 13  1  0
 13 14  1  1
 13  9  1  0
 14 15  2  0
 16 17  1  0
 17 19  1  0
 18 17  2  0
 19 20  1  0
 21 20  1  1
 21 23  1  0
 22 14  1  0
 22 21  1  0
 23 25  2  0
 23 24  1  0
M  END
$$$$
