LPQ.pdb
     RDKit          3D

 25 25  0  0  1  0  0  0  0  0999 V2000
    5.9863  -12.7690   27.5174 C   0  0  0  0  0  0  0  0  0  0  0  0
    7.1033  -13.4498   26.7204 C   0  0  2  0  0  0  0  0  0  0  0  0
    8.3104  -12.5723   26.8049 C   0  0  0  0  0  0  0  0  0  0  0  0
    6.5768  -13.6468   25.3345 C   0  0  0  0  0  0  0  0  0  0  0  0
    6.1401  -15.0870   25.0876 C   0  0  2  0  0  0  0  0  0  0  0  0
    6.0377  -15.7717   26.3943 N   0  0  0  0  0  0  0  0  0  0  0  0
    7.2221  -15.7478   24.3305 C   0  0  0  0  0  0  0  0  0  0  0  0
    7.5920  -16.8890   24.7783 O   0  0  0  0  0  0  0  0  0  0  0  0
    7.8675  -15.2526   23.1891 N   0  0  0  0  0  0  0  0  0  0  0  0
    7.6173  -13.9750   22.5910 C   0  0  0  0  0  0  0  0  0  0  0  0
    7.5738  -14.3596   21.1026 C   0  0  0  0  0  0  0  0  0  0  0  0
    8.5361  -15.5186   21.0091 C   0  0  0  0  0  0  0  0  0  0  0  0
    8.8914  -15.8833   22.4320 C   0  0  1  0  0  0  0  0  0  0  0  0
   10.2634  -15.4232   22.8052 C   0  0  0  0  0  0  0  0  0  0  0  0
   10.4683  -14.1825   22.8077 O   0  0  0  0  0  0  0  0  0  0  0  0
   10.8818  -13.9759   28.2902 N   0  0  0  0  0  0  0  0  0  0  0  0
   11.0608  -15.3184   27.8783 C   0  0  0  0  0  0  0  0  0  0  0  0
   10.3884  -16.2137   28.4323 O   0  0  0  0  0  0  0  0  0  0  0  0
   12.0367  -15.6171   26.8069 C   0  0  0  0  0  0  0  0  0  0  0  0
   11.2845  -15.7905   25.5235 C   0  0  0  0  0  0  0  0  0  0  0  0
   12.1483  -16.0972   24.3371 C   0  0  2  0  0  0  0  0  0  0  0  0
   11.3345  -16.2572   23.1497 N   0  0  0  0  0  0  0  0  0  0  0  0
   13.1073  -17.1693   24.5443 C   0  0  0  0  0  0  0  0  0  0  0  0
   12.8375  -18.4524   24.1363 O   0  0  0  0  0  0  0  0  0  0  0  0
   14.1963  -16.9387   25.0996 O   0  0  0  0  0  0  0  0  0  0  0  0
  2  1  1  1
  2  4  1  0
  3  2  1  0
  4  5  1  0
  5  6  1  1
  7  5  1  0
  7  8  2  0
  9  7  1  0
 10  9  1  0
 11 12  1  0
 11 10  1  0
 12 13  1  0
 13 14  1  1
 13  9  1  0
 14 15  2  0
 16 17  1  0
 17 19  1  0
 18 17  2  0
 19 20  1  0
 21 20  1  1
 21 23  1  0
 22 14  1  0
 22 21  1  0
 23 25  2  0
 23 24  1  0
M  END
$$$$
