LPQ.pdb
     RDKit          3D

 25 25  0  0  1  0  0  0  0  0999 V2000
    5.0913  -12.2304   25.7208 C   0  0  0  0  0  0  0  0  0  0  0  0
    6.2147  -12.7861   26.6016 C   0  0  2  0  0  0  0  0  0  0  0  0
    6.9078  -11.6200   27.2293 C   0  0  0  0  0  0  0  0  0  0  0  0
    7.0826  -13.6156   25.7099 C   0  0  0  0  0  0  0  0  0  0  0  0
    6.3555  -14.8527   25.1932 C   0  0  2  0  0  0  0  0  0  0  0  0
    6.0532  -15.7288   26.3456 N   0  0  0  0  0  0  0  0  0  0  0  0
    7.2997  -15.5829   24.3237 C   0  0  0  0  0  0  0  0  0  0  0  0
    7.6723  -16.7299   24.7540 O   0  0  0  0  0  0  0  0  0  0  0  0
    7.8138  -15.1465   23.0950 N   0  0  0  0  0  0  0  0  0  0  0  0
    7.6277  -13.8378   22.5428 C   0  0  0  0  0  0  0  0  0  0  0  0
    7.3075  -14.1876   21.0798 C   0  0  0  0  0  0  0  0  0  0  0  0
    8.0985  -15.4499   20.8374 C   0  0  0  0  0  0  0  0  0  0  0  0
    8.6249  -15.8796   22.1872 C   0  0  1  0  0  0  0  0  0  0  0  0
   10.0833  -15.5911   22.3406 C   0  0  0  0  0  0  0  0  0  0  0  0
   10.4044  -14.4088   22.6236 O   0  0  0  0  0  0  0  0  0  0  0  0
   10.2229  -19.3529   26.5341 N   0  0  0  0  0  0  0  0  0  0  0  0
   11.1184  -18.2685   26.6963 C   0  0  0  0  0  0  0  0  0  0  0  0
   11.1136  -17.6390   27.7753 O   0  0  0  0  0  0  0  0  0  0  0  0
   12.0295  -17.9167   25.5847 C   0  0  0  0  0  0  0  0  0  0  0  0
   11.2076  -17.3561   24.4653 C   0  0  0  0  0  0  0  0  0  0  0  0
   12.0012  -16.9420   23.2627 C   0  0  2  0  0  0  0  0  0  0  0  0
   11.1162  -16.5256   22.1944 N   0  0  0  0  0  0  0  0  0  0  0  0
   13.0189  -17.8934   22.8489 C   0  0  0  0  0  0  0  0  0  0  0  0
   12.6887  -19.0265   22.1470 O   0  0  0  0  0  0  0  0  0  0  0  0
   14.2148  -17.6939   23.1271 O   0  0  0  0  0  0  0  0  0  0  0  0
  2  1  1  6
  2  4  1  0
  3  2  1  0
  4  5  1  0
  5  6  1  1
  7  5  1  0
  7  8  2  0
  9  7  1  0
 10  9  1  0
 11 12  1  0
 11 10  1  0
 12 13  1  0
 13 14  1  6
 13  9  1  0
 14 15  2  0
 16 17  1  0
 17 19  1  0
 18 17  2  0
 19 20  1  0
 21 20  1  1
 21 23  1  0
 22 14  1  0
 22 21  1  0
 23 25  2  0
 23 24  1  0
M  END
$$$$
