LWQ.pdb
     RDKit          3D

 32 33  0  0  1  0  0  0  0  0999 V2000
    5.5056  -19.2256   18.4014 C   0  0  0  0  0  0  0  0  0  0  0  0
    6.9589  -19.5531   18.4920 C   0  0  2  0  0  0  0  0  0  0  0  0
    7.0741  -21.0499   18.8039 C   0  0  0  0  0  0  0  0  0  0  0  0
    7.6954  -18.8448   19.5800 C   0  0  0  0  0  0  0  0  0  0  0  0
    7.8169  -17.3587   19.4001 C   0  0  2  0  0  0  0  0  0  0  0  0
    8.3834  -16.9713   18.1406 N   0  0  0  0  0  0  0  0  0  0  0  0
    8.5362  -16.7170   20.5344 C   0  0  0  0  0  0  0  0  0  0  0  0
    9.7787  -16.7136   20.5105 O   0  0  0  0  0  0  0  0  0  0  0  0
    7.8807  -16.1180   21.6253 N   0  0  0  0  0  0  0  0  0  0  0  0
    8.5933  -15.4695   22.7429 C   0  0  1  0  0  0  0  0  0  0  0  0
    7.5528  -14.7431   23.5098 C   0  0  0  0  0  0  0  0  0  0  0  0
    7.8364  -14.4090   24.8978 C   0  0  0  0  0  0  0  0  0  0  0  0
    8.7154  -14.9959   25.7828 C   0  0  0  0  0  0  0  0  0  0  0  0
    8.6264  -14.3663   26.9637 N   0  0  0  0  0  0  0  0  0  0  0  0
    7.7067  -13.3749   26.8786 C   0  0  0  0  0  0  0  0  0  0  0  0
    7.2420  -12.4389   27.8067 C   0  0  0  0  0  0  0  0  0  0  0  0
    6.2771  -11.5186   27.4522 C   0  0  0  0  0  0  0  0  0  0  0  0
    5.7733  -11.5287   26.1732 C   0  0  0  0  0  0  0  0  0  0  0  0
    6.2383  -12.4561   25.2648 C   0  0  0  0  0  0  0  0  0  0  0  0
    7.2164  -13.3973   25.6055 C   0  0  0  0  0  0  0  0  0  0  0  0
    9.4126  -16.4401   23.4654 C   0  0  0  0  0  0  0  0  0  0  0  0
    8.9644  -17.6471   23.5522 O   0  0  0  0  0  0  0  0  0  0  0  0
   15.0733  -18.4454   20.8553 N   0  0  0  0  0  0  0  0  0  0  0  0
   14.8076  -17.5254   21.9139 C   0  0  0  0  0  0  0  0  0  0  0  0
   15.4331  -16.4542   21.9072 O   0  0  0  0  0  0  0  0  0  0  0  0
   13.8064  -17.9203   22.9381 C   0  0  0  0  0  0  0  0  0  0  0  0
   12.7559  -16.8415   23.0101 C   0  0  0  0  0  0  0  0  0  0  0  0
   11.6823  -17.1438   24.0250 C   0  0  2  0  0  0  0  0  0  0  0  0
   10.6602  -16.1148   24.0608 N   0  0  0  0  0  0  0  0  0  0  0  0
   12.3299  -17.2273   25.3385 C   0  0  0  0  0  0  0  0  0  0  0  0
   12.1064  -16.3774   26.2166 O   0  0  0  0  0  0  0  0  0  0  0  0
   13.2037  -18.2635   25.6137 O   0  0  0  0  0  0  0  0  0  0  0  0
  2  3  1  1
  2  1  1  0
  4  2  1  0
  5  4  1  0
  5  6  1  6
  7  9  1  0
  7  5  1  0
  8  7  2  0
 10  9  1  0
 10 11  1  1
 12 11  1  0
 13 12  2  0
 14 13  1  0
 15 14  1  0
 15 20  2  0
 16 15  1  0
 17 16  2  0
 17 18  1  0
 18 19  2  0
 19 20  1  0
 20 12  1  0
 21 10  1  0
 21 22  2  0
 23 24  1  0
 24 26  1  0
 25 24  2  0
 27 26  1  0
 28 29  1  0
 28 27  1  6
 29 21  1  0
 30 28  1  0
 31 30  2  0
 32 30  1  0
M  END
$$$$
