LWQ.pdb
     RDKit          3D

 32 33  0  0  1  0  0  0  0  0999 V2000
    6.6952  -14.1537   18.8648 C   0  0  0  0  0  0  0  0  0  0  0  0
    7.9802  -13.4692   19.1932 C   0  0  2  0  0  0  0  0  0  0  0  0
    8.0021  -12.1408   18.4278 C   0  0  0  0  0  0  0  0  0  0  0  0
    9.2089  -14.2077   18.7778 C   0  0  0  0  0  0  0  0  0  0  0  0
    9.4587  -15.4902   19.5182 C   0  0  2  0  0  0  0  0  0  0  0  0
    8.5776  -16.5578   19.1425 N   0  0  0  0  0  0  0  0  0  0  0  0
    9.4640  -15.2901   20.9933 C   0  0  0  0  0  0  0  0  0  0  0  0
   10.3783  -14.6080   21.4864 O   0  0  0  0  0  0  0  0  0  0  0  0
    8.4895  -15.8327   21.8503 N   0  0  0  0  0  0  0  0  0  0  0  0
    8.5439  -15.7113   23.3199 C   0  0  1  0  0  0  0  0  0  0  0  0
    7.1513  -15.4356   23.7478 C   0  0  0  0  0  0  0  0  0  0  0  0
    6.8983  -15.2487   25.1689 C   0  0  0  0  0  0  0  0  0  0  0  0
    6.5732  -16.1767   26.1349 C   0  0  0  0  0  0  0  0  0  0  0  0
    6.4124  -15.5444   27.3068 N   0  0  0  0  0  0  0  0  0  0  0  0
    6.6245  -14.2171   27.1363 C   0  0  0  0  0  0  0  0  0  0  0  0
    6.5830  -13.1353   28.0204 C   0  0  0  0  0  0  0  0  0  0  0  0
    6.8453  -11.8556   27.5764 C   0  0  0  0  0  0  0  0  0  0  0  0
    7.1491  -11.6508   26.2514 C   0  0  0  0  0  0  0  0  0  0  0  0
    7.1875  -12.7245   25.3870 C   0  0  0  0  0  0  0  0  0  0  0  0
    6.9246  -14.0296   25.8185 C   0  0  0  0  0  0  0  0  0  0  0  0
    9.2166  -16.8670   23.9090 C   0  0  0  0  0  0  0  0  0  0  0  0
    9.1323  -17.9887   23.2764 O   0  0  0  0  0  0  0  0  0  0  0  0
   13.5415  -17.2102   21.9300 N   0  0  0  0  0  0  0  0  0  0  0  0
   13.9000  -18.0556   23.0228 C   0  0  0  0  0  0  0  0  0  0  0  0
   14.4446  -19.1366   22.7512 O   0  0  0  0  0  0  0  0  0  0  0  0
   13.5945  -17.5776   24.3960 C   0  0  0  0  0  0  0  0  0  0  0  0
   12.2795  -16.8415   24.3565 C   0  0  0  0  0  0  0  0  0  0  0  0
   11.2052  -17.5291   25.1608 C   0  0  2  0  0  0  0  0  0  0  0  0
    9.9487  -16.8048   25.1243 N   0  0  0  0  0  0  0  0  0  0  0  0
   11.6770  -17.6084   26.5475 C   0  0  0  0  0  0  0  0  0  0  0  0
   11.1039  -16.9821   27.4545 O   0  0  0  0  0  0  0  0  0  0  0  0
   12.7748  -18.3891   26.8605 O   0  0  0  0  0  0  0  0  0  0  0  0
  2  3  1  6
  2  1  1  0
  4  2  1  0
  5  4  1  0
  5  6  1  1
  7  9  1  0
  7  5  1  0
  8  7  2  0
 10  9  1  0
 10 11  1  1
 12 11  1  0
 13 12  2  0
 14 13  1  0
 15 14  1  0
 15 20  2  0
 16 15  1  0
 17 16  2  0
 17 18  1  0
 18 19  2  0
 19 20  1  0
 20 12  1  0
 21 10  1  0
 21 22  2  0
 23 24  1  0
 24 26  1  0
 25 24  2  0
 27 26  1  0
 28 29  1  0
 28 27  1  6
 29 21  1  0
 30 28  1  0
 31 30  2  0
 32 30  1  0
M  END
$$$$
