LWQ.pdb
     RDKit          3D

 32 33  0  0  1  0  0  0  0  0999 V2000
    6.1616  -15.6709   17.8883 C   0  0  0  0  0  0  0  0  0  0  0  0
    7.2988  -14.8241   18.3545 C   0  0  2  0  0  0  0  0  0  0  0  0
    8.3057  -14.7315   17.2018 C   0  0  0  0  0  0  0  0  0  0  0  0
    8.0524  -15.3718   19.5206 C   0  0  0  0  0  0  0  0  0  0  0  0
    7.3033  -15.3590   20.8223 C   0  0  2  0  0  0  0  0  0  0  0  0
    6.2016  -14.4410   20.8484 N   0  0  0  0  0  0  0  0  0  0  0  0
    8.2091  -15.1466   21.9844 C   0  0  0  0  0  0  0  0  0  0  0  0
    8.6856  -14.0113   22.1531 O   0  0  0  0  0  0  0  0  0  0  0  0
    8.5492  -16.1633   22.8950 N   0  0  0  0  0  0  0  0  0  0  0  0
    9.5317  -15.9836   23.9812 C   0  0  1  0  0  0  0  0  0  0  0  0
    8.7964  -16.2770   25.2349 C   0  0  0  0  0  0  0  0  0  0  0  0
    7.6933  -15.4006   25.6002 C   0  0  0  0  0  0  0  0  0  0  0  0
    6.3360  -15.6406   25.5853 C   0  0  0  0  0  0  0  0  0  0  0  0
    5.6955  -14.5325   25.9863 N   0  0  0  0  0  0  0  0  0  0  0  0
    6.6008  -13.5641   26.2663 C   0  0  0  0  0  0  0  0  0  0  0  0
    6.4635  -12.2467   26.7124 C   0  0  0  0  0  0  0  0  0  0  0  0
    7.5754  -11.4572   26.9221 C   0  0  0  0  0  0  0  0  0  0  0  0
    8.8259  -11.9781   26.6878 C   0  0  0  0  0  0  0  0  0  0  0  0
    8.9509  -13.2789   26.2477 C   0  0  0  0  0  0  0  0  0  0  0  0
    7.8352  -14.0951   26.0294 C   0  0  0  0  0  0  0  0  0  0  0  0
   10.7449  -16.7525   23.7124 C   0  0  0  0  0  0  0  0  0  0  0  0
   10.6260  -18.0338   23.6154 O   0  0  0  0  0  0  0  0  0  0  0  0
   15.7311  -13.8285   21.6611 N   0  0  0  0  0  0  0  0  0  0  0  0
   14.9090  -14.6961   20.8808 C   0  0  0  0  0  0  0  0  0  0  0  0
   15.2312  -14.8719   19.6958 O   0  0  0  0  0  0  0  0  0  0  0  0
   13.7352  -15.3191   21.5453 C   0  0  0  0  0  0  0  0  0  0  0  0
   14.2395  -16.3566   22.5159 C   0  0  0  0  0  0  0  0  0  0  0  0
   13.1232  -17.0542   23.2515 C   0  0  2  0  0  0  0  0  0  0  0  0
   12.0240  -16.1565   23.5529 N   0  0  0  0  0  0  0  0  0  0  0  0
   13.6801  -17.5740   24.5051 C   0  0  0  0  0  0  0  0  0  0  0  0
   13.2783  -17.1574   25.6043 O   0  0  0  0  0  0  0  0  0  0  0  0
   14.6672  -18.5423   24.4739 O   0  0  0  0  0  0  0  0  0  0  0  0
  2  3  1  6
  2  1  1  0
  4  2  1  0
  5  4  1  0
  5  6  1  6
  7  9  1  0
  7  5  1  0
  8  7  2  0
 10  9  1  0
 10 11  1  1
 12 11  1  0
 13 12  2  0
 14 13  1  0
 15 14  1  0
 15 20  2  0
 16 15  1  0
 17 16  2  0
 17 18  1  0
 18 19  2  0
 19 20  1  0
 20 12  1  0
 21 10  1  0
 21 22  2  0
 23 24  1  0
 24 26  1  0
 25 24  2  0
 27 26  1  0
 28 29  1  0
 28 27  1  1
 29 21  1  0
 30 28  1  0
 31 30  2  0
 32 30  1  0
M  END
$$$$
