LWQ.pdb
     RDKit          3D

 32 33  0  0  1  0  0  0  0  0999 V2000
    7.4021  -14.3119   18.2966 C   0  0  0  0  0  0  0  0  0  0  0  0
    7.0806  -13.7649   19.6475 C   0  0  2  0  0  0  0  0  0  0  0  0
    6.8595  -12.2557   19.4916 C   0  0  0  0  0  0  0  0  0  0  0  0
    8.1632  -13.9229   20.6627 C   0  0  0  0  0  0  0  0  0  0  0  0
    8.4578  -15.3410   21.0601 C   0  0  2  0  0  0  0  0  0  0  0  0
    7.3192  -16.2106   20.9928 N   0  0  0  0  0  0  0  0  0  0  0  0
    9.1185  -15.4207   22.3916 C   0  0  0  0  0  0  0  0  0  0  0  0
   10.0728  -14.6570   22.6163 O   0  0  0  0  0  0  0  0  0  0  0  0
    8.7168  -16.3137   23.4014 N   0  0  0  0  0  0  0  0  0  0  0  0
    9.3621  -16.3827   24.7266 C   0  0  1  0  0  0  0  0  0  0  0  0
    8.2594  -16.5924   25.6954 C   0  0  0  0  0  0  0  0  0  0  0  0
    7.3042  -15.5110   25.8867 C   0  0  0  0  0  0  0  0  0  0  0  0
    5.9285  -15.5258   25.8006 C   0  0  0  0  0  0  0  0  0  0  0  0
    5.4661  -14.2889   26.0358 N   0  0  0  0  0  0  0  0  0  0  0  0
    6.5073  -13.4558   26.2758 C   0  0  0  0  0  0  0  0  0  0  0  0
    6.5734  -12.0910   26.5695 C   0  0  0  0  0  0  0  0  0  0  0  0
    7.7911  -11.4751   26.7733 C   0  0  0  0  0  0  0  0  0  0  0  0
    8.9449  -12.2171   26.6850 C   0  0  0  0  0  0  0  0  0  0  0  0
    8.8693  -13.5630   26.3947 C   0  0  0  0  0  0  0  0  0  0  0  0
    7.6439  -14.2054   26.1848 C   0  0  0  0  0  0  0  0  0  0  0  0
   10.4516  -17.3565   24.7203 C   0  0  0  0  0  0  0  0  0  0  0  0
   10.2102  -18.5135   24.2022 O   0  0  0  0  0  0  0  0  0  0  0  0
   17.0224  -16.8682   24.3090 N   0  0  0  0  0  0  0  0  0  0  0  0
   15.7733  -16.2176   24.0767 C   0  0  0  0  0  0  0  0  0  0  0  0
   15.7212  -15.4025   23.1430 O   0  0  0  0  0  0  0  0  0  0  0  0
   14.6363  -16.5654   24.9676 C   0  0  0  0  0  0  0  0  0  0  0  0
   13.9366  -17.7691   24.3898 C   0  0  0  0  0  0  0  0  0  0  0  0
   12.7110  -18.1608   25.1762 C   0  0  2  0  0  0  0  0  0  0  0  0
   11.7416  -17.0838   25.2478 N   0  0  0  0  0  0  0  0  0  0  0  0
   13.1506  -18.5060   26.5325 C   0  0  0  0  0  0  0  0  0  0  0  0
   12.7862  -17.8354   27.5127 O   0  0  0  0  0  0  0  0  0  0  0  0
   13.9828  -19.5921   26.7338 O   0  0  0  0  0  0  0  0  0  0  0  0
  2  3  1  6
  2  1  1  0
  4  2  1  0
  5  4  1  0
  5  6  1  1
  7  9  1  0
  7  5  1  0
  8  7  2  0
 10  9  1  0
 10 11  1  1
 12 11  1  0
 13 12  2  0
 14 13  1  0
 15 14  1  0
 15 20  2  0
 16 15  1  0
 17 16  2  0
 17 18  1  0
 18 19  2  0
 19 20  1  0
 20 12  1  0
 21 10  1  0
 21 22  2  0
 23 24  1  0
 24 26  1  0
 25 24  2  0
 27 26  1  0
 28 29  1  0
 28 27  1  6
 29 21  1  0
 30 28  1  0
 31 30  2  0
 32 30  1  0
M  END
$$$$
