LWQ.pdb
     RDKit          3D

 32 33  0  0  1  0  0  0  0  0999 V2000
    8.0444  -13.9681   18.5559 C   0  0  0  0  0  0  0  0  0  0  0  0
    7.4055  -13.5449   19.8366 C   0  0  2  0  0  0  0  0  0  0  0  0
    7.0779  -12.0519   19.7155 C   0  0  0  0  0  0  0  0  0  0  0  0
    8.2702  -13.6832   21.0453 C   0  0  0  0  0  0  0  0  0  0  0  0
    8.6905  -15.0887   21.3668 C   0  0  2  0  0  0  0  0  0  0  0  0
    7.6089  -16.0306   21.3725 N   0  0  0  0  0  0  0  0  0  0  0  0
    9.4741  -15.1607   22.6304 C   0  0  0  0  0  0  0  0  0  0  0  0
   10.4463  -14.3973   22.7587 O   0  0  0  0  0  0  0  0  0  0  0  0
    9.1685  -16.0461   23.6798 N   0  0  0  0  0  0  0  0  0  0  0  0
    9.9312  -16.1019   24.9418 C   0  0  1  0  0  0  0  0  0  0  0  0
    8.9208  -16.3014   26.0085 C   0  0  0  0  0  0  0  0  0  0  0  0
    7.7435  -15.4456   26.0021 C   0  0  0  0  0  0  0  0  0  0  0  0
    6.4357  -15.7496   25.6903 C   0  0  0  0  0  0  0  0  0  0  0  0
    5.6935  -14.6381   25.8034 N   0  0  0  0  0  0  0  0  0  0  0  0
    6.4831  -13.6048   26.1835 C   0  0  0  0  0  0  0  0  0  0  0  0
    6.2137  -12.2570   26.4373 C   0  0  0  0  0  0  0  0  0  0  0  0
    7.2246  -11.3989   26.8184 C   0  0  0  0  0  0  0  0  0  0  0  0
    8.5054  -11.8812   26.9475 C   0  0  0  0  0  0  0  0  0  0  0  0
    8.7611  -13.2124   26.6949 C   0  0  0  0  0  0  0  0  0  0  0  0
    7.7493  -14.0982   26.3074 C   0  0  0  0  0  0  0  0  0  0  0  0
   11.0162  -17.0760   24.8467 C   0  0  0  0  0  0  0  0  0  0  0  0
   11.5049  -17.5296   25.9517 O   0  0  0  0  0  0  0  0  0  0  0  0
   12.0746  -19.6990   19.3252 N   0  0  0  0  0  0  0  0  0  0  0  0
   13.1871  -19.0929   19.9828 C   0  0  0  0  0  0  0  0  0  0  0  0
   14.3065  -19.2541   19.4730 O   0  0  0  0  0  0  0  0  0  0  0  0
   12.9197  -18.3186   21.2224 C   0  0  0  0  0  0  0  0  0  0  0  0
   12.6996  -19.2955   22.3493 C   0  0  0  0  0  0  0  0  0  0  0  0
   12.5124  -18.6127   23.6807 C   0  0  2  0  0  0  0  0  0  0  0  0
   11.5413  -17.5372   23.6105 N   0  0  0  0  0  0  0  0  0  0  0  0
   13.8129  -18.0640   24.0801 C   0  0  0  0  0  0  0  0  0  0  0  0
   13.9806  -16.8387   24.1986 O   0  0  0  0  0  0  0  0  0  0  0  0
   14.8743  -18.9144   24.3309 O   0  0  0  0  0  0  0  0  0  0  0  0
  2  3  1  6
  2  1  1  0
  4  2  1  0
  5  4  1  0
  5  6  1  1
  7  9  1  0
  7  5  1  0
  8  7  2  0
 10  9  1  0
 10 11  1  1
 12 11  1  0
 13 12  2  0
 14 13  1  0
 15 14  1  0
 15 20  2  0
 16 15  1  0
 17 16  2  0
 17 18  1  0
 18 19  2  0
 19 20  1  0
 20 12  1  0
 21 10  1  0
 21 22  2  0
 23 24  1  0
 24 26  1  0
 25 24  2  0
 27 26  1  0
 28 29  1  0
 28 27  1  6
 29 21  1  0
 30 28  1  0
 31 30  2  0
 32 30  1  0
M  END
$$$$
