LWQ.pdb
     RDKit          3D

 32 33  0  0  1  0  0  0  0  0999 V2000
    7.7475  -14.1801   18.2558 C   0  0  0  0  0  0  0  0  0  0  0  0
    7.0705  -13.7276   19.5066 C   0  0  2  0  0  0  0  0  0  0  0  0
    6.7164  -12.2465   19.3277 C   0  0  0  0  0  0  0  0  0  0  0  0
    7.9093  -13.8077   20.7386 C   0  0  0  0  0  0  0  0  0  0  0  0
    8.3270  -15.1956   21.1322 C   0  0  2  0  0  0  0  0  0  0  0  0
    7.2502  -16.1429   21.1475 N   0  0  0  0  0  0  0  0  0  0  0  0
    9.0742  -15.2086   22.4196 C   0  0  0  0  0  0  0  0  0  0  0  0
    9.9585  -14.3522   22.5899 O   0  0  0  0  0  0  0  0  0  0  0  0
    8.8286  -16.1381   23.4463 N   0  0  0  0  0  0  0  0  0  0  0  0
    9.5540  -16.1376   24.7313 C   0  0  1  0  0  0  0  0  0  0  0  0
    8.5271  -16.4017   25.7677 C   0  0  0  0  0  0  0  0  0  0  0  0
    7.3861  -15.5011   25.8431 C   0  0  0  0  0  0  0  0  0  0  0  0
    6.0509  -15.7501   25.6082 C   0  0  0  0  0  0  0  0  0  0  0  0
    5.3612  -14.6125   25.7792 N   0  0  0  0  0  0  0  0  0  0  0  0
    6.2124  -13.6158   26.1223 C   0  0  0  0  0  0  0  0  0  0  0  0
    6.0120  -12.2623   26.4076 C   0  0  0  0  0  0  0  0  0  0  0  0
    7.0771  -11.4491   26.7362 C   0  0  0  0  0  0  0  0  0  0  0  0
    8.3434  -11.9822   26.7812 C   0  0  0  0  0  0  0  0  0  0  0  0
    8.5308  -13.3187   26.4982 C   0  0  0  0  0  0  0  0  0  0  0  0
    7.4633  -14.1593   26.1630 C   0  0  0  0  0  0  0  0  0  0  0  0
   10.7051  -17.0359   24.6748 C   0  0  0  0  0  0  0  0  0  0  0  0
   10.4906  -18.2896   24.8935 O   0  0  0  0  0  0  0  0  0  0  0  0
   16.4620  -16.5449   21.9304 N   0  0  0  0  0  0  0  0  0  0  0  0
   15.4507  -15.5671   22.1727 C   0  0  0  0  0  0  0  0  0  0  0  0
   15.4414  -14.5649   21.4417 O   0  0  0  0  0  0  0  0  0  0  0  0
   14.4911  -15.8241   23.2774 C   0  0  0  0  0  0  0  0  0  0  0  0
   14.0637  -17.2678   23.2035 C   0  0  0  0  0  0  0  0  0  0  0  0
   13.0360  -17.6229   24.2484 C   0  0  2  0  0  0  0  0  0  0  0  0
   12.0241  -16.5931   24.3904 N   0  0  0  0  0  0  0  0  0  0  0  0
   13.7431  -17.7845   25.5235 C   0  0  0  0  0  0  0  0  0  0  0  0
   13.4649  -17.0731   26.5033 O   0  0  0  0  0  0  0  0  0  0  0  0
   14.7355  -18.7398   25.6473 O   0  0  0  0  0  0  0  0  0  0  0  0
  2  3  1  6
  2  1  1  0
  4  2  1  0
  5  4  1  0
  5  6  1  1
  7  9  1  0
  7  5  1  0
  8  7  2  0
 10  9  1  0
 10 11  1  1
 12 11  1  0
 13 12  2  0
 14 13  1  0
 15 14  1  0
 15 20  2  0
 16 15  1  0
 17 16  2  0
 17 18  1  0
 18 19  2  0
 19 20  1  0
 20 12  1  0
 21 10  1  0
 21 22  2  0
 23 24  1  0
 24 26  1  0
 25 24  2  0
 27 26  1  0
 28 29  1  0
 28 27  1  6
 29 21  1  0
 30 28  1  0
 31 30  2  0
 32 30  1  0
M  END
$$$$
