LWQ.pdb
     RDKit          3D

 32 33  0  0  1  0  0  0  0  0999 V2000
    7.4907  -12.3198   18.9373 C   0  0  0  0  0  0  0  0  0  0  0  0
    7.3756  -13.6173   19.6659 C   0  0  2  0  0  0  0  0  0  0  0  0
    5.9721  -13.6764   20.2805 C   0  0  0  0  0  0  0  0  0  0  0  0
    8.3322  -13.7881   20.7988 C   0  0  0  0  0  0  0  0  0  0  0  0
    8.5701  -15.2103   21.2188 C   0  0  2  0  0  0  0  0  0  0  0  0
    7.3778  -16.0055   21.2755 N   0  0  0  0  0  0  0  0  0  0  0  0
    9.3348  -15.2945   22.4932 C   0  0  0  0  0  0  0  0  0  0  0  0
   10.3396  -14.5742   22.6195 O   0  0  0  0  0  0  0  0  0  0  0  0
    8.9766  -16.1450   23.5546 N   0  0  0  0  0  0  0  0  0  0  0  0
    9.7001  -16.1868   24.8400 C   0  0  1  0  0  0  0  0  0  0  0  0
    8.6568  -16.3680   25.8778 C   0  0  0  0  0  0  0  0  0  0  0  0
    7.5095  -15.4727   25.8558 C   0  0  0  0  0  0  0  0  0  0  0  0
    6.2148  -15.7105   25.4466 C   0  0  0  0  0  0  0  0  0  0  0  0
    5.5020  -14.5829   25.5864 N   0  0  0  0  0  0  0  0  0  0  0  0
    6.2982  -13.6038   26.0797 C   0  0  0  0  0  0  0  0  0  0  0  0
    6.0555  -12.2660   26.4035 C   0  0  0  0  0  0  0  0  0  0  0  0
    7.0668  -11.4694   26.8997 C   0  0  0  0  0  0  0  0  0  0  0  0
    8.3214  -12.0036   27.0744 C   0  0  0  0  0  0  0  0  0  0  0  0
    8.5508  -13.3245   26.7520 C   0  0  0  0  0  0  0  0  0  0  0  0
    7.5381  -14.1481   26.2476 C   0  0  0  0  0  0  0  0  0  0  0  0
   10.7834  -17.1662   24.7911 C   0  0  0  0  0  0  0  0  0  0  0  0
   10.4563  -18.4057   24.6428 O   0  0  0  0  0  0  0  0  0  0  0  0
   16.2626  -15.6921   23.6437 N   0  0  0  0  0  0  0  0  0  0  0  0
   15.3638  -15.9707   22.5703 C   0  0  0  0  0  0  0  0  0  0  0  0
   15.6564  -15.5209   21.4518 O   0  0  0  0  0  0  0  0  0  0  0  0
   14.1520  -16.7746   22.8743 C   0  0  0  0  0  0  0  0  0  0  0  0
   14.3909  -17.5169   24.1645 C   0  0  0  0  0  0  0  0  0  0  0  0
   13.1085  -17.9074   24.8552 C   0  0  2  0  0  0  0  0  0  0  0  0
   12.1554  -16.8144   24.8944 N   0  0  0  0  0  0  0  0  0  0  0  0
   13.4499  -18.3001   26.2268 C   0  0  0  0  0  0  0  0  0  0  0  0
   14.2477  -19.2267   26.4466 O   0  0  0  0  0  0  0  0  0  0  0  0
   12.8808  -17.6355   27.2979 O   0  0  0  0  0  0  0  0  0  0  0  0
  2  3  1  1
  2  1  1  0
  4  2  1  0
  5  4  1  0
  5  6  1  1
  7  9  1  0
  7  5  1  0
  8  7  2  0
 10  9  1  0
 10 11  1  1
 12 11  1  0
 13 12  2  0
 14 13  1  0
 15 14  1  0
 15 20  2  0
 16 15  1  0
 17 16  2  0
 17 18  1  0
 18 19  2  0
 19 20  1  0
 20 12  1  0
 21 10  1  0
 21 22  2  0
 23 24  1  0
 24 26  1  0
 25 24  2  0
 27 26  1  0
 28 29  1  0
 28 27  1  1
 29 21  1  0
 30 28  1  0
 31 30  2  0
 32 30  1  0
M  END
$$$$
