LWQ.pdb
     RDKit          3D

 32 33  0  0  1  0  0  0  0  0999 V2000
    7.7753  -14.3687   17.9311 C   0  0  0  0  0  0  0  0  0  0  0  0
    7.2675  -13.7749   19.2027 C   0  0  2  0  0  0  0  0  0  0  0  0
    7.0351  -12.2803   18.9515 C   0  0  0  0  0  0  0  0  0  0  0  0
    8.2111  -13.8599   20.3561 C   0  0  0  0  0  0  0  0  0  0  0  0
    8.5316  -15.2547   20.8117 C   0  0  2  0  0  0  0  0  0  0  0  0
    7.3908  -16.1220   20.8706 N   0  0  0  0  0  0  0  0  0  0  0  0
    9.2810  -15.2623   22.0978 C   0  0  0  0  0  0  0  0  0  0  0  0
   10.2395  -14.4807   22.2194 O   0  0  0  0  0  0  0  0  0  0  0  0
    8.9582  -16.1068   23.1753 N   0  0  0  0  0  0  0  0  0  0  0  0
    9.6653  -16.0757   24.4701 C   0  0  1  0  0  0  0  0  0  0  0  0
    8.6420  -16.4091   25.4900 C   0  0  0  0  0  0  0  0  0  0  0  0
    7.5068  -15.5102   25.6371 C   0  0  0  0  0  0  0  0  0  0  0  0
    6.1636  -15.7484   25.4385 C   0  0  0  0  0  0  0  0  0  0  0  0
    5.4833  -14.6168   25.6745 N   0  0  0  0  0  0  0  0  0  0  0  0
    6.3483  -13.6347   26.0251 C   0  0  0  0  0  0  0  0  0  0  0  0
    6.1615  -12.2924   26.3667 C   0  0  0  0  0  0  0  0  0  0  0  0
    7.2392  -11.4935   26.6888 C   0  0  0  0  0  0  0  0  0  0  0  0
    8.5049  -12.0298   26.6713 C   0  0  0  0  0  0  0  0  0  0  0  0
    8.6790  -13.3552   26.3330 C   0  0  0  0  0  0  0  0  0  0  0  0
    7.5984  -14.1813   26.0034 C   0  0  0  0  0  0  0  0  0  0  0  0
   10.8678  -16.9045   24.4218 C   0  0  0  0  0  0  0  0  0  0  0  0
   10.7553  -18.0839   23.9099 O   0  0  0  0  0  0  0  0  0  0  0  0
   18.0557  -16.7076   24.0781 N   0  0  0  0  0  0  0  0  0  0  0  0
   16.7876  -16.5279   23.4478 C   0  0  0  0  0  0  0  0  0  0  0  0
   16.7053  -15.6502   22.5751 O   0  0  0  0  0  0  0  0  0  0  0  0
   15.6686  -17.4026   23.8840 C   0  0  0  0  0  0  0  0  0  0  0  0
   14.4720  -16.5303   24.1667 C   0  0  0  0  0  0  0  0  0  0  0  0
   13.2660  -17.3235   24.6028 C   0  0  2  0  0  0  0  0  0  0  0  0
   12.1315  -16.4705   24.9028 N   0  0  0  0  0  0  0  0  0  0  0  0
   13.6424  -18.0687   25.8090 C   0  0  0  0  0  0  0  0  0  0  0  0
   13.1050  -17.8279   26.9029 O   0  0  0  0  0  0  0  0  0  0  0  0
   14.6085  -19.0558   25.7382 O   0  0  0  0  0  0  0  0  0  0  0  0
  2  3  1  6
  2  1  1  0
  4  2  1  0
  5  4  1  0
  5  6  1  1
  7  9  1  0
  7  5  1  0
  8  7  2  0
 10  9  1  0
 10 11  1  1
 12 11  1  0
 13 12  2  0
 14 13  1  0
 15 14  1  0
 15 20  2  0
 16 15  1  0
 17 16  2  0
 17 18  1  0
 18 19  2  0
 19 20  1  0
 20 12  1  0
 21 10  1  0
 21 22  2  0
 23 24  1  0
 24 26  1  0
 25 24  2  0
 27 26  1  0
 28 29  1  0
 28 27  1  1
 29 21  1  0
 30 28  1  0
 31 30  2  0
 32 30  1  0
M  END
$$$$
