LWQ.pdb
     RDKit          3D

 32 33  0  0  1  0  0  0  0  0999 V2000
    8.5850  -14.0074   18.4286 C   0  0  0  0  0  0  0  0  0  0  0  0
    7.7465  -13.6223   19.6017 C   0  0  2  0  0  0  0  0  0  0  0  0
    7.4327  -12.1271   19.4713 C   0  0  0  0  0  0  0  0  0  0  0  0
    8.4075  -13.7932   20.9290 C   0  0  0  0  0  0  0  0  0  0  0  0
    8.7599  -15.2093   21.2842 C   0  0  2  0  0  0  0  0  0  0  0  0
    7.6746  -16.1338   21.1272 N   0  0  0  0  0  0  0  0  0  0  0  0
    9.3612  -15.3101   22.6422 C   0  0  0  0  0  0  0  0  0  0  0  0
   10.2858  -14.5313   22.9303 O   0  0  0  0  0  0  0  0  0  0  0  0
    8.9354  -16.2389   23.6089 N   0  0  0  0  0  0  0  0  0  0  0  0
    9.5199  -16.3278   24.9608 C   0  0  1  0  0  0  0  0  0  0  0  0
    8.3664  -16.4297   25.8868 C   0  0  0  0  0  0  0  0  0  0  0  0
    7.3358  -15.4049   25.8085 C   0  0  0  0  0  0  0  0  0  0  0  0
    6.0202  -15.5079   25.4100 C   0  0  0  0  0  0  0  0  0  0  0  0
    5.4497  -14.2961   25.4809 N   0  0  0  0  0  0  0  0  0  0  0  0
    6.3605  -13.3932   25.9182 C   0  0  0  0  0  0  0  0  0  0  0  0
    6.2829  -12.0192   26.1619 C   0  0  0  0  0  0  0  0  0  0  0  0
    7.3852  -11.3231   26.6136 C   0  0  0  0  0  0  0  0  0  0  0  0
    8.5666  -11.9940   26.8233 C   0  0  0  0  0  0  0  0  0  0  0  0
    8.6331  -13.3497   26.5800 C   0  0  0  0  0  0  0  0  0  0  0  0
    7.5261  -14.0728   26.1217 C   0  0  0  0  0  0  0  0  0  0  0  0
   10.5293  -17.3828   25.0185 C   0  0  0  0  0  0  0  0  0  0  0  0
   10.1238  -18.5777   25.2889 O   0  0  0  0  0  0  0  0  0  0  0  0
   16.0030  -17.3596   21.3569 N   0  0  0  0  0  0  0  0  0  0  0  0
   15.5456  -16.9305   22.6392 C   0  0  0  0  0  0  0  0  0  0  0  0
   16.3534  -16.3212   23.3569 O   0  0  0  0  0  0  0  0  0  0  0  0
   14.1429  -17.2455   23.0139 C   0  0  0  0  0  0  0  0  0  0  0  0
   14.1627  -18.0054   24.3158 C   0  0  0  0  0  0  0  0  0  0  0  0
   12.7786  -18.3127   24.8294 C   0  0  2  0  0  0  0  0  0  0  0  0
   11.9114  -17.1503   24.7895 N   0  0  0  0  0  0  0  0  0  0  0  0
   12.9153  -18.7659   26.2178 C   0  0  0  0  0  0  0  0  0  0  0  0
   13.5687  -19.7852   26.4961 O   0  0  0  0  0  0  0  0  0  0  0  0
   12.3120  -18.0552   27.2394 O   0  0  0  0  0  0  0  0  0  0  0  0
  2  3  1  6
  2  1  1  0
  4  2  1  0
  5  4  1  0
  5  6  1  1
  7  9  1  0
  7  5  1  0
  8  7  2  0
 10  9  1  0
 10 11  1  1
 12 11  1  0
 13 12  2  0
 14 13  1  0
 15 14  1  0
 15 20  2  0
 16 15  1  0
 17 16  2  0
 17 18  1  0
 18 19  2  0
 19 20  1  0
 20 12  1  0
 21 10  1  0
 21 22  2  0
 23 24  1  0
 24 26  1  0
 25 24  2  0
 27 26  1  0
 28 29  1  0
 28 27  1  1
 29 21  1  0
 30 28  1  0
 31 30  2  0
 32 30  1  0
M  END
$$$$
