QQV.pdb
     RDKit          3D

 26 25  0  0  1  0  0  0  0  0999 V2000
   42.4652  -13.3078  -15.6743 N   0  0  0  0  0  0  0  0  0  0  0  0
   42.3976  -11.9712  -15.1511 C   0  0  0  0  0  0  0  0  0  0  0  0
   42.9743  -11.0811  -15.8116 O   0  0  0  0  0  0  0  0  0  0  0  0
   41.6611  -11.7653  -13.8894 C   0  0  0  0  0  0  0  0  0  0  0  0
   41.8764  -12.8547  -12.8902 C   0  0  0  0  0  0  0  0  0  0  0  0
   42.8334  -12.3869  -11.8338 C   0  0  2  0  0  0  0  0  0  0  0  0
   43.7512  -13.4946  -11.5728 N   0  0  0  0  0  0  0  0  0  0  0  0
   42.1051  -12.1068  -10.5498 C   0  0  0  0  0  0  0  0  0  0  0  0
   41.2173  -12.8732  -10.1494 O   0  0  0  0  0  0  0  0  0  0  0  0
   44.7847  -10.5239   -5.6646 N   0  0  0  0  0  0  0  0  0  0  0  0
   43.4906  -10.4186   -5.1330 C   0  0  0  0  0  0  0  0  0  0  0  0
   43.2895  -10.3506   -3.9201 O   0  0  0  0  0  0  0  0  0  0  0  0
   42.3228  -10.3892   -6.0670 C   0  0  0  0  0  0  0  0  0  0  0  0
   42.7675  -10.7372   -7.4576 C   0  0  0  0  0  0  0  0  0  0  0  0
   41.7026  -10.7824   -8.4887 C   0  0  2  0  0  0  0  0  0  0  0  0
   42.4153  -10.9666   -9.7750 N   0  0  0  0  0  0  0  0  0  0  0  0
   41.0061   -9.4657   -8.6309 C   0  0  0  0  0  0  0  0  0  0  0  0
   41.5350   -8.5200   -9.2780 O   0  0  0  0  0  0  0  0  0  0  0  0
   37.1238   -8.8518   -6.9741 C   0  0  0  0  0  0  0  0  0  0  0  0
   37.5853   -8.1306   -8.2218 C   0  0  2  0  0  0  0  0  0  0  0  0
   37.2625   -8.9767   -9.4559 C   0  0  0  0  0  0  0  0  0  0  0  0
   39.1046   -7.9160   -8.1627 C   0  0  2  0  0  0  0  0  0  0  0  0
   39.7360   -9.2365   -8.0554 N   0  0  0  0  0  0  0  0  0  0  0  0
   39.4281   -7.0441   -7.0163 C   0  0  0  0  0  0  0  0  0  0  0  0
   39.7737   -7.5661   -5.9351 O   0  0  0  0  0  0  0  0  0  0  0  0
   39.3534   -5.6783   -7.1262 O   0  0  0  0  0  0  0  0  0  0  0  0
  1  2  1  0
  2  4  1  0
  2  3  2  0
  4  5  1  0
  5  6  1  0
  6  7  1  1
  6  8  1  0
  8  9  2  0
 11 12  2  0
 11 10  1  0
 13 11  1  0
 15 14  1  1
 14 13  1  0
 15 17  1  0
 16  8  1  0
 16 15  1  0
 17 18  2  0
 20 19  1  1
 20 22  1  0
 21 20  1  0
 22 24  1  0
 22 23  1  1
 23 17  1  0
 24 26  1  0
 25 24  2  0
M  END
$$$$
