QQV.pdb
     RDKit          3D

 26 25  0  0  1  0  0  0  0  0999 V2000
   14.4054  -11.8617  -17.2096 N   0  0  0  0  0  0  0  0  0  0  0  0
   14.3549  -12.7469  -16.0788 C   0  0  0  0  0  0  0  0  0  0  0  0
   13.7257  -13.8155  -16.2313 O   0  0  0  0  0  0  0  0  0  0  0  0
   15.0426  -12.3222  -14.8445 C   0  0  0  0  0  0  0  0  0  0  0  0
   15.6263  -10.9499  -14.9307 C   0  0  0  0  0  0  0  0  0  0  0  0
   17.1239  -11.0393  -14.9370 C   0  0  2  0  0  0  0  0  0  0  0  0
   17.4643  -12.4577  -14.8390 N   0  0  0  0  0  0  0  0  0  0  0  0
   17.6971  -10.3643  -13.7232 C   0  0  0  0  0  0  0  0  0  0  0  0
   17.9968  -11.0244  -12.7181 O   0  0  0  0  0  0  0  0  0  0  0  0
   21.6070   -6.0061  -14.0883 N   0  0  0  0  0  0  0  0  0  0  0  0
   21.5430   -6.0093  -12.6868 C   0  0  0  0  0  0  0  0  0  0  0  0
   22.3404   -5.3723  -11.9980 O   0  0  0  0  0  0  0  0  0  0  0  0
   20.4760   -6.8106  -12.0112 C   0  0  0  0  0  0  0  0  0  0  0  0
   19.6662   -7.5540  -13.0330 C   0  0  0  0  0  0  0  0  0  0  0  0
   18.5499   -8.3756  -12.5057 C   0  0  2  0  0  0  0  0  0  0  0  0
   17.9043   -8.9666  -13.7017 N   0  0  0  0  0  0  0  0  0  0  0  0
   17.4826   -7.5332  -11.8810 C   0  0  0  0  0  0  0  0  0  0  0  0
   16.7415   -6.7968  -12.5892 O   0  0  0  0  0  0  0  0  0  0  0  0
   14.6828   -8.5863   -9.8191 C   0  0  0  0  0  0  0  0  0  0  0  0
   15.3510   -7.5079   -8.9942 C   0  0  2  0  0  0  0  0  0  0  0  0
   14.2866   -6.6024   -8.3695 C   0  0  0  0  0  0  0  0  0  0  0  0
   16.2510   -6.6506   -9.8958 C   0  0  2  0  0  0  0  0  0  0  0  0
   17.2621   -7.5362  -10.4852 N   0  0  0  0  0  0  0  0  0  0  0  0
   16.8526   -5.5675   -9.0933 C   0  0  0  0  0  0  0  0  0  0  0  0
   16.1602   -4.5680   -8.8065 O   0  0  0  0  0  0  0  0  0  0  0  0
   18.1533   -5.6479   -8.6634 O   0  0  0  0  0  0  0  0  0  0  0  0
  1  2  1  0
  2  4  1  0
  2  3  2  0
  4  5  1  0
  5  6  1  0
  6  7  1  1
  6  8  1  0
  8  9  2  0
 11 12  2  0
 11 10  1  0
 13 11  1  0
 15 14  1  6
 14 13  1  0
 15 17  1  0
 16  8  1  0
 16 15  1  0
 17 18  2  0
 20 19  1  6
 20 22  1  0
 21 20  1  0
 22 24  1  0
 22 23  1  1
 23 17  1  0
 24 26  1  0
 25 24  2  0
M  END
$$$$
