QQV.pdb
     RDKit          3D

 26 25  0  0  1  0  0  0  0  0999 V2000
   25.5529  -24.6138  -15.0294 N   0  0  0  0  0  0  0  0  0  0  0  0
   26.5731  -23.6366  -15.2925 C   0  0  0  0  0  0  0  0  0  0  0  0
   27.4829  -23.9743  -16.0795 O   0  0  0  0  0  0  0  0  0  0  0  0
   26.4616  -22.3301  -14.6162 C   0  0  0  0  0  0  0  0  0  0  0  0
   25.2571  -22.2143  -13.7405 C   0  0  0  0  0  0  0  0  0  0  0  0
   24.1030  -21.6844  -14.5393 C   0  0  2  0  0  0  0  0  0  0  0  0
   24.4849  -20.3516  -15.0032 N   0  0  0  0  0  0  0  0  0  0  0  0
   22.8913  -21.5162  -13.6668 C   0  0  0  0  0  0  0  0  0  0  0  0
   22.3991  -22.4895  -13.0785 O   0  0  0  0  0  0  0  0  0  0  0  0
   19.1922  -20.4526  -10.5718 N   0  0  0  0  0  0  0  0  0  0  0  0
   20.3030  -20.1778   -9.7600 C   0  0  0  0  0  0  0  0  0  0  0  0
   20.3213  -20.4672   -8.5633 O   0  0  0  0  0  0  0  0  0  0  0  0
   21.4979  -19.5134  -10.3663 C   0  0  0  0  0  0  0  0  0  0  0  0
   21.1909  -19.0857  -11.7718 C   0  0  0  0  0  0  0  0  0  0  0  0
   21.0079  -20.1776  -12.7584 C   0  0  2  0  0  0  0  0  0  0  0  0
   22.2888  -20.2489  -13.5005 N   0  0  0  0  0  0  0  0  0  0  0  0
   19.9909  -19.8266  -13.7984 C   0  0  0  0  0  0  0  0  0  0  0  0
   20.1430  -18.8146  -14.5371 O   0  0  0  0  0  0  0  0  0  0  0  0
   16.3590  -21.2062  -16.7672 C   0  0  0  0  0  0  0  0  0  0  0  0
   17.3122  -21.5383  -15.6399 C   0  0  2  0  0  0  0  0  0  0  0  0
   16.5726  -22.3221  -14.5528 C   0  0  0  0  0  0  0  0  0  0  0  0
   17.8534  -20.2411  -15.0215 C   0  0  2  0  0  0  0  0  0  0  0  0
   18.8339  -20.6137  -13.9950 N   0  0  0  0  0  0  0  0  0  0  0  0
   16.7295  -19.4609  -14.4674 C   0  0  0  0  0  0  0  0  0  0  0  0
   16.4337  -19.5949  -13.2611 O   0  0  0  0  0  0  0  0  0  0  0  0
   16.0132  -18.5977  -15.2581 O   0  0  0  0  0  0  0  0  0  0  0  0
  1  2  1  0
  2  4  1  0
  2  3  2  0
  4  5  1  0
  5  6  1  0
  6  7  1  1
  6  8  1  0
  8  9  2  0
 11 12  2  0
 11 10  1  0
 13 11  1  0
 15 14  1  1
 14 13  1  0
 15 17  1  0
 16  8  1  0
 16 15  1  0
 17 18  2  0
 20 19  1  6
 20 22  1  0
 21 20  1  0
 22 24  1  0
 22 23  1  1
 23 17  1  0
 24 26  1  0
 25 24  2  0
M  END
$$$$
