QQV.pdb
     RDKit          3D

 26 25  0  0  1  0  0  0  0  0999 V2000
   28.8244  -22.8833  -16.8360 N   0  0  0  0  0  0  0  0  0  0  0  0
   29.7279  -22.3910  -17.8391 C   0  0  0  0  0  0  0  0  0  0  0  0
   30.4620  -23.2355  -18.3951 O   0  0  0  0  0  0  0  0  0  0  0  0
   29.7132  -20.9434  -18.1239 C   0  0  0  0  0  0  0  0  0  0  0  0
   28.8067  -20.1691  -17.2240 C   0  0  0  0  0  0  0  0  0  0  0  0
   27.3779  -20.4573  -17.5797 C   0  0  2  0  0  0  0  0  0  0  0  0
   27.1444  -19.8760  -18.9006 N   0  0  0  0  0  0  0  0  0  0  0  0
   26.4473  -19.7660  -16.6238 C   0  0  0  0  0  0  0  0  0  0  0  0
   26.7543  -18.6739  -16.1250 O   0  0  0  0  0  0  0  0  0  0  0  0
   20.4114  -18.8935  -15.8033 N   0  0  0  0  0  0  0  0  0  0  0  0
   21.1771  -17.8705  -16.3826 C   0  0  0  0  0  0  0  0  0  0  0  0
   20.6727  -16.8085  -16.7484 O   0  0  0  0  0  0  0  0  0  0  0  0
   22.6475  -18.0775  -16.5616 C   0  0  0  0  0  0  0  0  0  0  0  0
   23.0291  -19.4615  -16.1241 C   0  0  0  0  0  0  0  0  0  0  0  0
   24.3066  -19.5792  -15.3801 C   0  0  2  0  0  0  0  0  0  0  0  0
   25.2070  -20.3455  -16.2737 N   0  0  0  0  0  0  0  0  0  0  0  0
   24.1671  -20.4376  -14.1624 C   0  0  0  0  0  0  0  0  0  0  0  0
   23.8694  -21.6600  -14.2625 O   0  0  0  0  0  0  0  0  0  0  0  0
   26.5181  -20.3866  -10.9900 C   0  0  0  0  0  0  0  0  0  0  0  0
   25.0715  -20.2479  -10.5684 C   0  0  2  0  0  0  0  0  0  0  0  0
   24.8188  -21.0815   -9.3096 C   0  0  0  0  0  0  0  0  0  0  0  0
   24.1552  -20.7653  -11.6867 C   0  0  2  0  0  0  0  0  0  0  0  0
   24.3689  -19.9163  -12.8646 N   0  0  0  0  0  0  0  0  0  0  0  0
   22.7549  -20.7362  -11.2203 C   0  0  0  0  0  0  0  0  0  0  0  0
   22.1213  -19.6606  -11.2680 O   0  0  0  0  0  0  0  0  0  0  0  0
   22.1486  -21.8694  -10.7393 O   0  0  0  0  0  0  0  0  0  0  0  0
  1  2  1  0
  2  4  1  0
  2  3  2  0
  4  5  1  0
  5  6  1  0
  6  7  1  6
  6  8  1  0
  8  9  2  0
 11 12  2  0
 11 10  1  0
 13 11  1  0
 15 14  1  6
 14 13  1  0
 15 17  1  0
 16  8  1  0
 16 15  1  0
 17 18  2  0
 20 19  1  6
 20 22  1  0
 21 20  1  0
 22 24  1  0
 22 23  1  6
 23 17  1  0
 24 26  1  0
 25 24  2  0
M  END
$$$$
