QQV.pdb
     RDKit          3D

 26 25  0  0  1  0  0  0  0  0999 V2000
   10.7220  -12.5415   -9.6177 N   0  0  0  0  0  0  0  0  0  0  0  0
   10.9287  -13.4835  -10.6830 C   0  0  0  0  0  0  0  0  0  0  0  0
   10.0340  -14.3382  -10.8567 O   0  0  0  0  0  0  0  0  0  0  0  0
   12.1689  -13.3637  -11.4731 C   0  0  0  0  0  0  0  0  0  0  0  0
   13.0556  -12.2490  -11.0231 C   0  0  0  0  0  0  0  0  0  0  0  0
   14.2535  -12.1643  -11.9224 C   0  0  2  0  0  0  0  0  0  0  0  0
   14.9700  -13.4322  -11.7946 N   0  0  0  0  0  0  0  0  0  0  0  0
   15.1866  -11.0826  -11.4565 C   0  0  0  0  0  0  0  0  0  0  0  0
   15.9750  -11.2900  -10.5232 O   0  0  0  0  0  0  0  0  0  0  0  0
   18.4459   -8.0144  -15.0339 N   0  0  0  0  0  0  0  0  0  0  0  0
   18.7685   -7.2162  -13.9263 C   0  0  0  0  0  0  0  0  0  0  0  0
   19.6681   -6.3765  -13.9698 O   0  0  0  0  0  0  0  0  0  0  0  0
   17.9979   -7.3917  -12.6565 C   0  0  0  0  0  0  0  0  0  0  0  0
   16.9677   -8.4701  -12.8249 C   0  0  0  0  0  0  0  0  0  0  0  0
   16.1823   -8.8137  -11.6148 C   0  0  2  0  0  0  0  0  0  0  0  0
   15.1837   -9.8098  -12.0702 N   0  0  0  0  0  0  0  0  0  0  0  0
   15.3651   -7.6571  -11.1318 C   0  0  0  0  0  0  0  0  0  0  0  0
   14.4053   -7.2105  -11.8192 O   0  0  0  0  0  0  0  0  0  0  0  0
   15.7008   -6.3325   -7.2055 C   0  0  0  0  0  0  0  0  0  0  0  0
   14.4924   -5.9644   -8.0385 C   0  0  2  0  0  0  0  0  0  0  0  0
   13.4409   -7.0724   -7.9400 C   0  0  0  0  0  0  0  0  0  0  0  0
   14.9051   -5.8147   -9.5099 C   0  0  2  0  0  0  0  0  0  0  0  0
   15.6317   -7.0307   -9.8935 N   0  0  0  0  0  0  0  0  0  0  0  0
   15.7267   -4.5979   -9.6629 C   0  0  0  0  0  0  0  0  0  0  0  0
   16.9695   -4.7085   -9.7267 O   0  0  0  0  0  0  0  0  0  0  0  0
   15.1433   -3.3579   -9.7350 O   0  0  0  0  0  0  0  0  0  0  0  0
  1  2  1  0
  2  4  1  0
  2  3  2  0
  4  5  1  0
  5  6  1  0
  6  7  1  1
  6  8  1  0
  8  9  2  0
 11 12  2  0
 11 10  1  0
 13 11  1  0
 15 14  1  6
 14 13  1  0
 15 17  1  0
 16  8  1  0
 16 15  1  0
 17 18  2  0
 20 19  1  1
 20 22  1  0
 21 20  1  0
 22 24  1  0
 22 23  1  1
 23 17  1  0
 24 26  1  0
 25 24  2  0
M  END
$$$$
