QQV.pdb
     RDKit          3D

 26 25  0  0  1  0  0  0  0  0999 V2000
   17.0440  -17.1509  -15.0669 N   0  0  0  0  0  0  0  0  0  0  0  0
   15.9457  -16.8764  -15.9519 C   0  0  0  0  0  0  0  0  0  0  0  0
   14.9840  -17.6733  -15.9155 O   0  0  0  0  0  0  0  0  0  0  0  0
   16.0463  -15.6888  -16.8215 C   0  0  0  0  0  0  0  0  0  0  0  0
   17.3623  -14.9891  -16.7231 C   0  0  0  0  0  0  0  0  0  0  0  0
   17.2563  -13.8517  -15.7505 C   0  0  2  0  0  0  0  0  0  0  0  0
   15.8483  -13.4606  -15.7075 N   0  0  0  0  0  0  0  0  0  0  0  0
   18.0287  -12.6617  -16.2452 C   0  0  0  0  0  0  0  0  0  0  0  0
   19.1146  -12.8117  -16.8232 O   0  0  0  0  0  0  0  0  0  0  0  0
   15.5274   -7.2455  -17.3666 N   0  0  0  0  0  0  0  0  0  0  0  0
   16.8587   -6.8480  -17.5615 C   0  0  0  0  0  0  0  0  0  0  0  0
   17.1494   -5.7144  -17.9445 O   0  0  0  0  0  0  0  0  0  0  0  0
   17.9551   -7.8304  -17.2974 C   0  0  0  0  0  0  0  0  0  0  0  0
   17.3736   -9.1558  -16.9003 C   0  0  0  0  0  0  0  0  0  0  0  0
   18.3503  -10.2210  -16.5678 C   0  0  2  0  0  0  0  0  0  0  0  0
   17.5354  -11.3504  -16.0610 N   0  0  0  0  0  0  0  0  0  0  0  0
   19.2219   -9.8394  -15.4129 C   0  0  0  0  0  0  0  0  0  0  0  0
   18.7941   -9.9104  -14.2276 O   0  0  0  0  0  0  0  0  0  0  0  0
   23.3511   -9.5015  -15.8359 C   0  0  0  0  0  0  0  0  0  0  0  0
   22.6816   -9.7043  -14.4941 C   0  0  2  0  0  0  0  0  0  0  0  0
   22.3944  -11.1926  -14.2806 C   0  0  0  0  0  0  0  0  0  0  0  0
   21.3491   -8.9420  -14.4608 C   0  0  2  0  0  0  0  0  0  0  0  0
   20.5494   -9.3948  -15.6051 N   0  0  0  0  0  0  0  0  0  0  0  0
   21.6180   -7.4911  -14.5029 C   0  0  0  0  0  0  0  0  0  0  0  0
   21.4407   -6.8715  -15.5731 O   0  0  0  0  0  0  0  0  0  0  0  0
   22.0568   -6.8230  -13.3875 O   0  0  0  0  0  0  0  0  0  0  0  0
  1  2  1  0
  2  4  1  0
  2  3  2  0
  4  5  1  0
  5  6  1  0
  6  7  1  6
  6  8  1  0
  8  9  2  0
 11 12  2  0
 11 10  1  0
 13 11  1  0
 15 14  1  1
 14 13  1  0
 15 17  1  0
 16  8  1  0
 16 15  1  0
 17 18  2  0
 20 19  1  6
 20 22  1  0
 21 20  1  0
 22 24  1  0
 22 23  1  6
 23 17  1  0
 24 26  1  0
 25 24  2  0
M  END
$$$$
