QQV.pdb
     RDKit          3D

 26 25  0  0  1  0  0  0  0  0999 V2000
   15.9036  -14.4685  -14.9947 N   0  0  0  0  0  0  0  0  0  0  0  0
   16.9937  -13.9185  -14.2369 C   0  0  0  0  0  0  0  0  0  0  0  0
   17.8725  -14.7210  -13.8561 O   0  0  0  0  0  0  0  0  0  0  0  0
   16.9823  -12.4668  -13.9740 C   0  0  0  0  0  0  0  0  0  0  0  0
   15.7238  -11.7925  -14.4132 C   0  0  0  0  0  0  0  0  0  0  0  0
   14.8532  -11.5256  -13.2208 C   0  0  2  0  0  0  0  0  0  0  0  0
   13.5401  -12.0952  -13.5186 N   0  0  0  0  0  0  0  0  0  0  0  0
   14.6590  -10.0479  -13.0304 C   0  0  0  0  0  0  0  0  0  0  0  0
   13.7816   -9.4416  -13.6615 O   0  0  0  0  0  0  0  0  0  0  0  0
   15.2297   -6.9918   -7.8597 N   0  0  0  0  0  0  0  0  0  0  0  0
   13.9740   -7.3805   -8.3501 C   0  0  0  0  0  0  0  0  0  0  0  0
   12.9741   -7.4033   -7.6320 O   0  0  0  0  0  0  0  0  0  0  0  0
   13.8479   -7.7794   -9.7861 C   0  0  0  0  0  0  0  0  0  0  0  0
   15.1819   -7.6801  -10.4666 C   0  0  0  0  0  0  0  0  0  0  0  0
   15.1789   -7.8808  -11.9360 C   0  0  2  0  0  0  0  0  0  0  0  0
   15.4714   -9.3205  -12.1317 N   0  0  0  0  0  0  0  0  0  0  0  0
   16.3183   -7.1730  -12.5991 C   0  0  0  0  0  0  0  0  0  0  0  0
   17.4966   -7.6159  -12.5082 O   0  0  0  0  0  0  0  0  0  0  0  0
   15.6618   -4.8133  -15.8500 C   0  0  0  0  0  0  0  0  0  0  0  0
   17.0200   -5.3930  -15.5200 C   0  0  2  0  0  0  0  0  0  0  0  0
   17.0767   -6.8577  -15.9609 C   0  0  0  0  0  0  0  0  0  0  0  0
   17.2535   -5.3319  -14.0035 C   0  0  2  0  0  0  0  0  0  0  0  0
   16.1173   -5.9942  -13.3521 N   0  0  0  0  0  0  0  0  0  0  0  0
   17.3940   -3.9219  -13.5898 C   0  0  0  0  0  0  0  0  0  0  0  0
   16.3926   -3.3137  -13.1561 O   0  0  0  0  0  0  0  0  0  0  0  0
   18.6033   -3.2791  -13.6764 O   0  0  0  0  0  0  0  0  0  0  0  0
  1  2  1  0
  2  4  1  0
  2  3  2  0
  4  5  1  0
  5  6  1  0
  6  7  1  6
  6  8  1  0
  8  9  2  0
 11 12  2  0
 11 10  1  0
 13 11  1  0
 15 14  1  1
 14 13  1  0
 15 17  1  0
 16  8  1  0
 16 15  1  0
 17 18  2  0
 20 19  1  1
 20 22  1  0
 21 20  1  0
 22 24  1  0
 22 23  1  1
 23 17  1  0
 24 26  1  0
 25 24  2  0
M  END
$$$$
