QQV.pdb
     RDKit          3D

 26 25  0  0  1  0  0  0  0  0999 V2000
   14.0458   -8.3988  -16.6763 N   0  0  0  0  0  0  0  0  0  0  0  0
   13.3083   -9.5589  -16.2575 C   0  0  0  0  0  0  0  0  0  0  0  0
   12.1157   -9.6270  -16.6238 O   0  0  0  0  0  0  0  0  0  0  0  0
   14.0148  -10.5610  -15.4370 C   0  0  0  0  0  0  0  0  0  0  0  0
   15.4373  -10.2030  -15.1547 C   0  0  0  0  0  0  0  0  0  0  0  0
   16.3413  -10.9678  -16.0760 C   0  0  2  0  0  0  0  0  0  0  0  0
   16.3859  -12.3427  -15.5811 N   0  0  0  0  0  0  0  0  0  0  0  0
   17.7422  -10.4292  -16.0063 C   0  0  0  0  0  0  0  0  0  0  0  0
   18.5343  -10.8439  -15.1482 O   0  0  0  0  0  0  0  0  0  0  0  0
   21.9338  -10.5122  -18.6748 N   0  0  0  0  0  0  0  0  0  0  0  0
   22.3384   -9.1700  -18.7303 C   0  0  0  0  0  0  0  0  0  0  0  0
   23.4968   -8.8507  -18.9989 O   0  0  0  0  0  0  0  0  0  0  0  0
   21.3334   -8.0974  -18.4540 C   0  0  0  0  0  0  0  0  0  0  0  0
   19.9752   -8.7041  -18.2545 C   0  0  0  0  0  0  0  0  0  0  0  0
   19.6052   -9.0242  -16.8546 C   0  0  2  0  0  0  0  0  0  0  0  0
   18.1841   -9.4406  -16.9142 N   0  0  0  0  0  0  0  0  0  0  0  0
   19.6032   -7.8067  -15.9846 C   0  0  0  0  0  0  0  0  0  0  0  0
   18.6752   -6.9551  -16.0649 O   0  0  0  0  0  0  0  0  0  0  0  0
   21.0695   -5.4451  -11.9677 C   0  0  0  0  0  0  0  0  0  0  0  0
   21.0043   -6.6992  -12.8119 C   0  0  2  0  0  0  0  0  0  0  0  0
   22.3704   -7.3896  -12.8167 C   0  0  0  0  0  0  0  0  0  0  0  0
   20.6402   -6.3308  -14.2575 C   0  0  2  0  0  0  0  0  0  0  0  0
   20.6298   -7.5707  -15.0427 N   0  0  0  0  0  0  0  0  0  0  0  0
   21.6170   -5.3499  -14.7699 C   0  0  0  0  0  0  0  0  0  0  0  0
   22.5903   -5.7554  -15.4399 O   0  0  0  0  0  0  0  0  0  0  0  0
   21.4671   -4.0090  -14.5193 O   0  0  0  0  0  0  0  0  0  0  0  0
  1  2  1  0
  2  4  1  0
  2  3  2  0
  4  5  1  0
  5  6  1  0
  6  7  1  1
  6  8  1  0
  8  9  2  0
 11 12  2  0
 11 10  1  0
 13 11  1  0
 15 14  1  6
 14 13  1  0
 15 17  1  0
 16  8  1  0
 16 15  1  0
 17 18  2  0
 20 19  1  1
 20 22  1  0
 21 20  1  0
 22 24  1  0
 22 23  1  6
 23 17  1  0
 24 26  1  0
 25 24  2  0
M  END
$$$$
