QVF.pdb
     RDKit          3D

 28 28  0  0  1  0  0  0  0  0999 V2000
    4.3911  -22.2532   22.5954 N   0  0  0  0  0  0  0  0  0  0  0  0
    4.8504  -21.1730   23.3908 C   0  0  0  0  0  0  0  0  0  0  0  0
    5.6099  -21.4312   24.3506 O   0  0  0  0  0  0  0  0  0  0  0  0
    4.4354  -19.8082   23.0768 C   0  0  0  0  0  0  0  0  0  0  0  0
    5.5895  -18.8709   22.8899 C   0  0  0  0  0  0  0  0  0  0  0  0
    5.8153  -18.4450   21.4668 C   0  0  2  0  0  0  0  0  0  0  0  0
    6.1914  -19.5863   20.6566 N   0  0  0  0  0  0  0  0  0  0  0  0
    6.8936  -17.4176   21.4932 C   0  0  0  0  0  0  0  0  0  0  0  0
    8.0919  -17.7765   21.6131 O   0  0  0  0  0  0  0  0  0  0  0  0
    8.2864  -12.7012   20.9701 C   0  0  0  0  0  0  0  0  0  0  0  0
    7.1424  -13.7013   20.8667 C   0  0  1  0  0  0  0  0  0  0  0  0
    6.7480  -13.8038   19.4292 C   0  0  0  0  0  0  0  0  0  0  0  0
    7.6760  -15.0155   21.4111 C   0  0  2  0  0  0  0  0  0  0  0  0
    6.6209  -16.0351   21.3874 N   0  0  0  0  0  0  0  0  0  0  0  0
    8.1111  -14.8376   22.8217 C   0  0  0  0  0  0  0  0  0  0  0  0
    7.3714  -14.2686   23.6603 O   0  0  0  0  0  0  0  0  0  0  0  0
    9.3549  -15.2937   23.2711 N   0  0  0  0  0  0  0  0  0  0  0  0
    9.9033  -15.0817   24.5883 C   0  0  1  0  0  0  0  0  0  0  0  0
    8.9895  -15.3780   25.6962 C   0  0  0  0  0  0  0  0  0  0  0  0
    9.4550  -14.7171   26.9284 C   0  0  0  0  0  0  0  0  0  0  0  0
   10.1839  -15.4675   27.8248 C   0  0  0  0  0  0  0  0  0  0  0  0
   10.6882  -14.9435   28.9862 C   0  0  0  0  0  0  0  0  0  0  0  0
   10.4422  -13.6070   29.2454 C   0  0  0  0  0  0  0  0  0  0  0  0
    9.7219  -12.8221   28.3819 C   0  0  0  0  0  0  0  0  0  0  0  0
    9.2285  -13.3876   27.2181 C   0  0  0  0  0  0  0  0  0  0  0  0
   11.1565  -15.8378   24.6897 C   0  0  0  0  0  0  0  0  0  0  0  0
   11.3322  -17.1851   24.4286 O   0  0  0  0  0  0  0  0  0  0  0  0
   12.2271  -15.2355   25.0561 O   0  0  0  0  0  0  0  0  0  0  0  0
  2  1  1  0
  2  3  2  0
  4  2  1  0
  5  4  1  0
  5  6  1  0
  6  8  1  0
  6  7  1  6
  8  9  2  0
 11 13  1  0
 11 10  1  6
 12 11  1  0
 13 14  1  1
 14  8  1  0
 15 17  1  0
 15 13  1  0
 16 15  2  0
 18 26  1  0
 18 17  1  0
 18 19  1  1
 20 19  1  0
 21 20  2  0
 22 21  1  0
 23 24  1  0
 23 22  2  0
 24 25  2  0
 25 20  1  0
 26 27  1  0
 28 26  2  0
M  END
$$$$
