QVF.pdb
     RDKit          3D

 28 28  0  0  1  0  0  0  0  0999 V2000
   14.3090  -19.5453   20.6776 N   0  0  0  0  0  0  0  0  0  0  0  0
   14.1998  -19.4867   19.2652 C   0  0  0  0  0  0  0  0  0  0  0  0
   15.1895  -19.8348   18.5841 O   0  0  0  0  0  0  0  0  0  0  0  0
   12.9567  -19.0308   18.6483 C   0  0  0  0  0  0  0  0  0  0  0  0
   11.8777  -18.7384   19.6462 C   0  0  0  0  0  0  0  0  0  0  0  0
   10.6361  -18.1337   19.0542 C   0  0  2  0  0  0  0  0  0  0  0  0
   10.9283  -17.5625   17.7548 N   0  0  0  0  0  0  0  0  0  0  0  0
   10.1673  -17.0941   20.0126 C   0  0  0  0  0  0  0  0  0  0  0  0
   10.7637  -15.9897   20.0731 O   0  0  0  0  0  0  0  0  0  0  0  0
    6.4252  -15.2310   22.5396 C   0  0  0  0  0  0  0  0  0  0  0  0
    6.9566  -16.2522   21.5424 C   0  0  1  0  0  0  0  0  0  0  0  0
    6.4989  -15.8470   20.1791 C   0  0  0  0  0  0  0  0  0  0  0  0
    8.4702  -16.2252   21.6720 C   0  0  2  0  0  0  0  0  0  0  0  0
    9.0630  -17.3013   20.8695 N   0  0  0  0  0  0  0  0  0  0  0  0
    8.8590  -16.4425   23.0905 C   0  0  0  0  0  0  0  0  0  0  0  0
    9.0554  -17.5981   23.5379 O   0  0  0  0  0  0  0  0  0  0  0  0
    9.0214  -15.3756   23.9807 N   0  0  0  0  0  0  0  0  0  0  0  0
    9.5950  -15.4614   25.3015 C   0  0  1  0  0  0  0  0  0  0  0  0
    9.8958  -14.1725   25.9326 C   0  0  0  0  0  0  0  0  0  0  0  0
    8.6671  -13.3681   26.0543 C   0  0  0  0  0  0  0  0  0  0  0  0
    8.2921  -12.5991   24.9746 C   0  0  0  0  0  0  0  0  0  0  0  0
    7.1531  -11.8373   24.9722 C   0  0  0  0  0  0  0  0  0  0  0  0
    6.3663  -11.8584   26.1100 C   0  0  0  0  0  0  0  0  0  0  0  0
    6.7004  -12.6090   27.2079 C   0  0  0  0  0  0  0  0  0  0  0  0
    7.8593  -13.3661   27.1726 C   0  0  0  0  0  0  0  0  0  0  0  0
    8.7121  -16.2891   26.1310 C   0  0  0  0  0  0  0  0  0  0  0  0
    7.4548  -16.7549   25.7898 O   0  0  0  0  0  0  0  0  0  0  0  0
    9.0971  -16.6421   27.3017 O   0  0  0  0  0  0  0  0  0  0  0  0
  2  1  1  0
  2  3  2  0
  4  2  1  0
  5  4  1  0
  5  6  1  0
  6  8  1  0
  6  7  1  6
  8  9  2  0
 11 13  1  0
 11 10  1  1
 12 11  1  0
 13 14  1  6
 14  8  1  0
 15 17  1  0
 15 13  1  0
 16 15  2  0
 18 26  1  0
 18 17  1  0
 18 19  1  1
 20 19  1  0
 21 20  2  0
 22 21  1  0
 23 24  1  0
 23 22  2  0
 24 25  2  0
 25 20  1  0
 26 27  1  0
 28 26  2  0
M  END
$$$$
