QVF.pdb
     RDKit          3D

 28 28  0  0  1  0  0  0  0  0999 V2000
   10.4768  -18.7457   15.7274 N   0  0  0  0  0  0  0  0  0  0  0  0
    9.2546  -18.9114   16.4266 C   0  0  0  0  0  0  0  0  0  0  0  0
    8.1902  -18.6713   15.8150 O   0  0  0  0  0  0  0  0  0  0  0  0
    9.2652  -19.3519   17.8193 C   0  0  0  0  0  0  0  0  0  0  0  0
    9.9653  -18.3934   18.7339 C   0  0  0  0  0  0  0  0  0  0  0  0
    9.3901  -18.3305   20.1205 C   0  0  2  0  0  0  0  0  0  0  0  0
    7.9684  -18.6092   20.0857 N   0  0  0  0  0  0  0  0  0  0  0  0
    9.6632  -16.9596   20.6357 C   0  0  0  0  0  0  0  0  0  0  0  0
   10.8275  -16.4913   20.5708 O   0  0  0  0  0  0  0  0  0  0  0  0
    7.4126  -13.8693   19.9439 C   0  0  0  0  0  0  0  0  0  0  0  0
    7.6455  -13.9344   21.4476 C   0  0  1  0  0  0  0  0  0  0  0  0
    6.4400  -14.5557   22.0746 C   0  0  0  0  0  0  0  0  0  0  0  0
    8.8952  -14.7749   21.6484 C   0  0  2  0  0  0  0  0  0  0  0  0
    8.6521  -16.1518   21.2029 N   0  0  0  0  0  0  0  0  0  0  0  0
    9.2496  -14.8149   23.0917 C   0  0  0  0  0  0  0  0  0  0  0  0
   10.1168  -14.0426   23.5669 O   0  0  0  0  0  0  0  0  0  0  0  0
    8.6359  -15.7090   23.9756 N   0  0  0  0  0  0  0  0  0  0  0  0
    8.8934  -15.8025   25.3918 C   0  0  1  0  0  0  0  0  0  0  0  0
    7.7185  -15.6193   26.2499 C   0  0  0  0  0  0  0  0  0  0  0  0
    7.4810  -14.1840   26.4851 C   0  0  0  0  0  0  0  0  0  0  0  0
    8.5572  -13.4053   26.8501 C   0  0  0  0  0  0  0  0  0  0  0  0
    8.4518  -12.0560   27.0644 C   0  0  0  0  0  0  0  0  0  0  0  0
    7.2058  -11.4773   26.9015 C   0  0  0  0  0  0  0  0  0  0  0  0
    6.1070  -12.2132   26.5391 C   0  0  0  0  0  0  0  0  0  0  0  0
    6.2531  -13.5745   26.3312 C   0  0  0  0  0  0  0  0  0  0  0  0
    9.5720  -17.0774   25.6505 C   0  0  0  0  0  0  0  0  0  0  0  0
   10.1451  -17.4814   26.8432 O   0  0  0  0  0  0  0  0  0  0  0  0
    9.6736  -17.9391   24.7070 O   0  0  0  0  0  0  0  0  0  0  0  0
  2  1  1  0
  2  3  2  0
  4  2  1  0
  5  4  1  0
  5  6  1  0
  6  8  1  0
  6  7  1  6
  8  9  2  0
 11 13  1  0
 11 10  1  6
 12 11  1  0
 13 14  1  1
 14  8  1  0
 15 17  1  0
 15 13  1  0
 16 15  2  0
 18 26  1  0
 18 17  1  0
 18 19  1  1
 20 19  1  0
 21 20  2  0
 22 21  1  0
 23 24  1  0
 23 22  2  0
 24 25  2  0
 25 20  1  0
 26 27  1  0
 28 26  2  0
M  END
$$$$
