QVF.pdb
     RDKit          3D

 28 28  0  0  1  0  0  0  0  0999 V2000
    5.6209  -20.8459   21.4125 N   0  0  0  0  0  0  0  0  0  0  0  0
    6.9727  -21.2375   21.2406 C   0  0  0  0  0  0  0  0  0  0  0  0
    7.3289  -22.3416   21.7083 O   0  0  0  0  0  0  0  0  0  0  0  0
    7.9017  -20.3598   20.5335 C   0  0  0  0  0  0  0  0  0  0  0  0
    7.2582  -19.1016   20.0350 C   0  0  0  0  0  0  0  0  0  0  0  0
    8.1689  -18.2193   19.2290 C   0  0  2  0  0  0  0  0  0  0  0  0
    9.3000  -18.9818   18.7394 N   0  0  0  0  0  0  0  0  0  0  0  0
    8.6055  -17.1168   20.1307 C   0  0  0  0  0  0  0  0  0  0  0  0
    9.7233  -17.1853   20.7008 O   0  0  0  0  0  0  0  0  0  0  0  0
    7.9628  -12.5366   21.8521 C   0  0  0  0  0  0  0  0  0  0  0  0
    7.4184  -13.6304   20.9428 C   0  0  1  0  0  0  0  0  0  0  0  0
    7.5774  -13.1759   19.5284 C   0  0  0  0  0  0  0  0  0  0  0  0
    8.2348  -14.8767   21.2410 C   0  0  2  0  0  0  0  0  0  0  0  0
    7.8028  -15.9800   20.3753 N   0  0  0  0  0  0  0  0  0  0  0  0
    8.0246  -15.2915   22.6532 C   0  0  0  0  0  0  0  0  0  0  0  0
    6.9666  -15.8646   23.0087 O   0  0  0  0  0  0  0  0  0  0  0  0
    8.9904  -15.0622   23.6390 N   0  0  0  0  0  0  0  0  0  0  0  0
    8.8097  -15.2601   25.0564 C   0  0  1  0  0  0  0  0  0  0  0  0
    7.4354  -15.0859   25.5373 C   0  0  0  0  0  0  0  0  0  0  0  0
    7.1967  -13.6753   25.8910 C   0  0  0  0  0  0  0  0  0  0  0  0
    8.2852  -12.8326   25.9448 C   0  0  0  0  0  0  0  0  0  0  0  0
    8.1707  -11.4983   26.2352 C   0  0  0  0  0  0  0  0  0  0  0  0
    6.9025  -11.0028   26.4798 C   0  0  0  0  0  0  0  0  0  0  0  0
    5.7907  -11.8044   26.4371 C   0  0  0  0  0  0  0  0  0  0  0  0
    5.9465  -13.1480   26.1400 C   0  0  0  0  0  0  0  0  0  0  0  0
    9.3545  -16.5762   25.4080 C   0  0  0  0  0  0  0  0  0  0  0  0
    9.9065  -17.5010   24.5394 O   0  0  0  0  0  0  0  0  0  0  0  0
    9.3388  -16.9574   26.6318 O   0  0  0  0  0  0  0  0  0  0  0  0
  2  1  1  0
  2  3  2  0
  4  2  1  0
  5  4  1  0
  5  6  1  0
  6  8  1  0
  6  7  1  1
  8  9  2  0
 11 13  1  0
 11 10  1  1
 12 11  1  0
 13 14  1  6
 14  8  1  0
 15 17  1  0
 15 13  1  0
 16 15  2  0
 18 26  1  0
 18 17  1  0
 18 19  1  6
 20 19  1  0
 21 20  2  0
 22 21  1  0
 23 24  1  0
 23 22  2  0
 24 25  2  0
 25 20  1  0
 26 27  1  0
 28 26  2  0
M  END
$$$$
