QVF.pdb
     RDKit          3D

 28 28  0  0  1  0  0  0  0  0999 V2000
   13.1609  -20.5796   19.6884 N   0  0  0  0  0  0  0  0  0  0  0  0
   12.6079  -20.3936   18.3962 C   0  0  0  0  0  0  0  0  0  0  0  0
   12.5646  -21.3797   17.6278 O   0  0  0  0  0  0  0  0  0  0  0  0
   12.1093  -19.0794   17.9988 C   0  0  0  0  0  0  0  0  0  0  0  0
   11.3720  -18.3737   19.0960 C   0  0  0  0  0  0  0  0  0  0  0  0
   10.2951  -17.4419   18.6167 C   0  0  2  0  0  0  0  0  0  0  0  0
   10.7166  -16.7723   17.4025 N   0  0  0  0  0  0  0  0  0  0  0  0
   10.0499  -16.4686   19.7176 C   0  0  0  0  0  0  0  0  0  0  0  0
   11.0224  -15.9940   20.3563 O   0  0  0  0  0  0  0  0  0  0  0  0
    7.0398  -13.2566   21.9037 C   0  0  0  0  0  0  0  0  0  0  0  0
    7.2593  -14.2297   20.7529 C   0  0  1  0  0  0  0  0  0  0  0  0
    7.4371  -13.4321   19.5020 C   0  0  0  0  0  0  0  0  0  0  0  0
    8.5014  -15.0310   21.1046 C   0  0  2  0  0  0  0  0  0  0  0  0
    8.7493  -16.0506   20.0789 N   0  0  0  0  0  0  0  0  0  0  0  0
    8.3022  -15.7256   22.4040 C   0  0  0  0  0  0  0  0  0  0  0  0
    7.8360  -16.8895   22.4509 O   0  0  0  0  0  0  0  0  0  0  0  0
    8.6239  -15.1158   23.6213 N   0  0  0  0  0  0  0  0  0  0  0  0
    8.5656  -15.7438   24.9186 C   0  0  1  0  0  0  0  0  0  0  0  0
    8.9161  -14.8738   26.0458 C   0  0  0  0  0  0  0  0  0  0  0  0
    7.9006  -13.8181   26.2067 C   0  0  0  0  0  0  0  0  0  0  0  0
    7.2213  -13.7561   27.4036 C   0  0  0  0  0  0  0  0  0  0  0  0
    6.2789  -12.7970   27.6675 C   0  0  0  0  0  0  0  0  0  0  0  0
    6.0176  -11.8666   26.6775 C   0  0  0  0  0  0  0  0  0  0  0  0
    6.6693  -11.8899   25.4712 C   0  0  0  0  0  0  0  0  0  0  0  0
    7.6155  -12.8746   25.2415 C   0  0  0  0  0  0  0  0  0  0  0  0
    7.2361  -16.3438   25.0774 C   0  0  0  0  0  0  0  0  0  0  0  0
    6.8773  -17.3311   25.9777 O   0  0  0  0  0  0  0  0  0  0  0  0
    6.2741  -15.9497   24.3274 O   0  0  0  0  0  0  0  0  0  0  0  0
  2  1  1  0
  2  3  2  0
  4  2  1  0
  5  4  1  0
  5  6  1  0
  6  8  1  0
  6  7  1  6
  8  9  2  0
 11 13  1  0
 11 10  1  1
 12 11  1  0
 13 14  1  6
 14  8  1  0
 15 17  1  0
 15 13  1  0
 16 15  2  0
 18 26  1  0
 18 17  1  0
 18 19  1  1
 20 19  1  0
 21 20  2  0
 22 21  1  0
 23 24  1  0
 23 22  2  0
 24 25  2  0
 25 20  1  0
 26 27  1  0
 28 26  2  0
M  END
$$$$
