QVF.pdb
     RDKit          3D

 28 28  0  0  1  0  0  0  0  0999 V2000
    6.3643  -21.8940   20.9391 N   0  0  0  0  0  0  0  0  0  0  0  0
    7.3672  -21.6311   19.9720 C   0  0  0  0  0  0  0  0  0  0  0  0
    8.2973  -22.4585   19.8499 O   0  0  0  0  0  0  0  0  0  0  0  0
    7.2927  -20.4231   19.1542 C   0  0  0  0  0  0  0  0  0  0  0  0
    7.9497  -19.2382   19.7944 C   0  0  0  0  0  0  0  0  0  0  0  0
    7.8917  -17.9812   18.9733 C   0  0  2  0  0  0  0  0  0  0  0  0
    8.5947  -18.1692   17.7200 N   0  0  0  0  0  0  0  0  0  0  0  0
    8.5179  -16.9056   19.7920 C   0  0  0  0  0  0  0  0  0  0  0  0
    9.7677  -16.7756   19.7972 O   0  0  0  0  0  0  0  0  0  0  0  0
    8.4860  -12.5220   21.7284 C   0  0  0  0  0  0  0  0  0  0  0  0
    7.7078  -13.5993   20.9844 C   0  0  1  0  0  0  0  0  0  0  0  0
    7.8029  -13.3098   19.5217 C   0  0  0  0  0  0  0  0  0  0  0  0
    8.3570  -14.9230   21.3515 C   0  0  2  0  0  0  0  0  0  0  0  0
    7.7531  -16.0119   20.5750 N   0  0  0  0  0  0  0  0  0  0  0  0
    8.1366  -15.2101   22.7936 C   0  0  0  0  0  0  0  0  0  0  0  0
    7.0076  -15.5535   23.2199 O   0  0  0  0  0  0  0  0  0  0  0  0
    9.1710  -15.1104   23.7302 N   0  0  0  0  0  0  0  0  0  0  0  0
    9.0766  -15.4537   25.1281 C   0  0  1  0  0  0  0  0  0  0  0  0
    7.7167  -15.4544   25.6767 C   0  0  0  0  0  0  0  0  0  0  0  0
    7.3523  -14.1008   26.1312 C   0  0  0  0  0  0  0  0  0  0  0  0
    6.0368  -13.7121   26.0045 C   0  0  0  0  0  0  0  0  0  0  0  0
    5.5866  -12.4871   26.4220 C   0  0  0  0  0  0  0  0  0  0  0  0
    6.5084  -11.6255   26.9893 C   0  0  0  0  0  0  0  0  0  0  0  0
    7.8277  -11.9699   27.1355 C   0  0  0  0  0  0  0  0  0  0  0  0
    8.2449  -13.2170   26.7016 C   0  0  0  0  0  0  0  0  0  0  0  0
    9.7538  -16.7395   25.3305 C   0  0  0  0  0  0  0  0  0  0  0  0
    9.3503  -17.9712   24.8464 O   0  0  0  0  0  0  0  0  0  0  0  0
   10.8325  -16.7807   26.0217 O   0  0  0  0  0  0  0  0  0  0  0  0
  2  1  1  0
  2  3  2  0
  4  2  1  0
  5  4  1  0
  5  6  1  0
  6  8  1  0
  6  7  1  6
  8  9  2  0
 11 13  1  0
 11 10  1  1
 12 11  1  0
 13 14  1  6
 14  8  1  0
 15 17  1  0
 15 13  1  0
 16 15  2  0
 18 26  1  0
 18 17  1  0
 18 19  1  6
 20 19  1  0
 21 20  2  0
 22 21  1  0
 23 24  1  0
 23 22  2  0
 24 25  2  0
 25 20  1  0
 26 27  1  0
 28 26  2  0
M  END
$$$$
