QVF.pdb
     RDKit          3D

 28 28  0  0  1  0  0  0  0  0999 V2000
   13.1508  -13.4617   19.2736 N   0  0  0  0  0  0  0  0  0  0  0  0
   12.3467  -14.4214   19.9389 C   0  0  0  0  0  0  0  0  0  0  0  0
   12.6770  -15.6249   19.8546 O   0  0  0  0  0  0  0  0  0  0  0  0
   11.1731  -13.9914   20.6947 C   0  0  0  0  0  0  0  0  0  0  0  0
   10.1979  -13.2069   19.8706 C   0  0  0  0  0  0  0  0  0  0  0  0
    9.0318  -14.0080   19.3646 C   0  0  2  0  0  0  0  0  0  0  0  0
    8.1122  -13.1518   18.6424 N   0  0  0  0  0  0  0  0  0  0  0  0
    8.3825  -14.6197   20.5577 C   0  0  0  0  0  0  0  0  0  0  0  0
    7.5879  -13.9373   21.2518 O   0  0  0  0  0  0  0  0  0  0  0  0
    6.9805  -18.6880   22.9195 C   0  0  0  0  0  0  0  0  0  0  0  0
    7.7637  -18.0995   21.7534 C   0  0  1  0  0  0  0  0  0  0  0  0
    7.0001  -18.3754   20.4991 C   0  0  0  0  0  0  0  0  0  0  0  0
    7.8899  -16.6116   22.0336 C   0  0  2  0  0  0  0  0  0  0  0  0
    8.6268  -15.9559   20.9473 N   0  0  0  0  0  0  0  0  0  0  0  0
    8.6462  -16.3984   23.2958 C   0  0  0  0  0  0  0  0  0  0  0  0
    9.9004  -16.4307   23.3121 O   0  0  0  0  0  0  0  0  0  0  0  0
    7.9967  -16.1545   24.5106 N   0  0  0  0  0  0  0  0  0  0  0  0
    8.6373  -16.0282   25.7969 C   0  0  1  0  0  0  0  0  0  0  0  0
    7.7792  -15.5165   26.8702 C   0  0  0  0  0  0  0  0  0  0  0  0
    7.3391  -14.1452   26.5577 C   0  0  0  0  0  0  0  0  0  0  0  0
    8.2709  -13.1345   26.6476 C   0  0  0  0  0  0  0  0  0  0  0  0
    7.9742  -11.8299   26.3512 C   0  0  0  0  0  0  0  0  0  0  0  0
    6.6822  -11.5427   25.9486 C   0  0  0  0  0  0  0  0  0  0  0  0
    5.7223  -12.5164   25.8448 C   0  0  0  0  0  0  0  0  0  0  0  0
    6.0602  -13.8236   26.1528 C   0  0  0  0  0  0  0  0  0  0  0  0
    9.2361  -17.3231   26.1393 C   0  0  0  0  0  0  0  0  0  0  0  0
    8.9155  -18.5525   25.5915 O   0  0  0  0  0  0  0  0  0  0  0  0
   10.1528  -17.3758   27.0337 O   0  0  0  0  0  0  0  0  0  0  0  0
  2  1  1  0
  2  3  2  0
  4  2  1  0
  5  4  1  0
  5  6  1  0
  6  8  1  0
  6  7  1  1
  8  9  2  0
 11 13  1  0
 11 10  1  1
 12 11  1  0
 13 14  1  6
 14  8  1  0
 15 17  1  0
 15 13  1  0
 16 15  2  0
 18 26  1  0
 18 17  1  0
 18 19  1  1
 20 19  1  0
 21 20  2  0
 22 21  1  0
 23 24  1  0
 23 22  2  0
 24 25  2  0
 25 20  1  0
 26 27  1  0
 28 26  2  0
M  END
$$$$
