QVF.pdb
     RDKit          3D

 28 28  0  0  1  0  0  0  0  0999 V2000
   13.5176  -20.2979   21.7891 N   0  0  0  0  0  0  0  0  0  0  0  0
   13.5778  -20.4487   20.3806 C   0  0  0  0  0  0  0  0  0  0  0  0
   14.1276  -21.4744   19.9222 O   0  0  0  0  0  0  0  0  0  0  0  0
   13.0060  -19.4226   19.5123 C   0  0  0  0  0  0  0  0  0  0  0  0
   12.3518  -18.3081   20.2709 C   0  0  0  0  0  0  0  0  0  0  0  0
   11.1820  -17.6834   19.5646 C   0  0  2  0  0  0  0  0  0  0  0  0
   11.6112  -17.0895   18.3143 N   0  0  0  0  0  0  0  0  0  0  0  0
   10.6209  -16.6589   20.4891 C   0  0  0  0  0  0  0  0  0  0  0  0
   11.2783  -15.6166   20.7353 O   0  0  0  0  0  0  0  0  0  0  0  0
    6.7661  -14.5937   22.6586 C   0  0  0  0  0  0  0  0  0  0  0  0
    7.3074  -15.5934   21.6450 C   0  0  1  0  0  0  0  0  0  0  0  0
    7.1107  -15.0185   20.2800 C   0  0  0  0  0  0  0  0  0  0  0  0
    8.7765  -15.7863   21.9810 C   0  0  2  0  0  0  0  0  0  0  0  0
    9.3610  -16.8127   21.1102 N   0  0  0  0  0  0  0  0  0  0  0  0
    8.9161  -16.2444   23.3885 C   0  0  0  0  0  0  0  0  0  0  0  0
    8.9346  -17.4663   23.6727 O   0  0  0  0  0  0  0  0  0  0  0  0
    9.0321  -15.3391   24.4488 N   0  0  0  0  0  0  0  0  0  0  0  0
    9.3226  -15.6814   25.8197 C   0  0  1  0  0  0  0  0  0  0  0  0
    9.5624  -14.5392   26.7073 C   0  0  0  0  0  0  0  0  0  0  0  0
    8.4634  -13.5647   26.5884 C   0  0  0  0  0  0  0  0  0  0  0  0
    8.5769  -12.5808   25.6308 C   0  0  0  0  0  0  0  0  0  0  0  0
    7.6004  -11.6435   25.4176 C   0  0  0  0  0  0  0  0  0  0  0  0
    6.4665  -11.7091   26.2074 C   0  0  0  0  0  0  0  0  0  0  0  0
    6.3105  -12.6708   27.1724 C   0  0  0  0  0  0  0  0  0  0  0  0
    7.3193  -13.6011   27.3583 C   0  0  0  0  0  0  0  0  0  0  0  0
    8.2458  -16.5472   26.3134 C   0  0  0  0  0  0  0  0  0  0  0  0
    8.2990  -17.3879   27.4109 O   0  0  0  0  0  0  0  0  0  0  0  0
    7.1210  -16.5654   25.6988 O   0  0  0  0  0  0  0  0  0  0  0  0
  2  1  1  0
  2  3  2  0
  4  2  1  0
  5  4  1  0
  5  6  1  0
  6  8  1  0
  6  7  1  6
  8  9  2  0
 11 13  1  0
 11 10  1  1
 12 11  1  0
 13 14  1  6
 14  8  1  0
 15 17  1  0
 15 13  1  0
 16 15  2  0
 18 26  1  0
 18 17  1  0
 18 19  1  1
 20 19  1  0
 21 20  2  0
 22 21  1  0
 23 24  1  0
 23 22  2  0
 24 25  2  0
 25 20  1  0
 26 27  1  0
 28 26  2  0
M  END
$$$$
