KKD.pdb
     RDKit          3D

 27 26  0  0  1  0  0  0  0  0999 V2000
   20.8900  -19.9157  -15.9444 N   0  0  0  0  0  0  0  0  0  0  0  0
   21.2945  -18.6242  -15.5059 C   0  0  1  0  0  0  0  0  0  0  0  0
   20.9333  -18.4044  -14.0426 C   0  0  0  0  0  0  0  0  0  0  0  0
   19.5093  -18.6544  -13.7102 C   0  0  0  0  0  0  0  0  0  0  0  0
   19.1171  -20.0818  -13.4896 C   0  0  0  0  0  0  0  0  0  0  0  0
   17.6260  -20.1693  -13.1795 C   0  0  0  0  0  0  0  0  0  0  0  0
   17.3576  -21.6141  -13.0715 N   0  0  0  0  0  0  0  0  0  0  0  0
   22.7903  -18.4571  -15.6641 C   0  0  0  0  0  0  0  0  0  0  0  0
   23.3017  -17.4037  -15.2406 O   0  0  0  0  0  0  0  0  0  0  0  0
   23.5495  -19.4702  -16.2727 N   0  0  0  0  0  0  0  0  0  0  0  0
   24.9748  -19.3534  -16.5125 C   0  0  1  0  0  0  0  0  0  0  0  0
   25.6393  -20.7086  -16.4181 C   0  0  0  0  0  0  0  0  0  0  0  0
   27.0980  -20.7250  -16.6709 C   0  0  0  0  0  0  0  0  0  0  0  0
   27.6735  -22.1222  -16.6159 C   0  0  0  0  0  0  0  0  0  0  0  0
   29.1491  -22.1893  -16.8737 C   0  0  0  0  0  0  0  0  0  0  0  0
   29.7080  -23.5015  -16.8380 N   0  0  0  0  0  0  0  0  0  0  0  0
   25.2088  -18.6693  -17.7799 C   0  0  0  0  0  0  0  0  0  0  0  0
   24.6624  -18.9757  -18.8746 O   0  0  0  0  0  0  0  0  0  0  0  0
   26.1041  -17.5757  -17.8257 N   0  0  0  0  0  0  0  0  0  0  0  0
   26.3903  -16.8855  -19.1130 C   0  0  1  0  0  0  0  0  0  0  0  0
   26.9214  -15.5253  -18.7194 C   0  0  0  0  0  0  0  0  0  0  0  0
   27.2280  -14.6140  -19.8110 C   0  0  0  0  0  0  0  0  0  0  0  0
   27.0646  -14.9399  -20.9937 O   0  0  0  0  0  0  0  0  0  0  0  0
   27.4266  -17.6200  -19.8378 C   0  0  0  0  0  0  0  0  0  0  0  0
   27.9361  -18.6536  -19.3142 O   0  0  0  0  0  0  0  0  0  0  0  0
   27.7241  -13.3224  -19.5654 O   0  0  0  0  0  0  0  0  0  0  0  0
   27.8933  -17.2514  -21.0801 O   0  0  0  0  0  0  0  0  0  0  0  0
  2  3  1  0
  2  1  1  1
  4  3  1  0
  4  5  1  0
  5  6  1  0
  6  7  1  0
  8  2  1  0
  9  8  2  0
 10  8  1  0
 11 10  1  0
 11 12  1  6
 13 12  1  0
 14 13  1  0
 15 14  1  0
 16 15  1  0
 17 11  1  0
 17 18  2  0
 19 17  1  0
 20 19  1  0
 20 21  1  1
 21 22  1  0
 22 26  1  0
 22 23  2  0
 24 20  1  0
 25 24  2  0
 27 24  1  0
M  END
$$$$
