KKD.pdb
     RDKit          3D

 27 26  0  0  1  0  0  0  0  0999 V2000
   20.0330  -16.7907  -17.5585 N   0  0  0  0  0  0  0  0  0  0  0  0
   21.2832  -16.8694  -18.2328 C   0  0  1  0  0  0  0  0  0  0  0  0
   21.6479  -15.5341  -18.8684 C   0  0  0  0  0  0  0  0  0  0  0  0
   20.8129  -15.1525  -20.0338 C   0  0  0  0  0  0  0  0  0  0  0  0
   19.3744  -15.5628  -19.9859 C   0  0  0  0  0  0  0  0  0  0  0  0
   18.6573  -15.0923  -21.2475 C   0  0  0  0  0  0  0  0  0  0  0  0
   17.2728  -15.5686  -21.0821 N   0  0  0  0  0  0  0  0  0  0  0  0
   22.3809  -17.2598  -17.2668 C   0  0  0  0  0  0  0  0  0  0  0  0
   22.9982  -16.3430  -16.6931 O   0  0  0  0  0  0  0  0  0  0  0  0
   22.6723  -18.6160  -17.0461 N   0  0  0  0  0  0  0  0  0  0  0  0
   23.6376  -19.0667  -16.0624 C   0  0  1  0  0  0  0  0  0  0  0  0
   22.9322  -19.6168  -14.8432 C   0  0  0  0  0  0  0  0  0  0  0  0
   21.4542  -19.5320  -14.8663 C   0  0  0  0  0  0  0  0  0  0  0  0
   20.8273  -20.1089  -13.6171 C   0  0  0  0  0  0  0  0  0  0  0  0
   19.3289  -20.0560  -13.6012 C   0  0  0  0  0  0  0  0  0  0  0  0
   18.7165  -20.6652  -12.4657 N   0  0  0  0  0  0  0  0  0  0  0  0
   24.5695  -20.0057  -16.6779 C   0  0  0  0  0  0  0  0  0  0  0  0
   24.2330  -20.9918  -17.3889 O   0  0  0  0  0  0  0  0  0  0  0  0
   25.9601  -19.8304  -16.4904 N   0  0  0  0  0  0  0  0  0  0  0  0
   26.9309  -20.7865  -17.0893 C   0  0  1  0  0  0  0  0  0  0  0  0
   28.1868  -19.9767  -17.3217 C   0  0  0  0  0  0  0  0  0  0  0  0
   28.1255  -18.9854  -18.3845 C   0  0  0  0  0  0  0  0  0  0  0  0
   27.1153  -18.8477  -19.0860 O   0  0  0  0  0  0  0  0  0  0  0  0
   27.2129  -21.8556  -16.1322 C   0  0  0  0  0  0  0  0  0  0  0  0
   27.9638  -22.8146  -16.4763 O   0  0  0  0  0  0  0  0  0  0  0  0
   29.2153  -18.1414  -18.6584 O   0  0  0  0  0  0  0  0  0  0  0  0
   26.7030  -21.8863  -14.8531 O   0  0  0  0  0  0  0  0  0  0  0  0
  2  3  1  0
  2  1  1  1
  4  3  1  0
  4  5  1  0
  5  6  1  0
  6  7  1  0
  8  2  1  0
  9  8  2  0
 10  8  1  0
 11 10  1  0
 11 12  1  1
 13 12  1  0
 14 13  1  0
 15 14  1  0
 16 15  1  0
 17 11  1  0
 17 18  2  0
 19 17  1  0
 20 19  1  0
 20 21  1  1
 21 22  1  0
 22 26  1  0
 22 23  2  0
 24 20  1  0
 25 24  2  0
 27 24  1  0
M  END
$$$$
