KKD.pdb
     RDKit          3D

 27 26  0  0  1  0  0  0  0  0999 V2000
   22.1552  -12.9701  -17.6282 N   0  0  0  0  0  0  0  0  0  0  0  0
   22.4893  -12.1867  -16.4887 C   0  0  1  0  0  0  0  0  0  0  0  0
   23.9812  -11.8818  -16.4517 C   0  0  0  0  0  0  0  0  0  0  0  0
   24.8603  -13.0759  -16.4973 C   0  0  0  0  0  0  0  0  0  0  0  0
   26.3336  -12.8173  -16.5451 C   0  0  0  0  0  0  0  0  0  0  0  0
   27.0972  -14.1258  -16.3664 C   0  0  0  0  0  0  0  0  0  0  0  0
   28.5163  -13.7347  -16.4318 N   0  0  0  0  0  0  0  0  0  0  0  0
   21.7296  -10.8778  -16.5063 C   0  0  0  0  0  0  0  0  0  0  0  0
   22.3210   -9.8727  -16.9428 O   0  0  0  0  0  0  0  0  0  0  0  0
   20.4059  -10.8281  -16.0390 N   0  0  0  0  0  0  0  0  0  0  0  0
   19.5691   -9.6501  -16.1601 C   0  0  1  0  0  0  0  0  0  0  0  0
   18.1085  -10.0257  -16.0487 C   0  0  0  0  0  0  0  0  0  0  0  0
   17.5088  -10.6293  -17.2604 C   0  0  0  0  0  0  0  0  0  0  0  0
   16.6634  -11.8410  -16.9387 C   0  0  0  0  0  0  0  0  0  0  0  0
   15.9758  -12.4433  -18.1273 C   0  0  0  0  0  0  0  0  0  0  0  0
   15.1374  -13.5605  -17.8363 N   0  0  0  0  0  0  0  0  0  0  0  0
   19.9932   -8.6407  -15.1957 C   0  0  0  0  0  0  0  0  0  0  0  0
   20.4913   -8.8909  -14.0641 O   0  0  0  0  0  0  0  0  0  0  0  0
   19.8556   -7.2703  -15.5161 N   0  0  0  0  0  0  0  0  0  0  0  0
   20.1380   -6.2228  -14.4972 C   0  0  1  0  0  0  0  0  0  0  0  0
   21.5916   -5.8588  -14.7009 C   0  0  0  0  0  0  0  0  0  0  0  0
   22.1045   -4.7743  -13.8783 C   0  0  0  0  0  0  0  0  0  0  0  0
   21.3916   -4.1966  -13.0479 O   0  0  0  0  0  0  0  0  0  0  0  0
   19.3028   -5.0515  -14.7606 C   0  0  0  0  0  0  0  0  0  0  0  0
   18.9063   -4.8247  -15.9410 O   0  0  0  0  0  0  0  0  0  0  0  0
   23.4351   -4.3373  -13.9944 O   0  0  0  0  0  0  0  0  0  0  0  0
   18.9117   -4.1607  -13.7856 O   0  0  0  0  0  0  0  0  0  0  0  0
  2  3  1  0
  2  1  1  6
  4  3  1  0
  4  5  1  0
  5  6  1  0
  6  7  1  0
  8  2  1  0
  9  8  2  0
 10  8  1  0
 11 10  1  0
 11 12  1  1
 13 12  1  0
 14 13  1  0
 15 14  1  0
 16 15  1  0
 17 11  1  0
 17 18  2  0
 19 17  1  0
 20 19  1  0
 20 21  1  6
 21 22  1  0
 22 26  1  0
 22 23  2  0
 24 20  1  0
 25 24  2  0
 27 24  1  0
M  END
$$$$
