KKD.pdb
     RDKit          3D

 27 26  0  0  1  0  0  0  0  0999 V2000
   26.7990  -18.9128  -17.0666 N   0  0  0  0  0  0  0  0  0  0  0  0
   26.0053  -20.0129  -17.4953 C   0  0  1  0  0  0  0  0  0  0  0  0
   26.8481  -21.0385  -18.2421 C   0  0  0  0  0  0  0  0  0  0  0  0
   28.0502  -20.4847  -18.9125 C   0  0  0  0  0  0  0  0  0  0  0  0
   27.8559  -19.9562  -20.2991 C   0  0  0  0  0  0  0  0  0  0  0  0
   29.1903  -19.4827  -20.8667 C   0  0  0  0  0  0  0  0  0  0  0  0
   28.8633  -19.0011  -22.2204 N   0  0  0  0  0  0  0  0  0  0  0  0
   25.3587  -20.6924  -16.3076 C   0  0  0  0  0  0  0  0  0  0  0  0
   24.7115  -21.7347  -16.5204 O   0  0  0  0  0  0  0  0  0  0  0  0
   25.4991  -20.1432  -15.0224 N   0  0  0  0  0  0  0  0  0  0  0  0
   24.8074  -20.6659  -13.8600 C   0  0  1  0  0  0  0  0  0  0  0  0
   25.5842  -20.3573  -12.5998 C   0  0  0  0  0  0  0  0  0  0  0  0
   24.9874  -20.8590  -11.3411 C   0  0  0  0  0  0  0  0  0  0  0  0
   25.8452  -20.5468  -10.1357 C   0  0  0  0  0  0  0  0  0  0  0  0
   25.3206  -21.1060   -8.8472 C   0  0  0  0  0  0  0  0  0  0  0  0
   26.1067  -20.8046   -7.6952 N   0  0  0  0  0  0  0  0  0  0  0  0
   23.4333  -20.1759  -13.8403 C   0  0  0  0  0  0  0  0  0  0  0  0
   23.1028  -18.9589  -13.8691 O   0  0  0  0  0  0  0  0  0  0  0  0
   22.3649  -21.1009  -13.7885 N   0  0  0  0  0  0  0  0  0  0  0  0
   20.9579  -20.6269  -13.6841 C   0  0  1  0  0  0  0  0  0  0  0  0
   20.3025  -21.0549  -14.9780 C   0  0  0  0  0  0  0  0  0  0  0  0
   19.7368  -19.9923  -15.7946 C   0  0  0  0  0  0  0  0  0  0  0  0
   19.1964  -20.2279  -16.8828 O   0  0  0  0  0  0  0  0  0  0  0  0
   20.3016  -21.2977  -12.5625 C   0  0  0  0  0  0  0  0  0  0  0  0
   19.3491  -20.7179  -11.9638 O   0  0  0  0  0  0  0  0  0  0  0  0
   19.7816  -18.6506  -15.3790 O   0  0  0  0  0  0  0  0  0  0  0  0
   20.6611  -22.5467  -12.1065 O   0  0  0  0  0  0  0  0  0  0  0  0
  2  3  1  0
  2  1  1  1
  4  3  1  0
  4  5  1  0
  5  6  1  0
  6  7  1  0
  8  2  1  0
  9  8  2  0
 10  8  1  0
 11 10  1  0
 11 12  1  1
 13 12  1  0
 14 13  1  0
 15 14  1  0
 16 15  1  0
 17 11  1  0
 17 18  2  0
 19 17  1  0
 20 19  1  0
 20 21  1  6
 21 22  1  0
 22 26  1  0
 22 23  2  0
 24 20  1  0
 25 24  2  0
 27 24  1  0
M  END
$$$$
