KKD.pdb
     RDKit          3D

 27 26  0  0  1  0  0  0  0  0999 V2000
   21.2374  -16.5961  -17.2909 N   0  0  0  0  0  0  0  0  0  0  0  0
   20.8578  -15.8875  -16.1172 C   0  0  1  0  0  0  0  0  0  0  0  0
   21.4337  -16.5451  -14.8699 C   0  0  0  0  0  0  0  0  0  0  0  0
   20.9539  -17.9263  -14.6182 C   0  0  0  0  0  0  0  0  0  0  0  0
   19.4971  -18.1784  -14.8509 C   0  0  0  0  0  0  0  0  0  0  0  0
   19.1817  -19.6533  -14.6220 C   0  0  0  0  0  0  0  0  0  0  0  0
   17.7253  -19.7527  -14.8221 N   0  0  0  0  0  0  0  0  0  0  0  0
   21.3508  -14.4580  -16.1804 C   0  0  0  0  0  0  0  0  0  0  0  0
   21.2144  -13.7546  -15.1620 O   0  0  0  0  0  0  0  0  0  0  0  0
   21.9359  -13.9686  -17.3599 N   0  0  0  0  0  0  0  0  0  0  0  0
   22.5015  -12.6378  -17.4680 C   0  0  1  0  0  0  0  0  0  0  0  0
   23.2461  -12.4847  -18.7753 C   0  0  0  0  0  0  0  0  0  0  0  0
   24.6287  -13.0139  -18.7901 C   0  0  0  0  0  0  0  0  0  0  0  0
   25.3468  -12.7054  -20.0845 C   0  0  0  0  0  0  0  0  0  0  0  0
   26.6998  -13.3406  -20.2028 C   0  0  0  0  0  0  0  0  0  0  0  0
   27.3427  -13.1588  -21.4635 N   0  0  0  0  0  0  0  0  0  0  0  0
   21.4580  -11.6387  -17.2635 C   0  0  0  0  0  0  0  0  0  0  0  0
   20.3290  -11.6518  -17.8259 O   0  0  0  0  0  0  0  0  0  0  0  0
   21.6887  -10.5628  -16.3753 N   0  0  0  0  0  0  0  0  0  0  0  0
   20.6554   -9.5100  -16.1774 C   0  0  1  0  0  0  0  0  0  0  0  0
   20.0718   -9.7850  -14.8097 C   0  0  0  0  0  0  0  0  0  0  0  0
   19.1388   -8.7936  -14.2973 C   0  0  0  0  0  0  0  0  0  0  0  0
   18.3667   -8.1811  -15.0459 O   0  0  0  0  0  0  0  0  0  0  0  0
   21.2959   -8.1952  -16.1765 C   0  0  0  0  0  0  0  0  0  0  0  0
   22.5592   -8.1202  -16.1574 O   0  0  0  0  0  0  0  0  0  0  0  0
   19.0769   -8.4902  -12.9265 O   0  0  0  0  0  0  0  0  0  0  0  0
   20.5974   -7.0083  -16.1957 O   0  0  0  0  0  0  0  0  0  0  0  0
  2  3  1  0
  2  1  1  6
  4  3  1  0
  4  5  1  0
  5  6  1  0
  6  7  1  0
  8  2  1  0
  9  8  2  0
 10  8  1  0
 11 10  1  0
 11 12  1  6
 13 12  1  0
 14 13  1  0
 15 14  1  0
 16 15  1  0
 17 11  1  0
 17 18  2  0
 19 17  1  0
 20 19  1  0
 20 21  1  1
 21 22  1  0
 22 26  1  0
 22 23  2  0
 24 20  1  0
 25 24  2  0
 27 24  1  0
M  END
$$$$
