KKD.pdb
     RDKit          3D

 27 26  0  0  1  0  0  0  0  0999 V2000
   22.9796  -20.0422  -14.5381 N   0  0  0  0  0  0  0  0  0  0  0  0
   22.1372  -19.6231  -15.6051 C   0  0  1  0  0  0  0  0  0  0  0  0
   20.6944  -20.0469  -15.3629 C   0  0  0  0  0  0  0  0  0  0  0  0
   20.5377  -21.3507  -14.6725 C   0  0  0  0  0  0  0  0  0  0  0  0
   19.1354  -21.8296  -14.4630 C   0  0  0  0  0  0  0  0  0  0  0  0
   19.1463  -23.1587  -13.7143 C   0  0  0  0  0  0  0  0  0  0  0  0
   17.7224  -23.4690  -13.4964 N   0  0  0  0  0  0  0  0  0  0  0  0
   22.1797  -18.1173  -15.7516 C   0  0  0  0  0  0  0  0  0  0  0  0
   22.0874  -17.4335  -14.7150 O   0  0  0  0  0  0  0  0  0  0  0  0
   22.3174  -17.5394  -17.0244 N   0  0  0  0  0  0  0  0  0  0  0  0
   22.5078  -16.1166  -17.2296 C   0  0  1  0  0  0  0  0  0  0  0  0
   23.4569  -15.8712  -18.3811 C   0  0  0  0  0  0  0  0  0  0  0  0
   23.6518  -14.4529  -18.7586 C   0  0  0  0  0  0  0  0  0  0  0  0
   24.6388  -14.2920  -19.8928 C   0  0  0  0  0  0  0  0  0  0  0  0
   25.2273  -12.9175  -20.0045 C   0  0  0  0  0  0  0  0  0  0  0  0
   26.6420  -12.8518  -19.8310 N   0  0  0  0  0  0  0  0  0  0  0  0
   21.2133  -15.4612  -17.3829 C   0  0  0  0  0  0  0  0  0  0  0  0
   20.2694  -15.8915  -18.1005 O   0  0  0  0  0  0  0  0  0  0  0  0
   20.9573  -14.2551  -16.6905 N   0  0  0  0  0  0  0  0  0  0  0  0
   19.6624  -13.5423  -16.8655 C   0  0  1  0  0  0  0  0  0  0  0  0
   19.6299  -12.5105  -15.7603 C   0  0  0  0  0  0  0  0  0  0  0  0
   18.4854  -11.6127  -15.7521 C   0  0  0  0  0  0  0  0  0  0  0  0
   17.4725  -11.8462  -16.4237 O   0  0  0  0  0  0  0  0  0  0  0  0
   19.6520  -12.8656  -18.1618 C   0  0  0  0  0  0  0  0  0  0  0  0
   18.7085  -13.0944  -18.9739 O   0  0  0  0  0  0  0  0  0  0  0  0
   18.4843  -10.4395  -14.9784 O   0  0  0  0  0  0  0  0  0  0  0  0
   20.6236  -11.9761  -18.5641 O   0  0  0  0  0  0  0  0  0  0  0  0
  2  3  1  0
  2  1  1  1
  4  3  1  0
  4  5  1  0
  5  6  1  0
  6  7  1  0
  8  2  1  0
  9  8  2  0
 10  8  1  0
 11 10  1  0
 11 12  1  6
 13 12  1  0
 14 13  1  0
 15 14  1  0
 16 15  1  0
 17 11  1  0
 17 18  2  0
 19 17  1  0
 20 19  1  0
 20 21  1  1
 21 22  1  0
 22 26  1  0
 22 23  2  0
 24 20  1  0
 25 24  2  0
 27 24  1  0
M  END
$$$$
