KKD.pdb
     RDKit          3D

 27 26  0  0  1  0  0  0  0  0999 V2000
   25.2235  -17.8260  -19.9437 N   0  0  0  0  0  0  0  0  0  0  0  0
   24.1862  -18.7225  -20.3235 C   0  0  1  0  0  0  0  0  0  0  0  0
   24.6213  -19.6016  -21.4888 C   0  0  0  0  0  0  0  0  0  0  0  0
   25.8432  -19.1401  -22.1923 C   0  0  0  0  0  0  0  0  0  0  0  0
   25.7951  -17.7640  -22.7786 C   0  0  0  0  0  0  0  0  0  0  0  0
   27.1091  -17.4555  -23.4895 C   0  0  0  0  0  0  0  0  0  0  0  0
   26.9441  -16.0774  -23.9843 N   0  0  0  0  0  0  0  0  0  0  0  0
   23.8071  -19.6147  -19.1612 C   0  0  0  0  0  0  0  0  0  0  0  0
   22.8668  -20.4135  -19.3292 O   0  0  0  0  0  0  0  0  0  0  0  0
   24.5077  -19.5218  -17.9473 N   0  0  0  0  0  0  0  0  0  0  0  0
   24.1643  -20.3035  -16.7752 C   0  0  1  0  0  0  0  0  0  0  0  0
   25.4157  -20.7905  -16.0797 C   0  0  0  0  0  0  0  0  0  0  0  0
   26.1736  -21.8453  -16.7904 C   0  0  0  0  0  0  0  0  0  0  0  0
   27.3725  -22.3203  -16.0009 C   0  0  0  0  0  0  0  0  0  0  0  0
   28.1014  -23.4725  -16.6249 C   0  0  0  0  0  0  0  0  0  0  0  0
   29.3121  -23.8461  -15.9687 N   0  0  0  0  0  0  0  0  0  0  0  0
   23.2714  -19.5364  -15.9132 C   0  0  0  0  0  0  0  0  0  0  0  0
   23.4060  -18.3109  -15.6463 O   0  0  0  0  0  0  0  0  0  0  0  0
   22.1604  -20.1761  -15.3164 N   0  0  0  0  0  0  0  0  0  0  0  0
   21.1948  -19.4011  -14.4903 C   0  0  1  0  0  0  0  0  0  0  0  0
   20.7086  -18.2900  -15.3937 C   0  0  0  0  0  0  0  0  0  0  0  0
   19.5993  -17.4931  -14.8933 C   0  0  0  0  0  0  0  0  0  0  0  0
   19.4268  -17.3095  -13.6816 O   0  0  0  0  0  0  0  0  0  0  0  0
   20.0679  -20.2597  -14.1273 C   0  0  0  0  0  0  0  0  0  0  0  0
   19.8294  -21.2948  -14.8155 O   0  0  0  0  0  0  0  0  0  0  0  0
   18.6756  -16.8977  -15.7691 O   0  0  0  0  0  0  0  0  0  0  0  0
   19.2320  -20.0088  -13.0618 O   0  0  0  0  0  0  0  0  0  0  0  0
  2  3  1  0
  2  1  1  1
  4  3  1  0
  4  5  1  0
  5  6  1  0
  6  7  1  0
  8  2  1  0
  9  8  2  0
 10  8  1  0
 11 10  1  0
 11 12  1  1
 13 12  1  0
 14 13  1  0
 15 14  1  0
 16 15  1  0
 17 11  1  0
 17 18  2  0
 19 17  1  0
 20 19  1  0
 20 21  1  6
 21 22  1  0
 22 26  1  0
 22 23  2  0
 24 20  1  0
 25 24  2  0
 27 24  1  0
M  END
$$$$
