KKD.pdb
     RDKit          3D

 27 26  0  0  1  0  0  0  0  0999 V2000
   22.4840  -22.9487  -13.8400 N   0  0  0  0  0  0  0  0  0  0  0  0
   21.3031  -22.1634  -13.9512 C   0  0  1  0  0  0  0  0  0  0  0  0
   20.4567  -22.2648  -12.6889 C   0  0  0  0  0  0  0  0  0  0  0  0
   19.4365  -23.3417  -12.7102 C   0  0  0  0  0  0  0  0  0  0  0  0
   18.4628  -23.3598  -11.5739 C   0  0  0  0  0  0  0  0  0  0  0  0
   17.4696  -24.5029  -11.7583 C   0  0  0  0  0  0  0  0  0  0  0  0
   16.5577  -24.3864  -10.6068 N   0  0  0  0  0  0  0  0  0  0  0  0
   21.6553  -20.7094  -14.1806 C   0  0  0  0  0  0  0  0  0  0  0  0
   21.0332  -19.8540  -13.5234 O   0  0  0  0  0  0  0  0  0  0  0  0
   22.6516  -20.3665  -15.1094 N   0  0  0  0  0  0  0  0  0  0  0  0
   23.0851  -19.0012  -15.3351 C   0  0  1  0  0  0  0  0  0  0  0  0
   24.4193  -18.9812  -16.0466 C   0  0  0  0  0  0  0  0  0  0  0  0
   25.5640  -19.5168  -15.2753 C   0  0  0  0  0  0  0  0  0  0  0  0
   26.3128  -20.5907  -16.0319 C   0  0  0  0  0  0  0  0  0  0  0  0
   27.4107  -21.2433  -15.2465 C   0  0  0  0  0  0  0  0  0  0  0  0
   28.1272  -22.2612  -15.9437 N   0  0  0  0  0  0  0  0  0  0  0  0
   22.0373  -18.2574  -16.0262 C   0  0  0  0  0  0  0  0  0  0  0  0
   21.3497  -18.7048  -16.9844 O   0  0  0  0  0  0  0  0  0  0  0  0
   21.7380  -16.9362  -15.6204 N   0  0  0  0  0  0  0  0  0  0  0  0
   20.6723  -16.1567  -16.3072 C   0  0  1  0  0  0  0  0  0  0  0  0
   20.2556  -15.0985  -15.3103 C   0  0  0  0  0  0  0  0  0  0  0  0
   19.2083  -14.1857  -15.7413 C   0  0  0  0  0  0  0  0  0  0  0  0
   18.6610  -14.3007  -16.8453 O   0  0  0  0  0  0  0  0  0  0  0  0
   21.2313  -15.5116  -17.4947 C   0  0  0  0  0  0  0  0  0  0  0  0
   22.3542  -14.9329  -17.4160 O   0  0  0  0  0  0  0  0  0  0  0  0
   18.7745  -13.1325  -14.9182 O   0  0  0  0  0  0  0  0  0  0  0  0
   20.6009  -15.4933  -18.7191 O   0  0  0  0  0  0  0  0  0  0  0  0
  2  3  1  0
  2  1  1  1
  4  3  1  0
  4  5  1  0
  5  6  1  0
  6  7  1  0
  8  2  1  0
  9  8  2  0
 10  8  1  0
 11 10  1  0
 11 12  1  6
 13 12  1  0
 14 13  1  0
 15 14  1  0
 16 15  1  0
 17 11  1  0
 17 18  2  0
 19 17  1  0
 20 19  1  0
 20 21  1  1
 21 22  1  0
 22 26  1  0
 22 23  2  0
 24 20  1  0
 25 24  2  0
 27 24  1  0
M  END
$$$$
