KKD.pdb
     RDKit          3D

 27 26  0  0  1  0  0  0  0  0999 V2000
   20.5943  -14.5903  -16.5976 N   0  0  0  0  0  0  0  0  0  0  0  0
   20.3353  -14.1068  -17.9103 C   0  0  1  0  0  0  0  0  0  0  0  0
   19.9624  -15.2460  -18.8501 C   0  0  0  0  0  0  0  0  0  0  0  0
   20.1219  -16.6038  -18.2740 C   0  0  0  0  0  0  0  0  0  0  0  0
   21.5200  -17.1306  -18.1866 C   0  0  0  0  0  0  0  0  0  0  0  0
   21.4949  -18.6184  -17.8506 C   0  0  0  0  0  0  0  0  0  0  0  0
   22.9156  -19.0024  -17.7775 N   0  0  0  0  0  0  0  0  0  0  0  0
   19.1998  -13.1064  -17.8903 C   0  0  0  0  0  0  0  0  0  0  0  0
   18.8672  -12.5887  -18.9728 O   0  0  0  0  0  0  0  0  0  0  0  0
   18.5632  -12.7911  -16.6785 N   0  0  0  0  0  0  0  0  0  0  0  0
   17.5376  -11.7721  -16.5667 C   0  0  1  0  0  0  0  0  0  0  0  0
   16.3509  -12.2996  -15.7918 C   0  0  0  0  0  0  0  0  0  0  0  0
   15.1681  -11.4101  -15.7487 C   0  0  0  0  0  0  0  0  0  0  0  0
   14.0583  -11.9735  -14.8902 C   0  0  0  0  0  0  0  0  0  0  0  0
   12.8197  -11.1291  -14.8555 C   0  0  0  0  0  0  0  0  0  0  0  0
   11.8015  -11.5891  -13.9681 N   0  0  0  0  0  0  0  0  0  0  0  0
   18.1110  -10.5522  -16.0084 C   0  0  0  0  0  0  0  0  0  0  0  0
   18.9889  -10.5184  -15.1033 O   0  0  0  0  0  0  0  0  0  0  0  0
   17.6801   -9.2953  -16.4925 N   0  0  0  0  0  0  0  0  0  0  0  0
   18.2394   -8.0357  -15.9307 C   0  0  1  0  0  0  0  0  0  0  0  0
   18.1023   -7.0164  -17.0395 C   0  0  0  0  0  0  0  0  0  0  0  0
   18.5081   -5.6572  -16.7175 C   0  0  0  0  0  0  0  0  0  0  0  0
   17.6806   -4.7458  -16.5903 O   0  0  0  0  0  0  0  0  0  0  0  0
   17.4348   -7.6164  -14.7837 C   0  0  0  0  0  0  0  0  0  0  0  0
   18.0143   -7.2181  -13.7314 O   0  0  0  0  0  0  0  0  0  0  0  0
   19.8612   -5.3233  -16.5373 O   0  0  0  0  0  0  0  0  0  0  0  0
   16.0575   -7.6270  -14.7754 O   0  0  0  0  0  0  0  0  0  0  0  0
  2  3  1  0
  2  1  1  1
  4  3  1  0
  4  5  1  0
  5  6  1  0
  6  7  1  0
  8  2  1  0
  9  8  2  0
 10  8  1  0
 11 10  1  0
 11 12  1  1
 13 12  1  0
 14 13  1  0
 15 14  1  0
 16 15  1  0
 17 11  1  0
 17 18  2  0
 19 17  1  0
 20 19  1  0
 20 21  1  6
 21 22  1  0
 22 26  1  0
 22 23  2  0
 24 20  1  0
 25 24  2  0
 27 24  1  0
M  END
$$$$
