KKD.pdb
     RDKit          3D

 27 26  0  0  1  0  0  0  0  0999 V2000
   17.2987  -18.5874    2.5333 N   0  0  0  0  0  0  0  0  0  0  0  0
   16.9065  -18.2050    3.8462 C   0  0  1  0  0  0  0  0  0  0  0  0
   16.4137  -19.4062    4.6425 C   0  0  0  0  0  0  0  0  0  0  0  0
   15.7226  -20.4435    3.8378 C   0  0  0  0  0  0  0  0  0  0  0  0
   15.2591  -21.6603    4.5756 C   0  0  0  0  0  0  0  0  0  0  0  0
   14.5346  -22.6032    3.6201 C   0  0  0  0  0  0  0  0  0  0  0  0
   14.2476  -23.7991    4.4316 N   0  0  0  0  0  0  0  0  0  0  0  0
   18.0710  -17.5813    4.5848 C   0  0  0  0  0  0  0  0  0  0  0  0
   19.2113  -18.0160    4.3373 O   0  0  0  0  0  0  0  0  0  0  0  0
   17.8434  -16.5513    5.5124 N   0  0  0  0  0  0  0  0  0  0  0  0
   18.9153  -15.8223    6.1623 C   0  0  1  0  0  0  0  0  0  0  0  0
   18.5316  -14.3712    6.3465 C   0  0  0  0  0  0  0  0  0  0  0  0
   19.6137  -13.4783    6.8196 C   0  0  0  0  0  0  0  0  0  0  0  0
   19.1381  -12.0567    7.0180 C   0  0  0  0  0  0  0  0  0  0  0  0
   20.1957  -11.1196    7.5194 C   0  0  0  0  0  0  0  0  0  0  0  0
   19.7844   -9.7592    7.6462 N   0  0  0  0  0  0  0  0  0  0  0  0
   19.2903  -16.4947    7.4017 C   0  0  0  0  0  0  0  0  0  0  0  0
   18.5125  -17.1980    8.1027 O   0  0  0  0  0  0  0  0  0  0  0  0
   20.6142  -16.3768    7.8846 N   0  0  0  0  0  0  0  0  0  0  0  0
   21.0483  -17.1281    9.0939 C   0  0  1  0  0  0  0  0  0  0  0  0
   22.5493  -17.2545    8.9597 C   0  0  0  0  0  0  0  0  0  0  0  0
   23.2222  -18.0430    9.9803 C   0  0  0  0  0  0  0  0  0  0  0  0
   22.5883  -18.6763   10.8339 O   0  0  0  0  0  0  0  0  0  0  0  0
   20.7319  -16.3481   10.2898 C   0  0  0  0  0  0  0  0  0  0  0  0
   20.9256  -15.0973   10.2841 O   0  0  0  0  0  0  0  0  0  0  0  0
   24.6243  -18.1171   10.0381 O   0  0  0  0  0  0  0  0  0  0  0  0
   20.2256  -16.8990   11.4462 O   0  0  0  0  0  0  0  0  0  0  0  0
  2  3  1  0
  2  1  1  6
  4  3  1  0
  4  5  1  0
  5  6  1  0
  6  7  1  0
  8  2  1  0
  9  8  2  0
 10  8  1  0
 11 10  1  0
 11 12  1  1
 13 12  1  0
 14 13  1  0
 15 14  1  0
 16 15  1  0
 17 11  1  0
 17 18  2  0
 19 17  1  0
 20 19  1  0
 20 21  1  6
 21 22  1  0
 22 26  1  0
 22 23  2  0
 24 20  1  0
 25 24  2  0
 27 24  1  0
M  END
$$$$
