KKD.pdb
     RDKit          3D

 27 26  0  0  1  0  0  0  0  0999 V2000
   25.1743  -24.0230  -13.6208 N   0  0  0  0  0  0  0  0  0  0  0  0
   24.8554  -23.5250  -14.9147 C   0  0  1  0  0  0  0  0  0  0  0  0
   23.7723  -24.3682  -15.5747 C   0  0  0  0  0  0  0  0  0  0  0  0
   23.6085  -25.7272  -15.0027 C   0  0  0  0  0  0  0  0  0  0  0  0
   22.7766  -25.8327  -13.7631 C   0  0  0  0  0  0  0  0  0  0  0  0
   22.5921  -27.2988  -13.3839 C   0  0  0  0  0  0  0  0  0  0  0  0
   21.4058  -27.7284  -14.1451 N   0  0  0  0  0  0  0  0  0  0  0  0
   24.3664  -22.0955  -14.8248 C   0  0  0  0  0  0  0  0  0  0  0  0
   23.9788  -21.6866  -13.7143 O   0  0  0  0  0  0  0  0  0  0  0  0
   24.3598  -21.2825  -15.9702 N   0  0  0  0  0  0  0  0  0  0  0  0
   24.0646  -19.8633  -15.9299 C   0  0  1  0  0  0  0  0  0  0  0  0
   24.7180  -19.1544  -17.0949 C   0  0  0  0  0  0  0  0  0  0  0  0
   26.1770  -18.9343  -16.9733 C   0  0  0  0  0  0  0  0  0  0  0  0
   26.9794  -20.0840  -17.5396 C   0  0  0  0  0  0  0  0  0  0  0  0
   28.4632  -19.9307  -17.3885 C   0  0  0  0  0  0  0  0  0  0  0  0
   29.2354  -21.0240  -17.8825 N   0  0  0  0  0  0  0  0  0  0  0  0
   22.6219  -19.6603  -15.8504 C   0  0  0  0  0  0  0  0  0  0  0  0
   21.7585  -20.4212  -16.3666 O   0  0  0  0  0  0  0  0  0  0  0  0
   22.1138  -18.5420  -15.1495 N   0  0  0  0  0  0  0  0  0  0  0  0
   20.6468  -18.3598  -14.9769 C   0  0  1  0  0  0  0  0  0  0  0  0
   20.5061  -17.2938  -13.9134 C   0  0  0  0  0  0  0  0  0  0  0  0
   19.1486  -16.8843  -13.5889 C   0  0  0  0  0  0  0  0  0  0  0  0
   18.7103  -15.7738  -13.9150 O   0  0  0  0  0  0  0  0  0  0  0  0
   20.0670  -17.8756  -16.2292 C   0  0  0  0  0  0  0  0  0  0  0  0
   18.8083  -17.8210  -16.3502 O   0  0  0  0  0  0  0  0  0  0  0  0
   18.2772  -17.7363  -12.8892 O   0  0  0  0  0  0  0  0  0  0  0  0
   20.8190  -17.4662  -17.3081 O   0  0  0  0  0  0  0  0  0  0  0  0
  2  3  1  0
  2  1  1  1
  4  3  1  0
  4  5  1  0
  5  6  1  0
  6  7  1  0
  8  2  1  0
  9  8  2  0
 10  8  1  0
 11 10  1  0
 11 12  1  6
 13 12  1  0
 14 13  1  0
 15 14  1  0
 16 15  1  0
 17 11  1  0
 17 18  2  0
 19 17  1  0
 20 19  1  0
 20 21  1  1
 21 22  1  0
 22 26  1  0
 22 23  2  0
 24 20  1  0
 25 24  2  0
 27 24  1  0
M  END
$$$$
