FYM.pdb
     RDKit          3D

 32 33  0  0  1  0  0  0  0  0999 V2000
   28.4284  -20.7593   -8.8730 N   0  0  0  0  0  0  0  0  0  0  0  0
   26.9860  -20.7011   -8.7337 C   0  0  1  0  0  0  0  0  0  0  0  0
   26.6590  -19.5699   -7.7835 C   0  0  0  0  0  0  0  0  0  0  0  0
   27.3325  -19.7469   -6.4751 C   0  0  0  0  0  0  0  0  0  0  0  0
   28.2951  -18.8480   -6.0649 C   0  0  0  0  0  0  0  0  0  0  0  0
   28.9556  -18.9722   -4.8437 C   0  0  0  0  0  0  0  0  0  0  0  0
   28.6172  -20.0344   -4.0409 C   0  0  0  0  0  0  0  0  0  0  0  0
   27.6552  -20.9582   -4.4182 C   0  0  0  0  0  0  0  0  0  0  0  0
   27.0314  -20.7861   -5.6415 C   0  0  0  0  0  0  0  0  0  0  0  0
   26.3684  -20.4220  -10.0410 C   0  0  0  0  0  0  0  0  0  0  0  0
   26.6324  -19.3411  -10.6294 O   0  0  0  0  0  0  0  0  0  0  0  0
   29.4153  -18.3303  -15.2483 O   0  0  0  0  0  0  0  0  0  0  0  0
   28.4831  -19.1995  -14.6984 C   0  0  0  0  0  0  0  0  0  0  0  0
   27.1573  -19.1284  -15.0715 C   0  0  0  0  0  0  0  0  0  0  0  0
   26.2408  -19.9928  -14.5222 C   0  0  0  0  0  0  0  0  0  0  0  0
   26.6453  -20.9240  -13.6049 C   0  0  0  0  0  0  0  0  0  0  0  0
   25.6143  -21.8362  -13.0376 C   0  0  0  0  0  0  0  0  0  0  0  0
   24.8655  -21.0465  -11.9741 C   0  0  2  0  0  0  0  0  0  0  0  0
   25.4762  -21.3172  -10.6885 N   0  0  0  0  0  0  0  0  0  0  0  0
   23.4613  -21.5317  -11.9770 C   0  0  0  0  0  0  0  0  0  0  0  0
   23.0933  -22.5268  -11.2943 O   0  0  0  0  0  0  0  0  0  0  0  0
   27.9492  -21.0168  -13.2178 C   0  0  0  0  0  0  0  0  0  0  0  0
   28.8599  -20.1376  -13.7814 C   0  0  0  0  0  0  0  0  0  0  0  0
   18.2773  -22.8724   -8.1485 C   0  0  0  0  0  0  0  0  0  0  0  0
   19.2377  -21.5622   -8.9943 S   0  0  0  0  0  0  0  0  0  0  0  0
   19.7059  -22.0084  -10.6312 C   0  0  0  0  0  0  0  0  0  0  0  0
   20.6479  -21.1658  -11.3558 C   0  0  0  0  0  0  0  0  0  0  0  0
   21.0840  -21.4098  -12.7493 C   0  0  2  0  0  0  0  0  0  0  0  0
   22.5071  -20.8768  -12.7543 N   0  0  0  0  0  0  0  0  0  0  0  0
   20.3904  -20.4324  -13.6858 C   0  0  0  0  0  0  0  0  0  0  0  0
   20.9908  -19.3014  -13.9047 O   0  0  0  0  0  0  0  0  0  0  0  0
   19.2139  -20.5943  -14.3246 O   0  0  0  0  0  0  0  0  0  0  0  0
  2  1  1  6
  3  2  1  0
  3  4  1  0
  4  5  2  0
  5  6  1  0
  7  6  2  0
  8  7  1  0
  9  8  2  0
  9  4  1  0
 10  2  1  0
 10 19  1  0
 11 10  2  0
 13 14  2  0
 13 12  1  0
 15 14  1  0
 16 15  2  0
 17 16  1  0
 18 17  1  6
 18 19  1  0
 20 29  1  0
 20 18  1  0
 21 20  2  0
 22 16  1  0
 22 23  2  0
 23 13  1  0
 24 25  1  0
 25 26  1  0
 26 27  1  0
 28 27  1  1
 28 29  1  0
 28 30  1  0
 30 32  1  0
 31 30  2  0
M  END
$$$$
