FYM.pdb
     RDKit          3D

 32 33  0  0  1  0  0  0  0  0999 V2000
   26.7843  -18.0389  -16.8658 N   0  0  0  0  0  0  0  0  0  0  0  0
   27.5066  -18.3052  -15.6368 C   0  0  1  0  0  0  0  0  0  0  0  0
   28.3101  -17.0691  -15.2963 C   0  0  0  0  0  0  0  0  0  0  0  0
   29.2975  -16.7535  -16.3557 C   0  0  0  0  0  0  0  0  0  0  0  0
   29.2612  -15.5310  -16.9938 C   0  0  0  0  0  0  0  0  0  0  0  0
   30.1681  -15.1883  -17.9953 C   0  0  0  0  0  0  0  0  0  0  0  0
   31.1198  -16.1175  -18.3390 C   0  0  0  0  0  0  0  0  0  0  0  0
   31.1884  -17.3563  -17.7208 C   0  0  0  0  0  0  0  0  0  0  0  0
   30.2626  -17.6433  -16.7330 C   0  0  0  0  0  0  0  0  0  0  0  0
   26.5548  -18.5732  -14.5456 C   0  0  0  0  0  0  0  0  0  0  0  0
   25.8570  -17.6296  -14.0906 O   0  0  0  0  0  0  0  0  0  0  0  0
   19.8080  -21.1385  -10.3035 O   0  0  0  0  0  0  0  0  0  0  0  0
   20.9405  -21.1418  -11.1063 C   0  0  0  0  0  0  0  0  0  0  0  0
   21.8541  -22.1714  -11.0202 C   0  0  0  0  0  0  0  0  0  0  0  0
   22.9727  -22.1670  -11.8187 C   0  0  0  0  0  0  0  0  0  0  0  0
   23.1788  -21.1402  -12.6992 C   0  0  0  0  0  0  0  0  0  0  0  0
   24.4064  -21.1803  -13.5408 C   0  0  0  0  0  0  0  0  0  0  0  0
   25.3669  -20.1490  -12.9671 C   0  0  2  0  0  0  0  0  0  0  0  0
   26.3748  -19.8571  -13.9661 N   0  0  0  0  0  0  0  0  0  0  0  0
   26.0037  -20.7613  -11.7728 C   0  0  0  0  0  0  0  0  0  0  0  0
   26.8125  -21.7254  -11.8631 O   0  0  0  0  0  0  0  0  0  0  0  0
   22.2925  -20.1097  -12.8053 C   0  0  0  0  0  0  0  0  0  0  0  0
   21.1702  -20.1298  -11.9928 C   0  0  0  0  0  0  0  0  0  0  0  0
   28.0973  -19.6827   -4.2921 C   0  0  0  0  0  0  0  0  0  0  0  0
   27.6522  -19.1129   -5.9748 S   0  0  0  0  0  0  0  0  0  0  0  0
   26.9360  -20.3846   -6.9585 C   0  0  0  0  0  0  0  0  0  0  0  0
   26.6573  -20.1239   -8.3645 C   0  0  0  0  0  0  0  0  0  0  0  0
   26.0714  -21.1140   -9.2961 C   0  0  2  0  0  0  0  0  0  0  0  0
   25.7085  -20.2657  -10.5036 N   0  0  0  0  0  0  0  0  0  0  0  0
   24.6979  -21.5395   -8.8002 C   0  0  0  0  0  0  0  0  0  0  0  0
   23.6967  -20.7730   -9.1124 O   0  0  0  0  0  0  0  0  0  0  0  0
   24.3854  -22.6265   -8.0658 O   0  0  0  0  0  0  0  0  0  0  0  0
  2  1  1  6
  3  2  1  0
  3  4  1  0
  4  5  2  0
  5  6  1  0
  7  6  2  0
  8  7  1  0
  9  8  2  0
  9  4  1  0
 10  2  1  0
 10 19  1  0
 11 10  2  0
 13 14  2  0
 13 12  1  0
 15 14  1  0
 16 15  2  0
 17 16  1  0
 18 17  1  6
 18 19  1  0
 20 29  1  0
 20 18  1  0
 21 20  2  0
 22 16  1  0
 22 23  2  0
 23 13  1  0
 24 25  1  0
 25 26  1  0
 26 27  1  0
 28 27  1  1
 28 29  1  0
 28 30  1  0
 30 32  1  0
 31 30  2  0
M  END
$$$$
