FYM.pdb
     RDKit          3D

 32 33  0  0  1  0  0  0  0  0999 V2000
   26.3960  -22.9191  -10.9502 N   0  0  0  0  0  0  0  0  0  0  0  0
   25.7764  -21.6089  -10.8998 C   0  0  1  0  0  0  0  0  0  0  0  0
   26.8791  -20.5742  -10.9520 C   0  0  0  0  0  0  0  0  0  0  0  0
   27.5346  -20.4110   -9.6328 C   0  0  0  0  0  0  0  0  0  0  0  0
   26.8770  -19.7616   -8.6087 C   0  0  0  0  0  0  0  0  0  0  0  0
   27.4517  -19.5840   -7.3512 C   0  0  0  0  0  0  0  0  0  0  0  0
   28.7163  -20.0822   -7.1519 C   0  0  0  0  0  0  0  0  0  0  0  0
   29.4090  -20.7404   -8.1561 C   0  0  0  0  0  0  0  0  0  0  0  0
   28.7902  -20.8883   -9.3851 C   0  0  0  0  0  0  0  0  0  0  0  0
   24.8943  -21.4279  -12.0649 C   0  0  0  0  0  0  0  0  0  0  0  0
   25.1180  -22.0842  -13.1154 O   0  0  0  0  0  0  0  0  0  0  0  0
   19.2661  -24.1797   -9.4294 O   0  0  0  0  0  0  0  0  0  0  0  0
   19.8132  -23.1466  -10.1780 C   0  0  0  0  0  0  0  0  0  0  0  0
   19.6933  -23.1408  -11.5520 C   0  0  0  0  0  0  0  0  0  0  0  0
   20.2379  -22.1141  -12.2856 C   0  0  0  0  0  0  0  0  0  0  0  0
   20.8990  -21.0978  -11.6514 C   0  0  0  0  0  0  0  0  0  0  0  0
   21.4727  -20.0099  -12.4904 C   0  0  0  0  0  0  0  0  0  0  0  0
   22.7593  -20.5526  -13.0950 C   0  0  2  0  0  0  0  0  0  0  0  0
   23.7860  -20.5401  -12.0729 N   0  0  0  0  0  0  0  0  0  0  0  0
   23.1406  -19.6398  -14.2034 C   0  0  0  0  0  0  0  0  0  0  0  0
   23.6048  -18.4856  -13.9932 O   0  0  0  0  0  0  0  0  0  0  0  0
   21.0326  -21.0780  -10.2947 C   0  0  0  0  0  0  0  0  0  0  0  0
   20.4776  -22.1208   -9.5705 C   0  0  0  0  0  0  0  0  0  0  0  0
   25.7845  -20.2039  -21.5892 C   0  0  0  0  0  0  0  0  0  0  0  0
   25.2543  -20.8844  -19.9736 S   0  0  0  0  0  0  0  0  0  0  0  0
   24.6204  -19.6516  -18.8891 C   0  0  0  0  0  0  0  0  0  0  0  0
   24.0991  -20.0493  -17.5881 C   0  0  0  0  0  0  0  0  0  0  0  0
   23.4460  -19.1254  -16.6334 C   0  0  2  0  0  0  0  0  0  0  0  0
   22.9866  -20.0574  -15.5246 N   0  0  0  0  0  0  0  0  0  0  0  0
   22.1172  -18.6509  -17.2013 C   0  0  0  0  0  0  0  0  0  0  0  0
   21.0628  -19.3403  -16.8844 O   0  0  0  0  0  0  0  0  0  0  0  0
   21.8939  -17.5911  -18.0046 O   0  0  0  0  0  0  0  0  0  0  0  0
  2  1  1  6
  3  2  1  0
  3  4  1  0
  4  5  2  0
  5  6  1  0
  7  6  2  0
  8  7  1  0
  9  8  2  0
  9  4  1  0
 10  2  1  0
 10 19  1  0
 11 10  2  0
 13 14  2  0
 13 12  1  0
 15 14  1  0
 16 15  2  0
 17 16  1  0
 18 17  1  1
 18 19  1  0
 20 29  1  0
 20 18  1  0
 21 20  2  0
 22 16  1  0
 22 23  2  0
 23 13  1  0
 24 25  1  0
 25 26  1  0
 26 27  1  0
 28 27  1  6
 28 29  1  0
 28 30  1  0
 30 32  1  0
 31 30  2  0
M  END
$$$$
