FYM.pdb
     RDKit          3D

 32 33  0  0  1  0  0  0  0  0999 V2000
   27.1188  -19.8962  -19.4098 N   0  0  0  0  0  0  0  0  0  0  0  0
   26.2597  -19.3142  -18.3968 C   0  0  1  0  0  0  0  0  0  0  0  0
   25.3242  -18.3450  -19.0859 C   0  0  0  0  0  0  0  0  0  0  0  0
   26.0443  -17.1409  -19.5640 C   0  0  0  0  0  0  0  0  0  0  0  0
   27.1271  -16.6568  -18.8597 C   0  0  0  0  0  0  0  0  0  0  0  0
   27.8360  -15.5287  -19.2696 C   0  0  0  0  0  0  0  0  0  0  0  0
   27.4213  -14.8970  -20.4168 C   0  0  0  0  0  0  0  0  0  0  0  0
   26.3381  -15.3533  -21.1516 C   0  0  0  0  0  0  0  0  0  0  0  0
   25.6709  -16.4778  -20.6983 C   0  0  0  0  0  0  0  0  0  0  0  0
   25.4633  -20.3703  -17.7497 C   0  0  0  0  0  0  0  0  0  0  0  0
   25.0354  -21.3310  -18.4413 O   0  0  0  0  0  0  0  0  0  0  0  0
   29.2203  -25.0638  -17.1842 O   0  0  0  0  0  0  0  0  0  0  0  0
   28.2313  -24.3220  -16.5527 C   0  0  0  0  0  0  0  0  0  0  0  0
   28.4347  -22.9884  -16.2663 C   0  0  0  0  0  0  0  0  0  0  0  0
   27.4504  -22.2613  -15.6408 C   0  0  0  0  0  0  0  0  0  0  0  0
   26.2684  -22.8620  -15.3028 C   0  0  0  0  0  0  0  0  0  0  0  0
   25.2343  -22.0322  -14.6252 C   0  0  0  0  0  0  0  0  0  0  0  0
   24.3777  -21.4154  -15.7212 C   0  0  2  0  0  0  0  0  0  0  0  0
   25.1440  -20.3685  -16.3660 N   0  0  0  0  0  0  0  0  0  0  0  0
   23.1804  -20.8313  -15.0636 C   0  0  0  0  0  0  0  0  0  0  0  0
   23.2645  -19.8826  -14.2362 O   0  0  0  0  0  0  0  0  0  0  0  0
   26.0402  -24.1785  -15.5738 C   0  0  0  0  0  0  0  0  0  0  0  0
   27.0433  -24.8967  -16.2047 C   0  0  0  0  0  0  0  0  0  0  0  0
   19.3220  -18.2005  -18.4518 C   0  0  0  0  0  0  0  0  0  0  0  0
   18.0400  -18.6788  -17.2343 S   0  0  0  0  0  0  0  0  0  0  0  0
   18.7158  -19.4166  -15.7863 C   0  0  0  0  0  0  0  0  0  0  0  0
   20.0464  -20.0069  -15.8440 C   0  0  0  0  0  0  0  0  0  0  0  0
   20.7077  -20.6857  -14.7067 C   0  0  2  0  0  0  0  0  0  0  0  0
   21.9154  -21.3368  -15.3600 N   0  0  0  0  0  0  0  0  0  0  0  0
   19.8959  -21.9021  -14.2889 C   0  0  0  0  0  0  0  0  0  0  0  0
   18.9633  -21.7111  -13.4050 O   0  0  0  0  0  0  0  0  0  0  0  0
   20.0256  -23.1713  -14.7258 O   0  0  0  0  0  0  0  0  0  0  0  0
  2  1  1  6
  3  2  1  0
  3  4  1  0
  4  5  2  0
  5  6  1  0
  7  6  2  0
  8  7  1  0
  9  8  2  0
  9  4  1  0
 10  2  1  0
 10 19  1  0
 11 10  2  0
 13 14  2  0
 13 12  1  0
 15 14  1  0
 16 15  2  0
 17 16  1  0
 18 17  1  1
 18 19  1  0
 20 29  1  0
 20 18  1  0
 21 20  2  0
 22 16  1  0
 22 23  2  0
 23 13  1  0
 24 25  1  0
 25 26  1  0
 26 27  1  0
 28 27  1  6
 28 29  1  0
 28 30  1  0
 30 32  1  0
 31 30  2  0
M  END
$$$$
