FYM.pdb
     RDKit          3D

 32 33  0  0  1  0  0  0  0  0999 V2000
   26.9458  -17.4325  -18.0299 N   0  0  0  0  0  0  0  0  0  0  0  0
   27.5193  -17.9568  -16.8054 C   0  0  1  0  0  0  0  0  0  0  0  0
   28.4281  -16.8933  -16.2287 C   0  0  0  0  0  0  0  0  0  0  0  0
   29.6233  -16.6799  -17.0788 C   0  0  0  0  0  0  0  0  0  0  0  0
   30.4720  -17.7314  -17.3564 C   0  0  0  0  0  0  0  0  0  0  0  0
   31.6075  -17.5801  -18.1506 C   0  0  0  0  0  0  0  0  0  0  0  0
   31.8667  -16.3315  -18.6615 C   0  0  0  0  0  0  0  0  0  0  0  0
   31.0377  -15.2505  -18.4051 C   0  0  0  0  0  0  0  0  0  0  0  0
   29.9240  -15.4580  -17.6101 C   0  0  0  0  0  0  0  0  0  0  0  0
   26.4491  -18.2487  -15.8370 C   0  0  0  0  0  0  0  0  0  0  0  0
   25.6247  -17.3456  -15.5384 O   0  0  0  0  0  0  0  0  0  0  0  0
   20.0300  -21.6731  -11.3655 O   0  0  0  0  0  0  0  0  0  0  0  0
   21.0563  -21.4282  -12.2677 C   0  0  0  0  0  0  0  0  0  0  0  0
   21.1243  -20.2246  -12.9375 C   0  0  0  0  0  0  0  0  0  0  0  0
   22.1438  -19.9903  -13.8291 C   0  0  0  0  0  0  0  0  0  0  0  0
   23.0910  -20.9524  -14.0511 C   0  0  0  0  0  0  0  0  0  0  0  0
   24.1739  -20.6512  -15.0275 C   0  0  0  0  0  0  0  0  0  0  0  0
   25.2118  -19.8179  -14.2903 C   0  0  2  0  0  0  0  0  0  0  0  0
   26.2897  -19.5123  -15.2089 N   0  0  0  0  0  0  0  0  0  0  0  0
   25.7245  -20.6488  -13.1705 C   0  0  0  0  0  0  0  0  0  0  0  0
   26.3418  -21.7316  -13.3658 O   0  0  0  0  0  0  0  0  0  0  0  0
   23.0483  -22.1511  -13.4030 C   0  0  0  0  0  0  0  0  0  0  0  0
   22.0138  -22.3708  -12.5077 C   0  0  0  0  0  0  0  0  0  0  0  0
   27.5519  -18.3879   -6.1981 C   0  0  0  0  0  0  0  0  0  0  0  0
   28.0609  -19.2487   -7.7326 S   0  0  0  0  0  0  0  0  0  0  0  0
   26.6950  -19.6993   -8.7471 C   0  0  0  0  0  0  0  0  0  0  0  0
   26.9403  -20.4105   -9.9946 C   0  0  0  0  0  0  0  0  0  0  0  0
   25.9127  -21.1796  -10.7322 C   0  0  2  0  0  0  0  0  0  0  0  0
   25.5251  -20.2321  -11.8551 N   0  0  0  0  0  0  0  0  0  0  0  0
   24.6267  -21.2320   -9.9216 C   0  0  0  0  0  0  0  0  0  0  0  0
   24.6104  -22.0290   -8.8960 O   0  0  0  0  0  0  0  0  0  0  0  0
   23.4856  -20.5468  -10.1382 O   0  0  0  0  0  0  0  0  0  0  0  0
  2  1  1  6
  3  2  1  0
  3  4  1  0
  4  5  2  0
  5  6  1  0
  7  6  2  0
  8  7  1  0
  9  8  2  0
  9  4  1  0
 10  2  1  0
 10 19  1  0
 11 10  2  0
 13 14  2  0
 13 12  1  0
 15 14  1  0
 16 15  2  0
 17 16  1  0
 18 17  1  6
 18 19  1  0
 20 29  1  0
 20 18  1  0
 21 20  2  0
 22 16  1  0
 22 23  2  0
 23 13  1  0
 24 25  1  0
 25 26  1  0
 26 27  1  0
 28 27  1  1
 28 29  1  0
 28 30  1  0
 30 32  1  0
 31 30  2  0
M  END
$$$$
