FYM.pdb
     RDKit          3D

 32 33  0  0  1  0  0  0  0  0999 V2000
   21.6731  -29.9242    3.4249 N   0  0  0  0  0  0  0  0  0  0  0  0
   23.0926  -30.2073    3.5148 C   0  0  1  0  0  0  0  0  0  0  0  0
   23.3420  -30.9037    4.8347 C   0  0  0  0  0  0  0  0  0  0  0  0
   24.7845  -31.1732    5.0433 C   0  0  0  0  0  0  0  0  0  0  0  0
   25.3227  -32.3876    4.6715 C   0  0  0  0  0  0  0  0  0  0  0  0
   26.6726  -32.6872    4.8472 C   0  0  0  0  0  0  0  0  0  0  0  0
   27.4717  -31.7229    5.4118 C   0  0  0  0  0  0  0  0  0  0  0  0
   26.9678  -30.4908    5.7983 C   0  0  0  0  0  0  0  0  0  0  0  0
   25.6199  -30.2473    5.6005 C   0  0  0  0  0  0  0  0  0  0  0  0
   23.4942  -31.1031    2.4173 C   0  0  0  0  0  0  0  0  0  0  0  0
   22.7482  -32.0674    2.1042 O   0  0  0  0  0  0  0  0  0  0  0  0
   26.2674  -34.3035   -5.0033 O   0  0  0  0  0  0  0  0  0  0  0  0
   26.1214  -33.4787   -3.8963 C   0  0  0  0  0  0  0  0  0  0  0  0
   27.1720  -33.2900   -3.0231 C   0  0  0  0  0  0  0  0  0  0  0  0
   27.0191  -32.4717   -1.9295 C   0  0  0  0  0  0  0  0  0  0  0  0
   25.8233  -31.8444   -1.7083 C   0  0  0  0  0  0  0  0  0  0  0  0
   25.7072  -30.9698   -0.5090 C   0  0  0  0  0  0  0  0  0  0  0  0
   25.0936  -31.8173    0.5958 C   0  0  2  0  0  0  0  0  0  0  0  0
   24.6956  -30.9400    1.6779 N   0  0  0  0  0  0  0  0  0  0  0  0
   26.1480  -32.7519    1.0667 C   0  0  0  0  0  0  0  0  0  0  0  0
   27.1684  -32.3527    1.6921 O   0  0  0  0  0  0  0  0  0  0  0  0
   24.7681  -32.0128   -2.5549 C   0  0  0  0  0  0  0  0  0  0  0  0
   24.9395  -32.8412   -3.6523 C   0  0  0  0  0  0  0  0  0  0  0  0
   24.6672  -36.3394    6.2241 C   0  0  0  0  0  0  0  0  0  0  0  0
   25.1451  -36.9226    4.5550 S   0  0  0  0  0  0  0  0  0  0  0  0
   25.9375  -35.6762    3.5977 C   0  0  0  0  0  0  0  0  0  0  0  0
   26.3179  -35.9704    2.2226 C   0  0  0  0  0  0  0  0  0  0  0  0
   27.0909  -35.0518    1.3563 C   0  0  2  0  0  0  0  0  0  0  0  0
   26.0205  -34.1176    0.8174 N   0  0  0  0  0  0  0  0  0  0  0  0
   27.5251  -35.7776    0.0922 C   0  0  0  0  0  0  0  0  0  0  0  0
   26.5905  -36.1019   -0.7498 O   0  0  0  0  0  0  0  0  0  0  0  0
   28.7751  -36.1327   -0.2681 O   0  0  0  0  0  0  0  0  0  0  0  0
  2  1  1  6
  3  2  1  0
  3  4  1  0
  4  5  2  0
  5  6  1  0
  7  6  2  0
  8  7  1  0
  9  8  2  0
  9  4  1  0
 10  2  1  0
 10 19  1  0
 11 10  2  0
 13 14  2  0
 13 12  1  0
 15 14  1  0
 16 15  2  0
 17 16  1  0
 18 17  1  6
 18 19  1  0
 20 29  1  0
 20 18  1  0
 21 20  2  0
 22 16  1  0
 22 23  2  0
 23 13  1  0
 24 25  1  0
 25 26  1  0
 26 27  1  0
 28 27  1  1
 28 29  1  0
 28 30  1  0
 30 32  1  0
 31 30  2  0
M  END
$$$$
