FYM.pdb
     RDKit          3D

 32 33  0  0  1  0  0  0  0  0999 V2000
   25.9430  -20.0871  -18.9589 N   0  0  0  0  0  0  0  0  0  0  0  0
   25.5909  -19.4106  -17.7254 C   0  0  1  0  0  0  0  0  0  0  0  0
   25.0119  -18.0606  -18.0881 C   0  0  0  0  0  0  0  0  0  0  0  0
   26.0359  -17.1733  -18.6890 C   0  0  0  0  0  0  0  0  0  0  0  0
   27.0109  -16.6051  -17.8957 C   0  0  0  0  0  0  0  0  0  0  0  0
   27.9947  -15.7649  -18.4146 C   0  0  0  0  0  0  0  0  0  0  0  0
   27.9695  -15.5110  -19.7645 C   0  0  0  0  0  0  0  0  0  0  0  0
   27.0061  -16.0633  -20.5940 C   0  0  0  0  0  0  0  0  0  0  0  0
   26.0533  -16.8903  -20.0251 C   0  0  0  0  0  0  0  0  0  0  0  0
   24.5725  -20.1895  -17.0012 C   0  0  0  0  0  0  0  0  0  0  0  0
   23.5830  -20.6467  -17.6308 O   0  0  0  0  0  0  0  0  0  0  0  0
   26.7344  -26.3143  -16.8073 O   0  0  0  0  0  0  0  0  0  0  0  0
   26.1569  -25.2761  -16.0892 C   0  0  0  0  0  0  0  0  0  0  0  0
   24.9622  -25.4654  -15.4268 C   0  0  0  0  0  0  0  0  0  0  0  0
   24.3972  -24.4321  -14.7182 C   0  0  0  0  0  0  0  0  0  0  0  0
   25.0216  -23.2156  -14.6705 C   0  0  0  0  0  0  0  0  0  0  0  0
   24.3687  -22.1278  -13.8913 C   0  0  0  0  0  0  0  0  0  0  0  0
   23.6503  -21.2378  -14.8949 C   0  0  2  0  0  0  0  0  0  0  0  0
   24.6425  -20.4601  -15.6089 N   0  0  0  0  0  0  0  0  0  0  0  0
   22.7627  -20.3329  -14.1201 C   0  0  0  0  0  0  0  0  0  0  0  0
   23.2163  -19.3946  -13.4090 O   0  0  0  0  0  0  0  0  0  0  0  0
   26.2032  -23.0003  -15.3157 C   0  0  0  0  0  0  0  0  0  0  0  0
   26.7587  -24.0527  -16.0255 C   0  0  0  0  0  0  0  0  0  0  0  0
   17.4143  -15.3392  -15.1391 C   0  0  0  0  0  0  0  0  0  0  0  0
   18.2178  -16.9708  -15.3562 S   0  0  0  0  0  0  0  0  0  0  0  0
   19.5602  -17.2232  -14.2462 C   0  0  0  0  0  0  0  0  0  0  0  0
   20.4123  -18.3926  -14.4156 C   0  0  0  0  0  0  0  0  0  0  0  0
   20.4968  -19.5101  -13.4483 C   0  0  2  0  0  0  0  0  0  0  0  0
   21.3812  -20.5132  -14.1699 N   0  0  0  0  0  0  0  0  0  0  0  0
   19.1706  -20.2533  -13.4011 C   0  0  0  0  0  0  0  0  0  0  0  0
   18.9896  -21.1894  -14.2835 O   0  0  0  0  0  0  0  0  0  0  0  0
   18.1448  -20.0585  -12.5478 O   0  0  0  0  0  0  0  0  0  0  0  0
  2  1  1  6
  3  2  1  0
  3  4  1  0
  4  5  2  0
  5  6  1  0
  7  6  2  0
  8  7  1  0
  9  8  2  0
  9  4  1  0
 10  2  1  0
 10 19  1  0
 11 10  2  0
 13 14  2  0
 13 12  1  0
 15 14  1  0
 16 15  2  0
 17 16  1  0
 18 17  1  1
 18 19  1  0
 20 29  1  0
 20 18  1  0
 21 20  2  0
 22 16  1  0
 22 23  2  0
 23 13  1  0
 24 25  1  0
 25 26  1  0
 26 27  1  0
 28 27  1  6
 28 29  1  0
 28 30  1  0
 30 32  1  0
 31 30  2  0
M  END
$$$$
