FYM.pdb
     RDKit          3D

 32 33  0  0  1  0  0  0  0  0999 V2000
   26.4969  -21.0440  -11.3278 N   0  0  0  0  0  0  0  0  0  0  0  0
   25.0629  -21.1331  -11.1302 C   0  0  1  0  0  0  0  0  0  0  0  0
   24.6429  -19.9664  -10.2630 C   0  0  0  0  0  0  0  0  0  0  0  0
   25.2412  -20.0517   -8.9096 C   0  0  0  0  0  0  0  0  0  0  0  0
   24.9156  -21.0997   -8.0737 C   0  0  0  0  0  0  0  0  0  0  0  0
   25.4523  -21.2232   -6.7932 C   0  0  0  0  0  0  0  0  0  0  0  0
   26.3326  -20.2551   -6.3746 C   0  0  0  0  0  0  0  0  0  0  0  0
   26.6843  -19.1873   -7.1854 C   0  0  0  0  0  0  0  0  0  0  0  0
   26.1210  -19.1147   -8.4475 C   0  0  0  0  0  0  0  0  0  0  0  0
   24.3727  -21.0382  -12.4274 C   0  0  0  0  0  0  0  0  0  0  0  0
   24.5915  -20.0466  -13.1712 O   0  0  0  0  0  0  0  0  0  0  0  0
   28.5000  -20.6816  -16.4200 O   0  0  0  0  0  0  0  0  0  0  0  0
   27.2731  -21.2430  -16.0936 C   0  0  0  0  0  0  0  0  0  0  0  0
   26.1571  -20.9745  -16.8583 C   0  0  0  0  0  0  0  0  0  0  0  0
   24.9462  -21.5344  -16.5282 C   0  0  0  0  0  0  0  0  0  0  0  0
   24.8490  -22.3586  -15.4402 C   0  0  0  0  0  0  0  0  0  0  0  0
   23.5151  -22.9389  -15.1231 C   0  0  0  0  0  0  0  0  0  0  0  0
   22.8171  -21.9558  -14.1949 C   0  0  2  0  0  0  0  0  0  0  0  0
   23.4581  -22.0178  -12.8971 N   0  0  0  0  0  0  0  0  0  0  0  0
   21.4019  -22.3929  -14.0793 C   0  0  0  0  0  0  0  0  0  0  0  0
   20.6324  -22.4479  -15.0776 O   0  0  0  0  0  0  0  0  0  0  0  0
   25.9356  -22.6412  -14.6668 C   0  0  0  0  0  0  0  0  0  0  0  0
   27.1486  -22.0682  -15.0137 C   0  0  0  0  0  0  0  0  0  0  0  0
   18.5083  -23.6224   -7.8318 C   0  0  0  0  0  0  0  0  0  0  0  0
   18.1424  -24.8547   -9.1364 S   0  0  0  0  0  0  0  0  0  0  0  0
   18.0931  -24.1483  -10.7477 C   0  0  0  0  0  0  0  0  0  0  0  0
   19.3414  -23.7689  -11.3960 C   0  0  0  0  0  0  0  0  0  0  0  0
   19.4306  -23.1625  -12.7435 C   0  0  2  0  0  0  0  0  0  0  0  0
   20.8925  -22.7578  -12.8339 N   0  0  0  0  0  0  0  0  0  0  0  0
   18.7396  -21.8076  -12.7465 C   0  0  0  0  0  0  0  0  0  0  0  0
   19.3260  -20.8472  -12.0974 O   0  0  0  0  0  0  0  0  0  0  0  0
   17.5782  -21.4742  -13.3452 O   0  0  0  0  0  0  0  0  0  0  0  0
  2  1  1  6
  3  2  1  0
  3  4  1  0
  4  5  2  0
  5  6  1  0
  7  6  2  0
  8  7  1  0
  9  8  2  0
  9  4  1  0
 10  2  1  0
 10 19  1  0
 11 10  2  0
 13 14  2  0
 13 12  1  0
 15 14  1  0
 16 15  2  0
 17 16  1  0
 18 17  1  6
 18 19  1  0
 20 29  1  0
 20 18  1  0
 21 20  2  0
 22 16  1  0
 22 23  2  0
 23 13  1  0
 24 25  1  0
 25 26  1  0
 26 27  1  0
 28 27  1  1
 28 29  1  0
 28 30  1  0
 30 32  1  0
 31 30  2  0
M  END
$$$$
