FYM.pdb
     RDKit          3D

 32 33  0  0  1  0  0  0  0  0999 V2000
   28.8755  -21.8043  -16.8675 N   0  0  0  0  0  0  0  0  0  0  0  0
   28.4045  -20.6716  -16.0940 C   0  0  1  0  0  0  0  0  0  0  0  0
   27.6230  -19.7700  -17.0245 C   0  0  0  0  0  0  0  0  0  0  0  0
   28.5223  -18.9824  -17.9009 C   0  0  0  0  0  0  0  0  0  0  0  0
   29.1961  -17.8890  -17.3976 C   0  0  0  0  0  0  0  0  0  0  0  0
   30.0524  -17.1180  -18.1821 C   0  0  0  0  0  0  0  0  0  0  0  0
   30.2126  -17.4813  -19.4972 C   0  0  0  0  0  0  0  0  0  0  0  0
   29.5529  -18.5732  -20.0393 C   0  0  0  0  0  0  0  0  0  0  0  0
   28.7148  -19.3030  -19.2146 C   0  0  0  0  0  0  0  0  0  0  0  0
   27.5135  -21.1368  -15.0180 C   0  0  0  0  0  0  0  0  0  0  0  0
   26.8241  -22.1751  -15.1940 O   0  0  0  0  0  0  0  0  0  0  0  0
   22.7180  -21.4315   -7.7713 O   0  0  0  0  0  0  0  0  0  0  0  0
   23.6670  -21.0535   -8.7113 C   0  0  0  0  0  0  0  0  0  0  0  0
   24.9208  -21.6280   -8.7073 C   0  0  0  0  0  0  0  0  0  0  0  0
   25.8545  -21.2480   -9.6415 C   0  0  0  0  0  0  0  0  0  0  0  0
   25.5387  -20.2993  -10.5755 C   0  0  0  0  0  0  0  0  0  0  0  0
   26.5850  -19.9206  -11.5647 C   0  0  0  0  0  0  0  0  0  0  0  0
   26.4139  -20.8445  -12.7616 C   0  0  2  0  0  0  0  0  0  0  0  0
   27.3842  -20.4707  -13.7705 N   0  0  0  0  0  0  0  0  0  0  0  0
   25.0386  -20.6346  -13.2829 C   0  0  0  0  0  0  0  0  0  0  0  0
   24.6854  -19.5537  -13.8293 O   0  0  0  0  0  0  0  0  0  0  0  0
   24.3073  -19.7149  -10.6029 C   0  0  0  0  0  0  0  0  0  0  0  0
   23.3780  -20.1096   -9.6538 C   0  0  0  0  0  0  0  0  0  0  0  0
   23.5316  -24.2332  -17.4428 C   0  0  0  0  0  0  0  0  0  0  0  0
   21.8006  -23.6820  -17.2095 S   0  0  0  0  0  0  0  0  0  0  0  0
   21.5980  -22.6479  -15.7998 C   0  0  0  0  0  0  0  0  0  0  0  0
   22.7543  -22.3489  -14.9655 C   0  0  0  0  0  0  0  0  0  0  0  0
   22.7263  -21.4429  -13.7950 C   0  0  2  0  0  0  0  0  0  0  0  0
   24.0960  -21.6558  -13.1723 N   0  0  0  0  0  0  0  0  0  0  0  0
   21.8126  -22.0146  -12.7217 C   0  0  0  0  0  0  0  0  0  0  0  0
   20.6739  -21.4165  -12.5396 O   0  0  0  0  0  0  0  0  0  0  0  0
   22.0403  -23.0776  -11.9238 O   0  0  0  0  0  0  0  0  0  0  0  0
  2  1  1  6
  3  2  1  0
  3  4  1  0
  4  5  2  0
  5  6  1  0
  7  6  2  0
  8  7  1  0
  9  8  2  0
  9  4  1  0
 10  2  1  0
 10 19  1  0
 11 10  2  0
 13 14  2  0
 13 12  1  0
 15 14  1  0
 16 15  2  0
 17 16  1  0
 18 17  1  1
 18 19  1  0
 20 29  1  0
 20 18  1  0
 21 20  2  0
 22 16  1  0
 22 23  2  0
 23 13  1  0
 24 25  1  0
 25 26  1  0
 26 27  1  0
 28 27  1  6
 28 29  1  0
 28 30  1  0
 30 32  1  0
 31 30  2  0
M  END
$$$$
