FYM.pdb
     RDKit          3D

 32 33  0  0  1  0  0  0  0  0999 V2000
   27.3104  -17.8409  -20.7861 N   0  0  0  0  0  0  0  0  0  0  0  0
   26.7230  -17.2165  -19.6164 C   0  0  1  0  0  0  0  0  0  0  0  0
   27.3756  -15.8630  -19.4386 C   0  0  0  0  0  0  0  0  0  0  0  0
   28.8522  -15.9753  -19.3767 C   0  0  0  0  0  0  0  0  0  0  0  0
   29.6387  -15.2502  -20.2477 C   0  0  0  0  0  0  0  0  0  0  0  0
   31.0306  -15.3221  -20.2278 C   0  0  0  0  0  0  0  0  0  0  0  0
   31.6131  -16.1506  -19.2996 C   0  0  0  0  0  0  0  0  0  0  0  0
   30.8567  -16.8949  -18.4078 C   0  0  0  0  0  0  0  0  0  0  0  0
   29.4787  -16.7847  -18.4723 C   0  0  0  0  0  0  0  0  0  0  0  0
   25.2774  -17.0274  -19.8236 C   0  0  0  0  0  0  0  0  0  0  0  0
   24.8441  -16.8110  -20.9854 O   0  0  0  0  0  0  0  0  0  0  0  0
   23.3355  -22.6036  -21.7958 O   0  0  0  0  0  0  0  0  0  0  0  0
   23.0706  -21.5365  -20.9483 C   0  0  0  0  0  0  0  0  0  0  0  0
   23.9026  -21.2694  -19.8813 C   0  0  0  0  0  0  0  0  0  0  0  0
   23.6331  -20.2110  -19.0471 C   0  0  0  0  0  0  0  0  0  0  0  0
   22.5386  -19.4226  -19.2764 C   0  0  0  0  0  0  0  0  0  0  0  0
   22.2887  -18.2895  -18.3434 C   0  0  0  0  0  0  0  0  0  0  0  0
   22.8936  -17.0495  -18.9851 C   0  0  2  0  0  0  0  0  0  0  0  0
   24.3262  -17.0759  -18.7703 N   0  0  0  0  0  0  0  0  0  0  0  0
   22.3031  -15.8706  -18.3007 C   0  0  0  0  0  0  0  0  0  0  0  0
   22.8084  -15.3787  -17.2545 O   0  0  0  0  0  0  0  0  0  0  0  0
   21.6992  -19.6635  -20.3234 C   0  0  0  0  0  0  0  0  0  0  0  0
   21.9856  -20.7346  -21.1544 C   0  0  0  0  0  0  0  0  0  0  0  0
   19.3171  -10.0601  -21.2247 C   0  0  0  0  0  0  0  0  0  0  0  0
   18.3254  -11.4299  -20.5214 S   0  0  0  0  0  0  0  0  0  0  0  0
   19.0734  -12.1554  -19.1030 C   0  0  0  0  0  0  0  0  0  0  0  0
   19.8706  -13.3646  -19.2600 C   0  0  0  0  0  0  0  0  0  0  0  0
   20.6468  -13.9991  -18.1707 C   0  0  2  0  0  0  0  0  0  0  0  0
   21.1531  -15.2769  -18.8188 N   0  0  0  0  0  0  0  0  0  0  0  0
   19.7001  -14.5486  -17.1148 C   0  0  0  0  0  0  0  0  0  0  0  0
   19.4476  -15.8222  -17.1573 O   0  0  0  0  0  0  0  0  0  0  0  0
   19.0804  -13.8702  -16.1278 O   0  0  0  0  0  0  0  0  0  0  0  0
  2  1  1  6
  3  2  1  0
  3  4  1  0
  4  5  2  0
  5  6  1  0
  7  6  2  0
  8  7  1  0
  9  8  2  0
  9  4  1  0
 10  2  1  0
 10 19  1  0
 11 10  2  0
 13 14  2  0
 13 12  1  0
 15 14  1  0
 16 15  2  0
 17 16  1  0
 18 17  1  1
 18 19  1  0
 20 29  1  0
 20 18  1  0
 21 20  2  0
 22 16  1  0
 22 23  2  0
 23 13  1  0
 24 25  1  0
 25 26  1  0
 26 27  1  0
 28 27  1  6
 28 29  1  0
 28 30  1  0
 30 32  1  0
 31 30  2  0
M  END
$$$$
