NSD.pdb
     RDKit          3D

 23 22  0  0  1  0  0  0  0  0999 V2000
    9.2112  -17.9326   14.4663 N   0  0  0  0  0  0  0  0  0  0  0  0
    8.2181  -17.3326   15.2793 C   0  0  0  0  0  0  0  0  0  0  0  0
    6.9916  -17.4755   14.9553 O   0  0  0  0  0  0  0  0  0  0  0  0
    8.5100  -16.5467   16.4856 C   0  0  0  0  0  0  0  0  0  0  0  0
    8.6331  -17.4109   17.7212 C   0  0  2  0  0  0  0  0  0  0  0  0
    7.3568  -17.9992   17.9888 N   0  0  0  0  0  0  0  0  0  0  0  0
    9.0857  -16.5122   18.8255 C   0  0  0  0  0  0  0  0  0  0  0  0
   10.2598  -16.0618   18.8224 O   0  0  0  0  0  0  0  0  0  0  0  0
    7.0321  -16.1113   22.4695 O   0  0  0  0  0  0  0  0  0  0  0  0
    7.5289  -14.9641   21.8677 C   0  0  0  0  0  0  0  0  0  0  0  0
    8.7451  -15.3764   21.0459 C   0  0  2  0  0  0  0  0  0  0  0  0
    8.2478  -16.1238   19.9102 N   0  0  0  0  0  0  0  0  0  0  0  0
    9.7091  -16.1534   21.8512 C   0  0  0  0  0  0  0  0  0  0  0  0
    9.6858  -17.4189   21.7859 O   0  0  0  0  0  0  0  0  0  0  0  0
   10.6826  -15.5919   22.7123 N   0  0  0  0  0  0  0  0  0  0  0  0
   11.6995  -16.4329   23.3796 C   0  0  1  0  0  0  0  0  0  0  0  0
   13.0160  -15.8800   22.9601 C   0  0  0  0  0  0  0  0  0  0  0  0
   14.1936  -16.5272   23.5524 C   0  0  0  0  0  0  0  0  0  0  0  0
   14.3278  -17.7655   23.5447 O   0  0  0  0  0  0  0  0  0  0  0  0
   11.4503  -16.4226   24.8376 C   0  0  0  0  0  0  0  0  0  0  0  0
   10.3712  -15.6979   25.3553 O   0  0  0  0  0  0  0  0  0  0  0  0
   15.2129  -15.7966   24.1482 O   0  0  0  0  0  0  0  0  0  0  0  0
   12.1446  -17.0264   25.6782 O   0  0  0  0  0  0  0  0  0  0  0  0
  2  1  1  0
  2  4  1  0
  3  2  2  0
  4  5  1  0
  5  6  1  1
  7 12  1  0
  7  5  1  0
  8  7  2  0
  9 10  1  0
 11 10  1  1
 11 13  1  0
 11 12  1  0
 13 15  1  0
 14 13  2  0
 15 16  1  0
 16 17  1  1
 17 18  1  0
 18 19  2  0
 20 16  1  0
 20 21  1  0
 22 18  1  0
 23 20  2  0
M  END
$$$$
