NSD.pdb
     RDKit          3D

 23 22  0  0  1  0  0  0  0  0999 V2000
    7.8881  -15.4296   14.5958 N   0  0  0  0  0  0  0  0  0  0  0  0
    7.9384  -14.0950   15.0687 C   0  0  0  0  0  0  0  0  0  0  0  0
    7.6672  -13.1466   14.2584 O   0  0  0  0  0  0  0  0  0  0  0  0
    8.2866  -13.7256   16.4473 C   0  0  0  0  0  0  0  0  0  0  0  0
    8.5336  -14.9339   17.3234 C   0  0  2  0  0  0  0  0  0  0  0  0
    7.3739  -15.7703   17.2751 N   0  0  0  0  0  0  0  0  0  0  0  0
    8.8012  -14.4148   18.6985 C   0  0  0  0  0  0  0  0  0  0  0  0
    9.8428  -13.7465   18.9218 O   0  0  0  0  0  0  0  0  0  0  0  0
    6.4144  -15.5554   21.8726 O   0  0  0  0  0  0  0  0  0  0  0  0
    7.0523  -14.3300   22.0003 C   0  0  0  0  0  0  0  0  0  0  0  0
    8.3300  -14.3980   21.1711 C   0  0  2  0  0  0  0  0  0  0  0  0
    7.9268  -14.6357   19.8012 N   0  0  0  0  0  0  0  0  0  0  0  0
    9.2513  -15.4373   21.6739 C   0  0  0  0  0  0  0  0  0  0  0  0
    9.3012  -16.5550   21.0784 O   0  0  0  0  0  0  0  0  0  0  0  0
   10.1058  -15.2889   22.7929 N   0  0  0  0  0  0  0  0  0  0  0  0
   11.0208  -16.3717   23.2140 C   0  0  1  0  0  0  0  0  0  0  0  0
   12.3885  -15.7884   23.1521 C   0  0  0  0  0  0  0  0  0  0  0  0
   13.4920  -16.7573   23.1551 C   0  0  0  0  0  0  0  0  0  0  0  0
   13.2812  -17.9827   23.2277 O   0  0  0  0  0  0  0  0  0  0  0  0
   10.6063  -16.8598   24.5473 C   0  0  0  0  0  0  0  0  0  0  0  0
   10.7423  -18.2152   24.8668 O   0  0  0  0  0  0  0  0  0  0  0  0
   14.8201  -16.3599   23.0776 O   0  0  0  0  0  0  0  0  0  0  0  0
   10.1278  -16.1414   25.4463 O   0  0  0  0  0  0  0  0  0  0  0  0
  2  1  1  0
  2  4  1  0
  3  2  2  0
  4  5  1  0
  5  6  1  1
  7 12  1  0
  7  5  1  0
  8  7  2  0
  9 10  1  0
 11 10  1  1
 11 13  1  0
 11 12  1  0
 13 15  1  0
 14 13  2  0
 15 16  1  0
 16 17  1  1
 17 18  1  0
 18 19  2  0
 20 16  1  0
 20 21  1  0
 22 18  1  0
 23 20  2  0
M  END
$$$$
