NSD.pdb
     RDKit          3D

 23 22  0  0  1  0  0  0  0  0999 V2000
    8.9633  -21.3448   17.5096 N   0  0  0  0  0  0  0  0  0  0  0  0
    9.0804  -20.0688   16.9052 C   0  0  0  0  0  0  0  0  0  0  0  0
    8.7220  -19.9317   15.6876 O   0  0  0  0  0  0  0  0  0  0  0  0
    9.5934  -18.8778   17.5956 C   0  0  0  0  0  0  0  0  0  0  0  0
    8.5016  -17.8800   17.9130 C   0  0  2  0  0  0  0  0  0  0  0  0
    8.1486  -17.1986   16.7055 N   0  0  0  0  0  0  0  0  0  0  0  0
    9.0587  -16.9536   18.9444 C   0  0  0  0  0  0  0  0  0  0  0  0
   10.2947  -16.7245   18.9753 O   0  0  0  0  0  0  0  0  0  0  0  0
    6.9118  -15.7762   22.2252 O   0  0  0  0  0  0  0  0  0  0  0  0
    7.6369  -14.7530   21.6316 C   0  0  0  0  0  0  0  0  0  0  0  0
    8.8140  -15.3961   20.9066 C   0  0  2  0  0  0  0  0  0  0  0  0
    8.2554  -16.2968   19.9205 N   0  0  0  0  0  0  0  0  0  0  0  0
    9.7222  -16.0849   21.8459 C   0  0  0  0  0  0  0  0  0  0  0  0
    9.5289  -17.3113   22.1004 O   0  0  0  0  0  0  0  0  0  0  0  0
   10.8189  -15.4775   22.5038 N   0  0  0  0  0  0  0  0  0  0  0  0
   11.7095  -16.2520   23.3947 C   0  0  1  0  0  0  0  0  0  0  0  0
   13.0851  -15.7572   23.1163 C   0  0  0  0  0  0  0  0  0  0  0  0
   14.1601  -16.4133   23.8714 C   0  0  0  0  0  0  0  0  0  0  0  0
   14.0825  -17.6104   24.2064 O   0  0  0  0  0  0  0  0  0  0  0  0
   11.2537  -16.0862   24.7922 C   0  0  0  0  0  0  0  0  0  0  0  0
   10.1512  -15.2721   25.0739 O   0  0  0  0  0  0  0  0  0  0  0  0
   15.3125  -15.7371   24.2490 O   0  0  0  0  0  0  0  0  0  0  0  0
   11.7868  -16.6293   25.7792 O   0  0  0  0  0  0  0  0  0  0  0  0
  2  1  1  0
  2  4  1  0
  3  2  2  0
  4  5  1  0
  5  6  1  6
  7 12  1  0
  7  5  1  0
  8  7  2  0
  9 10  1  0
 11 10  1  1
 11 13  1  0
 11 12  1  0
 13 15  1  0
 14 13  2  0
 15 16  1  0
 16 17  1  1
 17 18  1  0
 18 19  2  0
 20 16  1  0
 20 21  1  0
 22 18  1  0
 23 20  2  0
M  END
$$$$
