NSD.pdb
     RDKit          3D

 23 22  0  0  1  0  0  0  0  0999 V2000
    7.0289  -16.4721   12.8851 N   0  0  0  0  0  0  0  0  0  0  0  0
    7.4470  -15.1187   12.8629 C   0  0  0  0  0  0  0  0  0  0  0  0
    7.2443  -14.4314   11.8063 O   0  0  0  0  0  0  0  0  0  0  0  0
    8.1067  -14.4451   13.9895 C   0  0  0  0  0  0  0  0  0  0  0  0
    8.4310  -15.3962   15.1203 C   0  0  2  0  0  0  0  0  0  0  0  0
    7.2071  -15.9621   15.5984 N   0  0  0  0  0  0  0  0  0  0  0  0
    9.1298  -14.5905   16.1666 C   0  0  0  0  0  0  0  0  0  0  0  0
   10.2777  -14.1311   15.9376 O   0  0  0  0  0  0  0  0  0  0  0  0
    7.6855  -14.3006   20.0544 O   0  0  0  0  0  0  0  0  0  0  0  0
    8.2881  -13.1695   19.5227 C   0  0  0  0  0  0  0  0  0  0  0  0
    9.3068  -13.6434   18.4920 C   0  0  2  0  0  0  0  0  0  0  0  0
    8.5614  -14.3030   17.4409 N   0  0  0  0  0  0  0  0  0  0  0  0
   10.3247  -14.5258   19.0976 C   0  0  0  0  0  0  0  0  0  0  0  0
   10.2058  -15.7809   18.9685 O   0  0  0  0  0  0  0  0  0  0  0  0
   11.4516  -14.0788   19.8290 N   0  0  0  0  0  0  0  0  0  0  0  0
   12.4421  -15.0300   20.3778 C   0  0  1  0  0  0  0  0  0  0  0  0
   13.7060  -14.2570   20.5181 C   0  0  0  0  0  0  0  0  0  0  0  0
   14.9004  -15.0477   20.8416 C   0  0  0  0  0  0  0  0  0  0  0  0
   14.8530  -16.2888   20.9352 O   0  0  0  0  0  0  0  0  0  0  0  0
   11.9135  -15.6023   21.6352 C   0  0  0  0  0  0  0  0  0  0  0  0
   12.4000  -16.8284   22.1018 O   0  0  0  0  0  0  0  0  0  0  0  0
   16.1377  -14.4562   21.0587 O   0  0  0  0  0  0  0  0  0  0  0  0
   11.0384  -15.0671   22.3430 O   0  0  0  0  0  0  0  0  0  0  0  0
  2  1  1  0
  2  4  1  0
  3  2  2  0
  4  5  1  0
  5  6  1  1
  7 12  1  0
  7  5  1  0
  8  7  2  0
  9 10  1  0
 11 10  1  1
 11 13  1  0
 11 12  1  0
 13 15  1  0
 14 13  2  0
 15 16  1  0
 16 17  1  1
 17 18  1  0
 18 19  2  0
 20 16  1  0
 20 21  1  0
 22 18  1  0
 23 20  2  0
M  END
$$$$
