NSD.pdb
     RDKit          3D

 23 22  0  0  1  0  0  0  0  0999 V2000
    6.3532  -18.9112   16.2990 N   0  0  0  0  0  0  0  0  0  0  0  0
    6.4302  -19.2351   17.6760 C   0  0  0  0  0  0  0  0  0  0  0  0
    5.9090  -20.3287   18.0789 O   0  0  0  0  0  0  0  0  0  0  0  0
    7.0781  -18.3851   18.6839 C   0  0  0  0  0  0  0  0  0  0  0  0
    7.4637  -17.0297   18.1336 C   0  0  2  0  0  0  0  0  0  0  0  0
    8.1706  -17.2263   16.9054 N   0  0  0  0  0  0  0  0  0  0  0  0
    8.3094  -16.3726   19.1754 C   0  0  0  0  0  0  0  0  0  0  0  0
    9.5619  -16.4646   19.1120 O   0  0  0  0  0  0  0  0  0  0  0  0
    6.8257  -14.8447   22.7444 O   0  0  0  0  0  0  0  0  0  0  0  0
    7.6920  -14.0279   22.0321 C   0  0  0  0  0  0  0  0  0  0  0  0
    8.6082  -14.9391   21.2228 C   0  0  2  0  0  0  0  0  0  0  0  0
    7.7706  -15.6289   20.2645 N   0  0  0  0  0  0  0  0  0  0  0  0
    9.3541  -15.8724   22.0912 C   0  0  0  0  0  0  0  0  0  0  0  0
    8.8975  -17.0405   22.2739 O   0  0  0  0  0  0  0  0  0  0  0  0
   10.5669  -15.5670   22.7546 N   0  0  0  0  0  0  0  0  0  0  0  0
   11.3104  -16.5944   23.5153 C   0  0  1  0  0  0  0  0  0  0  0  0
   12.7414  -16.1930   23.4394 C   0  0  0  0  0  0  0  0  0  0  0  0
   13.6912  -17.1047   24.0899 C   0  0  0  0  0  0  0  0  0  0  0  0
   14.0989  -16.9003   25.2490 O   0  0  0  0  0  0  0  0  0  0  0  0
   10.7533  -16.6767   24.8831 C   0  0  0  0  0  0  0  0  0  0  0  0
   11.0216  -17.7958   25.6789 O   0  0  0  0  0  0  0  0  0  0  0  0
   14.1812  -18.2355   23.4505 O   0  0  0  0  0  0  0  0  0  0  0  0
   10.0377  -15.8024   25.4092 O   0  0  0  0  0  0  0  0  0  0  0  0
  2  1  1  0
  2  4  1  0
  3  2  2  0
  4  5  1  0
  5  6  1  6
  7 12  1  0
  7  5  1  0
  8  7  2  0
  9 10  1  0
 11 10  1  1
 11 13  1  0
 11 12  1  0
 13 15  1  0
 14 13  2  0
 15 16  1  0
 16 17  1  1
 17 18  1  0
 18 19  2  0
 20 16  1  0
 20 21  1  0
 22 18  1  0
 23 20  2  0
M  END
$$$$
