NSD.pdb
     RDKit          3D

 23 22  0  0  1  0  0  0  0  0999 V2000
    8.4550  -20.8851   18.3474 N   0  0  0  0  0  0  0  0  0  0  0  0
    7.9553  -19.6511   17.8629 C   0  0  0  0  0  0  0  0  0  0  0  0
    7.7374  -19.5268   16.6111 O   0  0  0  0  0  0  0  0  0  0  0  0
    7.6678  -18.4904   18.7162 C   0  0  0  0  0  0  0  0  0  0  0  0
    8.1305  -17.1902   18.0965 C   0  0  2  0  0  0  0  0  0  0  0  0
    8.9713  -17.4969   16.9804 N   0  0  0  0  0  0  0  0  0  0  0  0
    8.8589  -16.4444   19.1668 C   0  0  0  0  0  0  0  0  0  0  0  0
   10.1037  -16.2877   19.0819 O   0  0  0  0  0  0  0  0  0  0  0  0
    6.8939  -15.1140   22.4741 O   0  0  0  0  0  0  0  0  0  0  0  0
    7.9019  -14.2682   22.0340 C   0  0  0  0  0  0  0  0  0  0  0  0
    8.9316  -15.1308   21.3128 C   0  0  2  0  0  0  0  0  0  0  0  0
    8.2137  -15.8852   20.3072 N   0  0  0  0  0  0  0  0  0  0  0  0
    9.6656  -16.0031   22.2519 C   0  0  0  0  0  0  0  0  0  0  0  0
    9.3156  -17.2158   22.3662 O   0  0  0  0  0  0  0  0  0  0  0  0
   10.7551  -15.5908   23.0565 N   0  0  0  0  0  0  0  0  0  0  0  0
   11.4785  -16.5454   23.9238 C   0  0  1  0  0  0  0  0  0  0  0  0
   12.8328  -15.9611   24.1219 C   0  0  0  0  0  0  0  0  0  0  0  0
   13.7494  -16.0834   22.9812 C   0  0  0  0  0  0  0  0  0  0  0  0
   13.3316  -16.0781   21.8078 O   0  0  0  0  0  0  0  0  0  0  0  0
   10.6983  -16.7555   25.1628 C   0  0  0  0  0  0  0  0  0  0  0  0
   10.9908  -17.8415   25.9951 O   0  0  0  0  0  0  0  0  0  0  0  0
   15.1216  -16.2104   23.1503 O   0  0  0  0  0  0  0  0  0  0  0  0
    9.7667  -16.0213   25.5452 O   0  0  0  0  0  0  0  0  0  0  0  0
  2  1  1  0
  2  4  1  0
  3  2  2  0
  4  5  1  0
  5  6  1  6
  7 12  1  0
  7  5  1  0
  8  7  2  0
  9 10  1  0
 11 10  1  1
 11 13  1  0
 11 12  1  0
 13 15  1  0
 14 13  2  0
 15 16  1  0
 16 17  1  1
 17 18  1  0
 18 19  2  0
 20 16  1  0
 20 21  1  0
 22 18  1  0
 23 20  2  0
M  END
$$$$
