NSD.pdb
     RDKit          3D

 23 22  0  0  1  0  0  0  0  0999 V2000
    6.9881  -17.2365   17.2513 N   0  0  0  0  0  0  0  0  0  0  0  0
    7.7824  -18.0012   18.1409 C   0  0  0  0  0  0  0  0  0  0  0  0
    7.9247  -19.2500   17.9171 O   0  0  0  0  0  0  0  0  0  0  0  0
    8.4618  -17.4453   19.3188 C   0  0  0  0  0  0  0  0  0  0  0  0
    8.1470  -15.9805   19.5284 C   0  0  2  0  0  0  0  0  0  0  0  0
    8.5928  -15.2546   18.3791 N   0  0  0  0  0  0  0  0  0  0  0  0
    8.8616  -15.5657   20.7732 C   0  0  0  0  0  0  0  0  0  0  0  0
   10.1022  -15.3623   20.7425 O   0  0  0  0  0  0  0  0  0  0  0  0
    6.8566  -15.0752   24.3333 O   0  0  0  0  0  0  0  0  0  0  0  0
    7.9013  -14.1994   24.0754 C   0  0  0  0  0  0  0  0  0  0  0  0
    8.9127  -14.9456   23.2122 C   0  0  2  0  0  0  0  0  0  0  0  0
    8.2077  -15.3815   22.0254 N   0  0  0  0  0  0  0  0  0  0  0  0
    9.5293  -16.0704   23.9444 C   0  0  0  0  0  0  0  0  0  0  0  0
    9.0045  -17.2210   23.8591 O   0  0  0  0  0  0  0  0  0  0  0  0
   10.6862  -15.9720   24.7544 N   0  0  0  0  0  0  0  0  0  0  0  0
   11.1944  -17.1318   25.5182 C   0  0  1  0  0  0  0  0  0  0  0  0
   12.6762  -17.0773   25.3925 C   0  0  0  0  0  0  0  0  0  0  0  0
   13.1974  -17.0965   24.0198 C   0  0  0  0  0  0  0  0  0  0  0  0
   13.1622  -18.1297   23.3251 O   0  0  0  0  0  0  0  0  0  0  0  0
   10.6789  -17.0588   26.9027 C   0  0  0  0  0  0  0  0  0  0  0  0
   10.9534  -18.0929   27.8043 O   0  0  0  0  0  0  0  0  0  0  0  0
   13.7533  -15.9701   23.4281 O   0  0  0  0  0  0  0  0  0  0  0  0
    9.9945  -16.1200   27.3541 O   0  0  0  0  0  0  0  0  0  0  0  0
  2  1  1  0
  2  4  1  0
  3  2  2  0
  4  5  1  0
  5  6  1  6
  7 12  1  0
  7  5  1  0
  8  7  2  0
  9 10  1  0
 11 10  1  1
 11 13  1  0
 11 12  1  0
 13 15  1  0
 14 13  2  0
 15 16  1  0
 16 17  1  1
 17 18  1  0
 18 19  2  0
 20 16  1  0
 20 21  1  0
 22 18  1  0
 23 20  2  0
M  END
$$$$
