NSD.pdb
     RDKit          3D

 23 22  0  0  1  0  0  0  0  0999 V2000
    7.6342  -15.9171   14.4618 N   0  0  0  0  0  0  0  0  0  0  0  0
    7.7536  -16.5512   15.7230 C   0  0  0  0  0  0  0  0  0  0  0  0
    7.0787  -17.6126   15.9421 O   0  0  0  0  0  0  0  0  0  0  0  0
    8.6131  -16.0621   16.8093 C   0  0  0  0  0  0  0  0  0  0  0  0
    8.4828  -16.8932   18.0666 C   0  0  2  0  0  0  0  0  0  0  0  0
    7.1109  -17.2698   18.2179 N   0  0  0  0  0  0  0  0  0  0  0  0
    8.9635  -16.0380   19.1935 C   0  0  0  0  0  0  0  0  0  0  0  0
   10.1324  -15.5751   19.1713 O   0  0  0  0  0  0  0  0  0  0  0  0
    7.0045  -15.8590   22.9213 O   0  0  0  0  0  0  0  0  0  0  0  0
    7.5189  -14.6885   22.3825 C   0  0  0  0  0  0  0  0  0  0  0  0
    8.7040  -15.0783   21.5060 C   0  0  2  0  0  0  0  0  0  0  0  0
    8.1586  -15.7059   20.3210 N   0  0  0  0  0  0  0  0  0  0  0  0
    9.6471  -15.9590   22.2247 C   0  0  0  0  0  0  0  0  0  0  0  0
    9.5613  -17.2132   22.0640 O   0  0  0  0  0  0  0  0  0  0  0  0
   10.6654  -15.5114   23.1005 N   0  0  0  0  0  0  0  0  0  0  0  0
   11.6940  -16.4359   23.6242 C   0  0  1  0  0  0  0  0  0  0  0  0
   13.0028  -15.8150   23.2834 C   0  0  0  0  0  0  0  0  0  0  0  0
   14.1910  -16.5725   23.6965 C   0  0  0  0  0  0  0  0  0  0  0  0
   14.2316  -17.8147   23.6136 O   0  0  0  0  0  0  0  0  0  0  0  0
   11.4578  -16.6493   25.0687 C   0  0  0  0  0  0  0  0  0  0  0  0
   10.4863  -15.8945   25.7352 O   0  0  0  0  0  0  0  0  0  0  0  0
   15.3246  -15.9472   24.1981 O   0  0  0  0  0  0  0  0  0  0  0  0
   12.0724  -17.4748   25.7716 O   0  0  0  0  0  0  0  0  0  0  0  0
  2  1  1  0
  2  4  1  0
  3  2  2  0
  4  5  1  0
  5  6  1  1
  7 12  1  0
  7  5  1  0
  8  7  2  0
  9 10  1  0
 11 10  1  1
 11 13  1  0
 11 12  1  0
 13 15  1  0
 14 13  2  0
 15 16  1  0
 16 17  1  1
 17 18  1  0
 18 19  2  0
 20 16  1  0
 20 21  1  0
 22 18  1  0
 23 20  2  0
M  END
$$$$
