NSD.pdb
     RDKit          3D

 23 22  0  0  1  0  0  0  0  0999 V2000
    5.8615  -17.6839   16.4227 N   0  0  0  0  0  0  0  0  0  0  0  0
    7.2056  -18.0117   16.7280 C   0  0  0  0  0  0  0  0  0  0  0  0
    7.6985  -19.0875   16.2489 O   0  0  0  0  0  0  0  0  0  0  0  0
    8.0807  -17.1853   17.5701 C   0  0  0  0  0  0  0  0  0  0  0  0
    8.5132  -17.9021   18.8303 C   0  0  2  0  0  0  0  0  0  0  0  0
    7.3495  -18.4418   19.4638 N   0  0  0  0  0  0  0  0  0  0  0  0
    9.2027  -16.8865   19.6820 C   0  0  0  0  0  0  0  0  0  0  0  0
   10.2653  -16.3498   19.2769 O   0  0  0  0  0  0  0  0  0  0  0  0
    8.0365  -16.1571   23.6045 O   0  0  0  0  0  0  0  0  0  0  0  0
    8.5018  -15.0729   22.8744 C   0  0  0  0  0  0  0  0  0  0  0  0
    9.4786  -15.6141   21.8362 C   0  0  2  0  0  0  0  0  0  0  0  0
    8.7183  -16.4779   20.9578 N   0  0  0  0  0  0  0  0  0  0  0  0
   10.6137  -16.3156   22.4695 C   0  0  0  0  0  0  0  0  0  0  0  0
   10.5332  -17.5655   22.6634 O   0  0  0  0  0  0  0  0  0  0  0  0
   11.8155  -15.6962   22.8896 N   0  0  0  0  0  0  0  0  0  0  0  0
   12.9098  -16.4753   23.5081 C   0  0  1  0  0  0  0  0  0  0  0  0
   14.1662  -15.7740   23.1283 C   0  0  0  0  0  0  0  0  0  0  0  0
   15.4104  -16.4229   23.5610 C   0  0  0  0  0  0  0  0  0  0  0  0
   15.6065  -17.6394   23.3797 O   0  0  0  0  0  0  0  0  0  0  0  0
   12.6637  -16.5783   24.9630 C   0  0  0  0  0  0  0  0  0  0  0  0
   13.2598  -17.6077   25.6997 O   0  0  0  0  0  0  0  0  0  0  0  0
   16.4272  -15.7180   24.1911 O   0  0  0  0  0  0  0  0  0  0  0  0
   11.9436  -15.7981   25.6156 O   0  0  0  0  0  0  0  0  0  0  0  0
  2  1  1  0
  2  4  1  0
  3  2  2  0
  4  5  1  0
  5  6  1  1
  7 12  1  0
  7  5  1  0
  8  7  2  0
  9 10  1  0
 11 10  1  1
 11 13  1  0
 11 12  1  0
 13 15  1  0
 14 13  2  0
 15 16  1  0
 16 17  1  1
 17 18  1  0
 18 19  2  0
 20 16  1  0
 20 21  1  0
 22 18  1  0
 23 20  2  0
M  END
$$$$
