NSD.pdb
     RDKit          3D

 23 22  0  0  1  0  0  0  0  0999 V2000
    8.1651  -16.7182   16.1495 N   0  0  0  0  0  0  0  0  0  0  0  0
    9.1438  -17.5753   16.7103 C   0  0  0  0  0  0  0  0  0  0  0  0
    9.0823  -18.8251   16.4570 O   0  0  0  0  0  0  0  0  0  0  0  0
   10.2386  -17.1154   17.5752 C   0  0  0  0  0  0  0  0  0  0  0  0
   10.2913  -17.8662   18.8875 C   0  0  2  0  0  0  0  0  0  0  0  0
    8.9593  -18.2508   19.2406 N   0  0  0  0  0  0  0  0  0  0  0  0
   10.8959  -16.9344   19.8867 C   0  0  0  0  0  0  0  0  0  0  0  0
   12.0348  -16.4452   19.6748 O   0  0  0  0  0  0  0  0  0  0  0  0
    9.1278  -16.1414   23.6114 O   0  0  0  0  0  0  0  0  0  0  0  0
    9.8171  -15.1287   22.9599 C   0  0  0  0  0  0  0  0  0  0  0  0
   10.9108  -15.7901   22.1287 C   0  0  2  0  0  0  0  0  0  0  0  0
   10.2452  -16.5560   21.0962 N   0  0  0  0  0  0  0  0  0  0  0  0
   11.7995  -16.6247   22.9624 C   0  0  0  0  0  0  0  0  0  0  0  0
   11.5471  -17.8608   23.0835 O   0  0  0  0  0  0  0  0  0  0  0  0
   12.9390  -16.1508   23.6562 N   0  0  0  0  0  0  0  0  0  0  0  0
   13.8724  -17.0782   24.3313 C   0  0  1  0  0  0  0  0  0  0  0  0
   15.2018  -16.4105   24.2901 C   0  0  0  0  0  0  0  0  0  0  0  0
   15.7172  -16.1059   22.9493 C   0  0  0  0  0  0  0  0  0  0  0  0
   15.7891  -16.9810   22.0658 O   0  0  0  0  0  0  0  0  0  0  0  0
   13.3600  -17.3732   25.6872 C   0  0  0  0  0  0  0  0  0  0  0  0
   12.2107  -16.7262   26.1542 O   0  0  0  0  0  0  0  0  0  0  0  0
   16.1488  -14.8337   22.5985 O   0  0  0  0  0  0  0  0  0  0  0  0
   13.8830  -18.1791   26.4811 O   0  0  0  0  0  0  0  0  0  0  0  0
  2  1  1  0
  2  4  1  0
  3  2  2  0
  4  5  1  0
  5  6  1  1
  7 12  1  0
  7  5  1  0
  8  7  2  0
  9 10  1  0
 11 10  1  1
 11 13  1  0
 11 12  1  0
 13 15  1  0
 14 13  2  0
 15 16  1  0
 16 17  1  1
 17 18  1  0
 18 19  2  0
 20 16  1  0
 20 21  1  0
 22 18  1  0
 23 20  2  0
M  END
$$$$
