NTK.pdb
     RDKit          3D

 25 24  0  0  1  0  0  0  0  0999 V2000
    8.0886  -13.0845   14.6682 N   0  0  0  0  0  0  0  0  0  0  0  0
    7.7668  -14.1395   15.5600 C   0  0  0  0  0  0  0  0  0  0  0  0
    7.6883  -15.3158   15.0685 O   0  0  0  0  0  0  0  0  0  0  0  0
    7.5204  -13.9808   16.9952 C   0  0  0  0  0  0  0  0  0  0  0  0
    8.7940  -14.3130   17.7973 C   0  0  2  0  0  0  0  0  0  0  0  0
    9.0731  -15.7038   17.5417 N   0  0  0  0  0  0  0  0  0  0  0  0
    8.4064  -14.0778   19.2142 C   0  0  0  0  0  0  0  0  0  0  0  0
    8.2522  -12.8891   19.5833 O   0  0  0  0  0  0  0  0  0  0  0  0
    5.5535  -14.8623   21.3752 C   0  0  0  0  0  0  0  0  0  0  0  0
    6.7417  -15.5742   22.0122 C   0  0  1  0  0  0  0  0  0  0  0  0
    6.7977  -16.8993   21.6106 O   0  0  0  0  0  0  0  0  0  0  0  0
    8.0072  -14.8157   21.5832 C   0  0  2  0  0  0  0  0  0  0  0  0
    8.1985  -15.0900   20.1725 N   0  0  0  0  0  0  0  0  0  0  0  0
    9.1308  -15.3052   22.4095 C   0  0  0  0  0  0  0  0  0  0  0  0
   10.0823  -15.9810   21.9335 O   0  0  0  0  0  0  0  0  0  0  0  0
    9.1212  -14.9932   23.7906 N   0  0  0  0  0  0  0  0  0  0  0  0
   10.1689  -15.4470   24.7194 C   0  0  1  0  0  0  0  0  0  0  0  0
    9.8715  -14.7305   26.0134 C   0  0  0  0  0  0  0  0  0  0  0  0
   10.7550  -15.0923   27.1556 C   0  0  0  0  0  0  0  0  0  0  0  0
   10.4120  -14.3146   28.4145 C   0  0  0  0  0  0  0  0  0  0  0  0
   11.3718  -14.6445   29.5368 C   0  0  0  0  0  0  0  0  0  0  0  0
   11.0351  -13.9615   30.7592 N   0  0  0  0  0  0  0  0  0  0  0  0
    9.9870  -16.8985   24.8987 C   0  0  0  0  0  0  0  0  0  0  0  0
    8.8400  -17.3937   24.8171 O   0  0  0  0  0  0  0  0  0  0  0  0
   11.0472  -17.7429   25.1544 O   0  0  0  0  0  0  0  0  0  0  0  0
  1  2  1  0
  2  3  2  0
  2  4  1  0
  4  5  1  0
  5  6  1  1
  7 13  1  0
  7  5  1  0
  8  7  2  0
 10  9  1  6
 10 12  1  0
 11 10  1  0
 12 13  1  6
 12 14  1  0
 14 15  2  0
 16 14  1  0
 16 17  1  0
 17 23  1  0
 17 18  1  1
 18 19  1  0
 19 20  1  0
 21 22  1  0
 21 20  1  0
 23 25  1  0
 24 23  2  0
M  END
$$$$
