NTK.pdb
     RDKit          3D

 25 24  0  0  1  0  0  0  0  0999 V2000
   15.2456  -13.8540   18.5087 N   0  0  0  0  0  0  0  0  0  0  0  0
   14.4781  -14.7207   19.3282 C   0  0  0  0  0  0  0  0  0  0  0  0
   15.1151  -15.5804   20.0257 O   0  0  0  0  0  0  0  0  0  0  0  0
   13.0172  -14.7021   19.4340 C   0  0  0  0  0  0  0  0  0  0  0  0
   12.4697  -16.1389   19.5430 C   0  0  2  0  0  0  0  0  0  0  0  0
   12.1424  -16.5424   18.1984 N   0  0  0  0  0  0  0  0  0  0  0  0
   11.2553  -16.0048   20.3916 C   0  0  0  0  0  0  0  0  0  0  0  0
   10.3334  -15.2652   19.9718 O   0  0  0  0  0  0  0  0  0  0  0  0
   10.1613  -18.9356   22.8916 C   0  0  0  0  0  0  0  0  0  0  0  0
    9.1628  -17.9294   22.3303 C   0  0  1  0  0  0  0  0  0  0  0  0
    7.9845  -17.9425   23.0594 O   0  0  0  0  0  0  0  0  0  0  0  0
    9.8309  -16.5470   22.3899 C   0  0  2  0  0  0  0  0  0  0  0  0
   11.0623  -16.6469   21.6312 N   0  0  0  0  0  0  0  0  0  0  0  0
   10.0703  -16.2204   23.8115 C   0  0  0  0  0  0  0  0  0  0  0  0
   11.1769  -16.4230   24.3797 O   0  0  0  0  0  0  0  0  0  0  0  0
    9.0012  -15.6580   24.5501 N   0  0  0  0  0  0  0  0  0  0  0  0
    9.1131  -15.3047   25.9746 C   0  0  1  0  0  0  0  0  0  0  0  0
    7.7861  -14.6752   26.3194 C   0  0  0  0  0  0  0  0  0  0  0  0
    7.6981  -13.2091   26.0766 C   0  0  0  0  0  0  0  0  0  0  0  0
    6.3045  -12.6665   26.3425 C   0  0  0  0  0  0  0  0  0  0  0  0
    6.2652  -11.1629   26.1783 C   0  0  0  0  0  0  0  0  0  0  0  0
    4.9329  -10.6347   26.3203 N   0  0  0  0  0  0  0  0  0  0  0  0
    9.2767  -16.5656   26.7199 C   0  0  0  0  0  0  0  0  0  0  0  0
    9.5901  -16.5328   27.9316 O   0  0  0  0  0  0  0  0  0  0  0  0
    9.0934  -17.7965   26.1250 O   0  0  0  0  0  0  0  0  0  0  0  0
  1  2  1  0
  2  3  2  0
  2  4  1  0
  4  5  1  0
  5  6  1  6
  7 13  1  0
  7  5  1  0
  8  7  2  0
 10  9  1  1
 10 12  1  0
 11 10  1  0
 12 13  1  6
 12 14  1  0
 14 15  2  0
 16 14  1  0
 16 17  1  0
 17 23  1  0
 17 18  1  1
 18 19  1  0
 19 20  1  0
 21 22  1  0
 21 20  1  0
 23 25  1  0
 24 23  2  0
M  END
$$$$
