NTK.pdb
     RDKit          3D

 25 24  0  0  1  0  0  0  0  0999 V2000
   12.7339  -18.1663   18.6620 N   0  0  0  0  0  0  0  0  0  0  0  0
   11.4099  -18.1671   18.1532 C   0  0  0  0  0  0  0  0  0  0  0  0
   10.6117  -19.0560   18.6049 O   0  0  0  0  0  0  0  0  0  0  0  0
   10.8929  -17.2284   17.1546 C   0  0  0  0  0  0  0  0  0  0  0  0
    9.4546  -16.8046   17.5118 C   0  0  2  0  0  0  0  0  0  0  0  0
    8.9448  -16.1138   16.3539 N   0  0  0  0  0  0  0  0  0  0  0  0
    9.6198  -15.8902   18.6735 C   0  0  0  0  0  0  0  0  0  0  0  0
   10.7447  -15.3607   18.8390 O   0  0  0  0  0  0  0  0  0  0  0  0
    7.1913  -13.1506   19.8882 C   0  0  0  0  0  0  0  0  0  0  0  0
    7.5122  -14.0416   21.0830 C   0  0  1  0  0  0  0  0  0  0  0  0
    6.4970  -14.9588   21.3028 O   0  0  0  0  0  0  0  0  0  0  0  0
    8.8386  -14.7530   20.7741 C   0  0  2  0  0  0  0  0  0  0  0  0
    8.6074  -15.5733   19.6012 N   0  0  0  0  0  0  0  0  0  0  0  0
    9.2088  -15.5559   21.9587 C   0  0  0  0  0  0  0  0  0  0  0  0
    9.2375  -16.8159   21.9455 O   0  0  0  0  0  0  0  0  0  0  0  0
    9.5414  -14.8644   23.1487 N   0  0  0  0  0  0  0  0  0  0  0  0
    9.9210  -15.5527   24.3931 C   0  0  1  0  0  0  0  0  0  0  0  0
    8.7348  -16.4228   24.7278 C   0  0  0  0  0  0  0  0  0  0  0  0
    8.9879  -17.4724   25.7527 C   0  0  0  0  0  0  0  0  0  0  0  0
    7.7685  -18.3458   25.9922 C   0  0  0  0  0  0  0  0  0  0  0  0
    8.0199  -19.3383   27.1063 C   0  0  0  0  0  0  0  0  0  0  0  0
    6.9400  -20.2802   27.2500 N   0  0  0  0  0  0  0  0  0  0  0  0
   11.0876  -16.3972   24.0800 C   0  0  0  0  0  0  0  0  0  0  0  0
   10.9239  -17.4788   23.4711 O   0  0  0  0  0  0  0  0  0  0  0  0
   12.3700  -16.0348   24.4359 O   0  0  0  0  0  0  0  0  0  0  0  0
  1  2  1  0
  2  3  2  0
  2  4  1  0
  4  5  1  0
  5  6  1  6
  7 13  1  0
  7  5  1  0
  8  7  2  0
 10  9  1  6
 10 12  1  0
 11 10  1  0
 12 13  1  6
 12 14  1  0
 14 15  2  0
 16 14  1  0
 16 17  1  0
 17 23  1  0
 17 18  1  6
 18 19  1  0
 19 20  1  0
 21 22  1  0
 21 20  1  0
 23 25  1  0
 24 23  2  0
M  END
$$$$
