NTK.pdb
     RDKit          3D

 25 24  0  0  1  0  0  0  0  0999 V2000
    6.9593  -18.0135   14.3976 N   0  0  0  0  0  0  0  0  0  0  0  0
    7.9399  -18.5846   15.2486 C   0  0  0  0  0  0  0  0  0  0  0  0
    8.1425  -19.8414   15.1445 O   0  0  0  0  0  0  0  0  0  0  0  0
    8.7337  -17.8436   16.2317 C   0  0  0  0  0  0  0  0  0  0  0  0
    8.3220  -16.3582   16.2427 C   0  0  2  0  0  0  0  0  0  0  0  0
    8.8960  -15.7780   15.0547 N   0  0  0  0  0  0  0  0  0  0  0  0
    8.9438  -15.8148   17.4800 C   0  0  0  0  0  0  0  0  0  0  0  0
   10.1961  -15.7622   17.5245 O   0  0  0  0  0  0  0  0  0  0  0  0
    7.4011  -12.8828   19.6613 C   0  0  0  0  0  0  0  0  0  0  0  0
    7.8247  -14.0357   20.5646 C   0  0  1  0  0  0  0  0  0  0  0  0
    6.7375  -14.8276   20.8984 O   0  0  0  0  0  0  0  0  0  0  0  0
    8.8811  -14.8468   19.7984 C   0  0  2  0  0  0  0  0  0  0  0  0
    8.2317  -15.3537   18.6054 N   0  0  0  0  0  0  0  0  0  0  0  0
    9.3524  -15.9302   20.6866 C   0  0  0  0  0  0  0  0  0  0  0  0
    8.9269  -17.1136   20.6021 O   0  0  0  0  0  0  0  0  0  0  0  0
   10.3215  -15.6073   21.6672 N   0  0  0  0  0  0  0  0  0  0  0  0
   10.8436  -16.5916   22.6289 C   0  0  1  0  0  0  0  0  0  0  0  0
   12.3255  -16.3159   22.6940 C   0  0  0  0  0  0  0  0  0  0  0  0
   13.0829  -17.1497   23.6673 C   0  0  0  0  0  0  0  0  0  0  0  0
   14.5561  -16.7824   23.7125 C   0  0  0  0  0  0  0  0  0  0  0  0
   15.3076  -17.6644   24.6855 C   0  0  0  0  0  0  0  0  0  0  0  0
   16.6915  -17.2847   24.8069 N   0  0  0  0  0  0  0  0  0  0  0  0
   10.2221  -16.2932   23.9315 C   0  0  0  0  0  0  0  0  0  0  0  0
    9.6763  -15.1819   24.1174 O   0  0  0  0  0  0  0  0  0  0  0  0
   10.2177  -17.2051   24.9664 O   0  0  0  0  0  0  0  0  0  0  0  0
  1  2  1  0
  2  3  2  0
  2  4  1  0
  4  5  1  0
  5  6  1  6
  7 13  1  0
  7  5  1  0
  8  7  2  0
 10  9  1  6
 10 12  1  0
 11 10  1  0
 12 13  1  6
 12 14  1  0
 14 15  2  0
 16 14  1  0
 16 17  1  0
 17 23  1  0
 17 18  1  1
 18 19  1  0
 19 20  1  0
 21 22  1  0
 21 20  1  0
 23 25  1  0
 24 23  2  0
M  END
$$$$
