NTK.pdb
     RDKit          3D

 25 24  0  0  1  0  0  0  0  0999 V2000
    7.6556  -20.6879   16.8819 N   0  0  0  0  0  0  0  0  0  0  0  0
    7.3350  -19.3378   17.1756 C   0  0  0  0  0  0  0  0  0  0  0  0
    6.4107  -18.7934   16.4825 O   0  0  0  0  0  0  0  0  0  0  0  0
    7.9814  -18.5266   18.2100 C   0  0  0  0  0  0  0  0  0  0  0  0
    8.5560  -17.2347   17.5963 C   0  0  2  0  0  0  0  0  0  0  0  0
    9.6095  -17.6523   16.7056 N   0  0  0  0  0  0  0  0  0  0  0  0
    9.0852  -16.4787   18.7632 C   0  0  0  0  0  0  0  0  0  0  0  0
   10.3213  -16.5237   18.9708 O   0  0  0  0  0  0  0  0  0  0  0  0
    8.1310  -12.8978   19.9031 C   0  0  0  0  0  0  0  0  0  0  0  0
    7.9713  -13.8325   21.0970 C   0  0  1  0  0  0  0  0  0  0  0  0
    6.6447  -14.1951   21.2672 O   0  0  0  0  0  0  0  0  0  0  0  0
    8.8481  -15.0652   20.8276 C   0  0  2  0  0  0  0  0  0  0  0  0
    8.3024  -15.7150   19.6520 N   0  0  0  0  0  0  0  0  0  0  0  0
    8.7942  -15.9300   22.0251 C   0  0  0  0  0  0  0  0  0  0  0  0
    7.9269  -16.8321   22.1752 O   0  0  0  0  0  0  0  0  0  0  0  0
    9.7643  -15.7221   23.0354 N   0  0  0  0  0  0  0  0  0  0  0  0
    9.8264  -16.5328   24.2622 C   0  0  1  0  0  0  0  0  0  0  0  0
   11.2244  -17.0998   24.2774 C   0  0  0  0  0  0  0  0  0  0  0  0
   11.3950  -18.3850   23.5457 C   0  0  0  0  0  0  0  0  0  0  0  0
   12.8421  -18.8461   23.5266 C   0  0  0  0  0  0  0  0  0  0  0  0
   13.0063  -20.0892   22.6797 C   0  0  0  0  0  0  0  0  0  0  0  0
   14.3696  -20.5528   22.6523 N   0  0  0  0  0  0  0  0  0  0  0  0
    9.6489  -15.6105   25.3979 C   0  0  0  0  0  0  0  0  0  0  0  0
    9.8121  -14.3808   25.2286 O   0  0  0  0  0  0  0  0  0  0  0  0
    9.3033  -16.0570   26.6564 O   0  0  0  0  0  0  0  0  0  0  0  0
  1  2  1  0
  2  3  2  0
  2  4  1  0
  4  5  1  0
  5  6  1  6
  7 13  1  0
  7  5  1  0
  8  7  2  0
 10  9  1  6
 10 12  1  0
 11 10  1  0
 12 13  1  6
 12 14  1  0
 14 15  2  0
 16 14  1  0
 16 17  1  0
 17 23  1  0
 17 18  1  1
 18 19  1  0
 19 20  1  0
 21 22  1  0
 21 20  1  0
 23 25  1  0
 24 23  2  0
M  END
$$$$
