NTK.pdb
     RDKit          3D

 25 24  0  0  1  0  0  0  0  0999 V2000
    8.1141  -12.1306   16.7341 N   0  0  0  0  0  0  0  0  0  0  0  0
    7.9877  -13.5159   16.4567 C   0  0  0  0  0  0  0  0  0  0  0  0
    7.4334  -13.8420   15.3533 O   0  0  0  0  0  0  0  0  0  0  0  0
    8.4443  -14.5941   17.3369 C   0  0  0  0  0  0  0  0  0  0  0  0
    8.9338  -14.0180   18.6802 C   0  0  2  0  0  0  0  0  0  0  0  0
    9.5086  -12.7318   18.3750 N   0  0  0  0  0  0  0  0  0  0  0  0
    9.9625  -14.9883   19.1420 C   0  0  0  0  0  0  0  0  0  0  0  0
    9.5797  -16.1492   19.4229 O   0  0  0  0  0  0  0  0  0  0  0  0
   12.9987  -16.1371   17.4985 C   0  0  0  0  0  0  0  0  0  0  0  0
   13.4947  -15.6441   18.8533 C   0  0  1  0  0  0  0  0  0  0  0  0
   14.0312  -14.3706   18.7501 O   0  0  0  0  0  0  0  0  0  0  0  0
   12.2913  -15.6580   19.8086 C   0  0  2  0  0  0  0  0  0  0  0  0
   11.3348  -14.7017   19.2866 N   0  0  0  0  0  0  0  0  0  0  0  0
   12.7775  -15.2904   21.1551 C   0  0  0  0  0  0  0  0  0  0  0  0
   13.0569  -14.1046   21.4781 O   0  0  0  0  0  0  0  0  0  0  0  0
   12.9302  -16.3260   22.1088 N   0  0  0  0  0  0  0  0  0  0  0  0
   13.3999  -16.0840   23.4825 C   0  0  1  0  0  0  0  0  0  0  0  0
   12.5961  -17.0336   24.3359 C   0  0  0  0  0  0  0  0  0  0  0  0
   13.0839  -17.1979   25.7327 C   0  0  0  0  0  0  0  0  0  0  0  0
   12.2122  -18.1472   26.5366 C   0  0  0  0  0  0  0  0  0  0  0  0
   12.7001  -18.2574   27.9646 C   0  0  0  0  0  0  0  0  0  0  0  0
   11.7793  -18.9846   28.7997 N   0  0  0  0  0  0  0  0  0  0  0  0
   14.8246  -16.4592   23.5234 C   0  0  0  0  0  0  0  0  0  0  0  0
   15.2591  -17.3286   22.7343 O   0  0  0  0  0  0  0  0  0  0  0  0
   15.7089  -15.8793   24.4089 O   0  0  0  0  0  0  0  0  0  0  0  0
  1  2  1  0
  2  3  2  0
  2  4  1  0
  4  5  1  0
  5  6  1  6
  7 13  1  0
  7  5  1  0
  8  7  2  0
 10  9  1  6
 10 12  1  0
 11 10  1  0
 12 13  1  6
 12 14  1  0
 14 15  2  0
 16 14  1  0
 16 17  1  0
 17 23  1  0
 17 18  1  1
 18 19  1  0
 19 20  1  0
 21 22  1  0
 21 20  1  0
 23 25  1  0
 24 23  2  0
M  END
$$$$
