NTK.pdb
     RDKit          3D

 25 24  0  0  1  0  0  0  0  0999 V2000
    4.4800  -20.0325   16.9182 N   0  0  0  0  0  0  0  0  0  0  0  0
    4.5788  -19.0884   17.9722 C   0  0  0  0  0  0  0  0  0  0  0  0
    3.7337  -19.1864   18.9247 O   0  0  0  0  0  0  0  0  0  0  0  0
    5.5737  -18.0159   18.0489 C   0  0  0  0  0  0  0  0  0  0  0  0
    6.6574  -18.3640   19.0883 C   0  0  2  0  0  0  0  0  0  0  0  0
    5.9658  -18.5342   20.3415 N   0  0  0  0  0  0  0  0  0  0  0  0
    7.5463  -17.1712   19.1044 C   0  0  0  0  0  0  0  0  0  0  0  0
    7.6587  -16.5177   18.0398 O   0  0  0  0  0  0  0  0  0  0  0  0
    6.9982  -14.2456   20.6761 C   0  0  0  0  0  0  0  0  0  0  0  0
    8.1529  -14.3871   19.6907 C   0  0  1  0  0  0  0  0  0  0  0  0
    8.8499  -13.1954   19.5711 O   0  0  0  0  0  0  0  0  0  0  0  0
    9.0640  -15.5063   20.2183 C   0  0  2  0  0  0  0  0  0  0  0  0
    8.2706  -16.7197   20.2259 N   0  0  0  0  0  0  0  0  0  0  0  0
    9.5173  -15.1215   21.5715 C   0  0  0  0  0  0  0  0  0  0  0  0
    8.7388  -14.6451   22.4407 O   0  0  0  0  0  0  0  0  0  0  0  0
   10.8859  -15.3018   21.8869 N   0  0  0  0  0  0  0  0  0  0  0  0
   11.3680  -15.5118   23.2615 C   0  0  1  0  0  0  0  0  0  0  0  0
   10.8948  -16.8970   23.6269 C   0  0  0  0  0  0  0  0  0  0  0  0
   11.3282  -17.3820   24.9660 C   0  0  0  0  0  0  0  0  0  0  0  0
   10.9914  -18.8473   25.1817 C   0  0  0  0  0  0  0  0  0  0  0  0
   11.2847  -19.2697   26.6047 C   0  0  0  0  0  0  0  0  0  0  0  0
   10.9906  -20.6613   26.8309 N   0  0  0  0  0  0  0  0  0  0  0  0
   12.8407  -15.4839   23.2109 C   0  0  0  0  0  0  0  0  0  0  0  0
   13.4263  -15.6555   22.1177 O   0  0  0  0  0  0  0  0  0  0  0  0
   13.6078  -15.2714   24.3373 O   0  0  0  0  0  0  0  0  0  0  0  0
  1  2  1  0
  2  3  2  0
  2  4  1  0
  4  5  1  0
  5  6  1  1
  7 13  1  0
  7  5  1  0
  8  7  2  0
 10  9  1  1
 10 12  1  0
 11 10  1  0
 12 13  1  1
 12 14  1  0
 14 15  2  0
 16 14  1  0
 16 17  1  0
 17 23  1  0
 17 18  1  6
 18 19  1  0
 19 20  1  0
 21 22  1  0
 21 20  1  0
 23 25  1  0
 24 23  2  0
M  END
$$$$
