ENK.pdb
     RDKit          3D

 27 26  0  0  1  0  0  0  0  0999 V2000
   17.6361  -11.2290  -15.4179 N   0  0  0  0  0  0  0  0  0  0  0  0
   17.5931   -9.7960  -15.1503 C   0  0  1  0  0  0  0  0  0  0  0  0
   16.1666   -9.2895  -15.4171 C   0  0  0  0  0  0  0  0  0  0  0  0
   15.9685   -8.8615  -16.8379 C   0  0  0  0  0  0  0  0  0  0  0  0
   14.6606   -8.2329  -17.1028 C   0  0  0  0  0  0  0  0  0  0  0  0
   13.6742   -8.8549  -17.5871 O   0  0  0  0  0  0  0  0  0  0  0  0
   17.9647   -9.5113  -13.7371 C   0  0  0  0  0  0  0  0  0  0  0  0
   17.7845  -10.3566  -12.8767 O   0  0  0  0  0  0  0  0  0  0  0  0
   14.4866   -6.8850  -16.8099 O   0  0  0  0  0  0  0  0  0  0  0  0
   22.0881   -7.6104  -13.5451 N   0  0  0  0  0  0  0  0  0  0  0  0
   21.3405   -7.8964  -12.3892 C   0  0  0  0  0  0  0  0  0  0  0  0
   21.7240   -8.9253  -11.7281 O   0  0  0  0  0  0  0  0  0  0  0  0
   20.1738   -7.1170  -11.8939 C   0  0  0  0  0  0  0  0  0  0  0  0
   18.9254   -7.8789  -12.0638 C   0  0  2  0  0  0  0  0  0  0  0  0
   18.5295   -8.2698  -13.3649 N   0  0  0  0  0  0  0  0  0  0  0  0
   17.8103   -7.0526  -11.5066 C   0  0  0  0  0  0  0  0  0  0  0  0
   17.3244   -6.1037  -12.1888 O   0  0  0  0  0  0  0  0  0  0  0  0
   17.2408   -7.2703  -10.2201 N   0  0  0  0  0  0  0  0  0  0  0  0
   16.1379   -6.4095   -9.7690 C   0  0  1  0  0  0  0  0  0  0  0  0
   15.2887   -7.2296   -8.8157 C   0  0  0  0  0  0  0  0  0  0  0  0
   14.5585   -8.2654   -9.6115 C   0  0  0  0  0  0  0  0  0  0  0  0
   13.6122   -9.0821   -8.7389 C   0  0  0  0  0  0  0  0  0  0  0  0
   13.0181  -10.1543   -9.6442 C   0  0  0  0  0  0  0  0  0  0  0  0
   12.1819  -11.0624   -8.9057 N   0  0  0  0  0  0  0  0  0  0  0  0
   16.7087   -5.2185   -9.1071 C   0  0  0  0  0  0  0  0  0  0  0  0
   17.9091   -5.1904   -8.7368 O   0  0  0  0  0  0  0  0  0  0  0  0
   15.9491   -4.0665   -8.8594 O   0  0  0  0  0  0  0  0  0  0  0  0
  2  1  1  1
  3  2  1  0
  4  5  1  0
  4  3  1  0
  5  6  2  0
  7  2  1  0
  7  8  2  0
  9  5  1  0
 10 11  1  0
 11 12  2  0
 11 13  1  0
 14 13  1  6
 14 15  1  0
 15  7  1  0
 16 14  1  0
 17 16  2  0
 18 16  1  0
 19 18  1  0
 19 20  1  1
 20 21  1  0
 21 22  1  0
 22 23  1  0
 23 24  1  0
 25 27  1  0
 25 19  1  0
 26 25  2  0
M  END
$$$$
