ENK.pdb
     RDKit          3D

 27 26  0  0  1  0  0  0  0  0999 V2000
   19.6287  -12.0065  -16.7220 N   0  0  0  0  0  0  0  0  0  0  0  0
   19.2631  -10.6540  -17.1271 C   0  0  1  0  0  0  0  0  0  0  0  0
   17.9133  -10.7093  -17.8604 C   0  0  0  0  0  0  0  0  0  0  0  0
   17.6854  -12.0236  -18.5399 C   0  0  0  0  0  0  0  0  0  0  0  0
   16.4052  -12.1139  -19.2671 C   0  0  0  0  0  0  0  0  0  0  0  0
   15.5438  -11.1908  -19.2780 O   0  0  0  0  0  0  0  0  0  0  0  0
   19.1479   -9.7607  -15.9419 C   0  0  0  0  0  0  0  0  0  0  0  0
   18.3835  -10.0455  -15.0353 O   0  0  0  0  0  0  0  0  0  0  0  0
   16.1150  -13.2693  -19.9838 O   0  0  0  0  0  0  0  0  0  0  0  0
   22.8544   -9.1850  -13.8496 N   0  0  0  0  0  0  0  0  0  0  0  0
   21.7751   -8.3994  -13.4082 C   0  0  0  0  0  0  0  0  0  0  0  0
   21.2913   -8.7232  -12.2664 O   0  0  0  0  0  0  0  0  0  0  0  0
   21.1727   -7.2568  -14.1468 C   0  0  0  0  0  0  0  0  0  0  0  0
   19.8986   -7.6506  -14.7711 C   0  0  2  0  0  0  0  0  0  0  0  0
   19.9138   -8.5766  -15.8408 N   0  0  0  0  0  0  0  0  0  0  0  0
   19.2441   -6.4092  -15.2881 C   0  0  0  0  0  0  0  0  0  0  0  0
   19.7483   -5.7906  -16.2703 O   0  0  0  0  0  0  0  0  0  0  0  0
   18.0538   -5.8610  -14.7317 N   0  0  0  0  0  0  0  0  0  0  0  0
   17.5464   -4.5800  -15.2441 C   0  0  1  0  0  0  0  0  0  0  0  0
   16.1813   -4.8472  -15.8500 C   0  0  0  0  0  0  0  0  0  0  0  0
   15.2538   -5.2609  -14.7509 C   0  0  0  0  0  0  0  0  0  0  0  0
   13.8665   -5.6017  -15.2832 C   0  0  0  0  0  0  0  0  0  0  0  0
   13.0520   -6.0646  -14.0814 C   0  0  0  0  0  0  0  0  0  0  0  0
   11.7279   -6.4723  -14.4685 N   0  0  0  0  0  0  0  0  0  0  0  0
   17.4696   -3.6204  -14.1236 C   0  0  0  0  0  0  0  0  0  0  0  0
   17.6167   -3.9944  -12.9330 O   0  0  0  0  0  0  0  0  0  0  0  0
   17.2311   -2.2538  -14.3264 O   0  0  0  0  0  0  0  0  0  0  0  0
  2  1  1  1
  3  2  1  0
  4  5  1  0
  4  3  1  0
  5  6  2  0
  7  2  1  0
  7  8  2  0
  9  5  1  0
 10 11  1  0
 11 12  2  0
 11 13  1  0
 14 13  1  6
 14 15  1  0
 15  7  1  0
 16 14  1  0
 17 16  2  0
 18 16  1  0
 19 18  1  0
 19 20  1  1
 20 21  1  0
 21 22  1  0
 22 23  1  0
 23 24  1  0
 25 27  1  0
 25 19  1  0
 26 25  2  0
M  END
$$$$
