ENK.pdb
     RDKit          3D

 27 26  0  0  1  0  0  0  0  0999 V2000
   19.7381  -13.1003  -16.0466 N   0  0  0  0  0  0  0  0  0  0  0  0
   19.6049  -11.6974  -16.4223 C   0  0  1  0  0  0  0  0  0  0  0  0
   18.1423  -11.2713  -16.2175 C   0  0  0  0  0  0  0  0  0  0  0  0
   17.1986  -12.0226  -17.1040 C   0  0  0  0  0  0  0  0  0  0  0  0
   15.7971  -11.5712  -17.0150 C   0  0  0  0  0  0  0  0  0  0  0  0
   15.3632  -10.5304  -17.5830 O   0  0  0  0  0  0  0  0  0  0  0  0
   20.4927  -10.8409  -15.5892 C   0  0  0  0  0  0  0  0  0  0  0  0
   20.3047  -10.7546  -14.3874 O   0  0  0  0  0  0  0  0  0  0  0  0
   14.8919  -12.3192  -16.2705 O   0  0  0  0  0  0  0  0  0  0  0  0
   23.7801  -11.7465  -14.6913 N   0  0  0  0  0  0  0  0  0  0  0  0
   24.4962  -10.7386  -15.3609 C   0  0  0  0  0  0  0  0  0  0  0  0
   25.7371  -10.9882  -15.5622 O   0  0  0  0  0  0  0  0  0  0  0  0
   23.9363   -9.4447  -15.8367 C   0  0  0  0  0  0  0  0  0  0  0  0
   22.5132   -9.3267  -15.4777 C   0  0  2  0  0  0  0  0  0  0  0  0
   21.5624  -10.1177  -16.1652 N   0  0  0  0  0  0  0  0  0  0  0  0
   22.1111   -7.9005  -15.6802 C   0  0  0  0  0  0  0  0  0  0  0  0
   22.0519   -7.4201  -16.8496 O   0  0  0  0  0  0  0  0  0  0  0  0
   21.7790   -7.0207  -14.6114 N   0  0  0  0  0  0  0  0  0  0  0  0
   21.4754   -5.6135  -14.9088 C   0  0  1  0  0  0  0  0  0  0  0  0
   19.9721   -5.4437  -14.7925 C   0  0  0  0  0  0  0  0  0  0  0  0
   19.6357   -4.0200  -15.1076 C   0  0  0  0  0  0  0  0  0  0  0  0
   18.1309   -3.7775  -15.0794 C   0  0  0  0  0  0  0  0  0  0  0  0
   17.9201   -2.3548  -15.5829 C   0  0  0  0  0  0  0  0  0  0  0  0
   16.5235   -2.0128  -15.6245 N   0  0  0  0  0  0  0  0  0  0  0  0
   22.1988   -4.7602  -13.9439 C   0  0  0  0  0  0  0  0  0  0  0  0
   22.4738   -5.1704  -12.7884 O   0  0  0  0  0  0  0  0  0  0  0  0
   22.6139   -3.4596  -14.2626 O   0  0  0  0  0  0  0  0  0  0  0  0
  2  1  1  1
  3  2  1  0
  4  5  1  0
  4  3  1  0
  5  6  2  0
  7  2  1  0
  7  8  2  0
  9  5  1  0
 10 11  1  0
 11 12  2  0
 11 13  1  0
 14 13  1  6
 14 15  1  0
 15  7  1  0
 16 14  1  0
 17 16  2  0
 18 16  1  0
 19 18  1  0
 19 20  1  1
 20 21  1  0
 21 22  1  0
 22 23  1  0
 23 24  1  0
 25 27  1  0
 25 19  1  0
 26 25  2  0
M  END
$$$$
