ENK.pdb
     RDKit          3D

 27 26  0  0  1  0  0  0  0  0999 V2000
   26.2564  -22.0582  -12.2946 N   0  0  0  0  0  0  0  0  0  0  0  0
   25.5411  -20.8555  -11.8835 C   0  0  1  0  0  0  0  0  0  0  0  0
   26.3109  -20.1977  -10.7271 C   0  0  0  0  0  0  0  0  0  0  0  0
   25.8724  -20.7033   -9.3880 C   0  0  0  0  0  0  0  0  0  0  0  0
   24.4088  -20.7602   -9.2132 C   0  0  0  0  0  0  0  0  0  0  0  0
   23.6489  -19.7649   -9.3752 O   0  0  0  0  0  0  0  0  0  0  0  0
   25.4293  -19.8948  -13.0152 C   0  0  0  0  0  0  0  0  0  0  0  0
   24.8628  -18.8268  -12.8552 O   0  0  0  0  0  0  0  0  0  0  0  0
   23.8175  -21.9652   -8.8510 O   0  0  0  0  0  0  0  0  0  0  0  0
   27.7183  -17.1142  -14.9724 N   0  0  0  0  0  0  0  0  0  0  0  0
   28.0771  -18.1516  -15.8511 C   0  0  0  0  0  0  0  0  0  0  0  0
   29.2620  -18.0767  -16.3340 O   0  0  0  0  0  0  0  0  0  0  0  0
   27.2091  -19.2928  -16.2488 C   0  0  0  0  0  0  0  0  0  0  0  0
   25.9962  -19.3428  -15.4155 C   0  0  2  0  0  0  0  0  0  0  0  0
   25.9721  -20.1945  -14.2858 N   0  0  0  0  0  0  0  0  0  0  0  0
   24.8601  -19.7624  -16.2929 C   0  0  0  0  0  0  0  0  0  0  0  0
   24.5769  -20.9896  -16.4174 O   0  0  0  0  0  0  0  0  0  0  0  0
   24.0502  -18.8439  -17.0191 N   0  0  0  0  0  0  0  0  0  0  0  0
   22.8759  -19.3442  -17.7484 C   0  0  1  0  0  0  0  0  0  0  0  0
   21.8726  -18.2081  -17.8182 C   0  0  0  0  0  0  0  0  0  0  0  0
   20.6863  -18.6783  -18.5999 C   0  0  0  0  0  0  0  0  0  0  0  0
   19.6034  -17.6081  -18.6781 C   0  0  0  0  0  0  0  0  0  0  0  0
   18.4770  -18.2034  -19.5141 C   0  0  0  0  0  0  0  0  0  0  0  0
   17.3639  -17.2982  -19.6182 N   0  0  0  0  0  0  0  0  0  0  0  0
   23.3053  -19.7786  -19.0935 C   0  0  0  0  0  0  0  0  0  0  0  0
   24.2395  -19.1967  -19.6998 O   0  0  0  0  0  0  0  0  0  0  0  0
   22.6997  -20.8536  -19.7592 O   0  0  0  0  0  0  0  0  0  0  0  0
  2  1  1  6
  3  2  1  0
  4  5  1  0
  4  3  1  0
  5  6  2  0
  7  2  1  0
  7  8  2  0
  9  5  1  0
 10 11  1  0
 11 12  2  0
 11 13  1  0
 14 13  1  6
 14 15  1  0
 15  7  1  0
 16 14  1  0
 17 16  2  0
 18 16  1  0
 19 18  1  0
 19 20  1  6
 20 21  1  0
 21 22  1  0
 22 23  1  0
 23 24  1  0
 25 27  1  0
 25 19  1  0
 26 25  2  0
M  END
$$$$
