ENK.pdb
     RDKit          3D

 27 26  0  0  1  0  0  0  0  0999 V2000
   16.2169  -13.5027  -14.6566 N   0  0  0  0  0  0  0  0  0  0  0  0
   17.3011  -12.8019  -15.3352 C   0  0  1  0  0  0  0  0  0  0  0  0
   17.6266  -13.5472  -16.6395 C   0  0  0  0  0  0  0  0  0  0  0  0
   18.1446  -14.9300  -16.3937 C   0  0  0  0  0  0  0  0  0  0  0  0
   18.4139  -15.7016  -17.6217 C   0  0  0  0  0  0  0  0  0  0  0  0
   18.1692  -15.2703  -18.7830 O   0  0  0  0  0  0  0  0  0  0  0  0
   16.9094  -11.4005  -15.6488 C   0  0  0  0  0  0  0  0  0  0  0  0
   15.9417  -11.1815  -16.3578 O   0  0  0  0  0  0  0  0  0  0  0  0
   18.9661  -16.9729  -17.5139 O   0  0  0  0  0  0  0  0  0  0  0  0
   14.8712   -9.1897  -13.9443 N   0  0  0  0  0  0  0  0  0  0  0  0
   15.8841   -8.3395  -13.4666 C   0  0  0  0  0  0  0  0  0  0  0  0
   15.6351   -7.7628  -12.3494 O   0  0  0  0  0  0  0  0  0  0  0  0
   17.1818   -8.0688  -14.1423 C   0  0  0  0  0  0  0  0  0  0  0  0
   17.3470   -8.9327  -15.3232 C   0  0  2  0  0  0  0  0  0  0  0  0
   17.6408  -10.3042  -15.1367 N   0  0  0  0  0  0  0  0  0  0  0  0
   18.4574   -8.3649  -16.1487 C   0  0  0  0  0  0  0  0  0  0  0  0
   19.6597   -8.6459  -15.8705 O   0  0  0  0  0  0  0  0  0  0  0  0
   18.2447   -7.5033  -17.2620 N   0  0  0  0  0  0  0  0  0  0  0  0
   19.4004   -7.0503  -18.0493 C   0  0  1  0  0  0  0  0  0  0  0  0
   18.9107   -6.8003  -19.4635 C   0  0  0  0  0  0  0  0  0  0  0  0
   20.0480   -6.2448  -20.2618 C   0  0  0  0  0  0  0  0  0  0  0  0
   19.6088   -5.8473  -21.6665 C   0  0  0  0  0  0  0  0  0  0  0  0
   20.8736   -5.4244  -22.4036 C   0  0  0  0  0  0  0  0  0  0  0  0
   20.5752   -4.9367  -23.7236 N   0  0  0  0  0  0  0  0  0  0  0  0
   19.9399   -5.8215  -17.4318 C   0  0  0  0  0  0  0  0  0  0  0  0
   19.1790   -4.9441  -16.9519 O   0  0  0  0  0  0  0  0  0  0  0  0
   21.3168   -5.5708  -17.3483 O   0  0  0  0  0  0  0  0  0  0  0  0
  2  1  1  6
  3  2  1  0
  4  5  1  0
  4  3  1  0
  5  6  2  0
  7  2  1  0
  7  8  2  0
  9  5  1  0
 10 11  1  0
 11 12  2  0
 11 13  1  0
 14 13  1  1
 14 15  1  0
 15  7  1  0
 16 14  1  0
 17 16  2  0
 18 16  1  0
 19 18  1  0
 19 20  1  6
 20 21  1  0
 21 22  1  0
 22 23  1  0
 23 24  1  0
 25 27  1  0
 25 19  1  0
 26 25  2  0
M  END
$$$$
