ENK.pdb
     RDKit          3D

 27 26  0  0  1  0  0  0  0  0999 V2000
   12.6880   -9.8921   -9.4987 N   0  0  0  0  0  0  0  0  0  0  0  0
   14.1323   -9.9953   -9.6728 C   0  0  1  0  0  0  0  0  0  0  0  0
   14.4248  -11.0968  -10.7043 C   0  0  0  0  0  0  0  0  0  0  0  0
   14.0796  -12.4619  -10.1961 C   0  0  0  0  0  0  0  0  0  0  0  0
   14.2074  -13.5319  -11.2034 C   0  0  0  0  0  0  0  0  0  0  0  0
   13.4026  -13.6833  -12.1645 O   0  0  0  0  0  0  0  0  0  0  0  0
   14.7002   -8.7048  -10.1503 C   0  0  0  0  0  0  0  0  0  0  0  0
   14.1522   -8.0934  -11.0520 O   0  0  0  0  0  0  0  0  0  0  0  0
   15.2639  -14.4302  -11.1052 O   0  0  0  0  0  0  0  0  0  0  0  0
   14.2702   -5.3212   -9.1595 N   0  0  0  0  0  0  0  0  0  0  0  0
   15.5190   -5.1728   -8.5307 C   0  0  0  0  0  0  0  0  0  0  0  0
   15.5685   -4.2801   -7.6123 O   0  0  0  0  0  0  0  0  0  0  0  0
   16.7477   -5.9511   -8.8442 C   0  0  0  0  0  0  0  0  0  0  0  0
   16.4871   -6.9338   -9.9093 C   0  0  2  0  0  0  0  0  0  0  0  0
   15.8732   -8.1641   -9.5752 N   0  0  0  0  0  0  0  0  0  0  0  0
   17.7973   -7.2682  -10.5483 C   0  0  0  0  0  0  0  0  0  0  0  0
   18.6388   -7.9826   -9.9292 O   0  0  0  0  0  0  0  0  0  0  0  0
   18.1716   -6.8231  -11.8478 N   0  0  0  0  0  0  0  0  0  0  0  0
   19.4897   -7.1956  -12.3814 C   0  0  1  0  0  0  0  0  0  0  0  0
   19.2592   -8.2312  -13.4661 C   0  0  0  0  0  0  0  0  0  0  0  0
   20.5842   -8.5862  -14.0641 C   0  0  0  0  0  0  0  0  0  0  0  0
   20.4326   -9.5432  -15.2410 C   0  0  0  0  0  0  0  0  0  0  0  0
   21.8421   -9.8142  -15.7528 C   0  0  0  0  0  0  0  0  0  0  0  0
   21.8212  -10.5643  -16.9801 N   0  0  0  0  0  0  0  0  0  0  0  0
   20.1437   -5.9824  -12.9132 C   0  0  0  0  0  0  0  0  0  0  0  0
   19.4698   -5.0164  -13.3509 O   0  0  0  0  0  0  0  0  0  0  0  0
   21.5383   -5.8448  -12.9572 O   0  0  0  0  0  0  0  0  0  0  0  0
  2  1  1  6
  3  2  1  0
  4  5  1  0
  4  3  1  0
  5  6  2  0
  7  2  1  0
  7  8  2  0
  9  5  1  0
 10 11  1  0
 11 12  2  0
 11 13  1  0
 14 13  1  1
 14 15  1  0
 15  7  1  0
 16 14  1  0
 17 16  2  0
 18 16  1  0
 19 18  1  0
 19 20  1  6
 20 21  1  0
 21 22  1  0
 22 23  1  0
 23 24  1  0
 25 27  1  0
 25 19  1  0
 26 25  2  0
M  END
$$$$
