ENK.pdb
     RDKit          3D

 27 26  0  0  1  0  0  0  0  0999 V2000
   17.0260  -10.1844  -17.9601 N   0  0  0  0  0  0  0  0  0  0  0  0
   16.9084   -8.8017  -17.5113 C   0  0  1  0  0  0  0  0  0  0  0  0
   16.0841   -8.7752  -16.2142 C   0  0  0  0  0  0  0  0  0  0  0  0
   14.6618   -9.1880  -16.4323 C   0  0  0  0  0  0  0  0  0  0  0  0
   13.8495   -9.2306  -15.2017 C   0  0  0  0  0  0  0  0  0  0  0  0
   12.6140   -9.4909  -15.1915 O   0  0  0  0  0  0  0  0  0  0  0  0
   18.2518   -8.2127  -17.2578 C   0  0  0  0  0  0  0  0  0  0  0  0
   19.1361   -8.8970  -16.7710 O   0  0  0  0  0  0  0  0  0  0  0  0
   14.4599   -8.9731  -13.9795 O   0  0  0  0  0  0  0  0  0  0  0  0
   21.3068   -5.1758  -20.4721 N   0  0  0  0  0  0  0  0  0  0  0  0
   20.1693   -5.3663  -19.6680 C   0  0  0  0  0  0  0  0  0  0  0  0
   19.1636   -5.8994  -20.2571 O   0  0  0  0  0  0  0  0  0  0  0  0
   20.0518   -5.0052  -18.2293 C   0  0  0  0  0  0  0  0  0  0  0  0
   19.7683   -6.1968  -17.4122 C   0  0  2  0  0  0  0  0  0  0  0  0
   18.5303   -6.8629  -17.5732 N   0  0  0  0  0  0  0  0  0  0  0  0
   19.8534   -5.7918  -15.9750 C   0  0  0  0  0  0  0  0  0  0  0  0
   19.0259   -4.9588  -15.5027 O   0  0  0  0  0  0  0  0  0  0  0  0
   20.8333   -6.2982  -15.0749 N   0  0  0  0  0  0  0  0  0  0  0  0
   20.8408   -5.8257  -13.6829 C   0  0  1  0  0  0  0  0  0  0  0  0
   20.7591   -7.0511  -12.7918 C   0  0  0  0  0  0  0  0  0  0  0  0
   19.3316   -7.4969  -12.7382 C   0  0  0  0  0  0  0  0  0  0  0  0
   19.1304   -8.6210  -11.7282 C   0  0  0  0  0  0  0  0  0  0  0  0
   17.6285   -8.8702  -11.6633 C   0  0  0  0  0  0  0  0  0  0  0  0
   17.3046   -9.8840  -10.6955 N   0  0  0  0  0  0  0  0  0  0  0  0
   22.0837   -5.0618  -13.4503 C   0  0  0  0  0  0  0  0  0  0  0  0
   22.9690   -4.9703  -14.3373 O   0  0  0  0  0  0  0  0  0  0  0  0
   22.3395   -4.4037  -12.2390 O   0  0  0  0  0  0  0  0  0  0  0  0
  2  1  1  1
  3  2  1  0
  4  5  1  0
  4  3  1  0
  5  6  2  0
  7  2  1  0
  7  8  2  0
  9  5  1  0
 10 11  1  0
 11 12  2  0
 11 13  1  0
 14 13  1  6
 14 15  1  0
 15  7  1  0
 16 14  1  0
 17 16  2  0
 18 16  1  0
 19 18  1  0
 19 20  1  1
 20 21  1  0
 21 22  1  0
 22 23  1  0
 23 24  1  0
 25 27  1  0
 25 19  1  0
 26 25  2  0
M  END
$$$$
