ENK.pdb
     RDKit          3D

 27 26  0  0  1  0  0  0  0  0999 V2000
   26.8321  -19.9803  -16.1193 N   0  0  0  0  0  0  0  0  0  0  0  0
   26.4669  -21.3921  -16.0966 C   0  0  1  0  0  0  0  0  0  0  0  0
   27.7515  -22.2297  -15.9920 C   0  0  0  0  0  0  0  0  0  0  0  0
   28.9811  -21.4302  -16.2921 C   0  0  0  0  0  0  0  0  0  0  0  0
   29.6354  -21.7832  -17.5661 C   0  0  0  0  0  0  0  0  0  0  0  0
   29.7816  -22.9712  -17.9683 O   0  0  0  0  0  0  0  0  0  0  0  0
   25.5840  -21.6905  -14.9358 C   0  0  0  0  0  0  0  0  0  0  0  0
   25.0439  -22.7801  -14.8442 O   0  0  0  0  0  0  0  0  0  0  0  0
   30.1230  -20.7670  -18.3800 O   0  0  0  0  0  0  0  0  0  0  0  0
   25.6521  -22.2612  -10.5949 N   0  0  0  0  0  0  0  0  0  0  0  0
   25.4040  -20.8787  -10.5314 C   0  0  0  0  0  0  0  0  0  0  0  0
   25.7680  -20.3051   -9.4446 O   0  0  0  0  0  0  0  0  0  0  0  0
   24.7695  -20.0598  -11.5994 C   0  0  0  0  0  0  0  0  0  0  0  0
   24.5102  -20.8740  -12.7986 C   0  0  2  0  0  0  0  0  0  0  0  0
   25.3552  -20.7295  -13.9243 N   0  0  0  0  0  0  0  0  0  0  0  0
   23.1217  -20.5681  -13.2629 C   0  0  0  0  0  0  0  0  0  0  0  0
   22.8559  -19.4342  -13.7582 O   0  0  0  0  0  0  0  0  0  0  0  0
   22.0462  -21.4976  -13.1831 N   0  0  0  0  0  0  0  0  0  0  0  0
   20.7286  -21.1168  -13.7119 C   0  0  1  0  0  0  0  0  0  0  0  0
   20.4862  -21.9495  -14.9569 C   0  0  0  0  0  0  0  0  0  0  0  0
   19.1072  -21.6536  -15.4572 C   0  0  0  0  0  0  0  0  0  0  0  0
   18.7627  -22.4884  -16.6854 C   0  0  0  0  0  0  0  0  0  0  0  0
   17.3704  -22.0485  -17.1214 C   0  0  0  0  0  0  0  0  0  0  0  0
   16.9376  -22.7586  -18.2951 N   0  0  0  0  0  0  0  0  0  0  0  0
   19.7103  -21.3757  -12.6734 C   0  0  0  0  0  0  0  0  0  0  0  0
   19.8165  -22.3469  -11.8832 O   0  0  0  0  0  0  0  0  0  0  0  0
   18.5816  -20.5592  -12.5150 O   0  0  0  0  0  0  0  0  0  0  0  0
  2  1  1  1
  3  2  1  0
  4  5  1  0
  4  3  1  0
  5  6  2  0
  7  2  1  0
  7  8  2  0
  9  5  1  0
 10 11  1  0
 11 12  2  0
 11 13  1  0
 14 13  1  1
 14 15  1  0
 15  7  1  0
 16 14  1  0
 17 16  2  0
 18 16  1  0
 19 18  1  0
 19 20  1  6
 20 21  1  0
 21 22  1  0
 22 23  1  0
 23 24  1  0
 25 27  1  0
 25 19  1  0
 26 25  2  0
M  END
$$$$
