ENK.pdb
     RDKit          3D

 27 26  0  0  1  0  0  0  0  0999 V2000
   27.0801  -15.5143  -19.6969 N   0  0  0  0  0  0  0  0  0  0  0  0
   25.8258  -15.3076  -18.9821 C   0  0  1  0  0  0  0  0  0  0  0  0
   24.8386  -14.5938  -19.9194 C   0  0  0  0  0  0  0  0  0  0  0  0
   23.4573  -15.1647  -19.8366 C   0  0  0  0  0  0  0  0  0  0  0  0
   22.3811  -14.1672  -19.9868 C   0  0  0  0  0  0  0  0  0  0  0  0
   21.8305  -13.8976  -21.0907 O   0  0  0  0  0  0  0  0  0  0  0  0
   25.2455  -16.6076  -18.5470 C   0  0  0  0  0  0  0  0  0  0  0  0
   24.8890  -17.4254  -19.3785 O   0  0  0  0  0  0  0  0  0  0  0  0
   21.9368  -13.4777  -18.8643 O   0  0  0  0  0  0  0  0  0  0  0  0
   27.4452  -18.9163  -17.1328 N   0  0  0  0  0  0  0  0  0  0  0  0
   26.8613  -19.1104  -15.8686 C   0  0  0  0  0  0  0  0  0  0  0  0
   27.6019  -19.7039  -15.0072 O   0  0  0  0  0  0  0  0  0  0  0  0
   25.4902  -18.6911  -15.4710 C   0  0  0  0  0  0  0  0  0  0  0  0
   24.7430  -18.1775  -16.6312 C   0  0  2  0  0  0  0  0  0  0  0  0
   25.0974  -16.9207  -17.1762 N   0  0  0  0  0  0  0  0  0  0  0  0
   23.3032  -18.0834  -16.2379 C   0  0  0  0  0  0  0  0  0  0  0  0
   22.8920  -17.0854  -15.5771 O   0  0  0  0  0  0  0  0  0  0  0  0
   22.3342  -19.0726  -16.5689 N   0  0  0  0  0  0  0  0  0  0  0  0
   20.9405  -18.8824  -16.1420 C   0  0  1  0  0  0  0  0  0  0  0  0
   20.0982  -19.8974  -16.8921 C   0  0  0  0  0  0  0  0  0  0  0  0
   18.6630  -19.6718  -16.5333 C   0  0  0  0  0  0  0  0  0  0  0  0
   17.7601  -20.7526  -17.1170 C   0  0  0  0  0  0  0  0  0  0  0  0
   16.3305  -20.2602  -16.9274 C   0  0  0  0  0  0  0  0  0  0  0  0
   15.3733  -21.2606  -17.3175 N   0  0  0  0  0  0  0  0  0  0  0  0
   20.8633  -19.0806  -14.6801 C   0  0  0  0  0  0  0  0  0  0  0  0
   19.9722  -18.5223  -13.9922 O   0  0  0  0  0  0  0  0  0  0  0  0
   21.7711  -19.8948  -13.9884 O   0  0  0  0  0  0  0  0  0  0  0  0
  2  1  1  6
  3  2  1  0
  4  5  1  0
  4  3  1  0
  5  6  2  0
  7  2  1  0
  7  8  2  0
  9  5  1  0
 10 11  1  0
 11 12  2  0
 11 13  1  0
 14 13  1  1
 14 15  1  0
 15  7  1  0
 16 14  1  0
 17 16  2  0
 18 16  1  0
 19 18  1  0
 19 20  1  6
 20 21  1  0
 21 22  1  0
 22 23  1  0
 23 24  1  0
 25 27  1  0
 25 19  1  0
 26 25  2  0
M  END
$$$$
