PQN.pdb
     RDKit          3D

 25 25  0  0  1  0  0  0  0  0999 V2000
    8.0978  -15.0058   18.7513 N   0  0  0  0  0  0  0  0  0  0  0  0
    6.9717  -14.1951   19.1728 C   0  0  0  0  0  0  0  0  0  0  0  0
    7.4018  -12.7473   19.0962 C   0  0  0  0  0  0  0  0  0  0  0  0
    8.8300  -12.7746   18.5673 C   0  0  0  0  0  0  0  0  0  0  0  0
    9.2757  -14.2061   18.7896 C   0  0  1  0  0  0  0  0  0  0  0  0
    9.9645  -14.2480   20.1197 C   0  0  0  0  0  0  0  0  0  0  0  0
   10.9250  -13.4862   20.2814 O   0  0  0  0  0  0  0  0  0  0  0  0
    6.6109  -14.1215   25.6306 N   0  0  0  0  0  0  0  0  0  0  0  0
    6.9338  -15.0048   24.5734 C   0  0  0  0  0  0  0  0  0  0  0  0
    6.3747  -16.1311   24.5578 O   0  0  0  0  0  0  0  0  0  0  0  0
    7.9000  -14.6498   23.4929 C   0  0  0  0  0  0  0  0  0  0  0  0
    9.0423  -15.6360   23.5048 C   0  0  0  0  0  0  0  0  0  0  0  0
   10.0608  -15.3538   22.4120 C   0  0  2  0  0  0  0  0  0  0  0  0
    9.5125  -15.1303   21.1190 N   0  0  0  0  0  0  0  0  0  0  0  0
   11.2318  -16.2260   22.4444 C   0  0  0  0  0  0  0  0  0  0  0  0
   11.2629  -17.3697   21.8986 O   0  0  0  0  0  0  0  0  0  0  0  0
   14.5800  -14.3570   20.6384 N   0  0  0  0  0  0  0  0  0  0  0  0
   14.6831  -15.6631   21.1694 C   0  0  0  0  0  0  0  0  0  0  0  0
   14.6618  -16.6568   20.4180 O   0  0  0  0  0  0  0  0  0  0  0  0
   14.8206  -15.8417   22.6455 C   0  0  0  0  0  0  0  0  0  0  0  0
   13.6302  -16.6618   23.1340 C   0  0  2  0  0  0  0  0  0  0  0  0
   12.4422  -15.8370   23.1093 N   0  0  0  0  0  0  0  0  0  0  0  0
   13.9091  -17.0471   24.5301 C   0  0  0  0  0  0  0  0  0  0  0  0
   14.9688  -17.9120   24.8134 O   0  0  0  0  0  0  0  0  0  0  0  0
   13.2112  -16.6142   25.4715 O   0  0  0  0  0  0  0  0  0  0  0  0
  1  2  1  0
  3  2  1  0
  4  5  1  0
  4  3  1  0
  5  6  1  1
  5  1  1  0
  6  7  2  0
  9 11  1  0
  9  8  1  0
 10  9  2  0
 13 12  1  1
 12 11  1  0
 14 13  1  0
 14  6  1  0
 15 22  1  0
 15 13  1  0
 16 15  2  0
 17 18  1  0
 18 20  1  0
 19 18  2  0
 21 22  1  0
 21 20  1  1
 23 21  1  0
 24 23  1  0
 25 23  2  0
M  END
$$$$
