PQN.pdb
     RDKit          3D

 25 25  0  0  1  0  0  0  0  0999 V2000
    7.8840  -14.7700   18.4690 N   0  0  0  0  0  0  0  0  0  0  0  0
    6.6117  -14.0980   18.6493 C   0  0  0  0  0  0  0  0  0  0  0  0
    6.8990  -12.7327   19.2327 C   0  0  0  0  0  0  0  0  0  0  0  0
    8.4160  -12.6468   19.3393 C   0  0  0  0  0  0  0  0  0  0  0  0
    8.8728  -14.0882   19.2345 C   0  0  1  0  0  0  0  0  0  0  0  0
    8.9896  -14.6127   20.6333 C   0  0  0  0  0  0  0  0  0  0  0  0
    9.8603  -14.1096   21.3531 O   0  0  0  0  0  0  0  0  0  0  0  0
    4.7669  -18.8027   23.1758 N   0  0  0  0  0  0  0  0  0  0  0  0
    5.7966  -19.3396   22.3672 C   0  0  0  0  0  0  0  0  0  0  0  0
    5.6559  -20.5140   21.9403 O   0  0  0  0  0  0  0  0  0  0  0  0
    7.0242  -18.5704   22.0092 C   0  0  0  0  0  0  0  0  0  0  0  0
    6.9337  -17.1861   22.6033 C   0  0  0  0  0  0  0  0  0  0  0  0
    8.1667  -16.3479   22.3061 C   0  0  2  0  0  0  0  0  0  0  0  0
    8.1304  -15.6362   21.0755 N   0  0  0  0  0  0  0  0  0  0  0  0
    9.4314  -17.0190   22.5949 C   0  0  0  0  0  0  0  0  0  0  0  0
    9.9753  -17.8482   21.8053 O   0  0  0  0  0  0  0  0  0  0  0  0
   14.7204  -16.6224   23.2425 N   0  0  0  0  0  0  0  0  0  0  0  0
   13.8265  -16.5854   24.3370 C   0  0  0  0  0  0  0  0  0  0  0  0
   14.1850  -16.9819   25.4625 O   0  0  0  0  0  0  0  0  0  0  0  0
   12.4430  -16.0623   24.1316 C   0  0  0  0  0  0  0  0  0  0  0  0
   11.4962  -17.2556   24.0433 C   0  0  2  0  0  0  0  0  0  0  0  0
   10.1502  -16.7787   23.8131 N   0  0  0  0  0  0  0  0  0  0  0  0
   11.5375  -17.9427   25.3478 C   0  0  0  0  0  0  0  0  0  0  0  0
   12.5344  -18.8870   25.6041 O   0  0  0  0  0  0  0  0  0  0  0  0
   10.6920  -17.6975   26.2342 O   0  0  0  0  0  0  0  0  0  0  0  0
  1  2  1  0
  3  2  1  0
  4  5  1  0
  4  3  1  0
  5  6  1  1
  5  1  1  0
  6  7  2  0
  9 11  1  0
  9  8  1  0
 10  9  2  0
 13 12  1  6
 12 11  1  0
 14 13  1  0
 14  6  1  0
 15 22  1  0
 15 13  1  0
 16 15  2  0
 17 18  1  0
 18 20  1  0
 19 18  2  0
 21 22  1  0
 21 20  1  1
 23 21  1  0
 24 23  1  0
 25 23  2  0
M  END
$$$$
