PQN.pdb
     RDKit          3D

 25 25  0  0  1  0  0  0  0  0999 V2000
    8.7960  -14.9581   19.3122 N   0  0  0  0  0  0  0  0  0  0  0  0
    7.4891  -14.8760   18.6890 C   0  0  0  0  0  0  0  0  0  0  0  0
    6.9601  -13.4795   18.9280 C   0  0  0  0  0  0  0  0  0  0  0  0
    8.0597  -12.7532   19.6918 C   0  0  0  0  0  0  0  0  0  0  0  0
    8.9381  -13.8698   20.2198 C   0  0  1  0  0  0  0  0  0  0  0  0
    8.4506  -14.1947   21.5990 C   0  0  0  0  0  0  0  0  0  0  0  0
    8.3887  -13.2626   22.4091 O   0  0  0  0  0  0  0  0  0  0  0  0
    7.0213  -20.0290   23.4905 N   0  0  0  0  0  0  0  0  0  0  0  0
    6.5051  -19.2473   24.5510 C   0  0  0  0  0  0  0  0  0  0  0  0
    6.1530  -19.8420   25.6015 O   0  0  0  0  0  0  0  0  0  0  0  0
    6.3676  -17.7638   24.4661 C   0  0  0  0  0  0  0  0  0  0  0  0
    6.8276  -17.2996   23.1057 C   0  0  0  0  0  0  0  0  0  0  0  0
    7.6570  -16.0276   23.1791 C   0  0  2  0  0  0  0  0  0  0  0  0
    8.0889  -15.5155   21.9248 N   0  0  0  0  0  0  0  0  0  0  0  0
    8.6744  -16.0353   24.2270 C   0  0  0  0  0  0  0  0  0  0  0  0
    9.8764  -16.3851   24.0273 O   0  0  0  0  0  0  0  0  0  0  0  0
   11.1665  -15.0158   28.5197 N   0  0  0  0  0  0  0  0  0  0  0  0
    9.9813  -14.2522   28.6234 C   0  0  0  0  0  0  0  0  0  0  0  0
    9.8363  -13.4284   29.5470 O   0  0  0  0  0  0  0  0  0  0  0  0
    8.9008  -14.4409   27.6102 C   0  0  0  0  0  0  0  0  0  0  0  0
    9.3837  -15.4699   26.5923 C   0  0  2  0  0  0  0  0  0  0  0  0
    8.3719  -15.6417   25.5731 N   0  0  0  0  0  0  0  0  0  0  0  0
    9.5533  -16.7472   27.3099 C   0  0  0  0  0  0  0  0  0  0  0  0
   10.7876  -17.0637   27.8823 O   0  0  0  0  0  0  0  0  0  0  0  0
    8.6097  -17.5590   27.4159 O   0  0  0  0  0  0  0  0  0  0  0  0
  1  2  1  0
  3  2  1  0
  4  5  1  0
  4  3  1  0
  5  6  1  1
  5  1  1  0
  6  7  2  0
  9 11  1  0
  9  8  1  0
 10  9  2  0
 13 12  1  6
 12 11  1  0
 14 13  1  0
 14  6  1  0
 15 22  1  0
 15 13  1  0
 16 15  2  0
 17 18  1  0
 18 20  1  0
 19 18  2  0
 21 22  1  0
 21 20  1  1
 23 21  1  0
 24 23  1  0
 25 23  2  0
M  END
$$$$
