PQN.pdb
     RDKit          3D

 25 25  0  0  1  0  0  0  0  0999 V2000
    6.8952  -14.7873   19.9993 N   0  0  0  0  0  0  0  0  0  0  0  0
    6.1819  -13.5247   19.9988 C   0  0  0  0  0  0  0  0  0  0  0  0
    7.1743  -12.4437   19.6332 C   0  0  0  0  0  0  0  0  0  0  0  0
    8.4914  -13.1676   19.3852 C   0  0  0  0  0  0  0  0  0  0  0  0
    8.2939  -14.5213   20.0375 C   0  0  1  0  0  0  0  0  0  0  0  0
    8.8282  -14.4162   21.4335 C   0  0  0  0  0  0  0  0  0  0  0  0
   10.0520  -14.2921   21.5608 O   0  0  0  0  0  0  0  0  0  0  0  0
    7.0093  -11.8166   27.9747 N   0  0  0  0  0  0  0  0  0  0  0  0
    6.6973  -12.7792   26.9857 C   0  0  0  0  0  0  0  0  0  0  0  0
    5.4836  -13.0325   26.7751 O   0  0  0  0  0  0  0  0  0  0  0  0
    7.7437  -13.4921   26.1961 C   0  0  0  0  0  0  0  0  0  0  0  0
    7.2418  -13.7101   24.7896 C   0  0  0  0  0  0  0  0  0  0  0  0
    8.2611  -14.4240   23.9164 C   0  0  2  0  0  0  0  0  0  0  0  0
    7.9468  -14.4624   22.5300 N   0  0  0  0  0  0  0  0  0  0  0  0
    8.7515  -15.6817   24.4740 C   0  0  0  0  0  0  0  0  0  0  0  0
    8.0416  -16.7284   24.5602 O   0  0  0  0  0  0  0  0  0  0  0  0
   11.8508  -18.2067   23.1579 N   0  0  0  0  0  0  0  0  0  0  0  0
   12.4444  -17.1726   23.9173 C   0  0  0  0  0  0  0  0  0  0  0  0
   13.2216  -16.3587   23.3824 O   0  0  0  0  0  0  0  0  0  0  0  0
   12.1285  -17.0627   25.3726 C   0  0  0  0  0  0  0  0  0  0  0  0
   10.6105  -17.0443   25.5253 C   0  0  2  0  0  0  0  0  0  0  0  0
   10.0914  -15.8139   24.9695 N   0  0  0  0  0  0  0  0  0  0  0  0
   10.3169  -17.0709   26.9704 C   0  0  0  0  0  0  0  0  0  0  0  0
   10.6259  -18.2077   27.7211 O   0  0  0  0  0  0  0  0  0  0  0  0
    9.7921  -16.0913   27.5412 O   0  0  0  0  0  0  0  0  0  0  0  0
  1  2  1  0
  3  2  1  0
  4  5  1  0
  4  3  1  0
  5  6  1  1
  5  1  1  0
  6  7  2  0
  9 11  1  0
  9  8  1  0
 10  9  2  0
 13 12  1  1
 12 11  1  0
 14 13  1  0
 14  6  1  0
 15 22  1  0
 15 13  1  0
 16 15  2  0
 17 18  1  0
 18 20  1  0
 19 18  2  0
 21 22  1  0
 21 20  1  1
 23 21  1  0
 24 23  1  0
 25 23  2  0
M  END
$$$$
