PQN.pdb
     RDKit          3D

 25 25  0  0  1  0  0  0  0  0999 V2000
    8.7045  -14.5501   18.3331 N   0  0  0  0  0  0  0  0  0  0  0  0
    7.2820  -14.6440   18.0672 C   0  0  0  0  0  0  0  0  0  0  0  0
    6.5871  -13.6389   18.9583 C   0  0  0  0  0  0  0  0  0  0  0  0
    7.7006  -12.9348   19.7229 C   0  0  0  0  0  0  0  0  0  0  0  0
    8.8943  -13.8547   19.5615 C   0  0  1  0  0  0  0  0  0  0  0  0
    8.9073  -14.7667   20.7504 C   0  0  0  0  0  0  0  0  0  0  0  0
    8.8032  -14.2414   21.8650 O   0  0  0  0  0  0  0  0  0  0  0  0
    5.2424  -17.7162   23.2270 N   0  0  0  0  0  0  0  0  0  0  0  0
    6.1920  -18.5134   22.5453 C   0  0  0  0  0  0  0  0  0  0  0  0
    6.4681  -19.6408   23.0294 O   0  0  0  0  0  0  0  0  0  0  0  0
    6.8658  -18.0685   21.2903 C   0  0  0  0  0  0  0  0  0  0  0  0
    8.3357  -18.4008   21.3714 C   0  0  0  0  0  0  0  0  0  0  0  0
    9.1983  -17.1635   21.5612 C   0  0  2  0  0  0  0  0  0  0  0  0
    9.0362  -16.1567   20.5700 N   0  0  0  0  0  0  0  0  0  0  0  0
   10.5819  -17.4487   21.9320 C   0  0  0  0  0  0  0  0  0  0  0  0
   11.2476  -18.4125   21.4474 O   0  0  0  0  0  0  0  0  0  0  0  0
   15.4633  -16.1745   24.6383 N   0  0  0  0  0  0  0  0  0  0  0  0
   14.8517  -15.7957   23.4213 C   0  0  0  0  0  0  0  0  0  0  0  0
   15.5271  -15.6817   22.3805 O   0  0  0  0  0  0  0  0  0  0  0  0
   13.3817  -15.5346   23.3939 C   0  0  0  0  0  0  0  0  0  0  0  0
   12.6674  -16.8753   23.2508 C   0  0  2  0  0  0  0  0  0  0  0  0
   11.2872  -16.6423   22.8863 N   0  0  0  0  0  0  0  0  0  0  0  0
   12.7032  -17.5319   24.5710 C   0  0  0  0  0  0  0  0  0  0  0  0
   11.5566  -17.5507   25.3686 O   0  0  0  0  0  0  0  0  0  0  0  0
   13.7457  -18.0743   24.9948 O   0  0  0  0  0  0  0  0  0  0  0  0
  1  2  1  0
  3  2  1  0
  4  5  1  0
  4  3  1  0
  5  6  1  1
  5  1  1  0
  6  7  2  0
  9 11  1  0
  9  8  1  0
 10  9  2  0
 13 12  1  6
 12 11  1  0
 14 13  1  0
 14  6  1  0
 15 22  1  0
 15 13  1  0
 16 15  2  0
 17 18  1  0
 18 20  1  0
 19 18  2  0
 21 22  1  0
 21 20  1  1
 23 21  1  0
 24 23  1  0
 25 23  2  0
M  END
$$$$
