PQN.pdb
     RDKit          3D

 25 25  0  0  1  0  0  0  0  0999 V2000
    7.9453  -15.0045   18.7700 N   0  0  0  0  0  0  0  0  0  0  0  0
    6.8849  -14.1459   19.2615 C   0  0  0  0  0  0  0  0  0  0  0  0
    7.3728  -12.7183   19.1573 C   0  0  0  0  0  0  0  0  0  0  0  0
    8.7621  -12.8073   18.5393 C   0  0  0  0  0  0  0  0  0  0  0  0
    9.1574  -14.2575   18.7335 C   0  0  1  0  0  0  0  0  0  0  0  0
    9.9262  -14.3330   20.0175 C   0  0  0  0  0  0  0  0  0  0  0  0
   11.0232  -13.7632   20.0519 O   0  0  0  0  0  0  0  0  0  0  0  0
    6.4050  -17.7088   22.5386 N   0  0  0  0  0  0  0  0  0  0  0  0
    7.1888  -17.2339   23.6167 C   0  0  0  0  0  0  0  0  0  0  0  0
    6.5979  -16.9382   24.6866 O   0  0  0  0  0  0  0  0  0  0  0  0
    8.6700  -17.0756   23.5281 C   0  0  0  0  0  0  0  0  0  0  0  0
    9.0115  -15.6058   23.5029 C   0  0  0  0  0  0  0  0  0  0  0  0
    9.9865  -15.2579   22.3896 C   0  0  2  0  0  0  0  0  0  0  0  0
    9.3938  -15.0326   21.1168 N   0  0  0  0  0  0  0  0  0  0  0  0
   11.1941  -16.0792   22.3724 C   0  0  0  0  0  0  0  0  0  0  0  0
   11.1763  -17.3401   22.2430 O   0  0  0  0  0  0  0  0  0  0  0  0
   14.2403  -13.6795   19.9862 N   0  0  0  0  0  0  0  0  0  0  0  0
   14.3541  -15.0397   20.3544 C   0  0  0  0  0  0  0  0  0  0  0  0
   14.0916  -15.9423   19.5365 O   0  0  0  0  0  0  0  0  0  0  0  0
   14.7960  -15.3864   21.7379 C   0  0  0  0  0  0  0  0  0  0  0  0
   13.7206  -16.2652   22.3699 C   0  0  2  0  0  0  0  0  0  0  0  0
   12.5002  -15.5005   22.5048 N   0  0  0  0  0  0  0  0  0  0  0  0
   14.1962  -16.6374   23.7154 C   0  0  0  0  0  0  0  0  0  0  0  0
   13.4621  -16.2571   24.8414 O   0  0  0  0  0  0  0  0  0  0  0  0
   15.2507  -17.2891   23.8706 O   0  0  0  0  0  0  0  0  0  0  0  0
  1  2  1  0
  3  2  1  0
  4  5  1  0
  4  3  1  0
  5  6  1  1
  5  1  1  0
  6  7  2  0
  9 11  1  0
  9  8  1  0
 10  9  2  0
 13 12  1  1
 12 11  1  0
 14 13  1  0
 14  6  1  0
 15 22  1  0
 15 13  1  0
 16 15  2  0
 17 18  1  0
 18 20  1  0
 19 18  2  0
 21 22  1  0
 21 20  1  1
 23 21  1  0
 24 23  1  0
 25 23  2  0
M  END
$$$$
