PQN.pdb
     RDKit          3D

 25 25  0  0  1  0  0  0  0  0999 V2000
    9.0137  -13.4892   18.1757 N   0  0  0  0  0  0  0  0  0  0  0  0
    7.6613  -13.7695   17.7339 C   0  0  0  0  0  0  0  0  0  0  0  0
    6.7470  -13.5764   18.9230 C   0  0  0  0  0  0  0  0  0  0  0  0
    7.6520  -13.1298   20.0638 C   0  0  0  0  0  0  0  0  0  0  0  0
    9.0430  -13.5130   19.5994 C   0  0  1  0  0  0  0  0  0  0  0  0
    9.3288  -14.8759   20.1529 C   0  0  0  0  0  0  0  0  0  0  0  0
    8.6786  -15.2298   21.1434 O   0  0  0  0  0  0  0  0  0  0  0  0
   14.0206  -20.3464   18.6091 N   0  0  0  0  0  0  0  0  0  0  0  0
   12.7208  -19.8214   18.4169 C   0  0  0  0  0  0  0  0  0  0  0  0
   12.1824  -19.9833   17.2921 O   0  0  0  0  0  0  0  0  0  0  0  0
   11.9787  -19.0940   19.4880 C   0  0  0  0  0  0  0  0  0  0  0  0
   11.6767  -17.6919   19.0183 C   0  0  0  0  0  0  0  0  0  0  0  0
   10.8633  -16.9050   20.0332 C   0  0  2  0  0  0  0  0  0  0  0  0
   10.3036  -15.6912   19.5477 N   0  0  0  0  0  0  0  0  0  0  0  0
   11.4782  -16.8168   21.3551 C   0  0  0  0  0  0  0  0  0  0  0  0
   12.1445  -15.8121   21.7470 O   0  0  0  0  0  0  0  0  0  0  0  0
   11.2011  -17.7293   26.9830 N   0  0  0  0  0  0  0  0  0  0  0  0
   11.6047  -18.5990   25.9441 C   0  0  0  0  0  0  0  0  0  0  0  0
   12.5063  -19.4379   26.1334 O   0  0  0  0  0  0  0  0  0  0  0  0
   10.9362  -18.5041   24.6122 C   0  0  0  0  0  0  0  0  0  0  0  0
   11.8898  -17.7943   23.6557 C   0  0  2  0  0  0  0  0  0  0  0  0
   11.3660  -17.8815   22.3102 N   0  0  0  0  0  0  0  0  0  0  0  0
   13.1767  -18.5129   23.7093 C   0  0  0  0  0  0  0  0  0  0  0  0
   14.1886  -18.0626   24.5605 O   0  0  0  0  0  0  0  0  0  0  0  0
   13.3829  -19.5224   23.0029 O   0  0  0  0  0  0  0  0  0  0  0  0
  1  2  1  0
  3  2  1  0
  4  5  1  0
  4  3  1  0
  5  6  1  6
  5  1  1  0
  6  7  2  0
  9 11  1  0
  9  8  1  0
 10  9  2  0
 13 12  1  6
 12 11  1  0
 14 13  1  0
 14  6  1  0
 15 22  1  0
 15 13  1  0
 16 15  2  0
 17 18  1  0
 18 20  1  0
 19 18  2  0
 21 22  1  0
 21 20  1  1
 23 21  1  0
 24 23  1  0
 25 23  2  0
M  END
$$$$
