PQN.pdb
     RDKit          3D

 25 25  0  0  1  0  0  0  0  0999 V2000
    8.2344  -14.9244   18.8781 N   0  0  0  0  0  0  0  0  0  0  0  0
    6.8272  -14.5771   18.8328 C   0  0  0  0  0  0  0  0  0  0  0  0
    6.6931  -13.1614   19.3474 C   0  0  0  0  0  0  0  0  0  0  0  0
    8.1132  -12.7035   19.6534 C   0  0  0  0  0  0  0  0  0  0  0  0
    8.9077  -13.9926   19.7188 C   0  0  1  0  0  0  0  0  0  0  0  0
    8.9335  -14.4179   21.1554 C   0  0  0  0  0  0  0  0  0  0  0  0
    9.3833  -13.6085   21.9749 O   0  0  0  0  0  0  0  0  0  0  0  0
    5.5337  -19.2447   23.6392 N   0  0  0  0  0  0  0  0  0  0  0  0
    6.3305  -18.7805   24.7125 C   0  0  0  0  0  0  0  0  0  0  0  0
    6.1272  -19.2742   25.8510 O   0  0  0  0  0  0  0  0  0  0  0  0
    7.3880  -17.7417   24.5410 C   0  0  0  0  0  0  0  0  0  0  0  0
    7.3056  -17.1752   23.1446 C   0  0  0  0  0  0  0  0  0  0  0  0
    8.5134  -16.3206   22.7954 C   0  0  2  0  0  0  0  0  0  0  0  0
    8.4599  -15.6921   21.5209 N   0  0  0  0  0  0  0  0  0  0  0  0
    9.7969  -16.9322   23.1296 C   0  0  0  0  0  0  0  0  0  0  0  0
   10.2848  -17.9159   22.4963 O   0  0  0  0  0  0  0  0  0  0  0  0
   13.3087  -14.7987   22.6693 N   0  0  0  0  0  0  0  0  0  0  0  0
   13.3409  -16.0940   23.2346 C   0  0  0  0  0  0  0  0  0  0  0  0
   13.6731  -17.0783   22.5466 O   0  0  0  0  0  0  0  0  0  0  0  0
   12.9738  -16.2724   24.6709 C   0  0  0  0  0  0  0  0  0  0  0  0
   11.7423  -17.1711   24.7345 C   0  0  2  0  0  0  0  0  0  0  0  0
   10.6003  -16.4504   24.2162 N   0  0  0  0  0  0  0  0  0  0  0  0
   11.5006  -17.4801   26.1563 C   0  0  0  0  0  0  0  0  0  0  0  0
   12.4524  -18.2000   26.8821 O   0  0  0  0  0  0  0  0  0  0  0  0
   10.4537  -17.1101   26.7289 O   0  0  0  0  0  0  0  0  0  0  0  0
  1  2  1  0
  3  2  1  0
  4  5  1  0
  4  3  1  0
  5  6  1  1
  5  1  1  0
  6  7  2  0
  9 11  1  0
  9  8  1  0
 10  9  2  0
 13 12  1  6
 12 11  1  0
 14 13  1  0
 14  6  1  0
 15 22  1  0
 15 13  1  0
 16 15  2  0
 17 18  1  0
 18 20  1  0
 19 18  2  0
 21 22  1  0
 21 20  1  1
 23 21  1  0
 24 23  1  0
 25 23  2  0
M  END
$$$$
