WQW.pdb
     RDKit          3D

 38 41  0  0  1  0  0  0  0  0999 V2000
   27.5997  -21.3086  -12.0833 N   0  0  0  0  0  0  0  0  0  0  0  0
   26.3969  -21.5833  -11.3090 C   0  0  1  0  0  0  0  0  0  0  0  0
   26.2663  -20.5874  -10.1630 C   0  0  0  0  0  0  0  0  0  0  0  0
   27.4597  -20.4882   -9.3286 C   0  0  0  0  0  0  0  0  0  0  0  0
   28.7424  -20.8033   -9.6941 C   0  0  0  0  0  0  0  0  0  0  0  0
   29.5836  -20.5801   -8.6471 N   0  0  0  0  0  0  0  0  0  0  0  0
   28.8345  -20.1270   -7.6280 C   0  0  0  0  0  0  0  0  0  0  0  0
   29.1614  -19.7463   -6.3461 C   0  0  0  0  0  0  0  0  0  0  0  0
   28.1979  -19.3033   -5.4584 C   0  0  0  0  0  0  0  0  0  0  0  0
   26.8797  -19.2338   -5.8448 C   0  0  0  0  0  0  0  0  0  0  0  0
   26.5424  -19.6117   -7.1227 C   0  0  0  0  0  0  0  0  0  0  0  0
   27.4991  -20.0586   -8.0246 C   0  0  0  0  0  0  0  0  0  0  0  0
   25.1608  -21.4293  -12.1027 C   0  0  0  0  0  0  0  0  0  0  0  0
   24.6265  -20.3194  -12.1994 O   0  0  0  0  0  0  0  0  0  0  0  0
   25.9326  -24.6879  -15.1184 N   0  0  0  0  0  0  0  0  0  0  0  0
   26.1337  -23.3611  -15.5944 C   0  0  0  0  0  0  0  0  0  0  0  0
   27.2508  -22.9795  -16.0505 O   0  0  0  0  0  0  0  0  0  0  0  0
   25.0235  -22.3909  -15.5629 C   0  0  0  0  0  0  0  0  0  0  0  0
   23.7923  -23.0938  -15.0052 C   0  0  0  0  0  0  0  0  0  0  0  0
   23.5376  -22.5749  -13.6538 C   0  0  2  0  0  0  0  0  0  0  0  0
   24.6123  -22.5595  -12.7387 N   0  0  0  0  0  0  0  0  0  0  0  0
   22.2381  -23.1078  -13.0935 C   0  0  0  0  0  0  0  0  0  0  0  0
   22.2436  -24.1565  -12.4219 O   0  0  0  0  0  0  0  0  0  0  0  0
   21.0023  -22.4565  -13.3036 N   0  0  0  0  0  0  0  0  0  0  0  0
   19.7383  -22.9027  -12.7714 C   0  0  1  0  0  0  0  0  0  0  0  0
   19.2538  -22.0264  -11.6381 C   0  0  0  0  0  0  0  0  0  0  0  0
   19.1365  -20.6188  -12.0269 C   0  0  0  0  0  0  0  0  0  0  0  0
   18.3208  -20.1248  -13.0165 C   0  0  0  0  0  0  0  0  0  0  0  0
   18.4825  -18.7943  -13.0869 N   0  0  0  0  0  0  0  0  0  0  0  0
   19.3862  -18.4276  -12.1611 C   0  0  0  0  0  0  0  0  0  0  0  0
   19.9060  -17.1751  -11.8228 C   0  0  0  0  0  0  0  0  0  0  0  0
   20.8380  -17.0870  -10.8135 C   0  0  0  0  0  0  0  0  0  0  0  0
   21.2582  -18.2168  -10.1405 C   0  0  0  0  0  0  0  0  0  0  0  0
   20.7585  -19.4372  -10.4629 C   0  0  0  0  0  0  0  0  0  0  0  0
   19.8167  -19.5519  -11.4778 C   0  0  0  0  0  0  0  0  0  0  0  0
   18.7524  -23.0703  -13.8384 C   0  0  0  0  0  0  0  0  0  0  0  0
   17.6997  -23.7129  -13.5920 O   0  0  0  0  0  0  0  0  0  0  0  0
   18.8904  -22.5682  -15.1194 O   0  0  0  0  0  0  0  0  0  0  0  0
  2  1  1  6
  2 13  1  0
  3  4  1  0
  3  2  1  0
  4  5  2  0
  5  6  1  0
  7  6  1  0
  8  7  2  0
  9  8  1  0
 10 11  1  0
 10  9  2  0
 11 12  2  0
 12  4  1  0
 12  7  1  0
 13 14  2  0
 16 17  2  0
 16 15  1  0
 18 16  1  0
 19 18  1  0
 20 19  1  6
 20 22  1  0
 21 13  1  0
 21 20  1  0
 22 23  2  0
 22 24  1  0
 24 25  1  0
 25 26  1  1
 26 27  1  0
 27 28  2  0
 28 29  1  0
 30 29  1  0
 31 30  2  0
 32 31  1  0
 33 34  1  0
 33 32  2  0
 34 35  2  0
 35 27  1  0
 35 30  1  0
 36 25  1  0
 36 38  1  0
 37 36  2  0
M  END
$$$$
