WQW.pdb
     RDKit          3D

 38 41  0  0  1  0  0  0  0  0999 V2000
   17.1171  -16.9816    2.3317 N   0  0  0  0  0  0  0  0  0  0  0  0
   16.9606  -17.1212    3.7731 C   0  0  1  0  0  0  0  0  0  0  0  0
   17.1539  -18.5747    4.1881 C   0  0  0  0  0  0  0  0  0  0  0  0
   16.2677  -19.5077    3.4993 C   0  0  0  0  0  0  0  0  0  0  0  0
   15.2780  -19.1890    2.6065 C   0  0  0  0  0  0  0  0  0  0  0  0
   14.6670  -20.3271    2.1763 N   0  0  0  0  0  0  0  0  0  0  0  0
   15.2688  -21.3567    2.7950 C   0  0  0  0  0  0  0  0  0  0  0  0
   15.0583  -22.7157    2.7325 C   0  0  0  0  0  0  0  0  0  0  0  0
   15.8209  -23.5976    3.4762 C   0  0  0  0  0  0  0  0  0  0  0  0
   16.8157  -23.1275    4.3015 C   0  0  0  0  0  0  0  0  0  0  0  0
   17.0342  -21.7721    4.3715 C   0  0  0  0  0  0  0  0  0  0  0  0
   16.2762  -20.8749    3.6307 C   0  0  0  0  0  0  0  0  0  0  0  0
   17.9737  -16.3605    4.5326 C   0  0  0  0  0  0  0  0  0  0  0  0
   19.1367  -16.3031    4.1194 O   0  0  0  0  0  0  0  0  0  0  0  0
   20.8812  -11.6694    6.2254 N   0  0  0  0  0  0  0  0  0  0  0  0
   19.4996  -11.9884    6.3544 C   0  0  0  0  0  0  0  0  0  0  0  0
   18.6465  -11.6116    5.4989 O   0  0  0  0  0  0  0  0  0  0  0  0
   19.0304  -12.7774    7.5086 C   0  0  0  0  0  0  0  0  0  0  0  0
   17.8675  -13.6479    7.0494 C   0  0  0  0  0  0  0  0  0  0  0  0
   18.4114  -14.9205    6.5544 C   0  0  2  0  0  0  0  0  0  0  0  0
   17.5901  -15.7105    5.7213 N   0  0  0  0  0  0  0  0  0  0  0  0
   19.1175  -15.6836    7.6525 C   0  0  0  0  0  0  0  0  0  0  0  0
   18.5299  -16.6211    8.2240 O   0  0  0  0  0  0  0  0  0  0  0  0
   20.4332  -15.3724    8.0620 N   0  0  0  0  0  0  0  0  0  0  0  0
   21.1444  -16.0457    9.1206 C   0  0  1  0  0  0  0  0  0  0  0  0
   22.6264  -15.7457    9.0948 C   0  0  0  0  0  0  0  0  0  0  0  0
   23.3813  -16.5603   10.0503 C   0  0  0  0  0  0  0  0  0  0  0  0
   22.8514  -17.5124   10.8879 C   0  0  0  0  0  0  0  0  0  0  0  0
   23.8429  -18.0478   11.6169 N   0  0  0  0  0  0  0  0  0  0  0  0
   24.9972  -17.4565   11.2617 C   0  0  0  0  0  0  0  0  0  0  0  0
   26.3076  -17.6443   11.7100 C   0  0  0  0  0  0  0  0  0  0  0  0
   27.3181  -16.8873   11.1616 C   0  0  0  0  0  0  0  0  0  0  0  0
   27.0479  -15.9530   10.1818 C   0  0  0  0  0  0  0  0  0  0  0  0
   25.7778  -15.7641    9.7408 C   0  0  0  0  0  0  0  0  0  0  0  0
   24.7408  -16.5161   10.2788 C   0  0  0  0  0  0  0  0  0  0  0  0
   20.5212  -15.7837   10.4174 C   0  0  0  0  0  0  0  0  0  0  0  0
   20.2450  -14.5959   10.7253 O   0  0  0  0  0  0  0  0  0  0  0  0
   20.2066  -16.7576   11.3472 O   0  0  0  0  0  0  0  0  0  0  0  0
  2  1  1  6
  2 13  1  0
  3  4  1  0
  3  2  1  0
  4  5  2  0
  5  6  1  0
  7  6  1  0
  8  7  2  0
  9  8  1  0
 10 11  1  0
 10  9  2  0
 11 12  2  0
 12  4  1  0
 12  7  1  0
 13 14  2  0
 16 17  2  0
 16 15  1  0
 18 16  1  0
 19 18  1  0
 20 19  1  1
 20 22  1  0
 21 13  1  0
 21 20  1  0
 22 23  2  0
 22 24  1  0
 24 25  1  0
 25 26  1  1
 26 27  1  0
 27 28  2  0
 28 29  1  0
 30 29  1  0
 31 30  2  0
 32 31  1  0
 33 34  1  0
 33 32  2  0
 34 35  2  0
 35 27  1  0
 35 30  1  0
 36 25  1  0
 36 38  1  0
 37 36  2  0
M  END
$$$$
