WQW.pdb
     RDKit          3D

 38 41  0  0  1  0  0  0  0  0999 V2000
   28.3401  -25.2275  -17.0326 N   0  0  0  0  0  0  0  0  0  0  0  0
   27.3955  -24.1188  -17.0409 C   0  0  1  0  0  0  0  0  0  0  0  0
   25.9783  -24.6294  -16.8105 C   0  0  0  0  0  0  0  0  0  0  0  0
   25.1042  -24.4877  -17.9707 C   0  0  0  0  0  0  0  0  0  0  0  0
   24.9352  -25.3950  -18.9839 C   0  0  0  0  0  0  0  0  0  0  0  0
   24.0389  -24.9100  -19.8866 N   0  0  0  0  0  0  0  0  0  0  0  0
   23.6458  -23.7039  -19.4442 C   0  0  0  0  0  0  0  0  0  0  0  0
   22.7619  -22.7811  -19.9564 C   0  0  0  0  0  0  0  0  0  0  0  0
   22.5133  -21.5851  -19.3082 C   0  0  0  0  0  0  0  0  0  0  0  0
   23.1518  -21.2923  -18.1257 C   0  0  0  0  0  0  0  0  0  0  0  0
   24.0365  -22.2068  -17.6056 C   0  0  0  0  0  0  0  0  0  0  0  0
   24.2961  -23.4116  -18.2456 C   0  0  0  0  0  0  0  0  0  0  0  0
   27.6432  -23.1510  -15.9530 C   0  0  0  0  0  0  0  0  0  0  0  0
   28.3733  -23.4635  -15.0064 O   0  0  0  0  0  0  0  0  0  0  0  0
   26.9712  -16.8706  -16.1713 N   0  0  0  0  0  0  0  0  0  0  0  0
   27.1743  -17.1497  -14.7900 C   0  0  0  0  0  0  0  0  0  0  0  0
   27.3656  -16.2269  -13.9452 O   0  0  0  0  0  0  0  0  0  0  0  0
   27.1657  -18.5445  -14.3112 C   0  0  0  0  0  0  0  0  0  0  0  0
   27.0522  -19.4629  -15.5215 C   0  0  0  0  0  0  0  0  0  0  0  0
   27.1256  -20.8541  -15.0532 C   0  0  2  0  0  0  0  0  0  0  0  0
   27.0379  -21.8813  -16.0176 N   0  0  0  0  0  0  0  0  0  0  0  0
   26.2731  -21.0683  -13.8227 C   0  0  0  0  0  0  0  0  0  0  0  0
   25.0335  -21.1075  -13.9341 O   0  0  0  0  0  0  0  0  0  0  0  0
   26.8326  -21.2275  -12.5354 N   0  0  0  0  0  0  0  0  0  0  0  0
   26.0883  -21.5977  -11.3569 C   0  0  1  0  0  0  0  0  0  0  0  0
   26.9906  -21.8882  -10.1785 C   0  0  0  0  0  0  0  0  0  0  0  0
   26.9377  -20.8383   -9.1581 C   0  0  0  0  0  0  0  0  0  0  0  0
   25.9987  -19.8374   -9.0842 C   0  0  0  0  0  0  0  0  0  0  0  0
   26.2721  -19.0650   -8.0213 N   0  0  0  0  0  0  0  0  0  0  0  0
   27.3680  -19.5526   -7.4135 C   0  0  0  0  0  0  0  0  0  0  0  0
   28.0621  -19.1252   -6.2782 C   0  0  0  0  0  0  0  0  0  0  0  0
   29.1748  -19.8256   -5.8702 C   0  0  0  0  0  0  0  0  0  0  0  0
   29.6051  -20.9359   -6.5687 C   0  0  0  0  0  0  0  0  0  0  0  0
   28.9368  -21.3577   -7.6726 C   0  0  0  0  0  0  0  0  0  0  0  0
   27.8109  -20.6676   -8.1042 C   0  0  0  0  0  0  0  0  0  0  0  0
   25.0498  -20.6106  -11.0637 C   0  0  0  0  0  0  0  0  0  0  0  0
   25.2575  -19.4078  -11.3666 O   0  0  0  0  0  0  0  0  0  0  0  0
   23.8361  -20.9026  -10.4690 O   0  0  0  0  0  0  0  0  0  0  0  0
  2  1  1  1
  2 13  1  0
  3  4  1  0
  3  2  1  0
  4  5  2  0
  5  6  1  0
  7  6  1  0
  8  7  2  0
  9  8  1  0
 10 11  1  0
 10  9  2  0
 11 12  2  0
 12  4  1  0
 12  7  1  0
 13 14  2  0
 16 17  2  0
 16 15  1  0
 18 16  1  0
 19 18  1  0
 20 19  1  6
 20 22  1  0
 21 13  1  0
 21 20  1  0
 22 23  2  0
 22 24  1  0
 24 25  1  0
 25 26  1  1
 26 27  1  0
 27 28  2  0
 28 29  1  0
 30 29  1  0
 31 30  2  0
 32 31  1  0
 33 34  1  0
 33 32  2  0
 34 35  2  0
 35 27  1  0
 35 30  1  0
 36 25  1  0
 36 38  1  0
 37 36  2  0
M  END
$$$$
