WQW.pdb
     RDKit          3D

 38 41  0  0  1  0  0  0  0  0999 V2000
   24.4086  -18.1377  -16.9666 N   0  0  0  0  0  0  0  0  0  0  0  0
   25.2293  -18.9614  -16.0893 C   0  0  1  0  0  0  0  0  0  0  0  0
   25.7818  -18.1246  -14.9419 C   0  0  0  0  0  0  0  0  0  0  0  0
   26.6680  -17.0471  -15.3708 C   0  0  0  0  0  0  0  0  0  0  0  0
   26.5633  -15.7211  -15.0410 C   0  0  0  0  0  0  0  0  0  0  0  0
   27.5723  -15.0227  -15.6308 N   0  0  0  0  0  0  0  0  0  0  0  0
   28.3081  -15.9043  -16.3282 C   0  0  0  0  0  0  0  0  0  0  0  0
   29.4342  -15.7498  -17.1047 C   0  0  0  0  0  0  0  0  0  0  0  0
   30.0274  -16.8279  -17.7358 C   0  0  0  0  0  0  0  0  0  0  0  0
   29.4970  -18.0893  -17.5972 C   0  0  0  0  0  0  0  0  0  0  0  0
   28.3725  -18.2547  -16.8241 C   0  0  0  0  0  0  0  0  0  0  0  0
   27.7662  -17.1814  -16.1848 C   0  0  0  0  0  0  0  0  0  0  0  0
   24.4626  -20.0478  -15.4462 C   0  0  0  0  0  0  0  0  0  0  0  0
   23.2718  -19.8766  -15.1643 O   0  0  0  0  0  0  0  0  0  0  0  0
   26.1143  -25.7229  -15.3698 N   0  0  0  0  0  0  0  0  0  0  0  0
   26.1477  -24.7574  -16.4157 C   0  0  0  0  0  0  0  0  0  0  0  0
   26.9484  -24.8590  -17.3905 O   0  0  0  0  0  0  0  0  0  0  0  0
   25.2333  -23.6008  -16.3801 C   0  0  0  0  0  0  0  0  0  0  0  0
   24.4587  -23.6462  -15.0691 C   0  0  0  0  0  0  0  0  0  0  0  0
   24.5949  -22.3407  -14.4076 C   0  0  2  0  0  0  0  0  0  0  0  0
   25.1095  -21.2666  -15.1655 N   0  0  0  0  0  0  0  0  0  0  0  0
   25.1914  -22.4815  -13.0252 C   0  0  0  0  0  0  0  0  0  0  0  0
   26.4218  -22.6262  -12.8996 O   0  0  0  0  0  0  0  0  0  0  0  0
   24.3998  -22.4557  -11.8556 N   0  0  0  0  0  0  0  0  0  0  0  0
   24.3367  -21.3503  -10.9314 C   0  0  1  0  0  0  0  0  0  0  0  0
   25.4026  -20.3134  -11.2065 C   0  0  0  0  0  0  0  0  0  0  0  0
   26.6978  -20.6703  -10.6220 C   0  0  0  0  0  0  0  0  0  0  0  0
   27.7561  -21.2300  -11.2969 C   0  0  0  0  0  0  0  0  0  0  0  0
   28.7684  -21.4173  -10.4359 N   0  0  0  0  0  0  0  0  0  0  0  0
   28.3780  -20.9881   -9.2228 C   0  0  0  0  0  0  0  0  0  0  0  0
   29.0445  -20.9586   -7.9947 C   0  0  0  0  0  0  0  0  0  0  0  0
   28.3936  -20.4549   -6.8912 C   0  0  0  0  0  0  0  0  0  0  0  0
   27.0995  -19.9840   -6.9891 C   0  0  0  0  0  0  0  0  0  0  0  0
   26.4448  -20.0092   -8.1782 C   0  0  0  0  0  0  0  0  0  0  0  0
   27.0806  -20.5126   -9.3063 C   0  0  0  0  0  0  0  0  0  0  0  0
   22.9856  -20.7935  -10.8746 C   0  0  0  0  0  0  0  0  0  0  0  0
   22.7341  -19.9055  -10.0203 O   0  0  0  0  0  0  0  0  0  0  0  0
   21.9452  -21.1744  -11.7020 O   0  0  0  0  0  0  0  0  0  0  0  0
  2  1  1  6
  2 13  1  0
  3  4  1  0
  3  2  1  0
  4  5  2  0
  5  6  1  0
  7  6  1  0
  8  7  2  0
  9  8  1  0
 10 11  1  0
 10  9  2  0
 11 12  2  0
 12  4  1  0
 12  7  1  0
 13 14  2  0
 16 17  2  0
 16 15  1  0
 18 16  1  0
 19 18  1  0
 20 19  1  6
 20 22  1  0
 21 13  1  0
 21 20  1  0
 22 23  2  0
 22 24  1  0
 24 25  1  0
 25 26  1  6
 26 27  1  0
 27 28  2  0
 28 29  1  0
 30 29  1  0
 31 30  2  0
 32 31  1  0
 33 34  1  0
 33 32  2  0
 34 35  2  0
 35 27  1  0
 35 30  1  0
 36 25  1  0
 36 38  1  0
 37 36  2  0
M  END
$$$$
