WQW.pdb
     RDKit          3D

 38 41  0  0  1  0  0  0  0  0999 V2000
   24.9946  -17.8188  -16.2998 N   0  0  0  0  0  0  0  0  0  0  0  0
   25.9120  -17.9965  -15.1825 C   0  0  1  0  0  0  0  0  0  0  0  0
   26.8123  -16.7755  -15.0378 C   0  0  0  0  0  0  0  0  0  0  0  0
   27.5941  -16.4739  -16.2328 C   0  0  0  0  0  0  0  0  0  0  0  0
   27.4704  -15.3695  -17.0347 C   0  0  0  0  0  0  0  0  0  0  0  0
   28.3720  -15.4406  -18.0524 N   0  0  0  0  0  0  0  0  0  0  0  0
   29.0596  -16.5837  -17.8920 C   0  0  0  0  0  0  0  0  0  0  0  0
   30.0796  -17.1520  -18.6211 C   0  0  0  0  0  0  0  0  0  0  0  0
   30.6421  -18.3603  -18.2523 C   0  0  0  0  0  0  0  0  0  0  0  0
   30.1875  -19.0241  -17.1368 C   0  0  0  0  0  0  0  0  0  0  0  0
   29.1691  -18.4656  -16.4016 C   0  0  0  0  0  0  0  0  0  0  0  0
   28.5948  -17.2531  -16.7601 C   0  0  0  0  0  0  0  0  0  0  0  0
   25.2142  -18.1225  -13.8868 C   0  0  0  0  0  0  0  0  0  0  0  0
   24.2392  -17.4044  -13.6410 O   0  0  0  0  0  0  0  0  0  0  0  0
   21.7219  -20.4875   -9.9393 N   0  0  0  0  0  0  0  0  0  0  0  0
   21.9215  -20.7051  -11.3322 C   0  0  0  0  0  0  0  0  0  0  0  0
   21.1326  -20.2300  -12.2003 O   0  0  0  0  0  0  0  0  0  0  0  0
   23.0720  -21.5029  -11.7957 C   0  0  0  0  0  0  0  0  0  0  0  0
   23.8223  -20.6920  -12.8448 C   0  0  0  0  0  0  0  0  0  0  0  0
   24.8887  -19.9388  -12.1697 C   0  0  2  0  0  0  0  0  0  0  0  0
   25.6776  -19.0668  -12.9506 N   0  0  0  0  0  0  0  0  0  0  0  0
   25.6705  -20.8189  -11.2204 C   0  0  0  0  0  0  0  0  0  0  0  0
   26.2459  -21.8332  -11.6571 O   0  0  0  0  0  0  0  0  0  0  0  0
   25.7758  -20.5339   -9.8409 N   0  0  0  0  0  0  0  0  0  0  0  0
   26.5745  -21.2873   -8.9057 C   0  0  1  0  0  0  0  0  0  0  0  0
   27.8995  -20.6182   -8.6166 C   0  0  0  0  0  0  0  0  0  0  0  0
   27.8228  -19.6822   -7.4921 C   0  0  0  0  0  0  0  0  0  0  0  0
   27.1631  -18.4765   -7.4950 C   0  0  0  0  0  0  0  0  0  0  0  0
   27.3137  -17.8977   -6.2936 N   0  0  0  0  0  0  0  0  0  0  0  0
   28.0573  -18.7101   -5.5219 C   0  0  0  0  0  0  0  0  0  0  0  0
   28.4995  -18.5811   -4.2024 C   0  0  0  0  0  0  0  0  0  0  0  0
   29.2622  -19.5854   -3.6503 C   0  0  0  0  0  0  0  0  0  0  0  0
   29.5900  -20.7075   -4.3847 C   0  0  0  0  0  0  0  0  0  0  0  0
   29.1647  -20.8406   -5.6671 C   0  0  0  0  0  0  0  0  0  0  0  0
   28.3935  -19.8407   -6.2465 C   0  0  0  0  0  0  0  0  0  0  0  0
   25.8083  -21.6035   -7.7008 C   0  0  0  0  0  0  0  0  0  0  0  0
   24.6758  -21.0777   -7.5504 O   0  0  0  0  0  0  0  0  0  0  0  0
   26.2402  -22.4506   -6.6969 O   0  0  0  0  0  0  0  0  0  0  0  0
  2  1  1  6
  2 13  1  0
  3  4  1  0
  3  2  1  0
  4  5  2  0
  5  6  1  0
  7  6  1  0
  8  7  2  0
  9  8  1  0
 10 11  1  0
 10  9  2  0
 11 12  2  0
 12  4  1  0
 12  7  1  0
 13 14  2  0
 16 17  2  0
 16 15  1  0
 18 16  1  0
 19 18  1  0
 20 19  1  6
 20 22  1  0
 21 13  1  0
 21 20  1  0
 22 23  2  0
 22 24  1  0
 24 25  1  0
 25 26  1  1
 26 27  1  0
 27 28  2  0
 28 29  1  0
 30 29  1  0
 31 30  2  0
 32 31  1  0
 33 34  1  0
 33 32  2  0
 34 35  2  0
 35 27  1  0
 35 30  1  0
 36 25  1  0
 36 38  1  0
 37 36  2  0
M  END
$$$$
