WQW.pdb
     RDKit          3D

 38 41  0  0  1  0  0  0  0  0999 V2000
   18.0554  -14.4069    4.5824 N   0  0  0  0  0  0  0  0  0  0  0  0
   17.0523  -15.4605    4.5112 C   0  0  1  0  0  0  0  0  0  0  0  0
   16.7117  -15.7696    3.0584 C   0  0  0  0  0  0  0  0  0  0  0  0
   15.4523  -15.1838    2.6101 C   0  0  0  0  0  0  0  0  0  0  0  0
   15.0129  -13.9075    2.8474 C   0  0  0  0  0  0  0  0  0  0  0  0
   13.7929  -13.7297    2.2699 N   0  0  0  0  0  0  0  0  0  0  0  0
   13.4659  -14.8877    1.6725 C   0  0  0  0  0  0  0  0  0  0  0  0
   12.3584  -15.2668    0.9480 C   0  0  0  0  0  0  0  0  0  0  0  0
   12.2446  -16.5395    0.4192 C   0  0  0  0  0  0  0  0  0  0  0  0
   13.2481  -17.4607    0.6092 C   0  0  0  0  0  0  0  0  0  0  0  0
   14.3584  -17.0926    1.3312 C   0  0  0  0  0  0  0  0  0  0  0  0
   14.4861  -15.8184    1.8682 C   0  0  0  0  0  0  0  0  0  0  0  0
   17.5264  -16.7380    5.0812 C   0  0  0  0  0  0  0  0  0  0  0  0
   18.6817  -17.1176    4.8627 O   0  0  0  0  0  0  0  0  0  0  0  0
   16.9492  -19.0709   10.3333 N   0  0  0  0  0  0  0  0  0  0  0  0
   17.1792  -20.2954    9.6439 C   0  0  0  0  0  0  0  0  0  0  0  0
   17.6909  -21.2986   10.2212 O   0  0  0  0  0  0  0  0  0  0  0  0
   16.8191  -20.4174    8.2190 C   0  0  0  0  0  0  0  0  0  0  0  0
   16.2911  -19.0697    7.7440 C   0  0  0  0  0  0  0  0  0  0  0  0
   16.9063  -18.7656    6.4442 C   0  0  2  0  0  0  0  0  0  0  0  0
   16.6450  -17.5032    5.8688 N   0  0  0  0  0  0  0  0  0  0  0  0
   16.7855  -19.9322    5.4896 C   0  0  0  0  0  0  0  0  0  0  0  0
   15.9978  -19.8593    4.5279 O   0  0  0  0  0  0  0  0  0  0  0  0
   17.5392  -21.1167    5.6465 N   0  0  0  0  0  0  0  0  0  0  0  0
   17.5398  -22.2185    4.7160 C   0  0  1  0  0  0  0  0  0  0  0  0
   18.1909  -21.8555    3.4003 C   0  0  0  0  0  0  0  0  0  0  0  0
   18.1170  -22.9405    2.4185 C   0  0  0  0  0  0  0  0  0  0  0  0
   16.9772  -23.3719    1.7833 C   0  0  0  0  0  0  0  0  0  0  0  0
   17.2968  -24.3812    0.9586 N   0  0  0  0  0  0  0  0  0  0  0  0
   18.6195  -24.6040    1.0539 C   0  0  0  0  0  0  0  0  0  0  0  0
   19.4487  -25.5304    0.4157 C   0  0  0  0  0  0  0  0  0  0  0  0
   20.7941  -25.5374    0.7071 C   0  0  0  0  0  0  0  0  0  0  0  0
   21.3239  -24.6444    1.6169 C   0  0  0  0  0  0  0  0  0  0  0  0
   20.5254  -23.7414    2.2415 C   0  0  0  0  0  0  0  0  0  0  0  0
   19.1643  -23.7145    1.9641 C   0  0  0  0  0  0  0  0  0  0  0  0
   18.1024  -23.4205    5.3304 C   0  0  0  0  0  0  0  0  0  0  0  0
   18.9502  -23.2881    6.2499 O   0  0  0  0  0  0  0  0  0  0  0  0
   17.7685  -24.7137    4.9723 O   0  0  0  0  0  0  0  0  0  0  0  0
  2  1  1  6
  2 13  1  0
  3  4  1  0
  3  2  1  0
  4  5  2  0
  5  6  1  0
  7  6  1  0
  8  7  2  0
  9  8  1  0
 10 11  1  0
 10  9  2  0
 11 12  2  0
 12  4  1  0
 12  7  1  0
 13 14  2  0
 16 17  2  0
 16 15  1  0
 18 16  1  0
 19 18  1  0
 20 19  1  1
 20 22  1  0
 21 13  1  0
 21 20  1  0
 22 23  2  0
 22 24  1  0
 24 25  1  0
 25 26  1  6
 26 27  1  0
 27 28  2  0
 28 29  1  0
 30 29  1  0
 31 30  2  0
 32 31  1  0
 33 34  1  0
 33 32  2  0
 34 35  2  0
 35 27  1  0
 35 30  1  0
 36 25  1  0
 36 38  1  0
 37 36  2  0
M  END
$$$$
