WQW.pdb
     RDKit          3D

 38 41  0  0  1  0  0  0  0  0999 V2000
   23.2871  -17.1579  -18.8430 N   0  0  0  0  0  0  0  0  0  0  0  0
   24.1904  -18.2781  -18.6179 C   0  0  1  0  0  0  0  0  0  0  0  0
   25.6390  -17.8074  -18.6649 C   0  0  0  0  0  0  0  0  0  0  0  0
   25.9776  -17.0598  -19.8719 C   0  0  0  0  0  0  0  0  0  0  0  0
   26.4007  -15.7579  -19.9366 C   0  0  0  0  0  0  0  0  0  0  0  0
   26.6179  -15.4123  -21.2354 N   0  0  0  0  0  0  0  0  0  0  0  0
   26.3330  -16.4907  -21.9843 C   0  0  0  0  0  0  0  0  0  0  0  0
   26.3777  -16.7027  -23.3438 C   0  0  0  0  0  0  0  0  0  0  0  0
   26.0324  -17.9235  -23.8941 C   0  0  0  0  0  0  0  0  0  0  0  0
   25.6335  -18.9606  -23.0836 C   0  0  0  0  0  0  0  0  0  0  0  0
   25.5852  -18.7596  -21.7246 C   0  0  0  0  0  0  0  0  0  0  0  0
   25.9289  -17.5392  -21.1581 C   0  0  0  0  0  0  0  0  0  0  0  0
   24.0211  -18.8871  -17.2829 C   0  0  0  0  0  0  0  0  0  0  0  0
   23.8494  -18.1652  -16.2950 O   0  0  0  0  0  0  0  0  0  0  0  0
   24.1250  -24.3856  -14.5720 N   0  0  0  0  0  0  0  0  0  0  0  0
   24.6995  -24.3356  -15.8739 C   0  0  0  0  0  0  0  0  0  0  0  0
   25.5601  -25.1816  -16.2549 O   0  0  0  0  0  0  0  0  0  0  0  0
   24.2943  -23.2773  -16.8176 C   0  0  0  0  0  0  0  0  0  0  0  0
   23.2714  -22.3865  -16.1240 C   0  0  0  0  0  0  0  0  0  0  0  0
   23.8488  -21.0418  -15.9865 C   0  0  2  0  0  0  0  0  0  0  0  0
   24.0586  -20.2896  -17.1624 N   0  0  0  0  0  0  0  0  0  0  0  0
   25.0093  -21.0357  -15.0170 C   0  0  0  0  0  0  0  0  0  0  0  0
   26.1748  -21.0159  -15.4550 O   0  0  0  0  0  0  0  0  0  0  0  0
   24.8229  -21.0521  -13.6168 N   0  0  0  0  0  0  0  0  0  0  0  0
   25.8724  -21.2680  -12.6514 C   0  0  1  0  0  0  0  0  0  0  0  0
   26.4482  -19.9694  -12.1327 C   0  0  0  0  0  0  0  0  0  0  0  0
   27.4835  -20.1797  -11.1176 C   0  0  0  0  0  0  0  0  0  0  0  0
   28.7396  -20.6885  -11.3458 C   0  0  0  0  0  0  0  0  0  0  0  0
   29.4052  -20.7369  -10.1814 N   0  0  0  0  0  0  0  0  0  0  0  0
   28.5989  -20.2688   -9.2124 C   0  0  0  0  0  0  0  0  0  0  0  0
   28.8018  -20.1083   -7.8390 C   0  0  0  0  0  0  0  0  0  0  0  0
   27.7843  -19.5948   -7.0670 C   0  0  0  0  0  0  0  0  0  0  0  0
   26.5768  -19.2414   -7.6352 C   0  0  0  0  0  0  0  0  0  0  0  0
   26.3713  -19.3942   -8.9685 C   0  0  0  0  0  0  0  0  0  0  0  0
   27.3830  -19.9102   -9.7687 C   0  0  0  0  0  0  0  0  0  0  0  0
   25.4283  -22.1714  -11.5906 C   0  0  0  0  0  0  0  0  0  0  0  0
   26.2617  -22.9681  -11.0881 O   0  0  0  0  0  0  0  0  0  0  0  0
   24.1408  -22.2181  -11.0885 O   0  0  0  0  0  0  0  0  0  0  0  0
  2  1  1  1
  2 13  1  0
  3  4  1  0
  3  2  1  0
  4  5  2  0
  5  6  1  0
  7  6  1  0
  8  7  2  0
  9  8  1  0
 10 11  1  0
 10  9  2  0
 11 12  2  0
 12  4  1  0
 12  7  1  0
 13 14  2  0
 16 17  2  0
 16 15  1  0
 18 16  1  0
 19 18  1  0
 20 19  1  6
 20 22  1  0
 21 13  1  0
 21 20  1  0
 22 23  2  0
 22 24  1  0
 24 25  1  0
 25 26  1  1
 26 27  1  0
 27 28  2  0
 28 29  1  0
 30 29  1  0
 31 30  2  0
 32 31  1  0
 33 34  1  0
 33 32  2  0
 34 35  2  0
 35 27  1  0
 35 30  1  0
 36 25  1  0
 36 38  1  0
 37 36  2  0
M  END
$$$$
