QWL.pdb
     RDKit          3D

 32 33  0  0  1  0  0  0  0  0999 V2000
    8.5967  -12.4944   17.6035 N   0  0  0  0  0  0  0  0  0  0  0  0
    8.5517  -13.7543   16.9295 C   0  0  0  0  0  0  0  0  0  0  0  0
    8.1841  -13.7412   15.7456 O   0  0  0  0  0  0  0  0  0  0  0  0
    8.9319  -14.9620   17.6644 C   0  0  0  0  0  0  0  0  0  0  0  0
    9.3634  -14.8003   19.0719 C   0  0  0  0  0  0  0  0  0  0  0  0
    9.6799  -16.0502   19.8404 C   0  0  2  0  0  0  0  0  0  0  0  0
    8.9419  -17.1981   19.4877 N   0  0  0  0  0  0  0  0  0  0  0  0
    9.5853  -15.6603   21.2943 C   0  0  0  0  0  0  0  0  0  0  0  0
   10.4071  -14.7809   21.6378 O   0  0  0  0  0  0  0  0  0  0  0  0
    8.6661  -16.2172   22.2057 N   0  0  0  0  0  0  0  0  0  0  0  0
    8.5571  -15.9810   23.6031 C   0  0  1  0  0  0  0  0  0  0  0  0
    7.3317  -16.4934   24.2667 C   0  0  0  0  0  0  0  0  0  0  0  0
    6.5502  -15.4808   25.0134 C   0  0  0  0  0  0  0  0  0  0  0  0
    5.4816  -15.6479   25.8277 C   0  0  0  0  0  0  0  0  0  0  0  0
    5.1113  -14.4252   26.2599 N   0  0  0  0  0  0  0  0  0  0  0  0
    5.9208  -13.4740   25.7392 C   0  0  0  0  0  0  0  0  0  0  0  0
    5.9559  -12.1031   25.8694 C   0  0  0  0  0  0  0  0  0  0  0  0
    6.9165  -11.3511   25.2056 C   0  0  0  0  0  0  0  0  0  0  0  0
    7.8389  -11.9893   24.4118 C   0  0  0  0  0  0  0  0  0  0  0  0
    7.7787  -13.3585   24.3009 C   0  0  0  0  0  0  0  0  0  0  0  0
    6.8268  -14.1326   24.9553 C   0  0  0  0  0  0  0  0  0  0  0  0
    9.7669  -16.3763   24.4099 C   0  0  0  0  0  0  0  0  0  0  0  0
   10.8860  -16.6452   23.9147 O   0  0  0  0  0  0  0  0  0  0  0  0
    9.9421  -14.2499   29.4373 C   0  0  0  0  0  0  0  0  0  0  0  0
   10.1299  -14.5832   27.9200 C   0  0  1  0  0  0  0  0  0  0  0  0
   11.0605  -13.4998   27.4396 C   0  0  0  0  0  0  0  0  0  0  0  0
   10.6608  -15.9606   27.9125 C   0  0  0  0  0  0  0  0  0  0  0  0
   10.9347  -16.6494   26.6332 C   0  0  2  0  0  0  0  0  0  0  0  0
    9.6991  -16.4652   25.8189 N   0  0  0  0  0  0  0  0  0  0  0  0
   11.1609  -18.0898   26.6442 C   0  0  0  0  0  0  0  0  0  0  0  0
   12.4019  -18.6712   26.9852 O   0  0  0  0  0  0  0  0  0  0  0  0
   10.2736  -18.9267   26.3500 O   0  0  0  0  0  0  0  0  0  0  0  0
  2  1  1  0
  3  2  2  0
  4  2  1  0
  5  4  1  0
  6  8  1  0
  6  5  1  0
  6  7  1  1
  8  9  2  0
 10 11  1  0
 10  8  1  0
 11 12  1  1
 12 13  1  0
 13 21  1  0
 14 15  1  0
 14 13  2  0
 15 16  1  0
 16 21  2  0
 16 17  1  0
 17 18  2  0
 18 19  1  0
 20 19  2  0
 21 20  1  0
 22 11  1  0
 23 22  2  0
 25 24  1  1
 26 25  1  0
 27 25  1  0
 28 27  1  1
 28 29  1  0
 29 22  1  0
 30 31  1  0
 30 28  1  0
 32 30  2  0
M  END
$$$$
