QWL.pdb
     RDKit          3D

 32 33  0  0  1  0  0  0  0  0999 V2000
   15.1383  -19.9820   19.6340 N   0  0  0  0  0  0  0  0  0  0  0  0
   14.7226  -18.7004   19.1564 C   0  0  0  0  0  0  0  0  0  0  0  0
   15.6156  -17.8673   18.9437 O   0  0  0  0  0  0  0  0  0  0  0  0
   13.2940  -18.4519   18.9540 C   0  0  0  0  0  0  0  0  0  0  0  0
   12.5835  -17.6604   19.9847 C   0  0  0  0  0  0  0  0  0  0  0  0
   11.0831  -17.6649   19.9396 C   0  0  2  0  0  0  0  0  0  0  0  0
   10.4987  -17.2771   18.7171 N   0  0  0  0  0  0  0  0  0  0  0  0
   10.6449  -16.8554   21.1344 C   0  0  0  0  0  0  0  0  0  0  0  0
   11.0709  -15.6785   21.1333 O   0  0  0  0  0  0  0  0  0  0  0  0
    9.8305  -17.3517   22.1719 N   0  0  0  0  0  0  0  0  0  0  0  0
    9.2636  -16.6406   23.2642 C   0  0  1  0  0  0  0  0  0  0  0  0
    7.7808  -16.6132   23.3371 C   0  0  0  0  0  0  0  0  0  0  0  0
    7.1685  -15.2720   23.1965 C   0  0  0  0  0  0  0  0  0  0  0  0
    6.7374  -14.6358   22.0817 C   0  0  0  0  0  0  0  0  0  0  0  0
    6.2723  -13.4288   22.4630 N   0  0  0  0  0  0  0  0  0  0  0  0
    6.3959  -13.2754   23.8019 C   0  0  0  0  0  0  0  0  0  0  0  0
    6.0762  -12.2445   24.6578 C   0  0  0  0  0  0  0  0  0  0  0  0
    6.3174  -12.3528   26.0212 C   0  0  0  0  0  0  0  0  0  0  0  0
    6.8817  -13.5048   26.5142 C   0  0  0  0  0  0  0  0  0  0  0  0
    7.1904  -14.5164   25.6356 C   0  0  0  0  0  0  0  0  0  0  0  0
    6.9584  -14.4313   24.2671 C   0  0  0  0  0  0  0  0  0  0  0  0
    9.8255  -16.9995   24.6156 C   0  0  0  0  0  0  0  0  0  0  0  0
   10.4854  -18.0384   24.8501 O   0  0  0  0  0  0  0  0  0  0  0  0
   12.1762  -14.5435   28.9527 C   0  0  0  0  0  0  0  0  0  0  0  0
   10.6966  -15.0104   29.1562 C   0  0  1  0  0  0  0  0  0  0  0  0
   10.1074  -13.9276   30.0226 C   0  0  0  0  0  0  0  0  0  0  0  0
   10.1591  -15.1253   27.7862 C   0  0  0  0  0  0  0  0  0  0  0  0
   10.4237  -16.3350   26.9782 C   0  0  2  0  0  0  0  0  0  0  0  0
    9.6315  -16.1500   25.7284 N   0  0  0  0  0  0  0  0  0  0  0  0
   10.0040  -17.6320   27.4954 C   0  0  0  0  0  0  0  0  0  0  0  0
    8.7043  -18.1515   27.3073 O   0  0  0  0  0  0  0  0  0  0  0  0
   10.7615  -18.3882   28.1500 O   0  0  0  0  0  0  0  0  0  0  0  0
  2  1  1  0
  3  2  2  0
  4  2  1  0
  5  4  1  0
  6  8  1  0
  6  5  1  0
  6  7  1  6
  8  9  2  0
 10 11  1  0
 10  8  1  0
 11 12  1  1
 12 13  1  0
 13 21  1  0
 14 15  1  0
 14 13  2  0
 15 16  1  0
 16 21  2  0
 16 17  1  0
 17 18  2  0
 18 19  1  0
 20 19  2  0
 21 20  1  0
 22 11  1  0
 23 22  2  0
 25 24  1  6
 26 25  1  0
 27 25  1  0
 28 27  1  1
 28 29  1  0
 29 22  1  0
 30 31  1  0
 30 28  1  0
 32 30  2  0
M  END
$$$$
