QWL.pdb
     RDKit          3D

 32 33  0  0  1  0  0  0  0  0999 V2000
   10.7641  -14.7754   18.4055 N   0  0  0  0  0  0  0  0  0  0  0  0
   10.6795  -16.1519   18.0292 C   0  0  0  0  0  0  0  0  0  0  0  0
   10.5846  -16.3945   16.8172 O   0  0  0  0  0  0  0  0  0  0  0  0
   10.7063  -17.1733   19.0777 C   0  0  0  0  0  0  0  0  0  0  0  0
   10.7037  -16.7110   20.4848 C   0  0  0  0  0  0  0  0  0  0  0  0
   10.4944  -17.7498   21.5478 C   0  0  2  0  0  0  0  0  0  0  0  0
    9.4711  -18.6880   21.3046 N   0  0  0  0  0  0  0  0  0  0  0  0
   10.3523  -16.9797   22.8368 C   0  0  0  0  0  0  0  0  0  0  0  0
   11.3501  -16.2799   23.1219 O   0  0  0  0  0  0  0  0  0  0  0  0
    9.2127  -17.0240   23.6645 N   0  0  0  0  0  0  0  0  0  0  0  0
    8.9722  -16.3137   24.8720 C   0  0  1  0  0  0  0  0  0  0  0  0
    7.6177  -15.7279   25.0359 C   0  0  0  0  0  0  0  0  0  0  0  0
    7.3669  -14.4945   24.2553 C   0  0  0  0  0  0  0  0  0  0  0  0
    7.3050  -14.3233   22.9136 C   0  0  0  0  0  0  0  0  0  0  0  0
    7.0686  -13.0152   22.6864 N   0  0  0  0  0  0  0  0  0  0  0  0
    6.9774  -12.3407   23.8560 C   0  0  0  0  0  0  0  0  0  0  0  0
    6.7526  -11.0149   24.1552 C   0  0  0  0  0  0  0  0  0  0  0  0
    6.7091  -10.5821   25.4740 C   0  0  0  0  0  0  0  0  0  0  0  0
    6.8933  -11.4928   26.4865 C   0  0  0  0  0  0  0  0  0  0  0  0
    7.1160  -12.8091   26.1571 C   0  0  0  0  0  0  0  0  0  0  0  0
    7.1640  -13.2662   24.8448 C   0  0  0  0  0  0  0  0  0  0  0  0
    9.3551  -17.0509   26.1293 C   0  0  0  0  0  0  0  0  0  0  0  0
    9.0722  -16.6629   27.2865 O   0  0  0  0  0  0  0  0  0  0  0  0
    7.0538  -19.7034   27.9726 C   0  0  0  0  0  0  0  0  0  0  0  0
    8.4137  -20.3236   28.4357 C   0  0  1  0  0  0  0  0  0  0  0  0
    8.0477  -21.7442   28.7795 C   0  0  0  0  0  0  0  0  0  0  0  0
    9.3126  -20.1346   27.2802 C   0  0  0  0  0  0  0  0  0  0  0  0
   10.3348  -19.0664   27.2950 C   0  0  2  0  0  0  0  0  0  0  0  0
   10.0779  -18.2638   26.0648 N   0  0  0  0  0  0  0  0  0  0  0  0
   11.7421  -19.4382   27.2088 C   0  0  0  0  0  0  0  0  0  0  0  0
   12.4647  -19.4393   25.9954 O   0  0  0  0  0  0  0  0  0  0  0  0
   12.4221  -19.7887   28.2032 O   0  0  0  0  0  0  0  0  0  0  0  0
  2  1  1  0
  3  2  2  0
  4  2  1  0
  5  4  1  0
  6  8  1  0
  6  5  1  0
  6  7  1  6
  8  9  2  0
 10 11  1  0
 10  8  1  0
 11 12  1  1
 12 13  1  0
 13 21  1  0
 14 15  1  0
 14 13  2  0
 15 16  1  0
 16 21  2  0
 16 17  1  0
 17 18  2  0
 18 19  1  0
 20 19  2  0
 21 20  1  0
 22 11  1  0
 23 22  2  0
 25 24  1  6
 26 25  1  0
 27 25  1  0
 28 27  1  6
 28 29  1  0
 29 22  1  0
 30 31  1  0
 30 28  1  0
 32 30  2  0
M  END
$$$$
