QWL.pdb
     RDKit          3D

 32 33  0  0  1  0  0  0  0  0999 V2000
    8.4667  -12.6113   17.8321 N   0  0  0  0  0  0  0  0  0  0  0  0
    8.4158  -13.9383   17.3028 C   0  0  0  0  0  0  0  0  0  0  0  0
    7.8043  -14.0905   16.2353 O   0  0  0  0  0  0  0  0  0  0  0  0
    9.0736  -15.0182   18.0407 C   0  0  0  0  0  0  0  0  0  0  0  0
    9.7892  -14.6597   19.2868 C   0  0  0  0  0  0  0  0  0  0  0  0
   10.4505  -15.7750   20.0432 C   0  0  2  0  0  0  0  0  0  0  0  0
   10.1260  -17.0825   19.6289 N   0  0  0  0  0  0  0  0  0  0  0  0
   10.1782  -15.4873   21.4985 C   0  0  0  0  0  0  0  0  0  0  0  0
   10.4574  -14.3174   21.8450 O   0  0  0  0  0  0  0  0  0  0  0  0
    9.6573  -16.4291   22.4082 N   0  0  0  0  0  0  0  0  0  0  0  0
    9.2356  -16.2194   23.7493 C   0  0  1  0  0  0  0  0  0  0  0  0
    7.8481  -16.6332   24.0785 C   0  0  0  0  0  0  0  0  0  0  0  0
    6.8608  -15.5310   24.1410 C   0  0  0  0  0  0  0  0  0  0  0  0
    5.6995  -15.3768   23.4621 C   0  0  0  0  0  0  0  0  0  0  0  0
    5.1604  -14.2033   23.8506 N   0  0  0  0  0  0  0  0  0  0  0  0
    5.9524  -13.5987   24.7663 C   0  0  0  0  0  0  0  0  0  0  0  0
    5.8474  -12.4089   25.4526 C   0  0  0  0  0  0  0  0  0  0  0  0
    6.8290  -12.0207   26.3550 C   0  0  0  0  0  0  0  0  0  0  0  0
    7.9143  -12.8383   26.5602 C   0  0  0  0  0  0  0  0  0  0  0  0
    7.9918  -14.0194   25.8605 C   0  0  0  0  0  0  0  0  0  0  0  0
    7.0221  -14.4294   24.9521 C   0  0  0  0  0  0  0  0  0  0  0  0
   10.1784  -16.7451   24.8007 C   0  0  0  0  0  0  0  0  0  0  0  0
   11.1704  -17.4707   24.5572 O   0  0  0  0  0  0  0  0  0  0  0  0
   11.6537  -14.1025   27.8219 C   0  0  0  0  0  0  0  0  0  0  0  0
   11.5622  -15.1822   28.9507 C   0  0  1  0  0  0  0  0  0  0  0  0
   11.1202  -14.3897   30.1536 C   0  0  0  0  0  0  0  0  0  0  0  0
   10.6049  -16.1765   28.4272 C   0  0  0  0  0  0  0  0  0  0  0  0
   10.9214  -16.9485   27.2065 C   0  0  2  0  0  0  0  0  0  0  0  0
    9.9860  -16.4332   26.1658 N   0  0  0  0  0  0  0  0  0  0  0  0
   10.7117  -18.3915   27.2127 C   0  0  0  0  0  0  0  0  0  0  0  0
   11.7155  -19.3133   27.5828 O   0  0  0  0  0  0  0  0  0  0  0  0
    9.6255  -18.9290   26.8882 O   0  0  0  0  0  0  0  0  0  0  0  0
  2  1  1  0
  3  2  2  0
  4  2  1  0
  5  4  1  0
  6  8  1  0
  6  5  1  0
  6  7  1  6
  8  9  2  0
 10 11  1  0
 10  8  1  0
 11 12  1  6
 12 13  1  0
 13 21  1  0
 14 15  1  0
 14 13  2  0
 15 16  1  0
 16 21  2  0
 16 17  1  0
 17 18  2  0
 18 19  1  0
 20 19  2  0
 21 20  1  0
 22 11  1  0
 23 22  2  0
 25 24  1  6
 26 25  1  0
 27 25  1  0
 28 27  1  1
 28 29  1  0
 29 22  1  0
 30 31  1  0
 30 28  1  0
 32 30  2  0
M  END
$$$$
