QWL.pdb
     RDKit          3D

 32 33  0  0  1  0  0  0  0  0999 V2000
   10.9864  -16.4846   16.9495 N   0  0  0  0  0  0  0  0  0  0  0  0
   10.5575  -17.8479   16.9825 C   0  0  0  0  0  0  0  0  0  0  0  0
   10.4004  -18.4104   15.8890 O   0  0  0  0  0  0  0  0  0  0  0  0
   10.3307  -18.4852   18.2809 C   0  0  0  0  0  0  0  0  0  0  0  0
   10.5032  -17.6516   19.4929 C   0  0  0  0  0  0  0  0  0  0  0  0
   10.2600  -18.3109   20.8193 C   0  0  2  0  0  0  0  0  0  0  0  0
    9.2043  -19.2437   20.8634 N   0  0  0  0  0  0  0  0  0  0  0  0
   10.1471  -17.1813   21.8123 C   0  0  0  0  0  0  0  0  0  0  0  0
   11.1245  -16.3994   21.8041 O   0  0  0  0  0  0  0  0  0  0  0  0
    9.0536  -16.9973   22.6819 N   0  0  0  0  0  0  0  0  0  0  0  0
    8.8479  -15.9607   23.6324 C   0  0  1  0  0  0  0  0  0  0  0  0
    7.5766  -15.2021   23.5188 C   0  0  0  0  0  0  0  0  0  0  0  0
    7.0679  -15.0298   22.1386 C   0  0  0  0  0  0  0  0  0  0  0  0
    6.1590  -15.7677   21.4584 C   0  0  0  0  0  0  0  0  0  0  0  0
    6.0398  -15.2246   20.2297 N   0  0  0  0  0  0  0  0  0  0  0  0
    6.8546  -14.1513   20.1056 C   0  0  0  0  0  0  0  0  0  0  0  0
    7.0959  -13.2760   19.0697 C   0  0  0  0  0  0  0  0  0  0  0  0
    8.0069  -12.2379   19.2147 C   0  0  0  0  0  0  0  0  0  0  0  0
    8.6711  -12.0888   20.4085 C   0  0  0  0  0  0  0  0  0  0  0  0
    8.4098  -12.9781   21.4242 C   0  0  0  0  0  0  0  0  0  0  0  0
    7.5026  -14.0249   21.3028 C   0  0  0  0  0  0  0  0  0  0  0  0
    9.0647  -16.3638   25.0682 C   0  0  0  0  0  0  0  0  0  0  0  0
    8.8994  -15.5988   26.0466 O   0  0  0  0  0  0  0  0  0  0  0  0
    7.2036  -20.9085   26.7851 C   0  0  0  0  0  0  0  0  0  0  0  0
    7.5880  -19.4144   26.5238 C   0  0  1  0  0  0  0  0  0  0  0  0
    6.5310  -18.6478   27.2757 C   0  0  0  0  0  0  0  0  0  0  0  0
    8.9706  -19.3003   27.0282 C   0  0  0  0  0  0  0  0  0  0  0  0
    9.7451  -18.0594   26.8127 C   0  0  2  0  0  0  0  0  0  0  0  0
    9.4788  -17.6746   25.3968 N   0  0  0  0  0  0  0  0  0  0  0  0
   11.1986  -18.1104   26.9167 C   0  0  0  0  0  0  0  0  0  0  0  0
   12.0512  -18.1055   25.7909 O   0  0  0  0  0  0  0  0  0  0  0  0
   11.8073  -18.1651   28.0124 O   0  0  0  0  0  0  0  0  0  0  0  0
  2  1  1  0
  3  2  2  0
  4  2  1  0
  5  4  1  0
  6  8  1  0
  6  5  1  0
  6  7  1  6
  8  9  2  0
 10 11  1  0
 10  8  1  0
 11 12  1  1
 12 13  1  0
 13 21  1  0
 14 15  1  0
 14 13  2  0
 15 16  1  0
 16 21  2  0
 16 17  1  0
 17 18  2  0
 18 19  1  0
 20 19  2  0
 21 20  1  0
 22 11  1  0
 23 22  2  0
 25 24  1  1
 26 25  1  0
 27 25  1  0
 28 27  1  6
 28 29  1  0
 29 22  1  0
 30 31  1  0
 30 28  1  0
 32 30  2  0
M  END
$$$$
