QWL.pdb
     RDKit          3D

 32 33  0  0  1  0  0  0  0  0999 V2000
   11.7358  -18.7368   16.9952 N   0  0  0  0  0  0  0  0  0  0  0  0
   10.4564  -19.2749   17.3375 C   0  0  0  0  0  0  0  0  0  0  0  0
    9.8022  -19.7877   16.4179 O   0  0  0  0  0  0  0  0  0  0  0  0
   10.0025  -19.1869   18.7267 C   0  0  0  0  0  0  0  0  0  0  0  0
   10.8721  -18.4702   19.6876 C   0  0  0  0  0  0  0  0  0  0  0  0
   10.5933  -18.6731   21.1485 C   0  0  2  0  0  0  0  0  0  0  0  0
    9.2799  -19.0620   21.4806 N   0  0  0  0  0  0  0  0  0  0  0  0
   11.0692  -17.4120   21.8252 C   0  0  0  0  0  0  0  0  0  0  0  0
   12.2080  -17.0406   21.4622 O   0  0  0  0  0  0  0  0  0  0  0  0
   10.3220  -16.6958   22.7815 N   0  0  0  0  0  0  0  0  0  0  0  0
   10.7085  -15.5445   23.5201 C   0  0  1  0  0  0  0  0  0  0  0  0
    9.7884  -14.3807   23.4598 C   0  0  0  0  0  0  0  0  0  0  0  0
    8.4863  -14.6413   22.8040 C   0  0  0  0  0  0  0  0  0  0  0  0
    7.4204  -15.3431   23.2565 C   0  0  0  0  0  0  0  0  0  0  0  0
    6.4786  -15.3088   22.2918 N   0  0  0  0  0  0  0  0  0  0  0  0
    6.9177  -14.5987   21.2268 C   0  0  0  0  0  0  0  0  0  0  0  0
    6.3447  -14.2809   20.0150 C   0  0  0  0  0  0  0  0  0  0  0  0
    7.0355  -13.5206   19.0805 C   0  0  0  0  0  0  0  0  0  0  0  0
    8.3047  -13.0840   19.3755 C   0  0  0  0  0  0  0  0  0  0  0  0
    8.8505  -13.4173   20.5927 C   0  0  0  0  0  0  0  0  0  0  0  0
    8.1788  -14.1770   21.5441 C   0  0  0  0  0  0  0  0  0  0  0  0
   11.0897  -15.8085   24.9539 C   0  0  0  0  0  0  0  0  0  0  0  0
   12.1727  -15.4498   25.4718 O   0  0  0  0  0  0  0  0  0  0  0  0
    8.4904  -13.4446   28.0004 C   0  0  0  0  0  0  0  0  0  0  0  0
    9.8766  -14.1364   27.7802 C   0  0  1  0  0  0  0  0  0  0  0  0
   10.7412  -13.5302   28.8550 C   0  0  0  0  0  0  0  0  0  0  0  0
    9.5872  -15.5789   27.9011 C   0  0  0  0  0  0  0  0  0  0  0  0
   10.4875  -16.5763   27.2840 C   0  0  2  0  0  0  0  0  0  0  0  0
   10.2115  -16.4980   25.8206 N   0  0  0  0  0  0  0  0  0  0  0  0
   10.3129  -17.9844   27.6200 C   0  0  0  0  0  0  0  0  0  0  0  0
   10.7722  -18.5493   28.8301 O   0  0  0  0  0  0  0  0  0  0  0  0
    9.7440  -18.8061   26.8617 O   0  0  0  0  0  0  0  0  0  0  0  0
  2  1  1  0
  3  2  2  0
  4  2  1  0
  5  4  1  0
  6  8  1  0
  6  5  1  0
  6  7  1  6
  8  9  2  0
 10 11  1  0
 10  8  1  0
 11 12  1  1
 12 13  1  0
 13 21  1  0
 14 15  1  0
 14 13  2  0
 15 16  1  0
 16 21  2  0
 16 17  1  0
 17 18  2  0
 18 19  1  0
 20 19  2  0
 21 20  1  0
 22 11  1  0
 23 22  2  0
 25 24  1  1
 26 25  1  0
 27 25  1  0
 28 27  1  1
 28 29  1  0
 29 22  1  0
 30 31  1  0
 30 28  1  0
 32 30  2  0
M  END
$$$$
