QWL.pdb
     RDKit          3D

 32 33  0  0  1  0  0  0  0  0999 V2000
   12.7085  -18.3571   16.7076 N   0  0  0  0  0  0  0  0  0  0  0  0
   11.4457  -18.3937   17.3766 C   0  0  0  0  0  0  0  0  0  0  0  0
   10.4674  -17.9671   16.7460 O   0  0  0  0  0  0  0  0  0  0  0  0
   11.3850  -18.9196   18.7415 C   0  0  0  0  0  0  0  0  0  0  0  0
   11.4611  -17.9460   19.8550 C   0  0  0  0  0  0  0  0  0  0  0  0
   11.3160  -18.4847   21.2485 C   0  0  2  0  0  0  0  0  0  0  0  0
   10.4890  -19.6170   21.3921 N   0  0  0  0  0  0  0  0  0  0  0  0
   10.9197  -17.3012   22.0953 C   0  0  0  0  0  0  0  0  0  0  0  0
   11.6558  -16.3004   21.9439 O   0  0  0  0  0  0  0  0  0  0  0  0
    9.8259  -17.2937   22.9837 N   0  0  0  0  0  0  0  0  0  0  0  0
    9.4166  -16.2598   23.8692 C   0  0  1  0  0  0  0  0  0  0  0  0
    7.9564  -16.1308   24.1050 C   0  0  0  0  0  0  0  0  0  0  0  0
    7.3945  -14.7841   23.8515 C   0  0  0  0  0  0  0  0  0  0  0  0
    7.1229  -14.1731   22.6742 C   0  0  0  0  0  0  0  0  0  0  0  0
    6.6374  -12.9479   22.9606 N   0  0  0  0  0  0  0  0  0  0  0  0
    6.5915  -12.7582   24.2997 C   0  0  0  0  0  0  0  0  0  0  0  0
    6.1858  -11.6980   25.0800 C   0  0  0  0  0  0  0  0  0  0  0  0
    6.2481  -11.7711   26.4654 C   0  0  0  0  0  0  0  0  0  0  0  0
    6.7211  -12.9177   27.0571 C   0  0  0  0  0  0  0  0  0  0  0  0
    7.1192  -13.9592   26.2524 C   0  0  0  0  0  0  0  0  0  0  0  0
    7.0662  -13.9095   24.8637 C   0  0  0  0  0  0  0  0  0  0  0  0
   10.1423  -16.2305   25.1895 C   0  0  0  0  0  0  0  0  0  0  0  0
   10.8740  -15.2871   25.5698 O   0  0  0  0  0  0  0  0  0  0  0  0
    9.8562  -13.8801   28.7637 C   0  0  0  0  0  0  0  0  0  0  0  0
   10.7480  -14.7925   27.8578 C   0  0  1  0  0  0  0  0  0  0  0  0
   12.1492  -14.4506   28.2940 C   0  0  0  0  0  0  0  0  0  0  0  0
   10.2817  -16.1624   28.1492 C   0  0  0  0  0  0  0  0  0  0  0  0
   10.8027  -17.3099   27.3759 C   0  0  2  0  0  0  0  0  0  0  0  0
   10.0288  -17.3046   26.1012 N   0  0  0  0  0  0  0  0  0  0  0  0
   10.6289  -18.6553   27.9104 C   0  0  0  0  0  0  0  0  0  0  0  0
    9.7719  -19.6118   27.3231 O   0  0  0  0  0  0  0  0  0  0  0  0
   11.2239  -19.0697   28.9343 O   0  0  0  0  0  0  0  0  0  0  0  0
  2  1  1  0
  3  2  2  0
  4  2  1  0
  5  4  1  0
  6  8  1  0
  6  5  1  0
  6  7  1  6
  8  9  2  0
 10 11  1  0
 10  8  1  0
 11 12  1  1
 12 13  1  0
 13 21  1  0
 14 15  1  0
 14 13  2  0
 15 16  1  0
 16 21  2  0
 16 17  1  0
 17 18  2  0
 18 19  1  0
 20 19  2  0
 21 20  1  0
 22 11  1  0
 23 22  2  0
 25 24  1  1
 26 25  1  0
 27 25  1  0
 28 27  1  1
 28 29  1  0
 29 22  1  0
 30 31  1  0
 30 28  1  0
 32 30  2  0
M  END
$$$$
