QWL.pdb
     RDKit          3D

 32 33  0  0  1  0  0  0  0  0999 V2000
   10.2161  -18.7946   16.8998 N   0  0  0  0  0  0  0  0  0  0  0  0
   11.3724  -18.1848   17.4783 C   0  0  0  0  0  0  0  0  0  0  0  0
   12.3863  -18.8914   17.5760 O   0  0  0  0  0  0  0  0  0  0  0  0
   11.2908  -16.7899   17.9154 C   0  0  0  0  0  0  0  0  0  0  0  0
   10.7018  -16.5227   19.2477 C   0  0  0  0  0  0  0  0  0  0  0  0
   11.1872  -17.3624   20.3933 C   0  0  2  0  0  0  0  0  0  0  0  0
   10.8421  -18.7283   20.3504 N   0  0  0  0  0  0  0  0  0  0  0  0
   10.7410  -16.6367   21.6379 C   0  0  0  0  0  0  0  0  0  0  0  0
   11.1358  -15.4507   21.7024 O   0  0  0  0  0  0  0  0  0  0  0  0
    9.9514  -17.2148   22.6519 N   0  0  0  0  0  0  0  0  0  0  0  0
    9.5412  -16.6398   23.8854 C   0  0  1  0  0  0  0  0  0  0  0  0
    8.0810  -16.6233   24.1540 C   0  0  0  0  0  0  0  0  0  0  0  0
    7.3931  -15.3561   23.8154 C   0  0  0  0  0  0  0  0  0  0  0  0
    6.8098  -14.9779   22.6535 C   0  0  0  0  0  0  0  0  0  0  0  0
    6.3330  -13.7291   22.8318 N   0  0  0  0  0  0  0  0  0  0  0  0
    6.5983  -13.2958   24.0861 C   0  0  0  0  0  0  0  0  0  0  0  0
    6.3274  -12.1164   24.7442 C   0  0  0  0  0  0  0  0  0  0  0  0
    6.7248  -11.9311   26.0619 C   0  0  0  0  0  0  0  0  0  0  0  0
    7.3955  -12.9405   26.7098 C   0  0  0  0  0  0  0  0  0  0  0  0
    7.6520  -14.1061   26.0269 C   0  0  0  0  0  0  0  0  0  0  0  0
    7.2643  -14.3150   24.7080 C   0  0  0  0  0  0  0  0  0  0  0  0
   10.2686  -17.1566   25.0997 C   0  0  0  0  0  0  0  0  0  0  0  0
   10.9919  -18.1797   25.1044 O   0  0  0  0  0  0  0  0  0  0  0  0
    9.6858  -14.0633   29.6798 C   0  0  0  0  0  0  0  0  0  0  0  0
   10.0180  -14.6824   28.2816 C   0  0  1  0  0  0  0  0  0  0  0  0
   10.9118  -13.6480   27.6479 C   0  0  0  0  0  0  0  0  0  0  0  0
   10.6365  -15.9849   28.5976 C   0  0  0  0  0  0  0  0  0  0  0  0
   10.9721  -16.9353   27.5157 C   0  0  2  0  0  0  0  0  0  0  0  0
   10.1703  -16.4876   26.3409 N   0  0  0  0  0  0  0  0  0  0  0  0
   10.6299  -18.3426   27.6845 C   0  0  0  0  0  0  0  0  0  0  0  0
   11.3589  -19.2168   28.5204 O   0  0  0  0  0  0  0  0  0  0  0  0
    9.6638  -18.8894   27.1000 O   0  0  0  0  0  0  0  0  0  0  0  0
  2  1  1  0
  3  2  2  0
  4  2  1  0
  5  4  1  0
  6  8  1  0
  6  5  1  0
  6  7  1  6
  8  9  2  0
 10 11  1  0
 10  8  1  0
 11 12  1  1
 12 13  1  0
 13 21  1  0
 14 15  1  0
 14 13  2  0
 15 16  1  0
 16 21  2  0
 16 17  1  0
 17 18  2  0
 18 19  1  0
 20 19  2  0
 21 20  1  0
 22 11  1  0
 23 22  2  0
 25 24  1  1
 26 25  1  0
 27 25  1  0
 28 27  1  1
 28 29  1  0
 29 22  1  0
 30 31  1  0
 30 28  1  0
 32 30  2  0
M  END
$$$$
