QWL.pdb
     RDKit          3D

 32 33  0  0  1  0  0  0  0  0999 V2000
   11.8396  -19.4350   17.7021 N   0  0  0  0  0  0  0  0  0  0  0  0
   10.5053  -19.9275   17.8456 C   0  0  0  0  0  0  0  0  0  0  0  0
    9.9588  -20.3653   16.8226 O   0  0  0  0  0  0  0  0  0  0  0  0
    9.8748  -19.8833   19.1661 C   0  0  0  0  0  0  0  0  0  0  0  0
   10.6417  -19.2636   20.2713 C   0  0  0  0  0  0  0  0  0  0  0  0
    9.9641  -19.1677   21.6071 C   0  0  2  0  0  0  0  0  0  0  0  0
    8.5683  -19.3636   21.6095 N   0  0  0  0  0  0  0  0  0  0  0  0
   10.4188  -17.8542   22.1926 C   0  0  0  0  0  0  0  0  0  0  0  0
   11.6627  -17.7330   22.2605 O   0  0  0  0  0  0  0  0  0  0  0  0
    9.5465  -16.8380   22.6309 N   0  0  0  0  0  0  0  0  0  0  0  0
    9.8765  -15.5739   23.1908 C   0  0  1  0  0  0  0  0  0  0  0  0
    8.8089  -14.5422   23.1696 C   0  0  0  0  0  0  0  0  0  0  0  0
    7.7574  -14.7035   24.2000 C   0  0  0  0  0  0  0  0  0  0  0  0
    7.2022  -15.8360   24.6926 C   0  0  0  0  0  0  0  0  0  0  0  0
    6.2770  -15.4667   25.6017 N   0  0  0  0  0  0  0  0  0  0  0  0
    6.2255  -14.1183   25.7037 C   0  0  0  0  0  0  0  0  0  0  0  0
    5.4617  -13.2678   26.4723 C   0  0  0  0  0  0  0  0  0  0  0  0
    5.6159  -11.8911   26.3746 C   0  0  0  0  0  0  0  0  0  0  0  0
    6.5430  -11.3792   25.4989 C   0  0  0  0  0  0  0  0  0  0  0  0
    7.2904  -12.2528   24.7447 C   0  0  0  0  0  0  0  0  0  0  0  0
    7.1542  -13.6344   24.8249 C   0  0  0  0  0  0  0  0  0  0  0  0
   10.4927  -15.6295   24.5649 C   0  0  0  0  0  0  0  0  0  0  0  0
   11.3791  -14.8428   24.9712 O   0  0  0  0  0  0  0  0  0  0  0  0
    9.0299  -14.1357   28.8826 C   0  0  0  0  0  0  0  0  0  0  0  0
   10.0425  -14.5425   27.7612 C   0  0  1  0  0  0  0  0  0  0  0  0
   11.3200  -13.8654   28.1853 C   0  0  0  0  0  0  0  0  0  0  0  0
   10.0385  -16.0185   27.7846 C   0  0  0  0  0  0  0  0  0  0  0  0
   10.8175  -16.7842   26.7881 C   0  0  2  0  0  0  0  0  0  0  0  0
   10.0854  -16.6070   25.5011 N   0  0  0  0  0  0  0  0  0  0  0  0
   10.9403  -18.2281   26.9499 C   0  0  0  0  0  0  0  0  0  0  0  0
   10.4382  -19.1533   26.0085 O   0  0  0  0  0  0  0  0  0  0  0  0
   11.4988  -18.7635   27.9376 O   0  0  0  0  0  0  0  0  0  0  0  0
  2  1  1  0
  3  2  2  0
  4  2  1  0
  5  4  1  0
  6  8  1  0
  6  5  1  0
  6  7  1  6
  8  9  2  0
 10 11  1  0
 10  8  1  0
 11 12  1  1
 12 13  1  0
 13 21  1  0
 14 15  1  0
 14 13  2  0
 15 16  1  0
 16 21  2  0
 16 17  1  0
 17 18  2  0
 18 19  1  0
 20 19  2  0
 21 20  1  0
 22 11  1  0
 23 22  2  0
 25 24  1  1
 26 25  1  0
 27 25  1  0
 28 27  1  1
 28 29  1  0
 29 22  1  0
 30 31  1  0
 30 28  1  0
 32 30  2  0
M  END
$$$$
