QWL.pdb
     RDKit          3D

 32 33  0  0  1  0  0  0  0  0999 V2000
    7.9847  -12.4686   17.7933 N   0  0  0  0  0  0  0  0  0  0  0  0
    8.1961  -13.6503   17.0172 C   0  0  0  0  0  0  0  0  0  0  0  0
    7.8961  -13.5903   15.8159 O   0  0  0  0  0  0  0  0  0  0  0  0
    8.7410  -14.8391   17.6756 C   0  0  0  0  0  0  0  0  0  0  0  0
    9.0612  -14.7373   19.1180 C   0  0  0  0  0  0  0  0  0  0  0  0
    9.5507  -15.9809   19.8014 C   0  0  2  0  0  0  0  0  0  0  0  0
    8.8649  -17.1715   19.4873 N   0  0  0  0  0  0  0  0  0  0  0  0
    9.5873  -15.6415   21.2705 C   0  0  0  0  0  0  0  0  0  0  0  0
   10.2150  -14.5909   21.5327 O   0  0  0  0  0  0  0  0  0  0  0  0
    8.9794  -16.4169   22.2781 N   0  0  0  0  0  0  0  0  0  0  0  0
    8.9021  -16.1475   23.6716 C   0  0  1  0  0  0  0  0  0  0  0  0
    7.7456  -16.7336   24.3951 C   0  0  0  0  0  0  0  0  0  0  0  0
    6.8699  -15.7547   25.0796 C   0  0  0  0  0  0  0  0  0  0  0  0
    5.7420  -15.9649   25.7985 C   0  0  0  0  0  0  0  0  0  0  0  0
    5.2955  -14.7594   26.2062 N   0  0  0  0  0  0  0  0  0  0  0  0
    6.1141  -13.7770   25.7634 C   0  0  0  0  0  0  0  0  0  0  0  0
    6.0920  -12.4071   25.9060 C   0  0  0  0  0  0  0  0  0  0  0  0
    7.0798  -11.6174   25.3321 C   0  0  0  0  0  0  0  0  0  0  0  0
    8.0874  -12.2170   24.6154 C   0  0  0  0  0  0  0  0  0  0  0  0
    8.0827  -13.5863   24.4899 C   0  0  0  0  0  0  0  0  0  0  0  0
    7.1051  -14.3977   25.0551 C   0  0  0  0  0  0  0  0  0  0  0  0
   10.1674  -16.4225   24.4424 C   0  0  0  0  0  0  0  0  0  0  0  0
   11.1902  -16.9532   23.9502 O   0  0  0  0  0  0  0  0  0  0  0  0
   10.3511  -14.3106   29.5392 C   0  0  0  0  0  0  0  0  0  0  0  0
   10.4189  -14.6019   28.0033 C   0  0  1  0  0  0  0  0  0  0  0  0
   10.9072  -13.2993   27.4245 C   0  0  0  0  0  0  0  0  0  0  0  0
   11.3310  -15.7571   27.8914 C   0  0  0  0  0  0  0  0  0  0  0  0
   11.4599  -16.4869   26.6119 C   0  0  2  0  0  0  0  0  0  0  0  0
   10.2698  -16.0813   25.8102 N   0  0  0  0  0  0  0  0  0  0  0  0
   11.4190  -17.9443   26.6262 C   0  0  0  0  0  0  0  0  0  0  0  0
   10.2426  -18.6836   26.3733 O   0  0  0  0  0  0  0  0  0  0  0  0
   12.4231  -18.6573   26.8662 O   0  0  0  0  0  0  0  0  0  0  0  0
  2  1  1  0
  3  2  2  0
  4  2  1  0
  5  4  1  0
  6  8  1  0
  6  5  1  0
  6  7  1  1
  8  9  2  0
 10 11  1  0
 10  8  1  0
 11 12  1  1
 12 13  1  0
 13 21  1  0
 14 15  1  0
 14 13  2  0
 15 16  1  0
 16 21  2  0
 16 17  1  0
 17 18  2  0
 18 19  1  0
 20 19  2  0
 21 20  1  0
 22 11  1  0
 23 22  2  0
 25 24  1  1
 26 25  1  0
 27 25  1  0
 28 27  1  1
 28 29  1  0
 29 22  1  0
 30 31  1  0
 30 28  1  0
 32 30  2  0
M  END
$$$$
