RIT.pdb
     RDKit          3D

 27 26  0  0  1  0  0  0  0  0999 V2000
    8.3984  -12.7187   16.3105 N   0  0  0  0  0  0  0  0  0  0  0  0
    8.3387  -14.1066   15.9229 C   0  0  0  0  0  0  0  0  0  0  0  0
    8.0908  -14.4358   14.7012 N   0  0  0  0  0  0  0  0  0  0  0  0
    8.5516  -15.1391   16.8703 N   0  0  0  0  0  0  0  0  0  0  0  0
    8.8903  -14.8859   18.2521 C   0  0  0  0  0  0  0  0  0  0  0  0
    7.8940  -13.9482   18.8796 C   0  0  0  0  0  0  0  0  0  0  0  0
    8.2757  -13.5681   20.2923 C   0  0  0  0  0  0  0  0  0  0  0  0
    8.2297  -14.8813   21.0852 C   0  0  2  0  0  0  0  0  0  0  0  0
    6.8494  -15.2934   21.0922 N   0  0  0  0  0  0  0  0  0  0  0  0
    8.7244  -14.5651   22.4492 C   0  0  0  0  0  0  0  0  0  0  0  0
    9.9450  -14.2816   22.6321 O   0  0  0  0  0  0  0  0  0  0  0  0
    8.0526  -15.4312   14.4083 C   0  0  0  0  0  0  0  0  0  0  0  0
    7.1471  -11.7503   27.4606 C   0  0  0  0  0  0  0  0  0  0  0  0
    7.9096  -12.8720   26.8381 C   0  0  2  0  0  0  0  0  0  0  0  0
    7.3050  -13.2611   25.4707 C   0  0  0  0  0  0  0  0  0  0  0  0
    5.9120  -13.7793   25.7325 C   0  0  2  0  0  0  0  0  0  0  0  0
    8.2344  -14.3030   24.8905 N   0  0  0  0  0  0  0  0  0  0  0  0
    7.8058  -14.5922   23.5103 C   0  0  0  0  0  0  0  0  0  0  0  0
    8.3822  -15.5308   25.6612 O   0  0  0  0  0  0  0  0  0  0  0  0
    7.3045  -16.2405   25.7708 C   0  0  0  0  0  0  0  0  0  0  0  0
    9.8006  -18.5508   24.6665 C   0  0  2  0  0  0  0  0  0  0  0  0
   10.4336  -18.2469   25.9813 O   0  0  0  0  0  0  0  0  0  0  0  0
   11.7404  -17.7932   25.8867 C   0  0  2  0  0  0  0  0  0  0  0  0
    9.5897  -17.3307   26.8576 N   0  0  0  0  0  0  0  0  0  0  0  0
    9.5645  -15.9977   26.2770 C   0  0  0  0  0  0  0  0  0  0  0  0
   10.1956  -17.2712   28.2097 O   0  0  0  0  0  0  0  0  0  0  0  0
   10.2573  -18.3028   28.8993 O   0  0  0  0  0  0  0  0  0  0  0  0
  2  3  2  0
  2  1  1  0
  4  2  1  0
  5  4  1  0
  6  5  1  0
  7  6  1  0
  8  7  1  0
  8 10  1  0
  8  9  1  1
 10 17  1  0
 11 10  2  0
 12 13  1  0
 13 14  1  0
 14 15  1  6
 16 14  1  0
 16 18  1  0
 16 17  1  1
 18 19  2  0
 18 24  1  0
 21 22  1  0
 21 20  1  1
 23 21  1  0
 23 24  1  1
 25 23  1  0
 25 27  1  0
 26 25  2  0
M  END
$$$$
