RIT.pdb
     RDKit          3D

 27 26  0  0  1  0  0  0  0  0999 V2000
    6.5366  -18.4739   17.0339 N   0  0  0  0  0  0  0  0  0  0  0  0
    7.8822  -18.9455   17.2504 C   0  0  0  0  0  0  0  0  0  0  0  0
    8.6493  -19.2201   16.2511 N   0  0  0  0  0  0  0  0  0  0  0  0
    8.3939  -19.1165   18.5611 N   0  0  0  0  0  0  0  0  0  0  0  0
    7.6293  -18.8246   19.7521 C   0  0  0  0  0  0  0  0  0  0  0  0
    7.5872  -17.3415   20.0056 C   0  0  0  0  0  0  0  0  0  0  0  0
    8.0503  -16.9851   21.4001 C   0  0  0  0  0  0  0  0  0  0  0  0
    7.7929  -15.4780   21.5331 C   0  0  2  0  0  0  0  0  0  0  0  0
    8.4276  -14.8642   20.3948 N   0  0  0  0  0  0  0  0  0  0  0  0
    8.4167  -15.0575   22.8134 C   0  0  0  0  0  0  0  0  0  0  0  0
    9.6772  -14.9893   22.9134 O   0  0  0  0  0  0  0  0  0  0  0  0
    9.6092  -19.5891   16.3940 C   0  0  0  0  0  0  0  0  0  0  0  0
    5.9306  -11.4040   25.6640 C   0  0  0  0  0  0  0  0  0  0  0  0
    6.9408  -12.3289   25.0714 C   0  0  2  0  0  0  0  0  0  0  0  0
    7.1466  -13.5713   25.9661 C   0  0  0  0  0  0  0  0  0  0  0  0
    7.6682  -13.0803   27.2944 C   0  0  2  0  0  0  0  0  0  0  0  0
    8.1250  -14.4550   25.2260 N   0  0  0  0  0  0  0  0  0  0  0  0
    7.5727  -14.7445   23.8905 C   0  0  0  0  0  0  0  0  0  0  0  0
    8.5225  -15.6811   25.9056 O   0  0  0  0  0  0  0  0  0  0  0  0
    7.5452  -16.4629   26.2387 C   0  0  0  0  0  0  0  0  0  0  0  0
   10.4632  -18.5018   24.5440 C   0  0  2  0  0  0  0  0  0  0  0  0
   11.0439  -18.1592   25.8734 O   0  0  0  0  0  0  0  0  0  0  0  0
   12.2752  -17.5256   25.8046 C   0  0  2  0  0  0  0  0  0  0  0  0
   10.0782  -17.4001   26.7738 N   0  0  0  0  0  0  0  0  0  0  0  0
    9.8416  -16.0768   26.2193 C   0  0  0  0  0  0  0  0  0  0  0  0
   10.6822  -17.2721   28.1220 O   0  0  0  0  0  0  0  0  0  0  0  0
   11.0177  -16.1509   28.5390 O   0  0  0  0  0  0  0  0  0  0  0  0
  2  3  2  0
  2  1  1  0
  4  2  1  0
  5  4  1  0
  6  5  1  0
  7  6  1  0
  8  7  1  0
  8 10  1  0
  8  9  1  6
 10 17  1  0
 11 10  2  0
 12 13  1  0
 13 14  1  0
 14 15  1  6
 16 14  1  0
 16 18  1  0
 16 17  1  6
 18 19  2  0
 18 24  1  0
 21 22  1  0
 21 20  1  1
 23 21  1  0
 23 24  1  1
 25 23  1  0
 25 27  1  0
 26 25  2  0
M  END
$$$$
