RIT.pdb
     RDKit          3D

 27 26  0  0  1  0  0  0  0  0999 V2000
    7.7378  -13.1283   16.4024 N   0  0  0  0  0  0  0  0  0  0  0  0
    8.6547  -13.4460   17.4693 C   0  0  0  0  0  0  0  0  0  0  0  0
    9.5228  -12.5797   17.8672 N   0  0  0  0  0  0  0  0  0  0  0  0
    8.6240  -14.7121   18.1057 N   0  0  0  0  0  0  0  0  0  0  0  0
    8.5820  -14.8741   19.5410 C   0  0  0  0  0  0  0  0  0  0  0  0
    7.4191  -14.1189   20.1266 C   0  0  0  0  0  0  0  0  0  0  0  0
    6.2680  -15.0299   20.4889 C   0  0  0  0  0  0  0  0  0  0  0  0
    6.8906  -16.1357   21.3520 C   0  0  2  0  0  0  0  0  0  0  0  0
    5.7864  -16.8698   21.9150 N   0  0  0  0  0  0  0  0  0  0  0  0
    7.6947  -15.4504   22.3955 C   0  0  0  0  0  0  0  0  0  0  0  0
    8.8670  -15.0500   22.1327 O   0  0  0  0  0  0  0  0  0  0  0  0
   10.1178  -12.7561   18.6997 C   0  0  0  0  0  0  0  0  0  0  0  0
    7.4984  -12.0025   27.3223 C   0  0  0  0  0  0  0  0  0  0  0  0
    8.1160  -13.1479   26.5919 C   0  0  2  0  0  0  0  0  0  0  0  0
    7.1795  -13.6633   25.4765 C   0  0  0  0  0  0  0  0  0  0  0  0
    5.8990  -14.1061   26.1415 C   0  0  2  0  0  0  0  0  0  0  0  0
    7.9258  -14.7906   24.7996 N   0  0  0  0  0  0  0  0  0  0  0  0
    7.1183  -15.2665   23.6621 C   0  0  0  0  0  0  0  0  0  0  0  0
    8.3283  -15.8985   25.6563 O   0  0  0  0  0  0  0  0  0  0  0  0
    7.3550  -16.6312   26.0957 C   0  0  0  0  0  0  0  0  0  0  0  0
   11.9822  -17.5345   25.1923 C   0  0  2  0  0  0  0  0  0  0  0  0
   10.8311  -18.3278   25.7093 O   0  0  0  0  0  0  0  0  0  0  0  0
   11.1920  -19.5384   26.2808 C   0  0  1  0  0  0  0  0  0  0  0  0
    9.9158  -17.5304   26.6288 N   0  0  0  0  0  0  0  0  0  0  0  0
    9.6482  -16.2309   26.0335 C   0  0  0  0  0  0  0  0  0  0  0  0
   10.5927  -17.3472   27.9354 O   0  0  0  0  0  0  0  0  0  0  0  0
   10.8496  -16.1998   28.3367 O   0  0  0  0  0  0  0  0  0  0  0  0
  2  3  2  0
  2  1  1  0
  4  2  1  0
  5  4  1  0
  6  5  1  0
  7  6  1  0
  8  7  1  0
  8 10  1  0
  8  9  1  1
 10 17  1  0
 11 10  2  0
 12 13  1  0
 13 14  1  0
 14 15  1  6
 16 14  1  0
 16 18  1  0
 16 17  1  1
 18 19  2  0
 18 24  1  0
 21 22  1  0
 21 20  1  6
 23 21  1  0
 23 24  1  6
 25 23  1  0
 25 27  1  0
 26 25  2  0
M  END
$$$$
