RIT.pdb
     RDKit          3D

 27 26  0  0  1  0  0  0  0  0999 V2000
    7.2621  -19.5641   20.4972 N   0  0  0  0  0  0  0  0  0  0  0  0
    6.8722  -19.4487   19.1135 C   0  0  0  0  0  0  0  0  0  0  0  0
    5.9299  -20.1869   18.6343 N   0  0  0  0  0  0  0  0  0  0  0  0
    7.5109  -18.5242   18.2496 N   0  0  0  0  0  0  0  0  0  0  0  0
    8.4185  -17.5021   18.7183 C   0  0  0  0  0  0  0  0  0  0  0  0
    7.6679  -16.4175   19.4435 C   0  0  0  0  0  0  0  0  0  0  0  0
    8.5679  -15.2745   19.8553 C   0  0  0  0  0  0  0  0  0  0  0  0
    7.6631  -14.3184   20.6442 C   0  0  2  0  0  0  0  0  0  0  0  0
    7.5917  -13.1071   19.8678 N   0  0  0  0  0  0  0  0  0  0  0  0
    8.3245  -14.1019   21.9561 C   0  0  0  0  0  0  0  0  0  0  0  0
    9.5740  -13.9032   22.0121 O   0  0  0  0  0  0  0  0  0  0  0  0
    5.6604  -20.1342   17.6330 C   0  0  0  0  0  0  0  0  0  0  0  0
    7.2591  -11.7156   27.3870 C   0  0  0  0  0  0  0  0  0  0  0  0
    7.9867  -12.7206   26.5577 C   0  0  2  0  0  0  0  0  0  0  0  0
    7.2441  -12.9843   25.2289 C   0  0  0  0  0  0  0  0  0  0  0  0
    5.8979  -13.5684   25.5811 C   0  0  2  0  0  0  0  0  0  0  0  0
    8.1241  -13.9323   24.4459 N   0  0  0  0  0  0  0  0  0  0  0  0
    7.5283  -14.1259   23.1118 C   0  0  0  0  0  0  0  0  0  0  0  0
    8.4129  -15.2115   25.0813 O   0  0  0  0  0  0  0  0  0  0  0  0
    7.3731  -15.9339   25.3531 C   0  0  0  0  0  0  0  0  0  0  0  0
   10.4585  -18.1913   23.8640 C   0  0  2  0  0  0  0  0  0  0  0  0
   10.8655  -17.8345   25.2528 O   0  0  0  0  0  0  0  0  0  0  0  0
   12.1095  -17.2281   25.3377 C   0  0  2  0  0  0  0  0  0  0  0  0
    9.8068  -17.0377   26.0037 N   0  0  0  0  0  0  0  0  0  0  0  0
    9.6907  -15.7141   25.4127 C   0  0  0  0  0  0  0  0  0  0  0  0
   10.2197  -16.9127   27.4225 O   0  0  0  0  0  0  0  0  0  0  0  0
   10.4938  -15.7924   27.8842 O   0  0  0  0  0  0  0  0  0  0  0  0
  2  3  2  0
  2  1  1  0
  4  2  1  0
  5  4  1  0
  6  5  1  0
  7  6  1  0
  8  7  1  0
  8 10  1  0
  8  9  1  6
 10 17  1  0
 11 10  2  0
 12 13  1  0
 13 14  1  0
 14 15  1  6
 16 14  1  0
 16 18  1  0
 16 17  1  1
 18 19  2  0
 18 24  1  0
 21 22  1  0
 21 20  1  1
 23 21  1  0
 23 24  1  1
 25 23  1  0
 25 27  1  0
 26 25  2  0
M  END
$$$$
