RIT.pdb
     RDKit          3D

 27 26  0  0  1  0  0  0  0  0999 V2000
   11.3749  -18.6367   19.5297 N   0  0  0  0  0  0  0  0  0  0  0  0
   10.5501  -19.1654   18.4713 C   0  0  0  0  0  0  0  0  0  0  0  0
   11.0750  -19.5324   17.3523 N   0  0  0  0  0  0  0  0  0  0  0  0
    9.1481  -19.2961   18.6342 N   0  0  0  0  0  0  0  0  0  0  0  0
    8.4514  -18.8938   19.8346 C   0  0  0  0  0  0  0  0  0  0  0  0
    8.5455  -17.4042   20.0292 C   0  0  0  0  0  0  0  0  0  0  0  0
    7.8086  -16.9400   21.2651 C   0  0  0  0  0  0  0  0  0  0  0  0
    7.9900  -15.4162   21.2892 C   0  0  2  0  0  0  0  0  0  0  0  0
    8.8942  -15.1064   20.2114 N   0  0  0  0  0  0  0  0  0  0  0  0
    8.5687  -15.0837   22.6158 C   0  0  0  0  0  0  0  0  0  0  0  0
    9.7991  -15.2828   22.8397 O   0  0  0  0  0  0  0  0  0  0  0  0
   10.4978  -19.9523   16.5982 C   0  0  0  0  0  0  0  0  0  0  0  0
    7.1501  -11.6840   27.5508 C   0  0  0  0  0  0  0  0  0  0  0  0
    7.9454  -12.7536   26.8796 C   0  0  2  0  0  0  0  0  0  0  0  0
    7.3004  -13.1636   25.5370 C   0  0  0  0  0  0  0  0  0  0  0  0
    5.9283  -13.7078   25.8517 C   0  0  2  0  0  0  0  0  0  0  0  0
    8.2292  -14.1906   24.9299 N   0  0  0  0  0  0  0  0  0  0  0  0
    7.7168  -14.5507   23.5958 C   0  0  0  0  0  0  0  0  0  0  0  0
    8.4821  -15.3802   25.7326 O   0  0  0  0  0  0  0  0  0  0  0  0
    7.4252  -16.0517   26.0628 C   0  0  0  0  0  0  0  0  0  0  0  0
   10.1186  -18.5217   24.7595 C   0  0  2  0  0  0  0  0  0  0  0  0
   10.7362  -18.0615   26.0357 O   0  0  0  0  0  0  0  0  0  0  0  0
   12.0074  -17.5284   25.8869 C   0  0  2  0  0  0  0  0  0  0  0  0
    9.8352  -17.1333   26.8394 N   0  0  0  0  0  0  0  0  0  0  0  0
    9.7428  -15.8484   26.1647 C   0  0  0  0  0  0  0  0  0  0  0  0
   10.4242  -16.9443   28.1871 O   0  0  0  0  0  0  0  0  0  0  0  0
   10.8350  -15.8213   28.5242 O   0  0  0  0  0  0  0  0  0  0  0  0
  2  3  2  0
  2  1  1  0
  4  2  1  0
  5  4  1  0
  6  5  1  0
  7  6  1  0
  8  7  1  0
  8 10  1  0
  8  9  1  6
 10 17  1  0
 11 10  2  0
 12 13  1  0
 13 14  1  0
 14 15  1  6
 16 14  1  0
 16 18  1  0
 16 17  1  1
 18 19  2  0
 18 24  1  0
 21 22  1  0
 21 20  1  1
 23 21  1  0
 23 24  1  1
 25 23  1  0
 25 27  1  0
 26 25  2  0
M  END
$$$$
