RIT.pdb
     RDKit          3D

 27 26  0  0  1  0  0  0  0  0999 V2000
    7.0842  -12.9436   16.2770 N   0  0  0  0  0  0  0  0  0  0  0  0
    7.4539  -14.3130   16.0163 C   0  0  0  0  0  0  0  0  0  0  0  0
    6.7353  -15.0495   15.2394 N   0  0  0  0  0  0  0  0  0  0  0  0
    8.6122  -14.8810   16.6036 N   0  0  0  0  0  0  0  0  0  0  0  0
    8.9325  -14.7488   18.0065 C   0  0  0  0  0  0  0  0  0  0  0  0
    7.8506  -15.3578   18.8576 C   0  0  0  0  0  0  0  0  0  0  0  0
    8.2700  -15.4988   20.3034 C   0  0  0  0  0  0  0  0  0  0  0  0
    8.0541  -14.1096   20.9189 C   0  0  2  0  0  0  0  0  0  0  0  0
    8.8465  -13.1989   20.1330 N   0  0  0  0  0  0  0  0  0  0  0  0
    8.5302  -14.1945   22.3229 C   0  0  0  0  0  0  0  0  0  0  0  0
    9.7645  -14.3385   22.5672 O   0  0  0  0  0  0  0  0  0  0  0  0
    6.9697  -16.0474   15.0741 C   0  0  0  0  0  0  0  0  0  0  0  0
    6.0664  -11.0689   25.8174 C   0  0  0  0  0  0  0  0  0  0  0  0
    7.0560  -11.9266   25.1017 C   0  0  2  0  0  0  0  0  0  0  0  0
    6.9688  -13.3922   25.5824 C   0  0  0  0  0  0  0  0  0  0  0  0
    7.2635  -13.3922   27.0626 C   0  0  2  0  0  0  0  0  0  0  0  0
    7.9882  -14.1550   24.7669 N   0  0  0  0  0  0  0  0  0  0  0  0
    7.5788  -14.1116   23.3517 C   0  0  0  0  0  0  0  0  0  0  0  0
    8.2567  -15.5224   25.1929 O   0  0  0  0  0  0  0  0  0  0  0  0
    7.2079  -16.2105   25.5149 C   0  0  0  0  0  0  0  0  0  0  0  0
    9.9501  -18.5575   23.4965 C   0  0  2  0  0  0  0  0  0  0  0  0
   10.5386  -18.3044   24.8424 O   0  0  0  0  0  0  0  0  0  0  0  0
   11.8129  -17.7592   24.8072 C   0  0  2  0  0  0  0  0  0  0  0  0
    9.6196  -17.5096   25.7607 N   0  0  0  0  0  0  0  0  0  0  0  0
    9.5237  -16.1409   25.2791 C   0  0  0  0  0  0  0  0  0  0  0  0
   10.1906  -17.5147   27.1292 O   0  0  0  0  0  0  0  0  0  0  0  0
   10.2387  -18.5786   27.7690 O   0  0  0  0  0  0  0  0  0  0  0  0
  2  3  2  0
  2  1  1  0
  4  2  1  0
  5  4  1  0
  6  5  1  0
  7  6  1  0
  8  7  1  0
  8 10  1  0
  8  9  1  6
 10 17  1  0
 11 10  2  0
 12 13  1  0
 13 14  1  0
 14 15  1  6
 16 14  1  0
 16 18  1  0
 16 17  1  1
 18 19  2  0
 18 24  1  0
 21 22  1  0
 21 20  1  1
 23 21  1  0
 23 24  1  1
 25 23  1  0
 25 27  1  0
 26 25  2  0
M  END
$$$$
