RIT.pdb
     RDKit          3D

 27 26  0  0  1  0  0  0  0  0999 V2000
    6.0770  -20.5133   15.7422 N   0  0  0  0  0  0  0  0  0  0  0  0
    6.8757  -20.9173   14.6113 C   0  0  0  0  0  0  0  0  0  0  0  0
    6.3361  -21.0769   13.4513 N   0  0  0  0  0  0  0  0  0  0  0  0
    8.2680  -21.1466   14.7454 N   0  0  0  0  0  0  0  0  0  0  0  0
    9.0985  -20.4349   15.6898 C   0  0  0  0  0  0  0  0  0  0  0  0
    8.2655  -19.8701   16.8091 C   0  0  0  0  0  0  0  0  0  0  0  0
    9.1106  -19.2162   17.8788 C   0  0  0  0  0  0  0  0  0  0  0  0
    9.1778  -17.7346   17.4841 C   0  0  2  0  0  0  0  0  0  0  0  0
   10.1793  -17.6429   16.4528 N   0  0  0  0  0  0  0  0  0  0  0  0
    9.5689  -16.9917   18.7090 C   0  0  0  0  0  0  0  0  0  0  0  0
   10.7690  -17.0194   19.1124 O   0  0  0  0  0  0  0  0  0  0  0  0
    6.8735  -21.4749   12.6570 C   0  0  0  0  0  0  0  0  0  0  0  0
    6.9731  -12.3388   19.4389 C   0  0  0  0  0  0  0  0  0  0  0  0
    8.0248  -13.3975   19.4515 C   0  0  2  0  0  0  0  0  0  0  0  0
    7.8458  -14.3418   20.6610 C   0  0  0  0  0  0  0  0  0  0  0  0
    7.9837  -13.4997   21.9059 C   0  0  2  0  0  0  0  0  0  0  0  0
    8.9228  -15.3943   20.5254 N   0  0  0  0  0  0  0  0  0  0  0  0
    8.5769  -16.2708   19.3921 C   0  0  0  0  0  0  0  0  0  0  0  0
    9.2114  -16.1742   21.7219 O   0  0  0  0  0  0  0  0  0  0  0  0
    8.1855  -16.7584   22.2542 C   0  0  0  0  0  0  0  0  0  0  0  0
   11.2602  -19.2895   22.2119 C   0  0  2  0  0  0  0  0  0  0  0  0
   11.6784  -18.2619   23.2073 O   0  0  0  0  0  0  0  0  0  0  0  0
   12.8992  -17.6680   22.9257 C   0  0  2  0  0  0  0  0  0  0  0  0
   10.6035  -17.2188   23.4826 N   0  0  0  0  0  0  0  0  0  0  0  0
   10.4756  -16.3428   22.3289 C   0  0  0  0  0  0  0  0  0  0  0  0
   11.0028  -16.4223   24.6680 O   0  0  0  0  0  0  0  0  0  0  0  0
   11.2442  -15.2105   24.5388 O   0  0  0  0  0  0  0  0  0  0  0  0
  2  3  2  0
  2  1  1  0
  4  2  1  0
  5  4  1  0
  6  5  1  0
  7  6  1  0
  8  7  1  0
  8 10  1  0
  8  9  1  6
 10 17  1  0
 11 10  2  0
 12 13  1  0
 13 14  1  0
 14 15  1  6
 16 14  1  0
 16 18  1  0
 16 17  1  1
 18 19  2  0
 18 24  1  0
 21 22  1  0
 21 20  1  1
 23 21  1  0
 23 24  1  1
 25 23  1  0
 25 27  1  0
 26 25  2  0
M  END
$$$$
