RIT.pdb
     RDKit          3D

 27 26  0  0  1  0  0  0  0  0999 V2000
    8.8577  -12.9624   15.5759 N   0  0  0  0  0  0  0  0  0  0  0  0
    8.4192  -14.3362   15.5570 C   0  0  0  0  0  0  0  0  0  0  0  0
    7.9529  -14.8605   14.4753 N   0  0  0  0  0  0  0  0  0  0  0  0
    8.4909  -15.1416   16.7211 N   0  0  0  0  0  0  0  0  0  0  0  0
    7.6108  -14.9719   17.8546 C   0  0  0  0  0  0  0  0  0  0  0  0
    7.9390  -15.9670   18.9351 C   0  0  0  0  0  0  0  0  0  0  0  0
    8.7575  -15.3545   20.0491 C   0  0  0  0  0  0  0  0  0  0  0  0
    7.7579  -14.5314   20.8727 C   0  0  2  0  0  0  0  0  0  0  0  0
    7.5420  -13.3134   20.1345 N   0  0  0  0  0  0  0  0  0  0  0  0
    8.4032  -14.2804   22.1865 C   0  0  0  0  0  0  0  0  0  0  0  0
    9.6310  -13.9753   22.2428 O   0  0  0  0  0  0  0  0  0  0  0  0
    7.6793  -15.8614   14.4360 C   0  0  0  0  0  0  0  0  0  0  0  0
    7.3797  -11.6831   27.4395 C   0  0  0  0  0  0  0  0  0  0  0  0
    8.0622  -12.7876   26.7039 C   0  0  2  0  0  0  0  0  0  0  0  0
    7.3558  -13.0784   25.3611 C   0  0  0  0  0  0  0  0  0  0  0  0
    5.9550  -13.5364   25.6866 C   0  0  2  0  0  0  0  0  0  0  0  0
    8.1903  -14.1374   24.6769 N   0  0  0  0  0  0  0  0  0  0  0  0
    7.6165  -14.3927   23.3436 C   0  0  0  0  0  0  0  0  0  0  0  0
    8.3779  -15.3807   25.4134 O   0  0  0  0  0  0  0  0  0  0  0  0
    7.2868  -16.0184   25.6962 C   0  0  0  0  0  0  0  0  0  0  0  0
    9.8303  -18.6071   24.3736 C   0  0  2  0  0  0  0  0  0  0  0  0
   10.4791  -18.1934   25.6502 O   0  0  0  0  0  0  0  0  0  0  0  0
   11.7726  -17.7180   25.4972 C   0  0  2  0  0  0  0  0  0  0  0  0
    9.6290  -17.2351   26.4739 N   0  0  0  0  0  0  0  0  0  0  0  0
    9.6102  -15.9318   25.8291 C   0  0  0  0  0  0  0  0  0  0  0  0
   10.2238  -17.1105   27.8265 O   0  0  0  0  0  0  0  0  0  0  0  0
   10.7215  -16.0283   28.1796 O   0  0  0  0  0  0  0  0  0  0  0  0
  2  3  2  0
  2  1  1  0
  4  2  1  0
  5  4  1  0
  6  5  1  0
  7  6  1  0
  8  7  1  0
  8 10  1  0
  8  9  1  6
 10 17  1  0
 11 10  2  0
 12 13  1  0
 13 14  1  0
 14 15  1  6
 16 14  1  0
 16 18  1  0
 16 17  1  1
 18 19  2  0
 18 24  1  0
 21 22  1  0
 21 20  1  1
 23 21  1  0
 23 24  1  1
 25 23  1  0
 25 27  1  0
 26 25  2  0
M  END
$$$$
