RIT.pdb
     RDKit          3D

 27 26  0  0  1  0  0  0  0  0999 V2000
    8.5702  -12.9459   16.5387 N   0  0  0  0  0  0  0  0  0  0  0  0
    8.2879  -14.2595   16.0144 C   0  0  0  0  0  0  0  0  0  0  0  0
    8.6259  -14.5710   14.8098 N   0  0  0  0  0  0  0  0  0  0  0  0
    7.6364  -15.2374   16.8070 N   0  0  0  0  0  0  0  0  0  0  0  0
    7.1496  -14.9760   18.1422 C   0  0  0  0  0  0  0  0  0  0  0  0
    8.2965  -14.7516   19.0909 C   0  0  0  0  0  0  0  0  0  0  0  0
    8.1349  -15.5268   20.3789 C   0  0  0  0  0  0  0  0  0  0  0  0
    7.2751  -14.6297   21.2795 C   0  0  2  0  0  0  0  0  0  0  0  0
    7.1316  -13.3808   20.5761 N   0  0  0  0  0  0  0  0  0  0  0  0
    8.0249  -14.4706   22.5514 C   0  0  0  0  0  0  0  0  0  0  0  0
    9.2815  -14.3145   22.5324 O   0  0  0  0  0  0  0  0  0  0  0  0
    8.4571  -15.5232   14.4318 C   0  0  0  0  0  0  0  0  0  0  0  0
    6.0248  -11.3376   26.1052 C   0  0  0  0  0  0  0  0  0  0  0  0
    6.9751  -12.1936   25.3362 C   0  0  2  0  0  0  0  0  0  0  0  0
    7.1202  -13.5857   25.9901 C   0  0  0  0  0  0  0  0  0  0  0  0
    7.7380  -13.3747   27.3509 C   0  0  2  0  0  0  0  0  0  0  0  0
    7.9910  -14.3925   25.0536 N   0  0  0  0  0  0  0  0  0  0  0  0
    7.3028  -14.4998   23.7547 C   0  0  0  0  0  0  0  0  0  0  0  0
    8.4082  -15.7028   25.5353 O   0  0  0  0  0  0  0  0  0  0  0  0
    7.4431  -16.5396   25.7485 C   0  0  0  0  0  0  0  0  0  0  0  0
   11.6420  -19.3709   25.9223 C   0  0  2  0  0  0  0  0  0  0  0  0
   11.1874  -18.0393   25.4304 O   0  0  0  0  0  0  0  0  0  0  0  0
   10.9876  -17.9826   24.0596 C   0  0  1  0  0  0  0  0  0  0  0  0
    9.9842  -17.4963   26.1900 N   0  0  0  0  0  0  0  0  0  0  0  0
    9.7342  -16.1240   25.7791 C   0  0  0  0  0  0  0  0  0  0  0  0
   10.2798  -17.5328   27.6427 O   0  0  0  0  0  0  0  0  0  0  0  0
   10.3138  -18.6251   28.2337 O   0  0  0  0  0  0  0  0  0  0  0  0
  2  3  2  0
  2  1  1  0
  4  2  1  0
  5  4  1  0
  6  5  1  0
  7  6  1  0
  8  7  1  0
  8 10  1  0
  8  9  1  6
 10 17  1  0
 11 10  2  0
 12 13  1  0
 13 14  1  0
 14 15  1  6
 16 14  1  0
 16 18  1  0
 16 17  1  6
 18 19  2  0
 18 24  1  0
 21 22  1  0
 21 20  1  6
 23 21  1  0
 23 24  1  1
 25 23  1  0
 25 27  1  0
 26 25  2  0
M  END
$$$$
