RIT.pdb
     RDKit          3D

 27 26  0  0  1  0  0  0  0  0999 V2000
    9.1138  -14.8584   16.6155 N   0  0  0  0  0  0  0  0  0  0  0  0
    7.9132  -14.1087   16.8922 C   0  0  0  0  0  0  0  0  0  0  0  0
    7.7675  -12.9121   16.4348 N   0  0  0  0  0  0  0  0  0  0  0  0
    6.8669  -14.6664   17.6691 N   0  0  0  0  0  0  0  0  0  0  0  0
    6.9468  -14.8268   19.1030 C   0  0  0  0  0  0  0  0  0  0  0  0
    7.9029  -15.9329   19.4610 C   0  0  0  0  0  0  0  0  0  0  0  0
    8.0540  -16.0982   20.9562 C   0  0  0  0  0  0  0  0  0  0  0  0
    7.8407  -14.6936   21.5367 C   0  0  2  0  0  0  0  0  0  0  0  0
    8.5551  -13.7922   20.6694 N   0  0  0  0  0  0  0  0  0  0  0  0
    8.4094  -14.7160   22.9083 C   0  0  0  0  0  0  0  0  0  0  0  0
    9.6424  -14.9475   23.0807 O   0  0  0  0  0  0  0  0  0  0  0  0
    6.9048  -12.3652   16.6210 C   0  0  0  0  0  0  0  0  0  0  0  0
    6.1156  -11.4540   26.4326 C   0  0  0  0  0  0  0  0  0  0  0  0
    7.1466  -12.2961   25.7581 C   0  0  2  0  0  0  0  0  0  0  0  0
    7.0788  -13.7578   26.2536 C   0  0  0  0  0  0  0  0  0  0  0  0
    7.4718  -13.7512   27.7107 C   0  0  2  0  0  0  0  0  0  0  0  0
    8.0346  -14.5351   25.3771 N   0  0  0  0  0  0  0  0  0  0  0  0
    7.5453  -14.4761   23.9881 C   0  0  0  0  0  0  0  0  0  0  0  0
    8.3011  -15.9096   25.7808 O   0  0  0  0  0  0  0  0  0  0  0  0
    7.2477  -16.6179   26.0375 C   0  0  0  0  0  0  0  0  0  0  0  0
   10.0573  -18.9214   24.1109 C   0  0  2  0  0  0  0  0  0  0  0  0
   10.6140  -18.6647   25.4696 O   0  0  0  0  0  0  0  0  0  0  0  0
   11.8790  -18.0973   25.4627 C   0  0  2  0  0  0  0  0  0  0  0  0
    9.6629  -17.8906   26.3727 N   0  0  0  0  0  0  0  0  0  0  0  0
    9.5706  -16.5154   25.9091 C   0  0  0  0  0  0  0  0  0  0  0  0
   10.1942  -17.9125   27.7570 O   0  0  0  0  0  0  0  0  0  0  0  0
   10.5685  -16.8527   28.2863 O   0  0  0  0  0  0  0  0  0  0  0  0
  2  3  2  0
  2  1  1  0
  4  2  1  0
  5  4  1  0
  6  5  1  0
  7  6  1  0
  8  7  1  0
  8 10  1  0
  8  9  1  6
 10 17  1  0
 11 10  2  0
 12 13  1  0
 13 14  1  0
 14 15  1  6
 16 14  1  0
 16 18  1  0
 16 17  1  6
 18 19  2  0
 18 24  1  0
 21 22  1  0
 21 20  1  1
 23 21  1  0
 23 24  1  1
 25 23  1  0
 25 27  1  0
 26 25  2  0
M  END
$$$$
