RIT.pdb
     RDKit          3D

 27 26  0  0  1  0  0  0  0  0999 V2000
    8.5090  -13.1760   18.0084 N   0  0  0  0  0  0  0  0  0  0  0  0
    7.4942  -13.8238   17.2144 C   0  0  0  0  0  0  0  0  0  0  0  0
    6.8860  -13.1811   16.2766 N   0  0  0  0  0  0  0  0  0  0  0  0
    7.1424  -15.1778   17.4427 N   0  0  0  0  0  0  0  0  0  0  0  0
    7.7280  -15.9800   18.4923 C   0  0  0  0  0  0  0  0  0  0  0  0
    7.1346  -15.6215   19.8283 C   0  0  0  0  0  0  0  0  0  0  0  0
    7.9865  -16.1020   20.9813 C   0  0  0  0  0  0  0  0  0  0  0  0
    8.7669  -14.8642   21.4439 C   0  0  2  0  0  0  0  0  0  0  0  0
   10.0209  -14.8971   20.7356 N   0  0  0  0  0  0  0  0  0  0  0  0
    8.9507  -15.0083   22.9104 C   0  0  0  0  0  0  0  0  0  0  0  0
    9.9406  -15.6536   23.3659 O   0  0  0  0  0  0  0  0  0  0  0  0
    6.2009  -13.6538   15.6560 C   0  0  0  0  0  0  0  0  0  0  0  0
    6.2487  -11.2003   25.7310 C   0  0  0  0  0  0  0  0  0  0  0  0
    7.2904  -12.1403   25.2228 C   0  0  2  0  0  0  0  0  0  0  0  0
    7.1154  -13.5464   25.8384 C   0  0  0  0  0  0  0  0  0  0  0  0
    7.2515  -13.3964   27.3339 C   0  0  2  0  0  0  0  0  0  0  0  0
    8.1958  -14.4046   25.2200 N   0  0  0  0  0  0  0  0  0  0  0  0
    8.0033  -14.4142   23.7588 C   0  0  0  0  0  0  0  0  0  0  0  0
    8.3150  -15.7600   25.7416 O   0  0  0  0  0  0  0  0  0  0  0  0
    7.2068  -16.4287   25.7842 C   0  0  0  0  0  0  0  0  0  0  0  0
    9.5420  -18.9677   24.5628 C   0  0  2  0  0  0  0  0  0  0  0  0
   10.2158  -18.6844   25.8618 O   0  0  0  0  0  0  0  0  0  0  0  0
   11.5393  -18.2904   25.7365 C   0  0  2  0  0  0  0  0  0  0  0  0
    9.4326  -17.7259   26.7491 N   0  0  0  0  0  0  0  0  0  0  0  0
    9.4999  -16.3860   26.1880 C   0  0  0  0  0  0  0  0  0  0  0  0
   10.0362  -17.7271   28.1036 O   0  0  0  0  0  0  0  0  0  0  0  0
   10.5861  -16.6979   28.5300 O   0  0  0  0  0  0  0  0  0  0  0  0
  2  3  2  0
  2  1  1  0
  4  2  1  0
  5  4  1  0
  6  5  1  0
  7  6  1  0
  8  7  1  0
  8 10  1  0
  8  9  1  6
 10 17  1  0
 11 10  2  0
 12 13  1  0
 13 14  1  0
 14 15  1  6
 16 14  1  0
 16 18  1  0
 16 17  1  1
 18 19  2  0
 18 24  1  0
 21 22  1  0
 21 20  1  1
 23 21  1  0
 23 24  1  1
 25 23  1  0
 25 27  1  0
 26 25  2  0
M  END
$$$$
