SDK.pdb
     RDKit          3D

 24 23  0  0  1  0  0  0  0  0999 V2000
    9.0467  -12.3308   17.7195 O   0  0  0  0  0  0  0  0  0  0  0  0
    8.8858  -12.8578   19.0023 C   0  0  0  0  0  0  0  0  0  0  0  0
    8.3576  -14.2705   18.8655 C   0  0  2  0  0  0  0  0  0  0  0  0
    7.0209  -14.2210   18.3689 N   0  0  0  0  0  0  0  0  0  0  0  0
    8.4618  -15.0369   20.1470 C   0  0  0  0  0  0  0  0  0  0  0  0
    7.5479  -14.9618   20.9653 O   0  0  0  0  0  0  0  0  0  0  0  0
    9.6057  -15.8284   20.3857 N   0  0  0  0  0  0  0  0  0  0  0  0
    9.9427  -16.6187   21.5120 C   0  0  1  0  0  0  0  0  0  0  0  0
   10.9958  -17.6699   21.2961 C   0  0  0  0  0  0  0  0  0  0  0  0
   11.1306  -18.5025   22.5112 C   0  0  0  0  0  0  0  0  0  0  0  0
   10.2149  -18.5128   23.3590 O   0  0  0  0  0  0  0  0  0  0  0  0
   10.0099  -15.8489   22.7273 C   0  0  0  0  0  0  0  0  0  0  0  0
   10.9724  -15.0381   22.8810 O   0  0  0  0  0  0  0  0  0  0  0  0
   12.2661  -19.2855   22.7406 O   0  0  0  0  0  0  0  0  0  0  0  0
    9.0726  -15.9438   23.7532 N   0  0  0  0  0  0  0  0  0  0  0  0
    9.2166  -15.1347   25.0255 C   0  0  1  0  0  0  0  0  0  0  0  0
    8.0150  -14.2868   25.1044 C   0  0  0  0  0  0  0  0  0  0  0  0
    7.8001  -13.3606   26.2114 C   0  0  0  0  0  0  0  0  0  0  0  0
    6.5429  -12.5775   26.2457 C   0  0  0  0  0  0  0  0  0  0  0  0
    6.3826  -11.7550   27.5057 C   0  0  0  0  0  0  0  0  0  0  0  0
    5.1141  -11.0656   27.4898 N   0  0  0  0  0  0  0  0  0  0  0  0
    9.4221  -16.1453   26.0583 C   0  0  0  0  0  0  0  0  0  0  0  0
    9.4284  -17.5086   25.7022 O   0  0  0  0  0  0  0  0  0  0  0  0
    9.5984  -15.9278   27.2653 O   0  0  0  0  0  0  0  0  0  0  0  0
  2  1  1  0
  2  3  1  0
  3  4  1  1
  5  3  1  0
  5  6  2  0
  7  5  1  0
  8  7  1  0
  9 10  1  0
  8  9  1  6
 10 11  2  0
 12  8  1  0
 13 12  2  0
 14 10  1  0
 15 12  1  0
 16 15  1  0
 16 17  1  1
 18 17  1  0
 19 20  1  0
 19 18  1  0
 20 21  1  0
 22 16  1  0
 23 22  1  0
 24 22  2  0
M  END
$$$$
