SDK.pdb
     RDKit          3D

 24 23  0  0  1  0  0  0  0  0999 V2000
    8.0178  -13.5804   20.6447 O   0  0  0  0  0  0  0  0  0  0  0  0
    8.4357  -12.4675   19.9125 C   0  0  0  0  0  0  0  0  0  0  0  0
    8.8608  -12.9432   18.5390 C   0  0  2  0  0  0  0  0  0  0  0  0
    7.6967  -13.2229   17.7630 N   0  0  0  0  0  0  0  0  0  0  0  0
    9.7922  -14.1127   18.6118 C   0  0  0  0  0  0  0  0  0  0  0  0
    9.4256  -15.1983   18.1675 O   0  0  0  0  0  0  0  0  0  0  0  0
   11.0694  -13.9419   19.1876 N   0  0  0  0  0  0  0  0  0  0  0  0
   12.1494  -14.8533   19.2851 C   0  0  1  0  0  0  0  0  0  0  0  0
   13.5292  -14.2595   19.2197 C   0  0  0  0  0  0  0  0  0  0  0  0
   14.3992  -15.1031   18.3716 C   0  0  0  0  0  0  0  0  0  0  0  0
   14.5469  -16.3116   18.6459 O   0  0  0  0  0  0  0  0  0  0  0  0
   11.9148  -15.8860   20.2611 C   0  0  0  0  0  0  0  0  0  0  0  0
   12.7784  -16.8048   20.3937 O   0  0  0  0  0  0  0  0  0  0  0  0
   15.0685  -14.5806   17.2607 O   0  0  0  0  0  0  0  0  0  0  0  0
   10.7852  -15.9364   21.0743 N   0  0  0  0  0  0  0  0  0  0  0  0
   10.5313  -17.1132   21.9935 C   0  0  1  0  0  0  0  0  0  0  0  0
   10.5912  -16.5771   23.3638 C   0  0  0  0  0  0  0  0  0  0  0  0
   10.6642  -17.4531   24.5286 C   0  0  0  0  0  0  0  0  0  0  0  0
   11.9373  -17.5234   25.2831 C   0  0  0  0  0  0  0  0  0  0  0  0
   11.8834  -18.4681   26.4641 C   0  0  0  0  0  0  0  0  0  0  0  0
   13.1850  -18.5648   27.0814 N   0  0  0  0  0  0  0  0  0  0  0  0
    9.2647  -17.6595   21.5165 C   0  0  0  0  0  0  0  0  0  0  0  0
    8.7200  -17.1896   20.3049 O   0  0  0  0  0  0  0  0  0  0  0  0
    8.5861  -18.5272   22.0837 O   0  0  0  0  0  0  0  0  0  0  0  0
  2  1  1  0
  2  3  1  0
  3  4  1  6
  5  3  1  0
  5  6  2  0
  7  5  1  0
  8  7  1  0
  9 10  1  0
  8  9  1  1
 10 11  2  0
 12  8  1  0
 13 12  2  0
 14 10  1  0
 15 12  1  0
 16 15  1  0
 16 17  1  1
 18 17  1  0
 19 20  1  0
 19 18  1  0
 20 21  1  0
 22 16  1  0
 23 22  1  0
 24 22  2  0
M  END
$$$$
