SDK.pdb
     RDKit          3D

 24 23  0  0  1  0  0  0  0  0999 V2000
   11.4713  -20.7465   16.3681 O   0  0  0  0  0  0  0  0  0  0  0  0
   11.7462  -19.5411   15.7196 C   0  0  0  0  0  0  0  0  0  0  0  0
   12.4138  -18.6154   16.7150 C   0  0  2  0  0  0  0  0  0  0  0  0
   13.6579  -19.1857   17.1183 N   0  0  0  0  0  0  0  0  0  0  0  0
   11.5249  -18.3049   17.8786 C   0  0  0  0  0  0  0  0  0  0  0  0
   10.5092  -17.6380   17.6947 O   0  0  0  0  0  0  0  0  0  0  0  0
   11.8728  -18.7855   19.1592 N   0  0  0  0  0  0  0  0  0  0  0  0
   11.2342  -18.5846   20.4076 C   0  0  1  0  0  0  0  0  0  0  0  0
   10.7584  -19.8211   21.1183 C   0  0  0  0  0  0  0  0  0  0  0  0
   10.0108  -20.6843   20.1783 C   0  0  0  0  0  0  0  0  0  0  0  0
    8.8295  -20.4054   19.8880 O   0  0  0  0  0  0  0  0  0  0  0  0
   11.8760  -17.5671   21.1993 C   0  0  0  0  0  0  0  0  0  0  0  0
   13.1220  -17.3813   21.0564 O   0  0  0  0  0  0  0  0  0  0  0  0
   10.5945  -21.8158   19.6003 O   0  0  0  0  0  0  0  0  0  0  0  0
   11.2035  -16.7688   22.1215 N   0  0  0  0  0  0  0  0  0  0  0  0
   11.7212  -16.5947   23.5342 C   0  0  1  0  0  0  0  0  0  0  0  0
   10.7123  -17.2091   24.4139 C   0  0  0  0  0  0  0  0  0  0  0  0
   11.0399  -17.6540   25.7645 C   0  0  0  0  0  0  0  0  0  0  0  0
   10.9242  -16.6832   26.8776 C   0  0  0  0  0  0  0  0  0  0  0  0
   11.2467  -17.2799   28.2303 C   0  0  0  0  0  0  0  0  0  0  0  0
   10.9758  -16.3191   29.2734 N   0  0  0  0  0  0  0  0  0  0  0  0
   13.0555  -17.1845   23.4903 C   0  0  0  0  0  0  0  0  0  0  0  0
   14.1838  -16.3600   23.6704 O   0  0  0  0  0  0  0  0  0  0  0  0
   13.3170  -18.3811   23.3032 O   0  0  0  0  0  0  0  0  0  0  0  0
  2  1  1  0
  2  3  1  0
  3  4  1  1
  5  3  1  0
  5  6  2  0
  7  5  1  0
  8  7  1  0
  9 10  1  0
  8  9  1  1
 10 11  2  0
 12  8  1  0
 13 12  2  0
 14 10  1  0
 15 12  1  0
 16 15  1  0
 16 17  1  1
 18 17  1  0
 19 20  1  0
 19 18  1  0
 20 21  1  0
 22 16  1  0
 23 22  1  0
 24 22  2  0
M  END
$$$$
