SDK.pdb
     RDKit          3D

 24 23  0  0  1  0  0  0  0  0999 V2000
   15.4311  -14.9108   18.1583 O   0  0  0  0  0  0  0  0  0  0  0  0
   14.4095  -14.8264   19.1061 C   0  0  0  0  0  0  0  0  0  0  0  0
   13.1540  -15.4128   18.4950 C   0  0  2  0  0  0  0  0  0  0  0  0
   12.8587  -14.7190   17.2838 N   0  0  0  0  0  0  0  0  0  0  0  0
   12.0040  -15.4024   19.4530 C   0  0  0  0  0  0  0  0  0  0  0  0
   11.3865  -14.3557   19.6356 O   0  0  0  0  0  0  0  0  0  0  0  0
   11.6546  -16.5943   20.1234 N   0  0  0  0  0  0  0  0  0  0  0  0
   10.6959  -16.8137   21.1429 C   0  0  1  0  0  0  0  0  0  0  0  0
    9.7589  -17.9715   20.9372 C   0  0  0  0  0  0  0  0  0  0  0  0
    9.7831  -18.3912   19.5191 C   0  0  0  0  0  0  0  0  0  0  0  0
    9.8882  -17.5311   18.6209 O   0  0  0  0  0  0  0  0  0  0  0  0
   11.2393  -16.6236   22.4630 C   0  0  0  0  0  0  0  0  0  0  0  0
   10.4409  -16.5603   23.4458 O   0  0  0  0  0  0  0  0  0  0  0  0
    9.6896  -19.7370   19.1517 O   0  0  0  0  0  0  0  0  0  0  0  0
   12.6017  -16.5029   22.7262 N   0  0  0  0  0  0  0  0  0  0  0  0
   13.1085  -16.2100   24.1231 C   0  0  1  0  0  0  0  0  0  0  0  0
   12.8256  -17.4171   24.9180 C   0  0  0  0  0  0  0  0  0  0  0  0
   13.3484  -17.5864   26.2699 C   0  0  0  0  0  0  0  0  0  0  0  0
   13.1321  -18.8815   26.9559 C   0  0  0  0  0  0  0  0  0  0  0  0
   13.8171  -18.9691   28.3024 C   0  0  0  0  0  0  0  0  0  0  0  0
   13.4336  -20.1874   28.9755 N   0  0  0  0  0  0  0  0  0  0  0  0
   14.5013  -15.8271   23.9141 C   0  0  0  0  0  0  0  0  0  0  0  0
   15.2043  -15.1786   24.9487 O   0  0  0  0  0  0  0  0  0  0  0  0
   15.1618  -16.0166   22.8830 O   0  0  0  0  0  0  0  0  0  0  0  0
  2  1  1  0
  2  3  1  0
  3  4  1  6
  5  3  1  0
  5  6  2  0
  7  5  1  0
  8  7  1  0
  9 10  1  0
  8  9  1  1
 10 11  2  0
 12  8  1  0
 13 12  2  0
 14 10  1  0
 15 12  1  0
 16 15  1  0
 16 17  1  1
 18 17  1  0
 19 20  1  0
 19 18  1  0
 20 21  1  0
 22 16  1  0
 23 22  1  0
 24 22  2  0
M  END
$$$$
