SDK.pdb
     RDKit          3D

 24 23  0  0  1  0  0  0  0  0999 V2000
   11.9771  -21.3413   14.3731 O   0  0  0  0  0  0  0  0  0  0  0  0
   10.7595  -20.6814   14.1960 C   0  0  0  0  0  0  0  0  0  0  0  0
   10.9007  -19.2803   14.7530 C   0  0  2  0  0  0  0  0  0  0  0  0
   12.2371  -18.8280   14.5405 N   0  0  0  0  0  0  0  0  0  0  0  0
   10.4945  -19.2030   16.1916 C   0  0  0  0  0  0  0  0  0  0  0  0
   11.2053  -18.5862   16.9819 O   0  0  0  0  0  0  0  0  0  0  0  0
    9.3050  -19.8389   16.6070 N   0  0  0  0  0  0  0  0  0  0  0  0
    8.7306  -19.9334   17.8984 C   0  0  1  0  0  0  0  0  0  0  0  0
    7.2352  -20.0803   17.9525 C   0  0  0  0  0  0  0  0  0  0  0  0
    6.7937  -20.2076   19.3584 C   0  0  0  0  0  0  0  0  0  0  0  0
    7.0423  -21.2531   19.9929 O   0  0  0  0  0  0  0  0  0  0  0  0
    9.5122  -20.7480   18.7927 C   0  0  0  0  0  0  0  0  0  0  0  0
    9.7284  -21.9578   18.4810 O   0  0  0  0  0  0  0  0  0  0  0  0
    6.0980  -19.1806   20.0037 O   0  0  0  0  0  0  0  0  0  0  0  0
   10.0485  -20.2819   19.9907 N   0  0  0  0  0  0  0  0  0  0  0  0
   10.8197  -21.2003   20.9157 C   0  0  1  0  0  0  0  0  0  0  0  0
   12.1525  -20.5931   21.0706 C   0  0  0  0  0  0  0  0  0  0  0  0
   13.1782  -21.1972   21.9146 C   0  0  0  0  0  0  0  0  0  0  0  0
   14.4610  -20.4784   22.0945 C   0  0  0  0  0  0  0  0  0  0  0  0
   15.4391  -21.2107   22.9873 C   0  0  0  0  0  0  0  0  0  0  0  0
   16.7256  -20.5561   22.9553 N   0  0  0  0  0  0  0  0  0  0  0  0
    9.9638  -21.3060   22.0931 C   0  0  0  0  0  0  0  0  0  0  0  0
   10.1534  -22.3726   22.9940 O   0  0  0  0  0  0  0  0  0  0  0  0
    9.0493  -20.5287   22.4008 O   0  0  0  0  0  0  0  0  0  0  0  0
  2  1  1  0
  2  3  1  0
  3  4  1  1
  5  3  1  0
  5  6  2  0
  7  5  1  0
  8  7  1  0
  9 10  1  0
  8  9  1  6
 10 11  2  0
 12  8  1  0
 13 12  2  0
 14 10  1  0
 15 12  1  0
 16 15  1  0
 16 17  1  1
 18 17  1  0
 19 20  1  0
 19 18  1  0
 20 21  1  0
 22 16  1  0
 23 22  1  0
 24 22  2  0
M  END
$$$$
