SDK.pdb
     RDKit          3D

 24 23  0  0  1  0  0  0  0  0999 V2000
   11.8548  -16.9784   18.5982 O   0  0  0  0  0  0  0  0  0  0  0  0
   11.4260  -15.6755   18.3377 C   0  0  0  0  0  0  0  0  0  0  0  0
   12.1061  -15.2033   17.0697 C   0  0  2  0  0  0  0  0  0  0  0  0
   11.6128  -15.9625   15.9671 N   0  0  0  0  0  0  0  0  0  0  0  0
   13.5981  -15.2578   17.1776 C   0  0  0  0  0  0  0  0  0  0  0  0
   14.1926  -16.2488   16.7594 O   0  0  0  0  0  0  0  0  0  0  0  0
   14.2876  -14.1704   17.7557 N   0  0  0  0  0  0  0  0  0  0  0  0
   15.6726  -14.0017   18.0004 C   0  0  1  0  0  0  0  0  0  0  0  0
   16.2293  -12.6269   17.7540 C   0  0  0  0  0  0  0  0  0  0  0  0
   17.6838  -12.7123   17.4998 C   0  0  0  0  0  0  0  0  0  0  0  0
   18.1775  -13.7800   17.0828 O   0  0  0  0  0  0  0  0  0  0  0  0
   16.1137  -14.6965   19.1823 C   0  0  0  0  0  0  0  0  0  0  0  0
   15.4059  -14.6214   20.2315 O   0  0  0  0  0  0  0  0  0  0  0  0
   18.5307  -11.6210   17.7161 O   0  0  0  0  0  0  0  0  0  0  0  0
   17.2825  -15.4517   19.2420 N   0  0  0  0  0  0  0  0  0  0  0  0
   17.6513  -16.2304   20.4876 C   0  0  1  0  0  0  0  0  0  0  0  0
   18.5025  -17.3429   20.0326 C   0  0  0  0  0  0  0  0  0  0  0  0
   18.9986  -18.3578   20.9563 C   0  0  0  0  0  0  0  0  0  0  0  0
   19.7566  -19.5058   20.4066 C   0  0  0  0  0  0  0  0  0  0  0  0
   20.3004  -20.4317   21.4729 C   0  0  0  0  0  0  0  0  0  0  0  0
   21.0150  -21.5270   20.8612 N   0  0  0  0  0  0  0  0  0  0  0  0
   18.2367  -15.2229   21.3664 C   0  0  0  0  0  0  0  0  0  0  0  0
   18.3268  -15.4778   22.7493 O   0  0  0  0  0  0  0  0  0  0  0  0
   18.6813  -14.1207   21.0162 O   0  0  0  0  0  0  0  0  0  0  0  0
  2  1  1  0
  2  3  1  0
  3  4  1  6
  5  3  1  0
  5  6  2  0
  7  5  1  0
  8  7  1  0
  9 10  1  0
  8  9  1  1
 10 11  2  0
 12  8  1  0
 13 12  2  0
 14 10  1  0
 15 12  1  0
 16 15  1  0
 16 17  1  6
 18 17  1  0
 19 20  1  0
 19 18  1  0
 20 21  1  0
 22 16  1  0
 23 22  1  0
 24 22  2  0
M  END
$$$$
