SDK.pdb
     RDKit          3D

 24 23  0  0  1  0  0  0  0  0999 V2000
    8.8307  -12.1975   17.5785 O   0  0  0  0  0  0  0  0  0  0  0  0
    8.5910  -12.8218   18.8041 C   0  0  0  0  0  0  0  0  0  0  0  0
    8.5011  -14.3137   18.5601 C   0  0  2  0  0  0  0  0  0  0  0  0
    7.3672  -14.5828   17.7371 N   0  0  0  0  0  0  0  0  0  0  0  0
    8.4758  -15.0925   19.8382 C   0  0  0  0  0  0  0  0  0  0  0  0
    7.4265  -15.1655   20.4738 O   0  0  0  0  0  0  0  0  0  0  0  0
    9.6562  -15.7253   20.2833 N   0  0  0  0  0  0  0  0  0  0  0  0
    9.8763  -16.5339   21.4253 C   0  0  1  0  0  0  0  0  0  0  0  0
   10.8952  -17.6298   21.2785 C   0  0  0  0  0  0  0  0  0  0  0  0
   11.0826  -18.3181   22.5742 C   0  0  0  0  0  0  0  0  0  0  0  0
   10.1629  -19.0213   23.0400 O   0  0  0  0  0  0  0  0  0  0  0  0
    9.8894  -15.7724   22.6476 C   0  0  0  0  0  0  0  0  0  0  0  0
   10.8249  -14.9370   22.8335 O   0  0  0  0  0  0  0  0  0  0  0  0
   12.2719  -18.2019   23.3002 O   0  0  0  0  0  0  0  0  0  0  0  0
    8.9276  -15.9009   23.6468 N   0  0  0  0  0  0  0  0  0  0  0  0
    9.0281  -15.1171   24.9389 C   0  0  1  0  0  0  0  0  0  0  0  0
    7.8224  -14.2733   24.9957 C   0  0  0  0  0  0  0  0  0  0  0  0
    7.5892  -13.3400   26.0929 C   0  0  0  0  0  0  0  0  0  0  0  0
    6.3516  -12.5259   26.0793 C   0  0  0  0  0  0  0  0  0  0  0  0
    6.2620  -11.5508   27.2330 C   0  0  0  0  0  0  0  0  0  0  0  0
    5.0034  -10.8447   27.1889 N   0  0  0  0  0  0  0  0  0  0  0  0
    9.2030  -16.1476   25.9576 C   0  0  0  0  0  0  0  0  0  0  0  0
    9.7694  -15.8037   27.2010 O   0  0  0  0  0  0  0  0  0  0  0  0
    8.8960  -17.3427   25.8447 O   0  0  0  0  0  0  0  0  0  0  0  0
  2  1  1  0
  2  3  1  0
  3  4  1  1
  5  3  1  0
  5  6  2  0
  7  5  1  0
  8  7  1  0
  9 10  1  0
  8  9  1  6
 10 11  2  0
 12  8  1  0
 13 12  2  0
 14 10  1  0
 15 12  1  0
 16 15  1  0
 16 17  1  1
 18 17  1  0
 19 20  1  0
 19 18  1  0
 20 21  1  0
 22 16  1  0
 23 22  1  0
 24 22  2  0
M  END
$$$$
