SDK.pdb
     RDKit          3D

 24 23  0  0  1  0  0  0  0  0999 V2000
    8.7807  -19.8447   16.6554 O   0  0  0  0  0  0  0  0  0  0  0  0
    8.1482  -19.2025   17.7215 C   0  0  0  0  0  0  0  0  0  0  0  0
    9.2088  -18.4918   18.5360 C   0  0  2  0  0  0  0  0  0  0  0  0
    9.9926  -17.6752   17.6673 N   0  0  0  0  0  0  0  0  0  0  0  0
   10.0449  -19.4481   19.3279 C   0  0  0  0  0  0  0  0  0  0  0  0
    9.4914  -20.2400   20.0874 O   0  0  0  0  0  0  0  0  0  0  0  0
   11.4486  -19.4192   19.1836 N   0  0  0  0  0  0  0  0  0  0  0  0
   12.4441  -20.1784   19.8463 C   0  0  1  0  0  0  0  0  0  0  0  0
   13.7499  -20.3425   19.1191 C   0  0  0  0  0  0  0  0  0  0  0  0
   13.5166  -20.9832   17.8066 C   0  0  0  0  0  0  0  0  0  0  0  0
   13.8975  -20.4136   16.7635 O   0  0  0  0  0  0  0  0  0  0  0  0
   12.4989  -19.9048   21.2592 C   0  0  0  0  0  0  0  0  0  0  0  0
   12.7680  -18.7259   21.6402 O   0  0  0  0  0  0  0  0  0  0  0  0
   12.8744  -22.2206   17.6992 O   0  0  0  0  0  0  0  0  0  0  0  0
   12.2728  -20.8670   22.2405 N   0  0  0  0  0  0  0  0  0  0  0  0
   12.3835  -20.5283   23.7126 C   0  0  1  0  0  0  0  0  0  0  0  0
   11.5779  -21.5367   24.4219 C   0  0  0  0  0  0  0  0  0  0  0  0
   11.5120  -21.5806   25.8790 C   0  0  0  0  0  0  0  0  0  0  0  0
   10.8469  -22.7370   26.5234 C   0  0  0  0  0  0  0  0  0  0  0  0
   11.0569  -22.7920   28.0210 C   0  0  0  0  0  0  0  0  0  0  0  0
   10.4848  -24.0041   28.5577 N   0  0  0  0  0  0  0  0  0  0  0  0
   13.8225  -20.4941   23.9539 C   0  0  0  0  0  0  0  0  0  0  0  0
   14.6692  -21.3442   23.2151 O   0  0  0  0  0  0  0  0  0  0  0  0
   14.4068  -19.7700   24.7720 O   0  0  0  0  0  0  0  0  0  0  0  0
  2  1  1  0
  2  3  1  0
  3  4  1  6
  5  3  1  0
  5  6  2  0
  7  5  1  0
  8  7  1  0
  9 10  1  0
  8  9  1  6
 10 11  2  0
 12  8  1  0
 13 12  2  0
 14 10  1  0
 15 12  1  0
 16 15  1  0
 16 17  1  1
 18 17  1  0
 19 20  1  0
 19 18  1  0
 20 21  1  0
 22 16  1  0
 23 22  1  0
 24 22  2  0
M  END
$$$$
