SDK.pdb
     RDKit          3D

 24 23  0  0  1  0  0  0  0  0999 V2000
    8.7592  -19.8900   17.2554 O   0  0  0  0  0  0  0  0  0  0  0  0
    8.2470  -18.6472   17.6326 C   0  0  0  0  0  0  0  0  0  0  0  0
    9.3770  -17.6402   17.5827 C   0  0  2  0  0  0  0  0  0  0  0  0
    9.9321  -17.6290   16.2685 N   0  0  0  0  0  0  0  0  0  0  0  0
   10.4090  -17.8998   18.6354 C   0  0  0  0  0  0  0  0  0  0  0  0
   10.0449  -18.1335   19.7857 O   0  0  0  0  0  0  0  0  0  0  0  0
   11.7754  -17.8711   18.2831 N   0  0  0  0  0  0  0  0  0  0  0  0
   12.9194  -18.1701   19.0630 C   0  0  1  0  0  0  0  0  0  0  0  0
   14.1711  -18.5133   18.3039 C   0  0  0  0  0  0  0  0  0  0  0  0
   13.8705  -19.5315   17.2740 C   0  0  0  0  0  0  0  0  0  0  0  0
   14.1583  -19.3081   16.0804 O   0  0  0  0  0  0  0  0  0  0  0  0
   13.0507  -17.3042   20.2063 C   0  0  0  0  0  0  0  0  0  0  0  0
   13.4438  -16.1126   20.0246 O   0  0  0  0  0  0  0  0  0  0  0  0
   13.2661  -20.7490   17.6019 O   0  0  0  0  0  0  0  0  0  0  0  0
   12.7700  -17.7019   21.5113 N   0  0  0  0  0  0  0  0  0  0  0  0
   12.8587  -16.7257   22.6659 C   0  0  1  0  0  0  0  0  0  0  0  0
   11.8241  -17.1414   23.6282 C   0  0  0  0  0  0  0  0  0  0  0  0
   11.6980  -16.5131   24.9392 C   0  0  0  0  0  0  0  0  0  0  0  0
   10.6169  -16.9709   25.8428 C   0  0  0  0  0  0  0  0  0  0  0  0
   10.6601  -16.3197   27.2081 C   0  0  0  0  0  0  0  0  0  0  0  0
    9.7301  -16.9729   28.0986 N   0  0  0  0  0  0  0  0  0  0  0  0
   14.2575  -16.7986   23.0757 C   0  0  0  0  0  0  0  0  0  0  0  0
   14.8902  -15.6487   23.5883 O   0  0  0  0  0  0  0  0  0  0  0  0
   14.9815  -17.8026   23.0195 O   0  0  0  0  0  0  0  0  0  0  0  0
  2  1  1  0
  2  3  1  0
  3  4  1  6
  5  3  1  0
  5  6  2  0
  7  5  1  0
  8  7  1  0
  9 10  1  0
  8  9  1  6
 10 11  2  0
 12  8  1  0
 13 12  2  0
 14 10  1  0
 15 12  1  0
 16 15  1  0
 16 17  1  1
 18 17  1  0
 19 20  1  0
 19 18  1  0
 20 21  1  0
 22 16  1  0
 23 22  1  0
 24 22  2  0
M  END
$$$$
