STI.pdb
     RDKit          3D

 22 21  0  0  1  0  0  0  0  0999 V2000
   16.6961  -14.0488  -19.3612 O   0  0  0  0  0  0  0  0  0  0  0  0
   17.4023  -14.8218  -18.4399 C   0  0  0  0  0  0  0  0  0  0  0  0
   17.6606  -14.0748  -17.1647 C   0  0  2  0  0  0  0  0  0  0  0  0
   16.4015  -13.9369  -16.4639 N   0  0  0  0  0  0  0  0  0  0  0  0
   18.2971  -12.7640  -17.3716 C   0  0  0  0  0  0  0  0  0  0  0  0
   19.4143  -12.7165  -17.9605 O   0  0  0  0  0  0  0  0  0  0  0  0
   16.6754   -9.7385  -19.0233 C   0  0  0  0  0  0  0  0  0  0  0  0
   17.1690   -9.3538  -17.6750 C   0  0  1  0  0  0  0  0  0  0  0  0
   16.1990   -9.3794  -16.7025 O   0  0  0  0  0  0  0  0  0  0  0  0
   18.3344  -10.2376  -17.2068 C   0  0  2  0  0  0  0  0  0  0  0  0
   17.7478  -11.5420  -16.9574 N   0  0  0  0  0  0  0  0  0  0  0  0
   19.0400   -9.6904  -16.0640 C   0  0  0  0  0  0  0  0  0  0  0  0
   18.6304   -9.9111  -14.9032 O   0  0  0  0  0  0  0  0  0  0  0  0
   22.5341  -10.7217  -13.9741 C   0  0  0  0  0  0  0  0  0  0  0  0
   22.7720  -10.0548  -15.3101 C   0  0  0  0  0  0  0  0  0  0  0  0
   22.4099   -8.5924  -15.1899 C   0  0  2  0  0  0  0  0  0  0  0  0
   23.1113   -8.0167  -13.9700 C   0  0  0  0  0  0  0  0  0  0  0  0
   20.9249   -8.3799  -15.0654 C   0  0  2  0  0  0  0  0  0  0  0  0
   20.1982   -8.9005  -16.2079 N   0  0  0  0  0  0  0  0  0  0  0  0
   20.6629   -6.9389  -14.8572 C   0  0  0  0  0  0  0  0  0  0  0  0
   20.4062   -6.2255  -15.8533 O   0  0  0  0  0  0  0  0  0  0  0  0
   20.6866   -6.3367  -13.6155 O   0  0  0  0  0  0  0  0  0  0  0  0
  1  2  1  0
  2  3  1  0
  3  5  1  0
  3  4  1  6
  5  6  2  0
  8  7  1  6
  8 10  1  0
  9  8  1  0
 10 12  1  0
 10 11  1  1
 11  5  1  0
 12 19  1  0
 13 12  2  0
 15 14  1  0
 16 15  1  0
 16 17  1  1
 18 16  1  0
 18 19  1  6
 20 22  1  0
 20 18  1  0
 21 20  2  0
M  END
$$$$
