STI.pdb
     RDKit          3D

 22 21  0  0  1  0  0  0  0  0999 V2000
   18.0179  -11.4388  -19.8168 O   0  0  0  0  0  0  0  0  0  0  0  0
   17.1975  -11.6773  -18.7145 C   0  0  0  0  0  0  0  0  0  0  0  0
   17.0058  -10.4436  -17.8828 C   0  0  2  0  0  0  0  0  0  0  0  0
   16.1141   -9.5555  -18.5983 N   0  0  0  0  0  0  0  0  0  0  0  0
   18.2663   -9.7649  -17.5412 C   0  0  0  0  0  0  0  0  0  0  0  0
   19.1196  -10.3823  -16.8427 O   0  0  0  0  0  0  0  0  0  0  0  0
   19.8736   -6.9427  -20.0319 C   0  0  0  0  0  0  0  0  0  0  0  0
   19.8837   -6.5751  -18.5918 C   0  0  1  0  0  0  0  0  0  0  0  0
   18.8441   -5.7567  -18.2222 O   0  0  0  0  0  0  0  0  0  0  0  0
   19.8668   -7.8075  -17.6754 C   0  0  2  0  0  0  0  0  0  0  0  0
   18.5980   -8.4617  -17.9392 N   0  0  0  0  0  0  0  0  0  0  0  0
   20.0714   -7.4799  -16.2775 C   0  0  0  0  0  0  0  0  0  0  0  0
   19.1178   -7.0751  -15.5771 O   0  0  0  0  0  0  0  0  0  0  0  0
   21.8734   -9.6413  -11.3444 C   0  0  0  0  0  0  0  0  0  0  0  0
   22.3069   -8.3894  -12.0730 C   0  0  0  0  0  0  0  0  0  0  0  0
   22.1104   -8.6026  -13.5562 C   0  0  2  0  0  0  0  0  0  0  0  0
   23.4575   -8.9236  -14.1838 C   0  0  0  0  0  0  0  0  0  0  0  0
   21.5131   -7.3977  -14.2324 C   0  0  2  0  0  0  0  0  0  0  0  0
   21.3308   -7.6018  -15.6571 N   0  0  0  0  0  0  0  0  0  0  0  0
   22.3620   -6.2195  -13.9499 C   0  0  0  0  0  0  0  0  0  0  0  0
   22.3664   -5.7469  -12.7908 O   0  0  0  0  0  0  0  0  0  0  0  0
   23.1536   -5.6109  -14.9027 O   0  0  0  0  0  0  0  0  0  0  0  0
  1  2  1  0
  2  3  1  0
  3  5  1  0
  3  4  1  6
  5  6  2  0
  8  7  1  6
  8 10  1  0
  9  8  1  0
 10 12  1  0
 10 11  1  1
 11  5  1  0
 12 19  1  0
 13 12  2  0
 15 14  1  0
 16 15  1  0
 16 17  1  6
 18 16  1  0
 18 19  1  6
 20 22  1  0
 20 18  1  0
 21 20  2  0
M  END
$$$$
