STI.pdb
     RDKit          3D

 22 21  0  0  1  0  0  0  0  0999 V2000
   30.4384  -18.5677  -17.9077 O   0  0  0  0  0  0  0  0  0  0  0  0
   29.5047  -18.1120  -16.9774 C   0  0  0  0  0  0  0  0  0  0  0  0
   28.1586  -18.7421  -17.1815 C   0  0  2  0  0  0  0  0  0  0  0  0
   27.5663  -18.1588  -18.3666 N   0  0  0  0  0  0  0  0  0  0  0  0
   27.2644  -18.6040  -16.0206 C   0  0  0  0  0  0  0  0  0  0  0  0
   26.9975  -17.4451  -15.5930 O   0  0  0  0  0  0  0  0  0  0  0  0
   23.8975  -19.0711  -15.8905 C   0  0  0  0  0  0  0  0  0  0  0  0
   24.3785  -19.9940  -14.8292 C   0  0  1  0  0  0  0  0  0  0  0  0
   24.4952  -21.2991  -15.2420 O   0  0  0  0  0  0  0  0  0  0  0  0
   25.7305  -19.5577  -14.2460 C   0  0  2  0  0  0  0  0  0  0  0  0
   26.6758  -19.6803  -15.3410 N   0  0  0  0  0  0  0  0  0  0  0  0
   26.1098  -20.3089  -13.0649 C   0  0  0  0  0  0  0  0  0  0  0  0
   26.8874  -21.2838  -13.1585 O   0  0  0  0  0  0  0  0  0  0  0  0
   27.9583  -20.0672   -7.4635 C   0  0  0  0  0  0  0  0  0  0  0  0
   27.0622  -20.8689   -8.3803 C   0  0  0  0  0  0  0  0  0  0  0  0
   26.7396  -20.0286   -9.5944 C   0  0  2  0  0  0  0  0  0  0  0  0
   25.9698  -18.7977   -9.1429 C   0  0  0  0  0  0  0  0  0  0  0  0
   25.9298  -20.7845  -10.6136 C   0  0  2  0  0  0  0  0  0  0  0  0
   25.6285  -19.9793  -11.7821 N   0  0  0  0  0  0  0  0  0  0  0  0
   24.7016  -21.2956   -9.9665 C   0  0  0  0  0  0  0  0  0  0  0  0
   23.6006  -20.7943  -10.2881 O   0  0  0  0  0  0  0  0  0  0  0  0
   24.7062  -22.3018   -9.0217 O   0  0  0  0  0  0  0  0  0  0  0  0
  1  2  1  0
  2  3  1  0
  3  5  1  0
  3  4  1  6
  5  6  2  0
  8  7  1  6
  8 10  1  0
  9  8  1  0
 10 12  1  0
 10 11  1  6
 11  5  1  0
 12 19  1  0
 13 12  2  0
 15 14  1  0
 16 15  1  0
 16 17  1  1
 18 16  1  0
 18 19  1  6
 20 22  1  0
 20 18  1  0
 21 20  2  0
M  END
$$$$
