STI.pdb
     RDKit          3D

 22 21  0  0  1  0  0  0  0  0999 V2000
   27.9917  -25.3322  -16.2888 O   0  0  0  0  0  0  0  0  0  0  0  0
   27.7099  -24.7819  -17.5389 C   0  0  0  0  0  0  0  0  0  0  0  0
   28.4079  -23.4697  -17.7425 C   0  0  2  0  0  0  0  0  0  0  0  0
   29.8286  -23.7291  -17.8424 N   0  0  0  0  0  0  0  0  0  0  0  0
   28.1231  -22.4840  -16.6872 C   0  0  0  0  0  0  0  0  0  0  0  0
   29.0603  -22.1298  -15.9169 O   0  0  0  0  0  0  0  0  0  0  0  0
   26.7147  -19.1148  -17.2926 C   0  0  0  0  0  0  0  0  0  0  0  0
   25.8522  -19.7610  -16.2688 C   0  0  1  0  0  0  0  0  0  0  0  0
   24.6997  -20.3062  -16.7804 O   0  0  0  0  0  0  0  0  0  0  0  0
   26.5928  -20.8592  -15.4916 C   0  0  2  0  0  0  0  0  0  0  0  0
   26.8681  -21.8979  -16.4678 N   0  0  0  0  0  0  0  0  0  0  0  0
   25.8581  -21.3309  -14.3337 C   0  0  0  0  0  0  0  0  0  0  0  0
   25.4028  -22.4953  -14.3053 O   0  0  0  0  0  0  0  0  0  0  0  0
   25.5162  -20.4729   -8.3019 C   0  0  0  0  0  0  0  0  0  0  0  0
   24.8306  -21.0236   -9.5318 C   0  0  0  0  0  0  0  0  0  0  0  0
   25.5710  -20.5352  -10.7555 C   0  0  2  0  0  0  0  0  0  0  0  0
   25.6148  -19.0158  -10.7228 C   0  0  0  0  0  0  0  0  0  0  0  0
   24.9247  -20.9939  -12.0352 C   0  0  2  0  0  0  0  0  0  0  0  0
   25.6292  -20.5134  -13.2089 N   0  0  0  0  0  0  0  0  0  0  0  0
   23.5068  -20.5723  -12.0341 C   0  0  0  0  0  0  0  0  0  0  0  0
   22.7251  -21.0971  -11.2091 O   0  0  0  0  0  0  0  0  0  0  0  0
   22.9978  -19.6253  -12.8996 O   0  0  0  0  0  0  0  0  0  0  0  0
  1  2  1  0
  2  3  1  0
  3  5  1  0
  3  4  1  1
  5  6  2  0
  8  7  1  6
  8 10  1  0
  9  8  1  0
 10 12  1  0
 10 11  1  6
 11  5  1  0
 12 19  1  0
 13 12  2  0
 15 14  1  0
 16 15  1  0
 16 17  1  6
 18 16  1  0
 18 19  1  6
 20 22  1  0
 20 18  1  0
 21 20  2  0
M  END
$$$$
