STI.pdb
     RDKit          3D

 22 21  0  0  1  0  0  0  0  0999 V2000
   13.3343  -12.3268  -15.6028 O   0  0  0  0  0  0  0  0  0  0  0  0
   14.0478  -11.8913  -14.4864 C   0  0  0  0  0  0  0  0  0  0  0  0
   15.4964  -11.6633  -14.8026 C   0  0  2  0  0  0  0  0  0  0  0  0
   16.0939  -12.9447  -15.1131 N   0  0  0  0  0  0  0  0  0  0  0  0
   16.2322  -10.9842  -13.7238 C   0  0  0  0  0  0  0  0  0  0  0  0
   16.5575  -11.6474  -12.6984 O   0  0  0  0  0  0  0  0  0  0  0  0
   19.4870   -9.1783  -13.6618 C   0  0  0  0  0  0  0  0  0  0  0  0
   18.4397   -8.2140  -13.2346 C   0  0  1  0  0  0  0  0  0  0  0  0
   18.0099   -7.3823  -14.2400 O   0  0  0  0  0  0  0  0  0  0  0  0
   17.2095   -8.9151  -12.6398 C   0  0  2  0  0  0  0  0  0  0  0  0
   16.6063   -9.6328  -13.7482 N   0  0  0  0  0  0  0  0  0  0  0  0
   16.2996   -8.0016  -11.9759 C   0  0  0  0  0  0  0  0  0  0  0  0
   15.3107   -7.5396  -12.5862 O   0  0  0  0  0  0  0  0  0  0  0  0
   12.4007   -7.0392   -7.9798 C   0  0  0  0  0  0  0  0  0  0  0  0
   13.5993   -6.3055   -8.5376 C   0  0  0  0  0  0  0  0  0  0  0  0
   14.4965   -7.3050   -9.2304 C   0  0  2  0  0  0  0  0  0  0  0  0
   15.0795   -8.2417   -8.1844 C   0  0  0  0  0  0  0  0  0  0  0  0
   15.6128   -6.6400   -9.9904 C   0  0  2  0  0  0  0  0  0  0  0  0
   16.4853   -7.6015  -10.6374 N   0  0  0  0  0  0  0  0  0  0  0  0
   16.3580   -5.7538   -9.0697 C   0  0  0  0  0  0  0  0  0  0  0  0
   15.7981   -4.7152   -8.6517 O   0  0  0  0  0  0  0  0  0  0  0  0
   17.6454   -6.0136   -8.6452 O   0  0  0  0  0  0  0  0  0  0  0  0
  1  2  1  0
  2  3  1  0
  3  5  1  0
  3  4  1  1
  5  6  2  0
  8  7  1  6
  8 10  1  0
  9  8  1  0
 10 12  1  0
 10 11  1  6
 11  5  1  0
 12 19  1  0
 13 12  2  0
 15 14  1  0
 16 15  1  0
 16 17  1  1
 18 16  1  0
 18 19  1  1
 20 22  1  0
 20 18  1  0
 21 20  2  0
M  END
$$$$
