STI.pdb
     RDKit          3D

 22 21  0  0  1  0  0  0  0  0999 V2000
   13.8582  -12.4802  -14.0411 O   0  0  0  0  0  0  0  0  0  0  0  0
   14.2027  -11.2551  -14.6114 C   0  0  0  0  0  0  0  0  0  0  0  0
   14.5548  -11.3933  -16.0631 C   0  0  2  0  0  0  0  0  0  0  0  0
   14.3091  -12.7651  -16.4547 N   0  0  0  0  0  0  0  0  0  0  0  0
   15.9378  -10.9949  -16.3716 C   0  0  0  0  0  0  0  0  0  0  0  0
   16.7986  -11.8966  -16.5790 O   0  0  0  0  0  0  0  0  0  0  0  0
   16.9621   -8.8820  -19.1961 C   0  0  0  0  0  0  0  0  0  0  0  0
   17.5269   -8.2493  -17.9755 C   0  0  1  0  0  0  0  0  0  0  0  0
   16.7763   -7.2031  -17.4966 O   0  0  0  0  0  0  0  0  0  0  0  0
   17.7205   -9.2570  -16.8328 C   0  0  2  0  0  0  0  0  0  0  0  0
   16.3802   -9.6667  -16.4542 N   0  0  0  0  0  0  0  0  0  0  0  0
   18.4979   -8.7247  -15.7303 C   0  0  0  0  0  0  0  0  0  0  0  0
   17.9259   -8.2486  -14.7254 O   0  0  0  0  0  0  0  0  0  0  0  0
   23.5376  -10.8037  -14.6343 C   0  0  0  0  0  0  0  0  0  0  0  0
   22.6074   -9.7590  -15.2084 C   0  0  0  0  0  0  0  0  0  0  0  0
   21.6541   -9.3142  -14.1233 C   0  0  2  0  0  0  0  0  0  0  0  0
   20.8842  -10.5270  -13.6255 C   0  0  0  0  0  0  0  0  0  0  0  0
   20.6875   -8.2662  -14.6064 C   0  0  2  0  0  0  0  0  0  0  0  0
   19.9071   -8.7209  -15.7416 N   0  0  0  0  0  0  0  0  0  0  0  0
   21.4370   -7.0286  -14.9147 C   0  0  0  0  0  0  0  0  0  0  0  0
   21.9874   -6.4106  -13.9756 O   0  0  0  0  0  0  0  0  0  0  0  0
   21.5617   -6.5170  -16.1905 O   0  0  0  0  0  0  0  0  0  0  0  0
  1  2  1  0
  2  3  1  0
  3  5  1  0
  3  4  1  1
  5  6  2  0
  8  7  1  6
  8 10  1  0
  9  8  1  0
 10 12  1  0
 10 11  1  1
 11  5  1  0
 12 19  1  0
 13 12  2  0
 15 14  1  0
 16 15  1  0
 16 17  1  6
 18 16  1  0
 18 19  1  6
 20 22  1  0
 20 18  1  0
 21 20  2  0
M  END
$$$$
