STI.pdb
     RDKit          3D

 22 21  0  0  1  0  0  0  0  0999 V2000
   18.7694  -15.4450  -19.1095 O   0  0  0  0  0  0  0  0  0  0  0  0
   19.0134  -14.0856  -18.9156 C   0  0  0  0  0  0  0  0  0  0  0  0
   19.9174  -13.5233  -19.9725 C   0  0  2  0  0  0  0  0  0  0  0  0
   20.7772  -14.5901  -20.4399 N   0  0  0  0  0  0  0  0  0  0  0  0
   20.7078  -12.3691  -19.5148 C   0  0  0  0  0  0  0  0  0  0  0  0
   21.9502  -12.5154  -19.3356 O   0  0  0  0  0  0  0  0  0  0  0  0
   21.0719   -9.2694  -21.3332 C   0  0  0  0  0  0  0  0  0  0  0  0
   20.6047   -8.8751  -19.9783 C   0  0  1  0  0  0  0  0  0  0  0  0
   19.2540   -8.6346  -19.9070 O   0  0  0  0  0  0  0  0  0  0  0  0
   20.9576   -9.9226  -18.9122 C   0  0  2  0  0  0  0  0  0  0  0  0
   20.1770  -11.0968  -19.2579 N   0  0  0  0  0  0  0  0  0  0  0  0
   20.7329   -9.4543  -17.5581 C   0  0  0  0  0  0  0  0  0  0  0  0
   19.6624   -9.7175  -16.9677 O   0  0  0  0  0  0  0  0  0  0  0  0
   21.8275  -10.8862  -13.9028 C   0  0  0  0  0  0  0  0  0  0  0  0
   22.9163  -10.1557  -14.6559 C   0  0  0  0  0  0  0  0  0  0  0  0
   22.6339   -8.6724  -14.5927 C   0  0  2  0  0  0  0  0  0  0  0  0
   22.3099   -8.3001  -13.1547 C   0  0  0  0  0  0  0  0  0  0  0  0
   21.4926   -8.2695  -15.4877 C   0  0  2  0  0  0  0  0  0  0  0  0
   21.6938   -8.6962  -16.8595 N   0  0  0  0  0  0  0  0  0  0  0  0
   21.3004   -6.8059  -15.3897 C   0  0  0  0  0  0  0  0  0  0  0  0
   21.9703   -6.0610  -16.1401 O   0  0  0  0  0  0  0  0  0  0  0  0
   20.4162   -6.2157  -14.5095 O   0  0  0  0  0  0  0  0  0  0  0  0
  1  2  1  0
  2  3  1  0
  3  5  1  0
  3  4  1  1
  5  6  2  0
  8  7  1  6
  8 10  1  0
  9  8  1  0
 10 12  1  0
 10 11  1  6
 11  5  1  0
 12 19  1  0
 13 12  2  0
 15 14  1  0
 16 15  1  0
 16 17  1  1
 18 16  1  0
 18 19  1  6
 20 22  1  0
 20 18  1  0
 21 20  2  0
M  END
$$$$
