STI.pdb
     RDKit          3D

 22 21  0  0  1  0  0  0  0  0999 V2000
   17.4730  -20.4718  -16.2964 O   0  0  0  0  0  0  0  0  0  0  0  0
   18.5859  -19.9030  -15.6776 C   0  0  0  0  0  0  0  0  0  0  0  0
   19.7409  -20.8585  -15.6160 C   0  0  2  0  0  0  0  0  0  0  0  0
   19.4738  -21.8163  -14.5638 N   0  0  0  0  0  0  0  0  0  0  0  0
   21.0394  -20.1965  -15.4115 C   0  0  0  0  0  0  0  0  0  0  0  0
   21.4579  -20.0298  -14.2308 O   0  0  0  0  0  0  0  0  0  0  0  0
   24.3432  -21.3322  -16.3703 C   0  0  0  0  0  0  0  0  0  0  0  0
   24.1448  -20.0165  -17.0327 C   0  0  1  0  0  0  0  0  0  0  0  0
   23.7034  -20.1111  -18.3302 O   0  0  0  0  0  0  0  0  0  0  0  0
   23.1662  -19.1177  -16.2625 C   0  0  2  0  0  0  0  0  0  0  0  0
   21.8620  -19.7283  -16.4463 N   0  0  0  0  0  0  0  0  0  0  0  0
   23.2210  -17.7295  -16.6783 C   0  0  0  0  0  0  0  0  0  0  0  0
   22.3582  -17.2683  -17.4571 O   0  0  0  0  0  0  0  0  0  0  0  0
   24.0071  -12.1686  -14.7874 C   0  0  0  0  0  0  0  0  0  0  0  0
   24.3085  -13.0668  -15.9657 C   0  0  0  0  0  0  0  0  0  0  0  0
   24.1835  -14.5053  -15.5193 C   0  0  2  0  0  0  0  0  0  0  0  0
   25.2698  -14.7926  -14.4951 C   0  0  0  0  0  0  0  0  0  0  0  0
   24.3035  -15.4721  -16.6669 C   0  0  2  0  0  0  0  0  0  0  0  0
   24.2303  -16.8537  -16.2306 N   0  0  0  0  0  0  0  0  0  0  0  0
   25.5578  -15.1926  -17.3998 C   0  0  0  0  0  0  0  0  0  0  0  0
   26.5688  -15.8852  -17.1450 O   0  0  0  0  0  0  0  0  0  0  0  0
   25.6720  -14.2028  -18.3549 O   0  0  0  0  0  0  0  0  0  0  0  0
  1  2  1  0
  2  3  1  0
  3  5  1  0
  3  4  1  1
  5  6  2  0
  8  7  1  1
  8 10  1  0
  9  8  1  0
 10 12  1  0
 10 11  1  6
 11  5  1  0
 12 19  1  0
 13 12  2  0
 15 14  1  0
 16 15  1  0
 16 17  1  1
 18 16  1  0
 18 19  1  1
 20 22  1  0
 20 18  1  0
 21 20  2  0
M  END
$$$$
