IAH.pdb
     RDKit          3D

 24 24  0  0  1  0  0  0  0  0999 V2000
   27.3692  -14.8228  -16.2242 C   0  0  0  0  0  0  0  0  0  0  0  0
   26.1617  -15.4872  -15.6283 C   0  0  0  0  0  0  0  0  0  0  0  0
   25.9986  -16.9334  -16.0295 C   0  0  2  0  0  0  0  0  0  0  0  0
   26.1254  -17.1426  -17.5208 C   0  0  0  0  0  0  0  0  0  0  0  0
   24.7474  -17.5594  -15.4882 C   0  0  2  0  0  0  0  0  0  0  0  0
   24.5333  -17.3039  -14.0938 N   0  0  0  0  0  0  0  0  0  0  0  0
   24.7564  -19.0143  -15.7334 C   0  0  0  0  0  0  0  0  0  0  0  0
   24.9332  -19.4420  -16.8914 O   0  0  0  0  0  0  0  0  0  0  0  0
   26.4902  -21.2624  -15.3624 C   0  0  0  0  0  0  0  0  0  0  0  0
   25.2914  -21.1241  -14.4727 C   0  0  2  0  0  0  0  0  0  0  0  0
   24.5648  -19.9100  -14.6547 N   0  0  0  0  0  0  0  0  0  0  0  0
   25.7128  -21.2282  -13.0506 C   0  0  0  0  0  0  0  0  0  0  0  0
   26.3318  -22.2543  -12.6776 O   0  0  0  0  0  0  0  0  0  0  0  0
   25.4437  -20.2147  -12.0974 N   0  0  0  0  0  0  0  0  0  0  0  0
   25.7687  -20.4668  -10.6974 C   0  0  1  0  0  0  0  0  0  0  0  0
   26.4685  -19.2955  -10.0851 C   0  0  0  0  0  0  0  0  0  0  0  0
   26.7425  -19.5439   -8.6678 C   0  0  0  0  0  0  0  0  0  0  0  0
   26.7203  -20.7540   -8.0182 C   0  0  0  0  0  0  0  0  0  0  0  0
   27.0043  -20.5251   -6.6987 N   0  0  0  0  0  0  0  0  0  0  0  0
   27.1966  -19.2114   -6.5372 C   0  0  0  0  0  0  0  0  0  0  0  0
   27.0373  -18.6235   -7.7295 N   0  0  0  0  0  0  0  0  0  0  0  0
   24.5576  -20.8516   -9.9695 C   0  0  0  0  0  0  0  0  0  0  0  0
   23.4221  -20.5194  -10.4108 O   0  0  0  0  0  0  0  0  0  0  0  0
   24.5913  -21.5733   -8.8076 O   0  0  0  0  0  0  0  0  0  0  0  0
  1  2  1  0
  2  3  1  0
  3  5  1  0
  3  4  1  6
  5  7  1  0
  5  6  1  1
  7  8  2  0
  7 11  1  0
 10  9  1  6
 11 10  1  0
 12 14  1  0
 12 10  1  0
 13 12  2  0
 15 14  1  0
 15 22  1  0
 15 16  1  1
 16 17  1  0
 17 18  2  0
 18 19  1  0
 20 19  1  0
 21 17  1  0
 21 20  2  0
 22 24  1  0
 23 22  2  0
M  END
$$$$
