IAH.pdb
     RDKit          3D

 24 24  0  0  1  0  0  0  0  0999 V2000
   26.9423  -14.3280  -14.8014 C   0  0  0  0  0  0  0  0  0  0  0  0
   27.3221  -13.4266  -15.9406 C   0  0  0  0  0  0  0  0  0  0  0  0
   26.4438  -12.2061  -16.0742 C   0  0  2  0  0  0  0  0  0  0  0  0
   24.9775  -12.5529  -16.1910 C   0  0  0  0  0  0  0  0  0  0  0  0
   26.8815  -11.2800  -17.1702 C   0  0  2  0  0  0  0  0  0  0  0  0
   28.2802  -10.9672  -17.1345 N   0  0  0  0  0  0  0  0  0  0  0  0
   26.0904  -10.0352  -17.1339 C   0  0  0  0  0  0  0  0  0  0  0  0
   26.2918   -9.2044  -16.2259 O   0  0  0  0  0  0  0  0  0  0  0  0
   23.7339   -8.3497  -19.5592 C   0  0  0  0  0  0  0  0  0  0  0  0
   24.3024   -8.6226  -18.1991 C   0  0  2  0  0  0  0  0  0  0  0  0
   25.1121   -9.7949  -18.1279 N   0  0  0  0  0  0  0  0  0  0  0  0
   23.1967   -8.7366  -17.2115 C   0  0  0  0  0  0  0  0  0  0  0  0
   22.6753   -9.8612  -17.0156 O   0  0  0  0  0  0  0  0  0  0  0  0
   22.7065   -7.6254  -16.4812 N   0  0  0  0  0  0  0  0  0  0  0  0
   21.6051   -7.8331  -15.5468 C   0  0  1  0  0  0  0  0  0  0  0  0
   22.0050   -8.7488  -14.4342 C   0  0  0  0  0  0  0  0  0  0  0  0
   21.5199  -10.1076  -14.6874 C   0  0  0  0  0  0  0  0  0  0  0  0
   20.7732  -10.5358  -15.7578 C   0  0  0  0  0  0  0  0  0  0  0  0
   20.5144  -11.8684  -15.5802 N   0  0  0  0  0  0  0  0  0  0  0  0
   21.0847  -12.2528  -14.4331 C   0  0  0  0  0  0  0  0  0  0  0  0
   21.6906  -11.1856  -13.8979 N   0  0  0  0  0  0  0  0  0  0  0  0
   21.1095   -6.5400  -15.0706 C   0  0  0  0  0  0  0  0  0  0  0  0
   21.7550   -5.4840  -15.3210 O   0  0  0  0  0  0  0  0  0  0  0  0
   19.9522   -6.4109  -14.3521 O   0  0  0  0  0  0  0  0  0  0  0  0
  1  2  1  0
  2  3  1  0
  3  5  1  0
  3  4  1  6
  5  7  1  0
  5  6  1  1
  7  8  2  0
  7 11  1  0
 10  9  1  6
 11 10  1  0
 12 14  1  0
 12 10  1  0
 13 12  2  0
 15 14  1  0
 15 22  1  0
 15 16  1  1
 16 17  1  0
 17 18  2  0
 18 19  1  0
 20 19  1  0
 21 17  1  0
 21 20  2  0
 22 24  1  0
 23 22  2  0
M  END
$$$$
