IAH.pdb
     RDKit          3D

 24 24  0  0  1  0  0  0  0  0999 V2000
   42.8667  -15.1207   -7.5308 C   0  0  0  0  0  0  0  0  0  0  0  0
   42.9531  -14.5986   -8.9360 C   0  0  0  0  0  0  0  0  0  0  0  0
   43.0421  -13.0943   -9.0253 C   0  0  2  0  0  0  0  0  0  0  0  0
   41.8812  -12.4004   -8.3512 C   0  0  0  0  0  0  0  0  0  0  0  0
   43.2456  -12.5964  -10.4258 C   0  0  2  0  0  0  0  0  0  0  0  0
   44.2951  -13.2732  -11.1300 N   0  0  0  0  0  0  0  0  0  0  0  0
   43.5047  -11.1439  -10.4193 C   0  0  0  0  0  0  0  0  0  0  0  0
   44.5471  -10.7072   -9.8924 O   0  0  0  0  0  0  0  0  0  0  0  0
   41.8693   -8.1793  -12.1117 C   0  0  0  0  0  0  0  0  0  0  0  0
   42.7258   -8.8443  -11.0764 C   0  0  2  0  0  0  0  0  0  0  0  0
   42.5700  -10.2607  -11.0101 N   0  0  0  0  0  0  0  0  0  0  0  0
   42.4336   -8.2615   -9.7401 C   0  0  0  0  0  0  0  0  0  0  0  0
   41.3926   -8.6215   -9.1386 O   0  0  0  0  0  0  0  0  0  0  0  0
   43.2838   -7.3144   -9.1166 N   0  0  0  0  0  0  0  0  0  0  0  0
   42.9298   -6.8238   -7.7888 C   0  0  1  0  0  0  0  0  0  0  0  0
   43.9871   -7.1632   -6.7871 C   0  0  0  0  0  0  0  0  0  0  0  0
   43.7566   -8.4976   -6.2287 C   0  0  0  0  0  0  0  0  0  0  0  0
   42.6949   -9.3312   -6.4828 C   0  0  0  0  0  0  0  0  0  0  0  0
   42.8619  -10.4621   -5.7295 N   0  0  0  0  0  0  0  0  0  0  0  0
   43.9942  -10.3313   -5.0297 C   0  0  0  0  0  0  0  0  0  0  0  0
   44.5306   -9.1431   -5.3349 N   0  0  0  0  0  0  0  0  0  0  0  0
   42.6433   -5.3890   -7.8514 C   0  0  0  0  0  0  0  0  0  0  0  0
   42.2701   -4.7728   -6.8143 O   0  0  0  0  0  0  0  0  0  0  0  0
   42.7641   -4.6605   -9.0033 O   0  0  0  0  0  0  0  0  0  0  0  0
  1  2  1  0
  2  3  1  0
  3  5  1  0
  3  4  1  6
  5  7  1  0
  5  6  1  1
  7  8  2  0
  7 11  1  0
 10  9  1  6
 11 10  1  0
 12 14  1  0
 12 10  1  0
 13 12  2  0
 15 14  1  0
 15 22  1  0
 15 16  1  1
 16 17  1  0
 17 18  2  0
 18 19  1  0
 20 19  1  0
 21 17  1  0
 21 20  2  0
 22 24  1  0
 23 22  2  0
M  END
$$$$
