IAH.pdb
     RDKit          3D

 24 24  0  0  1  0  0  0  0  0999 V2000
   18.1915  -14.4754  -18.6902 C   0  0  0  0  0  0  0  0  0  0  0  0
   19.5442  -14.1207  -18.1434 C   0  0  0  0  0  0  0  0  0  0  0  0
   19.5576  -12.8587  -17.3151 C   0  0  2  0  0  0  0  0  0  0  0  0
   19.0269  -11.6610  -18.0686 C   0  0  0  0  0  0  0  0  0  0  0  0
   20.8931  -12.5734  -16.6943 C   0  0  2  0  0  0  0  0  0  0  0  0
   21.4514  -13.6915  -15.9915 N   0  0  0  0  0  0  0  0  0  0  0  0
   20.7986  -11.4119  -15.7894 C   0  0  0  0  0  0  0  0  0  0  0  0
   19.9616  -11.4185  -14.8650 O   0  0  0  0  0  0  0  0  0  0  0  0
   22.8501   -8.2899  -15.2280 C   0  0  0  0  0  0  0  0  0  0  0  0
   21.5792   -9.0852  -15.2382 C   0  0  2  0  0  0  0  0  0  0  0  0
   21.6568  -10.3025  -15.9779 N   0  0  0  0  0  0  0  0  0  0  0  0
   20.4764   -8.2532  -15.7883 C   0  0  0  0  0  0  0  0  0  0  0  0
   20.2581   -8.2800  -17.0239 O   0  0  0  0  0  0  0  0  0  0  0  0
   19.6604   -7.4298  -14.9732 N   0  0  0  0  0  0  0  0  0  0  0  0
   18.6363   -6.6091  -15.6111 C   0  0  1  0  0  0  0  0  0  0  0  0
   17.3814   -6.5815  -14.7982 C   0  0  0  0  0  0  0  0  0  0  0  0
   16.6445   -7.8385  -14.9477 C   0  0  0  0  0  0  0  0  0  0  0  0
   16.9836   -8.9101  -15.7372 C   0  0  0  0  0  0  0  0  0  0  0  0
   16.0035   -9.8563  -15.6009 N   0  0  0  0  0  0  0  0  0  0  0  0
   15.0849   -9.3831  -14.7517 C   0  0  0  0  0  0  0  0  0  0  0  0
   15.4768   -8.1642  -14.3602 N   0  0  0  0  0  0  0  0  0  0  0  0
   19.1703   -5.2724  -15.8810 C   0  0  0  0  0  0  0  0  0  0  0  0
   20.3370   -4.9696  -15.5048 O   0  0  0  0  0  0  0  0  0  0  0  0
   18.4546   -4.3094  -16.5387 O   0  0  0  0  0  0  0  0  0  0  0  0
  1  2  1  0
  2  3  1  0
  3  5  1  0
  3  4  1  6
  5  7  1  0
  5  6  1  1
  7  8  2  0
  7 11  1  0
 10  9  1  6
 11 10  1  0
 12 14  1  0
 12 10  1  0
 13 12  2  0
 15 14  1  0
 15 22  1  0
 15 16  1  1
 16 17  1  0
 17 18  2  0
 18 19  1  0
 20 19  1  0
 21 17  1  0
 21 20  2  0
 22 24  1  0
 23 22  2  0
M  END
$$$$
