IAH.pdb
     RDKit          3D

 24 24  0  0  1  0  0  0  0  0999 V2000
   22.9261   -9.0849  -20.2517 C   0  0  0  0  0  0  0  0  0  0  0  0
   22.2688   -7.8375  -19.7354 C   0  0  0  0  0  0  0  0  0  0  0  0
   22.5119   -7.5802  -18.2679 C   0  0  2  0  0  0  0  0  0  0  0  0
   22.1583   -8.7668  -17.4015 C   0  0  0  0  0  0  0  0  0  0  0  0
   21.8627   -6.3217  -17.7730 C   0  0  2  0  0  0  0  0  0  0  0  0
   22.2383   -5.1518  -18.5118 N   0  0  0  0  0  0  0  0  0  0  0  0
   22.1572   -6.1236  -16.3409 C   0  0  0  0  0  0  0  0  0  0  0  0
   23.2406   -5.6079  -16.0011 O   0  0  0  0  0  0  0  0  0  0  0  0
   21.2589   -4.7462  -13.6673 C   0  0  0  0  0  0  0  0  0  0  0  0
   21.3019   -6.2124  -13.9771 C   0  0  2  0  0  0  0  0  0  0  0  0
   21.2097   -6.5196  -15.3672 N   0  0  0  0  0  0  0  0  0  0  0  0
   20.2035   -6.9060  -13.2537 C   0  0  0  0  0  0  0  0  0  0  0  0
   20.1827   -6.8598  -11.9996 O   0  0  0  0  0  0  0  0  0  0  0  0
   19.1775   -7.6184  -13.9231 N   0  0  0  0  0  0  0  0  0  0  0  0
   17.7891   -7.3451  -13.5672 C   0  0  1  0  0  0  0  0  0  0  0  0
   17.7018   -6.3489  -12.4553 C   0  0  0  0  0  0  0  0  0  0  0  0
   17.0898   -6.9539  -11.2700 C   0  0  0  0  0  0  0  0  0  0  0  0
   16.7752   -8.2778  -11.0830 C   0  0  0  0  0  0  0  0  0  0  0  0
   16.1934   -8.3989   -9.8497 N   0  0  0  0  0  0  0  0  0  0  0  0
   16.1494   -7.1847   -9.2904 C   0  0  0  0  0  0  0  0  0  0  0  0
   16.6920   -6.3157  -10.1524 N   0  0  0  0  0  0  0  0  0  0  0  0
   17.0438   -6.9356  -14.7595 C   0  0  0  0  0  0  0  0  0  0  0  0
   17.4922   -6.0173  -15.5012 O   0  0  0  0  0  0  0  0  0  0  0  0
   15.8576   -7.5120  -15.1240 O   0  0  0  0  0  0  0  0  0  0  0  0
  1  2  1  0
  2  3  1  0
  3  5  1  0
  3  4  1  1
  5  7  1  0
  5  6  1  6
  7  8  2  0
  7 11  1  0
 10  9  1  6
 11 10  1  0
 12 14  1  0
 12 10  1  0
 13 12  2  0
 15 14  1  0
 15 22  1  0
 15 16  1  1
 16 17  1  0
 17 18  2  0
 18 19  1  0
 20 19  1  0
 21 17  1  0
 21 20  2  0
 22 24  1  0
 23 22  2  0
M  END
$$$$
