IAH.pdb
     RDKit          3D

 24 24  0  0  1  0  0  0  0  0999 V2000
   28.6995  -18.7319  -14.8571 C   0  0  0  0  0  0  0  0  0  0  0  0
   28.2812  -19.3202  -13.5404 C   0  0  0  0  0  0  0  0  0  0  0  0
   26.8252  -19.7146  -13.4814 C   0  0  2  0  0  0  0  0  0  0  0  0
   25.8973  -18.5720  -13.8236 C   0  0  0  0  0  0  0  0  0  0  0  0
   26.4421  -20.3688  -12.1870 C   0  0  2  0  0  0  0  0  0  0  0  0
   27.3246  -21.4285  -11.7947 N   0  0  0  0  0  0  0  0  0  0  0  0
   25.0575  -20.8733  -12.2593 C   0  0  0  0  0  0  0  0  0  0  0  0
   24.7837  -21.8099  -13.0358 O   0  0  0  0  0  0  0  0  0  0  0  0
   21.8797  -20.1757  -10.3104 C   0  0  0  0  0  0  0  0  0  0  0  0
   22.6726  -20.6439  -11.4935 C   0  0  2  0  0  0  0  0  0  0  0  0
   24.0542  -20.2914  -11.4485 N   0  0  0  0  0  0  0  0  0  0  0  0
   22.0738  -20.0989  -12.7406 C   0  0  0  0  0  0  0  0  0  0  0  0
   22.7731  -20.0662  -13.7823 O   0  0  0  0  0  0  0  0  0  0  0  0
   20.7436  -19.6140  -12.8014 N   0  0  0  0  0  0  0  0  0  0  0  0
   20.1439  -19.3783  -14.1106 C   0  0  1  0  0  0  0  0  0  0  0  0
   20.8527  -20.1506  -15.1772 C   0  0  0  0  0  0  0  0  0  0  0  0
   20.2943  -19.8385  -16.4949 C   0  0  0  0  0  0  0  0  0  0  0  0
   19.2672  -18.9711  -16.7763 C   0  0  0  0  0  0  0  0  0  0  0  0
   19.0487  -19.0065  -18.1274 N   0  0  0  0  0  0  0  0  0  0  0  0
   19.9158  -19.8710  -18.6656 C   0  0  0  0  0  0  0  0  0  0  0  0
   20.6657  -20.3707  -17.6753 N   0  0  0  0  0  0  0  0  0  0  0  0
   18.7089  -19.6657  -14.0568 C   0  0  0  0  0  0  0  0  0  0  0  0
   17.8719  -18.7594  -14.3263 O   0  0  0  0  0  0  0  0  0  0  0  0
   18.2135  -20.8969  -13.7241 O   0  0  0  0  0  0  0  0  0  0  0  0
  1  2  1  0
  2  3  1  0
  3  5  1  0
  3  4  1  1
  5  7  1  0
  5  6  1  6
  7  8  2  0
  7 11  1  0
 10  9  1  1
 11 10  1  0
 12 14  1  0
 12 10  1  0
 13 12  2  0
 15 14  1  0
 15 22  1  0
 15 16  1  6
 16 17  1  0
 17 18  2  0
 18 19  1  0
 20 19  1  0
 21 17  1  0
 21 20  2  0
 22 24  1  0
 23 22  2  0
M  END
$$$$
