IAH.pdb
     RDKit          3D

 24 24  0  0  1  0  0  0  0  0999 V2000
   27.5228  -16.1231  -15.9900 C   0  0  0  0  0  0  0  0  0  0  0  0
   26.3729  -15.5762  -16.7858 C   0  0  0  0  0  0  0  0  0  0  0  0
   25.8763  -14.2355  -16.3013 C   0  0  2  0  0  0  0  0  0  0  0  0
   25.4711  -14.2551  -14.8456 C   0  0  0  0  0  0  0  0  0  0  0  0
   24.7969  -13.6568  -17.1676 C   0  0  2  0  0  0  0  0  0  0  0  0
   25.0525  -13.7913  -18.5719 N   0  0  0  0  0  0  0  0  0  0  0  0
   24.5800  -12.2362  -16.8335 C   0  0  0  0  0  0  0  0  0  0  0  0
   24.3391  -11.9113  -15.6539 O   0  0  0  0  0  0  0  0  0  0  0  0
   24.5604   -9.0253  -18.8780 C   0  0  0  0  0  0  0  0  0  0  0  0
   24.2814   -9.8879  -17.6839 C   0  0  2  0  0  0  0  0  0  0  0  0
   24.6472  -11.2564  -17.8525 N   0  0  0  0  0  0  0  0  0  0  0  0
   22.8365   -9.8111  -17.3416 C   0  0  0  0  0  0  0  0  0  0  0  0
   22.0508  -10.6495  -17.8464 O   0  0  0  0  0  0  0  0  0  0  0  0
   22.3092   -8.8282  -16.4674 N   0  0  0  0  0  0  0  0  0  0  0  0
   20.8763   -8.8331  -16.1919 C   0  0  1  0  0  0  0  0  0  0  0  0
   20.4447  -10.1346  -15.5951 C   0  0  0  0  0  0  0  0  0  0  0  0
   19.0152  -10.1053  -15.2772 C   0  0  0  0  0  0  0  0  0  0  0  0
   18.1577   -9.0404  -15.4090 C   0  0  0  0  0  0  0  0  0  0  0  0
   16.9243   -9.4402  -14.9693 N   0  0  0  0  0  0  0  0  0  0  0  0
   17.0168  -10.7155  -14.5768 C   0  0  0  0  0  0  0  0  0  0  0  0
   18.2816  -11.1123  -14.7648 N   0  0  0  0  0  0  0  0  0  0  0  0
   20.5285   -7.6805  -15.3582 C   0  0  0  0  0  0  0  0  0  0  0  0
   21.4253   -7.0816  -14.7010 O   0  0  0  0  0  0  0  0  0  0  0  0
   19.2506   -7.2033  -15.2524 O   0  0  0  0  0  0  0  0  0  0  0  0
  1  2  1  0
  2  3  1  0
  3  5  1  0
  3  4  1  1
  5  7  1  0
  5  6  1  6
  7  8  2  0
  7 11  1  0
 10  9  1  6
 11 10  1  0
 12 14  1  0
 12 10  1  0
 13 12  2  0
 15 14  1  0
 15 22  1  0
 15 16  1  1
 16 17  1  0
 17 18  2  0
 18 19  1  0
 20 19  1  0
 21 17  1  0
 21 20  2  0
 22 24  1  0
 23 22  2  0
M  END
$$$$
