NTE.pdb
     RDKit          3D

 25 24  0  0  1  0  0  0  0  0999 V2000
   20.6700  -18.5997  -14.2125 N   0  0  0  0  0  0  0  0  0  0  0  0
   19.8880  -17.4641  -14.4429 C   0  0  0  0  0  0  0  0  0  0  0  0
   18.6466  -17.5654  -14.2047 O   0  0  0  0  0  0  0  0  0  0  0  0
   20.3476  -16.1625  -14.9315 C   0  0  0  0  0  0  0  0  0  0  0  0
   19.8197  -15.7456  -16.2629 C   0  0  2  0  0  0  0  0  0  0  0  0
   20.4536  -16.6417  -17.2480 N   0  0  0  0  0  0  0  0  0  0  0  0
   20.2191  -14.3722  -16.6590 C   0  0  0  0  0  0  0  0  0  0  0  0
   21.3149  -14.0993  -17.2417 O   0  0  0  0  0  0  0  0  0  0  0  0
   18.7020  -12.1724  -19.1285 C   0  0  0  0  0  0  0  0  0  0  0  0
   18.6172  -11.4489  -17.8032 C   0  0  1  0  0  0  0  0  0  0  0  0
   17.3677  -11.5751  -17.2167 O   0  0  0  0  0  0  0  0  0  0  0  0
   19.7143  -11.9023  -16.8527 C   0  0  2  0  0  0  0  0  0  0  0  0
   19.3884  -13.2372  -16.4107 N   0  0  0  0  0  0  0  0  0  0  0  0
   19.7055  -10.9352  -15.7089 C   0  0  0  0  0  0  0  0  0  0  0  0
   19.0081  -11.1604  -14.6886 O   0  0  0  0  0  0  0  0  0  0  0  0
   20.4772   -9.7485  -15.7448 N   0  0  0  0  0  0  0  0  0  0  0  0
   20.4591   -8.8251  -14.5911 C   0  0  1  0  0  0  0  0  0  0  0  0
   21.3933   -7.7077  -14.9114 C   0  0  0  0  0  0  0  0  0  0  0  0
   21.3632   -6.6482  -13.8600 C   0  0  0  0  0  0  0  0  0  0  0  0
   22.3039   -5.5431  -14.2072 C   0  0  0  0  0  0  0  0  0  0  0  0
   23.0371   -5.6650  -15.2006 O   0  0  0  0  0  0  0  0  0  0  0  0
   19.0801   -8.3081  -14.4111 C   0  0  0  0  0  0  0  0  0  0  0  0
   18.2105   -7.9922  -15.4376 O   0  0  0  0  0  0  0  0  0  0  0  0
   22.3363   -4.4204  -13.4218 O   0  0  0  0  0  0  0  0  0  0  0  0
   18.6190   -8.1216  -13.2307 O   0  0  0  0  0  0  0  0  0  0  0  0
  1  2  1  0
  2  4  1  0
  3  2  2  0
  4  5  1  0
  5  6  1  6
  7  5  1  0
  8  7  2  0
 10  9  1  6
 10 11  1  0
 12 10  1  0
 12 13  1  1
 13  7  1  0
 14 12  1  0
 14 15  2  0
 16 14  1  0
 17 16  1  0
 17 18  1  6
 19 18  1  0
 20 19  1  0
 21 20  2  0
 22 17  1  0
 22 23  1  0
 24 20  1  0
 25 22  2  0
M  END
$$$$
