NTE.pdb
     RDKit          3D

 25 24  0  0  1  0  0  0  0  0999 V2000
   16.3071  -13.3397  -17.9945 N   0  0  0  0  0  0  0  0  0  0  0  0
   17.3808  -12.4485  -18.0803 C   0  0  0  0  0  0  0  0  0  0  0  0
   17.7725  -12.1340  -19.2446 O   0  0  0  0  0  0  0  0  0  0  0  0
   18.1067  -11.8342  -16.9669 C   0  0  0  0  0  0  0  0  0  0  0  0
   19.5949  -11.8803  -17.0580 C   0  0  2  0  0  0  0  0  0  0  0  0
   19.9720  -13.2846  -16.8108 N   0  0  0  0  0  0  0  0  0  0  0  0
   20.2812  -11.0922  -16.0042 C   0  0  0  0  0  0  0  0  0  0  0  0
   20.1825  -11.3430  -14.7624 O   0  0  0  0  0  0  0  0  0  0  0  0
   23.7115  -10.9111  -15.1516 C   0  0  0  0  0  0  0  0  0  0  0  0
   23.3349   -9.5006  -15.5462 C   0  0  1  0  0  0  0  0  0  0  0  0
   23.6947   -9.2084  -16.8524 O   0  0  0  0  0  0  0  0  0  0  0  0
   21.8549   -9.2369  -15.3160 C   0  0  2  0  0  0  0  0  0  0  0  0
   21.1170   -9.9758  -16.3124 N   0  0  0  0  0  0  0  0  0  0  0  0
   21.6605   -7.7609  -15.4813 C   0  0  0  0  0  0  0  0  0  0  0  0
   21.5295   -7.2590  -16.6255 O   0  0  0  0  0  0  0  0  0  0  0  0
   21.6191   -6.8957  -14.3611 N   0  0  0  0  0  0  0  0  0  0  0  0
   21.4700   -5.4393  -14.5626 C   0  0  1  0  0  0  0  0  0  0  0  0
   20.0461   -5.1021  -14.2747 C   0  0  0  0  0  0  0  0  0  0  0  0
   19.3354   -4.6289  -15.4994 C   0  0  0  0  0  0  0  0  0  0  0  0
   17.8765   -4.9272  -15.4028 C   0  0  0  0  0  0  0  0  0  0  0  0
   17.0728   -4.2145  -16.0237 O   0  0  0  0  0  0  0  0  0  0  0  0
   22.3684   -4.7292  -13.6191 C   0  0  0  0  0  0  0  0  0  0  0  0
   22.7357   -3.4009  -13.7203 O   0  0  0  0  0  0  0  0  0  0  0  0
   17.4583   -5.9800  -14.6314 O   0  0  0  0  0  0  0  0  0  0  0  0
   22.8680   -5.3573  -12.6209 O   0  0  0  0  0  0  0  0  0  0  0  0
  1  2  1  0
  2  4  1  0
  3  2  2  0
  4  5  1  0
  5  6  1  1
  7  5  1  0
  8  7  2  0
 10  9  1  6
 10 11  1  0
 12 10  1  0
 12 13  1  6
 13  7  1  0
 14 12  1  0
 14 15  2  0
 16 14  1  0
 17 16  1  0
 17 18  1  1
 19 18  1  0
 20 19  1  0
 21 20  2  0
 22 17  1  0
 22 23  1  0
 24 20  1  0
 25 22  2  0
M  END
$$$$
