NTE.pdb
     RDKit          3D

 25 24  0  0  1  0  0  0  0  0999 V2000
   22.9476  -16.7988  -19.8817 N   0  0  0  0  0  0  0  0  0  0  0  0
   23.6927  -15.6216  -19.9964 C   0  0  0  0  0  0  0  0  0  0  0  0
   24.3444  -15.4585  -21.0720 O   0  0  0  0  0  0  0  0  0  0  0  0
   23.8037  -14.5493  -19.0055 C   0  0  0  0  0  0  0  0  0  0  0  0
   25.1911  -14.1813  -18.5998 C   0  0  2  0  0  0  0  0  0  0  0  0
   25.7643  -15.3893  -17.9770 N   0  0  0  0  0  0  0  0  0  0  0  0
   25.2473  -13.1294  -17.5543 C   0  0  0  0  0  0  0  0  0  0  0  0
   24.8481  -13.3030  -16.3604 O   0  0  0  0  0  0  0  0  0  0  0  0
   28.1955  -11.5105  -16.1687 C   0  0  0  0  0  0  0  0  0  0  0  0
   27.3434  -10.3930  -16.7275 C   0  0  1  0  0  0  0  0  0  0  0  0
   27.8037   -9.9481  -17.9569 O   0  0  0  0  0  0  0  0  0  0  0  0
   25.8799  -10.7984  -16.8071 C   0  0  2  0  0  0  0  0  0  0  0  0
   25.7623  -11.8234  -17.8165 N   0  0  0  0  0  0  0  0  0  0  0  0
   25.1230   -9.5655  -17.1956 C   0  0  0  0  0  0  0  0  0  0  0  0
   24.9340   -9.2881  -18.4062 O   0  0  0  0  0  0  0  0  0  0  0  0
   24.6028   -8.6843  -16.2169 N   0  0  0  0  0  0  0  0  0  0  0  0
   23.8273   -7.4976  -16.6344 C   0  0  1  0  0  0  0  0  0  0  0  0
   23.2901   -6.8683  -15.3937 C   0  0  0  0  0  0  0  0  0  0  0  0
   22.4096   -5.7037  -15.7057 C   0  0  0  0  0  0  0  0  0  0  0  0
   21.9376   -5.0559  -14.4470 C   0  0  0  0  0  0  0  0  0  0  0  0
   21.5126   -5.7687  -13.5246 O   0  0  0  0  0  0  0  0  0  0  0  0
   24.7319   -6.5562  -17.3393 C   0  0  0  0  0  0  0  0  0  0  0  0
   26.0737   -6.3834  -17.0574 O   0  0  0  0  0  0  0  0  0  0  0  0
   21.9842   -3.6905  -14.3388 O   0  0  0  0  0  0  0  0  0  0  0  0
   24.2766   -5.8247  -18.2870 O   0  0  0  0  0  0  0  0  0  0  0  0
  1  2  1  0
  2  4  1  0
  3  2  2  0
  4  5  1  0
  5  6  1  1
  7  5  1  0
  8  7  2  0
 10  9  1  6
 10 11  1  0
 12 10  1  0
 12 13  1  6
 13  7  1  0
 14 12  1  0
 14 15  2  0
 16 14  1  0
 17 16  1  0
 17 18  1  1
 19 18  1  0
 20 19  1  0
 21 20  2  0
 22 17  1  0
 22 23  1  0
 24 20  1  0
 25 22  2  0
M  END
$$$$
