NTE.pdb
     RDKit          3D

 25 24  0  0  1  0  0  0  0  0999 V2000
   35.3879  -28.3273  -18.2309 N   0  0  0  0  0  0  0  0  0  0  0  0
   34.5258  -28.1890  -19.3227 C   0  0  0  0  0  0  0  0  0  0  0  0
   35.0130  -27.6783  -20.3763 O   0  0  0  0  0  0  0  0  0  0  0  0
   33.1138  -28.5719  -19.3841 C   0  0  0  0  0  0  0  0  0  0  0  0
   32.5476  -29.1661  -18.1386 C   0  0  2  0  0  0  0  0  0  0  0  0
   32.9016  -30.5975  -18.1761 N   0  0  0  0  0  0  0  0  0  0  0  0
   31.0653  -29.1239  -18.0785 C   0  0  0  0  0  0  0  0  0  0  0  0
   30.3278  -30.1531  -18.1872 O   0  0  0  0  0  0  0  0  0  0  0  0
   27.0604  -28.3850  -16.1628 C   0  0  0  0  0  0  0  0  0  0  0  0
   28.5271  -28.5675  -16.4829 C   0  0  1  0  0  0  0  0  0  0  0  0
   28.8875  -29.9045  -16.5437 O   0  0  0  0  0  0  0  0  0  0  0  0
   28.9100  -27.8405  -17.7625 C   0  0  2  0  0  0  0  0  0  0  0  0
   30.3462  -27.9043  -17.8909 N   0  0  0  0  0  0  0  0  0  0  0  0
   28.4425  -26.4269  -17.5986 C   0  0  0  0  0  0  0  0  0  0  0  0
   28.8483  -25.7285  -16.6364 O   0  0  0  0  0  0  0  0  0  0  0  0
   27.5368  -25.8419  -18.5164 N   0  0  0  0  0  0  0  0  0  0  0  0
   27.0860  -24.4486  -18.3172 C   0  0  1  0  0  0  0  0  0  0  0  0
   26.1934  -24.1104  -19.4630 C   0  0  0  0  0  0  0  0  0  0  0  0
   24.9260  -24.8983  -19.4228 C   0  0  0  0  0  0  0  0  0  0  0  0
   24.0755  -24.5772  -20.6062 C   0  0  0  0  0  0  0  0  0  0  0  0
   22.8566  -24.8027  -20.5519 O   0  0  0  0  0  0  0  0  0  0  0  0
   26.3377  -24.3640  -17.0388 C   0  0  0  0  0  0  0  0  0  0  0  0
   26.1940  -23.2197  -16.2775 O   0  0  0  0  0  0  0  0  0  0  0  0
   24.6594  -24.0412  -21.7243 O   0  0  0  0  0  0  0  0  0  0  0  0
   25.7673  -25.4081  -16.5646 O   0  0  0  0  0  0  0  0  0  0  0  0
  1  2  1  0
  2  4  1  0
  3  2  2  0
  4  5  1  0
  5  6  1  6
  7  5  1  0
  8  7  2  0
 10  9  1  6
 10 11  1  0
 12 10  1  0
 12 13  1  1
 13  7  1  0
 14 12  1  0
 14 15  2  0
 16 14  1  0
 17 16  1  0
 17 18  1  6
 19 18  1  0
 20 19  1  0
 21 20  2  0
 22 17  1  0
 22 23  1  0
 24 20  1  0
 25 22  2  0
M  END
$$$$
