NTE.pdb
     RDKit          3D

 25 24  0  0  1  0  0  0  0  0999 V2000
   16.9287  -13.5727  -18.3469 N   0  0  0  0  0  0  0  0  0  0  0  0
   17.1078  -13.0099  -17.0798 C   0  0  0  0  0  0  0  0  0  0  0  0
   16.1755  -13.1848  -16.2382 O   0  0  0  0  0  0  0  0  0  0  0  0
   18.2609  -12.2366  -16.6145 C   0  0  0  0  0  0  0  0  0  0  0  0
   19.3665  -12.0626  -17.6006 C   0  0  2  0  0  0  0  0  0  0  0  0
   20.0529  -13.3661  -17.6728 N   0  0  0  0  0  0  0  0  0  0  0  0
   20.4020  -11.0906  -17.1698 C   0  0  0  0  0  0  0  0  0  0  0  0
   21.2314  -11.3158  -16.2337 O   0  0  0  0  0  0  0  0  0  0  0  0
   23.1255   -7.1534  -18.3628 C   0  0  0  0  0  0  0  0  0  0  0  0
   22.1122   -8.2322  -18.6732 C   0  0  1  0  0  0  0  0  0  0  0  0
   22.6244   -9.2044  -19.5180 O   0  0  0  0  0  0  0  0  0  0  0  0
   21.5558   -8.8528  -17.4013 C   0  0  2  0  0  0  0  0  0  0  0  0
   20.5456   -9.8097  -17.7850 N   0  0  0  0  0  0  0  0  0  0  0  0
   20.9639   -7.7279  -16.6089 C   0  0  0  0  0  0  0  0  0  0  0  0
   20.0156   -7.0489  -17.0756 O   0  0  0  0  0  0  0  0  0  0  0  0
   21.4527   -7.4001  -15.3210 N   0  0  0  0  0  0  0  0  0  0  0  0
   20.9146   -6.2223  -14.6087 C   0  0  1  0  0  0  0  0  0  0  0  0
   20.4568   -6.6933  -13.2698 C   0  0  0  0  0  0  0  0  0  0  0  0
   19.1615   -7.4302  -13.3604 C   0  0  0  0  0  0  0  0  0  0  0  0
   18.7657   -7.9541  -12.0204 C   0  0  0  0  0  0  0  0  0  0  0  0
   18.0072   -7.2779  -11.3084 O   0  0  0  0  0  0  0  0  0  0  0  0
   21.9950   -5.2164  -14.4591 C   0  0  0  0  0  0  0  0  0  0  0  0
   21.7999   -3.8788  -14.1721 O   0  0  0  0  0  0  0  0  0  0  0  0
   19.2484   -9.1685  -11.6074 O   0  0  0  0  0  0  0  0  0  0  0  0
   23.2180   -5.5695  -14.6016 O   0  0  0  0  0  0  0  0  0  0  0  0
  1  2  1  0
  2  4  1  0
  3  2  2  0
  4  5  1  0
  5  6  1  1
  7  5  1  0
  8  7  2  0
 10  9  1  1
 10 11  1  0
 12 10  1  0
 12 13  1  6
 13  7  1  0
 14 12  1  0
 14 15  2  0
 16 14  1  0
 17 16  1  0
 17 18  1  1
 19 18  1  0
 20 19  1  0
 21 20  2  0
 22 17  1  0
 22 23  1  0
 24 20  1  0
 25 22  2  0
M  END
$$$$
