NTE.pdb
     RDKit          3D

 25 24  0  0  1  0  0  0  0  0999 V2000
   11.1986  -15.2995   -9.7057 N   0  0  0  0  0  0  0  0  0  0  0  0
   11.9196  -14.7470  -10.7684 C   0  0  0  0  0  0  0  0  0  0  0  0
   12.5070  -15.5588  -11.5456 O   0  0  0  0  0  0  0  0  0  0  0  0
   12.0715  -13.3254  -11.0849 C   0  0  0  0  0  0  0  0  0  0  0  0
   13.3263  -12.9498  -11.7987 C   0  0  2  0  0  0  0  0  0  0  0  0
   14.4326  -13.3433  -10.9062 N   0  0  0  0  0  0  0  0  0  0  0  0
   13.4807  -11.4880  -12.0037 C   0  0  0  0  0  0  0  0  0  0  0  0
   12.6181  -10.7662  -12.5951 O   0  0  0  0  0  0  0  0  0  0  0  0
   13.5912   -8.8109   -9.5261 C   0  0  0  0  0  0  0  0  0  0  0  0
   14.9084   -8.7667  -10.2678 C   0  0  1  0  0  0  0  0  0  0  0  0
   15.9255   -9.3951   -9.5667 O   0  0  0  0  0  0  0  0  0  0  0  0
   14.7752   -9.3422  -11.6691 C   0  0  2  0  0  0  0  0  0  0  0  0
   14.6282  -10.7727  -11.5442 N   0  0  0  0  0  0  0  0  0  0  0  0
   16.0392   -8.9881  -12.3906 C   0  0  0  0  0  0  0  0  0  0  0  0
   17.0547   -9.7216  -12.2959 O   0  0  0  0  0  0  0  0  0  0  0  0
   16.1251   -7.8252  -13.1940 N   0  0  0  0  0  0  0  0  0  0  0  0
   17.3954   -7.4924  -13.8718 C   0  0  1  0  0  0  0  0  0  0  0  0
   17.2074   -7.7881  -15.3214 C   0  0  0  0  0  0  0  0  0  0  0  0
   18.4270   -7.4503  -16.1134 C   0  0  0  0  0  0  0  0  0  0  0  0
   18.2249   -7.7919  -17.5519 C   0  0  0  0  0  0  0  0  0  0  0  0
   18.6998   -8.8499  -17.9930 O   0  0  0  0  0  0  0  0  0  0  0  0
   17.6825   -6.0503  -13.6733 C   0  0  0  0  0  0  0  0  0  0  0  0
   18.9416   -5.4812  -13.6961 O   0  0  0  0  0  0  0  0  0  0  0  0
   17.5202   -6.9305  -18.3517 O   0  0  0  0  0  0  0  0  0  0  0  0
   16.7200   -5.2332  -13.4579 O   0  0  0  0  0  0  0  0  0  0  0  0
  1  2  1  0
  2  4  1  0
  3  2  2  0
  4  5  1  0
  5  6  1  1
  7  5  1  0
  8  7  2  0
 10  9  1  1
 10 11  1  0
 12 10  1  0
 12 13  1  1
 13  7  1  0
 14 12  1  0
 14 15  2  0
 16 14  1  0
 17 16  1  0
 17 18  1  6
 19 18  1  0
 20 19  1  0
 21 20  2  0
 22 17  1  0
 22 23  1  0
 24 20  1  0
 25 22  2  0
M  END
$$$$
