KWD.pdb
     RDKit          3D

 32 33  0  0  1  0  0  0  0  0999 V2000
   27.5248  -22.5748  -15.2428 N   0  0  0  0  0  0  0  0  0  0  0  0
   27.5384  -21.3642  -14.5058 C   0  0  1  0  0  0  0  0  0  0  0  0
   27.0991  -20.1574  -15.3273 C   0  0  0  0  0  0  0  0  0  0  0  0
   27.7146  -20.3152  -16.6706 C   0  0  0  0  0  0  0  0  0  0  0  0
   26.8805  -20.0387  -17.8581 C   0  0  0  0  0  0  0  0  0  0  0  0
   26.4936  -18.6001  -17.9627 C   0  0  0  0  0  0  0  0  0  0  0  0
   27.3179  -17.8788  -18.8844 N   0  0  0  0  0  0  0  0  0  0  0  0
   26.7579  -21.5117  -13.2672 C   0  0  0  0  0  0  0  0  0  0  0  0
   25.6725  -22.1462  -13.1870 O   0  0  0  0  0  0  0  0  0  0  0  0
   27.2275  -20.9120  -12.0570 N   0  0  0  0  0  0  0  0  0  0  0  0
   26.3935  -20.8190  -10.9066 C   0  0  1  0  0  0  0  0  0  0  0  0
   27.1688  -20.0052   -9.8555 C   0  0  0  0  0  0  0  0  0  0  0  0
   26.7306  -20.3159   -8.4958 C   0  0  0  0  0  0  0  0  0  0  0  0
   25.5628  -20.9163   -8.1017 C   0  0  0  0  0  0  0  0  0  0  0  0
   25.5297  -21.0274   -6.7515 N   0  0  0  0  0  0  0  0  0  0  0  0
   26.6682  -20.5016   -6.2848 C   0  0  0  0  0  0  0  0  0  0  0  0
   27.1222  -20.3707   -4.9898 C   0  0  0  0  0  0  0  0  0  0  0  0
   28.3429  -19.7920   -4.7178 C   0  0  0  0  0  0  0  0  0  0  0  0
   29.1078  -19.3430   -5.7712 C   0  0  0  0  0  0  0  0  0  0  0  0
   28.6526  -19.4750   -7.0579 C   0  0  0  0  0  0  0  0  0  0  0  0
   27.4334  -20.0520   -7.3440 C   0  0  0  0  0  0  0  0  0  0  0  0
   25.1274  -20.0970  -11.1112 C   0  0  0  0  0  0  0  0  0  0  0  0
   25.1091  -19.0960  -11.8473 O   0  0  0  0  0  0  0  0  0  0  0  0
   23.9599  -20.5421  -10.4768 N   0  0  0  0  0  0  0  0  0  0  0  0
   22.6656  -20.3189  -11.1615 C   0  0  1  0  0  0  0  0  0  0  0  0
   22.5927  -21.1801  -12.3851 C   0  0  0  0  0  0  0  0  0  0  0  0
   22.4618  -20.3600  -13.5872 C   0  0  0  0  0  0  0  0  0  0  0  0
   22.0855  -19.1797  -13.5329 O   0  0  0  0  0  0  0  0  0  0  0  0
   21.6381  -20.7279  -10.1426 C   0  0  0  0  0  0  0  0  0  0  0  0
   20.3615  -20.2309  -10.1115 O   0  0  0  0  0  0  0  0  0  0  0  0
   22.7643  -20.9083  -14.8236 O   0  0  0  0  0  0  0  0  0  0  0  0
   21.9322  -21.5732   -9.2507 O   0  0  0  0  0  0  0  0  0  0  0  0
  2  3  1  0
  2  1  1  6
  4  3  1  0
  5  4  1  0
  5  6  1  0
  7  6  1  0
  8  9  2  0
  8  2  1  0
 10  8  1  0
 11 10  1  0
 12 13  1  0
 11 12  1  1
 13 21  1  0
 14 13  2  0
 14 15  1  0
 15 16  1  0
 16 17  1  0
 17 18  2  0
 19 18  1  0
 20 19  2  0
 21 16  2  0
 21 20  1  0
 22 24  1  0
 22 11  1  0
 23 22  2  0
 25 24  1  0
 25 29  1  0
 25 26  1  6
 27 26  1  0
 28 27  2  0
 29 30  1  0
 31 27  1  0
 32 29  2  0
M  END
$$$$
