KWD.pdb
     RDKit          3D

 32 33  0  0  1  0  0  0  0  0999 V2000
   26.4474  -17.7348  -13.8385 N   0  0  0  0  0  0  0  0  0  0  0  0
   26.9754  -18.7084  -14.7228 C   0  0  1  0  0  0  0  0  0  0  0  0
   28.4969  -18.6755  -14.8112 C   0  0  0  0  0  0  0  0  0  0  0  0
   28.8526  -17.3984  -15.4827 C   0  0  0  0  0  0  0  0  0  0  0  0
   29.1518  -17.4292  -16.9290 C   0  0  0  0  0  0  0  0  0  0  0  0
   29.5835  -16.0987  -17.4521 C   0  0  0  0  0  0  0  0  0  0  0  0
   29.8131  -16.1162  -18.8650 N   0  0  0  0  0  0  0  0  0  0  0  0
   26.4641  -20.0439  -14.3760 C   0  0  0  0  0  0  0  0  0  0  0  0
   26.8057  -21.1056  -14.9619 O   0  0  0  0  0  0  0  0  0  0  0  0
   25.5187  -20.1877  -13.3128 N   0  0  0  0  0  0  0  0  0  0  0  0
   24.6998  -21.3476  -13.2044 C   0  0  1  0  0  0  0  0  0  0  0  0
   24.6015  -21.6884  -11.7069 C   0  0  0  0  0  0  0  0  0  0  0  0
   25.6623  -21.0464  -10.9325 C   0  0  0  0  0  0  0  0  0  0  0  0
   25.5330  -20.1245   -9.9261 C   0  0  0  0  0  0  0  0  0  0  0  0
   26.7552  -19.7710   -9.4594 N   0  0  0  0  0  0  0  0  0  0  0  0
   27.6603  -20.4618  -10.1623 C   0  0  0  0  0  0  0  0  0  0  0  0
   29.0362  -20.4665  -10.0790 C   0  0  0  0  0  0  0  0  0  0  0  0
   29.7975  -21.2634  -10.9064 C   0  0  0  0  0  0  0  0  0  0  0  0
   29.1542  -22.0617  -11.8256 C   0  0  0  0  0  0  0  0  0  0  0  0
   27.7852  -22.0541  -11.9054 C   0  0  0  0  0  0  0  0  0  0  0  0
   27.0117  -21.2617  -11.0837 C   0  0  0  0  0  0  0  0  0  0  0  0
   23.3119  -21.1758  -13.6631 C   0  0  0  0  0  0  0  0  0  0  0  0
   22.8799  -20.0314  -13.8822 O   0  0  0  0  0  0  0  0  0  0  0  0
   22.4938  -22.2985  -13.8471 N   0  0  0  0  0  0  0  0  0  0  0  0
   21.1680  -22.0999  -14.4769 C   0  0  1  0  0  0  0  0  0  0  0  0
   20.6094  -20.7746  -14.0580 C   0  0  0  0  0  0  0  0  0  0  0  0
   19.5812  -20.9473  -13.0345 C   0  0  0  0  0  0  0  0  0  0  0  0
   19.5651  -20.2574  -12.0043 O   0  0  0  0  0  0  0  0  0  0  0  0
   21.4563  -22.1305  -15.9524 C   0  0  0  0  0  0  0  0  0  0  0  0
   20.4837  -22.2230  -16.9132 O   0  0  0  0  0  0  0  0  0  0  0  0
   18.5950  -21.9046  -13.2126 O   0  0  0  0  0  0  0  0  0  0  0  0
   22.6486  -22.0702  -16.3661 O   0  0  0  0  0  0  0  0  0  0  0  0
  2  3  1  0
  2  1  1  1
  4  3  1  0
  5  4  1  0
  5  6  1  0
  7  6  1  0
  8  9  2  0
  8  2  1  0
 10  8  1  0
 11 10  1  0
 12 13  1  0
 11 12  1  1
 13 21  1  0
 14 13  2  0
 14 15  1  0
 15 16  1  0
 16 17  1  0
 17 18  2  0
 19 18  1  0
 20 19  2  0
 21 16  2  0
 21 20  1  0
 22 24  1  0
 22 11  1  0
 23 22  2  0
 25 24  1  0
 25 29  1  0
 25 26  1  1
 27 26  1  0
 28 27  2  0
 29 30  1  0
 31 27  1  0
 32 29  2  0
M  END
$$$$
