KWD.pdb
     RDKit          3D

 32 33  0  0  1  0  0  0  0  0999 V2000
   28.8853  -20.0092  -14.2161 N   0  0  0  0  0  0  0  0  0  0  0  0
   27.6746  -20.6748  -14.5319 C   0  0  1  0  0  0  0  0  0  0  0  0
   27.8696  -21.8611  -15.4694 C   0  0  0  0  0  0  0  0  0  0  0  0
   28.5486  -21.3334  -16.6814 C   0  0  0  0  0  0  0  0  0  0  0  0
   27.7147  -20.7408  -17.7471 C   0  0  0  0  0  0  0  0  0  0  0  0
   28.5195  -20.3047  -18.9270 C   0  0  0  0  0  0  0  0  0  0  0  0
   27.7381  -19.5802  -19.8830 N   0  0  0  0  0  0  0  0  0  0  0  0
   26.9601  -21.0467  -13.3006 C   0  0  0  0  0  0  0  0  0  0  0  0
   25.8929  -21.7159  -13.2773 O   0  0  0  0  0  0  0  0  0  0  0  0
   27.4774  -20.6423  -12.0303 N   0  0  0  0  0  0  0  0  0  0  0  0
   26.7203  -20.8123  -10.8363 C   0  0  1  0  0  0  0  0  0  0  0  0
   27.4591  -20.0467   -9.7244 C   0  0  0  0  0  0  0  0  0  0  0  0
   26.9405  -20.3792   -8.3986 C   0  0  0  0  0  0  0  0  0  0  0  0
   25.7604  -21.0029   -8.0857 C   0  0  0  0  0  0  0  0  0  0  0  0
   25.6432  -21.1291   -6.7415 N   0  0  0  0  0  0  0  0  0  0  0  0
   26.7406  -20.5898   -6.1980 C   0  0  0  0  0  0  0  0  0  0  0  0
   27.1088  -20.4654   -4.8754 C   0  0  0  0  0  0  0  0  0  0  0  0
   28.2997  -19.8698   -4.5203 C   0  0  0  0  0  0  0  0  0  0  0  0
   29.1224  -19.3969   -5.5183 C   0  0  0  0  0  0  0  0  0  0  0  0
   28.7524  -19.5225   -6.8327 C   0  0  0  0  0  0  0  0  0  0  0  0
   27.5639  -20.1163   -7.2017 C   0  0  0  0  0  0  0  0  0  0  0  0
   25.3628  -20.2448  -10.8728 C   0  0  0  0  0  0  0  0  0  0  0  0
   25.2188  -19.0106  -10.8897 O   0  0  0  0  0  0  0  0  0  0  0  0
   24.2504  -21.0968  -10.8875 N   0  0  0  0  0  0  0  0  0  0  0  0
   22.9377  -20.5238  -11.2643 C   0  0  1  0  0  0  0  0  0  0  0  0
   22.3774  -21.2815  -12.4288 C   0  0  0  0  0  0  0  0  0  0  0  0
   22.4082  -20.4649  -13.6399 C   0  0  0  0  0  0  0  0  0  0  0  0
   22.7805  -19.2823  -13.6189 O   0  0  0  0  0  0  0  0  0  0  0  0
   22.0924  -20.7073  -10.0343 C   0  0  0  0  0  0  0  0  0  0  0  0
   20.9715  -19.9659   -9.7671 O   0  0  0  0  0  0  0  0  0  0  0  0
   22.0128  -21.0193  -14.8470 O   0  0  0  0  0  0  0  0  0  0  0  0
   22.4023  -21.5830   -9.1778 O   0  0  0  0  0  0  0  0  0  0  0  0
  2  3  1  0
  2  1  1  1
  4  3  1  0
  5  4  1  0
  5  6  1  0
  7  6  1  0
  8  9  2  0
  8  2  1  0
 10  8  1  0
 11 10  1  0
 12 13  1  0
 11 12  1  1
 13 21  1  0
 14 13  2  0
 14 15  1  0
 15 16  1  0
 16 17  1  0
 17 18  2  0
 19 18  1  0
 20 19  2  0
 21 16  2  0
 21 20  1  0
 22 24  1  0
 22 11  1  0
 23 22  2  0
 25 24  1  0
 25 29  1  0
 25 26  1  6
 27 26  1  0
 28 27  2  0
 29 30  1  0
 31 27  1  0
 32 29  2  0
M  END
$$$$
