KWD.pdb
     RDKit          3D

 32 33  0  0  1  0  0  0  0  0999 V2000
   26.6037  -19.3167  -14.6128 N   0  0  0  0  0  0  0  0  0  0  0  0
   26.8511  -20.7122  -14.6169 C   0  0  1  0  0  0  0  0  0  0  0  0
   28.3263  -21.0590  -14.7831 C   0  0  0  0  0  0  0  0  0  0  0  0
   28.7657  -20.4321  -16.0568 C   0  0  0  0  0  0  0  0  0  0  0  0
   28.7363  -18.9585  -16.1568 C   0  0  0  0  0  0  0  0  0  0  0  0
   29.2229  -18.4653  -17.4797 C   0  0  0  0  0  0  0  0  0  0  0  0
   29.1944  -17.0371  -17.5737 N   0  0  0  0  0  0  0  0  0  0  0  0
   26.2602  -21.3390  -13.4239 C   0  0  0  0  0  0  0  0  0  0  0  0
   26.0888  -22.5798  -13.2890 O   0  0  0  0  0  0  0  0  0  0  0  0
   25.8418  -20.5226  -12.3270 N   0  0  0  0  0  0  0  0  0  0  0  0
   25.1469  -21.0785  -11.2153 C   0  0  1  0  0  0  0  0  0  0  0  0
   25.6133  -20.3109   -9.9658 C   0  0  0  0  0  0  0  0  0  0  0  0
   26.9890  -20.6472   -9.6031 C   0  0  0  0  0  0  0  0  0  0  0  0
   27.8941  -21.3868  -10.3195 C   0  0  0  0  0  0  0  0  0  0  0  0
   29.0645  -21.4730   -9.6418 N   0  0  0  0  0  0  0  0  0  0  0  0
   28.9093  -20.7935   -8.4996 C   0  0  0  0  0  0  0  0  0  0  0  0
   29.7959  -20.5762   -7.4666 C   0  0  0  0  0  0  0  0  0  0  0  0
   29.4349  -19.8360   -6.3616 C   0  0  0  0  0  0  0  0  0  0  0  0
   28.1623  -19.3128   -6.3070 C   0  0  0  0  0  0  0  0  0  0  0  0
   27.2834  -19.5313   -7.3367 C   0  0  0  0  0  0  0  0  0  0  0  0
   27.6316  -20.2699   -8.4477 C   0  0  0  0  0  0  0  0  0  0  0  0
   23.6839  -20.9219  -11.2529 C   0  0  0  0  0  0  0  0  0  0  0  0
   23.1155  -20.2901  -10.3463 O   0  0  0  0  0  0  0  0  0  0  0  0
   22.9487  -21.4842  -12.3050 N   0  0  0  0  0  0  0  0  0  0  0  0
   21.5811  -20.9720  -12.5521 C   0  0  1  0  0  0  0  0  0  0  0  0
   21.6521  -19.5293  -12.9495 C   0  0  0  0  0  0  0  0  0  0  0  0
   20.3245  -19.0193  -13.2837 C   0  0  0  0  0  0  0  0  0  0  0  0
   19.2930  -19.5548  -12.8513 O   0  0  0  0  0  0  0  0  0  0  0  0
   21.0696  -21.8255  -13.6795 C   0  0  0  0  0  0  0  0  0  0  0  0
   21.8652  -22.3115  -14.6837 O   0  0  0  0  0  0  0  0  0  0  0  0
   20.2067  -17.9088  -14.1045 O   0  0  0  0  0  0  0  0  0  0  0  0
   19.8450  -22.1310  -13.7372 O   0  0  0  0  0  0  0  0  0  0  0  0
  2  3  1  0
  2  1  1  1
  4  3  1  0
  5  4  1  0
  5  6  1  0
  7  6  1  0
  8  9  2  0
  8  2  1  0
 10  8  1  0
 11 10  1  0
 12 13  1  0
 11 12  1  1
 13 21  1  0
 14 13  2  0
 14 15  1  0
 15 16  1  0
 16 17  1  0
 17 18  2  0
 19 18  1  0
 20 19  2  0
 21 16  2  0
 21 20  1  0
 22 24  1  0
 22 11  1  0
 23 22  2  0
 25 24  1  0
 25 29  1  0
 25 26  1  6
 27 26  1  0
 28 27  2  0
 29 30  1  0
 31 27  1  0
 32 29  2  0
M  END
$$$$
