KWD.pdb
     RDKit          3D

 32 33  0  0  1  0  0  0  0  0999 V2000
   28.6363  -22.4450  -15.0473 N   0  0  0  0  0  0  0  0  0  0  0  0
   28.0382  -21.2150  -14.6757 C   0  0  1  0  0  0  0  0  0  0  0  0
   27.2470  -20.5674  -15.8065 C   0  0  0  0  0  0  0  0  0  0  0  0
   27.6043  -21.3041  -17.0466 C   0  0  0  0  0  0  0  0  0  0  0  0
   27.9659  -20.5200  -18.2453 C   0  0  0  0  0  0  0  0  0  0  0  0
   29.3636  -19.9974  -18.1866 C   0  0  0  0  0  0  0  0  0  0  0  0
   29.7114  -19.2373  -19.3488 N   0  0  0  0  0  0  0  0  0  0  0  0
   27.2325  -21.3868  -13.4564 C   0  0  0  0  0  0  0  0  0  0  0  0
   26.0750  -21.8838  -13.4383 O   0  0  0  0  0  0  0  0  0  0  0  0
   27.7613  -20.9764  -12.1928 N   0  0  0  0  0  0  0  0  0  0  0  0
   26.9661  -21.0132  -11.0122 C   0  0  1  0  0  0  0  0  0  0  0  0
   27.8207  -20.4211   -9.8775 C   0  0  0  0  0  0  0  0  0  0  0  0
   27.1299  -20.4778   -8.5903 C   0  0  0  0  0  0  0  0  0  0  0  0
   25.8260  -20.8241   -8.3466 C   0  0  0  0  0  0  0  0  0  0  0  0
   25.5664  -20.7525   -7.0184 N   0  0  0  0  0  0  0  0  0  0  0  0
   26.6962  -20.3630   -6.4165 C   0  0  0  0  0  0  0  0  0  0  0  0
   26.9621  -20.1410   -5.0823 C   0  0  0  0  0  0  0  0  0  0  0  0
   28.2112  -19.7382   -4.6621 C   0  0  0  0  0  0  0  0  0  0  0  0
   29.1975  -19.5598   -5.6064 C   0  0  0  0  0  0  0  0  0  0  0  0
   28.9288  -19.7816   -6.9327 C   0  0  0  0  0  0  0  0  0  0  0  0
   27.6837  -20.1848   -7.3665 C   0  0  0  0  0  0  0  0  0  0  0  0
   25.7450  -20.1927  -11.0572 C   0  0  0  0  0  0  0  0  0  0  0  0
   25.8142  -19.0190  -11.4594 O   0  0  0  0  0  0  0  0  0  0  0  0
   24.5215  -20.7394  -10.6476 N   0  0  0  0  0  0  0  0  0  0  0  0
   23.2925  -20.3032  -11.3498 C   0  0  1  0  0  0  0  0  0  0  0  0
   23.0566  -21.1843  -12.5381 C   0  0  0  0  0  0  0  0  0  0  0  0
   21.7844  -20.8589  -13.1784 C   0  0  0  0  0  0  0  0  0  0  0  0
   21.0422  -19.9686  -12.7378 O   0  0  0  0  0  0  0  0  0  0  0  0
   22.2069  -20.4678  -10.3224 C   0  0  0  0  0  0  0  0  0  0  0  0
   22.1469  -21.5182   -9.4445 O   0  0  0  0  0  0  0  0  0  0  0  0
   21.3900  -21.5588  -14.3077 O   0  0  0  0  0  0  0  0  0  0  0  0
   21.2825  -19.6109  -10.2351 O   0  0  0  0  0  0  0  0  0  0  0  0
  2  3  1  0
  2  1  1  6
  4  3  1  0
  5  4  1  0
  5  6  1  0
  7  6  1  0
  8  9  2  0
  8  2  1  0
 10  8  1  0
 11 10  1  0
 12 13  1  0
 11 12  1  1
 13 21  1  0
 14 13  2  0
 14 15  1  0
 15 16  1  0
 16 17  1  0
 17 18  2  0
 19 18  1  0
 20 19  2  0
 21 16  2  0
 21 20  1  0
 22 24  1  0
 22 11  1  0
 23 22  2  0
 25 24  1  0
 25 29  1  0
 25 26  1  6
 27 26  1  0
 28 27  2  0
 29 30  1  0
 31 27  1  0
 32 29  2  0
M  END
$$$$
