KWD.pdb
     RDKit          3D

 32 33  0  0  1  0  0  0  0  0999 V2000
   28.7107  -22.8784  -16.2215 N   0  0  0  0  0  0  0  0  0  0  0  0
   27.3793  -22.5331  -16.5633 C   0  0  1  0  0  0  0  0  0  0  0  0
   26.7218  -23.5378  -17.5026 C   0  0  0  0  0  0  0  0  0  0  0  0
   27.5953  -23.6283  -18.7014 C   0  0  0  0  0  0  0  0  0  0  0  0
   28.3814  -24.8629  -18.9014 C   0  0  0  0  0  0  0  0  0  0  0  0
   29.1478  -24.8515  -20.1831 C   0  0  0  0  0  0  0  0  0  0  0  0
   30.0047  -25.9905  -20.3167 N   0  0  0  0  0  0  0  0  0  0  0  0
   26.5839  -22.3006  -15.3474 C   0  0  0  0  0  0  0  0  0  0  0  0
   25.7318  -23.1106  -14.8946 O   0  0  0  0  0  0  0  0  0  0  0  0
   26.7600  -21.0915  -14.6046 N   0  0  0  0  0  0  0  0  0  0  0  0
   25.9652  -20.8065  -13.4580 C   0  0  1  0  0  0  0  0  0  0  0  0
   26.6892  -19.6967  -12.6754 C   0  0  0  0  0  0  0  0  0  0  0  0
   27.6719  -20.2429  -11.7410 C   0  0  0  0  0  0  0  0  0  0  0  0
   28.9132  -20.7518  -12.0232 C   0  0  0  0  0  0  0  0  0  0  0  0
   29.5195  -21.1589  -10.8816 N   0  0  0  0  0  0  0  0  0  0  0  0
   28.6719  -20.9124   -9.8759 C   0  0  0  0  0  0  0  0  0  0  0  0
   28.8075  -21.1389   -8.5229 C   0  0  0  0  0  0  0  0  0  0  0  0
   27.8022  -20.8069   -7.6407 C   0  0  0  0  0  0  0  0  0  0  0  0
   26.6501  -20.2403   -8.1385 C   0  0  0  0  0  0  0  0  0  0  0  0
   26.5192  -20.0167   -9.4852 C   0  0  0  0  0  0  0  0  0  0  0  0
   27.5171  -20.3440  -10.3786 C   0  0  0  0  0  0  0  0  0  0  0  0
   24.6227  -20.2765  -13.7460 C   0  0  0  0  0  0  0  0  0  0  0  0
   24.4125  -19.7064  -14.8300 O   0  0  0  0  0  0  0  0  0  0  0  0
   23.5988  -20.4181  -12.7999 N   0  0  0  0  0  0  0  0  0  0  0  0
   22.1974  -20.3139  -13.2677 C   0  0  1  0  0  0  0  0  0  0  0  0
   21.9152  -21.4105  -14.2485 C   0  0  0  0  0  0  0  0  0  0  0  0
   20.5118  -21.3928  -14.6541 C   0  0  0  0  0  0  0  0  0  0  0  0
   19.6500  -22.0458  -14.0471 O   0  0  0  0  0  0  0  0  0  0  0  0
   21.3812  -20.4764  -12.0154 C   0  0  0  0  0  0  0  0  0  0  0  0
   20.1754  -19.8585  -11.8107 O   0  0  0  0  0  0  0  0  0  0  0  0
   20.1260  -20.6288  -15.7441 O   0  0  0  0  0  0  0  0  0  0  0  0
   21.7985  -21.2147  -11.0788 O   0  0  0  0  0  0  0  0  0  0  0  0
  2  3  1  0
  2  1  1  1
  4  3  1  0
  5  4  1  0
  5  6  1  0
  7  6  1  0
  8  9  2  0
  8  2  1  0
 10  8  1  0
 11 10  1  0
 12 13  1  0
 11 12  1  1
 13 21  1  0
 14 13  2  0
 14 15  1  0
 15 16  1  0
 16 17  1  0
 17 18  2  0
 19 18  1  0
 20 19  2  0
 21 16  2  0
 21 20  1  0
 22 24  1  0
 22 11  1  0
 23 22  2  0
 25 24  1  0
 25 29  1  0
 25 26  1  6
 27 26  1  0
 28 27  2  0
 29 30  1  0
 31 27  1  0
 32 29  2  0
M  END
$$$$
