KWD.pdb
     RDKit          3D

 32 33  0  0  1  0  0  0  0  0999 V2000
   27.8871  -19.9128  -15.2894 N   0  0  0  0  0  0  0  0  0  0  0  0
   27.3431  -21.1957  -15.5482 C   0  0  1  0  0  0  0  0  0  0  0  0
   28.3861  -22.2071  -16.0098 C   0  0  0  0  0  0  0  0  0  0  0  0
   28.8687  -21.7398  -17.3355 C   0  0  0  0  0  0  0  0  0  0  0  0
   29.6944  -20.5160  -17.3866 C   0  0  0  0  0  0  0  0  0  0  0  0
   30.0839  -20.1468  -18.7802 C   0  0  0  0  0  0  0  0  0  0  0  0
   30.9044  -18.9745  -18.8252 N   0  0  0  0  0  0  0  0  0  0  0  0
   26.5801  -21.6712  -14.3834 C   0  0  0  0  0  0  0  0  0  0  0  0
   26.2329  -22.8693  -14.2070 O   0  0  0  0  0  0  0  0  0  0  0  0
   26.1894  -20.7462  -13.3652 N   0  0  0  0  0  0  0  0  0  0  0  0
   25.3865  -21.1564  -12.2631 C   0  0  1  0  0  0  0  0  0  0  0  0
   25.7882  -20.2786  -11.0647 C   0  0  0  0  0  0  0  0  0  0  0  0
   27.0400  -20.7276  -10.4574 C   0  0  0  0  0  0  0  0  0  0  0  0
   28.0571  -21.4348  -11.0445 C   0  0  0  0  0  0  0  0  0  0  0  0
   29.0472  -21.6580  -10.1465 N   0  0  0  0  0  0  0  0  0  0  0  0
   28.6662  -21.0975   -8.9927 C   0  0  0  0  0  0  0  0  0  0  0  0
   29.3109  -21.0418   -7.7755 C   0  0  0  0  0  0  0  0  0  0  0  0
   28.7393  -20.4058   -6.6949 C   0  0  0  0  0  0  0  0  0  0  0  0
   27.5023  -19.8219   -6.8535 C   0  0  0  0  0  0  0  0  0  0  0  0
   26.8643  -19.8796   -8.0660 C   0  0  0  0  0  0  0  0  0  0  0  0
   27.4249  -20.5127   -9.1551 C   0  0  0  0  0  0  0  0  0  0  0  0
   23.9392  -20.9519  -12.4360 C   0  0  0  0  0  0  0  0  0  0  0  0
   23.5271  -19.8738  -12.8965 O   0  0  0  0  0  0  0  0  0  0  0  0
   23.0434  -21.9692  -12.0808 N   0  0  0  0  0  0  0  0  0  0  0  0
   21.5976  -21.7328  -12.2985 C   0  0  1  0  0  0  0  0  0  0  0  0
   21.2561  -20.3283  -11.9049 C   0  0  0  0  0  0  0  0  0  0  0  0
   19.8207  -20.0894  -12.0355 C   0  0  0  0  0  0  0  0  0  0  0  0
   19.3419  -18.9473  -11.9710 O   0  0  0  0  0  0  0  0  0  0  0  0
   21.4104  -21.9482  -13.7748 C   0  0  0  0  0  0  0  0  0  0  0  0
   20.3366  -22.6061  -14.3149 O   0  0  0  0  0  0  0  0  0  0  0  0
   18.9660  -21.1615  -12.2370 O   0  0  0  0  0  0  0  0  0  0  0  0
   22.2701  -21.5134  -14.5923 O   0  0  0  0  0  0  0  0  0  0  0  0
  2  3  1  0
  2  1  1  1
  4  3  1  0
  5  4  1  0
  5  6  1  0
  7  6  1  0
  8  9  2  0
  8  2  1  0
 10  8  1  0
 11 10  1  0
 12 13  1  0
 11 12  1  1
 13 21  1  0
 14 13  2  0
 14 15  1  0
 15 16  1  0
 16 17  1  0
 17 18  2  0
 19 18  1  0
 20 19  2  0
 21 16  2  0
 21 20  1  0
 22 24  1  0
 22 11  1  0
 23 22  2  0
 25 24  1  0
 25 29  1  0
 25 26  1  6
 27 26  1  0
 28 27  2  0
 29 30  1  0
 31 27  1  0
 32 29  2  0
M  END
$$$$
