KWD.pdb
     RDKit          3D

 32 33  0  0  1  0  0  0  0  0999 V2000
   28.5561  -21.5978  -15.2972 N   0  0  0  0  0  0  0  0  0  0  0  0
   27.7596  -20.5732  -14.7278 C   0  0  1  0  0  0  0  0  0  0  0  0
   27.1365  -19.6500  -15.7687 C   0  0  0  0  0  0  0  0  0  0  0  0
   27.8766  -19.8834  -17.0361 C   0  0  0  0  0  0  0  0  0  0  0  0
   27.2655  -19.4177  -18.2978 C   0  0  0  0  0  0  0  0  0  0  0  0
   27.5756  -17.9863  -18.5893 C   0  0  0  0  0  0  0  0  0  0  0  0
   27.0045  -17.5449  -19.8256 N   0  0  0  0  0  0  0  0  0  0  0  0
   26.7557  -21.1514  -13.8207 C   0  0  0  0  0  0  0  0  0  0  0  0
   26.0752  -22.1789  -14.0822 O   0  0  0  0  0  0  0  0  0  0  0  0
   26.5076  -20.5379  -12.5531 N   0  0  0  0  0  0  0  0  0  0  0  0
   25.5123  -21.0441  -11.6695 C   0  0  1  0  0  0  0  0  0  0  0  0
   25.7815  -20.4224  -10.2878 C   0  0  0  0  0  0  0  0  0  0  0  0
   27.0879  -20.8135   -9.7608 C   0  0  0  0  0  0  0  0  0  0  0  0
   27.9993  -21.6735  -10.3168 C   0  0  0  0  0  0  0  0  0  0  0  0
   29.0906  -21.7736   -9.5196 N   0  0  0  0  0  0  0  0  0  0  0  0
   28.8788  -20.9833   -8.4607 C   0  0  0  0  0  0  0  0  0  0  0  0
   29.6773  -20.7306   -7.3658 C   0  0  0  0  0  0  0  0  0  0  0  0
   29.2693  -19.8700   -6.3699 C   0  0  0  0  0  0  0  0  0  0  0  0
   28.0396  -19.2616   -6.4886 C   0  0  0  0  0  0  0  0  0  0  0  0
   27.2483  -19.5158   -7.5794 C   0  0  0  0  0  0  0  0  0  0  0  0
   27.6444  -20.3745   -8.5828 C   0  0  0  0  0  0  0  0  0  0  0  0
   24.1295  -20.6710  -12.0087 C   0  0  0  0  0  0  0  0  0  0  0  0
   23.8702  -19.4901  -12.2959 O   0  0  0  0  0  0  0  0  0  0  0  0
   23.1227  -21.6456  -12.0042 N   0  0  0  0  0  0  0  0  0  0  0  0
   21.7724  -21.2558  -12.4717 C   0  0  1  0  0  0  0  0  0  0  0  0
   21.0414  -22.4704  -12.9559 C   0  0  0  0  0  0  0  0  0  0  0  0
   20.2394  -22.1549  -14.1357 C   0  0  0  0  0  0  0  0  0  0  0  0
   20.1840  -21.0054  -14.5973 O   0  0  0  0  0  0  0  0  0  0  0  0
   21.1170  -20.6735  -11.2501 C   0  0  0  0  0  0  0  0  0  0  0  0
   20.0665  -19.7950  -11.2993 O   0  0  0  0  0  0  0  0  0  0  0  0
   19.5195  -23.1610  -14.7605 O   0  0  0  0  0  0  0  0  0  0  0  0
   21.5310  -20.9879  -10.0985 O   0  0  0  0  0  0  0  0  0  0  0  0
  2  3  1  0
  2  1  1  6
  4  3  1  0
  5  4  1  0
  5  6  1  0
  7  6  1  0
  8  9  2  0
  8  2  1  0
 10  8  1  0
 11 10  1  0
 12 13  1  0
 11 12  1  1
 13 21  1  0
 14 13  2  0
 14 15  1  0
 15 16  1  0
 16 17  1  0
 17 18  2  0
 19 18  1  0
 20 19  2  0
 21 16  2  0
 21 20  1  0
 22 24  1  0
 22 11  1  0
 23 22  2  0
 25 24  1  0
 25 29  1  0
 25 26  1  1
 27 26  1  0
 28 27  2  0
 29 30  1  0
 31 27  1  0
 32 29  2  0
M  END
$$$$
