KWD.pdb
     RDKit          3D

 32 33  0  0  1  0  0  0  0  0999 V2000
   27.9601  -20.6423  -17.3662 N   0  0  0  0  0  0  0  0  0  0  0  0
   27.7374  -22.0044  -17.0438 C   0  0  1  0  0  0  0  0  0  0  0  0
   28.9740  -22.8754  -17.2346 C   0  0  0  0  0  0  0  0  0  0  0  0
   29.5537  -22.5020  -18.5510 C   0  0  0  0  0  0  0  0  0  0  0  0
   30.5522  -21.4140  -18.5912 C   0  0  0  0  0  0  0  0  0  0  0  0
   30.5121  -20.6482  -19.8727 C   0  0  0  0  0  0  0  0  0  0  0  0
   30.5238  -21.5038  -21.0204 N   0  0  0  0  0  0  0  0  0  0  0  0
   27.1732  -22.1231  -15.6901 C   0  0  0  0  0  0  0  0  0  0  0  0
   26.8004  -23.2095  -15.1725 O   0  0  0  0  0  0  0  0  0  0  0  0
   27.0223  -20.9549  -14.8793 N   0  0  0  0  0  0  0  0  0  0  0  0
   26.4338  -21.0253  -13.5846 C   0  0  1  0  0  0  0  0  0  0  0  0
   27.1457  -19.9774  -12.7110 C   0  0  0  0  0  0  0  0  0  0  0  0
   26.7512  -20.0814  -11.3071 C   0  0  0  0  0  0  0  0  0  0  0  0
   25.5257  -19.8166  -10.7528 C   0  0  0  0  0  0  0  0  0  0  0  0
   25.5634  -20.0336   -9.4156 N   0  0  0  0  0  0  0  0  0  0  0  0
   26.8046  -20.4342   -9.1164 C   0  0  0  0  0  0  0  0  0  0  0  0
   27.3590  -20.7805   -7.9027 C   0  0  0  0  0  0  0  0  0  0  0  0
   28.6767  -21.1726   -7.8072 C   0  0  0  0  0  0  0  0  0  0  0  0
   29.4363  -21.2128   -8.9551 C   0  0  0  0  0  0  0  0  0  0  0  0
   28.8810  -20.8675  -10.1604 C   0  0  0  0  0  0  0  0  0  0  0  0
   27.5642  -20.4735  -10.2700 C   0  0  0  0  0  0  0  0  0  0  0  0
   25.0039  -20.6805  -13.5302 C   0  0  0  0  0  0  0  0  0  0  0  0
   24.6221  -19.5912  -13.9904 O   0  0  0  0  0  0  0  0  0  0  0  0
   24.0906  -21.5787  -12.9622 N   0  0  0  0  0  0  0  0  0  0  0  0
   22.6456  -21.2833  -13.0977 C   0  0  1  0  0  0  0  0  0  0  0  0
   21.9338  -22.4964  -13.6133 C   0  0  0  0  0  0  0  0  0  0  0  0
   20.8407  -22.1146  -14.5044 C   0  0  0  0  0  0  0  0  0  0  0  0
   20.5189  -20.9285  -14.6696 O   0  0  0  0  0  0  0  0  0  0  0  0
   22.2090  -20.9459  -11.6988 C   0  0  0  0  0  0  0  0  0  0  0  0
   21.2255  -20.0366  -11.4101 O   0  0  0  0  0  0  0  0  0  0  0  0
   20.1410  -23.0977  -15.1861 O   0  0  0  0  0  0  0  0  0  0  0  0
   22.7570  -21.5113  -10.7107 O   0  0  0  0  0  0  0  0  0  0  0  0
  2  3  1  0
  2  1  1  1
  4  3  1  0
  5  4  1  0
  5  6  1  0
  7  6  1  0
  8  9  2  0
  8  2  1  0
 10  8  1  0
 11 10  1  0
 12 13  1  0
 11 12  1  1
 13 21  1  0
 14 13  2  0
 14 15  1  0
 15 16  1  0
 16 17  1  0
 17 18  2  0
 19 18  1  0
 20 19  2  0
 21 16  2  0
 21 20  1  0
 22 24  1  0
 22 11  1  0
 23 22  2  0
 25 24  1  0
 25 29  1  0
 25 26  1  1
 27 26  1  0
 28 27  2  0
 29 30  1  0
 31 27  1  0
 32 29  2  0
M  END
$$$$
