KWD.pdb
     RDKit          3D

 32 33  0  0  1  0  0  0  0  0999 V2000
   28.6681  -21.3185  -14.6349 N   0  0  0  0  0  0  0  0  0  0  0  0
   27.6211  -20.4170  -14.3191 C   0  0  1  0  0  0  0  0  0  0  0  0
   26.6729  -20.1669  -15.4863 C   0  0  0  0  0  0  0  0  0  0  0  0
   27.4803  -19.5222  -16.5545 C   0  0  0  0  0  0  0  0  0  0  0  0
   28.3584  -18.3943  -16.1819 C   0  0  0  0  0  0  0  0  0  0  0  0
   29.0654  -17.8070  -17.3590 C   0  0  0  0  0  0  0  0  0  0  0  0
   30.0122  -16.8018  -16.9812 N   0  0  0  0  0  0  0  0  0  0  0  0
   26.9126  -20.8612  -13.1084 C   0  0  0  0  0  0  0  0  0  0  0  0
   26.0127  -21.7428  -13.0994 O   0  0  0  0  0  0  0  0  0  0  0  0
   27.2372  -20.2801  -11.8428 N   0  0  0  0  0  0  0  0  0  0  0  0
   26.4857  -20.5893  -10.6734 C   0  0  1  0  0  0  0  0  0  0  0  0
   27.0751  -19.7490   -9.5267 C   0  0  0  0  0  0  0  0  0  0  0  0
   26.5742  -20.1812   -8.2231 C   0  0  0  0  0  0  0  0  0  0  0  0
   25.4583  -20.9307   -7.9536 C   0  0  0  0  0  0  0  0  0  0  0  0
   25.3358  -21.1184   -6.6171 N   0  0  0  0  0  0  0  0  0  0  0  0
   26.3660  -20.4933   -6.0354 C   0  0  0  0  0  0  0  0  0  0  0  0
   26.7016  -20.3828   -4.7029 C   0  0  0  0  0  0  0  0  0  0  0  0
   27.8218  -19.6852   -4.3058 C   0  0  0  0  0  0  0  0  0  0  0  0
   28.6067  -19.0956   -5.2715 C   0  0  0  0  0  0  0  0  0  0  0  0
   28.2693  -19.2079   -6.5959 C   0  0  0  0  0  0  0  0  0  0  0  0
   27.1515  -19.9028   -7.0068 C   0  0  0  0  0  0  0  0  0  0  0  0
   25.0599  -20.2294  -10.7354 C   0  0  0  0  0  0  0  0  0  0  0  0
   24.7342  -19.0964  -11.1283 O   0  0  0  0  0  0  0  0  0  0  0  0
   24.0874  -21.1627  -10.3522 N   0  0  0  0  0  0  0  0  0  0  0  0
   22.6823  -20.9071  -10.7449 C   0  0  1  0  0  0  0  0  0  0  0  0
   22.2278  -21.9717  -11.6957 C   0  0  0  0  0  0  0  0  0  0  0  0
   21.3458  -21.4108  -12.7165 C   0  0  0  0  0  0  0  0  0  0  0  0
   21.0407  -20.2090  -12.7249 O   0  0  0  0  0  0  0  0  0  0  0  0
   21.9233  -20.9710   -9.4484 C   0  0  0  0  0  0  0  0  0  0  0  0
   20.7119  -20.3628   -9.2483 O   0  0  0  0  0  0  0  0  0  0  0  0
   20.8331  -22.2369  -13.7042 O   0  0  0  0  0  0  0  0  0  0  0  0
   22.3979  -21.6108   -8.4676 O   0  0  0  0  0  0  0  0  0  0  0  0
  2  3  1  0
  2  1  1  6
  4  3  1  0
  5  4  1  0
  5  6  1  0
  7  6  1  0
  8  9  2  0
  8  2  1  0
 10  8  1  0
 11 10  1  0
 12 13  1  0
 11 12  1  1
 13 21  1  0
 14 13  2  0
 14 15  1  0
 15 16  1  0
 16 17  1  0
 17 18  2  0
 19 18  1  0
 20 19  2  0
 21 16  2  0
 21 20  1  0
 22 24  1  0
 22 11  1  0
 23 22  2  0
 25 24  1  0
 25 29  1  0
 25 26  1  6
 27 26  1  0
 28 27  2  0
 29 30  1  0
 31 27  1  0
 32 29  2  0
M  END
$$$$
