KEK.pdb
     RDKit          3D

 28 27  0  0  1  0  0  0  0  0999 V2000
   10.5975  -15.1325   17.9174 N   0  0  0  0  0  0  0  0  0  0  0  0
    9.6270  -14.5343   18.7389 C   0  0  1  0  0  0  0  0  0  0  0  0
    8.3217  -14.2013   18.0239 C   0  0  0  0  0  0  0  0  0  0  0  0
    8.3316  -14.6385   16.6096 C   0  0  0  0  0  0  0  0  0  0  0  0
    7.1065  -14.3747   15.8090 C   0  0  0  0  0  0  0  0  0  0  0  0
    7.1810  -14.9215   14.4035 C   0  0  0  0  0  0  0  0  0  0  0  0
    8.2684  -14.2595   13.6979 N   0  0  0  0  0  0  0  0  0  0  0  0
    9.3794  -15.2164   20.0114 C   0  0  0  0  0  0  0  0  0  0  0  0
    8.4198  -14.7716   20.7324 O   0  0  0  0  0  0  0  0  0  0  0  0
   10.0824  -16.2972   20.5146 N   0  0  0  0  0  0  0  0  0  0  0  0
    9.6647  -17.0262   21.7514 C   0  0  1  0  0  0  0  0  0  0  0  0
   10.4259  -18.2975   21.6985 C   0  0  0  0  0  0  0  0  0  0  0  0
   11.8701  -18.2460   21.3845 C   0  0  0  0  0  0  0  0  0  0  0  0
   12.6231  -19.1667   22.2624 C   0  0  0  0  0  0  0  0  0  0  0  0
   11.9630  -20.1147   22.8122 O   0  0  0  0  0  0  0  0  0  0  0  0
    9.8300  -16.1316   22.8764 C   0  0  0  0  0  0  0  0  0  0  0  0
   10.8466  -15.3553   22.9427 O   0  0  0  0  0  0  0  0  0  0  0  0
   13.9781  -19.0556   22.5134 O   0  0  0  0  0  0  0  0  0  0  0  0
    8.9129  -16.0526   23.9475 N   0  0  0  0  0  0  0  0  0  0  0  0
    9.1040  -15.1215   25.0396 C   0  0  1  0  0  0  0  0  0  0  0  0
    7.8280  -14.3283   25.1643 C   0  0  0  0  0  0  0  0  0  0  0  0
    7.8614  -13.3145   26.2610 C   0  0  0  0  0  0  0  0  0  0  0  0
    6.6104  -12.5083   26.3919 C   0  0  0  0  0  0  0  0  0  0  0  0
    6.7004  -11.4638   27.4839 C   0  0  0  0  0  0  0  0  0  0  0  0
    5.3914  -10.8026   27.5577 N   0  0  0  0  0  0  0  0  0  0  0  0
    9.4478  -15.8480   26.2694 C   0  0  0  0  0  0  0  0  0  0  0  0
    9.9364  -15.1388   27.3536 O   0  0  0  0  0  0  0  0  0  0  0  0
    9.3278  -17.0902   26.4104 O   0  0  0  0  0  0  0  0  0  0  0  0
  2  3  1  0
  2  1  1  6
  3  4  1  0
  5  4  1  0
  5  6  1  0
  7  6  1  0
  8  2  1  0
  8  9  2  0
 10  8  1  0
 11 10  1  0
 11 12  1  1
 13 12  1  0
 13 14  1  0
 14 15  2  0
 16 17  2  0
 16 11  1  0
 18 14  1  0
 19 16  1  0
 20 19  1  0
 20 21  1  1
 22 23  1  0
 22 21  1  0
 23 24  1  0
 24 25  1  0
 26 20  1  0
 27 26  1  0
 28 26  2  0
M  END
$$$$
