KEK.pdb
     RDKit          3D

 28 27  0  0  1  0  0  0  0  0999 V2000
    7.2817  -17.4376   19.1536 N   0  0  0  0  0  0  0  0  0  0  0  0
    8.1130  -16.6075   19.9247 C   0  0  1  0  0  0  0  0  0  0  0  0
    7.5167  -15.2379   20.2323 C   0  0  0  0  0  0  0  0  0  0  0  0
    7.6905  -14.2876   19.1107 C   0  0  0  0  0  0  0  0  0  0  0  0
    8.6650  -13.1810   19.3034 C   0  0  0  0  0  0  0  0  0  0  0  0
    8.6348  -12.1572   18.1939 C   0  0  0  0  0  0  0  0  0  0  0  0
    9.5240  -11.0589   18.5426 N   0  0  0  0  0  0  0  0  0  0  0  0
    8.6728  -17.2282   21.1276 C   0  0  0  0  0  0  0  0  0  0  0  0
    7.8504  -17.8064   21.9200 O   0  0  0  0  0  0  0  0  0  0  0  0
   10.0070  -17.2514   21.4951 N   0  0  0  0  0  0  0  0  0  0  0  0
   10.4638  -17.6984   22.8468 C   0  0  1  0  0  0  0  0  0  0  0  0
   11.8162  -18.2571   22.6069 C   0  0  0  0  0  0  0  0  0  0  0  0
   12.6157  -18.7010   23.7690 C   0  0  0  0  0  0  0  0  0  0  0  0
   13.9628  -19.1294   23.3363 C   0  0  0  0  0  0  0  0  0  0  0  0
   14.9101  -18.2784   23.4588 O   0  0  0  0  0  0  0  0  0  0  0  0
   10.2910  -16.5946   23.7661 C   0  0  0  0  0  0  0  0  0  0  0  0
   10.7109  -15.4242   23.4591 O   0  0  0  0  0  0  0  0  0  0  0  0
   14.2432  -20.3793   22.8161 O   0  0  0  0  0  0  0  0  0  0  0  0
    9.6677  -16.7239   25.0267 N   0  0  0  0  0  0  0  0  0  0  0  0
    9.6530  -15.6330   25.9786 C   0  0  1  0  0  0  0  0  0  0  0  0
    8.2842  -15.0060   25.9018 C   0  0  0  0  0  0  0  0  0  0  0  0
    8.1028  -13.8549   26.8366 C   0  0  0  0  0  0  0  0  0  0  0  0
    6.7601  -13.2045   26.7585 C   0  0  0  0  0  0  0  0  0  0  0  0
    6.6596  -11.9665   27.6238 C   0  0  0  0  0  0  0  0  0  0  0  0
    5.2860  -11.4629   27.4988 N   0  0  0  0  0  0  0  0  0  0  0  0
    9.9796  -16.1296   27.3221 C   0  0  0  0  0  0  0  0  0  0  0  0
   10.3160  -15.2201   28.3104 O   0  0  0  0  0  0  0  0  0  0  0  0
    9.9754  -17.3435   27.6445 O   0  0  0  0  0  0  0  0  0  0  0  0
  2  3  1  0
  2  1  1  1
  3  4  1  0
  5  4  1  0
  5  6  1  0
  7  6  1  0
  8  2  1  0
  8  9  2  0
 10  8  1  0
 11 10  1  0
 11 12  1  6
 13 12  1  0
 13 14  1  0
 14 15  2  0
 16 17  2  0
 16 11  1  0
 18 14  1  0
 19 16  1  0
 20 19  1  0
 20 21  1  1
 22 23  1  0
 22 21  1  0
 23 24  1  0
 24 25  1  0
 26 20  1  0
 27 26  1  0
 28 26  2  0
M  END
$$$$
