KEK.pdb
     RDKit          3D

 28 27  0  0  1  0  0  0  0  0999 V2000
    8.8462  -12.5359   18.6931 N   0  0  0  0  0  0  0  0  0  0  0  0
    8.0397  -13.6796   18.8209 C   0  0  1  0  0  0  0  0  0  0  0  0
    7.1327  -13.9422   17.6233 C   0  0  0  0  0  0  0  0  0  0  0  0
    7.9013  -14.1626   16.3775 C   0  0  0  0  0  0  0  0  0  0  0  0
    7.1352  -14.5740   15.1712 C   0  0  0  0  0  0  0  0  0  0  0  0
    8.0096  -14.8415   13.9695 C   0  0  0  0  0  0  0  0  0  0  0  0
    7.1624  -15.1981   12.8409 N   0  0  0  0  0  0  0  0  0  0  0  0
    8.7425  -14.8963   19.2350 C   0  0  0  0  0  0  0  0  0  0  0  0
    8.0396  -15.9581   19.3650 O   0  0  0  0  0  0  0  0  0  0  0  0
   10.0957  -15.0130   19.5015 N   0  0  0  0  0  0  0  0  0  0  0  0
   10.7297  -16.3052   19.9062 C   0  0  1  0  0  0  0  0  0  0  0  0
   11.6073  -16.6532   18.7629 C   0  0  0  0  0  0  0  0  0  0  0  0
   12.4850  -17.8378   18.8784 C   0  0  0  0  0  0  0  0  0  0  0  0
   11.9927  -18.9320   18.0147 C   0  0  0  0  0  0  0  0  0  0  0  0
   11.0684  -19.6769   18.4914 O   0  0  0  0  0  0  0  0  0  0  0  0
   11.2971  -16.1322   21.2259 C   0  0  0  0  0  0  0  0  0  0  0  0
   12.0705  -15.1418   21.4736 O   0  0  0  0  0  0  0  0  0  0  0  0
   12.4727  -19.1845   16.7431 O   0  0  0  0  0  0  0  0  0  0  0  0
   11.0476  -17.0139   22.3005 N   0  0  0  0  0  0  0  0  0  0  0  0
   11.6945  -16.8434   23.5845 C   0  0  1  0  0  0  0  0  0  0  0  0
   11.0062  -17.7778   24.5468 C   0  0  0  0  0  0  0  0  0  0  0  0
   11.6318  -17.8030   25.9031 C   0  0  0  0  0  0  0  0  0  0  0  0
   11.0654  -18.8353   26.8228 C   0  0  0  0  0  0  0  0  0  0  0  0
   11.5845  -18.7038   28.2388 C   0  0  0  0  0  0  0  0  0  0  0  0
   10.8995  -19.7215   29.0458 N   0  0  0  0  0  0  0  0  0  0  0  0
   13.1349  -17.1063   23.4640 C   0  0  0  0  0  0  0  0  0  0  0  0
   14.0153  -16.4012   24.2670 O   0  0  0  0  0  0  0  0  0  0  0  0
   13.6344  -17.9411   22.6696 O   0  0  0  0  0  0  0  0  0  0  0  0
  2  3  1  0
  2  1  1  6
  3  4  1  0
  5  4  1  0
  5  6  1  0
  7  6  1  0
  8  2  1  0
  8  9  2  0
 10  8  1  0
 11 10  1  0
 11 12  1  6
 13 12  1  0
 13 14  1  0
 14 15  2  0
 16 17  2  0
 16 11  1  0
 18 14  1  0
 19 16  1  0
 20 19  1  0
 20 21  1  1
 22 23  1  0
 22 21  1  0
 23 24  1  0
 24 25  1  0
 26 20  1  0
 27 26  1  0
 28 26  2  0
M  END
$$$$
