GKW.pdb
     RDKit          3D

 28 29  0  0  1  0  0  0  0  0999 V2000
   29.1823  -17.7478  -16.6559 N   0  0  0  0  0  0  0  0  0  0  0  0
   29.2510  -18.9578  -15.8497 C   0  0  0  0  0  0  0  0  0  0  0  0
   28.3748  -18.7884  -14.6284 C   0  0  0  0  0  0  0  0  0  0  0  0
   28.2445  -17.6650  -14.0845 O   0  0  0  0  0  0  0  0  0  0  0  0
   27.6844  -19.8840  -14.0715 N   0  0  0  0  0  0  0  0  0  0  0  0
   26.7165  -19.6136  -12.9947 C   0  0  1  0  0  0  0  0  0  0  0  0
   25.3712  -19.8420  -13.6276 C   0  0  0  0  0  0  0  0  0  0  0  0
   24.9207  -18.7371  -14.5038 C   0  0  0  0  0  0  0  0  0  0  0  0
   23.6187  -19.1041  -15.2081 C   0  0  0  0  0  0  0  0  0  0  0  0
   23.2581  -17.9245  -16.1019 C   0  0  0  0  0  0  0  0  0  0  0  0
   22.0735  -18.2345  -16.8420 N   0  0  0  0  0  0  0  0  0  0  0  0
   26.9243  -20.5872  -11.8863 C   0  0  0  0  0  0  0  0  0  0  0  0
   27.7216  -21.5234  -12.0946 O   0  0  0  0  0  0  0  0  0  0  0  0
   26.2516  -20.4672  -10.6429 N   0  0  0  0  0  0  0  0  0  0  0  0
   26.5192  -21.3906   -9.5842 C   0  0  1  0  0  0  0  0  0  0  0  0
   27.7850  -21.1575   -8.8406 C   0  0  0  0  0  0  0  0  0  0  0  0
   27.6664  -20.1040   -7.8177 C   0  0  0  0  0  0  0  0  0  0  0  0
   26.8762  -19.0079   -7.8172 C   0  0  0  0  0  0  0  0  0  0  0  0
   27.0999  -18.3066   -6.6652 N   0  0  0  0  0  0  0  0  0  0  0  0
   28.0171  -18.9363   -5.9341 C   0  0  0  0  0  0  0  0  0  0  0  0
   28.5971  -18.6638   -4.7110 C   0  0  0  0  0  0  0  0  0  0  0  0
   29.5488  -19.5396   -4.2091 C   0  0  0  0  0  0  0  0  0  0  0  0
   29.9108  -20.6637   -4.9181 C   0  0  0  0  0  0  0  0  0  0  0  0
   29.3370  -20.9467   -6.1431 C   0  0  0  0  0  0  0  0  0  0  0  0
   28.3904  -20.0595   -6.6241 C   0  0  0  0  0  0  0  0  0  0  0  0
   25.4015  -21.2267   -8.5759 C   0  0  0  0  0  0  0  0  0  0  0  0
   25.2674  -22.1294   -7.5194 O   0  0  0  0  0  0  0  0  0  0  0  0
   24.5676  -20.2970   -8.6425 O   0  0  0  0  0  0  0  0  0  0  0  0
  1  2  1  0
  2  3  1  0
  3  4  2  0
  5  6  1  0
  5  3  1  0
  6  7  1  6
  8  7  1  0
  9  8  1  0
 10  9  1  0
 11 10  1  0
 12  6  1  0
 12 13  2  0
 14 12  1  0
 15 14  1  0
 15 26  1  0
 15 16  1  1
 17 16  1  0
 18 17  2  0
 19 20  1  0
 19 18  1  0
 20 25  2  0
 21 20  1  0
 21 22  2  0
 22 23  1  0
 23 24  2  0
 25 17  1  0
 25 24  1  0
 26 28  2  0
 26 27  1  0
M  END
$$$$
