GKW.pdb
     RDKit          3D

 28 29  0  0  1  0  0  0  0  0999 V2000
   22.4445  -28.2980  -14.9194 N   0  0  0  0  0  0  0  0  0  0  0  0
   21.7757  -27.5485  -15.9727 C   0  0  0  0  0  0  0  0  0  0  0  0
   21.8232  -26.0744  -15.6370 C   0  0  0  0  0  0  0  0  0  0  0  0
   22.0200  -25.6921  -14.4581 O   0  0  0  0  0  0  0  0  0  0  0  0
   21.6483  -25.0954  -16.6361 N   0  0  0  0  0  0  0  0  0  0  0  0
   21.7422  -23.6803  -16.2384 C   0  0  1  0  0  0  0  0  0  0  0  0
   22.1416  -22.9584  -17.4961 C   0  0  0  0  0  0  0  0  0  0  0  0
   22.3087  -21.4972  -17.3265 C   0  0  0  0  0  0  0  0  0  0  0  0
   22.6474  -20.8352  -18.6580 C   0  0  0  0  0  0  0  0  0  0  0  0
   22.7080  -19.3357  -18.3973 C   0  0  0  0  0  0  0  0  0  0  0  0
   22.9545  -18.6494  -19.6283 N   0  0  0  0  0  0  0  0  0  0  0  0
   20.4051  -23.2035  -15.7861 C   0  0  0  0  0  0  0  0  0  0  0  0
   19.4069  -23.6858  -16.3574 O   0  0  0  0  0  0  0  0  0  0  0  0
   20.2586  -22.2434  -14.7518 N   0  0  0  0  0  0  0  0  0  0  0  0
   18.9585  -21.8916  -14.2710 C   0  0  1  0  0  0  0  0  0  0  0  0
   18.7906  -21.9412  -12.7948 C   0  0  0  0  0  0  0  0  0  0  0  0
   19.8628  -21.2382  -12.0693 C   0  0  0  0  0  0  0  0  0  0  0  0
   20.6784  -20.2537  -12.5070 C   0  0  0  0  0  0  0  0  0  0  0  0
   21.5271  -19.9046  -11.4937 N   0  0  0  0  0  0  0  0  0  0  0  0
   21.2663  -20.6485  -10.4210 C   0  0  0  0  0  0  0  0  0  0  0  0
   21.8167  -20.7036   -9.1558 C   0  0  0  0  0  0  0  0  0  0  0  0
   21.3083  -21.6147   -8.2414 C   0  0  0  0  0  0  0  0  0  0  0  0
   20.2709  -22.4518   -8.5880 C   0  0  0  0  0  0  0  0  0  0  0  0
   19.7119  -22.4055   -9.8512 C   0  0  0  0  0  0  0  0  0  0  0  0
   20.2348  -21.4893  -10.7467 C   0  0  0  0  0  0  0  0  0  0  0  0
   18.7248  -20.4508  -14.6738 C   0  0  0  0  0  0  0  0  0  0  0  0
   17.4860  -19.8480  -14.4480 O   0  0  0  0  0  0  0  0  0  0  0  0
   19.6102  -19.7522  -15.2143 O   0  0  0  0  0  0  0  0  0  0  0  0
  1  2  1  0
  2  3  1  0
  3  4  2  0
  5  6  1  0
  5  3  1  0
  6  7  1  6
  8  7  1  0
  9  8  1  0
 10  9  1  0
 11 10  1  0
 12  6  1  0
 12 13  2  0
 14 12  1  0
 15 14  1  0
 15 26  1  0
 15 16  1  1
 17 16  1  0
 18 17  2  0
 19 20  1  0
 19 18  1  0
 20 25  2  0
 21 20  1  0
 21 22  2  0
 22 23  1  0
 23 24  2  0
 25 17  1  0
 25 24  1  0
 26 28  2  0
 26 27  1  0
M  END
$$$$
