GKW.pdb
     RDKit          3D

 28 29  0  0  1  0  0  0  0  0999 V2000
   31.0152  -23.3764  -15.5656 N   0  0  0  0  0  0  0  0  0  0  0  0
   29.9296  -22.6478  -16.2054 C   0  0  0  0  0  0  0  0  0  0  0  0
   29.2949  -21.7186  -15.1946 C   0  0  0  0  0  0  0  0  0  0  0  0
   29.6434  -21.7489  -13.9895 O   0  0  0  0  0  0  0  0  0  0  0  0
   28.2989  -20.7979  -15.5788 N   0  0  0  0  0  0  0  0  0  0  0  0
   27.7296  -19.9243  -14.5384 C   0  0  1  0  0  0  0  0  0  0  0  0
   27.0917  -18.7943  -15.2991 C   0  0  0  0  0  0  0  0  0  0  0  0
   28.0594  -17.8457  -15.8954 C   0  0  0  0  0  0  0  0  0  0  0  0
   27.3356  -16.7743  -16.7040 C   0  0  0  0  0  0  0  0  0  0  0  0
   28.4121  -15.8885  -17.3178 C   0  0  0  0  0  0  0  0  0  0  0  0
   27.7965  -14.8992  -18.1481 N   0  0  0  0  0  0  0  0  0  0  0  0
   26.6886  -20.6723  -13.7792 C   0  0  0  0  0  0  0  0  0  0  0  0
   25.9058  -21.3843  -14.4394 O   0  0  0  0  0  0  0  0  0  0  0  0
   26.5807  -20.5880  -12.3671 N   0  0  0  0  0  0  0  0  0  0  0  0
   25.6756  -21.4395  -11.6592 C   0  0  1  0  0  0  0  0  0  0  0  0
   26.1420  -21.8936  -10.3227 C   0  0  0  0  0  0  0  0  0  0  0  0
   26.4526  -20.7785   -9.4116 C   0  0  0  0  0  0  0  0  0  0  0  0
   25.9032  -19.5449   -9.3634 C   0  0  0  0  0  0  0  0  0  0  0  0
   26.5035  -18.8366   -8.3599 N   0  0  0  0  0  0  0  0  0  0  0  0
   27.4235  -19.5966   -7.7700 C   0  0  0  0  0  0  0  0  0  0  0  0
   28.2995  -19.3764   -6.7256 C   0  0  0  0  0  0  0  0  0  0  0  0
   29.1557  -20.3978   -6.3404 C   0  0  0  0  0  0  0  0  0  0  0  0
   29.1338  -21.6131   -6.9882 C   0  0  0  0  0  0  0  0  0  0  0  0
   28.2613  -21.8451   -8.0347 C   0  0  0  0  0  0  0  0  0  0  0  0
   27.4168  -20.8124   -8.4017 C   0  0  0  0  0  0  0  0  0  0  0  0
   24.4212  -20.6276  -11.4146 C   0  0  0  0  0  0  0  0  0  0  0  0
   24.3706  -19.2812  -11.7806 O   0  0  0  0  0  0  0  0  0  0  0  0
   23.3979  -21.1149  -10.8860 O   0  0  0  0  0  0  0  0  0  0  0  0
  1  2  1  0
  2  3  1  0
  3  4  2  0
  5  6  1  0
  5  3  1  0
  6  7  1  6
  8  7  1  0
  9  8  1  0
 10  9  1  0
 11 10  1  0
 12  6  1  0
 12 13  2  0
 14 12  1  0
 15 14  1  0
 15 26  1  0
 15 16  1  1
 17 16  1  0
 18 17  2  0
 19 20  1  0
 19 18  1  0
 20 25  2  0
 21 20  1  0
 21 22  2  0
 22 23  1  0
 23 24  2  0
 25 17  1  0
 25 24  1  0
 26 28  2  0
 26 27  1  0
M  END
$$$$
