GKW.pdb
     RDKit          3D

 28 29  0  0  1  0  0  0  0  0999 V2000
   29.2873  -22.9576  -16.5703 N   0  0  0  0  0  0  0  0  0  0  0  0
   27.9005  -22.6001  -16.3104 C   0  0  0  0  0  0  0  0  0  0  0  0
   27.8463  -21.6562  -15.1297 C   0  0  0  0  0  0  0  0  0  0  0  0
   28.8043  -21.5848  -14.3224 O   0  0  0  0  0  0  0  0  0  0  0  0
   26.7222  -20.8353  -14.9064 N   0  0  0  0  0  0  0  0  0  0  0  0
   26.7122  -19.9944  -13.6971 C   0  0  1  0  0  0  0  0  0  0  0  0
   25.7067  -18.9157  -13.9934 C   0  0  0  0  0  0  0  0  0  0  0  0
   26.2997  -17.5720  -14.1792 C   0  0  0  0  0  0  0  0  0  0  0  0
   27.2296  -17.5555  -15.3879 C   0  0  0  0  0  0  0  0  0  0  0  0
   27.8980  -16.1869  -15.4060 C   0  0  0  0  0  0  0  0  0  0  0  0
   28.8908  -16.1571  -16.4359 N   0  0  0  0  0  0  0  0  0  0  0  0
   26.2540  -20.8053  -12.5342 C   0  0  0  0  0  0  0  0  0  0  0  0
   25.3931  -21.6801  -12.7556 O   0  0  0  0  0  0  0  0  0  0  0  0
   26.7659  -20.6023  -11.2266 N   0  0  0  0  0  0  0  0  0  0  0  0
   26.3834  -21.4718  -10.1576 C   0  0  1  0  0  0  0  0  0  0  0  0
   27.3941  -21.6393   -9.0804 C   0  0  0  0  0  0  0  0  0  0  0  0
   27.4329  -20.5016   -8.1453 C   0  0  0  0  0  0  0  0  0  0  0  0
   26.7730  -19.3245   -8.2143 C   0  0  0  0  0  0  0  0  0  0  0  0
   27.1165  -18.5652   -7.1306 N   0  0  0  0  0  0  0  0  0  0  0  0
   27.9818  -19.2374   -6.3747 C   0  0  0  0  0  0  0  0  0  0  0  0
   28.6327  -18.9385   -5.1942 C   0  0  0  0  0  0  0  0  0  0  0  0
   29.4962  -19.8765   -4.6472 C   0  0  0  0  0  0  0  0  0  0  0  0
   29.7022  -21.0876   -5.2703 C   0  0  0  0  0  0  0  0  0  0  0  0
   29.0561  -21.3979   -6.4520 C   0  0  0  0  0  0  0  0  0  0  0  0
   28.1998  -20.4475   -6.9792 C   0  0  0  0  0  0  0  0  0  0  0  0
   25.1704  -20.8442   -9.5039 C   0  0  0  0  0  0  0  0  0  0  0  0
   24.4017  -21.5752   -8.5961 O   0  0  0  0  0  0  0  0  0  0  0  0
   24.8108  -19.6703   -9.7420 O   0  0  0  0  0  0  0  0  0  0  0  0
  1  2  1  0
  2  3  1  0
  3  4  2  0
  5  6  1  0
  5  3  1  0
  6  7  1  6
  8  7  1  0
  9  8  1  0
 10  9  1  0
 11 10  1  0
 12  6  1  0
 12 13  2  0
 14 12  1  0
 15 14  1  0
 15 26  1  0
 15 16  1  1
 17 16  1  0
 18 17  2  0
 19 20  1  0
 19 18  1  0
 20 25  2  0
 21 20  1  0
 21 22  2  0
 22 23  1  0
 23 24  2  0
 25 17  1  0
 25 24  1  0
 26 28  2  0
 26 27  1  0
M  END
$$$$
