GKW.pdb
     RDKit          3D

 28 29  0  0  1  0  0  0  0  0999 V2000
   19.6784  -13.3183  -22.8720 N   0  0  0  0  0  0  0  0  0  0  0  0
   18.8654  -13.0799  -21.6884 C   0  0  0  0  0  0  0  0  0  0  0  0
   19.2423  -11.7422  -21.0912 C   0  0  0  0  0  0  0  0  0  0  0  0
   20.4223  -11.5104  -20.7329 O   0  0  0  0  0  0  0  0  0  0  0  0
   18.2811  -10.7250  -20.9223 N   0  0  0  0  0  0  0  0  0  0  0  0
   18.7311   -9.4366  -20.3679 C   0  0  1  0  0  0  0  0  0  0  0  0
   17.5357   -8.5321  -20.4915 C   0  0  0  0  0  0  0  0  0  0  0  0
   17.7692   -7.1531  -20.0063 C   0  0  0  0  0  0  0  0  0  0  0  0
   16.5233   -6.2952  -20.2000 C   0  0  0  0  0  0  0  0  0  0  0  0
   16.8694   -4.9015  -19.6919 C   0  0  0  0  0  0  0  0  0  0  0  0
   16.8432   -4.8976  -18.2614 N   0  0  0  0  0  0  0  0  0  0  0  0
   19.0843   -9.6124  -18.9313 C   0  0  0  0  0  0  0  0  0  0  0  0
   18.4017  -10.4229  -18.2735 O   0  0  0  0  0  0  0  0  0  0  0  0
   20.1480   -8.8959  -18.3246 N   0  0  0  0  0  0  0  0  0  0  0  0
   20.4659   -9.1039  -16.9458 C   0  0  1  0  0  0  0  0  0  0  0  0
   21.8919   -8.8938  -16.5824 C   0  0  0  0  0  0  0  0  0  0  0  0
   22.1386   -8.9993  -15.1339 C   0  0  0  0  0  0  0  0  0  0  0  0
   22.4713  -10.0892  -14.4077 C   0  0  0  0  0  0  0  0  0  0  0  0
   22.5955   -9.7214  -13.0968 N   0  0  0  0  0  0  0  0  0  0  0  0
   22.3482   -8.4189  -12.9766 C   0  0  0  0  0  0  0  0  0  0  0  0
   22.3353   -7.5577  -11.8974 C   0  0  0  0  0  0  0  0  0  0  0  0
   22.0290   -6.2211  -12.1083 C   0  0  0  0  0  0  0  0  0  0  0  0
   21.7421   -5.7585  -13.3736 C   0  0  0  0  0  0  0  0  0  0  0  0
   21.7522   -6.6111  -14.4613 C   0  0  0  0  0  0  0  0  0  0  0  0
   22.0602   -7.9396  -14.2274 C   0  0  0  0  0  0  0  0  0  0  0  0
   19.6752   -8.0783  -16.1612 C   0  0  0  0  0  0  0  0  0  0  0  0
   19.0643   -8.4306  -14.9563 O   0  0  0  0  0  0  0  0  0  0  0  0
   19.5370   -6.8971  -16.5481 O   0  0  0  0  0  0  0  0  0  0  0  0
  1  2  1  0
  2  3  1  0
  3  4  2  0
  5  6  1  0
  5  3  1  0
  6  7  1  1
  8  7  1  0
  9  8  1  0
 10  9  1  0
 11 10  1  0
 12  6  1  0
 12 13  2  0
 14 12  1  0
 15 14  1  0
 15 26  1  0
 15 16  1  6
 17 16  1  0
 18 17  2  0
 19 20  1  0
 19 18  1  0
 20 25  2  0
 21 20  1  0
 21 22  2  0
 22 23  1  0
 23 24  2  0
 25 17  1  0
 25 24  1  0
 26 28  2  0
 26 27  1  0
M  END
$$$$
