NQN.pdb
     RDKit          3D

 26 25  0  0  1  0  0  0  0  0999 V2000
    8.5614  -19.5867   15.8260 N   0  0  0  0  0  0  0  0  0  0  0  0
    8.3609  -18.3157   15.2603 C   0  0  0  0  0  0  0  0  0  0  0  0
    7.6750  -18.2216   14.2099 O   0  0  0  0  0  0  0  0  0  0  0  0
    8.9082  -17.0608   15.8219 C   0  0  0  0  0  0  0  0  0  0  0  0
    9.7761  -17.3107   17.0316 C   0  0  2  0  0  0  0  0  0  0  0  0
    9.0479  -17.8100   18.1522 N   0  0  0  0  0  0  0  0  0  0  0  0
   10.4590  -16.0081   17.3568 C   0  0  0  0  0  0  0  0  0  0  0  0
   11.2605  -15.4756   16.5485 O   0  0  0  0  0  0  0  0  0  0  0  0
    8.4007  -11.9105   18.1941 N   0  0  0  0  0  0  0  0  0  0  0  0
    7.9606  -13.1102   18.8156 C   0  0  0  0  0  0  0  0  0  0  0  0
    6.9884  -13.7068   18.3466 O   0  0  0  0  0  0  0  0  0  0  0  0
    8.6519  -13.6664   20.0282 C   0  0  0  0  0  0  0  0  0  0  0  0
   10.0950  -13.3162   19.9369 C   0  0  0  0  0  0  0  0  0  0  0  0
   10.9059  -14.0918   18.9549 C   0  0  2  0  0  0  0  0  0  0  0  0
   10.2163  -15.3434   18.5884 N   0  0  0  0  0  0  0  0  0  0  0  0
   12.2778  -14.3679   19.3805 C   0  0  0  0  0  0  0  0  0  0  0  0
   13.2583  -13.9108   18.7628 O   0  0  0  0  0  0  0  0  0  0  0  0
   15.5848  -14.3214   19.0254 N   0  0  0  0  0  0  0  0  0  0  0  0
   15.5528  -13.8070   20.3502 C   0  0  0  0  0  0  0  0  0  0  0  0
   16.3149  -12.8721   20.6593 O   0  0  0  0  0  0  0  0  0  0  0  0
   14.6235  -14.3876   21.3258 C   0  0  0  0  0  0  0  0  0  0  0  0
   13.8971  -15.6243   20.8723 C   0  0  2  0  0  0  0  0  0  0  0  0
   12.5256  -15.1739   20.5223 N   0  0  0  0  0  0  0  0  0  0  0  0
   13.7747  -16.5527   22.0351 C   0  0  0  0  0  0  0  0  0  0  0  0
   14.8571  -17.2099   22.5799 O   0  0  0  0  0  0  0  0  0  0  0  0
   12.6057  -16.7249   22.5219 O   0  0  0  0  0  0  0  0  0  0  0  0
  2  1  1  0
  2  3  2  0
  4  2  1  0
  5  7  1  0
  5  4  1  0
  5  6  1  1
  7  8  2  0
  9 10  1  0
 10 12  1  0
 11 10  2  0
 12 13  1  0
 14 13  1  1
 15  7  1  0
 15 14  1  0
 16 17  2  0
 16 14  1  0
 19 18  1  0
 19 21  1  0
 20 19  2  0
 22 21  1  1
 22 23  1  0
 23 16  1  0
 24 25  1  0
 24 22  1  0
 26 24  2  0
M  END
$$$$
