NQN.pdb
     RDKit          3D

 26 25  0  0  1  0  0  0  0  0999 V2000
    8.5401  -12.1562   17.9904 N   0  0  0  0  0  0  0  0  0  0  0  0
    8.0263  -13.4242   18.3127 C   0  0  0  0  0  0  0  0  0  0  0  0
    7.8552  -14.2610   17.3890 O   0  0  0  0  0  0  0  0  0  0  0  0
    7.6670  -13.8510   19.6832 C   0  0  0  0  0  0  0  0  0  0  0  0
    8.8192  -14.5243   20.3891 C   0  0  2  0  0  0  0  0  0  0  0  0
    9.2434  -15.7278   19.7509 N   0  0  0  0  0  0  0  0  0  0  0  0
    8.3750  -14.7810   21.8053 C   0  0  0  0  0  0  0  0  0  0  0  0
    7.9251  -13.8527   22.5231 O   0  0  0  0  0  0  0  0  0  0  0  0
    5.8299  -19.8572   23.8915 N   0  0  0  0  0  0  0  0  0  0  0  0
    5.1758  -18.7117   23.3631 C   0  0  0  0  0  0  0  0  0  0  0  0
    4.0095  -18.8127   22.9750 O   0  0  0  0  0  0  0  0  0  0  0  0
    5.8721  -17.3836   23.2670 C   0  0  0  0  0  0  0  0  0  0  0  0
    7.2117  -17.5192   23.8999 C   0  0  0  0  0  0  0  0  0  0  0  0
    8.1228  -16.3442   23.7847 C   0  0  2  0  0  0  0  0  0  0  0  0
    8.4520  -16.0817   22.3709 N   0  0  0  0  0  0  0  0  0  0  0  0
    9.3425  -16.4380   24.5865 C   0  0  0  0  0  0  0  0  0  0  0  0
    9.9451  -17.5181   24.7357 O   0  0  0  0  0  0  0  0  0  0  0  0
   10.4538  -13.8882   29.0629 N   0  0  0  0  0  0  0  0  0  0  0  0
    9.1894  -14.4296   28.7040 C   0  0  0  0  0  0  0  0  0  0  0  0
    8.2137  -14.2496   29.4563 O   0  0  0  0  0  0  0  0  0  0  0  0
    9.0595  -15.1889   27.4554 C   0  0  0  0  0  0  0  0  0  0  0  0
   10.3165  -15.3127   26.6385 C   0  0  2  0  0  0  0  0  0  0  0  0
    9.8738  -15.2848   25.2210 N   0  0  0  0  0  0  0  0  0  0  0  0
   10.9120  -16.6586   26.8897 C   0  0  0  0  0  0  0  0  0  0  0  0
   10.4399  -17.8053   26.2878 O   0  0  0  0  0  0  0  0  0  0  0  0
   11.8973  -16.7167   27.7014 O   0  0  0  0  0  0  0  0  0  0  0  0
  2  1  1  0
  2  3  2  0
  4  2  1  0
  5  7  1  0
  5  4  1  0
  5  6  1  6
  7  8  2  0
  9 10  1  0
 10 12  1  0
 11 10  2  0
 12 13  1  0
 14 13  1  6
 15  7  1  0
 15 14  1  0
 16 17  2  0
 16 14  1  0
 19 18  1  0
 19 21  1  0
 20 19  2  0
 22 21  1  1
 22 23  1  0
 23 16  1  0
 24 25  1  0
 24 22  1  0
 26 24  2  0
M  END
$$$$
