NQN.pdb
     RDKit          3D

 26 25  0  0  1  0  0  0  0  0999 V2000
   12.8309  -17.7875   13.9352 N   0  0  0  0  0  0  0  0  0  0  0  0
   11.5751  -17.4963   14.4956 C   0  0  0  0  0  0  0  0  0  0  0  0
   10.6617  -17.0670   13.7445 O   0  0  0  0  0  0  0  0  0  0  0  0
   11.2465  -17.6617   15.9288 C   0  0  0  0  0  0  0  0  0  0  0  0
   12.4311  -18.1430   16.7314 C   0  0  2  0  0  0  0  0  0  0  0  0
   12.4761  -19.5621   16.8712 N   0  0  0  0  0  0  0  0  0  0  0  0
   12.3571  -17.4612   18.0726 C   0  0  0  0  0  0  0  0  0  0  0  0
   12.6078  -16.2357   18.1929 O   0  0  0  0  0  0  0  0  0  0  0  0
    9.0817  -19.5631   22.9724 N   0  0  0  0  0  0  0  0  0  0  0  0
    8.6399  -19.2423   21.6605 C   0  0  0  0  0  0  0  0  0  0  0  0
    7.5052  -19.5765   21.3113 O   0  0  0  0  0  0  0  0  0  0  0  0
    9.5224  -18.5068   20.6919 C   0  0  0  0  0  0  0  0  0  0  0  0
   10.8153  -18.2229   21.3711 C   0  0  0  0  0  0  0  0  0  0  0  0
   11.8560  -17.5322   20.5564 C   0  0  2  0  0  0  0  0  0  0  0  0
   12.0014  -18.1854   19.2417 N   0  0  0  0  0  0  0  0  0  0  0  0
   13.1572  -17.4039   21.2120 C   0  0  0  0  0  0  0  0  0  0  0  0
   13.9562  -18.3579   21.2709 O   0  0  0  0  0  0  0  0  0  0  0  0
   15.6531  -15.4254   19.8068 N   0  0  0  0  0  0  0  0  0  0  0  0
   15.6756  -14.3500   20.7361 C   0  0  0  0  0  0  0  0  0  0  0  0
   16.0173  -13.2171   20.3487 O   0  0  0  0  0  0  0  0  0  0  0  0
   15.2960  -14.5963   22.1317 C   0  0  0  0  0  0  0  0  0  0  0  0
   14.8707  -16.0039   22.4488 C   0  0  2  0  0  0  0  0  0  0  0  0
   13.5435  -16.1729   21.8038 N   0  0  0  0  0  0  0  0  0  0  0  0
   14.6632  -16.1133   23.9233 C   0  0  0  0  0  0  0  0  0  0  0  0
   15.6881  -16.3988   24.7999 O   0  0  0  0  0  0  0  0  0  0  0  0
   13.4759  -15.9306   24.3591 O   0  0  0  0  0  0  0  0  0  0  0  0
  2  1  1  0
  2  3  2  0
  4  2  1  0
  5  7  1  0
  5  4  1  0
  5  6  1  1
  7  8  2  0
  9 10  1  0
 10 12  1  0
 11 10  2  0
 12 13  1  0
 14 13  1  1
 15  7  1  0
 15 14  1  0
 16 17  2  0
 16 14  1  0
 19 18  1  0
 19 21  1  0
 20 19  2  0
 22 21  1  1
 22 23  1  0
 23 16  1  0
 24 25  1  0
 24 22  1  0
 26 24  2  0
M  END
$$$$
