NQN.pdb
     RDKit          3D

 26 25  0  0  1  0  0  0  0  0999 V2000
    6.8794  -12.3288   18.0984 N   0  0  0  0  0  0  0  0  0  0  0  0
    7.7865  -13.3200   18.5111 C   0  0  0  0  0  0  0  0  0  0  0  0
    8.6534  -13.7254   17.6946 O   0  0  0  0  0  0  0  0  0  0  0  0
    7.7938  -13.9298   19.8593 C   0  0  0  0  0  0  0  0  0  0  0  0
    9.1529  -14.4723   20.2302 C   0  0  2  0  0  0  0  0  0  0  0  0
    9.7301  -15.2870   19.2110 N   0  0  0  0  0  0  0  0  0  0  0  0
    8.9822  -15.2393   21.5153 C   0  0  0  0  0  0  0  0  0  0  0  0
    8.0800  -14.9378   22.3365 O   0  0  0  0  0  0  0  0  0  0  0  0
   11.2007  -20.9382   22.3077 N   0  0  0  0  0  0  0  0  0  0  0  0
    9.9574  -20.6328   21.6911 C   0  0  0  0  0  0  0  0  0  0  0  0
    9.4233  -21.4771   20.9679 O   0  0  0  0  0  0  0  0  0  0  0  0
    9.2810  -19.3075   21.9003 C   0  0  0  0  0  0  0  0  0  0  0  0
   10.0963  -18.5217   22.8654 C   0  0  0  0  0  0  0  0  0  0  0  0
    9.6869  -17.1040   23.0811 C   0  0  2  0  0  0  0  0  0  0  0  0
    9.8374  -16.3271   21.8360 N   0  0  0  0  0  0  0  0  0  0  0  0
   10.3684  -16.4348   24.1888 C   0  0  0  0  0  0  0  0  0  0  0  0
   11.5303  -16.0004   24.0745 O   0  0  0  0  0  0  0  0  0  0  0  0
   11.0487  -14.1045   28.8770 N   0  0  0  0  0  0  0  0  0  0  0  0
    9.7296  -13.9433   28.3723 C   0  0  0  0  0  0  0  0  0  0  0  0
    8.9451  -13.1707   28.9537 O   0  0  0  0  0  0  0  0  0  0  0  0
    9.3195  -14.6898   27.1777 C   0  0  0  0  0  0  0  0  0  0  0  0
   10.3741  -15.5765   26.5740 C   0  0  2  0  0  0  0  0  0  0  0  0
    9.7119  -16.2632   25.4355 N   0  0  0  0  0  0  0  0  0  0  0  0
   10.7371  -16.6252   27.5727 C   0  0  0  0  0  0  0  0  0  0  0  0
   11.6794  -16.4204   28.5577 O   0  0  0  0  0  0  0  0  0  0  0  0
   10.1329  -17.7477   27.4836 O   0  0  0  0  0  0  0  0  0  0  0  0
  2  1  1  0
  2  3  2  0
  4  2  1  0
  5  7  1  0
  5  4  1  0
  5  6  1  6
  7  8  2  0
  9 10  1  0
 10 12  1  0
 11 10  2  0
 12 13  1  0
 14 13  1  6
 15  7  1  0
 15 14  1  0
 16 17  2  0
 16 14  1  0
 19 18  1  0
 19 21  1  0
 20 19  2  0
 22 21  1  1
 22 23  1  0
 23 16  1  0
 24 25  1  0
 24 22  1  0
 26 24  2  0
M  END
$$$$
