NQN.pdb
     RDKit          3D

 26 25  0  0  1  0  0  0  0  0999 V2000
    7.8594  -12.0587   18.0475 N   0  0  0  0  0  0  0  0  0  0  0  0
    7.7382  -13.4092   18.4177 C   0  0  0  0  0  0  0  0  0  0  0  0
    8.0246  -14.2967   17.5733 O   0  0  0  0  0  0  0  0  0  0  0  0
    7.2907  -13.8679   19.7515 C   0  0  0  0  0  0  0  0  0  0  0  0
    8.2931  -14.7914   20.4007 C   0  0  2  0  0  0  0  0  0  0  0  0
    8.4772  -16.0125   19.6863 N   0  0  0  0  0  0  0  0  0  0  0  0
    7.8099  -15.0441   21.8048 C   0  0  0  0  0  0  0  0  0  0  0  0
    7.5091  -14.0930   22.5692 O   0  0  0  0  0  0  0  0  0  0  0  0
    5.0961  -20.2113   23.9932 N   0  0  0  0  0  0  0  0  0  0  0  0
    6.4375  -20.3479   23.5447 C   0  0  0  0  0  0  0  0  0  0  0  0
    6.8698  -21.4721   23.2797 O   0  0  0  0  0  0  0  0  0  0  0  0
    7.3385  -19.1557   23.3866 C   0  0  0  0  0  0  0  0  0  0  0  0
    6.5783  -17.9458   23.8009 C   0  0  0  0  0  0  0  0  0  0  0  0
    7.2980  -16.6434   23.7037 C   0  0  2  0  0  0  0  0  0  0  0  0
    7.6803  -16.3669   22.3060 N   0  0  0  0  0  0  0  0  0  0  0  0
    8.4577  -16.5207   24.5865 C   0  0  0  0  0  0  0  0  0  0  0  0
    9.6203  -16.6620   24.1618 O   0  0  0  0  0  0  0  0  0  0  0  0
   11.1509  -15.1793   28.9528 N   0  0  0  0  0  0  0  0  0  0  0  0
   10.0068  -14.3702   28.7134 C   0  0  0  0  0  0  0  0  0  0  0  0
    9.8405  -13.3359   29.3864 O   0  0  0  0  0  0  0  0  0  0  0  0
    9.0460  -14.7697   27.6792 C   0  0  0  0  0  0  0  0  0  0  0  0
    9.4392  -15.9665   26.8571 C   0  0  2  0  0  0  0  0  0  0  0  0
    8.2818  -16.2339   25.9655 N   0  0  0  0  0  0  0  0  0  0  0  0
    9.5761  -17.1409   27.7687 C   0  0  0  0  0  0  0  0  0  0  0  0
   10.7490  -17.4372   28.4297 O   0  0  0  0  0  0  0  0  0  0  0  0
    8.5468  -17.8828   27.9208 O   0  0  0  0  0  0  0  0  0  0  0  0
  2  1  1  0
  2  3  2  0
  4  2  1  0
  5  7  1  0
  5  4  1  0
  5  6  1  6
  7  8  2  0
  9 10  1  0
 10 12  1  0
 11 10  2  0
 12 13  1  0
 14 13  1  6
 15  7  1  0
 15 14  1  0
 16 17  2  0
 16 14  1  0
 19 18  1  0
 19 21  1  0
 20 19  2  0
 22 21  1  1
 22 23  1  0
 23 16  1  0
 24 25  1  0
 24 22  1  0
 26 24  2  0
M  END
$$$$
