NQN.pdb
     RDKit          3D

 26 25  0  0  1  0  0  0  0  0999 V2000
    7.1019  -12.3766   18.2860 N   0  0  0  0  0  0  0  0  0  0  0  0
    7.9832  -13.1197   19.0902 C   0  0  0  0  0  0  0  0  0  0  0  0
    9.0283  -13.5887   18.5701 O   0  0  0  0  0  0  0  0  0  0  0  0
    7.7652  -13.3934   20.5280 C   0  0  0  0  0  0  0  0  0  0  0  0
    8.1720  -14.7969   20.9072 C   0  0  2  0  0  0  0  0  0  0  0  0
    7.6919  -15.7862   19.9982 N   0  0  0  0  0  0  0  0  0  0  0  0
    7.6597  -15.0390   22.3029 C   0  0  0  0  0  0  0  0  0  0  0  0
    6.9422  -14.1890   22.8878 O   0  0  0  0  0  0  0  0  0  0  0  0
    6.8688  -20.8770   25.6437 N   0  0  0  0  0  0  0  0  0  0  0  0
    6.4778  -19.9829   24.6107 C   0  0  0  0  0  0  0  0  0  0  0  0
    5.3664  -20.1145   24.0924 O   0  0  0  0  0  0  0  0  0  0  0  0
    7.3862  -18.8836   24.1374 C   0  0  0  0  0  0  0  0  0  0  0  0
    6.8911  -17.6005   24.7050 C   0  0  0  0  0  0  0  0  0  0  0  0
    7.7263  -16.3928   24.4449 C   0  0  2  0  0  0  0  0  0  0  0  0
    7.9736  -16.2367   22.9989 N   0  0  0  0  0  0  0  0  0  0  0  0
    8.9854  -16.3510   25.1880 C   0  0  0  0  0  0  0  0  0  0  0  0
    9.7100  -17.3578   25.3032 O   0  0  0  0  0  0  0  0  0  0  0  0
    5.8589  -13.2186   26.6435 N   0  0  0  0  0  0  0  0  0  0  0  0
    7.2120  -13.3663   27.0534 C   0  0  0  0  0  0  0  0  0  0  0  0
    7.9461  -12.3619   27.1045 O   0  0  0  0  0  0  0  0  0  0  0  0
    7.7158  -14.6978   27.4078 C   0  0  0  0  0  0  0  0  0  0  0  0
    9.1991  -14.8924   27.2503 C   0  0  2  0  0  0  0  0  0  0  0  0
    9.4152  -15.1460   25.8028 N   0  0  0  0  0  0  0  0  0  0  0  0
    9.5923  -16.1339   27.9806 C   0  0  0  0  0  0  0  0  0  0  0  0
   10.7958  -16.2592   28.6410 O   0  0  0  0  0  0  0  0  0  0  0  0
    8.7582  -17.1020   27.9737 O   0  0  0  0  0  0  0  0  0  0  0  0
  2  1  1  0
  2  3  2  0
  4  2  1  0
  5  7  1  0
  5  4  1  0
  5  6  1  6
  7  8  2  0
  9 10  1  0
 10 12  1  0
 11 10  2  0
 12 13  1  0
 14 13  1  6
 15  7  1  0
 15 14  1  0
 16 17  2  0
 16 14  1  0
 19 18  1  0
 19 21  1  0
 20 19  2  0
 22 21  1  6
 22 23  1  0
 23 16  1  0
 24 25  1  0
 24 22  1  0
 26 24  2  0
M  END
$$$$
