NQN.pdb
     RDKit          3D

 26 25  0  0  1  0  0  0  0  0999 V2000
   13.4330  -17.2344   12.6257 N   0  0  0  0  0  0  0  0  0  0  0  0
   12.9457  -15.9229   12.4911 C   0  0  0  0  0  0  0  0  0  0  0  0
   13.3441  -15.2252   11.5230 O   0  0  0  0  0  0  0  0  0  0  0  0
   11.9821  -15.2952   13.4222 C   0  0  0  0  0  0  0  0  0  0  0  0
   11.6677  -16.1857   14.6001 C   0  0  2  0  0  0  0  0  0  0  0  0
   10.4223  -16.8696   14.4710 N   0  0  0  0  0  0  0  0  0  0  0  0
   11.6899  -15.3122   15.8271 C   0  0  0  0  0  0  0  0  0  0  0  0
   12.7377  -14.7150   16.1802 O   0  0  0  0  0  0  0  0  0  0  0  0
    6.9221  -12.2710   19.0423 N   0  0  0  0  0  0  0  0  0  0  0  0
    7.6411  -13.1024   19.9429 C   0  0  0  0  0  0  0  0  0  0  0  0
    7.0633  -13.5520   20.9354 O   0  0  0  0  0  0  0  0  0  0  0  0
    9.0861  -13.4448   19.7132 C   0  0  0  0  0  0  0  0  0  0  0  0
    9.1939  -14.1261   18.3950 C   0  0  0  0  0  0  0  0  0  0  0  0
   10.5681  -14.4945   17.9480 C   0  0  2  0  0  0  0  0  0  0  0  0
   10.5253  -15.1385   16.6215 N   0  0  0  0  0  0  0  0  0  0  0  0
   11.3159  -15.3208   18.8954 C   0  0  0  0  0  0  0  0  0  0  0  0
   11.2889  -16.5651   18.8405 O   0  0  0  0  0  0  0  0  0  0  0  0
   16.2062  -15.5693   20.3266 N   0  0  0  0  0  0  0  0  0  0  0  0
   15.1320  -14.6413   20.2509 C   0  0  0  0  0  0  0  0  0  0  0  0
   15.1167  -13.8009   19.3323 O   0  0  0  0  0  0  0  0  0  0  0  0
   14.0641  -14.6924   21.2555 C   0  0  0  0  0  0  0  0  0  0  0  0
   12.8685  -15.5282   20.8884 C   0  0  2  0  0  0  0  0  0  0  0  0
   12.0996  -14.7149   19.9120 N   0  0  0  0  0  0  0  0  0  0  0  0
   12.0136  -15.6875   22.1020 C   0  0  0  0  0  0  0  0  0  0  0  0
   12.3855  -16.4656   23.1774 O   0  0  0  0  0  0  0  0  0  0  0  0
   10.8974  -15.0655   22.1133 O   0  0  0  0  0  0  0  0  0  0  0  0
  2  1  1  0
  2  3  2  0
  4  2  1  0
  5  7  1  0
  5  4  1  0
  5  6  1  6
  7  8  2  0
  9 10  1  0
 10 12  1  0
 11 10  2  0
 12 13  1  0
 14 13  1  1
 15  7  1  0
 15 14  1  0
 16 17  2  0
 16 14  1  0
 19 18  1  0
 19 21  1  0
 20 19  2  0
 22 21  1  1
 22 23  1  0
 23 16  1  0
 24 25  1  0
 24 22  1  0
 26 24  2  0
M  END
$$$$
