NQN.pdb
     RDKit          3D

 26 25  0  0  1  0  0  0  0  0999 V2000
   13.9223  -16.9515   14.8713 N   0  0  0  0  0  0  0  0  0  0  0  0
   14.3026  -15.6013   14.7825 C   0  0  0  0  0  0  0  0  0  0  0  0
   14.5300  -15.1095   13.6471 O   0  0  0  0  0  0  0  0  0  0  0  0
   14.4567  -14.7033   15.9485 C   0  0  0  0  0  0  0  0  0  0  0  0
   14.2081  -15.4196   17.2540 C   0  0  2  0  0  0  0  0  0  0  0  0
   13.5559  -16.6777   17.0895 N   0  0  0  0  0  0  0  0  0  0  0  0
   13.3962  -14.4887   18.1162 C   0  0  0  0  0  0  0  0  0  0  0  0
   13.9392  -13.5436   18.7418 O   0  0  0  0  0  0  0  0  0  0  0  0
    7.1883  -14.0121   17.8154 N   0  0  0  0  0  0  0  0  0  0  0  0
    7.4482  -13.0707   18.8476 C   0  0  0  0  0  0  0  0  0  0  0  0
    6.5131  -12.4100   19.3061 O   0  0  0  0  0  0  0  0  0  0  0  0
    8.8335  -12.8631   19.3913 C   0  0  0  0  0  0  0  0  0  0  0  0
    9.7531  -13.7865   18.6736 C   0  0  0  0  0  0  0  0  0  0  0  0
   11.1767  -13.7842   19.1176 C   0  0  2  0  0  0  0  0  0  0  0  0
   11.9914  -14.6529   18.2470 N   0  0  0  0  0  0  0  0  0  0  0  0
   11.3771  -14.1344   20.5235 C   0  0  0  0  0  0  0  0  0  0  0  0
   10.7168  -13.5951   21.4319 O   0  0  0  0  0  0  0  0  0  0  0  0
   12.2376  -16.8121   24.8107 N   0  0  0  0  0  0  0  0  0  0  0  0
   11.1244  -16.9154   23.9327 C   0  0  0  0  0  0  0  0  0  0  0  0
   10.1057  -17.5243   24.3095 O   0  0  0  0  0  0  0  0  0  0  0  0
   11.1980  -16.3030   22.6015 C   0  0  0  0  0  0  0  0  0  0  0  0
   12.4792  -15.5783   22.2916 C   0  0  2  0  0  0  0  0  0  0  0  0
   12.3415  -15.1096   20.8889 N   0  0  0  0  0  0  0  0  0  0  0  0
   13.5987  -16.5658   22.3203 C   0  0  0  0  0  0  0  0  0  0  0  0
   14.6642  -16.4579   23.1882 O   0  0  0  0  0  0  0  0  0  0  0  0
   13.5379  -17.5386   21.4938 O   0  0  0  0  0  0  0  0  0  0  0  0
  2  1  1  0
  2  3  2  0
  4  2  1  0
  5  7  1  0
  5  4  1  0
  5  6  1  6
  7  8  2  0
  9 10  1  0
 10 12  1  0
 11 10  2  0
 12 13  1  0
 14 13  1  6
 15  7  1  0
 15 14  1  0
 16 17  2  0
 16 14  1  0
 19 18  1  0
 19 21  1  0
 20 19  2  0
 22 21  1  6
 22 23  1  0
 23 16  1  0
 24 25  1  0
 24 22  1  0
 26 24  2  0
M  END
$$$$
