NQN.pdb
     RDKit          3D

 26 25  0  0  1  0  0  0  0  0999 V2000
   14.8791  -16.3246   15.0398 N   0  0  0  0  0  0  0  0  0  0  0  0
   14.6988  -14.9450   15.2395 C   0  0  0  0  0  0  0  0  0  0  0  0
   15.1772  -14.1434   14.3962 O   0  0  0  0  0  0  0  0  0  0  0  0
   13.9746  -14.3599   16.3896 C   0  0  0  0  0  0  0  0  0  0  0  0
   13.5192  -15.4137   17.3700 C   0  0  2  0  0  0  0  0  0  0  0  0
   12.5373  -16.2968   16.8302 N   0  0  0  0  0  0  0  0  0  0  0  0
   12.9973  -14.6874   18.5821 C   0  0  0  0  0  0  0  0  0  0  0  0
   13.7240  -13.8863   19.2220 O   0  0  0  0  0  0  0  0  0  0  0  0
    7.2354  -12.6710   19.4448 N   0  0  0  0  0  0  0  0  0  0  0  0
    7.9294  -13.1769   18.3127 C   0  0  0  0  0  0  0  0  0  0  0  0
    7.3850  -13.1338   17.2069 O   0  0  0  0  0  0  0  0  0  0  0  0
    9.3083  -13.7616   18.4330 C   0  0  0  0  0  0  0  0  0  0  0  0
    9.7397  -13.6359   19.8513 C   0  0  0  0  0  0  0  0  0  0  0  0
   11.1054  -14.1384   20.1773 C   0  0  2  0  0  0  0  0  0  0  0  0
   11.6667  -14.8875   19.0371 N   0  0  0  0  0  0  0  0  0  0  0  0
   11.1859  -14.9331   21.4026 C   0  0  0  0  0  0  0  0  0  0  0  0
   10.6493  -14.5568   22.4621 O   0  0  0  0  0  0  0  0  0  0  0  0
    9.2339  -17.8834   23.1505 N   0  0  0  0  0  0  0  0  0  0  0  0
   10.1235  -18.4043   22.1717 C   0  0  0  0  0  0  0  0  0  0  0  0
    9.6578  -18.9293   21.1432 O   0  0  0  0  0  0  0  0  0  0  0  0
   11.5709  -18.3128   22.3928 C   0  0  0  0  0  0  0  0  0  0  0  0
   12.0983  -16.9311   22.6680 C   0  0  2  0  0  0  0  0  0  0  0  0
   11.8868  -16.1674   21.4118 N   0  0  0  0  0  0  0  0  0  0  0  0
   13.5723  -17.0236   22.8867 C   0  0  0  0  0  0  0  0  0  0  0  0
   14.4905  -16.5087   21.9968 O   0  0  0  0  0  0  0  0  0  0  0  0
   13.9671  -17.6106   23.9510 O   0  0  0  0  0  0  0  0  0  0  0  0
  2  1  1  0
  2  3  2  0
  4  2  1  0
  5  7  1  0
  5  4  1  0
  5  6  1  6
  7  8  2  0
  9 10  1  0
 10 12  1  0
 11 10  2  0
 12 13  1  0
 14 13  1  6
 15  7  1  0
 15 14  1  0
 16 17  2  0
 16 14  1  0
 19 18  1  0
 19 21  1  0
 20 19  2  0
 22 21  1  6
 22 23  1  0
 23 16  1  0
 24 25  1  0
 24 22  1  0
 26 24  2  0
M  END
$$$$
