MDA.pdb
     RDKit          3D

 22 21  0  0  1  0  0  0  0  0999 V2000
   18.6632  -15.4878  -16.3021 C   0  0  0  0  0  0  0  0  0  0  0  0
   18.4800  -13.9317  -15.4388 S   0  0  0  0  0  0  0  0  0  0  0  0
   19.0052  -12.5358  -16.3867 C   0  0  0  0  0  0  0  0  0  0  0  0
   18.9782  -11.1924  -15.7773 C   0  0  0  0  0  0  0  0  0  0  0  0
   19.5472  -10.0474  -16.5212 C   0  0  2  0  0  0  0  0  0  0  0  0
   20.9656  -10.2571  -16.8546 N   0  0  0  0  0  0  0  0  0  0  0  0
   19.5276   -8.8690  -15.5785 C   0  0  0  0  0  0  0  0  0  0  0  0
   18.6958   -8.8874  -14.6456 O   0  0  0  0  0  0  0  0  0  0  0  0
   20.3990   -7.7637  -15.7057 N   0  0  0  0  0  0  0  0  0  0  0  0
   20.3241   -6.5759  -14.8549 C   0  0  1  0  0  0  0  0  0  0  0  0
   21.6718   -6.2953  -14.2614 C   0  0  0  0  0  0  0  0  0  0  0  0
   21.7638   -5.1166  -13.4024 C   0  0  0  0  0  0  0  0  0  0  0  0
   20.9818   -4.1442  -13.4041 O   0  0  0  0  0  0  0  0  0  0  0  0
   19.7894   -5.4840  -15.6952 C   0  0  0  0  0  0  0  0  0  0  0  0
   20.3287   -5.1577  -16.7800 O   0  0  0  0  0  0  0  0  0  0  0  0
   22.8161   -5.0291  -12.4728 O   0  0  0  0  0  0  0  0  0  0  0  0
   16.6213   -3.5625  -15.9099 C   0  0  0  0  0  0  0  0  0  0  0  0
   18.1225   -3.6709  -16.1129 C   0  0  2  0  0  0  0  0  0  0  0  0
   18.6188   -4.7575  -15.2832 N   0  0  0  0  0  0  0  0  0  0  0  0
   18.7223   -2.3780  -15.6872 C   0  0  0  0  0  0  0  0  0  0  0  0
   18.7319   -1.3070  -16.5586 O   0  0  0  0  0  0  0  0  0  0  0  0
   19.2179   -2.2962  -14.5107 O   0  0  0  0  0  0  0  0  0  0  0  0
  2  1  1  0
  3  4  1  0
  3  2  1  0
  4  5  1  0
  5  7  1  0
  5  6  1  1
  7  8  2  0
  9 10  1  0
  9  7  1  0
 10 14  1  0
 10 11  1  6
 12 11  1  0
 13 12  2  0
 14 15  2  0
 14 19  1  0
 16 12  1  0
 18 17  1  1
 19 18  1  0
 20 21  1  0
 20 18  1  0
 22 20  2  0
M  END
$$$$
