MDA.pdb
     RDKit          3D

 22 21  0  0  1  0  0  0  0  0999 V2000
   17.4314  -10.6408  -20.2897 C   0  0  0  0  0  0  0  0  0  0  0  0
   19.2177  -10.7167  -20.2290 S   0  0  0  0  0  0  0  0  0  0  0  0
   19.8344  -11.7117  -18.9051 C   0  0  0  0  0  0  0  0  0  0  0  0
   19.9534  -11.1305  -17.5542 C   0  0  0  0  0  0  0  0  0  0  0  0
   21.2757  -10.6701  -17.0771 C   0  0  2  0  0  0  0  0  0  0  0  0
   22.0249  -11.7458  -16.4073 N   0  0  0  0  0  0  0  0  0  0  0  0
   21.0122   -9.6394  -16.0066 C   0  0  0  0  0  0  0  0  0  0  0  0
   20.3826  -10.0070  -14.9911 O   0  0  0  0  0  0  0  0  0  0  0  0
   21.4429   -8.2969  -16.1042 N   0  0  0  0  0  0  0  0  0  0  0  0
   21.1123   -7.2702  -15.1159 C   0  0  1  0  0  0  0  0  0  0  0  0
   22.3715   -6.6315  -14.6121 C   0  0  0  0  0  0  0  0  0  0  0  0
   22.2003   -5.5144  -13.6858 C   0  0  0  0  0  0  0  0  0  0  0  0
   21.6608   -5.5687  -12.5619 O   0  0  0  0  0  0  0  0  0  0  0  0
   20.1752   -6.3344  -15.7721 C   0  0  0  0  0  0  0  0  0  0  0  0
   20.4075   -5.8504  -16.9060 O   0  0  0  0  0  0  0  0  0  0  0  0
   22.6731   -4.2419  -14.0552 O   0  0  0  0  0  0  0  0  0  0  0  0
   16.6293   -5.4078  -15.4470 C   0  0  0  0  0  0  0  0  0  0  0  0
   18.0589   -5.0074  -15.7674 C   0  0  2  0  0  0  0  0  0  0  0  0
   18.9546   -5.9502  -15.1161 N   0  0  0  0  0  0  0  0  0  0  0  0
   18.2673   -3.6369  -15.2278 C   0  0  0  0  0  0  0  0  0  0  0  0
   17.8482   -2.5421  -15.9574 O   0  0  0  0  0  0  0  0  0  0  0  0
   18.8362   -3.5123  -14.0889 O   0  0  0  0  0  0  0  0  0  0  0  0
  2  1  1  0
  3  4  1  0
  3  2  1  0
  4  5  1  0
  5  7  1  0
  5  6  1  1
  7  8  2  0
  9 10  1  0
  9  7  1  0
 10 14  1  0
 10 11  1  6
 12 11  1  0
 13 12  2  0
 14 15  2  0
 14 19  1  0
 16 12  1  0
 18 17  1  1
 19 18  1  0
 20 21  1  0
 20 18  1  0
 22 20  2  0
M  END
$$$$
