MDA.pdb
     RDKit          3D

 22 21  0  0  1  0  0  0  0  0999 V2000
   21.8061  -10.8203  -22.3227 C   0  0  0  0  0  0  0  0  0  0  0  0
   21.7974  -10.1076  -20.6819 S   0  0  0  0  0  0  0  0  0  0  0  0
   20.1838  -10.0056  -19.9685 C   0  0  0  0  0  0  0  0  0  0  0  0
   20.0110   -9.3618  -18.6522 C   0  0  0  0  0  0  0  0  0  0  0  0
   21.0184   -9.5936  -17.5941 C   0  0  2  0  0  0  0  0  0  0  0  0
   20.8754  -10.9235  -16.9791 N   0  0  0  0  0  0  0  0  0  0  0  0
   20.7187   -8.6082  -16.4909 C   0  0  0  0  0  0  0  0  0  0  0  0
   19.8362   -8.9181  -15.6616 O   0  0  0  0  0  0  0  0  0  0  0  0
   21.3861   -7.3694  -16.3596 N   0  0  0  0  0  0  0  0  0  0  0  0
   21.0487   -6.3761  -15.3398 C   0  0  1  0  0  0  0  0  0  0  0  0
   22.2320   -6.1475  -14.4481 C   0  0  0  0  0  0  0  0  0  0  0  0
   22.0775   -5.1142  -13.4264 C   0  0  0  0  0  0  0  0  0  0  0  0
   21.2728   -5.1390  -12.4729 O   0  0  0  0  0  0  0  0  0  0  0  0
   20.5853   -5.1702  -16.0578 C   0  0  0  0  0  0  0  0  0  0  0  0
   21.2691   -4.6340  -16.9627 O   0  0  0  0  0  0  0  0  0  0  0  0
   22.8914   -3.9682  -13.4851 O   0  0  0  0  0  0  0  0  0  0  0  0
   17.3537   -3.3256  -16.3591 C   0  0  0  0  0  0  0  0  0  0  0  0
   18.8662   -3.4058  -16.4719 C   0  0  2  0  0  0  0  0  0  0  0  0
   19.3186   -4.5729  -15.7313 N   0  0  0  0  0  0  0  0  0  0  0  0
   19.4224   -2.1635  -15.8720 C   0  0  0  0  0  0  0  0  0  0  0  0
   19.7078   -1.0806  -16.6797 O   0  0  0  0  0  0  0  0  0  0  0  0
   19.6223   -2.1354  -14.6088 O   0  0  0  0  0  0  0  0  0  0  0  0
  2  1  1  0
  3  4  1  0
  3  2  1  0
  4  5  1  0
  5  7  1  0
  5  6  1  1
  7  8  2  0
  9 10  1  0
  9  7  1  0
 10 14  1  0
 10 11  1  6
 12 11  1  0
 13 12  2  0
 14 15  2  0
 14 19  1  0
 16 12  1  0
 18 17  1  1
 19 18  1  0
 20 21  1  0
 20 18  1  0
 22 20  2  0
M  END
$$$$
