MDA.pdb
     RDKit          3D

 22 21  0  0  1  0  0  0  0  0999 V2000
   36.1083  -31.5610   -1.1382 C   0  0  0  0  0  0  0  0  0  0  0  0
   34.7031  -32.6014   -1.5167 S   0  0  0  0  0  0  0  0  0  0  0  0
   34.5900  -33.0354   -3.2260 C   0  0  0  0  0  0  0  0  0  0  0  0
   33.3738  -33.7042   -3.7266 C   0  0  0  0  0  0  0  0  0  0  0  0
   33.2349  -35.1684   -3.5693 C   0  0  2  0  0  0  0  0  0  0  0  0
   33.9721  -35.9065   -4.6081 N   0  0  0  0  0  0  0  0  0  0  0  0
   31.7796  -35.4907   -3.8059 C   0  0  0  0  0  0  0  0  0  0  0  0
   31.3952  -35.5971   -4.9907 O   0  0  0  0  0  0  0  0  0  0  0  0
   30.8492  -35.6752   -2.7583 N   0  0  0  0  0  0  0  0  0  0  0  0
   29.4473  -36.0313   -2.9784 C   0  0  1  0  0  0  0  0  0  0  0  0
   29.0519  -37.1276   -2.0354 C   0  0  0  0  0  0  0  0  0  0  0  0
   29.7293  -38.4094   -2.2187 C   0  0  0  0  0  0  0  0  0  0  0  0
   30.3256  -38.7839   -3.2490 O   0  0  0  0  0  0  0  0  0  0  0  0
   28.6640  -34.7871   -2.8285 C   0  0  0  0  0  0  0  0  0  0  0  0
   28.8290  -34.0134   -1.8547 O   0  0  0  0  0  0  0  0  0  0  0  0
   29.7343  -39.3370   -1.1611 O   0  0  0  0  0  0  0  0  0  0  0  0
   26.1215  -32.9574   -4.9195 C   0  0  0  0  0  0  0  0  0  0  0  0
   26.9331  -33.1875   -3.6566 C   0  0  2  0  0  0  0  0  0  0  0  0
   27.6779  -34.4273   -3.8113 N   0  0  0  0  0  0  0  0  0  0  0  0
   25.9729  -33.2973   -2.5259 C   0  0  0  0  0  0  0  0  0  0  0  0
   25.3114  -32.1716   -2.0767 O   0  0  0  0  0  0  0  0  0  0  0  0
   25.7864  -34.4468   -1.9964 O   0  0  0  0  0  0  0  0  0  0  0  0
  2  1  1  0
  3  4  1  0
  3  2  1  0
  4  5  1  0
  5  7  1  0
  5  6  1  6
  7  8  2  0
  9 10  1  0
  9  7  1  0
 10 14  1  0
 10 11  1  1
 12 11  1  0
 13 12  2  0
 14 15  2  0
 14 19  1  0
 16 12  1  0
 18 17  1  6
 19 18  1  0
 20 21  1  0
 20 18  1  0
 22 20  2  0
M  END
$$$$
