MDA.pdb
     RDKit          3D

 22 21  0  0  1  0  0  0  0  0999 V2000
   12.3546   -5.2259   -6.6979 C   0  0  0  0  0  0  0  0  0  0  0  0
   13.3779   -5.7515   -8.0678 S   0  0  0  0  0  0  0  0  0  0  0  0
   14.9583   -6.3656   -7.5695 C   0  0  0  0  0  0  0  0  0  0  0  0
   15.8910   -6.8828   -8.5891 C   0  0  0  0  0  0  0  0  0  0  0  0
   15.3609   -7.6708   -9.7232 C   0  0  2  0  0  0  0  0  0  0  0  0
   14.9984   -9.0398   -9.3211 N   0  0  0  0  0  0  0  0  0  0  0  0
   16.4961   -7.8295  -10.7051 C   0  0  0  0  0  0  0  0  0  0  0  0
   17.4734   -8.5248  -10.3530 O   0  0  0  0  0  0  0  0  0  0  0  0
   16.4976   -7.2338  -11.9867 N   0  0  0  0  0  0  0  0  0  0  0  0
   17.5544   -7.4500  -12.9750 C   0  0  1  0  0  0  0  0  0  0  0  0
   16.9535   -7.5291  -14.3461 C   0  0  0  0  0  0  0  0  0  0  0  0
   16.1061   -8.6897  -14.6113 C   0  0  0  0  0  0  0  0  0  0  0  0
   14.9369   -8.6610  -15.0465 O   0  0  0  0  0  0  0  0  0  0  0  0
   18.5307   -6.3544  -12.8002 C   0  0  0  0  0  0  0  0  0  0  0  0
   18.1691   -5.1733  -12.5803 O   0  0  0  0  0  0  0  0  0  0  0  0
   16.6160   -9.9780  -14.3672 O   0  0  0  0  0  0  0  0  0  0  0  0
   22.2827   -6.1286  -12.5800 C   0  0  0  0  0  0  0  0  0  0  0  0
   20.8868   -5.5358  -12.6617 C   0  0  2  0  0  0  0  0  0  0  0  0
   19.9417   -6.6199  -12.8789 N   0  0  0  0  0  0  0  0  0  0  0  0
   20.8708   -4.5956  -13.8143 C   0  0  0  0  0  0  0  0  0  0  0  0
   21.2636   -3.2841  -13.6343 O   0  0  0  0  0  0  0  0  0  0  0  0
   20.4884   -5.0362  -14.9527 O   0  0  0  0  0  0  0  0  0  0  0  0
  2  1  1  0
  3  4  1  0
  3  2  1  0
  4  5  1  0
  5  7  1  0
  5  6  1  1
  7  8  2  0
  9 10  1  0
  9  7  1  0
 10 14  1  0
 10 11  1  6
 12 11  1  0
 13 12  2  0
 14 15  2  0
 14 19  1  0
 16 12  1  0
 18 17  1  6
 19 18  1  0
 20 21  1  0
 20 18  1  0
 22 20  2  0
M  END
$$$$
