MDA.pdb
     RDKit          3D

 22 21  0  0  1  0  0  0  0  0999 V2000
   26.7355  -32.1931   -9.7064 C   0  0  0  0  0  0  0  0  0  0  0  0
   26.4434  -33.1385   -8.2161 S   0  0  0  0  0  0  0  0  0  0  0  0
   24.7342  -33.2580   -7.7832 C   0  0  0  0  0  0  0  0  0  0  0  0
   24.3428  -33.9972   -6.5678 C   0  0  0  0  0  0  0  0  0  0  0  0
   25.1598  -35.1479   -6.1246 C   0  0  2  0  0  0  0  0  0  0  0  0
   24.9744  -36.3222   -6.9929 N   0  0  0  0  0  0  0  0  0  0  0  0
   24.6261  -35.5604   -4.7744 C   0  0  0  0  0  0  0  0  0  0  0  0
   23.6118  -36.2906   -4.7511 O   0  0  0  0  0  0  0  0  0  0  0  0
   25.2185  -35.1612   -3.5550 N   0  0  0  0  0  0  0  0  0  0  0  0
   24.7698  -35.6379   -2.2466 C   0  0  1  0  0  0  0  0  0  0  0  0
   25.8861  -35.5111   -1.2541 C   0  0  0  0  0  0  0  0  0  0  0  0
   26.0002  -36.5881   -0.2730 C   0  0  0  0  0  0  0  0  0  0  0  0
   25.2736  -37.6005   -0.2064 O   0  0  0  0  0  0  0  0  0  0  0  0
   23.5592  -34.8625   -1.9039 C   0  0  0  0  0  0  0  0  0  0  0  0
   23.4937  -33.6225   -2.0828 O   0  0  0  0  0  0  0  0  0  0  0  0
   27.0089  -36.5174    0.7050 O   0  0  0  0  0  0  0  0  0  0  0  0
   20.0805  -35.6961   -0.7461 C   0  0  0  0  0  0  0  0  0  0  0  0
   21.2297  -34.7389   -1.0102 C   0  0  2  0  0  0  0  0  0  0  0  0
   22.4081  -35.5215   -1.3483 N   0  0  0  0  0  0  0  0  0  0  0  0
   21.4611  -33.9674    0.2404 C   0  0  0  0  0  0  0  0  0  0  0  0
   20.7462  -32.8093    0.4734 O   0  0  0  0  0  0  0  0  0  0  0  0
   22.3271  -34.4061    1.0735 O   0  0  0  0  0  0  0  0  0  0  0  0
  2  1  1  0
  3  4  1  0
  3  2  1  0
  4  5  1  0
  5  7  1  0
  5  6  1  6
  7  8  2  0
  9 10  1  0
  9  7  1  0
 10 14  1  0
 10 11  1  1
 12 11  1  0
 13 12  2  0
 14 15  2  0
 14 19  1  0
 16 12  1  0
 18 17  1  1
 19 18  1  0
 20 21  1  0
 20 18  1  0
 22 20  2  0
M  END
$$$$
