LFG.pdb
     RDKit          3D

 24 24  0  0  1  0  0  0  0  0999 V2000
   26.5004  -20.4239  -16.2042 C   0  0  0  0  0  0  0  0  0  0  0  0
   27.6563  -20.5628  -15.2656 C   0  0  2  0  0  0  0  0  0  0  0  0
   28.8141  -21.1998  -16.0101 C   0  0  0  0  0  0  0  0  0  0  0  0
   27.3339  -21.3620  -14.0309 C   0  0  0  0  0  0  0  0  0  0  0  0
   26.4240  -20.5598  -13.1307 C   0  0  2  0  0  0  0  0  0  0  0  0
   26.6911  -19.1494  -13.2127 N   0  0  0  0  0  0  0  0  0  0  0  0
   26.4489  -20.9989  -11.7404 C   0  0  0  0  0  0  0  0  0  0  0  0
   26.4099  -22.1995  -11.3627 O   0  0  0  0  0  0  0  0  0  0  0  0
   26.5225  -20.0286  -10.7035 N   0  0  0  0  0  0  0  0  0  0  0  0
   26.5270  -20.4122   -9.2832 C   0  0  1  0  0  0  0  0  0  0  0  0
   27.3320  -19.4118   -8.4987 C   0  0  0  0  0  0  0  0  0  0  0  0
   27.5991  -19.7241   -7.1020 C   0  0  0  0  0  0  0  0  0  0  0  0
   28.9192  -19.8595   -6.6460 C   0  0  0  0  0  0  0  0  0  0  0  0
   29.2006  -20.1541   -5.3322 C   0  0  0  0  0  0  0  0  0  0  0  0
   28.1869  -20.3263   -4.4177 C   0  0  0  0  0  0  0  0  0  0  0  0
   26.8802  -20.2009   -4.8293 C   0  0  0  0  0  0  0  0  0  0  0  0
   26.6082  -19.9057   -6.1474 C   0  0  0  0  0  0  0  0  0  0  0  0
   25.1135  -20.4045   -8.8505 C   0  0  0  0  0  0  0  0  0  0  0  0
   24.3582  -19.3986   -9.1050 O   0  0  0  0  0  0  0  0  0  0  0  0
   24.4679  -21.4568   -8.1457 N   0  0  0  0  0  0  0  0  0  0  0  0
   23.1165  -21.2879   -7.6019 C   0  0  0  0  0  0  0  0  0  0  0  0
   22.0841  -21.5840   -8.6066 C   0  0  0  0  0  0  0  0  0  0  0  0
   22.4067  -21.8718   -9.7716 O   0  0  0  0  0  0  0  0  0  0  0  0
   20.7589  -21.5404   -8.2492 O   0  0  0  0  0  0  0  0  0  0  0  0
  2  1  1  6
  3  2  1  0
  4  2  1  0
  4  5  1  0
  5  6  1  1
  7  5  1  0
  7  8  2  0
  9  7  1  0
 10  9  1  0
 10 11  1  1
 11 12  1  0
 12 17  2  0
 13 12  1  0
 13 14  2  0
 14 15  1  0
 15 16  2  0
 17 16  1  0
 18 10  1  0
 19 18  2  0
 20 18  1  0
 21 22  1  0
 21 20  1  0
 22 24  1  0
 23 22  2  0
M  END
$$$$
