LFG.pdb
     RDKit          3D

 24 24  0  0  1  0  0  0  0  0999 V2000
   28.9782  -17.9079  -14.9089 C   0  0  0  0  0  0  0  0  0  0  0  0
   28.1527  -18.9671  -15.5670 C   0  0  2  0  0  0  0  0  0  0  0  0
   27.4670  -18.3668  -16.7794 C   0  0  0  0  0  0  0  0  0  0  0  0
   27.1318  -19.5879  -14.6508 C   0  0  0  0  0  0  0  0  0  0  0  0
   27.8305  -20.2438  -13.4831 C   0  0  2  0  0  0  0  0  0  0  0  0
   28.7854  -21.2301  -13.9108 N   0  0  0  0  0  0  0  0  0  0  0  0
   26.9130  -20.8188  -12.5064 C   0  0  0  0  0  0  0  0  0  0  0  0
   26.5549  -22.0257  -12.4769 O   0  0  0  0  0  0  0  0  0  0  0  0
   26.3593  -19.9866  -11.4950 N   0  0  0  0  0  0  0  0  0  0  0  0
   25.3544  -20.4877  -10.5445 C   0  0  1  0  0  0  0  0  0  0  0  0
   25.3300  -19.5997   -9.3299 C   0  0  0  0  0  0  0  0  0  0  0  0
   26.4325  -19.7327   -8.3885 C   0  0  0  0  0  0  0  0  0  0  0  0
   26.8482  -21.0021   -7.9586 C   0  0  0  0  0  0  0  0  0  0  0  0
   27.8867  -21.1572   -7.0700 C   0  0  0  0  0  0  0  0  0  0  0  0
   28.5549  -20.0624   -6.5718 C   0  0  0  0  0  0  0  0  0  0  0  0
   28.1746  -18.8021   -6.9713 C   0  0  0  0  0  0  0  0  0  0  0  0
   27.1332  -18.6567   -7.8617 C   0  0  0  0  0  0  0  0  0  0  0  0
   24.0584  -20.4429  -11.2543 C   0  0  0  0  0  0  0  0  0  0  0  0
   23.7129  -19.3999  -11.9174 O   0  0  0  0  0  0  0  0  0  0  0  0
   23.1043  -21.4963  -11.2825 N   0  0  0  0  0  0  0  0  0  0  0  0
   21.6677  -21.2213  -11.1764 C   0  0  0  0  0  0  0  0  0  0  0  0
   20.9701  -21.4704  -12.4470 C   0  0  0  0  0  0  0  0  0  0  0  0
   21.5956  -21.8945  -13.4334 O   0  0  0  0  0  0  0  0  0  0  0  0
   19.6209  -21.2309  -12.5372 O   0  0  0  0  0  0  0  0  0  0  0  0
  2  1  1  1
  3  2  1  0
  4  2  1  0
  4  5  1  0
  5  6  1  6
  7  5  1  0
  7  8  2  0
  9  7  1  0
 10  9  1  0
 10 11  1  1
 11 12  1  0
 12 17  2  0
 13 12  1  0
 13 14  2  0
 14 15  1  0
 15 16  2  0
 17 16  1  0
 18 10  1  0
 19 18  2  0
 20 18  1  0
 21 22  1  0
 21 20  1  0
 22 24  1  0
 23 22  2  0
M  END
$$$$
