LFG.pdb
     RDKit          3D

 24 24  0  0  1  0  0  0  0  0999 V2000
   28.7821  -21.6516  -18.8102 C   0  0  0  0  0  0  0  0  0  0  0  0
   27.6307  -21.0101  -18.1038 C   0  0  2  0  0  0  0  0  0  0  0  0
   27.9180  -19.5289  -17.9498 C   0  0  0  0  0  0  0  0  0  0  0  0
   27.3354  -21.6214  -16.7597 C   0  0  0  0  0  0  0  0  0  0  0  0
   25.9380  -21.2444  -16.3271 C   0  0  2  0  0  0  0  0  0  0  0  0
   25.7272  -19.8226  -16.3639 N   0  0  0  0  0  0  0  0  0  0  0  0
   25.5723  -21.7758  -15.0193 C   0  0  0  0  0  0  0  0  0  0  0  0
   25.7154  -22.9749  -14.6626 O   0  0  0  0  0  0  0  0  0  0  0  0
   25.0087  -20.9062  -14.0456 N   0  0  0  0  0  0  0  0  0  0  0  0
   24.7700  -21.3445  -12.6617 C   0  0  1  0  0  0  0  0  0  0  0  0
   25.5062  -20.4344  -11.7160 C   0  0  0  0  0  0  0  0  0  0  0  0
   26.9610  -20.4757  -11.7530 C   0  0  0  0  0  0  0  0  0  0  0  0
   27.6744  -21.1982  -10.7845 C   0  0  0  0  0  0  0  0  0  0  0  0
   29.0487  -21.2544  -10.7952 C   0  0  0  0  0  0  0  0  0  0  0  0
   29.7714  -20.5979  -11.7648 C   0  0  0  0  0  0  0  0  0  0  0  0
   29.1053  -19.8796  -12.7307 C   0  0  0  0  0  0  0  0  0  0  0  0
   27.7285  -19.8291  -12.7116 C   0  0  0  0  0  0  0  0  0  0  0  0
   23.3101  -21.2547  -12.4476 C   0  0  0  0  0  0  0  0  0  0  0  0
   22.8244  -21.2331  -11.2599 O   0  0  0  0  0  0  0  0  0  0  0  0
   22.3349  -21.1818  -13.4793 N   0  0  0  0  0  0  0  0  0  0  0  0
   20.9014  -21.2130  -13.1714 C   0  0  0  0  0  0  0  0  0  0  0  0
   20.3231  -19.8613  -13.1322 C   0  0  0  0  0  0  0  0  0  0  0  0
   21.0252  -18.8707  -13.3965 O   0  0  0  0  0  0  0  0  0  0  0  0
   19.0001  -19.6999  -12.8013 O   0  0  0  0  0  0  0  0  0  0  0  0
  2  1  1  1
  3  2  1  0
  4  2  1  0
  4  5  1  0
  5  6  1  1
  7  5  1  0
  7  8  2  0
  9  7  1  0
 10  9  1  0
 10 11  1  1
 11 12  1  0
 12 17  2  0
 13 12  1  0
 13 14  2  0
 14 15  1  0
 15 16  2  0
 17 16  1  0
 18 10  1  0
 19 18  2  0
 20 18  1  0
 21 22  1  0
 21 20  1  0
 22 24  1  0
 23 22  2  0
M  END
$$$$
