LFG.pdb
     RDKit          3D

 24 24  0  0  1  0  0  0  0  0999 V2000
   26.1481  -19.6883  -16.9225 C   0  0  0  0  0  0  0  0  0  0  0  0
   25.1329  -20.7848  -16.9817 C   0  0  2  0  0  0  0  0  0  0  0  0
   23.8596  -20.2367  -17.5969 C   0  0  0  0  0  0  0  0  0  0  0  0
   24.8351  -21.4000  -15.6400 C   0  0  0  0  0  0  0  0  0  0  0  0
   26.1169  -21.8978  -15.0146 C   0  0  2  0  0  0  0  0  0  0  0  0
   26.5470  -23.1450  -15.5862 N   0  0  0  0  0  0  0  0  0  0  0  0
   26.0506  -22.0040  -13.5617 C   0  0  0  0  0  0  0  0  0  0  0  0
   25.5353  -22.9648  -12.9318 O   0  0  0  0  0  0  0  0  0  0  0  0
   26.5979  -20.9645  -12.7605 N   0  0  0  0  0  0  0  0  0  0  0  0
   26.5296  -21.0019  -11.2914 C   0  0  1  0  0  0  0  0  0  0  0  0
   27.6506  -20.1775  -10.7186 C   0  0  0  0  0  0  0  0  0  0  0  0
   27.6926  -20.0295   -9.2709 C   0  0  0  0  0  0  0  0  0  0  0  0
   28.4315  -20.9291   -8.4876 C   0  0  0  0  0  0  0  0  0  0  0  0
   28.4888  -20.8131   -7.1182 C   0  0  0  0  0  0  0  0  0  0  0  0
   27.8171  -19.8023   -6.4697 C   0  0  0  0  0  0  0  0  0  0  0  0
   27.0823  -18.9017   -7.2057 C   0  0  0  0  0  0  0  0  0  0  0  0
   27.0310  -19.0260   -8.5770 C   0  0  0  0  0  0  0  0  0  0  0  0
   25.2166  -20.4295  -10.9259 C   0  0  0  0  0  0  0  0  0  0  0  0
   24.7687  -19.3873  -11.5261 O   0  0  0  0  0  0  0  0  0  0  0  0
   24.3490  -20.9458   -9.9250 N   0  0  0  0  0  0  0  0  0  0  0  0
   23.1047  -20.2554   -9.5704 C   0  0  0  0  0  0  0  0  0  0  0  0
   21.9702  -20.7285  -10.3779 C   0  0  0  0  0  0  0  0  0  0  0  0
   22.1203  -20.9762  -11.5863 O   0  0  0  0  0  0  0  0  0  0  0  0
   20.7415  -20.8952   -9.7876 O   0  0  0  0  0  0  0  0  0  0  0  0
  2  1  1  1
  3  2  1  0
  4  2  1  0
  4  5  1  0
  5  6  1  6
  7  5  1  0
  7  8  2  0
  9  7  1  0
 10  9  1  0
 10 11  1  1
 11 12  1  0
 12 17  2  0
 13 12  1  0
 13 14  2  0
 14 15  1  0
 15 16  2  0
 17 16  1  0
 18 10  1  0
 19 18  2  0
 20 18  1  0
 21 22  1  0
 21 20  1  0
 22 24  1  0
 23 22  2  0
M  END
$$$$
