LFG.pdb
     RDKit          3D

 24 24  0  0  1  0  0  0  0  0999 V2000
   27.2047  -39.2929   -5.1562 C   0  0  0  0  0  0  0  0  0  0  0  0
   28.4930  -38.6769   -5.6004 C   0  0  2  0  0  0  0  0  0  0  0  0
   29.6321  -39.6032   -5.2200 C   0  0  0  0  0  0  0  0  0  0  0  0
   28.7304  -37.3043   -5.0287 C   0  0  0  0  0  0  0  0  0  0  0  0
   27.6238  -36.3741   -5.4669 C   0  0  2  0  0  0  0  0  0  0  0  0
   27.6990  -36.0698   -6.8701 N   0  0  0  0  0  0  0  0  0  0  0  0
   27.5563  -35.1444   -4.6860 C   0  0  0  0  0  0  0  0  0  0  0  0
   28.2985  -34.1413   -4.8550 O   0  0  0  0  0  0  0  0  0  0  0  0
   26.5931  -35.0302   -3.6462 N   0  0  0  0  0  0  0  0  0  0  0  0
   26.4685  -33.8078   -2.8372 C   0  0  1  0  0  0  0  0  0  0  0  0
   25.1839  -33.1065   -3.1871 C   0  0  0  0  0  0  0  0  0  0  0  0
   24.9002  -31.8574   -2.4953 C   0  0  0  0  0  0  0  0  0  0  0  0
   25.1176  -30.6276   -3.1351 C   0  0  0  0  0  0  0  0  0  0  0  0
   24.8583  -29.4324   -2.5056 C   0  0  0  0  0  0  0  0  0  0  0  0
   24.3737  -29.4069   -1.2179 C   0  0  0  0  0  0  0  0  0  0  0  0
   24.1485  -30.5936   -0.5595 C   0  0  0  0  0  0  0  0  0  0  0  0
   24.4113  -31.7858   -1.1984 C   0  0  0  0  0  0  0  0  0  0  0  0
   26.4594  -34.2476   -1.4258 C   0  0  0  0  0  0  0  0  0  0  0  0
   25.6856  -35.1971   -1.0428 O   0  0  0  0  0  0  0  0  0  0  0  0
   27.2674  -33.6992   -0.3928 N   0  0  0  0  0  0  0  0  0  0  0  0
   27.2538  -34.2634    0.9608 C   0  0  0  0  0  0  0  0  0  0  0  0
   26.4310  -33.4599    1.8776 C   0  0  0  0  0  0  0  0  0  0  0  0
   25.8173  -32.4635    1.4598 O   0  0  0  0  0  0  0  0  0  0  0  0
   26.3448  -33.8178    3.2005 O   0  0  0  0  0  0  0  0  0  0  0  0
  2  1  1  1
  3  2  1  0
  4  2  1  0
  4  5  1  0
  5  6  1  6
  7  5  1  0
  7  8  2  0
  9  7  1  0
 10  9  1  0
 10 11  1  6
 11 12  1  0
 12 17  2  0
 13 12  1  0
 13 14  2  0
 14 15  1  0
 15 16  2  0
 17 16  1  0
 18 10  1  0
 19 18  2  0
 20 18  1  0
 21 22  1  0
 21 20  1  0
 22 24  1  0
 23 22  2  0
M  END
$$$$
