LFG.pdb
     RDKit          3D

 24 24  0  0  1  0  0  0  0  0999 V2000
   13.1460  -21.8393    3.4241 C   0  0  0  0  0  0  0  0  0  0  0  0
   14.4049  -22.6117    3.1897 C   0  0  2  0  0  0  0  0  0  0  0  0
   14.4451  -23.7816    4.1541 C   0  0  0  0  0  0  0  0  0  0  0  0
   15.6533  -21.7818    3.3321 C   0  0  0  0  0  0  0  0  0  0  0  0
   15.5999  -20.6165    2.3723 C   0  0  2  0  0  0  0  0  0  0  0  0
   15.7207  -21.0393    1.0034 N   0  0  0  0  0  0  0  0  0  0  0  0
   16.5777  -19.5759    2.6681 C   0  0  0  0  0  0  0  0  0  0  0  0
   17.7777  -19.5847    2.2866 O   0  0  0  0  0  0  0  0  0  0  0  0
   16.1856  -18.4499    3.4430 N   0  0  0  0  0  0  0  0  0  0  0  0
   17.1128  -17.3430    3.7243 C   0  0  1  0  0  0  0  0  0  0  0  0
   16.5939  -16.0830    3.0859 C   0  0  0  0  0  0  0  0  0  0  0  0
   17.4085  -14.8844    3.2256 C   0  0  0  0  0  0  0  0  0  0  0  0
   16.9344  -13.7870    3.9604 C   0  0  0  0  0  0  0  0  0  0  0  0
   17.6824  -12.6422    4.1087 C   0  0  0  0  0  0  0  0  0  0  0  0
   18.9292  -12.5382    3.5358 C   0  0  0  0  0  0  0  0  0  0  0  0
   19.4263  -13.5947    2.8083 C   0  0  0  0  0  0  0  0  0  0  0  0
   18.6696  -14.7372    2.6653 C   0  0  0  0  0  0  0  0  0  0  0  0
   17.1567  -17.2068    5.1957 C   0  0  0  0  0  0  0  0  0  0  0  0
   16.0767  -17.2485    5.8878 O   0  0  0  0  0  0  0  0  0  0  0  0
   18.3381  -17.0287    5.9659 N   0  0  0  0  0  0  0  0  0  0  0  0
   18.2788  -16.8918    7.4249 C   0  0  0  0  0  0  0  0  0  0  0  0
   17.7102  -15.5966    7.8277 C   0  0  0  0  0  0  0  0  0  0  0  0
   17.8189  -14.6058    7.0858 O   0  0  0  0  0  0  0  0  0  0  0  0
   17.0571  -15.4885    9.0309 O   0  0  0  0  0  0  0  0  0  0  0  0
  2  1  1  1
  3  2  1  0
  4  2  1  0
  4  5  1  0
  5  6  1  6
  7  5  1  0
  7  8  2  0
  9  7  1  0
 10  9  1  0
 10 11  1  6
 11 12  1  0
 12 17  2  0
 13 12  1  0
 13 14  2  0
 14 15  1  0
 15 16  2  0
 17 16  1  0
 18 10  1  0
 19 18  2  0
 20 18  1  0
 21 22  1  0
 21 20  1  0
 22 24  1  0
 23 22  2  0
M  END
$$$$
