LFG.pdb
     RDKit          3D

 24 24  0  0  1  0  0  0  0  0999 V2000
   20.5631  -21.1948  -12.2716 C   0  0  0  0  0  0  0  0  0  0  0  0
   21.4423  -21.1587  -11.0624 C   0  0  2  0  0  0  0  0  0  0  0  0
   20.5840  -20.8736   -9.8448 C   0  0  0  0  0  0  0  0  0  0  0  0
   22.5541  -20.1479  -11.1588 C   0  0  0  0  0  0  0  0  0  0  0  0
   23.8676  -20.8032  -10.8018 C   0  0  2  0  0  0  0  0  0  0  0  0
   24.0563  -20.8933   -9.3793 N   0  0  0  0  0  0  0  0  0  0  0  0
   25.0219  -20.1667  -11.4255 C   0  0  0  0  0  0  0  0  0  0  0  0
   25.6953  -19.2342  -10.9132 O   0  0  0  0  0  0  0  0  0  0  0  0
   25.4509  -20.6038  -12.7088 N   0  0  0  0  0  0  0  0  0  0  0  0
   26.5969  -19.9860  -13.3939 C   0  0  1  0  0  0  0  0  0  0  0  0
   27.7168  -20.9860  -13.4939 C   0  0  0  0  0  0  0  0  0  0  0  0
   28.6607  -21.0381  -12.3867 C   0  0  0  0  0  0  0  0  0  0  0  0
   28.3802  -21.8149  -11.2523 C   0  0  0  0  0  0  0  0  0  0  0  0
   29.2536  -21.8824  -10.1918 C   0  0  0  0  0  0  0  0  0  0  0  0
   30.4391  -21.1840  -10.2119 C   0  0  0  0  0  0  0  0  0  0  0  0
   30.7472  -20.4119  -11.3080 C   0  0  0  0  0  0  0  0  0  0  0  0
   29.8660  -20.3505  -12.3655 C   0  0  0  0  0  0  0  0  0  0  0  0
   26.1145  -19.6013  -14.7373 C   0  0  0  0  0  0  0  0  0  0  0  0
   25.4056  -20.4132  -15.4338 O   0  0  0  0  0  0  0  0  0  0  0  0
   26.3658  -18.3535  -15.3705 N   0  0  0  0  0  0  0  0  0  0  0  0
   25.7689  -18.0288  -16.6701 C   0  0  0  0  0  0  0  0  0  0  0  0
   26.7712  -18.0339  -17.7463 C   0  0  0  0  0  0  0  0  0  0  0  0
   27.9199  -18.4565  -17.5319 O   0  0  0  0  0  0  0  0  0  0  0  0
   26.4296  -17.5679  -18.9921 O   0  0  0  0  0  0  0  0  0  0  0  0
  2  1  1  6
  3  2  1  0
  4  2  1  0
  4  5  1  0
  5  6  1  1
  7  5  1  0
  7  8  2  0
  9  7  1  0
 10  9  1  0
 10 11  1  6
 11 12  1  0
 12 17  2  0
 13 12  1  0
 13 14  2  0
 14 15  1  0
 15 16  2  0
 17 16  1  0
 18 10  1  0
 19 18  2  0
 20 18  1  0
 21 22  1  0
 21 20  1  0
 22 24  1  0
 23 22  2  0
M  END
$$$$
