HAK.pdb
     RDKit          3D

 25 25  0  0  1  0  0  0  0  0999 V2000
   13.5781  -23.8432   26.2987 N   0  0  0  0  0  0  0  0  0  0  0  0
   13.4755  -24.2179   27.6919 C   0  0  1  0  0  0  0  0  0  0  0  0
   14.1259  -25.5771   27.8367 C   0  0  0  0  0  0  0  0  0  0  0  0
   13.2365  -26.5511   27.1385 C   0  0  0  0  0  0  0  0  0  0  0  0
   11.9721  -26.2640   26.6935 C   0  0  0  0  0  0  0  0  0  0  0  0
   11.4889  -27.4027   26.1145 N   0  0  0  0  0  0  0  0  0  0  0  0
   12.4108  -28.3655   26.1921 C   0  0  0  0  0  0  0  0  0  0  0  0
   13.4713  -27.8362   26.8176 N   0  0  0  0  0  0  0  0  0  0  0  0
   14.1056  -23.1997   28.5748 C   0  0  0  0  0  0  0  0  0  0  0  0
   15.1695  -22.6211   28.2865 O   0  0  0  0  0  0  0  0  0  0  0  0
   12.9353  -20.9032   31.0084 C   0  0  0  0  0  0  0  0  0  0  0  0
   14.0354  -21.9193   30.6975 C   0  0  2  0  0  0  0  0  0  0  0  0
   13.4435  -22.8903   29.7984 N   0  0  0  0  0  0  0  0  0  0  0  0
   14.4303  -22.6538   31.9369 C   0  0  0  0  0  0  0  0  0  0  0  0
   13.6615  -23.5514   32.3513 O   0  0  0  0  0  0  0  0  0  0  0  0
   15.6142  -22.3745   32.6385 N   0  0  0  0  0  0  0  0  0  0  0  0
   15.9796  -23.1866   33.7894 C   0  0  1  0  0  0  0  0  0  0  0  0
   17.4587  -23.0432   33.9591 C   0  0  0  0  0  0  0  0  0  0  0  0
   18.2766  -23.4698   32.8005 C   0  0  0  0  0  0  0  0  0  0  0  0
   19.7361  -23.3576   33.0129 C   0  0  0  0  0  0  0  0  0  0  0  0
   20.4598  -23.8376   31.7476 C   0  0  0  0  0  0  0  0  0  0  0  0
   21.8822  -23.7323   31.9082 N   0  0  0  0  0  0  0  0  0  0  0  0
   15.1156  -22.9737   34.9334 C   0  0  0  0  0  0  0  0  0  0  0  0
   14.3201  -22.0030   34.9725 O   0  0  0  0  0  0  0  0  0  0  0  0
   15.0902  -23.7986   36.0628 O   0  0  0  0  0  0  0  0  0  0  0  0
  2  9  1  0
  2  1  1  6
  3  2  1  0
  4  3  1  0
  5  4  2  0
  6  7  1  0
  6  5  1  0
  7  8  2  0
  8  4  1  0
  9 10  2  0
 12 11  1  1
 13 12  1  0
 13  9  1  0
 14 15  2  0
 14 12  1  0
 16 14  1  0
 17 16  1  0
 18 19  1  0
 17 18  1  1
 19 20  1  0
 20 21  1  0
 21 22  1  0
 23 17  1  0
 23 25  1  0
 24 23  2  0
M  END
$$$$
