HAK.pdb
     RDKit          3D

 25 25  0  0  1  0  0  0  0  0999 V2000
    7.9458  -16.9451   19.8077 N   0  0  0  0  0  0  0  0  0  0  0  0
    8.5216  -15.9698   20.7072 C   0  0  1  0  0  0  0  0  0  0  0  0
    7.8011  -14.6607   20.4651 C   0  0  0  0  0  0  0  0  0  0  0  0
    8.1600  -14.2266   19.0831 C   0  0  0  0  0  0  0  0  0  0  0  0
    9.0734  -13.2467   18.7918 C   0  0  0  0  0  0  0  0  0  0  0  0
    9.1214  -13.1432   17.4309 N   0  0  0  0  0  0  0  0  0  0  0  0
    8.2737  -14.0211   16.8890 C   0  0  0  0  0  0  0  0  0  0  0  0
    7.6933  -14.6758   17.9041 N   0  0  0  0  0  0  0  0  0  0  0  0
    8.4177  -16.4114   22.1240 C   0  0  0  0  0  0  0  0  0  0  0  0
    7.3300  -16.6611   22.6757 O   0  0  0  0  0  0  0  0  0  0  0  0
   10.7280  -18.2253   24.1451 C   0  0  0  0  0  0  0  0  0  0  0  0
    9.6007  -17.1917   24.1592 C   0  0  2  0  0  0  0  0  0  0  0  0
    9.6300  -16.5471   22.8610 N   0  0  0  0  0  0  0  0  0  0  0  0
    9.8762  -16.1355   25.1790 C   0  0  0  0  0  0  0  0  0  0  0  0
   10.8140  -15.3373   24.9513 O   0  0  0  0  0  0  0  0  0  0  0  0
    9.1306  -16.0121   26.3625 N   0  0  0  0  0  0  0  0  0  0  0  0
    9.4417  -14.9466   27.3035 C   0  0  1  0  0  0  0  0  0  0  0  0
    8.1325  -14.3790   27.7518 C   0  0  0  0  0  0  0  0  0  0  0  0
    7.6767  -13.1750   27.0196 C   0  0  0  0  0  0  0  0  0  0  0  0
    6.3928  -12.6207   27.5014 C   0  0  0  0  0  0  0  0  0  0  0  0
    6.0795  -11.3400   26.7161 C   0  0  0  0  0  0  0  0  0  0  0  0
    4.8891  -10.7164   27.2202 N   0  0  0  0  0  0  0  0  0  0  0  0
   10.4190  -15.3355   28.3007 C   0  0  0  0  0  0  0  0  0  0  0  0
   10.6422  -16.5453   28.5514 O   0  0  0  0  0  0  0  0  0  0  0  0
   11.1761  -14.4312   29.0528 O   0  0  0  0  0  0  0  0  0  0  0  0
  2  9  1  0
  2  1  1  6
  3  2  1  0
  4  3  1  0
  5  4  2  0
  6  7  1  0
  6  5  1  0
  7  8  2  0
  8  4  1  0
  9 10  2  0
 12 11  1  6
 13 12  1  0
 13  9  1  0
 14 15  2  0
 14 12  1  0
 16 14  1  0
 17 16  1  0
 18 19  1  0
 17 18  1  1
 19 20  1  0
 20 21  1  0
 21 22  1  0
 23 17  1  0
 23 25  1  0
 24 23  2  0
M  END
$$$$
