HAK.pdb
     RDKit          3D

 25 25  0  0  1  0  0  0  0  0999 V2000
    7.4823  -16.6554   17.8191 N   0  0  0  0  0  0  0  0  0  0  0  0
    8.4748  -16.0114   18.6511 C   0  0  1  0  0  0  0  0  0  0  0  0
    8.2764  -14.5177   18.5060 C   0  0  0  0  0  0  0  0  0  0  0  0
    8.5207  -14.1934   17.0700 C   0  0  0  0  0  0  0  0  0  0  0  0
    7.7598  -13.3240   16.3321 C   0  0  0  0  0  0  0  0  0  0  0  0
    8.2966  -13.2966   15.0766 N   0  0  0  0  0  0  0  0  0  0  0  0
    9.3509  -14.1145   15.0270 C   0  0  0  0  0  0  0  0  0  0  0  0
    9.4786  -14.6557   16.2463 N   0  0  0  0  0  0  0  0  0  0  0  0
    8.3657  -16.4551   20.0669 C   0  0  0  0  0  0  0  0  0  0  0  0
    7.2972  -16.4214   20.7048 O   0  0  0  0  0  0  0  0  0  0  0  0
   10.6794  -18.3846   22.2132 C   0  0  0  0  0  0  0  0  0  0  0  0
    9.4677  -17.4665   22.0449 C   0  0  2  0  0  0  0  0  0  0  0  0
    9.5495  -16.9355   20.6985 N   0  0  0  0  0  0  0  0  0  0  0  0
    9.5611  -16.3054   22.9802 C   0  0  0  0  0  0  0  0  0  0  0  0
   10.4058  -15.4173   22.7226 O   0  0  0  0  0  0  0  0  0  0  0  0
    8.7469  -16.1810   24.1174 N   0  0  0  0  0  0  0  0  0  0  0  0
    8.8854  -15.0174   24.9802 C   0  0  1  0  0  0  0  0  0  0  0  0
    7.5403  -14.3657   25.0352 C   0  0  0  0  0  0  0  0  0  0  0  0
    7.4442  -13.1775   25.9140 C   0  0  0  0  0  0  0  0  0  0  0  0
    6.0889  -12.5909   25.9965 C   0  0  0  0  0  0  0  0  0  0  0  0
    6.1410  -11.3459   26.8922 C   0  0  0  0  0  0  0  0  0  0  0  0
    4.8816  -10.6576   26.8748 N   0  0  0  0  0  0  0  0  0  0  0  0
    9.5785  -15.3074   26.2197 C   0  0  0  0  0  0  0  0  0  0  0  0
    9.6104  -16.4725   26.6866 O   0  0  0  0  0  0  0  0  0  0  0  0
   10.2504  -14.3497   26.9864 O   0  0  0  0  0  0  0  0  0  0  0  0
  2  9  1  0
  2  1  1  6
  3  2  1  0
  4  3  1  0
  5  4  2  0
  6  7  1  0
  6  5  1  0
  7  8  2  0
  8  4  1  0
  9 10  2  0
 12 11  1  1
 13 12  1  0
 13  9  1  0
 14 15  2  0
 14 12  1  0
 16 14  1  0
 17 16  1  0
 18 19  1  0
 17 18  1  1
 19 20  1  0
 20 21  1  0
 21 22  1  0
 23 17  1  0
 23 25  1  0
 24 23  2  0
M  END
$$$$
