HAK.pdb
     RDKit          3D

 25 25  0  0  1  0  0  0  0  0999 V2000
    9.3076  -14.3702   20.4300 N   0  0  0  0  0  0  0  0  0  0  0  0
    8.0286  -14.4412   21.1016 C   0  0  1  0  0  0  0  0  0  0  0  0
    6.9861  -14.7360   20.0444 C   0  0  0  0  0  0  0  0  0  0  0  0
    7.5715  -14.3106   18.7392 C   0  0  0  0  0  0  0  0  0  0  0  0
    8.3842  -13.2191   18.5740 C   0  0  0  0  0  0  0  0  0  0  0  0
    8.7093  -13.1654   17.2486 N   0  0  0  0  0  0  0  0  0  0  0  0
    8.1254  -14.1806   16.6071 C   0  0  0  0  0  0  0  0  0  0  0  0
    7.4348  -14.8719   17.5243 N   0  0  0  0  0  0  0  0  0  0  0  0
    8.0383  -15.4673   22.1787 C   0  0  0  0  0  0  0  0  0  0  0  0
    7.0146  -15.7993   22.8046 O   0  0  0  0  0  0  0  0  0  0  0  0
   10.3471  -18.1238   23.1045 C   0  0  0  0  0  0  0  0  0  0  0  0
    9.3458  -17.0603   23.5582 C   0  0  2  0  0  0  0  0  0  0  0  0
    9.2857  -16.0827   22.4895 N   0  0  0  0  0  0  0  0  0  0  0  0
    9.8534  -16.3520   24.7716 C   0  0  0  0  0  0  0  0  0  0  0  0
   11.0835  -16.1275   24.8423 O   0  0  0  0  0  0  0  0  0  0  0  0
    9.0104  -15.9381   25.8155 N   0  0  0  0  0  0  0  0  0  0  0  0
    9.5761  -15.2702   26.9781 C   0  0  1  0  0  0  0  0  0  0  0  0
    8.4837  -14.4306   27.5601 C   0  0  0  0  0  0  0  0  0  0  0  0
    7.9079  -13.4146   26.6492 C   0  0  0  0  0  0  0  0  0  0  0  0
    6.8025  -12.6276   27.2379 C   0  0  0  0  0  0  0  0  0  0  0  0
    6.3173  -11.6031   26.2036 C   0  0  0  0  0  0  0  0  0  0  0  0
    5.3067  -10.7545   26.7682 N   0  0  0  0  0  0  0  0  0  0  0  0
   10.3140  -16.1662   27.8461 C   0  0  0  0  0  0  0  0  0  0  0  0
   11.0457  -15.7215   28.7644 O   0  0  0  0  0  0  0  0  0  0  0  0
   10.2837  -17.5608   27.7436 O   0  0  0  0  0  0  0  0  0  0  0  0
  2  9  1  0
  2  1  1  6
  3  2  1  0
  4  3  1  0
  5  4  2  0
  6  7  1  0
  6  5  1  0
  7  8  2  0
  8  4  1  0
  9 10  2  0
 12 11  1  6
 13 12  1  0
 13  9  1  0
 14 15  2  0
 14 12  1  0
 16 14  1  0
 17 16  1  0
 18 19  1  0
 17 18  1  1
 19 20  1  0
 20 21  1  0
 21 22  1  0
 23 17  1  0
 23 25  1  0
 24 23  2  0
M  END
$$$$
