HAK.pdb
     RDKit          3D

 25 25  0  0  1  0  0  0  0  0999 V2000
    7.0905  -15.5539   21.5525 N   0  0  0  0  0  0  0  0  0  0  0  0
    8.4703  -15.8806   21.8377 C   0  0  1  0  0  0  0  0  0  0  0  0
    9.2881  -14.6363   21.5648 C   0  0  0  0  0  0  0  0  0  0  0  0
    8.8927  -14.1561   20.2083 C   0  0  0  0  0  0  0  0  0  0  0  0
    9.4218  -14.6279   19.0350 C   0  0  0  0  0  0  0  0  0  0  0  0
    8.8090  -13.9460   18.0227 N   0  0  0  0  0  0  0  0  0  0  0  0
    7.9313  -13.0816   18.5378 C   0  0  0  0  0  0  0  0  0  0  0  0
    7.9902  -13.2177   19.8697 N   0  0  0  0  0  0  0  0  0  0  0  0
    8.6354  -16.3627   23.2354 C   0  0  0  0  0  0  0  0  0  0  0  0
    9.6105  -17.0430   23.6045 O   0  0  0  0  0  0  0  0  0  0  0  0
    6.0937  -17.6941   24.9036 C   0  0  0  0  0  0  0  0  0  0  0  0
    7.3504  -16.9100   25.2847 C   0  0  2  0  0  0  0  0  0  0  0  0
    7.6199  -16.0180   24.1741 N   0  0  0  0  0  0  0  0  0  0  0  0
    8.5217  -17.8297   25.4021 C   0  0  0  0  0  0  0  0  0  0  0  0
    8.8657  -18.4670   24.3803 O   0  0  0  0  0  0  0  0  0  0  0  0
    9.2354  -17.9987   26.5995 N   0  0  0  0  0  0  0  0  0  0  0  0
   10.3276  -18.9584   26.6592 C   0  0  1  0  0  0  0  0  0  0  0  0
   11.2830  -18.5843   25.5709 C   0  0  0  0  0  0  0  0  0  0  0  0
   12.1184  -19.6904   25.0495 C   0  0  0  0  0  0  0  0  0  0  0  0
   13.0556  -19.2906   23.9772 C   0  0  0  0  0  0  0  0  0  0  0  0
   13.8168  -20.5327   23.4950 C   0  0  0  0  0  0  0  0  0  0  0  0
   14.6744  -20.2035   22.3922 N   0  0  0  0  0  0  0  0  0  0  0  0
   10.8342  -19.1612   28.0020 C   0  0  0  0  0  0  0  0  0  0  0  0
   10.5324  -18.3753   28.9336 O   0  0  0  0  0  0  0  0  0  0  0  0
   11.6795  -20.2124   28.3721 O   0  0  0  0  0  0  0  0  0  0  0  0
  2  9  1  0
  2  1  1  1
  3  2  1  0
  4  3  1  0
  5  4  2  0
  6  7  1  0
  6  5  1  0
  7  8  2  0
  8  4  1  0
  9 10  2  0
 12 11  1  6
 13 12  1  0
 13  9  1  0
 14 15  2  0
 14 12  1  0
 16 14  1  0
 17 16  1  0
 18 19  1  0
 17 18  1  6
 19 20  1  0
 20 21  1  0
 21 22  1  0
 23 17  1  0
 23 25  1  0
 24 23  2  0
M  END
$$$$
