HAK.pdb
     RDKit          3D

 25 25  0  0  1  0  0  0  0  0999 V2000
    5.0422  -20.0673   16.5614 N   0  0  0  0  0  0  0  0  0  0  0  0
    4.4931  -20.7982   17.6822 C   0  0  1  0  0  0  0  0  0  0  0  0
    5.5828  -21.7172   18.1916 C   0  0  0  0  0  0  0  0  0  0  0  0
    5.7946  -22.7516   17.1370 C   0  0  0  0  0  0  0  0  0  0  0  0
    4.7980  -23.5230   16.5976 C   0  0  0  0  0  0  0  0  0  0  0  0
    5.3862  -24.3399   15.6746 N   0  0  0  0  0  0  0  0  0  0  0  0
    6.6978  -24.0925   15.6352 C   0  0  0  0  0  0  0  0  0  0  0  0
    6.9359  -23.1235   16.5297 N   0  0  0  0  0  0  0  0  0  0  0  0
    3.9990  -19.8766   18.7404 C   0  0  0  0  0  0  0  0  0  0  0  0
    4.5943  -18.8299   19.0565 O   0  0  0  0  0  0  0  0  0  0  0  0
    0.7352  -19.5261   20.3851 C   0  0  0  0  0  0  0  0  0  0  0  0
    2.2529  -19.3386   20.4173 C   0  0  2  0  0  0  0  0  0  0  0  0
    2.7895  -20.2290   19.4070 N   0  0  0  0  0  0  0  0  0  0  0  0
    2.8043  -19.7848   21.7320 C   0  0  0  0  0  0  0  0  0  0  0  0
    2.4516  -19.1543   22.7550 O   0  0  0  0  0  0  0  0  0  0  0  0
    3.6889  -20.8684   21.8542 N   0  0  0  0  0  0  0  0  0  0  0  0
    4.1252  -21.2984   23.1741 C   0  0  1  0  0  0  0  0  0  0  0  0
    3.8188  -22.7593   23.2687 C   0  0  0  0  0  0  0  0  0  0  0  0
    2.3797  -23.1092   23.2666 C   0  0  0  0  0  0  0  0  0  0  0  0
    2.1073  -24.5610   23.3433 C   0  0  0  0  0  0  0  0  0  0  0  0
    0.5967  -24.7904   23.2011 C   0  0  0  0  0  0  0  0  0  0  0  0
    0.2918  -26.1922   23.2467 N   0  0  0  0  0  0  0  0  0  0  0  0
    5.4561  -20.8348   23.5126 C   0  0  0  0  0  0  0  0  0  0  0  0
    6.2799  -20.5218   22.6182 O   0  0  0  0  0  0  0  0  0  0  0  0
    5.9317  -20.7001   24.8211 O   0  0  0  0  0  0  0  0  0  0  0  0
  2  9  1  0
  2  1  1  6
  3  2  1  0
  4  3  1  0
  5  4  2  0
  6  7  1  0
  6  5  1  0
  7  8  2  0
  8  4  1  0
  9 10  2  0
 12 11  1  1
 13 12  1  0
 13  9  1  0
 14 15  2  0
 14 12  1  0
 16 14  1  0
 17 16  1  0
 18 19  1  0
 17 18  1  6
 19 20  1  0
 20 21  1  0
 21 22  1  0
 23 17  1  0
 23 25  1  0
 24 23  2  0
M  END
$$$$
