HAK.pdb
     RDKit          3D

 25 25  0  0  1  0  0  0  0  0999 V2000
    7.7250  -17.1818   16.3838 N   0  0  0  0  0  0  0  0  0  0  0  0
    8.3357  -16.3264   17.3774 C   0  0  1  0  0  0  0  0  0  0  0  0
    7.6640  -14.9738   17.2742 C   0  0  0  0  0  0  0  0  0  0  0  0
    8.0474  -14.4083   15.9474 C   0  0  0  0  0  0  0  0  0  0  0  0
    8.8052  -15.0675   15.0144 C   0  0  0  0  0  0  0  0  0  0  0  0
    8.9360  -14.2268   13.9461 N   0  0  0  0  0  0  0  0  0  0  0  0
    8.2876  -13.0868   14.1967 C   0  0  0  0  0  0  0  0  0  0  0  0
    7.7500  -13.2078   15.4183 N   0  0  0  0  0  0  0  0  0  0  0  0
    8.2148  -16.9081   18.7414 C   0  0  0  0  0  0  0  0  0  0  0  0
    7.1274  -17.2701   19.2274 O   0  0  0  0  0  0  0  0  0  0  0  0
   10.3263  -18.9694   20.5704 C   0  0  0  0  0  0  0  0  0  0  0  0
    9.3719  -17.7879   20.7507 C   0  0  2  0  0  0  0  0  0  0  0  0
    9.4100  -17.0467   19.5054 N   0  0  0  0  0  0  0  0  0  0  0  0
    9.8727  -16.8732   21.8203 C   0  0  0  0  0  0  0  0  0  0  0  0
   10.8420  -16.1300   21.5434 O   0  0  0  0  0  0  0  0  0  0  0  0
    9.3015  -16.8218   23.1020 N   0  0  0  0  0  0  0  0  0  0  0  0
    9.8973  -15.9743   24.1240 C   0  0  1  0  0  0  0  0  0  0  0  0
    8.8072  -15.6475   25.0945 C   0  0  0  0  0  0  0  0  0  0  0  0
    8.0346  -14.4202   24.7943 C   0  0  0  0  0  0  0  0  0  0  0  0
    6.9331  -14.1483   25.7434 C   0  0  0  0  0  0  0  0  0  0  0  0
    6.2673  -12.8190   25.3629 C   0  0  0  0  0  0  0  0  0  0  0  0
    5.2615  -12.4643   26.3234 N   0  0  0  0  0  0  0  0  0  0  0  0
   11.1564  -16.4876   24.6259 C   0  0  0  0  0  0  0  0  0  0  0  0
   11.3930  -17.7206   24.6417 O   0  0  0  0  0  0  0  0  0  0  0  0
   12.1883  -15.6859   25.1250 O   0  0  0  0  0  0  0  0  0  0  0  0
  2  9  1  0
  2  1  1  6
  3  2  1  0
  4  3  1  0
  5  4  2  0
  6  7  1  0
  6  5  1  0
  7  8  2  0
  8  4  1  0
  9 10  2  0
 12 11  1  6
 13 12  1  0
 13  9  1  0
 14 15  2  0
 14 12  1  0
 16 14  1  0
 17 16  1  0
 18 19  1  0
 17 18  1  1
 19 20  1  0
 20 21  1  0
 21 22  1  0
 23 17  1  0
 23 25  1  0
 24 23  2  0
M  END
$$$$
