TQG.pdb
     RDKit          3D

 21 20  0  0  1  0  0  0  0  0999 V2000
    9.0126  -12.6466   19.7898 C   0  0  0  0  0  0  0  0  0  0  0  0
    7.8358  -13.3745   19.1784 C   0  0  1  0  0  0  0  0  0  0  0  0
    7.9220  -13.1956   17.7914 O   0  0  0  0  0  0  0  0  0  0  0  0
    7.9931  -14.8405   19.4924 C   0  0  2  0  0  0  0  0  0  0  0  0
    7.0390  -15.5951   18.7380 N   0  0  0  0  0  0  0  0  0  0  0  0
    7.8618  -15.1195   20.9398 C   0  0  0  0  0  0  0  0  0  0  0  0
    6.9140  -14.6761   21.6372 O   0  0  0  0  0  0  0  0  0  0  0  0
    6.8305  -19.3934   24.6736 N   0  0  0  0  0  0  0  0  0  0  0  0
    6.2132  -18.8287   23.5489 C   0  0  0  0  0  0  0  0  0  0  0  0
    5.0583  -19.1406   23.2252 O   0  0  0  0  0  0  0  0  0  0  0  0
    6.9562  -17.8382   22.7297 C   0  0  0  0  0  0  0  0  0  0  0  0
    8.3577  -17.6369   23.2388 C   0  0  0  0  0  0  0  0  0  0  0  0
    8.8156  -16.2581   22.9886 C   0  0  2  0  0  0  0  0  0  0  0  0
    8.8270  -15.9098   21.5747 N   0  0  0  0  0  0  0  0  0  0  0  0
   10.1196  -15.8742   23.5427 C   0  0  0  0  0  0  0  0  0  0  0  0
   10.3471  -15.9513   24.7576 O   0  0  0  0  0  0  0  0  0  0  0  0
   11.1912  -15.3923   22.7076 N   0  0  0  0  0  0  0  0  0  0  0  0
   12.4736  -15.0963   23.3047 C   0  0  0  0  0  0  0  0  0  0  0  0
   13.4112  -16.2154   23.2167 C   0  0  0  0  0  0  0  0  0  0  0  0
   12.9977  -17.3496   22.8745 O   0  0  0  0  0  0  0  0  0  0  0  0
   14.7566  -16.0744   23.4995 O   0  0  0  0  0  0  0  0  0  0  0  0
  2  4  1  0
  2  1  1  1
  3  2  1  0
  4  5  1  6
  6  4  1  0
  7  6  2  0
  8  9  1  0
  9 10  2  0
 11  9  1  0
 11 12  1  0
 13 12  1  6
 13 15  1  0
 13 14  1  0
 14  6  1  0
 15 17  1  0
 16 15  2  0
 17 18  1  0
 18 19  1  0
 19 20  2  0
 19 21  1  0
M  END
$$$$
