TQG.pdb
     RDKit          3D

 21 20  0  0  1  0  0  0  0  0999 V2000
    7.0401  -15.8950   19.8093 C   0  0  0  0  0  0  0  0  0  0  0  0
    7.8830  -14.8804   19.0687 C   0  0  1  0  0  0  0  0  0  0  0  0
    7.3829  -14.8115   17.7617 O   0  0  0  0  0  0  0  0  0  0  0  0
    7.6831  -13.5450   19.7390 C   0  0  2  0  0  0  0  0  0  0  0  0
    8.2225  -12.5099   18.9106 N   0  0  0  0  0  0  0  0  0  0  0  0
    8.2806  -13.5038   21.0924 C   0  0  0  0  0  0  0  0  0  0  0  0
    9.4939  -13.2426   21.2952 O   0  0  0  0  0  0  0  0  0  0  0  0
    5.3392  -12.1832   26.4524 N   0  0  0  0  0  0  0  0  0  0  0  0
    6.5444  -12.7283   26.9167 C   0  0  0  0  0  0  0  0  0  0  0  0
    6.8199  -12.7428   28.1249 O   0  0  0  0  0  0  0  0  0  0  0  0
    7.5092  -13.2991   25.9434 C   0  0  0  0  0  0  0  0  0  0  0  0
    7.0218  -13.1518   24.5275 C   0  0  0  0  0  0  0  0  0  0  0  0
    7.9448  -13.8058   23.5823 C   0  0  2  0  0  0  0  0  0  0  0  0
    7.4729  -13.7648   22.2052 N   0  0  0  0  0  0  0  0  0  0  0  0
    8.3275  -15.1932   23.8709 C   0  0  0  0  0  0  0  0  0  0  0  0
    7.5153  -16.1202   23.7492 O   0  0  0  0  0  0  0  0  0  0  0  0
    9.6563  -15.5432   24.3065 N   0  0  0  0  0  0  0  0  0  0  0  0
    9.9860  -16.9338   24.5211 C   0  0  0  0  0  0  0  0  0  0  0  0
   11.4028  -17.1404   24.8196 C   0  0  0  0  0  0  0  0  0  0  0  0
   12.2770  -16.6245   24.0820 O   0  0  0  0  0  0  0  0  0  0  0  0
   11.8272  -17.8928   25.8985 O   0  0  0  0  0  0  0  0  0  0  0  0
  2  4  1  0
  2  1  1  1
  3  2  1  0
  4  5  1  6
  6  4  1  0
  7  6  2  0
  8  9  1  0
  9 10  2  0
 11  9  1  0
 11 12  1  0
 13 12  1  1
 13 15  1  0
 13 14  1  0
 14  6  1  0
 15 17  1  0
 16 15  2  0
 17 18  1  0
 18 19  1  0
 19 20  2  0
 19 21  1  0
M  END
$$$$
