TQG.pdb
     RDKit          3D

 21 20  0  0  1  0  0  0  0  0999 V2000
    6.2674  -17.2629   20.3220 C   0  0  0  0  0  0  0  0  0  0  0  0
    4.8667  -17.4766   20.8517 C   0  0  1  0  0  0  0  0  0  0  0  0
    4.1368  -18.1029   19.8328 O   0  0  0  0  0  0  0  0  0  0  0  0
    4.9624  -18.4124   22.0298 C   0  0  2  0  0  0  0  0  0  0  0  0
    3.6467  -18.7958   22.4426 N   0  0  0  0  0  0  0  0  0  0  0  0
    5.7173  -17.8184   23.1556 C   0  0  0  0  0  0  0  0  0  0  0  0
    5.2461  -16.9144   23.8919 O   0  0  0  0  0  0  0  0  0  0  0  0
    7.4221  -19.4714   28.7273 N   0  0  0  0  0  0  0  0  0  0  0  0
    7.1647  -19.9582   27.4382 C   0  0  0  0  0  0  0  0  0  0  0  0
    7.1508  -21.1746   27.2015 O   0  0  0  0  0  0  0  0  0  0  0  0
    6.9039  -18.9991   26.3353 C   0  0  0  0  0  0  0  0  0  0  0  0
    8.1506  -18.7119   25.5434 C   0  0  0  0  0  0  0  0  0  0  0  0
    7.8792  -17.7401   24.4686 C   0  0  2  0  0  0  0  0  0  0  0  0
    7.0136  -18.2722   23.4253 N   0  0  0  0  0  0  0  0  0  0  0  0
    9.0395  -17.1335   23.8050 C   0  0  0  0  0  0  0  0  0  0  0  0
    9.4781  -17.5879   22.7397 O   0  0  0  0  0  0  0  0  0  0  0  0
    9.7207  -15.9885   24.3554 N   0  0  0  0  0  0  0  0  0  0  0  0
   10.8374  -15.4181   23.6369 C   0  0  0  0  0  0  0  0  0  0  0  0
   12.0765  -16.1718   23.8253 C   0  0  0  0  0  0  0  0  0  0  0  0
   12.0643  -17.2352   24.4913 O   0  0  0  0  0  0  0  0  0  0  0  0
   13.2815  -15.7554   23.2918 O   0  0  0  0  0  0  0  0  0  0  0  0
  2  4  1  0
  2  1  1  6
  3  2  1  0
  4  5  1  1
  6  4  1  0
  7  6  2  0
  8  9  1  0
  9 10  2  0
 11  9  1  0
 11 12  1  0
 13 12  1  1
 13 15  1  0
 13 14  1  0
 14  6  1  0
 15 17  1  0
 16 15  2  0
 17 18  1  0
 18 19  1  0
 19 20  2  0
 19 21  1  0
M  END
$$$$
