TQG.pdb
     RDKit          3D

 21 20  0  0  1  0  0  0  0  0999 V2000
    4.8650  -18.5226   23.7719 C   0  0  0  0  0  0  0  0  0  0  0  0
    4.6491  -19.5903   22.7223 C   0  0  1  0  0  0  0  0  0  0  0  0
    3.3564  -20.0953   22.9148 O   0  0  0  0  0  0  0  0  0  0  0  0
    4.7167  -18.9229   21.3723 C   0  0  2  0  0  0  0  0  0  0  0  0
    4.2852  -19.8422   20.3635 N   0  0  0  0  0  0  0  0  0  0  0  0
    6.0703  -18.4056   21.0714 C   0  0  0  0  0  0  0  0  0  0  0  0
    7.0014  -19.1363   20.6467 O   0  0  0  0  0  0  0  0  0  0  0  0
    7.8428  -11.5516   20.3769 N   0  0  0  0  0  0  0  0  0  0  0  0
    8.0574  -12.8382   19.8633 C   0  0  0  0  0  0  0  0  0  0  0  0
    8.2560  -13.0225   18.6540 O   0  0  0  0  0  0  0  0  0  0  0  0
    8.0466  -14.0022   20.7848 C   0  0  0  0  0  0  0  0  0  0  0  0
    7.5151  -15.2381   20.1111 C   0  0  0  0  0  0  0  0  0  0  0  0
    7.6245  -16.4099   20.9989 C   0  0  2  0  0  0  0  0  0  0  0  0
    6.3413  -17.0458   21.2630 N   0  0  0  0  0  0  0  0  0  0  0  0
    8.2866  -16.2102   22.2936 C   0  0  0  0  0  0  0  0  0  0  0  0
    7.8346  -15.4147   23.1283 O   0  0  0  0  0  0  0  0  0  0  0  0
    9.4858  -16.9237   22.6553 N   0  0  0  0  0  0  0  0  0  0  0  0
   10.1233  -16.6382   23.9205 C   0  0  0  0  0  0  0  0  0  0  0  0
   11.5266  -16.2534   23.7735 C   0  0  0  0  0  0  0  0  0  0  0  0
   12.0464  -16.2156   22.6320 O   0  0  0  0  0  0  0  0  0  0  0  0
   12.3185  -15.9238   24.8572 O   0  0  0  0  0  0  0  0  0  0  0  0
  2  4  1  0
  2  1  1  1
  3  2  1  0
  4  5  1  6
  6  4  1  0
  7  6  2  0
  8  9  1  0
  9 10  2  0
 11  9  1  0
 11 12  1  0
 13 12  1  1
 13 15  1  0
 13 14  1  0
 14  6  1  0
 15 17  1  0
 16 15  2  0
 17 18  1  0
 18 19  1  0
 19 20  2  0
 19 21  1  0
M  END
$$$$
