TQG.pdb
     RDKit          3D

 21 20  0  0  1  0  0  0  0  0999 V2000
    7.2393  -16.0740   19.5706 C   0  0  0  0  0  0  0  0  0  0  0  0
    7.9708  -14.9160   18.9287 C   0  0  1  0  0  0  0  0  0  0  0  0
    7.4577  -14.7782   17.6322 O   0  0  0  0  0  0  0  0  0  0  0  0
    7.6420  -13.6747   19.7184 C   0  0  2  0  0  0  0  0  0  0  0  0
    8.0286  -12.5171   18.9706 N   0  0  0  0  0  0  0  0  0  0  0  0
    8.2782  -13.6773   21.0546 C   0  0  0  0  0  0  0  0  0  0  0  0
    9.4848  -13.3737   21.2366 O   0  0  0  0  0  0  0  0  0  0  0  0
    5.5113  -12.2296   26.4132 N   0  0  0  0  0  0  0  0  0  0  0  0
    6.8127  -12.5653   26.8114 C   0  0  0  0  0  0  0  0  0  0  0  0
    7.2273  -12.2940   27.9473 O   0  0  0  0  0  0  0  0  0  0  0  0
    7.7117  -13.2590   25.8550 C   0  0  0  0  0  0  0  0  0  0  0  0
    7.0976  -13.3529   24.4846 C   0  0  0  0  0  0  0  0  0  0  0  0
    8.0078  -14.0331   23.5454 C   0  0  2  0  0  0  0  0  0  0  0  0
    7.5166  -14.0309   22.1744 N   0  0  0  0  0  0  0  0  0  0  0  0
    8.3952  -15.4117   23.8675 C   0  0  0  0  0  0  0  0  0  0  0  0
    7.5771  -16.2136   24.3383 O   0  0  0  0  0  0  0  0  0  0  0  0
    9.7356  -15.8972   23.6539 N   0  0  0  0  0  0  0  0  0  0  0  0
   10.7257  -15.7175   24.6913 C   0  0  0  0  0  0  0  0  0  0  0  0
   10.9441  -16.9286   25.4816 C   0  0  0  0  0  0  0  0  0  0  0  0
   12.0064  -17.5816   25.3410 O   0  0  0  0  0  0  0  0  0  0  0  0
   10.0141  -17.3926   26.3926 O   0  0  0  0  0  0  0  0  0  0  0  0
  2  4  1  0
  2  1  1  1
  3  2  1  0
  4  5  1  6
  6  4  1  0
  7  6  2  0
  8  9  1  0
  9 10  2  0
 11  9  1  0
 11 12  1  0
 13 12  1  1
 13 15  1  0
 13 14  1  0
 14  6  1  0
 15 17  1  0
 16 15  2  0
 17 18  1  0
 18 19  1  0
 19 20  2  0
 19 21  1  0
M  END
$$$$
