TQG.pdb
     RDKit          3D

 21 20  0  0  1  0  0  0  0  0999 V2000
    6.8314  -13.9867   17.9677 C   0  0  0  0  0  0  0  0  0  0  0  0
    7.3426  -14.3578   19.3422 C   0  0  1  0  0  0  0  0  0  0  0  0
    8.4710  -15.1665   19.1526 O   0  0  0  0  0  0  0  0  0  0  0  0
    7.7643  -13.0848   20.0310 C   0  0  2  0  0  0  0  0  0  0  0  0
    8.6945  -12.3797   19.2025 N   0  0  0  0  0  0  0  0  0  0  0  0
    8.3374  -13.3380   21.3717 C   0  0  0  0  0  0  0  0  0  0  0  0
    9.5754  -13.3792   21.5882 O   0  0  0  0  0  0  0  0  0  0  0  0
    5.3480  -12.0855   26.7552 N   0  0  0  0  0  0  0  0  0  0  0  0
    6.5588  -12.6350   27.1990 C   0  0  0  0  0  0  0  0  0  0  0  0
    6.8576  -12.6446   28.4017 O   0  0  0  0  0  0  0  0  0  0  0  0
    7.5013  -13.2166   26.2103 C   0  0  0  0  0  0  0  0  0  0  0  0
    7.0102  -13.0316   24.8002 C   0  0  0  0  0  0  0  0  0  0  0  0
    7.9061  -13.6998   23.8389 C   0  0  2  0  0  0  0  0  0  0  0  0
    7.4766  -13.5425   22.4563 N   0  0  0  0  0  0  0  0  0  0  0  0
    8.1735  -15.1272   24.0526 C   0  0  0  0  0  0  0  0  0  0  0  0
    7.3308  -15.9871   23.7625 O   0  0  0  0  0  0  0  0  0  0  0  0
    9.4196  -15.5954   24.6059 N   0  0  0  0  0  0  0  0  0  0  0  0
    9.5954  -17.0081   24.8549 C   0  0  0  0  0  0  0  0  0  0  0  0
   10.9469  -17.3400   25.3047 C   0  0  0  0  0  0  0  0  0  0  0  0
   11.8203  -16.4414   25.3705 O   0  0  0  0  0  0  0  0  0  0  0  0
   11.3095  -18.6235   25.6667 O   0  0  0  0  0  0  0  0  0  0  0  0
  2  4  1  0
  2  1  1  6
  3  2  1  0
  4  5  1  6
  6  4  1  0
  7  6  2  0
  8  9  1  0
  9 10  2  0
 11  9  1  0
 11 12  1  0
 13 12  1  1
 13 15  1  0
 13 14  1  0
 14  6  1  0
 15 17  1  0
 16 15  2  0
 17 18  1  0
 18 19  1  0
 19 20  2  0
 19 21  1  0
M  END
$$$$
