TQG.pdb
     RDKit          3D

 21 20  0  0  1  0  0  0  0  0999 V2000
   12.8398  -21.2310   18.1552 C   0  0  0  0  0  0  0  0  0  0  0  0
   11.7030  -20.2399   18.2724 C   0  0  1  0  0  0  0  0  0  0  0  0
   10.9388  -20.3563   17.1038 O   0  0  0  0  0  0  0  0  0  0  0  0
   10.8584  -20.6520   19.4512 C   0  0  2  0  0  0  0  0  0  0  0  0
    9.5938  -19.9843   19.3887 N   0  0  0  0  0  0  0  0  0  0  0  0
   11.5325  -20.3870   20.7418 C   0  0  0  0  0  0  0  0  0  0  0  0
   11.7365  -19.2259   21.1795 O   0  0  0  0  0  0  0  0  0  0  0  0
   11.0505  -24.4653   24.8355 N   0  0  0  0  0  0  0  0  0  0  0  0
   10.2201  -23.3718   24.5533 C   0  0  0  0  0  0  0  0  0  0  0  0
    8.9931  -23.4384   24.7138 O   0  0  0  0  0  0  0  0  0  0  0  0
   10.8211  -22.1099   24.0528 C   0  0  0  0  0  0  0  0  0  0  0  0
   12.2985  -22.2576   23.8087 C   0  0  0  0  0  0  0  0  0  0  0  0
   12.7498  -21.3444   22.7431 C   0  0  2  0  0  0  0  0  0  0  0  0
   11.9677  -21.4654   21.5206 N   0  0  0  0  0  0  0  0  0  0  0  0
   14.1661  -21.4068   22.3625 C   0  0  0  0  0  0  0  0  0  0  0  0
   14.5512  -22.1462   21.4466 O   0  0  0  0  0  0  0  0  0  0  0  0
   15.1708  -20.6175   23.0298 N   0  0  0  0  0  0  0  0  0  0  0  0
   16.5453  -20.7069   22.5922 C   0  0  0  0  0  0  0  0  0  0  0  0
   17.4412  -19.8415   23.3587 C   0  0  0  0  0  0  0  0  0  0  0  0
   18.4757  -20.3220   23.8816 O   0  0  0  0  0  0  0  0  0  0  0  0
   17.1925  -18.4934   23.5348 O   0  0  0  0  0  0  0  0  0  0  0  0
  2  4  1  0
  2  1  1  6
  3  2  1  0
  4  5  1  1
  6  4  1  0
  7  6  2  0
  8  9  1  0
  9 10  2  0
 11  9  1  0
 11 12  1  0
 13 12  1  1
 13 15  1  0
 13 14  1  0
 14  6  1  0
 15 17  1  0
 16 15  2  0
 17 18  1  0
 18 19  1  0
 19 20  2  0
 19 21  1  0
M  END
$$$$
