LKV.pdb
     RDKit          3D

 25 24  0  0  1  0  0  0  0  0999 V2000
    9.6941  -13.9746   19.6483 C   0  0  0  0  0  0  0  0  0  0  0  0
    8.4127  -13.8122   18.8662 C   0  0  2  0  0  0  0  0  0  0  0  0
    8.0996  -12.3503   18.7062 C   0  0  0  0  0  0  0  0  0  0  0  0
    7.2554  -14.5296   19.4858 C   0  0  0  0  0  0  0  0  0  0  0  0
    7.5863  -15.8902   19.9970 C   0  0  2  0  0  0  0  0  0  0  0  0
    7.0364  -16.9540   19.2052 N   0  0  0  0  0  0  0  0  0  0  0  0
    7.0752  -15.9679   21.4121 C   0  0  0  0  0  0  0  0  0  0  0  0
    5.9333  -15.5403   21.6077 O   0  0  0  0  0  0  0  0  0  0  0  0
    7.8573  -16.4959   22.4388 N   0  0  0  0  0  0  0  0  0  0  0  0
    7.5099  -16.6539   23.8089 C   0  0  1  0  0  0  0  0  0  0  0  0
    7.8818  -18.0285   24.3963 C   0  0  0  0  0  0  0  0  0  0  0  0
    7.5102  -18.0885   25.8556 C   0  0  0  0  0  0  0  0  0  0  0  0
    7.8284  -19.4702   26.3942 C   0  0  0  0  0  0  0  0  0  0  0  0
    7.4178  -19.6500   27.8218 C   0  0  0  0  0  0  0  0  0  0  0  0
    7.8329  -21.0027   28.2260 N   0  0  0  0  0  0  0  0  0  0  0  0
    8.0196  -15.6172   24.6867 C   0  0  0  0  0  0  0  0  0  0  0  0
    9.2705  -15.3448   24.7355 O   0  0  0  0  0  0  0  0  0  0  0  0
    7.4622  -11.5603   27.4649 C   0  0  0  0  0  0  0  0  0  0  0  0
    6.8430  -12.6847   26.7047 C   0  0  2  0  0  0  0  0  0  0  0  0
    5.6576  -13.2531   27.4309 C   0  0  0  0  0  0  0  0  0  0  0  0
    7.7940  -13.8112   26.3970 C   0  0  2  0  0  0  0  0  0  0  0  0
    7.2022  -14.8225   25.5564 N   0  0  0  0  0  0  0  0  0  0  0  0
    8.3531  -14.4430   27.5936 C   0  0  0  0  0  0  0  0  0  0  0  0
    9.3597  -13.8009   28.2891 O   0  0  0  0  0  0  0  0  0  0  0  0
    7.9517  -15.5542   28.0171 O   0  0  0  0  0  0  0  0  0  0  0  0
  2  1  1  1
  3  2  1  0
  4  2  1  0
  4  5  1  0
  5  7  1  0
  5  6  1  6
  7  8  2  0
  9 10  1  0
  9  7  1  0
 11 12  1  0
 10 11  1  1
 13 12  1  0
 13 14  1  0
 15 14  1  0
 16 10  1  0
 17 16  2  0
 19 18  1  1
 19 21  1  0
 20 19  1  0
 21 23  1  0
 21 22  1  1
 22 16  1  0
 23 24  1  0
 25 23  2  0
M  END
$$$$
