LKV.pdb
     RDKit          3D

 25 24  0  0  1  0  0  0  0  0999 V2000
    9.3387  -13.6989   18.7852 C   0  0  0  0  0  0  0  0  0  0  0  0
    7.9116  -13.5983   19.2680 C   0  0  2  0  0  0  0  0  0  0  0  0
    7.4958  -12.1542   19.3202 C   0  0  0  0  0  0  0  0  0  0  0  0
    7.6967  -14.2521   20.5961 C   0  0  0  0  0  0  0  0  0  0  0  0
    8.0616  -15.6971   20.6288 C   0  0  2  0  0  0  0  0  0  0  0  0
    7.1155  -16.5467   19.9624 N   0  0  0  0  0  0  0  0  0  0  0  0
    8.1919  -16.0882   22.0779 C   0  0  0  0  0  0  0  0  0  0  0  0
    7.2196  -15.8490   22.8008 O   0  0  0  0  0  0  0  0  0  0  0  0
    9.3522  -16.6874   22.5669 N   0  0  0  0  0  0  0  0  0  0  0  0
    9.6380  -17.0752   23.9051 C   0  0  1  0  0  0  0  0  0  0  0  0
   10.8180  -18.0568   24.0357 C   0  0  0  0  0  0  0  0  0  0  0  0
   11.0380  -18.4163   25.4826 C   0  0  0  0  0  0  0  0  0  0  0  0
   10.5969  -19.8490   25.7126 C   0  0  0  0  0  0  0  0  0  0  0  0
   10.7758  -20.2956   27.1294 C   0  0  0  0  0  0  0  0  0  0  0  0
   10.2719  -21.6755   27.2168 N   0  0  0  0  0  0  0  0  0  0  0  0
    9.8437  -15.9722   24.8249 C   0  0  0  0  0  0  0  0  0  0  0  0
   10.7879  -15.1252   24.6447 O   0  0  0  0  0  0  0  0  0  0  0  0
    7.4025  -13.2684   25.8194 C   0  0  0  0  0  0  0  0  0  0  0  0
    8.0553  -13.7592   27.0678 C   0  0  2  0  0  0  0  0  0  0  0  0
    8.4172  -12.6242   27.9824 C   0  0  0  0  0  0  0  0  0  0  0  0
    9.2913  -14.5852   26.8271 C   0  0  2  0  0  0  0  0  0  0  0  0
    9.0387  -15.7293   25.9863 N   0  0  0  0  0  0  0  0  0  0  0  0
    9.9449  -15.0263   28.0608 C   0  0  0  0  0  0  0  0  0  0  0  0
   10.6971  -14.1230   28.7872 O   0  0  0  0  0  0  0  0  0  0  0  0
    9.8489  -16.2021   28.4892 O   0  0  0  0  0  0  0  0  0  0  0  0
  2  1  1  1
  3  2  1  0
  4  2  1  0
  4  5  1  0
  5  7  1  0
  5  6  1  1
  7  8  2  0
  9 10  1  0
  9  7  1  0
 11 12  1  0
 10 11  1  6
 13 12  1  0
 13 14  1  0
 15 14  1  0
 16 10  1  0
 17 16  2  0
 19 18  1  6
 19 21  1  0
 20 19  1  0
 21 23  1  0
 21 22  1  6
 22 16  1  0
 23 24  1  0
 25 23  2  0
M  END
$$$$
