LKV.pdb
     RDKit          3D

 25 24  0  0  1  0  0  0  0  0999 V2000
    7.5208  -12.0859   21.0884 C   0  0  0  0  0  0  0  0  0  0  0  0
    8.1723  -13.3649   20.6196 C   0  0  2  0  0  0  0  0  0  0  0  0
    9.0406  -13.0819   19.4251 C   0  0  0  0  0  0  0  0  0  0  0  0
    7.1837  -14.4422   20.3034 C   0  0  0  0  0  0  0  0  0  0  0  0
    7.6114  -15.8046   20.7311 C   0  0  2  0  0  0  0  0  0  0  0  0
    6.9144  -16.8656   20.0608 N   0  0  0  0  0  0  0  0  0  0  0  0
    7.3948  -15.8896   22.2197 C   0  0  0  0  0  0  0  0  0  0  0  0
    7.1736  -14.8244   22.8041 O   0  0  0  0  0  0  0  0  0  0  0  0
    7.4436  -17.1102   22.8922 N   0  0  0  0  0  0  0  0  0  0  0  0
    7.3284  -17.3425   24.2906 C   0  0  1  0  0  0  0  0  0  0  0  0
    7.2344  -18.8316   24.6739 C   0  0  0  0  0  0  0  0  0  0  0  0
    7.0671  -18.9755   26.1647 C   0  0  0  0  0  0  0  0  0  0  0  0
    7.0813  -20.4481   26.5276 C   0  0  0  0  0  0  0  0  0  0  0  0
    6.9835  -20.6880   28.0013 C   0  0  0  0  0  0  0  0  0  0  0  0
    8.2002  -20.1310   28.6137 N   0  0  0  0  0  0  0  0  0  0  0  0
    8.3604  -16.7169   25.0959 C   0  0  0  0  0  0  0  0  0  0  0  0
    9.6023  -16.8849   24.8302 O   0  0  0  0  0  0  0  0  0  0  0  0
    8.1824  -12.9741   26.8021 C   0  0  0  0  0  0  0  0  0  0  0  0
    8.7734  -14.0212   27.6852 C   0  0  2  0  0  0  0  0  0  0  0  0
    9.9615  -13.4979   28.4403 C   0  0  0  0  0  0  0  0  0  0  0  0
    9.1894  -15.2717   26.9565 C   0  0  2  0  0  0  0  0  0  0  0  0
    8.1015  -15.8779   26.2295 N   0  0  0  0  0  0  0  0  0  0  0  0
    9.8070  -16.2736   27.8274 C   0  0  0  0  0  0  0  0  0  0  0  0
    9.0039  -17.1912   28.4774 O   0  0  0  0  0  0  0  0  0  0  0  0
   11.0474  -16.3335   28.0092 O   0  0  0  0  0  0  0  0  0  0  0  0
  2  1  1  6
  3  2  1  0
  4  2  1  0
  4  5  1  0
  5  7  1  0
  5  6  1  6
  7  8  2  0
  9 10  1  0
  9  7  1  0
 11 12  1  0
 10 11  1  6
 13 12  1  0
 13 14  1  0
 15 14  1  0
 16 10  1  0
 17 16  2  0
 19 18  1  6
 19 21  1  0
 20 19  1  0
 21 23  1  0
 21 22  1  1
 22 16  1  0
 23 24  1  0
 25 23  2  0
M  END
$$$$
