LKV.pdb
     RDKit          3D

 25 24  0  0  1  0  0  0  0  0999 V2000
    9.6250  -13.9533   19.1712 C   0  0  0  0  0  0  0  0  0  0  0  0
    8.1615  -13.7207   18.8813 C   0  0  2  0  0  0  0  0  0  0  0  0
    7.9109  -12.2503   18.6918 C   0  0  0  0  0  0  0  0  0  0  0  0
    7.2613  -14.2717   19.9414 C   0  0  0  0  0  0  0  0  0  0  0  0
    7.4956  -15.7110   20.2505 C   0  0  2  0  0  0  0  0  0  0  0  0
    6.7651  -16.6100   19.4026 N   0  0  0  0  0  0  0  0  0  0  0  0
    7.1159  -15.9215   21.6932 C   0  0  0  0  0  0  0  0  0  0  0  0
    5.9739  -15.5797   22.0159 O   0  0  0  0  0  0  0  0  0  0  0  0
    8.0129  -16.4732   22.6072 N   0  0  0  0  0  0  0  0  0  0  0  0
    7.8181  -16.6928   23.9989 C   0  0  1  0  0  0  0  0  0  0  0  0
    8.3888  -18.0294   24.5094 C   0  0  0  0  0  0  0  0  0  0  0  0
    8.1185  -18.1811   25.9842 C   0  0  0  0  0  0  0  0  0  0  0  0
    7.2661  -19.4151   26.2101 C   0  0  0  0  0  0  0  0  0  0  0  0
    6.8816  -19.6057   27.6435 C   0  0  0  0  0  0  0  0  0  0  0  0
    8.1025  -19.9803   28.3746 N   0  0  0  0  0  0  0  0  0  0  0  0
    8.2971  -15.6231   24.8540 C   0  0  0  0  0  0  0  0  0  0  0  0
    9.4797  -15.1479   24.7231 O   0  0  0  0  0  0  0  0  0  0  0  0
    5.8678  -13.5665   27.8333 C   0  0  0  0  0  0  0  0  0  0  0  0
    7.0312  -12.9516   27.1306 C   0  0  2  0  0  0  0  0  0  0  0  0
    6.5946  -12.1626   25.9296 C   0  0  0  0  0  0  0  0  0  0  0  0
    8.0740  -13.9450   26.6904 C   0  0  2  0  0  0  0  0  0  0  0  0
    7.5215  -15.0130   25.8943 N   0  0  0  0  0  0  0  0  0  0  0  0
    8.8390  -14.5152   27.8009 C   0  0  0  0  0  0  0  0  0  0  0  0
    8.8194  -15.8820   28.0036 O   0  0  0  0  0  0  0  0  0  0  0  0
    9.5180  -13.8068   28.5833 O   0  0  0  0  0  0  0  0  0  0  0  0
  2  1  1  1
  3  2  1  0
  4  2  1  0
  4  5  1  0
  5  7  1  0
  5  6  1  6
  7  8  2  0
  9 10  1  0
  9  7  1  0
 11 12  1  0
 10 11  1  1
 13 12  1  0
 13 14  1  0
 15 14  1  0
 16 10  1  0
 17 16  2  0
 19 18  1  6
 19 21  1  0
 20 19  1  0
 21 23  1  0
 21 22  1  1
 22 16  1  0
 23 24  1  0
 25 23  2  0
M  END
$$$$
