LKV.pdb
     RDKit          3D

 25 24  0  0  1  0  0  0  0  0999 V2000
    9.5403  -13.0611   19.3957 C   0  0  0  0  0  0  0  0  0  0  0  0
    8.0614  -13.3107   19.2205 C   0  0  2  0  0  0  0  0  0  0  0  0
    7.3607  -12.0130   18.9273 C   0  0  0  0  0  0  0  0  0  0  0  0
    7.4389  -13.9853   20.4017 C   0  0  0  0  0  0  0  0  0  0  0  0
    8.1544  -15.2150   20.8466 C   0  0  2  0  0  0  0  0  0  0  0  0
    7.8472  -16.3774   20.0621 N   0  0  0  0  0  0  0  0  0  0  0  0
    7.7887  -15.4420   22.2905 C   0  0  0  0  0  0  0  0  0  0  0  0
    7.3552  -14.4639   22.9074 O   0  0  0  0  0  0  0  0  0  0  0  0
    7.9356  -16.6928   22.8889 N   0  0  0  0  0  0  0  0  0  0  0  0
    7.6162  -17.0659   24.2237 C   0  0  1  0  0  0  0  0  0  0  0  0
    7.4202  -18.5808   24.4223 C   0  0  0  0  0  0  0  0  0  0  0  0
    6.1998  -19.0502   23.6728 C   0  0  0  0  0  0  0  0  0  0  0  0
    6.0505  -20.5487   23.8528 C   0  0  0  0  0  0  0  0  0  0  0  0
    4.7844  -21.0851   23.2628 C   0  0  0  0  0  0  0  0  0  0  0  0
    4.8105  -22.5465   23.4340 N   0  0  0  0  0  0  0  0  0  0  0  0
    8.5439  -16.5792   25.2275 C   0  0  0  0  0  0  0  0  0  0  0  0
    9.8078  -16.5787   25.0182 O   0  0  0  0  0  0  0  0  0  0  0  0
    7.6992  -13.3346   27.4255 C   0  0  0  0  0  0  0  0  0  0  0  0
    8.4927  -14.3291   28.2046 C   0  0  2  0  0  0  0  0  0  0  0  0
    9.5836  -13.6650   28.9949 C   0  0  0  0  0  0  0  0  0  0  0  0
    9.1119  -15.4125   27.3614 C   0  0  2  0  0  0  0  0  0  0  0  0
    8.1517  -16.0683   26.5086 N   0  0  0  0  0  0  0  0  0  0  0  0
    9.8305  -16.4193   28.1448 C   0  0  0  0  0  0  0  0  0  0  0  0
    9.3579  -17.7175   28.1728 O   0  0  0  0  0  0  0  0  0  0  0  0
   10.8676  -16.1487   28.7977 O   0  0  0  0  0  0  0  0  0  0  0  0
  2  1  1  1
  3  2  1  0
  4  2  1  0
  4  5  1  0
  5  7  1  0
  5  6  1  6
  7  8  2  0
  9 10  1  0
  9  7  1  0
 11 12  1  0
 10 11  1  6
 13 12  1  0
 13 14  1  0
 15 14  1  0
 16 10  1  0
 17 16  2  0
 19 18  1  6
 19 21  1  0
 20 19  1  0
 21 23  1  0
 21 22  1  1
 22 16  1  0
 23 24  1  0
 25 23  2  0
M  END
$$$$
