CWC.pdb
     RDKit          3D

 27 28  0  0  1  0  0  0  0  0999 V2000
   26.6334  -15.8192  -14.7047 N   0  0  0  0  0  0  0  0  0  0  0  0
   25.7819  -16.9852  -14.5511 C   0  0  1  0  0  0  0  0  0  0  0  0
   24.8281  -17.0024  -15.7336 C   0  0  0  0  0  0  0  0  0  0  0  0
   23.4982  -15.8008  -15.5152 S   0  0  0  0  0  0  0  0  0  0  0  0
   26.6314  -18.2120  -14.5591 C   0  0  0  0  0  0  0  0  0  0  0  0
   27.8334  -18.1524  -14.8862 O   0  0  0  0  0  0  0  0  0  0  0  0
   26.0940  -19.4521  -14.1995 N   0  0  0  0  0  0  0  0  0  0  0  0
   26.8404  -20.6993  -14.0827 C   0  0  1  0  0  0  0  0  0  0  0  0
   26.1379  -21.5086  -13.0479 C   0  0  0  0  0  0  0  0  0  0  0  0
   26.3461  -21.1385  -11.6477 C   0  0  0  0  0  0  0  0  0  0  0  0
   25.4050  -20.7063  -10.7134 C   0  0  0  0  0  0  0  0  0  0  0  0
   26.0534  -20.4601   -9.5880 N   0  0  0  0  0  0  0  0  0  0  0  0
   27.3634  -20.6955   -9.6953 C   0  0  0  0  0  0  0  0  0  0  0  0
   28.4465  -20.6180   -8.8532 C   0  0  0  0  0  0  0  0  0  0  0  0
   29.7146  -20.9536   -9.2571 C   0  0  0  0  0  0  0  0  0  0  0  0
   29.9359  -21.3852  -10.5435 C   0  0  0  0  0  0  0  0  0  0  0  0
   28.8613  -21.4633  -11.3857 C   0  0  0  0  0  0  0  0  0  0  0  0
   27.5622  -21.1266  -10.9971 C   0  0  0  0  0  0  0  0  0  0  0  0
   27.1344  -21.3322  -15.3537 C   0  0  0  0  0  0  0  0  0  0  0  0
   26.2914  -21.3166  -16.2816 O   0  0  0  0  0  0  0  0  0  0  0  0
   28.3666  -22.0015  -15.6372 N   0  0  0  0  0  0  0  0  0  0  0  0
   28.6266  -22.5991  -16.9097 C   0  0  1  0  0  0  0  0  0  0  0  0
   30.0744  -23.0096  -17.0242 C   0  0  0  0  0  0  0  0  0  0  0  0
   30.5486  -23.9915  -15.5783 S   0  0  0  0  0  0  0  0  0  0  0  0
   27.8036  -23.8378  -17.1206 C   0  0  0  0  0  0  0  0  0  0  0  0
   27.0655  -24.3205  -16.2313 O   0  0  0  0  0  0  0  0  0  0  0  0
   27.8675  -24.4699  -18.3554 O   0  0  0  0  0  0  0  0  0  0  0  0
  2  1  1  6
  2  5  1  0
  3  2  1  0
  4  3  1  0
  5  6  2  0
  7  5  1  0
  7  8  1  0
  8  9  1  1
 10  9  1  0
 11 10  2  0
 12 13  1  0
 12 11  1  0
 13 18  2  0
 14 15  2  0
 14 13  1  0
 15 16  1  0
 16 17  2  0
 18 17  1  0
 18 10  1  0
 19 21  1  0
 19  8  1  0
 20 19  2  0
 22 23  1  1
 22 21  1  0
 23 24  1  0
 25 22  1  0
 25 27  1  0
 26 25  2  0
M  END
$$$$
