CWC.pdb
     RDKit          3D

 27 28  0  0  1  0  0  0  0  0999 V2000
   26.5679  -10.5241  -18.2608 N   0  0  0  0  0  0  0  0  0  0  0  0
   25.6143   -9.9345  -19.1833 C   0  0  1  0  0  0  0  0  0  0  0  0
   25.4035  -10.9331  -20.3088 C   0  0  0  0  0  0  0  0  0  0  0  0
   26.9611  -11.3210  -21.1355 S   0  0  0  0  0  0  0  0  0  0  0  0
   24.3290   -9.6922  -18.4648 C   0  0  0  0  0  0  0  0  0  0  0  0
   23.3225   -9.2862  -19.0792 O   0  0  0  0  0  0  0  0  0  0  0  0
   24.2301   -9.9165  -17.0879 N   0  0  0  0  0  0  0  0  0  0  0  0
   23.0398   -9.6960  -16.2750 C   0  0  1  0  0  0  0  0  0  0  0  0
   22.8379  -10.9440  -15.4869 C   0  0  0  0  0  0  0  0  0  0  0  0
   22.5471  -12.1702  -16.2303 C   0  0  0  0  0  0  0  0  0  0  0  0
   23.3722  -13.2747  -16.4425 C   0  0  0  0  0  0  0  0  0  0  0  0
   22.6990  -14.1290  -17.1938 N   0  0  0  0  0  0  0  0  0  0  0  0
   21.4797  -13.6811  -17.5033 C   0  0  0  0  0  0  0  0  0  0  0  0
   20.4100  -14.1624  -18.2192 C   0  0  0  0  0  0  0  0  0  0  0  0
   19.2403  -13.4567  -18.3529 C   0  0  0  0  0  0  0  0  0  0  0  0
   19.1086  -12.2234  -17.7601 C   0  0  0  0  0  0  0  0  0  0  0  0
   20.1707  -11.7397  -17.0473 C   0  0  0  0  0  0  0  0  0  0  0  0
   21.3707  -12.4394  -16.8980 C   0  0  0  0  0  0  0  0  0  0  0  0
   23.0393   -8.4350  -15.5592 C   0  0  0  0  0  0  0  0  0  0  0  0
   24.0916   -8.0029  -15.0321 O   0  0  0  0  0  0  0  0  0  0  0  0
   21.8775   -7.6148  -15.4037 N   0  0  0  0  0  0  0  0  0  0  0  0
   21.9245   -6.3598  -14.7206 C   0  0  1  0  0  0  0  0  0  0  0  0
   22.7774   -5.3694  -15.4753 C   0  0  0  0  0  0  0  0  0  0  0  0
   22.8314   -3.7982  -14.5766 S   0  0  0  0  0  0  0  0  0  0  0  0
   20.5592   -5.7479  -14.5876 C   0  0  0  0  0  0  0  0  0  0  0  0
   19.5797   -6.1209  -15.2731 O   0  0  0  0  0  0  0  0  0  0  0  0
   20.3814   -4.7263  -13.6640 O   0  0  0  0  0  0  0  0  0  0  0  0
  2  1  1  1
  2  5  1  0
  3  2  1  0
  4  3  1  0
  5  6  2  0
  7  5  1  0
  7  8  1  0
  8  9  1  1
 10  9  1  0
 11 10  2  0
 12 13  1  0
 12 11  1  0
 13 18  2  0
 14 15  2  0
 14 13  1  0
 15 16  1  0
 16 17  2  0
 18 17  1  0
 18 10  1  0
 19 21  1  0
 19  8  1  0
 20 19  2  0
 22 23  1  6
 22 21  1  0
 23 24  1  0
 25 22  1  0
 25 27  1  0
 26 25  2  0
M  END
$$$$
