CWC.pdb
     RDKit          3D

 27 28  0  0  1  0  0  0  0  0999 V2000
   21.8191  -13.5625  -19.7741 N   0  0  0  0  0  0  0  0  0  0  0  0
   22.0840  -12.1623  -20.0518 C   0  0  1  0  0  0  0  0  0  0  0  0
   21.5226  -11.8652  -21.4320 C   0  0  0  0  0  0  0  0  0  0  0  0
   22.6863  -12.3468  -22.7259 S   0  0  0  0  0  0  0  0  0  0  0  0
   21.3955  -11.3247  -19.0266 C   0  0  0  0  0  0  0  0  0  0  0  0
   20.1768  -11.4655  -18.8028 O   0  0  0  0  0  0  0  0  0  0  0  0
   22.1057  -10.3654  -18.2975 N   0  0  0  0  0  0  0  0  0  0  0  0
   21.5238   -9.3987  -17.3738 C   0  0  1  0  0  0  0  0  0  0  0  0
   22.5118   -9.2304  -16.2716 C   0  0  0  0  0  0  0  0  0  0  0  0
   22.1568   -8.3208  -15.1820 C   0  0  0  0  0  0  0  0  0  0  0  0
   21.5190   -8.6148  -13.9769 C   0  0  0  0  0  0  0  0  0  0  0  0
   21.3816   -7.4772  -13.3178 N   0  0  0  0  0  0  0  0  0  0  0  0
   21.8810   -6.4374  -13.9906 C   0  0  0  0  0  0  0  0  0  0  0  0
   22.0040   -5.0881  -13.7615 C   0  0  0  0  0  0  0  0  0  0  0  0
   22.6004   -4.2428  -14.6636 C   0  0  0  0  0  0  0  0  0  0  0  0
   23.1001   -4.7378  -15.8448 C   0  0  0  0  0  0  0  0  0  0  0  0
   22.9793   -6.0800  -16.0778 C   0  0  0  0  0  0  0  0  0  0  0  0
   22.3759   -6.9591  -15.1750 C   0  0  0  0  0  0  0  0  0  0  0  0
   21.0141   -8.2024  -18.0154 C   0  0  0  0  0  0  0  0  0  0  0  0
   21.6868   -7.6185  -18.8977 O   0  0  0  0  0  0  0  0  0  0  0  0
   19.7477   -7.6155  -17.7015 N   0  0  0  0  0  0  0  0  0  0  0  0
   19.3222   -6.3808  -18.2831 C   0  0  1  0  0  0  0  0  0  0  0  0
   18.0487   -6.5692  -19.0708 C   0  0  0  0  0  0  0  0  0  0  0  0
   17.5077   -4.9797  -19.7493 S   0  0  0  0  0  0  0  0  0  0  0  0
   19.0382   -5.3419  -17.2361 C   0  0  0  0  0  0  0  0  0  0  0  0
   18.3919   -5.5906  -16.1926 O   0  0  0  0  0  0  0  0  0  0  0  0
   19.5151   -4.0536  -17.4388 O   0  0  0  0  0  0  0  0  0  0  0  0
  2  1  1  1
  2  5  1  0
  3  2  1  0
  4  3  1  0
  5  6  2  0
  7  5  1  0
  7  8  1  0
  8  9  1  1
 10  9  1  0
 11 10  2  0
 12 13  1  0
 12 11  1  0
 13 18  2  0
 14 15  2  0
 14 13  1  0
 15 16  1  0
 16 17  2  0
 18 17  1  0
 18 10  1  0
 19 21  1  0
 19  8  1  0
 20 19  2  0
 22 23  1  1
 22 21  1  0
 23 24  1  0
 25 22  1  0
 25 27  1  0
 26 25  2  0
M  END
$$$$
