CWC.pdb
     RDKit          3D

 27 28  0  0  1  0  0  0  0  0999 V2000
   24.7388  -13.1188  -17.3948 N   0  0  0  0  0  0  0  0  0  0  0  0
   24.5942  -12.3924  -16.1460 C   0  0  1  0  0  0  0  0  0  0  0  0
   25.9419  -11.7634  -15.8350 C   0  0  0  0  0  0  0  0  0  0  0  0
   27.1912  -13.0265  -15.5126 S   0  0  0  0  0  0  0  0  0  0  0  0
   23.5599  -11.3307  -16.3181 C   0  0  0  0  0  0  0  0  0  0  0  0
   23.5003  -10.6640  -17.3704 O   0  0  0  0  0  0  0  0  0  0  0  0
   22.6376  -11.0640  -15.3011 N   0  0  0  0  0  0  0  0  0  0  0  0
   21.5631  -10.0804  -15.3657 C   0  0  1  0  0  0  0  0  0  0  0  0
   20.3549  -10.7476  -14.8047 C   0  0  0  0  0  0  0  0  0  0  0  0
   19.7399  -11.8085  -15.6028 C   0  0  0  0  0  0  0  0  0  0  0  0
   19.9594  -13.1844  -15.5370 C   0  0  0  0  0  0  0  0  0  0  0  0
   19.2061  -13.7470  -16.4662 N   0  0  0  0  0  0  0  0  0  0  0  0
   18.4941  -12.8505  -17.1536 C   0  0  0  0  0  0  0  0  0  0  0  0
   17.5789  -12.9008  -18.1774 C   0  0  0  0  0  0  0  0  0  0  0  0
   16.9811  -11.7731  -18.6823 C   0  0  0  0  0  0  0  0  0  0  0  0
   17.2911  -10.5384  -18.1635 C   0  0  0  0  0  0  0  0  0  0  0  0
   18.2020  -10.4830  -17.1449 C   0  0  0  0  0  0  0  0  0  0  0  0
   18.8235  -11.6168  -16.6155 C   0  0  0  0  0  0  0  0  0  0  0  0
   21.9232   -8.7777  -14.8406 C   0  0  0  0  0  0  0  0  0  0  0  0
   22.6823   -8.6803  -13.8475 O   0  0  0  0  0  0  0  0  0  0  0  0
   21.4554   -7.5449  -15.3955 N   0  0  0  0  0  0  0  0  0  0  0  0
   21.8159   -6.2796  -14.8363 C   0  0  1  0  0  0  0  0  0  0  0  0
   22.8676   -5.6002  -15.6792 C   0  0  0  0  0  0  0  0  0  0  0  0
   23.2886   -3.9943  -14.9558 S   0  0  0  0  0  0  0  0  0  0  0  0
   20.6408   -5.3464  -14.7690 C   0  0  0  0  0  0  0  0  0  0  0  0
   20.4102   -4.6177  -13.7769 O   0  0  0  0  0  0  0  0  0  0  0  0
   19.7774   -5.2935  -15.8553 O   0  0  0  0  0  0  0  0  0  0  0  0
  2  1  1  6
  2  5  1  0
  3  2  1  0
  4  3  1  0
  5  6  2  0
  7  5  1  0
  7  8  1  0
  8  9  1  1
 10  9  1  0
 11 10  2  0
 12 13  1  0
 12 11  1  0
 13 18  2  0
 14 15  2  0
 14 13  1  0
 15 16  1  0
 16 17  2  0
 18 17  1  0
 18 10  1  0
 19 21  1  0
 19  8  1  0
 20 19  2  0
 22 23  1  6
 22 21  1  0
 23 24  1  0
 25 22  1  0
 25 27  1  0
 26 25  2  0
M  END
$$$$
