CWC.pdb
     RDKit          3D

 27 28  0  0  1  0  0  0  0  0999 V2000
   29.6135  -23.5179  -16.3669 N   0  0  0  0  0  0  0  0  0  0  0  0
   28.7817  -24.0505  -17.4311 C   0  0  1  0  0  0  0  0  0  0  0  0
   29.7118  -24.6809  -18.4539 C   0  0  0  0  0  0  0  0  0  0  0  0
   30.8864  -25.8010  -17.6628 S   0  0  0  0  0  0  0  0  0  0  0  0
   27.8678  -25.0842  -16.8627 C   0  0  0  0  0  0  0  0  0  0  0  0
   28.1070  -25.6067  -15.7559 O   0  0  0  0  0  0  0  0  0  0  0  0
   26.7252  -25.4859  -17.5621 N   0  0  0  0  0  0  0  0  0  0  0  0
   25.7420  -26.4568  -17.0962 C   0  0  1  0  0  0  0  0  0  0  0  0
   24.4057  -25.8492  -17.3499 C   0  0  0  0  0  0  0  0  0  0  0  0
   23.9522  -24.8096  -16.4256 C   0  0  0  0  0  0  0  0  0  0  0  0
   24.4036  -23.4952  -16.3061 C   0  0  0  0  0  0  0  0  0  0  0  0
   23.7252  -22.9352  -15.3194 N   0  0  0  0  0  0  0  0  0  0  0  0
   22.8485  -23.7763  -14.7651 C   0  0  0  0  0  0  0  0  0  0  0  0
   21.9205  -23.7010  -13.7544 C   0  0  0  0  0  0  0  0  0  0  0  0
   21.1235  -24.7641  -13.4103 C   0  0  0  0  0  0  0  0  0  0  0  0
   21.2376  -25.9568  -14.0843 C   0  0  0  0  0  0  0  0  0  0  0  0
   22.1602  -26.0370  -15.0906 C   0  0  0  0  0  0  0  0  0  0  0  0
   22.9824  -24.9689  -15.4579 C   0  0  0  0  0  0  0  0  0  0  0  0
   25.9742  -27.8066  -17.5722 C   0  0  0  0  0  0  0  0  0  0  0  0
   26.1858  -28.0240  -18.7887 O   0  0  0  0  0  0  0  0  0  0  0  0
   25.9785  -28.9556  -16.7199 N   0  0  0  0  0  0  0  0  0  0  0  0
   26.2173  -30.2710  -17.2261 C   0  0  1  0  0  0  0  0  0  0  0  0
   26.6337  -31.2058  -16.1167 C   0  0  0  0  0  0  0  0  0  0  0  0
   28.3410  -30.8527  -15.6271 S   0  0  0  0  0  0  0  0  0  0  0  0
   24.9845  -30.8581  -17.8519 C   0  0  0  0  0  0  0  0  0  0  0  0
   23.8683  -30.2917  -17.8107 O   0  0  0  0  0  0  0  0  0  0  0  0
   25.0930  -32.0801  -18.5025 O   0  0  0  0  0  0  0  0  0  0  0  0
  2  1  1  1
  2  5  1  0
  3  2  1  0
  4  3  1  0
  5  6  2  0
  7  5  1  0
  7  8  1  0
  8  9  1  6
 10  9  1  0
 11 10  2  0
 12 13  1  0
 12 11  1  0
 13 18  2  0
 14 15  2  0
 14 13  1  0
 15 16  1  0
 16 17  2  0
 18 17  1  0
 18 10  1  0
 19 21  1  0
 19  8  1  0
 20 19  2  0
 22 23  1  1
 22 21  1  0
 23 24  1  0
 25 22  1  0
 25 27  1  0
 26 25  2  0
M  END
$$$$
