CWC.pdb
     RDKit          3D

 27 28  0  0  1  0  0  0  0  0999 V2000
   20.9312  -20.5437  -12.2494 N   0  0  0  0  0  0  0  0  0  0  0  0
   21.9860  -21.4158  -12.7340 C   0  0  1  0  0  0  0  0  0  0  0  0
   21.5797  -21.8822  -14.1217 C   0  0  0  0  0  0  0  0  0  0  0  0
   20.6418  -23.4230  -14.0423 S   0  0  0  0  0  0  0  0  0  0  0  0
   23.2609  -20.6435  -12.8050 C   0  0  0  0  0  0  0  0  0  0  0  0
   23.2544  -19.4270  -13.0794 O   0  0  0  0  0  0  0  0  0  0  0  0
   24.4875  -21.2712  -12.5648 N   0  0  0  0  0  0  0  0  0  0  0  0
   25.7949  -20.6275  -12.6151 C   0  0  1  0  0  0  0  0  0  0  0  0
   26.6728  -21.3972  -11.6898 C   0  0  0  0  0  0  0  0  0  0  0  0
   26.6354  -21.0385  -10.2718 C   0  0  0  0  0  0  0  0  0  0  0  0
   25.5526  -20.5867   -9.5175 C   0  0  0  0  0  0  0  0  0  0  0  0
   25.9943  -20.3618   -8.2920 N   0  0  0  0  0  0  0  0  0  0  0  0
   27.2963  -20.6298   -8.1649 C   0  0  0  0  0  0  0  0  0  0  0  0
   28.2124  -20.5833   -7.1417 C   0  0  0  0  0  0  0  0  0  0  0  0
   29.5239  -20.9490   -7.3148 C   0  0  0  0  0  0  0  0  0  0  0  0
   29.9619  -21.3805   -8.5444 C   0  0  0  0  0  0  0  0  0  0  0  0
   29.0542  -21.4279   -9.5661 C   0  0  0  0  0  0  0  0  0  0  0  0
   27.7150  -21.0601   -9.4137 C   0  0  0  0  0  0  0  0  0  0  0  0
   26.2791  -20.3792  -13.9591 C   0  0  0  0  0  0  0  0  0  0  0  0
   26.1168  -21.2346  -14.8613 O   0  0  0  0  0  0  0  0  0  0  0  0
   26.9572  -19.1805  -14.3462 N   0  0  0  0  0  0  0  0  0  0  0  0
   27.2242  -18.8723  -15.7164 C   0  0  1  0  0  0  0  0  0  0  0  0
   26.4973  -17.6179  -16.1360 C   0  0  0  0  0  0  0  0  0  0  0  0
   26.7257  -16.3300  -14.8836 S   0  0  0  0  0  0  0  0  0  0  0  0
   28.6870  -18.6301  -15.9569 C   0  0  0  0  0  0  0  0  0  0  0  0
   29.5330  -18.6203  -15.0335 O   0  0  0  0  0  0  0  0  0  0  0  0
   29.1135  -18.4089  -17.2598 O   0  0  0  0  0  0  0  0  0  0  0  0
  2  1  1  6
  2  5  1  0
  3  2  1  0
  4  3  1  0
  5  6  2  0
  7  5  1  0
  7  8  1  0
  8  9  1  6
 10  9  1  0
 11 10  2  0
 12 13  1  0
 12 11  1  0
 13 18  2  0
 14 15  2  0
 14 13  1  0
 15 16  1  0
 16 17  2  0
 18 17  1  0
 18 10  1  0
 19 21  1  0
 19  8  1  0
 20 19  2  0
 22 23  1  1
 22 21  1  0
 23 24  1  0
 25 22  1  0
 25 27  1  0
 26 25  2  0
M  END
$$$$
