CWC.pdb
     RDKit          3D

 27 28  0  0  1  0  0  0  0  0999 V2000
   28.8968  -22.3902  -16.1425 N   0  0  0  0  0  0  0  0  0  0  0  0
   28.4741  -21.1688  -15.4811 C   0  0  1  0  0  0  0  0  0  0  0  0
   27.8145  -20.2943  -16.5340 C   0  0  0  0  0  0  0  0  0  0  0  0
   26.1828  -20.9275  -16.9776 S   0  0  0  0  0  0  0  0  0  0  0  0
   27.4930  -21.5106  -14.4099 C   0  0  0  0  0  0  0  0  0  0  0  0
   26.9973  -22.6529  -14.3410 O   0  0  0  0  0  0  0  0  0  0  0  0
   27.1114  -20.5547  -13.4629 N   0  0  0  0  0  0  0  0  0  0  0  0
   26.1812  -20.7746  -12.3617 C   0  0  1  0  0  0  0  0  0  0  0  0
   26.6985  -19.9763  -11.2153 C   0  0  0  0  0  0  0  0  0  0  0  0
   27.7459  -20.5809  -10.3918 C   0  0  0  0  0  0  0  0  0  0  0  0
   28.8019  -21.3999  -10.7915 C   0  0  0  0  0  0  0  0  0  0  0  0
   29.4758  -21.7305   -9.7034 N   0  0  0  0  0  0  0  0  0  0  0  0
   28.9515  -21.1934   -8.5990 C   0  0  0  0  0  0  0  0  0  0  0  0
   29.2593  -21.2068   -7.2598 C   0  0  0  0  0  0  0  0  0  0  0  0
   28.5185  -20.5204   -6.3304 C   0  0  0  0  0  0  0  0  0  0  0  0
   27.4258  -19.7864   -6.7267 C   0  0  0  0  0  0  0  0  0  0  0  0
   27.1148  -19.7705   -8.0583 C   0  0  0  0  0  0  0  0  0  0  0  0
   27.8535  -20.4616   -9.0220 C   0  0  0  0  0  0  0  0  0  0  0  0
   24.7870  -20.6130  -12.7258 C   0  0  0  0  0  0  0  0  0  0  0  0
   24.4037  -19.5856  -13.3335 O   0  0  0  0  0  0  0  0  0  0  0  0
   23.7754  -21.5801  -12.4291 N   0  0  0  0  0  0  0  0  0  0  0  0
   22.4226  -21.4152  -12.8611 C   0  0  1  0  0  0  0  0  0  0  0  0
   21.7766  -22.7534  -13.1254 C   0  0  0  0  0  0  0  0  0  0  0  0
   22.6101  -23.5731  -14.5085 S   0  0  0  0  0  0  0  0  0  0  0  0
   21.5871  -20.7250  -11.8210 C   0  0  0  0  0  0  0  0  0  0  0  0
   22.0176  -20.4539  -10.6766 O   0  0  0  0  0  0  0  0  0  0  0  0
   20.2837  -20.3749  -12.1478 O   0  0  0  0  0  0  0  0  0  0  0  0
  2  1  1  6
  2  5  1  0
  3  2  1  0
  4  3  1  0
  5  6  2  0
  7  5  1  0
  7  8  1  0
  8  9  1  1
 10  9  1  0
 11 10  2  0
 12 13  1  0
 12 11  1  0
 13 18  2  0
 14 15  2  0
 14 13  1  0
 15 16  1  0
 16 17  2  0
 18 17  1  0
 18 10  1  0
 19 21  1  0
 19  8  1  0
 20 19  2  0
 22 23  1  1
 22 21  1  0
 23 24  1  0
 25 22  1  0
 25 27  1  0
 26 25  2  0
M  END
$$$$
