CWC.pdb
     RDKit          3D

 27 28  0  0  1  0  0  0  0  0999 V2000
   28.0375  -23.8587  -17.1123 N   0  0  0  0  0  0  0  0  0  0  0  0
   26.5974  -23.9999  -16.9928 C   0  0  1  0  0  0  0  0  0  0  0  0
   26.3251  -25.4100  -16.4969 C   0  0  0  0  0  0  0  0  0  0  0  0
   24.5526  -25.7104  -16.3290 S   0  0  0  0  0  0  0  0  0  0  0  0
   26.0914  -23.0020  -16.0055 C   0  0  0  0  0  0  0  0  0  0  0  0
   26.6618  -22.8466  -14.9074 O   0  0  0  0  0  0  0  0  0  0  0  0
   24.9668  -22.2222  -16.2944 N   0  0  0  0  0  0  0  0  0  0  0  0
   24.4006  -21.1949  -15.4282 C   0  0  1  0  0  0  0  0  0  0  0  0
   24.4666  -19.9206  -16.1971 C   0  0  0  0  0  0  0  0  0  0  0  0
   25.7762  -19.5044  -16.6996 C   0  0  0  0  0  0  0  0  0  0  0  0
   26.1307  -19.1272  -17.9948 C   0  0  0  0  0  0  0  0  0  0  0  0
   27.4258  -18.8622  -17.9859 N   0  0  0  0  0  0  0  0  0  0  0  0
   27.9703  -19.0326  -16.7786 C   0  0  0  0  0  0  0  0  0  0  0  0
   29.2254  -18.8861  -16.2386 C   0  0  0  0  0  0  0  0  0  0  0  0
   29.4858  -19.1277  -14.9129 C   0  0  0  0  0  0  0  0  0  0  0  0
   28.4736  -19.5313  -14.0748 C   0  0  0  0  0  0  0  0  0  0  0  0
   27.2229  -19.6793  -14.6075 C   0  0  0  0  0  0  0  0  0  0  0  0
   26.9343  -19.4399  -15.9534 C   0  0  0  0  0  0  0  0  0  0  0  0
   23.1312  -21.5609  -14.8306 C   0  0  0  0  0  0  0  0  0  0  0  0
   22.3629  -22.3632  -15.4118 O   0  0  0  0  0  0  0  0  0  0  0  0
   22.6726  -21.0514  -13.5749 N   0  0  0  0  0  0  0  0  0  0  0  0
   21.4033  -21.4182  -13.0288 C   0  0  1  0  0  0  0  0  0  0  0  0
   21.3522  -21.1293  -11.5483 C   0  0  0  0  0  0  0  0  0  0  0  0
   21.4604  -19.3433  -11.2689 S   0  0  0  0  0  0  0  0  0  0  0  0
   20.2814  -20.6467  -13.6631 C   0  0  0  0  0  0  0  0  0  0  0  0
   20.4738  -19.6452  -14.3900 O   0  0  0  0  0  0  0  0  0  0  0  0
   18.9783  -21.0664  -13.4305 O   0  0  0  0  0  0  0  0  0  0  0  0
  2  1  1  1
  2  5  1  0
  3  2  1  0
  4  3  1  0
  5  6  2  0
  7  5  1  0
  7  8  1  0
  8  9  1  6
 10  9  1  0
 11 10  2  0
 12 13  1  0
 12 11  1  0
 13 18  2  0
 14 15  2  0
 14 13  1  0
 15 16  1  0
 16 17  2  0
 18 17  1  0
 18 10  1  0
 19 21  1  0
 19  8  1  0
 20 19  2  0
 22 23  1  1
 22 21  1  0
 23 24  1  0
 25 22  1  0
 25 27  1  0
 26 25  2  0
M  END
$$$$
