CWC.pdb
     RDKit          3D

 27 28  0  0  1  0  0  0  0  0999 V2000
   28.9741  -21.4293  -15.5385 N   0  0  0  0  0  0  0  0  0  0  0  0
   28.7792  -20.3596  -14.5763 C   0  0  1  0  0  0  0  0  0  0  0  0
   28.2367  -19.1633  -15.3399 C   0  0  0  0  0  0  0  0  0  0  0  0
   28.1116  -17.7119  -14.2732 S   0  0  0  0  0  0  0  0  0  0  0  0
   27.7919  -20.8035  -13.5492 C   0  0  0  0  0  0  0  0  0  0  0  0
   26.7746  -21.4453  -13.8790 O   0  0  0  0  0  0  0  0  0  0  0  0
   27.9899  -20.5074  -12.1968 N   0  0  0  0  0  0  0  0  0  0  0  0
   27.0573  -20.8069  -11.1165 C   0  0  1  0  0  0  0  0  0  0  0  0
   27.7743  -20.4915   -9.8493 C   0  0  0  0  0  0  0  0  0  0  0  0
   27.0002  -20.5363   -8.6086 C   0  0  0  0  0  0  0  0  0  0  0  0
   25.6459  -20.8235   -8.4386 C   0  0  0  0  0  0  0  0  0  0  0  0
   25.3812  -20.7179   -7.1478 N   0  0  0  0  0  0  0  0  0  0  0  0
   26.4587  -20.3808   -6.4348 C   0  0  0  0  0  0  0  0  0  0  0  0
   26.7265  -20.1628   -5.1047 C   0  0  0  0  0  0  0  0  0  0  0  0
   27.9805  -19.8343   -4.6536 C   0  0  0  0  0  0  0  0  0  0  0  0
   29.0221  -19.7129   -5.5425 C   0  0  0  0  0  0  0  0  0  0  0  0
   28.7605  -19.9281   -6.8674 C   0  0  0  0  0  0  0  0  0  0  0  0
   27.4927  -20.2627   -7.3497 C   0  0  0  0  0  0  0  0  0  0  0  0
   25.7349  -20.2430  -11.3054 C   0  0  0  0  0  0  0  0  0  0  0  0
   25.5640  -19.0012  -11.2810 O   0  0  0  0  0  0  0  0  0  0  0  0
   24.5627  -21.0331  -11.5256 N   0  0  0  0  0  0  0  0  0  0  0  0
   23.3096  -20.4433  -11.8801 C   0  0  1  0  0  0  0  0  0  0  0  0
   22.7199  -21.1232  -13.0916 C   0  0  0  0  0  0  0  0  0  0  0  0
   22.7023  -22.9164  -12.8395 S   0  0  0  0  0  0  0  0  0  0  0  0
   22.3019  -20.5720  -10.7736 C   0  0  0  0  0  0  0  0  0  0  0  0
   22.5294  -21.2112   -9.7209 O   0  0  0  0  0  0  0  0  0  0  0  0
   21.0682  -19.9541  -10.9299 O   0  0  0  0  0  0  0  0  0  0  0  0
  2  1  1  6
  2  5  1  0
  3  2  1  0
  4  3  1  0
  5  6  2  0
  7  5  1  0
  7  8  1  0
  8  9  1  1
 10  9  1  0
 11 10  2  0
 12 13  1  0
 12 11  1  0
 13 18  2  0
 14 15  2  0
 14 13  1  0
 15 16  1  0
 16 17  2  0
 18 17  1  0
 18 10  1  0
 19 21  1  0
 19  8  1  0
 20 19  2  0
 22 23  1  6
 22 21  1  0
 23 24  1  0
 25 22  1  0
 25 27  1  0
 26 25  2  0
M  END
$$$$
