CWC.pdb
     RDKit          3D

 27 28  0  0  1  0  0  0  0  0999 V2000
   25.0880  -22.2960  -17.1084 N   0  0  0  0  0  0  0  0  0  0  0  0
   25.0846  -23.7256  -16.8551 C   0  0  1  0  0  0  0  0  0  0  0  0
   26.3584  -24.0486  -16.0925 C   0  0  0  0  0  0  0  0  0  0  0  0
   26.4872  -25.8186  -15.7597 S   0  0  0  0  0  0  0  0  0  0  0  0
   23.8906  -24.0701  -16.0290 C   0  0  0  0  0  0  0  0  0  0  0  0
   23.7271  -23.5610  -14.9023 O   0  0  0  0  0  0  0  0  0  0  0  0
   22.9323  -24.9712  -16.5041 N   0  0  0  0  0  0  0  0  0  0  0  0
   21.7388  -25.3996  -15.7842 C   0  0  1  0  0  0  0  0  0  0  0  0
   20.5884  -25.1370  -16.6935 C   0  0  0  0  0  0  0  0  0  0  0  0
   20.0471  -23.7780  -16.7195 C   0  0  0  0  0  0  0  0  0  0  0  0
   20.6894  -22.5930  -17.0784 C   0  0  0  0  0  0  0  0  0  0  0  0
   19.8183  -21.6111  -16.9211 N   0  0  0  0  0  0  0  0  0  0  0  0
   18.6351  -22.0480  -16.4828 C   0  0  0  0  0  0  0  0  0  0  0  0
   17.4263  -21.4690  -16.1794 C   0  0  0  0  0  0  0  0  0  0  0  0
   16.3482  -22.2035  -15.7528 C   0  0  0  0  0  0  0  0  0  0  0  0
   16.4549  -23.5672  -15.6158 C   0  0  0  0  0  0  0  0  0  0  0  0
   17.6561  -24.1481  -15.9157 C   0  0  0  0  0  0  0  0  0  0  0  0
   18.7669  -23.4210  -16.3509 C   0  0  0  0  0  0  0  0  0  0  0  0
   21.8481  -26.7191  -15.1931 C   0  0  0  0  0  0  0  0  0  0  0  0
   22.3957  -27.6545  -15.8232 O   0  0  0  0  0  0  0  0  0  0  0  0
   21.3555  -27.0449  -13.8901 N   0  0  0  0  0  0  0  0  0  0  0  0
   21.5948  -28.3196  -13.2887 C   0  0  1  0  0  0  0  0  0  0  0  0
   21.4376  -28.2439  -11.7896 C   0  0  0  0  0  0  0  0  0  0  0  0
   19.8844  -27.4085  -11.3783 S   0  0  0  0  0  0  0  0  0  0  0  0
   20.6236  -29.3560  -13.7777 C   0  0  0  0  0  0  0  0  0  0  0  0
   19.5724  -29.0631  -14.3922 O   0  0  0  0  0  0  0  0  0  0  0  0
   20.9088  -30.6933  -13.5357 O   0  0  0  0  0  0  0  0  0  0  0  0
  2  1  1  1
  2  5  1  0
  3  2  1  0
  4  3  1  0
  5  6  2  0
  7  5  1  0
  7  8  1  0
  8  9  1  6
 10  9  1  0
 11 10  2  0
 12 13  1  0
 12 11  1  0
 13 18  2  0
 14 15  2  0
 14 13  1  0
 15 16  1  0
 16 17  2  0
 18 17  1  0
 18 10  1  0
 19 21  1  0
 19  8  1  0
 20 19  2  0
 22 23  1  1
 22 21  1  0
 23 24  1  0
 25 22  1  0
 25 27  1  0
 26 25  2  0
M  END
$$$$
