CWC.pdb
     RDKit          3D

 27 28  0  0  1  0  0  0  0  0999 V2000
   20.1145   -9.3600  -17.9538 N   0  0  0  0  0  0  0  0  0  0  0  0
   20.6216   -8.0000  -17.9176 C   0  0  1  0  0  0  0  0  0  0  0  0
   20.1483   -7.3115  -19.1866 C   0  0  0  0  0  0  0  0  0  0  0  0
   18.3790   -7.5639  -19.4435 S   0  0  0  0  0  0  0  0  0  0  0  0
   20.0660   -7.3057  -16.7193 C   0  0  0  0  0  0  0  0  0  0  0  0
   18.9998   -7.6892  -16.1982 O   0  0  0  0  0  0  0  0  0  0  0  0
   20.7318   -6.2111  -16.1586 N   0  0  0  0  0  0  0  0  0  0  0  0
   20.2307   -5.3782  -15.0715 C   0  0  1  0  0  0  0  0  0  0  0  0
   21.1897   -5.5457  -13.9439 C   0  0  0  0  0  0  0  0  0  0  0  0
   21.1622   -6.8167  -13.2196 C   0  0  0  0  0  0  0  0  0  0  0  0
   20.3291   -7.2009  -12.1690 C   0  0  0  0  0  0  0  0  0  0  0  0
   20.6848   -8.4232  -11.8128 N   0  0  0  0  0  0  0  0  0  0  0  0
   21.6968   -8.8915  -12.5473 C   0  0  0  0  0  0  0  0  0  0  0  0
   22.4121  -10.0637  -12.5983 C   0  0  0  0  0  0  0  0  0  0  0  0
   23.4214  -10.2677  -13.5058 C   0  0  0  0  0  0  0  0  0  0  0  0
   23.7480   -9.2812  -14.4057 C   0  0  0  0  0  0  0  0  0  0  0  0
   23.0396   -8.1123  -14.3584 C   0  0  0  0  0  0  0  0  0  0  0  0
   22.0091   -7.8820  -13.4436 C   0  0  0  0  0  0  0  0  0  0  0  0
   19.8860   -4.0283  -15.4732 C   0  0  0  0  0  0  0  0  0  0  0  0
   20.7334   -3.2972  -16.0381 O   0  0  0  0  0  0  0  0  0  0  0  0
   18.5964   -3.4458  -15.2623 N   0  0  0  0  0  0  0  0  0  0  0  0
   18.2796   -2.1274  -15.7152 C   0  0  1  0  0  0  0  0  0  0  0  0
   16.8585   -2.0599  -16.2190 C   0  0  0  0  0  0  0  0  0  0  0  0
   16.6672   -3.1415  -17.6587 S   0  0  0  0  0  0  0  0  0  0  0  0
   18.3998   -1.1164  -14.6109 C   0  0  0  0  0  0  0  0  0  0  0  0
   18.2226    0.1100  -14.7927 O   0  0  0  0  0  0  0  0  0  0  0  0
   18.7206   -1.5662  -13.3368 O   0  0  0  0  0  0  0  0  0  0  0  0
  2  1  1  6
  2  5  1  0
  3  2  1  0
  4  3  1  0
  5  6  2  0
  7  5  1  0
  7  8  1  0
  8  9  1  1
 10  9  1  0
 11 10  2  0
 12 13  1  0
 12 11  1  0
 13 18  2  0
 14 15  2  0
 14 13  1  0
 15 16  1  0
 16 17  2  0
 18 17  1  0
 18 10  1  0
 19 21  1  0
 19  8  1  0
 20 19  2  0
 22 23  1  1
 22 21  1  0
 23 24  1  0
 25 22  1  0
 25 27  1  0
 26 25  2  0
M  END
$$$$
