AWD.pdb
     RDKit          3D

 28 29  0  0  1  0  0  0  0  0999 V2000
    7.2961  -13.3036   20.0500 C   0  0  0  0  0  0  0  0  0  0  0  0
    7.7231  -14.7350   20.3046 C   0  0  2  0  0  0  0  0  0  0  0  0
    6.5419  -15.5250   20.5200 N   0  0  0  0  0  0  0  0  0  0  0  0
    8.6312  -14.8144   21.4930 C   0  0  0  0  0  0  0  0  0  0  0  0
    9.7297  -14.1809   21.4410 O   0  0  0  0  0  0  0  0  0  0  0  0
    8.2213  -15.5875   22.6090 N   0  0  0  0  0  0  0  0  0  0  0  0
    9.0724  -15.7262   23.7695 C   0  0  1  0  0  0  0  0  0  0  0  0
    8.2621  -16.0287   24.9809 C   0  0  0  0  0  0  0  0  0  0  0  0
    7.2238  -15.0494   25.2758 C   0  0  0  0  0  0  0  0  0  0  0  0
    5.8680  -15.2463   25.1060 C   0  0  0  0  0  0  0  0  0  0  0  0
    5.2581  -14.1099   25.4922 N   0  0  0  0  0  0  0  0  0  0  0  0
    6.1902  -13.2109   25.8969 C   0  0  0  0  0  0  0  0  0  0  0  0
    6.0921  -11.9137   26.3791 C   0  0  0  0  0  0  0  0  0  0  0  0
    7.2452  -11.2214   26.7211 C   0  0  0  0  0  0  0  0  0  0  0  0
    8.4871  -11.8210   26.5824 C   0  0  0  0  0  0  0  0  0  0  0  0
    8.6158  -13.0931   26.1113 C   0  0  0  0  0  0  0  0  0  0  0  0
    7.4436  -13.7725   25.7732 C   0  0  0  0  0  0  0  0  0  0  0  0
   10.1035  -16.7465   23.4618 C   0  0  0  0  0  0  0  0  0  0  0  0
   10.0718  -17.4172   22.4051 O   0  0  0  0  0  0  0  0  0  0  0  0
   11.1920  -17.0218   24.3554 N   0  0  0  0  0  0  0  0  0  0  0  0
   12.4894  -17.4164   23.8852 C   0  0  1  0  0  0  0  0  0  0  0  0
   13.1500  -16.3519   23.0358 C   0  0  0  0  0  0  0  0  0  0  0  0
   14.4524  -16.8935   22.6093 C   0  0  0  0  0  0  0  0  0  0  0  0
   14.6964  -18.1076   22.7680 O   0  0  0  0  0  0  0  0  0  0  0  0
   13.3757  -17.6581   25.0495 C   0  0  0  0  0  0  0  0  0  0  0  0
   14.5322  -18.1526   24.8675 O   0  0  0  0  0  0  0  0  0  0  0  0
   15.3909  -16.0638   22.0405 O   0  0  0  0  0  0  0  0  0  0  0  0
   12.9601  -17.3523   26.3300 O   0  0  0  0  0  0  0  0  0  0  0  0
  2  1  1  1
  3  2  1  0
  4  5  2  0
  4  2  1  0
  6  4  1  0
  7  6  1  0
  7  8  1  1
  9 17  1  0
  9  8  1  0
 10  9  2  0
 11 10  1  0
 11 12  1  0
 12 13  1  0
 12 17  2  0
 13 14  2  0
 14 15  1  0
 16 15  2  0
 17 16  1  0
 18 19  2  0
 18  7  1  0
 20 18  1  0
 21 22  1  6
 21 20  1  0
 23 24  2  0
 23 22  1  0
 25 21  1  0
 26 25  2  0
 27 23  1  0
 28 25  1  0
M  END
$$$$
