AWD.pdb
     RDKit          3D

 28 29  0  0  1  0  0  0  0  0999 V2000
    6.8386  -14.1015   20.3177 C   0  0  0  0  0  0  0  0  0  0  0  0
    7.6415  -15.3603   20.5762 C   0  0  2  0  0  0  0  0  0  0  0  0
    6.7280  -16.4108   20.9336 N   0  0  0  0  0  0  0  0  0  0  0  0
    8.6393  -15.1379   21.6708 C   0  0  0  0  0  0  0  0  0  0  0  0
    9.5289  -14.2512   21.4885 O   0  0  0  0  0  0  0  0  0  0  0  0
    8.5409  -15.9230   22.8477 N   0  0  0  0  0  0  0  0  0  0  0  0
    9.4302  -15.7003   23.9657 C   0  0  1  0  0  0  0  0  0  0  0  0
    8.7583  -16.0480   25.2475 C   0  0  0  0  0  0  0  0  0  0  0  0
    7.6129  -15.2099   25.5784 C   0  0  0  0  0  0  0  0  0  0  0  0
    6.2950  -15.6209   25.5775 C   0  0  0  0  0  0  0  0  0  0  0  0
    5.5547  -14.5559   25.9385 N   0  0  0  0  0  0  0  0  0  0  0  0
    6.3688  -13.4942   26.1640 C   0  0  0  0  0  0  0  0  0  0  0  0
    6.1155  -12.1859   26.5501 C   0  0  0  0  0  0  0  0  0  0  0  0
    7.1732  -11.3009   26.7051 C   0  0  0  0  0  0  0  0  0  0  0  0
    8.4742  -11.7202   26.4761 C   0  0  0  0  0  0  0  0  0  0  0  0
    8.7547  -12.9983   26.0957 C   0  0  0  0  0  0  0  0  0  0  0  0
    7.6766  -13.8729   25.9456 C   0  0  0  0  0  0  0  0  0  0  0  0
   10.6804  -16.4568   23.7139 C   0  0  0  0  0  0  0  0  0  0  0  0
   10.6633  -17.6424   23.3120 O   0  0  0  0  0  0  0  0  0  0  0  0
   11.9762  -15.8743   23.9167 N   0  0  0  0  0  0  0  0  0  0  0  0
   13.1900  -16.6045   23.6852 C   0  0  1  0  0  0  0  0  0  0  0  0
   14.3673  -15.6997   23.3912 C   0  0  0  0  0  0  0  0  0  0  0  0
   15.5372  -16.5729   23.1910 C   0  0  0  0  0  0  0  0  0  0  0  0
   15.4489  -17.5552   22.4254 O   0  0  0  0  0  0  0  0  0  0  0  0
   13.5296  -17.3812   24.9021 C   0  0  0  0  0  0  0  0  0  0  0  0
   14.1405  -18.4901   24.7902 O   0  0  0  0  0  0  0  0  0  0  0  0
   16.7175  -16.3046   23.8451 O   0  0  0  0  0  0  0  0  0  0  0  0
   13.1904  -16.9146   26.1563 O   0  0  0  0  0  0  0  0  0  0  0  0
  2  1  1  1
  3  2  1  0
  4  5  2  0
  4  2  1  0
  6  4  1  0
  7  6  1  0
  7  8  1  1
  9 17  1  0
  9  8  1  0
 10  9  2  0
 11 10  1  0
 11 12  1  0
 12 13  1  0
 12 17  2  0
 13 14  2  0
 14 15  1  0
 16 15  2  0
 17 16  1  0
 18 19  2  0
 18  7  1  0
 20 18  1  0
 21 22  1  1
 21 20  1  0
 23 24  2  0
 23 22  1  0
 25 21  1  0
 26 25  2  0
 27 23  1  0
 28 25  1  0
M  END
$$$$
