AWD.pdb
     RDKit          3D

 28 29  0  0  1  0  0  0  0  0999 V2000
    8.1755  -13.6466   18.0250 C   0  0  0  0  0  0  0  0  0  0  0  0
    8.7194  -14.9072   18.6662 C   0  0  2  0  0  0  0  0  0  0  0  0
    7.7923  -15.9761   18.4135 N   0  0  0  0  0  0  0  0  0  0  0  0
    8.9085  -14.7141   20.1393 C   0  0  0  0  0  0  0  0  0  0  0  0
    9.7908  -13.8842   20.5183 O   0  0  0  0  0  0  0  0  0  0  0  0
    8.0984  -15.4626   21.0307 N   0  0  0  0  0  0  0  0  0  0  0  0
    8.2235  -15.3008   22.4621 C   0  0  1  0  0  0  0  0  0  0  0  0
    6.9034  -14.9815   23.0710 C   0  0  0  0  0  0  0  0  0  0  0  0
    6.9260  -14.8247   24.5197 C   0  0  0  0  0  0  0  0  0  0  0  0
    6.8523  -15.8543   25.4363 C   0  0  0  0  0  0  0  0  0  0  0  0
    6.9067  -15.2924   26.6585 N   0  0  0  0  0  0  0  0  0  0  0  0
    7.0117  -13.9455   26.5332 C   0  0  0  0  0  0  0  0  0  0  0  0
    7.0994  -12.9227   27.4665 C   0  0  0  0  0  0  0  0  0  0  0  0
    7.1991  -11.6079   27.0338 C   0  0  0  0  0  0  0  0  0  0  0  0
    7.2111  -11.3173   25.6786 C   0  0  0  0  0  0  0  0  0  0  0  0
    7.1260  -12.2998   24.7382 C   0  0  0  0  0  0  0  0  0  0  0  0
    7.0268  -13.6159   25.1942 C   0  0  0  0  0  0  0  0  0  0  0  0
    8.8606  -16.5238   23.0071 C   0  0  0  0  0  0  0  0  0  0  0  0
    8.7564  -17.6321   22.4341 O   0  0  0  0  0  0  0  0  0  0  0  0
    9.6296  -16.5058   24.2185 N   0  0  0  0  0  0  0  0  0  0  0  0
   10.8458  -17.2536   24.3661 C   0  0  1  0  0  0  0  0  0  0  0  0
   12.0031  -16.6396   23.6080 C   0  0  0  0  0  0  0  0  0  0  0  0
   12.5203  -17.6803   22.7022 C   0  0  0  0  0  0  0  0  0  0  0  0
   12.6340  -18.8538   23.1133 O   0  0  0  0  0  0  0  0  0  0  0  0
   11.2283  -17.2819   25.7987 C   0  0  0  0  0  0  0  0  0  0  0  0
   10.7634  -16.4035   26.5910 O   0  0  0  0  0  0  0  0  0  0  0  0
   12.8750  -17.3576   21.4127 O   0  0  0  0  0  0  0  0  0  0  0  0
   12.0836  -18.2510   26.2833 O   0  0  0  0  0  0  0  0  0  0  0  0
  2  1  1  1
  3  2  1  0
  4  5  2  0
  4  2  1  0
  6  4  1  0
  7  6  1  0
  7  8  1  1
  9 17  1  0
  9  8  1  0
 10  9  2  0
 11 10  1  0
 11 12  1  0
 12 13  1  0
 12 17  2  0
 13 14  2  0
 14 15  1  0
 16 15  2  0
 17 16  1  0
 18 19  2  0
 18  7  1  0
 20 18  1  0
 21 22  1  6
 21 20  1  0
 23 24  2  0
 23 22  1  0
 25 21  1  0
 26 25  2  0
 27 23  1  0
 28 25  1  0
M  END
$$$$
