AWD.pdb
     RDKit          3D

 28 29  0  0  1  0  0  0  0  0999 V2000
    7.0647  -17.2667   18.5791 C   0  0  0  0  0  0  0  0  0  0  0  0
    7.4389  -17.8803   19.9131 C   0  0  2  0  0  0  0  0  0  0  0  0
    6.2475  -17.9829   20.7106 N   0  0  0  0  0  0  0  0  0  0  0  0
    8.4673  -17.0450   20.6116 C   0  0  0  0  0  0  0  0  0  0  0  0
    9.6093  -16.9369   20.0684 O   0  0  0  0  0  0  0  0  0  0  0  0
    8.1165  -16.4212   21.8359 N   0  0  0  0  0  0  0  0  0  0  0  0
    9.0519  -15.5615   22.5262 C   0  0  1  0  0  0  0  0  0  0  0  0
    8.3979  -14.2831   22.9182 C   0  0  0  0  0  0  0  0  0  0  0  0
    7.5514  -14.3730   24.1011 C   0  0  0  0  0  0  0  0  0  0  0  0
    6.9467  -15.5238   24.5656 C   0  0  0  0  0  0  0  0  0  0  0  0
    6.2602  -15.1834   25.6726 N   0  0  0  0  0  0  0  0  0  0  0  0
    6.4173  -13.8574   25.9128 C   0  0  0  0  0  0  0  0  0  0  0  0
    5.9293  -13.0221   26.9074 C   0  0  0  0  0  0  0  0  0  0  0  0
    6.2657  -11.6758   26.8966 C   0  0  0  0  0  0  0  0  0  0  0  0
    7.0835  -11.1679   25.8996 C   0  0  0  0  0  0  0  0  0  0  0  0
    7.5779  -11.9628   24.9093 C   0  0  0  0  0  0  0  0  0  0  0  0
    7.2280  -13.3143   24.9384 C   0  0  0  0  0  0  0  0  0  0  0  0
    9.6200  -16.3236   23.6643 C   0  0  0  0  0  0  0  0  0  0  0  0
    8.9174  -17.0935   24.3578 O   0  0  0  0  0  0  0  0  0  0  0  0
   11.0029  -16.2213   24.0337 N   0  0  0  0  0  0  0  0  0  0  0  0
   11.9226  -17.3115   23.8722 C   0  0  1  0  0  0  0  0  0  0  0  0
   12.0857  -17.7269   22.4260 C   0  0  0  0  0  0  0  0  0  0  0  0
   12.9177  -18.9431   22.4224 C   0  0  0  0  0  0  0  0  0  0  0  0
   13.8954  -19.0228   23.1947 O   0  0  0  0  0  0  0  0  0  0  0  0
   13.2598  -16.8956   24.3605 C   0  0  0  0  0  0  0  0  0  0  0  0
   13.9072  -15.9992   23.7338 O   0  0  0  0  0  0  0  0  0  0  0  0
   12.6163  -19.9819   21.5721 O   0  0  0  0  0  0  0  0  0  0  0  0
   13.8111  -17.4703   25.4881 O   0  0  0  0  0  0  0  0  0  0  0  0
  2  1  1  6
  3  2  1  0
  4  5  2  0
  4  2  1  0
  6  4  1  0
  7  6  1  0
  7  8  1  1
  9 17  1  0
  9  8  1  0
 10  9  2  0
 11 10  1  0
 11 12  1  0
 12 13  1  0
 12 17  2  0
 13 14  2  0
 14 15  1  0
 16 15  2  0
 17 16  1  0
 18 19  2  0
 18  7  1  0
 20 18  1  0
 21 22  1  6
 21 20  1  0
 23 24  2  0
 23 22  1  0
 25 21  1  0
 26 25  2  0
 27 23  1  0
 28 25  1  0
M  END
$$$$
