AWD.pdb
     RDKit          3D

 28 29  0  0  1  0  0  0  0  0999 V2000
    6.7741  -14.1185   20.8391 C   0  0  0  0  0  0  0  0  0  0  0  0
    7.6121  -15.3721   20.9879 C   0  0  2  0  0  0  0  0  0  0  0  0
    6.7275  -16.4770   21.2386 N   0  0  0  0  0  0  0  0  0  0  0  0
    8.5957  -15.2233   22.1074 C   0  0  0  0  0  0  0  0  0  0  0  0
    9.4391  -14.2779   22.0315 O   0  0  0  0  0  0  0  0  0  0  0  0
    8.5361  -16.1391   23.1885 N   0  0  0  0  0  0  0  0  0  0  0  0
    9.4741  -16.0552   24.2856 C   0  0  1  0  0  0  0  0  0  0  0  0
    8.7647  -16.1525   25.5905 C   0  0  0  0  0  0  0  0  0  0  0  0
    7.6139  -15.2680   25.7223 C   0  0  0  0  0  0  0  0  0  0  0  0
    6.2945  -15.6455   25.5731 C   0  0  0  0  0  0  0  0  0  0  0  0
    5.5488  -14.5429   25.7745 N   0  0  0  0  0  0  0  0  0  0  0  0
    6.3610  -13.4901   26.0443 C   0  0  0  0  0  0  0  0  0  0  0  0
    6.1026  -12.1552   26.3204 C   0  0  0  0  0  0  0  0  0  0  0  0
    7.1596  -11.2891   26.5619 C   0  0  0  0  0  0  0  0  0  0  0  0
    8.4651  -11.7534   26.5278 C   0  0  0  0  0  0  0  0  0  0  0  0
    8.7507  -13.0584   26.2591 C   0  0  0  0  0  0  0  0  0  0  0  0
    7.6732  -13.9135   26.0193 C   0  0  0  0  0  0  0  0  0  0  0  0
   10.5107  -17.0958   24.0822 C   0  0  0  0  0  0  0  0  0  0  0  0
   10.2129  -18.3035   23.9402 O   0  0  0  0  0  0  0  0  0  0  0  0
   11.9094  -16.7779   24.0373 N   0  0  0  0  0  0  0  0  0  0  0  0
   12.9260  -17.7910   24.0180 C   0  0  1  0  0  0  0  0  0  0  0  0
   13.9727  -17.5460   22.9525 C   0  0  0  0  0  0  0  0  0  0  0  0
   14.2741  -16.1038   22.9739 C   0  0  0  0  0  0  0  0  0  0  0  0
   14.8939  -15.6182   23.9428 O   0  0  0  0  0  0  0  0  0  0  0  0
   13.6273  -17.8008   25.3248 C   0  0  0  0  0  0  0  0  0  0  0  0
   14.5618  -18.6373   25.5306 O   0  0  0  0  0  0  0  0  0  0  0  0
   13.8735  -15.3004   21.9313 O   0  0  0  0  0  0  0  0  0  0  0  0
   13.2777  -16.9121   26.3216 O   0  0  0  0  0  0  0  0  0  0  0  0
  2  1  1  1
  3  2  1  0
  4  5  2  0
  4  2  1  0
  6  4  1  0
  7  6  1  0
  7  8  1  1
  9 17  1  0
  9  8  1  0
 10  9  2  0
 11 10  1  0
 11 12  1  0
 12 13  1  0
 12 17  2  0
 13 14  2  0
 14 15  1  0
 16 15  2  0
 17 16  1  0
 18 19  2  0
 18  7  1  0
 20 18  1  0
 21 22  1  6
 21 20  1  0
 23 24  2  0
 23 22  1  0
 25 21  1  0
 26 25  2  0
 27 23  1  0
 28 25  1  0
M  END
$$$$
