AWD.pdb
     RDKit          3D

 28 29  0  0  1  0  0  0  0  0999 V2000
    7.5633  -12.8016   19.1316 C   0  0  0  0  0  0  0  0  0  0  0  0
    8.3217  -14.0893   19.3820 C   0  0  2  0  0  0  0  0  0  0  0  0
    7.4875  -15.1880   18.9786 N   0  0  0  0  0  0  0  0  0  0  0  0
    8.6915  -14.2147   20.8279 C   0  0  0  0  0  0  0  0  0  0  0  0
    9.6179  -13.4672   21.2682 O   0  0  0  0  0  0  0  0  0  0  0  0
    7.9933  -15.1554   21.6272 N   0  0  0  0  0  0  0  0  0  0  0  0
    8.3556  -15.3688   23.0106 C   0  0  1  0  0  0  0  0  0  0  0  0
    7.2216  -15.9725   23.7624 C   0  0  0  0  0  0  0  0  0  0  0  0
    6.7391  -15.1701   24.8792 C   0  0  0  0  0  0  0  0  0  0  0  0
    5.7966  -15.5725   25.8041 C   0  0  0  0  0  0  0  0  0  0  0  0
    5.6335  -14.5497   26.6642 N   0  0  0  0  0  0  0  0  0  0  0  0
    6.4439  -13.5226   26.3051 C   0  0  0  0  0  0  0  0  0  0  0  0
    6.6545  -12.2629   26.8470 C   0  0  0  0  0  0  0  0  0  0  0  0
    7.5676  -11.4049   26.2503 C   0  0  0  0  0  0  0  0  0  0  0  0
    8.2650  -11.8027   25.1205 C   0  0  0  0  0  0  0  0  0  0  0  0
    8.0797  -13.0330   24.5649 C   0  0  0  0  0  0  0  0  0  0  0  0
    7.1570  -13.8813   25.1805 C   0  0  0  0  0  0  0  0  0  0  0  0
    9.5982  -16.1773   23.0389 C   0  0  0  0  0  0  0  0  0  0  0  0
    9.7921  -17.1158   22.2332 O   0  0  0  0  0  0  0  0  0  0  0  0
   10.6451  -15.9305   23.9890 N   0  0  0  0  0  0  0  0  0  0  0  0
   11.8850  -16.6532   23.9689 C   0  0  1  0  0  0  0  0  0  0  0  0
   13.0622  -15.7803   23.5904 C   0  0  0  0  0  0  0  0  0  0  0  0
   14.2317  -16.6688   23.4716 C   0  0  0  0  0  0  0  0  0  0  0  0
   14.0728  -17.8497   23.0989 O   0  0  0  0  0  0  0  0  0  0  0  0
   12.1572  -17.1892   25.3247 C   0  0  0  0  0  0  0  0  0  0  0  0
   11.4725  -16.7769   26.3130 O   0  0  0  0  0  0  0  0  0  0  0  0
   15.4890  -16.1968   23.7705 O   0  0  0  0  0  0  0  0  0  0  0  0
   13.1457  -18.1312   25.5273 O   0  0  0  0  0  0  0  0  0  0  0  0
  2  1  1  1
  3  2  1  0
  4  5  2  0
  4  2  1  0
  6  4  1  0
  7  6  1  0
  7  8  1  1
  9 17  1  0
  9  8  1  0
 10  9  2  0
 11 10  1  0
 11 12  1  0
 12 13  1  0
 12 17  2  0
 13 14  2  0
 14 15  1  0
 16 15  2  0
 17 16  1  0
 18 19  2  0
 18  7  1  0
 20 18  1  0
 21 22  1  1
 21 20  1  0
 23 24  2  0
 23 22  1  0
 25 21  1  0
 26 25  2  0
 27 23  1  0
 28 25  1  0
M  END
$$$$
