AWD.pdb
     RDKit          3D

 28 29  0  0  1  0  0  0  0  0999 V2000
    6.9059  -14.3832   20.5897 C   0  0  0  0  0  0  0  0  0  0  0  0
    7.7986  -15.5662   20.9053 C   0  0  2  0  0  0  0  0  0  0  0  0
    6.9625  -16.7144   21.1249 N   0  0  0  0  0  0  0  0  0  0  0  0
    8.6382  -15.2897   22.1144 C   0  0  0  0  0  0  0  0  0  0  0  0
    9.4593  -14.3237   22.0556 O   0  0  0  0  0  0  0  0  0  0  0  0
    8.4750  -16.1148   23.2562 N   0  0  0  0  0  0  0  0  0  0  0  0
    9.3546  -15.9873   24.3966 C   0  0  1  0  0  0  0  0  0  0  0  0
    8.5857  -16.0964   25.6665 C   0  0  0  0  0  0  0  0  0  0  0  0
    7.4559  -15.1818   25.7715 C   0  0  0  0  0  0  0  0  0  0  0  0
    6.1311  -15.5238   25.5884 C   0  0  0  0  0  0  0  0  0  0  0  0
    5.4101  -14.4021   25.7738 N   0  0  0  0  0  0  0  0  0  0  0  0
    6.2429  -13.3718   26.0664 C   0  0  0  0  0  0  0  0  0  0  0  0
    6.0132  -12.0310   26.3391 C   0  0  0  0  0  0  0  0  0  0  0  0
    7.0865  -11.1937   26.6091 C   0  0  0  0  0  0  0  0  0  0  0  0
    8.3796  -11.6925   26.6065 C   0  0  0  0  0  0  0  0  0  0  0  0
    8.6372  -13.0042   26.3420 C   0  0  0  0  0  0  0  0  0  0  0  0
    7.5436  -13.8299   26.0732 C   0  0  0  0  0  0  0  0  0  0  0  0
   10.4352  -16.9929   24.2560 C   0  0  0  0  0  0  0  0  0  0  0  0
   10.1978  -18.1697   23.9007 O   0  0  0  0  0  0  0  0  0  0  0  0
   11.8096  -16.6747   24.5190 N   0  0  0  0  0  0  0  0  0  0  0  0
   12.8253  -17.6841   24.6174 C   0  0  1  0  0  0  0  0  0  0  0  0
   14.1981  -17.1677   24.2438 C   0  0  0  0  0  0  0  0  0  0  0  0
   14.0926  -16.6240   22.8783 C   0  0  0  0  0  0  0  0  0  0  0  0
   14.0211  -17.4060   21.9077 O   0  0  0  0  0  0  0  0  0  0  0  0
   12.9044  -18.1589   26.0202 C   0  0  0  0  0  0  0  0  0  0  0  0
   13.7172  -19.0873   26.3248 O   0  0  0  0  0  0  0  0  0  0  0  0
   14.0737  -15.2629   22.6780 O   0  0  0  0  0  0  0  0  0  0  0  0
   12.1057  -17.6048   27.0003 O   0  0  0  0  0  0  0  0  0  0  0  0
  2  1  1  1
  3  2  1  0
  4  5  2  0
  4  2  1  0
  6  4  1  0
  7  6  1  0
  7  8  1  1
  9 17  1  0
  9  8  1  0
 10  9  2  0
 11 10  1  0
 11 12  1  0
 12 13  1  0
 12 17  2  0
 13 14  2  0
 14 15  1  0
 16 15  2  0
 17 16  1  0
 18 19  2  0
 18  7  1  0
 20 18  1  0
 21 22  1  1
 21 20  1  0
 23 24  2  0
 23 22  1  0
 25 21  1  0
 26 25  2  0
 27 23  1  0
 28 25  1  0
M  END
$$$$
