AWD.pdb
     RDKit          3D

 28 29  0  0  1  0  0  0  0  0999 V2000
    9.9548  -18.4123   19.2981 C   0  0  0  0  0  0  0  0  0  0  0  0
    9.4075  -17.0016   19.2186 C   0  0  2  0  0  0  0  0  0  0  0  0
   10.1872  -16.2704   18.2577 N   0  0  0  0  0  0  0  0  0  0  0  0
    9.4650  -16.3338   20.5580 C   0  0  0  0  0  0  0  0  0  0  0  0
   10.4468  -15.5648   20.7935 O   0  0  0  0  0  0  0  0  0  0  0  0
    8.4272  -16.5919   21.4894 N   0  0  0  0  0  0  0  0  0  0  0  0
    8.4234  -15.9621   22.7908 C   0  0  1  0  0  0  0  0  0  0  0  0
    7.0350  -15.8513   23.3157 C   0  0  0  0  0  0  0  0  0  0  0  0
    6.9412  -15.3501   24.6809 C   0  0  0  0  0  0  0  0  0  0  0  0
    6.8892  -16.1319   25.8175 C   0  0  0  0  0  0  0  0  0  0  0  0
    6.8090  -15.2905   26.8655 N   0  0  0  0  0  0  0  0  0  0  0  0
    6.8091  -14.0095   26.4187 C   0  0  0  0  0  0  0  0  0  0  0  0
    6.7439  -12.7891   27.0754 C   0  0  0  0  0  0  0  0  0  0  0  0
    6.7634  -11.6133   26.3386 C   0  0  0  0  0  0  0  0  0  0  0  0
    6.8474  -11.6566   24.9558 C   0  0  0  0  0  0  0  0  0  0  0  0
    6.9123  -12.8395   24.2823 C   0  0  0  0  0  0  0  0  0  0  0  0
    6.8918  -14.0109   25.0421 C   0  0  0  0  0  0  0  0  0  0  0  0
    9.3432  -16.7232   23.6703 C   0  0  0  0  0  0  0  0  0  0  0  0
    9.3844  -17.9744   23.6552 O   0  0  0  0  0  0  0  0  0  0  0  0
   10.2347  -16.0702   24.5859 N   0  0  0  0  0  0  0  0  0  0  0  0
   11.3102  -16.7640   25.2356 C   0  0  1  0  0  0  0  0  0  0  0  0
   12.6314  -16.0355   25.1138 C   0  0  0  0  0  0  0  0  0  0  0  0
   13.4826  -16.8417   24.2211 C   0  0  0  0  0  0  0  0  0  0  0  0
   13.0549  -17.9273   23.7769 O   0  0  0  0  0  0  0  0  0  0  0  0
   11.0085  -16.8818   26.6829 C   0  0  0  0  0  0  0  0  0  0  0  0
    9.9740  -16.3162   27.1576 O   0  0  0  0  0  0  0  0  0  0  0  0
   14.7399  -16.3981   23.8817 O   0  0  0  0  0  0  0  0  0  0  0  0
   11.8378  -17.5987   27.5220 O   0  0  0  0  0  0  0  0  0  0  0  0
  2  1  1  1
  3  2  1  0
  4  5  2  0
  4  2  1  0
  6  4  1  0
  7  6  1  0
  7  8  1  1
  9 17  1  0
  9  8  1  0
 10  9  2  0
 11 10  1  0
 11 12  1  0
 12 13  1  0
 12 17  2  0
 13 14  2  0
 14 15  1  0
 16 15  2  0
 17 16  1  0
 18 19  2  0
 18  7  1  0
 20 18  1  0
 21 22  1  1
 21 20  1  0
 23 24  2  0
 23 22  1  0
 25 21  1  0
 26 25  2  0
 27 23  1  0
 28 25  1  0
M  END
$$$$
