AWD.pdb
     RDKit          3D

 28 29  0  0  1  0  0  0  0  0999 V2000
    8.1181  -18.5569   19.3641 C   0  0  0  0  0  0  0  0  0  0  0  0
    8.1661  -17.0428   19.3327 C   0  0  2  0  0  0  0  0  0  0  0  0
    8.9155  -16.6407   18.1740 N   0  0  0  0  0  0  0  0  0  0  0  0
    8.7995  -16.5060   20.5792 C   0  0  0  0  0  0  0  0  0  0  0  0
   10.0671  -16.4667   20.6285 O   0  0  0  0  0  0  0  0  0  0  0  0
    7.9576  -16.0715   21.6345 N   0  0  0  0  0  0  0  0  0  0  0  0
    8.5081  -15.4319   22.8085 C   0  0  1  0  0  0  0  0  0  0  0  0
    7.4404  -14.7309   23.5729 C   0  0  0  0  0  0  0  0  0  0  0  0
    7.8586  -14.2260   24.8745 C   0  0  0  0  0  0  0  0  0  0  0  0
    9.0544  -14.5191   25.4989 C   0  0  0  0  0  0  0  0  0  0  0  0
    9.0533  -13.8585   26.6719 N   0  0  0  0  0  0  0  0  0  0  0  0
    7.8952  -13.1632   26.7990 C   0  0  0  0  0  0  0  0  0  0  0  0
    7.4046  -12.3368   27.7995 C   0  0  0  0  0  0  0  0  0  0  0  0
    6.1565  -11.7485   27.6508 C   0  0  0  0  0  0  0  0  0  0  0  0
    5.4043  -11.9843   26.5108 C   0  0  0  0  0  0  0  0  0  0  0  0
    5.8588  -12.7913   25.5112 C   0  0  0  0  0  0  0  0  0  0  0  0
    7.1169  -13.3732   25.6801 C   0  0  0  0  0  0  0  0  0  0  0  0
    9.2360  -16.4598   23.5910 C   0  0  0  0  0  0  0  0  0  0  0  0
    8.7383  -17.5845   23.8249 O   0  0  0  0  0  0  0  0  0  0  0  0
   10.5478  -16.2236   24.1227 N   0  0  0  0  0  0  0  0  0  0  0  0
   11.3004  -17.2472   24.7906 C   0  0  1  0  0  0  0  0  0  0  0  0
   12.7855  -16.9560   24.8158 C   0  0  0  0  0  0  0  0  0  0  0  0
   13.2420  -16.9439   23.4148 C   0  0  0  0  0  0  0  0  0  0  0  0
   14.0497  -16.0698   23.0377 O   0  0  0  0  0  0  0  0  0  0  0  0
   10.8498  -17.3400   26.2006 C   0  0  0  0  0  0  0  0  0  0  0  0
    9.9343  -16.5647   26.6204 O   0  0  0  0  0  0  0  0  0  0  0  0
   12.7788  -17.8909   22.5308 O   0  0  0  0  0  0  0  0  0  0  0  0
   11.4126  -18.2586   27.0638 O   0  0  0  0  0  0  0  0  0  0  0  0
  2  1  1  1
  3  2  1  0
  4  5  2  0
  4  2  1  0
  6  4  1  0
  7  6  1  0
  7  8  1  1
  9 17  1  0
  9  8  1  0
 10  9  2  0
 11 10  1  0
 11 12  1  0
 12 13  1  0
 12 17  2  0
 13 14  2  0
 14 15  1  0
 16 15  2  0
 17 16  1  0
 18 19  2  0
 18  7  1  0
 20 18  1  0
 21 22  1  1
 21 20  1  0
 23 24  2  0
 23 22  1  0
 25 21  1  0
 26 25  2  0
 27 23  1  0
 28 25  1  0
M  END
$$$$
