AWD.pdb
     RDKit          3D

 28 29  0  0  1  0  0  0  0  0999 V2000
    7.8664  -16.7881   19.9188 C   0  0  0  0  0  0  0  0  0  0  0  0
    7.2252  -15.8136   20.8859 C   0  0  2  0  0  0  0  0  0  0  0  0
    6.8778  -14.6227   20.1599 N   0  0  0  0  0  0  0  0  0  0  0  0
    8.1602  -15.4887   22.0099 C   0  0  0  0  0  0  0  0  0  0  0  0
    8.9013  -14.4659   21.8855 O   0  0  0  0  0  0  0  0  0  0  0  0
    8.1707  -16.3336   23.1488 N   0  0  0  0  0  0  0  0  0  0  0  0
    9.0815  -16.0912   24.2452 C   0  0  1  0  0  0  0  0  0  0  0  0
    8.3624  -16.1503   25.5471 C   0  0  0  0  0  0  0  0  0  0  0  0
    7.3371  -15.1292   25.7202 C   0  0  0  0  0  0  0  0  0  0  0  0
    5.9780  -15.3305   25.5865 C   0  0  0  0  0  0  0  0  0  0  0  0
    5.3834  -14.1468   25.8269 N   0  0  0  0  0  0  0  0  0  0  0  0
    6.3283  -13.2140   26.1060 C   0  0  0  0  0  0  0  0  0  0  0  0
    6.2480  -11.8644   26.4174 C   0  0  0  0  0  0  0  0  0  0  0  0
    7.4112  -11.1473   26.6594 C   0  0  0  0  0  0  0  0  0  0  0  0
    8.6455  -11.7741   26.5907 C   0  0  0  0  0  0  0  0  0  0  0  0
    8.7567  -13.0978   26.2869 C   0  0  0  0  0  0  0  0  0  0  0  0
    7.5746  -13.8014   26.0472 C   0  0  0  0  0  0  0  0  0  0  0  0
   10.2032  -17.0542   24.1299 C   0  0  0  0  0  0  0  0  0  0  0  0
   10.0095  -18.2623   23.8647 O   0  0  0  0  0  0  0  0  0  0  0  0
   11.5695  -16.6566   24.3158 N   0  0  0  0  0  0  0  0  0  0  0  0
   12.6342  -17.6098   24.4498 C   0  0  1  0  0  0  0  0  0  0  0  0
   13.9934  -17.0095   24.1618 C   0  0  0  0  0  0  0  0  0  0  0  0
   13.9316  -16.4458   22.8018 C   0  0  0  0  0  0  0  0  0  0  0  0
   13.6566  -17.1905   21.8381 O   0  0  0  0  0  0  0  0  0  0  0  0
   12.6651  -18.1108   25.8454 C   0  0  0  0  0  0  0  0  0  0  0  0
   13.5390  -18.9684   26.1863 O   0  0  0  0  0  0  0  0  0  0  0  0
   14.1760  -15.1072   22.5987 O   0  0  0  0  0  0  0  0  0  0  0  0
   11.7559  -17.6572   26.7799 O   0  0  0  0  0  0  0  0  0  0  0  0
  2  1  1  6
  3  2  1  0
  4  5  2  0
  4  2  1  0
  6  4  1  0
  7  6  1  0
  7  8  1  1
  9 17  1  0
  9  8  1  0
 10  9  2  0
 11 10  1  0
 11 12  1  0
 12 13  1  0
 12 17  2  0
 13 14  2  0
 14 15  1  0
 16 15  2  0
 17 16  1  0
 18 19  2  0
 18  7  1  0
 20 18  1  0
 21 22  1  1
 21 20  1  0
 23 24  2  0
 23 22  1  0
 25 21  1  0
 26 25  2  0
 27 23  1  0
 28 25  1  0
M  END
$$$$
