AWD.pdb
     RDKit          3D

 28 29  0  0  1  0  0  0  0  0999 V2000
    8.3233  -16.5177   19.7422 C   0  0  0  0  0  0  0  0  0  0  0  0
    7.6357  -15.9720   20.9773 C   0  0  2  0  0  0  0  0  0  0  0  0
    6.8756  -14.8139   20.5940 N   0  0  0  0  0  0  0  0  0  0  0  0
    8.6398  -15.6155   22.0299 C   0  0  0  0  0  0  0  0  0  0  0  0
    9.5418  -14.7758   21.7262 O   0  0  0  0  0  0  0  0  0  0  0  0
    8.5335  -16.2293   23.3039 N   0  0  0  0  0  0  0  0  0  0  0  0
    9.4600  -15.9034   24.3650 C   0  0  1  0  0  0  0  0  0  0  0  0
    8.7872  -15.9803   25.6905 C   0  0  0  0  0  0  0  0  0  0  0  0
    7.6172  -15.1221   25.8271 C   0  0  0  0  0  0  0  0  0  0  0  0
    6.3045  -15.5470   25.7801 C   0  0  0  0  0  0  0  0  0  0  0  0
    5.5355  -14.4548   25.9479 N   0  0  0  0  0  0  0  0  0  0  0  0
    6.3265  -13.3628   26.0977 C   0  0  0  0  0  0  0  0  0  0  0  0
    6.0403  -12.0198   26.2959 C   0  0  0  0  0  0  0  0  0  0  0  0
    7.0802  -11.1087   26.4163 C   0  0  0  0  0  0  0  0  0  0  0  0
    8.3963  -11.5365   26.3393 C   0  0  0  0  0  0  0  0  0  0  0  0
    8.7091  -12.8485   26.1449 C   0  0  0  0  0  0  0  0  0  0  0  0
    7.6484  -13.7490   26.0266 C   0  0  0  0  0  0  0  0  0  0  0  0
   10.6387  -16.7934   24.2329 C   0  0  0  0  0  0  0  0  0  0  0  0
   10.5166  -18.0207   24.0173 O   0  0  0  0  0  0  0  0  0  0  0  0
   11.9814  -16.2995   24.3449 N   0  0  0  0  0  0  0  0  0  0  0  0
   13.1131  -17.1745   24.4622 C   0  0  1  0  0  0  0  0  0  0  0  0
   14.4237  -16.4736   24.1754 C   0  0  0  0  0  0  0  0  0  0  0  0
   14.3244  -15.9238   22.8120 C   0  0  0  0  0  0  0  0  0  0  0  0
   13.8399  -16.6243   21.8991 O   0  0  0  0  0  0  0  0  0  0  0  0
   13.1880  -17.6889   25.8512 C   0  0  0  0  0  0  0  0  0  0  0  0
   12.3092  -17.3381   26.6998 O   0  0  0  0  0  0  0  0  0  0  0  0
   14.7637  -14.6466   22.5501 O   0  0  0  0  0  0  0  0  0  0  0  0
   14.2010  -18.5447   26.2347 O   0  0  0  0  0  0  0  0  0  0  0  0
  2  1  1  6
  3  2  1  0
  4  5  2  0
  4  2  1  0
  6  4  1  0
  7  6  1  0
  7  8  1  1
  9 17  1  0
  9  8  1  0
 10  9  2  0
 11 10  1  0
 11 12  1  0
 12 13  1  0
 12 17  2  0
 13 14  2  0
 14 15  1  0
 16 15  2  0
 17 16  1  0
 18 19  2  0
 18  7  1  0
 20 18  1  0
 21 22  1  1
 21 20  1  0
 23 24  2  0
 23 22  1  0
 25 21  1  0
 26 25  2  0
 27 23  1  0
 28 25  1  0
M  END
$$$$
