AWD.pdb
     RDKit          3D

 28 29  0  0  1  0  0  0  0  0999 V2000
    6.7625  -14.7320   20.8756 C   0  0  0  0  0  0  0  0  0  0  0  0
    7.7889  -15.8072   21.1698 C   0  0  2  0  0  0  0  0  0  0  0  0
    7.0892  -17.0134   21.5181 N   0  0  0  0  0  0  0  0  0  0  0  0
    8.6945  -15.3853   22.2856 C   0  0  0  0  0  0  0  0  0  0  0  0
    9.4126  -14.3543   22.1063 O   0  0  0  0  0  0  0  0  0  0  0  0
    8.7043  -16.1529   23.4779 N   0  0  0  0  0  0  0  0  0  0  0  0
    9.5251  -15.7662   24.6036 C   0  0  1  0  0  0  0  0  0  0  0  0
    8.7706  -15.9144   25.8781 C   0  0  0  0  0  0  0  0  0  0  0  0
    7.5457  -15.1283   25.9523 C   0  0  0  0  0  0  0  0  0  0  0  0
    6.2660  -15.6279   25.8166 C   0  0  0  0  0  0  0  0  0  0  0  0
    5.4247  -14.5853   25.9505 N   0  0  0  0  0  0  0  0  0  0  0  0
    6.1389  -13.4520   26.1652 C   0  0  0  0  0  0  0  0  0  0  0  0
    5.7620  -12.1315   26.3634 C   0  0  0  0  0  0  0  0  0  0  0  0
    6.7367  -11.1638   26.5619 C   0  0  0  0  0  0  0  0  0  0  0  0
    8.0780  -11.5130   26.5623 C   0  0  0  0  0  0  0  0  0  0  0  0
    8.4793  -12.8009   26.3699 C   0  0  0  0  0  0  0  0  0  0  0  0
    7.4832  -13.7593   26.1724 C   0  0  0  0  0  0  0  0  0  0  0  0
   10.7791  -16.5556   24.5483 C   0  0  0  0  0  0  0  0  0  0  0  0
   10.9367  -17.5908   25.2346 O   0  0  0  0  0  0  0  0  0  0  0  0
   11.8794  -16.1781   23.7078 N   0  0  0  0  0  0  0  0  0  0  0  0
   13.0496  -16.9964   23.5627 C   0  0  1  0  0  0  0  0  0  0  0  0
   12.7451  -18.3449   22.9465 C   0  0  0  0  0  0  0  0  0  0  0  0
   12.9067  -19.3481   24.0135 C   0  0  0  0  0  0  0  0  0  0  0  0
   13.6711  -19.1107   24.9717 O   0  0  0  0  0  0  0  0  0  0  0  0
   14.0120  -16.3133   22.6645 C   0  0  0  0  0  0  0  0  0  0  0  0
   15.1686  -16.8098   22.4879 O   0  0  0  0  0  0  0  0  0  0  0  0
   12.2184  -20.5378   23.9510 O   0  0  0  0  0  0  0  0  0  0  0  0
   13.6673  -15.1438   22.0171 O   0  0  0  0  0  0  0  0  0  0  0  0
  2  1  1  1
  3  2  1  0
  4  5  2  0
  4  2  1  0
  6  4  1  0
  7  6  1  0
  7  8  1  1
  9 17  1  0
  9  8  1  0
 10  9  2  0
 11 10  1  0
 11 12  1  0
 12 13  1  0
 12 17  2  0
 13 14  2  0
 14 15  1  0
 16 15  2  0
 17 16  1  0
 18 19  2  0
 18  7  1  0
 20 18  1  0
 21 22  1  6
 21 20  1  0
 23 24  2  0
 23 22  1  0
 25 21  1  0
 26 25  2  0
 27 23  1  0
 28 25  1  0
M  END
$$$$
