ASP.pdb
     RDKit          3D

 19 19  0  0  1  0  0  0  0  0999 V2000
   19.9218  -18.8861  -15.2466 C   0  0  0  0  0  0  0  0  0  0  0  0
   20.7296  -20.1075  -14.8773 C   0  0  2  0  0  0  0  0  0  0  0  0
   20.1804  -20.7473  -13.7147 N   0  0  0  0  0  0  0  0  0  0  0  0
   22.1550  -19.7266  -14.7042 C   0  0  0  0  0  0  0  0  0  0  0  0
   22.4117  -18.7593  -13.9554 O   0  0  0  0  0  0  0  0  0  0  0  0
   26.8201  -21.0833  -15.0679 O   0  0  0  0  0  0  0  0  0  0  0  0
   25.4736  -21.3038  -15.1966 C   0  0  0  0  0  0  0  0  0  0  0  0
   24.6338  -20.0506  -15.1622 C   0  0  2  0  0  0  0  0  0  0  0  0
   23.2206  -20.3900  -15.3318 N   0  0  0  0  0  0  0  0  0  0  0  0
   25.0208  -19.0058  -16.1110 C   0  0  0  0  0  0  0  0  0  0  0  0
   24.4467  -19.0841  -17.2628 O   0  0  0  0  0  0  0  0  0  0  0  0
   25.9203  -17.9467  -15.9341 N   0  0  0  0  0  0  0  0  0  0  0  0
   26.4232  -17.5927  -14.5788 C   0  0  0  0  0  0  0  0  0  0  0  0
   26.5433  -16.0837  -14.6916 C   0  0  0  0  0  0  0  0  0  0  0  0
   27.3305  -16.0309  -15.9799 C   0  0  0  0  0  0  0  0  0  0  0  0
   26.5347  -17.0137  -16.8561 C   0  0  1  0  0  0  0  0  0  0  0  0
   27.4361  -17.6421  -17.8218 C   0  0  0  0  0  0  0  0  0  0  0  0
   27.9940  -18.7238  -17.5419 O   0  0  0  0  0  0  0  0  0  0  0  0
   27.6851  -17.0640  -19.0444 O   0  0  0  0  0  0  0  0  0  0  0  0
  2  1  1  1
  2  3  1  0
  4  5  2  0
  4  2  1  0
  6  7  1  0
  8  7  1  6
  8  9  1  0
  9  4  1  0
 10 12  1  0
 10  8  1  0
 11 10  2  0
 12 16  1  0
 13 12  1  0
 13 14  1  0
 14 15  1  0
 16 15  1  0
 16 17  1  6
 17 19  1  0
 18 17  2  0
M  END
$$$$
