ASP.pdb
     RDKit          3D

 19 19  0  0  1  0  0  0  0  0999 V2000
   20.0155  -16.4901  -17.4614 C   0  0  0  0  0  0  0  0  0  0  0  0
   19.4594  -15.4397  -16.5297 C   0  0  2  0  0  0  0  0  0  0  0  0
   18.0786  -15.7021  -16.2347 N   0  0  0  0  0  0  0  0  0  0  0  0
   19.6759  -14.0917  -17.1151 C   0  0  0  0  0  0  0  0  0  0  0  0
   19.7171  -13.9984  -18.3609 O   0  0  0  0  0  0  0  0  0  0  0  0
   18.1307  -10.0691  -17.9029 O   0  0  0  0  0  0  0  0  0  0  0  0
   18.3831  -11.3605  -17.5195 C   0  0  0  0  0  0  0  0  0  0  0  0
   19.7300  -11.5627  -16.8700 C   0  0  2  0  0  0  0  0  0  0  0  0
   19.8355  -12.9262  -16.3498 N   0  0  0  0  0  0  0  0  0  0  0  0
   20.0796  -10.5954  -15.8290 C   0  0  0  0  0  0  0  0  0  0  0  0
   19.5063  -10.7965  -14.6917 O   0  0  0  0  0  0  0  0  0  0  0  0
   20.9436   -9.4955  -15.9049 N   0  0  0  0  0  0  0  0  0  0  0  0
   21.7002   -9.2060  -17.1535 C   0  0  0  0  0  0  0  0  0  0  0  0
   22.9981   -8.6536  -16.5926 C   0  0  0  0  0  0  0  0  0  0  0  0
   22.4031   -7.6338  -15.6504 C   0  0  0  0  0  0  0  0  0  0  0  0
   21.3174   -8.4707  -14.9520 C   0  0  1  0  0  0  0  0  0  0  0  0
   20.2119   -7.5982  -14.5563 C   0  0  0  0  0  0  0  0  0  0  0  0
   19.2282   -7.4560  -15.3125 O   0  0  0  0  0  0  0  0  0  0  0  0
   20.2300   -6.9248  -13.3574 O   0  0  0  0  0  0  0  0  0  0  0  0
  2  1  1  6
  2  3  1  0
  4  5  2  0
  4  2  1  0
  6  7  1  0
  8  7  1  1
  8  9  1  0
  9  4  1  0
 10 12  1  0
 10  8  1  0
 11 10  2  0
 12 16  1  0
 13 12  1  0
 13 14  1  0
 14 15  1  0
 16 15  1  0
 16 17  1  6
 17 19  1  0
 18 17  2  0
M  END
$$$$
