ASP.pdb
     RDKit          3D

 19 19  0  0  1  0  0  0  0  0999 V2000
   20.5762  -22.1284    8.8471 C   0  0  0  0  0  0  0  0  0  0  0  0
   21.0962  -23.3839    8.1884 C   0  0  2  0  0  0  0  0  0  0  0  0
   20.0099  -24.2133    7.7471 N   0  0  0  0  0  0  0  0  0  0  0  0
   22.0161  -24.0882    9.1181 C   0  0  0  0  0  0  0  0  0  0  0  0
   21.5386  -24.9966    9.8316 O   0  0  0  0  0  0  0  0  0  0  0  0
   26.0590  -24.6573    8.3925 O   0  0  0  0  0  0  0  0  0  0  0  0
   25.7432  -24.2184    9.6519 C   0  0  0  0  0  0  0  0  0  0  0  0
   24.3284  -24.5237   10.0786 C   0  0  2  0  0  0  0  0  0  0  0  0
   23.3823  -23.7903    9.2372 N   0  0  0  0  0  0  0  0  0  0  0  0
   24.0325  -24.2924   11.4930 C   0  0  0  0  0  0  0  0  0  0  0  0
   23.5399  -23.1306   11.7578 O   0  0  0  0  0  0  0  0  0  0  0  0
   24.2114  -25.1557   12.5815 N   0  0  0  0  0  0  0  0  0  0  0  0
   24.6610  -26.5593   12.3745 C   0  0  0  0  0  0  0  0  0  0  0  0
   23.9057  -27.2786   13.4775 C   0  0  0  0  0  0  0  0  0  0  0  0
   24.2948  -26.3743   14.6233 C   0  0  0  0  0  0  0  0  0  0  0  0
   24.0369  -24.9874   14.0095 C   0  0  1  0  0  0  0  0  0  0  0  0
   24.9515  -24.0146   14.6073 C   0  0  0  0  0  0  0  0  0  0  0  0
   25.9601  -23.6364   13.9752 O   0  0  0  0  0  0  0  0  0  0  0  0
   24.7234  -23.5001   15.8620 O   0  0  0  0  0  0  0  0  0  0  0  0
  2  1  1  1
  2  3  1  0
  4  5  2  0
  4  2  1  0
  6  7  1  0
  8  7  1  6
  8  9  1  0
  9  4  1  0
 10 12  1  0
 10  8  1  0
 11 10  2  0
 12 16  1  0
 13 12  1  0
 13 14  1  0
 14 15  1  0
 16 15  1  0
 16 17  1  1
 17 19  1  0
 18 17  2  0
M  END
$$$$
