ASP.pdb
     RDKit          3D

 19 19  0  0  1  0  0  0  0  0999 V2000
   20.0109  -10.2030  -20.3759 C   0  0  0  0  0  0  0  0  0  0  0  0
   20.6117  -10.8815  -19.1679 C   0  0  2  0  0  0  0  0  0  0  0  0
   20.2225  -12.2630  -19.1152 N   0  0  0  0  0  0  0  0  0  0  0  0
   20.2389  -10.1322  -17.9407 C   0  0  0  0  0  0  0  0  0  0  0  0
   19.0225  -10.0124  -17.6793 O   0  0  0  0  0  0  0  0  0  0  0  0
   21.2717   -8.9320  -13.4517 O   0  0  0  0  0  0  0  0  0  0  0  0
   21.3550   -9.6130  -14.6382 C   0  0  0  0  0  0  0  0  0  0  0  0
   20.8355   -8.8478  -15.8304 C   0  0  2  0  0  0  0  0  0  0  0  0
   21.1725   -9.5560  -17.0656 N   0  0  0  0  0  0  0  0  0  0  0  0
   21.2601   -7.4500  -15.9164 C   0  0  0  0  0  0  0  0  0  0  0  0
   22.3989   -7.2670  -16.4928 O   0  0  0  0  0  0  0  0  0  0  0  0
   20.6008   -6.3010  -15.4613 N   0  0  0  0  0  0  0  0  0  0  0  0
   19.1779   -6.3602  -15.0289 C   0  0  0  0  0  0  0  0  0  0  0  0
   18.6730   -5.0025  -15.4827 C   0  0  0  0  0  0  0  0  0  0  0  0
   19.7612   -4.1561  -14.8652 C   0  0  0  0  0  0  0  0  0  0  0  0
   21.0206   -4.9239  -15.3025 C   0  0  1  0  0  0  0  0  0  0  0  0
   22.0737   -4.7370  -14.3044 C   0  0  0  0  0  0  0  0  0  0  0  0
   22.3128   -5.6385  -13.4738 O   0  0  0  0  0  0  0  0  0  0  0  0
   22.8156   -3.5801  -14.2598 O   0  0  0  0  0  0  0  0  0  0  0  0
  2  1  1  6
  2  3  1  0
  4  5  2  0
  4  2  1  0
  6  7  1  0
  8  7  1  1
  8  9  1  0
  9  4  1  0
 10 12  1  0
 10  8  1  0
 11 10  2  0
 12 16  1  0
 13 12  1  0
 13 14  1  0
 14 15  1  0
 16 15  1  0
 16 17  1  1
 17 19  1  0
 18 17  2  0
M  END
$$$$
