ASP.pdb
     RDKit          3D

 19 19  0  0  1  0  0  0  0  0999 V2000
   15.7247  -10.0635  -15.0974 C   0  0  0  0  0  0  0  0  0  0  0  0
   16.8635  -10.9716  -15.4962 C   0  0  2  0  0  0  0  0  0  0  0  0
   16.7708  -12.2322  -14.8143 N   0  0  0  0  0  0  0  0  0  0  0  0
   18.1568  -10.2816  -15.2552 C   0  0  0  0  0  0  0  0  0  0  0  0
   18.4949  -10.0775  -14.0693 O   0  0  0  0  0  0  0  0  0  0  0  0
   22.4419   -8.8809  -17.1794 O   0  0  0  0  0  0  0  0  0  0  0  0
   21.1899   -9.4283  -17.2857 C   0  0  0  0  0  0  0  0  0  0  0  0
   20.3176   -9.2220  -16.0717 C   0  0  2  0  0  0  0  0  0  0  0  0
   19.0126   -9.8500  -16.2802 N   0  0  0  0  0  0  0  0  0  0  0  0
   20.1483   -7.8322  -15.6458 C   0  0  0  0  0  0  0  0  0  0  0  0
   19.0919   -7.2526  -16.1047 O   0  0  0  0  0  0  0  0  0  0  0  0
   20.9716   -7.0601  -14.8162 N   0  0  0  0  0  0  0  0  0  0  0  0
   22.0993   -7.6822  -14.0703 C   0  0  0  0  0  0  0  0  0  0  0  0
   22.0931   -6.8677  -12.7894 C   0  0  0  0  0  0  0  0  0  0  0  0
   22.0845   -5.4925  -13.4144 C   0  0  0  0  0  0  0  0  0  0  0  0
   20.9797   -5.6530  -14.4731 C   0  0  1  0  0  0  0  0  0  0  0  0
   21.2599   -4.7690  -15.6045 C   0  0  0  0  0  0  0  0  0  0  0  0
   21.7975   -5.2261  -16.6349 O   0  0  0  0  0  0  0  0  0  0  0  0
   20.9402   -3.4323  -15.5602 O   0  0  0  0  0  0  0  0  0  0  0  0
  2  1  1  1
  2  3  1  0
  4  5  2  0
  4  2  1  0
  6  7  1  0
  8  7  1  6
  8  9  1  0
  9  4  1  0
 10 12  1  0
 10  8  1  0
 11 10  2  0
 12 16  1  0
 13 12  1  0
 13 14  1  0
 14 15  1  0
 16 15  1  0
 16 17  1  6
 17 19  1  0
 18 17  2  0
M  END
$$$$
