ASP.pdb
     RDKit          3D

 19 19  0  0  1  0  0  0  0  0999 V2000
   17.0039   -9.2543  -19.2662 C   0  0  0  0  0  0  0  0  0  0  0  0
   18.3690   -9.7458  -18.8474 C   0  0  2  0  0  0  0  0  0  0  0  0
   18.3793  -11.1771  -18.7288 N   0  0  0  0  0  0  0  0  0  0  0  0
   18.7803   -9.0623  -17.5943 C   0  0  0  0  0  0  0  0  0  0  0  0
   17.8805   -8.7141  -16.7995 O   0  0  0  0  0  0  0  0  0  0  0  0
   22.3445   -8.3672  -14.3740 O   0  0  0  0  0  0  0  0  0  0  0  0
   21.7379   -8.9601  -15.4505 C   0  0  0  0  0  0  0  0  0  0  0  0
   20.5547   -8.1973  -15.9937 C   0  0  2  0  0  0  0  0  0  0  0  0
   20.1149   -8.7888  -17.2576 N   0  0  0  0  0  0  0  0  0  0  0  0
   20.7522   -6.7558  -16.1511 C   0  0  0  0  0  0  0  0  0  0  0  0
   21.3253   -6.4072  -17.2522 O   0  0  0  0  0  0  0  0  0  0  0  0
   20.4047   -5.7197  -15.2748 N   0  0  0  0  0  0  0  0  0  0  0  0
   19.4996   -5.9701  -14.1201 C   0  0  0  0  0  0  0  0  0  0  0  0
   18.7400   -4.6578  -14.0485 C   0  0  0  0  0  0  0  0  0  0  0  0
   19.9283   -3.7253  -14.0680 C   0  0  0  0  0  0  0  0  0  0  0  0
   20.7503   -4.3139  -15.2277 C   0  0  1  0  0  0  0  0  0  0  0  0
   22.1718   -4.0610  -14.9922 C   0  0  0  0  0  0  0  0  0  0  0  0
   22.8880   -4.9501  -14.4860 O   0  0  0  0  0  0  0  0  0  0  0  0
   22.7444   -2.8545  -15.3200 O   0  0  0  0  0  0  0  0  0  0  0  0
  2  1  1  1
  2  3  1  0
  4  5  2  0
  4  2  1  0
  6  7  1  0
  8  7  1  6
  8  9  1  0
  9  4  1  0
 10 12  1  0
 10  8  1  0
 11 10  2  0
 12 16  1  0
 13 12  1  0
 13 14  1  0
 14 15  1  0
 16 15  1  0
 16 17  1  1
 17 19  1  0
 18 17  2  0
M  END
$$$$
