ASP.pdb
     RDKit          3D

 19 19  0  0  1  0  0  0  0  0999 V2000
 1306.3359 6069.5029 3243.4573 C   0  0  0  0  0  0  0  0  0  0  0  0
 1307.4434 6070.5269 3243.5420 C   0  0  2  0  0  0  0  0  0  0  0  0
 1306.9226 6071.8115 3243.9067 N   0  0  0  0  0  0  0  0  0  0  0  0
 1308.1926 6070.5513 3242.2595 C   0  0  0  0  0  0  0  0  0  0  0  0
 1309.4415 6070.5112 3242.3120 O   0  0  0  0  0  0  0  0  0  0  0  0
 1307.5667 6073.2075 3238.6484 O   0  0  0  0  0  0  0  0  0  0  0  0
 1307.8490 6072.7842 3239.9229 C   0  0  0  0  0  0  0  0  0  0  0  0
 1306.8655 6071.7827 3240.4744 C   0  0  2  0  0  0  0  0  0  0  0  0
 1307.5775 6070.6182 3240.9990 N   0  0  0  0  0  0  0  0  0  0  0  0
 1305.8108 6071.3599 3239.5525 C   0  0  0  0  0  0  0  0  0  0  0  0
 1305.2034 6072.3252 3238.9492 O   0  0  0  0  0  0  0  0  0  0  0  0
 1305.3807 6070.0630 3239.2461 N   0  0  0  0  0  0  0  0  0  0  0  0
 1306.3583 6069.0049 3238.8687 C   0  0  0  0  0  0  0  0  0  0  0  0
 1305.5593 6068.2114 3237.8518 C   0  0  0  0  0  0  0  0  0  0  0  0
 1304.3059 6068.0176 3238.6746 C   0  0  0  0  0  0  0  0  0  0  0  0
 1304.0717 6069.4458 3239.1997 C   0  0  1  0  0  0  0  0  0  0  0  0
 1303.4009 6069.3809 3240.4971 C   0  0  0  0  0  0  0  0  0  0  0  0
 1302.1635 6069.5317 3240.5698 O   0  0  0  0  0  0  0  0  0  0  0  0
 1304.1084 6069.1504 3241.6531 O   0  0  0  0  0  0  0  0  0  0  0  0
  2  1  1  6
  2  3  1  0
  4  5  2  0
  4  2  1  0
  6  7  1  0
  8  7  1  6
  8  9  1  0
  9  4  1  0
 10 12  1  0
 10  8  1  0
 11 10  2  0
 12 16  1  0
 13 12  1  0
 13 14  1  0
 14 15  1  0
 16 15  1  0
 16 17  1  1
 17 19  1  0
 18 17  2  0
M  END
$$$$
