EVP.pdb
     RDKit          3D

 24 24  0  0  1  0  0  0  0  0999 V2000
    9.2062  -14.7022   20.6248 N   0  0  0  0  0  0  0  0  0  0  0  0
    8.4796  -15.4690   21.6567 C   0  0  1  0  0  0  0  0  0  0  0  0
    9.1170  -16.8392   21.6228 C   0  0  0  0  0  0  0  0  0  0  0  0
    9.6187  -17.2371   20.2619 C   0  0  0  0  0  0  0  0  0  0  0  0
    9.0717  -18.6151   19.9978 C   0  0  0  0  0  0  0  0  0  0  0  0
    8.2436  -19.1728   20.7296 O   0  0  0  0  0  0  0  0  0  0  0  0
    8.7824  -14.8284   22.9390 C   0  0  0  0  0  0  0  0  0  0  0  0
    9.9201  -14.2809   23.1706 O   0  0  0  0  0  0  0  0  0  0  0  0
    9.5555  -19.2590   18.8524 O   0  0  0  0  0  0  0  0  0  0  0  0
    7.3083  -13.3423   27.3763 C   0  0  0  0  0  0  0  0  0  0  0  0
    6.9506  -13.7329   25.9346 C   0  0  1  0  0  0  0  0  0  0  0  0
    6.4344  -12.5061   25.2354 C   0  0  0  0  0  0  0  0  0  0  0  0
    8.2379  -14.2352   25.3169 C   0  0  2  0  0  0  0  0  0  0  0  0
    7.8548  -14.7607   24.0036 N   0  0  0  0  0  0  0  0  0  0  0  0
    8.9230  -15.2275   26.1456 C   0  0  0  0  0  0  0  0  0  0  0  0
    8.8898  -16.4371   25.7212 O   0  0  0  0  0  0  0  0  0  0  0  0
    9.5991  -14.9416   27.3492 N   0  0  0  0  0  0  0  0  0  0  0  0
    9.3907  -13.8067   28.2127 C   0  0  0  0  0  0  0  0  0  0  0  0
   10.7287  -13.6011   28.9324 C   0  0  0  0  0  0  0  0  0  0  0  0
   11.6199  -14.6813   28.4056 C   0  0  0  0  0  0  0  0  0  0  0  0
   10.6382  -15.7391   27.9464 C   0  0  1  0  0  0  0  0  0  0  0  0
   10.1434  -16.5577   29.0805 C   0  0  0  0  0  0  0  0  0  0  0  0
    9.0031  -16.4971   29.5593 O   0  0  0  0  0  0  0  0  0  0  0  0
   11.0399  -17.4608   29.6419 O   0  0  0  0  0  0  0  0  0  0  0  0
  2  1  1  6
  2  3  1  0
  3  4  1  0
  4  5  1  0
  5  9  1  0
  5  6  2  0
  7  2  1  0
  8  7  2  0
 11 10  1  1
 11 12  1  0
 11 13  1  0
 13 14  1  6
 14  7  1  0
 15 17  1  0
 15 13  1  0
 16 15  2  0
 17 21  1  0
 18 19  1  0
 18 17  1  0
 19 20  1  0
 21 20  1  0
 22 24  1  0
 21 22  1  1
 23 22  2  0
M  END
$$$$
