EVP.pdb
     RDKit          3D

 24 24  0  0  1  0  0  0  0  0999 V2000
    8.8092  -17.9513   16.6385 N   0  0  0  0  0  0  0  0  0  0  0  0
    7.7561  -17.6602   17.6321 C   0  0  1  0  0  0  0  0  0  0  0  0
    7.3649  -19.0171   18.1713 C   0  0  0  0  0  0  0  0  0  0  0  0
    8.3996  -20.0821   17.9316 C   0  0  0  0  0  0  0  0  0  0  0  0
    7.8357  -21.3542   18.5075 C   0  0  0  0  0  0  0  0  0  0  0  0
    6.7162  -21.7967   18.2192 O   0  0  0  0  0  0  0  0  0  0  0  0
    8.3951  -16.8842   18.6979 C   0  0  0  0  0  0  0  0  0  0  0  0
    9.6206  -17.0717   19.0307 O   0  0  0  0  0  0  0  0  0  0  0  0
    8.6583  -22.0367   19.4120 O   0  0  0  0  0  0  0  0  0  0  0  0
    8.1594  -13.2028   21.9501 C   0  0  0  0  0  0  0  0  0  0  0  0
    7.4931  -13.9556   20.7889 C   0  0  1  0  0  0  0  0  0  0  0  0
    7.4179  -13.0223   19.6126 C   0  0  0  0  0  0  0  0  0  0  0  0
    8.3856  -15.1457   20.5091 C   0  0  2  0  0  0  0  0  0  0  0  0
    7.7208  -15.8793   19.4285 N   0  0  0  0  0  0  0  0  0  0  0  0
    8.6251  -15.9739   21.6913 C   0  0  0  0  0  0  0  0  0  0  0  0
    7.6941  -16.8000   21.9998 O   0  0  0  0  0  0  0  0  0  0  0  0
    9.7859  -15.9200   22.4894 N   0  0  0  0  0  0  0  0  0  0  0  0
   10.8983  -15.0153   22.3427 C   0  0  0  0  0  0  0  0  0  0  0  0
   12.0994  -15.7590   22.9382 C   0  0  0  0  0  0  0  0  0  0  0  0
   11.5500  -17.0719   23.3997 C   0  0  0  0  0  0  0  0  0  0  0  0
   10.0812  -16.7706   23.6126 C   0  0  1  0  0  0  0  0  0  0  0  0
    9.8422  -16.0963   24.9125 C   0  0  0  0  0  0  0  0  0  0  0  0
    9.6322  -14.8850   25.0592 O   0  0  0  0  0  0  0  0  0  0  0  0
    9.8578  -16.8985   26.0487 O   0  0  0  0  0  0  0  0  0  0  0  0
  2  1  1  6
  2  3  1  0
  3  4  1  0
  4  5  1  0
  5  9  1  0
  5  6  2  0
  7  2  1  0
  8  7  2  0
 11 10  1  1
 11 12  1  0
 11 13  1  0
 13 14  1  6
 14  7  1  0
 15 17  1  0
 15 13  1  0
 16 15  2  0
 17 21  1  0
 18 19  1  0
 18 17  1  0
 19 20  1  0
 21 20  1  0
 22 24  1  0
 21 22  1  1
 23 22  2  0
M  END
$$$$
