EVP.pdb
     RDKit          3D

 24 24  0  0  1  0  0  0  0  0999 V2000
   11.5258  -15.9986   19.9558 N   0  0  0  0  0  0  0  0  0  0  0  0
   11.5808  -16.8390   21.1688 C   0  0  1  0  0  0  0  0  0  0  0  0
   13.0573  -17.0668   21.3997 C   0  0  0  0  0  0  0  0  0  0  0  0
   13.3550  -17.9126   22.6073 C   0  0  0  0  0  0  0  0  0  0  0  0
   14.8463  -18.1218   22.6174 C   0  0  0  0  0  0  0  0  0  0  0  0
   15.3843  -19.2127   22.3875 O   0  0  0  0  0  0  0  0  0  0  0  0
   11.0422  -16.0253   22.2616 C   0  0  0  0  0  0  0  0  0  0  0  0
   11.5979  -14.9268   22.6255 O   0  0  0  0  0  0  0  0  0  0  0  0
   15.6230  -16.9934   22.9073 O   0  0  0  0  0  0  0  0  0  0  0  0
    7.2475  -14.6927   24.9648 C   0  0  0  0  0  0  0  0  0  0  0  0
    7.8392  -15.5098   23.8068 C   0  0  1  0  0  0  0  0  0  0  0  0
    7.4627  -14.8310   22.5192 C   0  0  0  0  0  0  0  0  0  0  0  0
    9.3363  -15.5076   24.0293 C   0  0  2  0  0  0  0  0  0  0  0  0
    9.8815  -16.3806   22.9860 N   0  0  0  0  0  0  0  0  0  0  0  0
    9.7167  -15.9309   25.3773 C   0  0  0  0  0  0  0  0  0  0  0  0
   10.2178  -17.1069   25.4791 O   0  0  0  0  0  0  0  0  0  0  0  0
    9.5698  -15.1454   26.5386 N   0  0  0  0  0  0  0  0  0  0  0  0
    8.7288  -13.9863   26.7012 C   0  0  0  0  0  0  0  0  0  0  0  0
    9.4020  -13.1549   27.7993 C   0  0  0  0  0  0  0  0  0  0  0  0
   10.6121  -13.9423   28.1920 C   0  0  0  0  0  0  0  0  0  0  0  0
   10.2427  -15.3560   27.7937 C   0  0  1  0  0  0  0  0  0  0  0  0
    9.3682  -16.0000   28.8045 C   0  0  0  0  0  0  0  0  0  0  0  0
    8.1547  -16.2059   28.6698 O   0  0  0  0  0  0  0  0  0  0  0  0
    9.9701  -16.3996   29.9930 O   0  0  0  0  0  0  0  0  0  0  0  0
  2  1  1  6
  2  3  1  0
  3  4  1  0
  4  5  1  0
  5  9  1  0
  5  6  2  0
  7  2  1  0
  8  7  2  0
 11 10  1  1
 11 12  1  0
 11 13  1  0
 13 14  1  6
 14  7  1  0
 15 17  1  0
 15 13  1  0
 16 15  2  0
 17 21  1  0
 18 19  1  0
 18 17  1  0
 19 20  1  0
 21 20  1  0
 22 24  1  0
 21 22  1  1
 23 22  2  0
M  END
$$$$
