EVP.pdb
     RDKit          3D

 24 24  0  0  1  0  0  0  0  0999 V2000
    7.8966  -14.0738   20.5326 N   0  0  0  0  0  0  0  0  0  0  0  0
    8.0469  -15.1884   21.4895 C   0  0  1  0  0  0  0  0  0  0  0  0
    9.1904  -16.0065   20.9345 C   0  0  0  0  0  0  0  0  0  0  0  0
    9.4961  -17.2393   21.7402 C   0  0  0  0  0  0  0  0  0  0  0  0
   10.6335  -17.9311   21.0361 C   0  0  0  0  0  0  0  0  0  0  0  0
   11.7518  -17.4228   20.8829 O   0  0  0  0  0  0  0  0  0  0  0  0
    8.4563  -14.5895   22.7624 C   0  0  0  0  0  0  0  0  0  0  0  0
    9.4905  -13.8349   22.8542 O   0  0  0  0  0  0  0  0  0  0  0  0
   10.3632  -19.2147   20.5465 O   0  0  0  0  0  0  0  0  0  0  0  0
    7.4983  -13.3400   27.3675 C   0  0  0  0  0  0  0  0  0  0  0  0
    6.9999  -13.8331   26.0010 C   0  0  1  0  0  0  0  0  0  0  0  0
    6.2856  -12.6939   25.3283 C   0  0  0  0  0  0  0  0  0  0  0  0
    8.2407  -14.2492   25.2404 C   0  0  2  0  0  0  0  0  0  0  0  0
    7.7496  -14.7905   23.9701 N   0  0  0  0  0  0  0  0  0  0  0  0
    9.0730  -15.2008   25.9770 C   0  0  0  0  0  0  0  0  0  0  0  0
    9.2302  -16.3517   25.4336 O   0  0  0  0  0  0  0  0  0  0  0  0
    9.6957  -14.9358   27.2137 N   0  0  0  0  0  0  0  0  0  0  0  0
    9.4111  -13.8453   28.1120 C   0  0  0  0  0  0  0  0  0  0  0  0
   10.7144  -13.6146   28.8858 C   0  0  0  0  0  0  0  0  0  0  0  0
   11.6671  -14.6362   28.3499 C   0  0  0  0  0  0  0  0  0  0  0  0
   10.7464  -15.7137   27.8163 C   0  0  1  0  0  0  0  0  0  0  0  0
   10.2482  -16.5959   28.9002 C   0  0  0  0  0  0  0  0  0  0  0  0
   10.9279  -17.4358   29.5048 O   0  0  0  0  0  0  0  0  0  0  0  0
    8.9106  -16.4596   29.2564 O   0  0  0  0  0  0  0  0  0  0  0  0
  2  1  1  6
  2  3  1  0
  3  4  1  0
  4  5  1  0
  5  9  1  0
  5  6  2  0
  7  2  1  0
  8  7  2  0
 11 10  1  1
 11 12  1  0
 11 13  1  0
 13 14  1  6
 14  7  1  0
 15 17  1  0
 15 13  1  0
 16 15  2  0
 17 21  1  0
 18 19  1  0
 18 17  1  0
 19 20  1  0
 21 20  1  0
 22 24  1  0
 21 22  1  1
 23 22  2  0
M  END
$$$$
