YDH.pdb
     RDKit          3D

 31 32  0  0  1  0  0  0  0  0999 V2000
    7.2809  -12.1021   17.8406 O   0  0  0  0  0  0  0  0  0  0  0  0
    7.6397  -12.8003   18.9771 C   0  0  0  0  0  0  0  0  0  0  0  0
    6.6946  -13.3290   19.8248 C   0  0  0  0  0  0  0  0  0  0  0  0
    7.0953  -14.0217   20.9516 C   0  0  0  0  0  0  0  0  0  0  0  0
    8.4284  -14.1825   21.2246 C   0  0  0  0  0  0  0  0  0  0  0  0
    8.8463  -14.9247   22.4237 C   0  0  0  0  0  0  0  0  0  0  0  0
    9.4320  -16.2394   22.0304 C   0  0  2  0  0  0  0  0  0  0  0  0
    8.4518  -17.0645   21.3933 N   0  0  0  0  0  0  0  0  0  0  0  0
   10.0615  -16.9596   23.1745 C   0  0  0  0  0  0  0  0  0  0  0  0
    9.2610  -17.6190   23.9068 O   0  0  0  0  0  0  0  0  0  0  0  0
    9.3579  -13.6518   20.3731 C   0  0  0  0  0  0  0  0  0  0  0  0
    8.9837  -12.9546   19.2399 C   0  0  0  0  0  0  0  0  0  0  0  0
   11.4351  -16.9264   23.4427 N   0  0  0  0  0  0  0  0  0  0  0  0
   11.9551  -17.6440   24.5937 C   0  0  1  0  0  0  0  0  0  0  0  0
   13.4623  -17.6950   24.4892 C   0  0  0  0  0  0  0  0  0  0  0  0
   13.9317  -18.7271   23.5629 C   0  0  0  0  0  0  0  0  0  0  0  0
   13.4543  -18.7957   22.4123 O   0  0  0  0  0  0  0  0  0  0  0  0
   11.5590  -16.8681   25.8239 C   0  0  0  0  0  0  0  0  0  0  0  0
   11.5089  -15.6170   25.8330 O   0  0  0  0  0  0  0  0  0  0  0  0
   14.8990  -19.6238   23.9548 O   0  0  0  0  0  0  0  0  0  0  0  0
   11.2440  -17.6018   26.9713 N   0  0  0  0  0  0  0  0  0  0  0  0
   10.8017  -16.9916   28.2230 C   0  0  1  0  0  0  0  0  0  0  0  0
    9.2890  -16.8972   28.1307 C   0  0  0  0  0  0  0  0  0  0  0  0
    8.9515  -15.5838   27.5296 C   0  0  0  0  0  0  0  0  0  0  0  0
    7.9455  -15.3065   26.6172 C   0  0  0  0  0  0  0  0  0  0  0  0
    7.9467  -14.0005   26.3084 N   0  0  0  0  0  0  0  0  0  0  0  0
    8.9322  -13.4434   27.0049 C   0  0  0  0  0  0  0  0  0  0  0  0
    9.5501  -14.3980   27.7513 N   0  0  0  0  0  0  0  0  0  0  0  0
   11.2294  -17.8749   29.3243 C   0  0  0  0  0  0  0  0  0  0  0  0
   11.7185  -19.1592   29.1190 O   0  0  0  0  0  0  0  0  0  0  0  0
   11.1609  -17.4777   30.5138 O   0  0  0  0  0  0  0  0  0  0  0  0
  2  1  1  0
  3  2  2  0
  4  3  1  0
  5 11  1  0
  5  4  2  0
  6  5  1  0
  7  6  1  0
  7  8  1  1
  9 10  2  0
  9  7  1  0
 11 12  2  0
 12  2  1  0
 13  9  1  0
 14 13  1  0
 14 15  1  6
 16 15  1  0
 16 17  2  0
 18 14  1  0
 19 18  2  0
 20 16  1  0
 21 18  1  0
 22 21  1  0
 23 24  1  0
 22 23  1  6
 24 25  2  0
 26 25  1  0
 27 26  1  0
 28 27  2  0
 28 24  1  0
 29 22  1  0
 29 30  1  0
 31 29  2  0
M  END
$$$$
