YDH.pdb
     RDKit          3D

 31 32  0  0  1  0  0  0  0  0999 V2000
    7.3239  -12.0084   16.8954 O   0  0  0  0  0  0  0  0  0  0  0  0
    7.6089  -12.7716   18.0108 C   0  0  0  0  0  0  0  0  0  0  0  0
    8.9006  -12.9568   18.4449 C   0  0  0  0  0  0  0  0  0  0  0  0
    9.1432  -13.7274   19.5663 C   0  0  0  0  0  0  0  0  0  0  0  0
    8.1022  -14.3051   20.2445 C   0  0  0  0  0  0  0  0  0  0  0  0
    8.3687  -15.1203   21.4393 C   0  0  0  0  0  0  0  0  0  0  0  0
    8.7780  -16.4972   21.0354 C   0  0  2  0  0  0  0  0  0  0  0  0
    7.6502  -17.2522   20.5821 N   0  0  0  0  0  0  0  0  0  0  0  0
    9.4996  -17.2284   22.1163 C   0  0  0  0  0  0  0  0  0  0  0  0
    8.7822  -18.0077   22.8164 O   0  0  0  0  0  0  0  0  0  0  0  0
    6.8223  -14.1128   19.8021 C   0  0  0  0  0  0  0  0  0  0  0  0
    6.5526  -13.3471   18.6835 C   0  0  0  0  0  0  0  0  0  0  0  0
   10.8702  -17.0829   22.3615 N   0  0  0  0  0  0  0  0  0  0  0  0
   11.4917  -17.8570   23.4219 C   0  0  1  0  0  0  0  0  0  0  0  0
   12.9925  -17.7857   23.2546 C   0  0  0  0  0  0  0  0  0  0  0  0
   13.7108  -18.6183   24.2213 C   0  0  0  0  0  0  0  0  0  0  0  0
   14.7852  -18.2171   24.7124 O   0  0  0  0  0  0  0  0  0  0  0  0
   11.0978  -17.2229   24.7315 C   0  0  0  0  0  0  0  0  0  0  0  0
   11.4145  -16.0470   25.0223 O   0  0  0  0  0  0  0  0  0  0  0  0
   13.2063  -19.8434   24.5926 O   0  0  0  0  0  0  0  0  0  0  0  0
   10.3556  -18.0019   25.6238 N   0  0  0  0  0  0  0  0  0  0  0  0
    9.9642  -17.5498   26.9570 C   0  0  1  0  0  0  0  0  0  0  0  0
    8.4459  -17.5327   26.9639 C   0  0  0  0  0  0  0  0  0  0  0  0
    8.0031  -16.2531   26.3583 C   0  0  0  0  0  0  0  0  0  0  0  0
    8.8000  -15.2154   25.9005 C   0  0  0  0  0  0  0  0  0  0  0  0
    8.0368  -14.2243   25.4145 N   0  0  0  0  0  0  0  0  0  0  0  0
    6.7728  -14.6107   25.5547 C   0  0  0  0  0  0  0  0  0  0  0  0
    6.7409  -15.8438   26.1280 N   0  0  0  0  0  0  0  0  0  0  0  0
   10.5058  -18.5158   27.9315 C   0  0  0  0  0  0  0  0  0  0  0  0
   11.2595  -19.6231   27.5616 O   0  0  0  0  0  0  0  0  0  0  0  0
   10.2936  -18.3589   29.1593 O   0  0  0  0  0  0  0  0  0  0  0  0
  2  1  1  0
  3  2  2  0
  4  3  1  0
  5 11  1  0
  5  4  2  0
  6  5  1  0
  7  6  1  0
  7  8  1  1
  9 10  2  0
  9  7  1  0
 11 12  2  0
 12  2  1  0
 13  9  1  0
 14 13  1  0
 14 15  1  6
 16 15  1  0
 16 17  2  0
 18 14  1  0
 19 18  2  0
 20 16  1  0
 21 18  1  0
 22 21  1  0
 23 24  1  0
 22 23  1  6
 24 25  2  0
 26 25  1  0
 27 26  1  0
 28 27  2  0
 28 24  1  0
 29 22  1  0
 29 30  1  0
 31 29  2  0
M  END
$$$$
