YDH.pdb
     RDKit          3D

 31 32  0  0  1  0  0  0  0  0999 V2000
    7.5977  -11.8793   17.6296 O   0  0  0  0  0  0  0  0  0  0  0  0
    7.9614  -12.6995   18.6798 C   0  0  0  0  0  0  0  0  0  0  0  0
    7.0405  -13.1381   19.6022 C   0  0  0  0  0  0  0  0  0  0  0  0
    7.4453  -13.9586   20.6382 C   0  0  0  0  0  0  0  0  0  0  0  0
    8.7583  -14.3348   20.7474 C   0  0  0  0  0  0  0  0  0  0  0  0
    9.1798  -15.2115   21.8505 C   0  0  0  0  0  0  0  0  0  0  0  0
    9.6719  -16.5116   21.3081 C   0  0  2  0  0  0  0  0  0  0  0  0
    8.6277  -17.2038   20.6166 N   0  0  0  0  0  0  0  0  0  0  0  0
   10.2776  -17.3846   22.3545 C   0  0  0  0  0  0  0  0  0  0  0  0
    9.4688  -18.1661   22.9437 O   0  0  0  0  0  0  0  0  0  0  0  0
    9.6638  -13.8915   19.8230 C   0  0  0  0  0  0  0  0  0  0  0  0
    9.2851  -13.0703   18.7779 C   0  0  0  0  0  0  0  0  0  0  0  0
   11.6385  -17.3626   22.6818 N   0  0  0  0  0  0  0  0  0  0  0  0
   12.1316  -18.2243   23.7422 C   0  0  1  0  0  0  0  0  0  0  0  0
   13.6429  -18.1914   23.7265 C   0  0  0  0  0  0  0  0  0  0  0  0
   14.2414  -19.2509   24.5406 C   0  0  0  0  0  0  0  0  0  0  0  0
   13.5125  -20.0030   25.2185 O   0  0  0  0  0  0  0  0  0  0  0  0
   11.6267  -17.6646   25.0477 C   0  0  0  0  0  0  0  0  0  0  0  0
   11.8945  -16.4991   25.4190 O   0  0  0  0  0  0  0  0  0  0  0  0
   15.6065  -19.4225   24.5622 O   0  0  0  0  0  0  0  0  0  0  0  0
   10.8373  -18.5013   25.8418 N   0  0  0  0  0  0  0  0  0  0  0  0
   10.2135  -18.0740   27.0921 C   0  0  1  0  0  0  0  0  0  0  0  0
    8.7414  -18.4244   26.9661 C   0  0  0  0  0  0  0  0  0  0  0  0
    8.1294  -17.4762   26.0036 C   0  0  0  0  0  0  0  0  0  0  0  0
    8.7236  -16.3724   25.4122 C   0  0  0  0  0  0  0  0  0  0  0  0
    7.8540  -15.7607   24.5932 N   0  0  0  0  0  0  0  0  0  0  0  0
    6.7207  -16.4525   24.6527 C   0  0  0  0  0  0  0  0  0  0  0  0
    6.8773  -17.4985   25.5080 N   0  0  0  0  0  0  0  0  0  0  0  0
   10.8616  -18.8168   28.1895 C   0  0  0  0  0  0  0  0  0  0  0  0
   11.8716  -19.7480   27.9810 O   0  0  0  0  0  0  0  0  0  0  0  0
   10.5070  -18.6216   29.3784 O   0  0  0  0  0  0  0  0  0  0  0  0
  2  1  1  0
  3  2  2  0
  4  3  1  0
  5 11  1  0
  5  4  2  0
  6  5  1  0
  7  6  1  0
  7  8  1  1
  9 10  2  0
  9  7  1  0
 11 12  2  0
 12  2  1  0
 13  9  1  0
 14 13  1  0
 14 15  1  1
 16 15  1  0
 16 17  2  0
 18 14  1  0
 19 18  2  0
 20 16  1  0
 21 18  1  0
 22 21  1  0
 23 24  1  0
 22 23  1  6
 24 25  2  0
 26 25  1  0
 27 26  1  0
 28 27  2  0
 28 24  1  0
 29 22  1  0
 29 30  1  0
 31 29  2  0
M  END
$$$$
