YDH.pdb
     RDKit          3D

 31 32  0  0  1  0  0  0  0  0999 V2000
    7.2915  -12.1184   17.4264 O   0  0  0  0  0  0  0  0  0  0  0  0
    7.5340  -13.0146   18.4491 C   0  0  0  0  0  0  0  0  0  0  0  0
    7.9387  -12.5930   19.6940 C   0  0  0  0  0  0  0  0  0  0  0  0
    8.1703  -13.5221   20.6907 C   0  0  0  0  0  0  0  0  0  0  0  0
    7.9976  -14.8584   20.4415 C   0  0  0  0  0  0  0  0  0  0  0  0
    8.2422  -15.8402   21.5089 C   0  0  0  0  0  0  0  0  0  0  0  0
    9.6826  -15.8214   21.8977 C   0  0  2  0  0  0  0  0  0  0  0  0
   10.5238  -15.8946   20.7425 N   0  0  0  0  0  0  0  0  0  0  0  0
   10.0344  -16.8938   22.8725 C   0  0  0  0  0  0  0  0  0  0  0  0
    9.1639  -17.1188   23.7689 O   0  0  0  0  0  0  0  0  0  0  0  0
    7.5947  -15.2640   19.1989 C   0  0  0  0  0  0  0  0  0  0  0  0
    7.3567  -14.3555   18.1850 C   0  0  0  0  0  0  0  0  0  0  0  0
   11.2331  -17.6153   22.8234 N   0  0  0  0  0  0  0  0  0  0  0  0
   11.5507  -18.5453   23.8932 C   0  0  1  0  0  0  0  0  0  0  0  0
   12.8484  -19.2433   23.5557 C   0  0  0  0  0  0  0  0  0  0  0  0
   12.7480  -20.0777   22.3568 C   0  0  0  0  0  0  0  0  0  0  0  0
   13.4355  -19.8088   21.3510 O   0  0  0  0  0  0  0  0  0  0  0  0
   11.7236  -17.7377   25.1543 C   0  0  0  0  0  0  0  0  0  0  0  0
   12.5766  -16.8260   25.2480 O   0  0  0  0  0  0  0  0  0  0  0  0
   11.8980  -21.1594   22.3329 O   0  0  0  0  0  0  0  0  0  0  0  0
   10.8873  -18.0440   26.2318 N   0  0  0  0  0  0  0  0  0  0  0  0
   10.9109  -17.3222   27.5020 C   0  0  1  0  0  0  0  0  0  0  0  0
    9.5085  -16.7740   27.6977 C   0  0  0  0  0  0  0  0  0  0  0  0
    9.5899  -15.2934   27.6595 C   0  0  0  0  0  0  0  0  0  0  0  0
   10.7321  -14.5094   27.7027 C   0  0  0  0  0  0  0  0  0  0  0  0
   10.4048  -13.2093   27.6416 N   0  0  0  0  0  0  0  0  0  0  0  0
    9.0793  -13.1518   27.5611 C   0  0  0  0  0  0  0  0  0  0  0  0
    8.5734  -14.4144   27.5712 N   0  0  0  0  0  0  0  0  0  0  0  0
   11.2737  -18.2882   28.5562 C   0  0  0  0  0  0  0  0  0  0  0  0
   11.4118  -19.6506   28.3202 O   0  0  0  0  0  0  0  0  0  0  0  0
   11.4736  -17.8933   29.7315 O   0  0  0  0  0  0  0  0  0  0  0  0
  2  1  1  0
  3  2  2  0
  4  3  1  0
  5 11  1  0
  5  4  2  0
  6  5  1  0
  7  6  1  0
  7  8  1  6
  9 10  2  0
  9  7  1  0
 11 12  2  0
 12  2  1  0
 13  9  1  0
 14 13  1  0
 14 15  1  6
 16 15  1  0
 16 17  2  0
 18 14  1  0
 19 18  2  0
 20 16  1  0
 21 18  1  0
 22 21  1  0
 23 24  1  0
 22 23  1  1
 24 25  2  0
 26 25  1  0
 27 26  1  0
 28 27  2  0
 28 24  1  0
 29 22  1  0
 29 30  1  0
 31 29  2  0
M  END
$$$$
