VPS.pdb
     RDKit          3D

 21 21  0  0  1  0  0  0  0  0999 V2000
   17.2112  -17.0850    3.1746 C   0  0  0  0  0  0  0  0  0  0  0  0
   18.2328  -18.1373    2.7660 C   0  0  2  0  0  0  0  0  0  0  0  0
   18.2200  -18.1770    1.2544 C   0  0  0  0  0  0  0  0  0  0  0  0
   17.8433  -19.4969    3.3744 C   0  0  2  0  0  0  0  0  0  0  0  0
   16.6324  -19.8727    2.8018 N   0  0  0  0  0  0  0  0  0  0  0  0
   17.9648  -19.4968    4.8291 C   0  0  0  0  0  0  0  0  0  0  0  0
   16.8966  -19.3350    5.4833 O   0  0  0  0  0  0  0  0  0  0  0  0
   19.1897  -19.6651    5.5715 N   0  0  0  0  0  0  0  0  0  0  0  0
   20.4961  -19.9226    5.0475 C   0  0  0  0  0  0  0  0  0  0  0  0
   21.4520  -19.5009    6.1293 C   0  0  0  0  0  0  0  0  0  0  0  0
   20.6931  -20.0304    7.3579 C   0  0  0  0  0  0  0  0  0  0  0  0
   19.2848  -19.6088    7.0128 C   0  0  1  0  0  0  0  0  0  0  0  0
   18.9471  -18.2772    7.5561 C   0  0  0  0  0  0  0  0  0  0  0  0
   19.2612  -17.2703    6.8656 O   0  0  0  0  0  0  0  0  0  0  0  0
   15.5917  -16.5462    8.8743 O   0  0  0  0  0  0  0  0  0  0  0  0
   16.5410  -16.8224    9.8582 C   0  0  0  0  0  0  0  0  0  0  0  0
   17.9412  -16.7074    9.2635 C   0  0  2  0  0  0  0  0  0  0  0  0
   18.2974  -18.0228    8.7898 N   0  0  0  0  0  0  0  0  0  0  0  0
   18.8303  -16.2354   10.3502 C   0  0  0  0  0  0  0  0  0  0  0  0
   18.6474  -14.9277   10.7816 O   0  0  0  0  0  0  0  0  0  0  0  0
   19.7175  -16.9635   10.8758 O   0  0  0  0  0  0  0  0  0  0  0  0
  2  3  1  6
  2  1  1  0
  4  2  1  0
  4  5  1  1
  6  8  1  0
  6  4  1  0
  7  6  2  0
  8 12  1  0
  9 10  1  0
  9  8  1  0
 10 11  1  0
 11 12  1  0
 12 13  1  6
 13 18  1  0
 14 13  2  0
 16 15  1  0
 17 19  1  0
 17 16  1  1
 18 17  1  0
 19 20  1  0
 21 19  2  0
M  END
$$$$
