VPS.pdb
     RDKit          3D

 21 21  0  0  1  0  0  0  0  0999 V2000
   17.2732   -9.9758  -16.7264 C   0  0  0  0  0  0  0  0  0  0  0  0
   18.0374  -10.7600  -17.7842 C   0  0  2  0  0  0  0  0  0  0  0  0
   17.0149  -11.6112  -18.5029 C   0  0  0  0  0  0  0  0  0  0  0  0
   19.1189  -11.6207  -17.1060 C   0  0  2  0  0  0  0  0  0  0  0  0
   18.4655  -12.6453  -16.4290 N   0  0  0  0  0  0  0  0  0  0  0  0
   20.0891  -10.8046  -16.3823 C   0  0  0  0  0  0  0  0  0  0  0  0
   19.7805  -10.4773  -15.2022 O   0  0  0  0  0  0  0  0  0  0  0  0
   21.3560  -10.3476  -16.8980 N   0  0  0  0  0  0  0  0  0  0  0  0
   21.9744  -10.7133  -18.1355 C   0  0  0  0  0  0  0  0  0  0  0  0
   22.9616   -9.6174  -18.4292 C   0  0  0  0  0  0  0  0  0  0  0  0
   23.5116   -9.3857  -17.0117 C   0  0  0  0  0  0  0  0  0  0  0  0
   22.2318   -9.4251  -16.2113 C   0  0  1  0  0  0  0  0  0  0  0  0
   21.6319   -8.0855  -16.0432 C   0  0  0  0  0  0  0  0  0  0  0  0
   20.8463   -7.6828  -16.9431 O   0  0  0  0  0  0  0  0  0  0  0  0
   21.9883   -5.9315  -12.5703 O   0  0  0  0  0  0  0  0  0  0  0  0
   20.8855   -5.6965  -13.3912 C   0  0  0  0  0  0  0  0  0  0  0  0
   21.2868   -5.8829  -14.8513 C   0  0  2  0  0  0  0  0  0  0  0  0
   21.8576   -7.2038  -14.9568 N   0  0  0  0  0  0  0  0  0  0  0  0
   22.2643   -4.8154  -15.1660 C   0  0  0  0  0  0  0  0  0  0  0  0
   21.7756   -3.5158  -15.2094 O   0  0  0  0  0  0  0  0  0  0  0  0
   23.4853   -5.0467  -15.3879 O   0  0  0  0  0  0  0  0  0  0  0  0
  2  3  1  1
  2  1  1  0
  4  2  1  0
  4  5  1  1
  6  8  1  0
  6  4  1  0
  7  6  2  0
  8 12  1  0
  9 10  1  0
  9  8  1  0
 10 11  1  0
 11 12  1  0
 12 13  1  6
 13 18  1  0
 14 13  2  0
 16 15  1  0
 17 19  1  0
 17 16  1  1
 18 17  1  0
 19 20  1  0
 21 19  2  0
M  END
$$$$
