VPS.pdb
     RDKit          3D

 21 21  0  0  1  0  0  0  0  0999 V2000
   18.6827  -10.7425  -18.1024 C   0  0  0  0  0  0  0  0  0  0  0  0
   19.7031  -11.8695  -18.0200 C   0  0  2  0  0  0  0  0  0  0  0  0
   19.2224  -12.9474  -18.9653 C   0  0  0  0  0  0  0  0  0  0  0  0
   19.7896  -12.3809  -16.5704 C   0  0  2  0  0  0  0  0  0  0  0  0
   18.5852  -13.0158  -16.2849 N   0  0  0  0  0  0  0  0  0  0  0  0
   20.2764  -11.3505  -15.6581 C   0  0  0  0  0  0  0  0  0  0  0  0
   19.4177  -10.5337  -15.2216 O   0  0  0  0  0  0  0  0  0  0  0  0
   21.6409  -11.1912  -15.2192 N   0  0  0  0  0  0  0  0  0  0  0  0
   22.7637  -12.0133  -15.5528 C   0  0  0  0  0  0  0  0  0  0  0  0
   23.9753  -11.1610  -15.2934 C   0  0  0  0  0  0  0  0  0  0  0  0
   23.5289  -10.4764  -13.9906 C   0  0  0  0  0  0  0  0  0  0  0  0
   22.0961  -10.1441  -14.3326 C   0  0  1  0  0  0  0  0  0  0  0  0
   21.9562   -8.7963  -14.9210 C   0  0  0  0  0  0  0  0  0  0  0  0
   22.1947   -8.6715  -16.1526 O   0  0  0  0  0  0  0  0  0  0  0  0
   19.4672   -6.0205  -13.7455 O   0  0  0  0  0  0  0  0  0  0  0  0
   20.1329   -5.8762  -14.9626 C   0  0  0  0  0  0  0  0  0  0  0  0
   21.5901   -6.2977  -14.8007 C   0  0  2  0  0  0  0  0  0  0  0  0
   21.5754   -7.6211  -14.2262 N   0  0  0  0  0  0  0  0  0  0  0  0
   22.2280   -5.2998  -13.9110 C   0  0  0  0  0  0  0  0  0  0  0  0
   22.5942   -5.7377  -12.6446 O   0  0  0  0  0  0  0  0  0  0  0  0
   22.4399   -4.1054  -14.2602 O   0  0  0  0  0  0  0  0  0  0  0  0
  2  3  1  6
  2  1  1  0
  4  2  1  0
  4  5  1  1
  6  8  1  0
  6  4  1  0
  7  6  2  0
  8 12  1  0
  9 10  1  0
  9  8  1  0
 10 11  1  0
 11 12  1  0
 12 13  1  6
 13 18  1  0
 14 13  2  0
 16 15  1  0
 17 19  1  0
 17 16  1  1
 18 17  1  0
 19 20  1  0
 21 19  2  0
M  END
$$$$
