VPS.pdb
     RDKit          3D

 21 21  0  0  1  0  0  0  0  0999 V2000
   27.7964  -16.4109  -16.2587 C   0  0  0  0  0  0  0  0  0  0  0  0
   26.6869  -17.3107  -15.7323 C   0  0  2  0  0  0  0  0  0  0  0  0
   26.3412  -16.7959  -14.3531 C   0  0  0  0  0  0  0  0  0  0  0  0
   27.1826  -18.7677  -15.6882 C   0  0  2  0  0  0  0  0  0  0  0  0
   27.7209  -19.0576  -16.9378 N   0  0  0  0  0  0  0  0  0  0  0  0
   26.1791  -19.6672  -15.1274 C   0  0  0  0  0  0  0  0  0  0  0  0
   25.1553  -19.8803  -15.8357 O   0  0  0  0  0  0  0  0  0  0  0  0
   26.2600  -20.3251  -13.8465 N   0  0  0  0  0  0  0  0  0  0  0  0
   27.3482  -20.2902  -12.9179 C   0  0  0  0  0  0  0  0  0  0  0  0
   26.7538  -20.6701  -11.5897 C   0  0  0  0  0  0  0  0  0  0  0  0
   25.8038  -21.7893  -12.0486 C   0  0  0  0  0  0  0  0  0  0  0  0
   25.2195  -21.1607  -13.2910 C   0  0  1  0  0  0  0  0  0  0  0  0
   23.9754  -20.4144  -13.0121 C   0  0  0  0  0  0  0  0  0  0  0  0
   24.0774  -19.1798  -12.7784 O   0  0  0  0  0  0  0  0  0  0  0  0
   20.7536  -19.3083  -15.5627 O   0  0  0  0  0  0  0  0  0  0  0  0
   21.8023  -20.0346  -14.9986 C   0  0  0  0  0  0  0  0  0  0  0  0
   21.5028  -20.3051  -13.5273 C   0  0  2  0  0  0  0  0  0  0  0  0
   22.6675  -20.9597  -12.9828 N   0  0  0  0  0  0  0  0  0  0  0  0
   20.2974  -21.1652  -13.4871 C   0  0  0  0  0  0  0  0  0  0  0  0
   19.1156  -20.5632  -13.0740 O   0  0  0  0  0  0  0  0  0  0  0  0
   20.3149  -22.3863  -13.8065 O   0  0  0  0  0  0  0  0  0  0  0  0
  2  3  1  1
  2  1  1  0
  4  2  1  0
  4  5  1  6
  6  8  1  0
  6  4  1  0
  7  6  2  0
  8 12  1  0
  9 10  1  0
  9  8  1  0
 10 11  1  0
 11 12  1  0
 12 13  1  1
 13 18  1  0
 14 13  2  0
 16 15  1  0
 17 19  1  0
 17 16  1  6
 18 17  1  0
 19 20  1  0
 21 19  2  0
M  END
$$$$
