HML.pdb
     RDKit          3D

 27 27  0  0  1  0  0  0  0  0999 V2000
   28.1508  -21.3514  -15.5878 N   0  0  0  0  0  0  0  0  0  0  0  0
   27.5269  -20.4501  -14.6710 C   0  0  1  0  0  0  0  0  0  0  0  0
   26.7750  -19.3811  -15.4422 C   0  0  0  0  0  0  0  0  0  0  0  0
   27.6947  -18.5831  -16.2845 C   0  0  0  0  0  0  0  0  0  0  0  0
   28.6837  -17.7494  -15.8601 C   0  0  0  0  0  0  0  0  0  0  0  0
   29.2533  -17.2491  -16.9696 N   0  0  0  0  0  0  0  0  0  0  0  0
   28.6427  -17.7515  -18.0643 C   0  0  0  0  0  0  0  0  0  0  0  0
   27.6768  -18.5782  -17.6258 N   0  0  0  0  0  0  0  0  0  0  0  0
   26.6670  -21.1172  -13.6709 C   0  0  0  0  0  0  0  0  0  0  0  0
   25.8431  -21.9659  -14.0531 O   0  0  0  0  0  0  0  0  0  0  0  0
   26.4063  -19.3815   -7.1343 C   0  0  0  0  0  0  0  0  0  0  0  0
   25.5853  -21.0145   -7.2265 S   0  0  0  0  0  0  0  0  0  0  0  0
   25.0522  -21.2487   -8.9290 C   0  0  0  0  0  0  0  0  0  0  0  0
   26.1062  -20.8811   -9.9201 C   0  0  0  0  0  0  0  0  0  0  0  0
   25.7208  -21.0883  -11.3419 C   0  0  2  0  0  0  0  0  0  0  0  0
   26.7615  -20.8083  -12.2849 N   0  0  0  0  0  0  0  0  0  0  0  0
   24.4398  -20.3988  -11.6719 C   0  0  0  0  0  0  0  0  0  0  0  0
   24.3097  -19.1516  -11.7448 O   0  0  0  0  0  0  0  0  0  0  0  0
   21.5283  -21.5945  -15.9340 C   0  0  0  0  0  0  0  0  0  0  0  0
   21.7189  -21.7286  -14.4323 C   0  0  1  0  0  0  0  0  0  0  0  0
   22.9290  -22.6402  -14.2678 C   0  0  0  0  0  0  0  0  0  0  0  0
   21.9525  -20.3932  -13.7859 C   0  0  0  0  0  0  0  0  0  0  0  0
   22.0398  -20.5560  -12.2957 C   0  0  2  0  0  0  0  0  0  0  0  0
   23.2979  -21.1911  -11.9207 N   0  0  0  0  0  0  0  0  0  0  0  0
   20.9597  -21.3181  -11.6938 C   0  0  0  0  0  0  0  0  0  0  0  0
   21.2353  -22.4115  -11.0831 O   0  0  0  0  0  0  0  0  0  0  0  0
   19.6254  -20.9817  -11.7080 O   0  0  0  0  0  0  0  0  0  0  0  0
  2  9  1  0
  2  3  1  0
  2  1  1  6
  3  4  1  0
  4  5  2  0
  4  8  1  0
  5  6  1  0
  6  7  1  0
  8  7  2  0
  9 10  2  0
 11 12  1  0
 13 12  1  0
 14 13  1  0
 15 14  1  1
 15 17  1  0
 16 15  1  0
 16  9  1  0
 17 24  1  0
 17 18  2  0
 20 19  1  6
 20 21  1  0
 22 20  1  0
 23 22  1  6
 24 23  1  0
 25 27  1  0
 25 23  1  0
 26 25  2  0
M  END
$$$$
