HML.pdb
     RDKit          3D

 27 27  0  0  1  0  0  0  0  0999 V2000
   15.3996  -11.8337  -14.7941 N   0  0  0  0  0  0  0  0  0  0  0  0
   16.4199  -11.0312  -14.1967 C   0  0  1  0  0  0  0  0  0  0  0  0
   17.5335  -10.7957  -15.2003 C   0  0  0  0  0  0  0  0  0  0  0  0
   18.1793  -12.0695  -15.5908 C   0  0  0  0  0  0  0  0  0  0  0  0
   19.2373  -12.6746  -14.9845 C   0  0  0  0  0  0  0  0  0  0  0  0
   19.4722  -13.8012  -15.6784 N   0  0  0  0  0  0  0  0  0  0  0  0
   18.5887  -13.9061  -16.6942 C   0  0  0  0  0  0  0  0  0  0  0  0
   17.7915  -12.8249  -16.6292 N   0  0  0  0  0  0  0  0  0  0  0  0
   15.9212   -9.7658  -13.6184 C   0  0  0  0  0  0  0  0  0  0  0  0
   15.0703   -9.1101  -14.2438 O   0  0  0  0  0  0  0  0  0  0  0  0
   14.6876   -5.3170   -7.2546 C   0  0  0  0  0  0  0  0  0  0  0  0
   15.2766   -6.9392   -7.8635 S   0  0  0  0  0  0  0  0  0  0  0  0
   15.3938   -6.8264   -9.6554 C   0  0  0  0  0  0  0  0  0  0  0  0
   15.8946   -8.0854  -10.2819 C   0  0  0  0  0  0  0  0  0  0  0  0
   15.9411   -8.0633  -11.7686 C   0  0  2  0  0  0  0  0  0  0  0  0
   16.3940   -9.2836  -12.3656 N   0  0  0  0  0  0  0  0  0  0  0  0
   16.6672   -6.8645  -12.2796 C   0  0  0  0  0  0  0  0  0  0  0  0
   17.9155   -6.7958  -12.4006 O   0  0  0  0  0  0  0  0  0  0  0  0
   18.3112   -3.4815  -15.8479 C   0  0  0  0  0  0  0  0  0  0  0  0
   16.9440   -3.2166  -15.2397 C   0  0  1  0  0  0  0  0  0  0  0  0
   16.1093   -2.6443  -16.3791 C   0  0  0  0  0  0  0  0  0  0  0  0
   16.3307   -4.4748  -14.6954 C   0  0  0  0  0  0  0  0  0  0  0  0
   16.5786   -4.5652  -13.2172 C   0  0  2  0  0  0  0  0  0  0  0  0
   15.9104   -5.7329  -12.6542 N   0  0  0  0  0  0  0  0  0  0  0  0
   16.1656   -3.4031  -12.4500 C   0  0  0  0  0  0  0  0  0  0  0  0
   15.0785   -3.4597  -11.7722 O   0  0  0  0  0  0  0  0  0  0  0  0
   16.8387   -2.2056  -12.3684 O   0  0  0  0  0  0  0  0  0  0  0  0
  2  9  1  0
  2  3  1  0
  2  1  1  6
  3  4  1  0
  4  5  2  0
  4  8  1  0
  5  6  1  0
  6  7  1  0
  8  7  2  0
  9 10  2  0
 11 12  1  0
 13 12  1  0
 14 13  1  0
 15 14  1  1
 15 17  1  0
 16 15  1  0
 16  9  1  0
 17 24  1  0
 17 18  2  0
 20 19  1  6
 20 21  1  0
 22 20  1  0
 23 22  1  6
 24 23  1  0
 25 27  1  0
 25 23  1  0
 26 25  2  0
M  END
$$$$
