HWP.pdb
     RDKit          3D

 32 35  0  0  1  0  0  0  0  0999 V2000
   27.2631  -16.9423  -14.3305 N   0  0  0  0  0  0  0  0  0  0  0  0
   25.9718  -17.5772  -14.1368 C   0  0  1  0  0  0  0  0  0  0  0  0
   25.0347  -17.2635  -15.2568 C   0  0  0  0  0  0  0  0  0  0  0  0
   24.6224  -15.8386  -15.1780 C   0  0  0  0  0  0  0  0  0  0  0  0
   23.6065  -15.3250  -14.4197 C   0  0  0  0  0  0  0  0  0  0  0  0
   23.5872  -13.9988  -14.6532 N   0  0  0  0  0  0  0  0  0  0  0  0
   24.5732  -13.7115  -15.5370 C   0  0  0  0  0  0  0  0  0  0  0  0
   25.2015  -14.8520  -15.8511 N   0  0  0  0  0  0  0  0  0  0  0  0
   26.1877  -19.0525  -14.1057 C   0  0  0  0  0  0  0  0  0  0  0  0
   27.1306  -19.5908  -14.7732 O   0  0  0  0  0  0  0  0  0  0  0  0
   25.3807  -19.9296  -13.3525 N   0  0  0  0  0  0  0  0  0  0  0  0
   25.7241  -21.3810  -13.2773 C   0  0  1  0  0  0  0  0  0  0  0  0
   25.3408  -21.7154  -11.8511 C   0  0  0  0  0  0  0  0  0  0  0  0
   26.0767  -21.1152  -10.7767 C   0  0  0  0  0  0  0  0  0  0  0  0
   25.6104  -20.3717   -9.6997 C   0  0  0  0  0  0  0  0  0  0  0  0
   26.6357  -19.9899   -8.9253 N   0  0  0  0  0  0  0  0  0  0  0  0
   27.7674  -20.4634   -9.4652 C   0  0  0  0  0  0  0  0  0  0  0  0
   29.0966  -20.3772   -9.0993 C   0  0  0  0  0  0  0  0  0  0  0  0
   30.0897  -20.9685   -9.8482 C   0  0  0  0  0  0  0  0  0  0  0  0
   29.7820  -21.6583  -10.9770 C   0  0  0  0  0  0  0  0  0  0  0  0
   28.4635  -21.7511  -11.3512 C   0  0  0  0  0  0  0  0  0  0  0  0
   27.4478  -21.1552  -10.5991 C   0  0  0  0  0  0  0  0  0  0  0  0
   24.7450  -22.0258  -14.2122 C   0  0  0  0  0  0  0  0  0  0  0  0
   23.5244  -21.7237  -14.0723 O   0  0  0  0  0  0  0  0  0  0  0  0
   25.2108  -22.9182  -15.1861 N   0  0  0  0  0  0  0  0  0  0  0  0
   26.5928  -22.9007  -15.7180 C   0  0  0  0  0  0  0  0  0  0  0  0
   26.9343  -24.3620  -15.9011 C   0  0  0  0  0  0  0  0  0  0  0  0
   25.6264  -25.0935  -15.6917 C   0  0  0  0  0  0  0  0  0  0  0  0
   24.6272  -23.9571  -15.9858 C   0  0  1  0  0  0  0  0  0  0  0  0
   23.2644  -24.3499  -15.7594 C   0  0  0  0  0  0  0  0  0  0  0  0
   22.6654  -25.1472  -16.7729 O   0  0  0  0  0  0  0  0  0  0  0  0
   22.5195  -24.1020  -14.8117 O   0  0  0  0  0  0  0  0  0  0  0  0
  2  1  1  6
  2  3  1  0
  3  4  1  0
  4  8  1  0
  5  4  2  0
  5  6  1  0
  6  7  1  0
  8  7  2  0
  9 10  2  0
  9  2  1  0
 11  9  1  0
 12 11  1  0
 12 13  1  1
 13 14  1  0
 14 15  2  0
 14 22  1  0
 15 16  1  0
 16 17  1  0
 17 18  2  0
 19 18  1  0
 20 19  2  0
 21 22  2  0
 21 20  1  0
 22 17  1  0
 23 12  1  0
 24 23  2  0
 25 29  1  0
 25 23  1  0
 26 25  1  0
 27 28  1  0
 27 26  1  0
 28 29  1  0
 29 30  1  1
 30 32  2  0
 30 31  1  0
M  END
$$$$
