HWP.pdb
     RDKit          3D

 32 35  0  0  1  0  0  0  0  0999 V2000
   25.4551  -20.8468  -13.9972 N   0  0  0  0  0  0  0  0  0  0  0  0
   24.6574  -20.3477  -12.8914 C   0  0  1  0  0  0  0  0  0  0  0  0
   23.2304  -20.7721  -13.0114 C   0  0  0  0  0  0  0  0  0  0  0  0
   22.5680  -19.9956  -14.0906 C   0  0  0  0  0  0  0  0  0  0  0  0
   21.8895  -18.8166  -13.9475 C   0  0  0  0  0  0  0  0  0  0  0  0
   21.4578  -18.4717  -15.1757 N   0  0  0  0  0  0  0  0  0  0  0  0
   21.8663  -19.4235  -16.0492 C   0  0  0  0  0  0  0  0  0  0  0  0
   22.5477  -20.3543  -15.3684 N   0  0  0  0  0  0  0  0  0  0  0  0
   25.2126  -20.9213  -11.6317 C   0  0  0  0  0  0  0  0  0  0  0  0
   25.4495  -22.1693  -11.5287 O   0  0  0  0  0  0  0  0  0  0  0  0
   25.5056  -20.1379  -10.4966 N   0  0  0  0  0  0  0  0  0  0  0  0
   26.1015  -20.7740   -9.2841 C   0  0  1  0  0  0  0  0  0  0  0  0
   27.2099  -19.8018   -8.9387 C   0  0  0  0  0  0  0  0  0  0  0  0
   28.1803  -20.1791   -7.9527 C   0  0  0  0  0  0  0  0  0  0  0  0
   29.1166  -21.2048   -7.9883 C   0  0  0  0  0  0  0  0  0  0  0  0
   29.8298  -21.2171   -6.8535 N   0  0  0  0  0  0  0  0  0  0  0  0
   29.3868  -20.2241   -6.0697 C   0  0  0  0  0  0  0  0  0  0  0  0
   29.7486  -19.7801   -4.8128 C   0  0  0  0  0  0  0  0  0  0  0  0
   29.1172  -18.7109   -4.2171 C   0  0  0  0  0  0  0  0  0  0  0  0
   28.1125  -18.0603   -4.8589 C   0  0  0  0  0  0  0  0  0  0  0  0
   27.7437  -18.4926   -6.1097 C   0  0  0  0  0  0  0  0  0  0  0  0
   28.3773  -19.5762   -6.7235 C   0  0  0  0  0  0  0  0  0  0  0  0
   25.0153  -20.6644   -8.2562 C   0  0  0  0  0  0  0  0  0  0  0  0
   24.4496  -19.5400   -8.1278 O   0  0  0  0  0  0  0  0  0  0  0  0
   24.6744  -21.7893   -7.4946 N   0  0  0  0  0  0  0  0  0  0  0  0
   25.1038  -23.1662   -7.8312 C   0  0  0  0  0  0  0  0  0  0  0  0
   25.3853  -23.8016   -6.4885 C   0  0  0  0  0  0  0  0  0  0  0  0
   24.8554  -22.8117   -5.4741 C   0  0  0  0  0  0  0  0  0  0  0  0
   23.8486  -22.0373   -6.3475 C   0  0  1  0  0  0  0  0  0  0  0  0
   23.2487  -20.9346   -5.6498 C   0  0  0  0  0  0  0  0  0  0  0  0
   24.1251  -19.8806   -5.2720 O   0  0  0  0  0  0  0  0  0  0  0  0
   22.0768  -20.7533   -5.3210 O   0  0  0  0  0  0  0  0  0  0  0  0
  2  1  1  6
  2  3  1  0
  3  4  1  0
  4  8  1  0
  5  4  2  0
  5  6  1  0
  6  7  1  0
  8  7  2  0
  9 10  2  0
  9  2  1  0
 11  9  1  0
 12 11  1  0
 12 13  1  1
 13 14  1  0
 14 15  2  0
 14 22  1  0
 15 16  1  0
 16 17  1  0
 17 18  2  0
 19 18  1  0
 20 19  2  0
 21 22  2  0
 21 20  1  0
 22 17  1  0
 23 12  1  0
 24 23  2  0
 25 29  1  0
 25 23  1  0
 26 25  1  0
 27 28  1  0
 27 26  1  0
 28 29  1  0
 29 30  1  1
 30 32  2  0
 30 31  1  0
M  END
$$$$
