HWP.pdb
     RDKit          3D

 32 35  0  0  1  0  0  0  0  0999 V2000
   21.3709  -19.3739  -13.0768 N   0  0  0  0  0  0  0  0  0  0  0  0
   22.1820  -20.4284  -13.6584 C   0  0  1  0  0  0  0  0  0  0  0  0
   21.9828  -20.5197  -15.1358 C   0  0  0  0  0  0  0  0  0  0  0  0
   20.6963  -21.2039  -15.4244 C   0  0  0  0  0  0  0  0  0  0  0  0
   20.5304  -22.5193  -15.7607 C   0  0  0  0  0  0  0  0  0  0  0  0
   19.2078  -22.7069  -15.9317 N   0  0  0  0  0  0  0  0  0  0  0  0
   18.5813  -21.5274  -15.7034 C   0  0  0  0  0  0  0  0  0  0  0  0
   19.5086  -20.6122  -15.3925 N   0  0  0  0  0  0  0  0  0  0  0  0
   23.6134  -20.1005  -13.3979 C   0  0  0  0  0  0  0  0  0  0  0  0
   24.0628  -18.9246  -13.5965 O   0  0  0  0  0  0  0  0  0  0  0  0
   24.5433  -21.0491  -12.9251 N   0  0  0  0  0  0  0  0  0  0  0  0
   25.9698  -20.6579  -12.7199 C   0  0  1  0  0  0  0  0  0  0  0  0
   26.3473  -21.4898  -11.5123 C   0  0  0  0  0  0  0  0  0  0  0  0
   26.0103  -21.0065  -10.2050 C   0  0  0  0  0  0  0  0  0  0  0  0
   24.7583  -20.7732   -9.6499 C   0  0  0  0  0  0  0  0  0  0  0  0
   24.8881  -20.3149   -8.3969 N   0  0  0  0  0  0  0  0  0  0  0  0
   26.1957  -20.2401   -8.1117 C   0  0  0  0  0  0  0  0  0  0  0  0
   26.8962  -19.8427   -6.9896 C   0  0  0  0  0  0  0  0  0  0  0  0
   28.2730  -19.8615   -6.9557 C   0  0  0  0  0  0  0  0  0  0  0  0
   28.9822  -20.2761   -8.0372 C   0  0  0  0  0  0  0  0  0  0  0  0
   28.2966  -20.6739   -9.1592 C   0  0  0  0  0  0  0  0  0  0  0  0
   26.9002  -20.6589   -9.2047 C   0  0  0  0  0  0  0  0  0  0  0  0
   26.6653  -21.2064  -13.9299 C   0  0  0  0  0  0  0  0  0  0  0  0
   26.6557  -22.4619  -14.0850 O   0  0  0  0  0  0  0  0  0  0  0  0
   27.2846  -20.3246  -14.8247 N   0  0  0  0  0  0  0  0  0  0  0  0
   27.0553  -18.8614  -14.8225 C   0  0  0  0  0  0  0  0  0  0  0  0
   28.4124  -18.2765  -15.1413 C   0  0  0  0  0  0  0  0  0  0  0  0
   29.2593  -19.4635  -15.5457 C   0  0  0  0  0  0  0  0  0  0  0  0
   28.1564  -20.4592  -15.9566 C   0  0  1  0  0  0  0  0  0  0  0  0
   28.6814  -21.7506  -16.3018 C   0  0  0  0  0  0  0  0  0  0  0  0
   28.2878  -22.2696  -17.5657 O   0  0  0  0  0  0  0  0  0  0  0  0
   29.4305  -22.4926  -15.6672 O   0  0  0  0  0  0  0  0  0  0  0  0
  2  1  1  6
  2  3  1  0
  3  4  1  0
  4  8  1  0
  5  4  2  0
  5  6  1  0
  6  7  1  0
  8  7  2  0
  9 10  2  0
  9  2  1  0
 11  9  1  0
 12 11  1  0
 12 13  1  1
 13 14  1  0
 14 15  2  0
 14 22  1  0
 15 16  1  0
 16 17  1  0
 17 18  2  0
 19 18  1  0
 20 19  2  0
 21 22  2  0
 21 20  1  0
 22 17  1  0
 23 12  1  0
 24 23  2  0
 25 29  1  0
 25 23  1  0
 26 25  1  0
 27 28  1  0
 27 26  1  0
 28 29  1  0
 29 30  1  1
 30 32  2  0
 30 31  1  0
M  END
$$$$
