HWP.pdb
     RDKit          3D

 32 35  0  0  1  0  0  0  0  0999 V2000
   23.8797  -19.1665  -12.9992 N   0  0  0  0  0  0  0  0  0  0  0  0
   24.0376  -20.2413  -12.0358 C   0  0  1  0  0  0  0  0  0  0  0  0
   24.0603  -21.5765  -12.7049 C   0  0  0  0  0  0  0  0  0  0  0  0
   22.6894  -21.9340  -13.1514 C   0  0  0  0  0  0  0  0  0  0  0  0
   21.7621  -22.6481  -12.4436 C   0  0  0  0  0  0  0  0  0  0  0  0
   20.6682  -22.7350  -13.2244 N   0  0  0  0  0  0  0  0  0  0  0  0
   20.9257  -22.0855  -14.3853 C   0  0  0  0  0  0  0  0  0  0  0  0
   22.1720  -21.5981  -14.3267 N   0  0  0  0  0  0  0  0  0  0  0  0
   25.3419  -20.0437  -11.3400 C   0  0  0  0  0  0  0  0  0  0  0  0
   26.3406  -19.5401  -11.9509 O   0  0  0  0  0  0  0  0  0  0  0  0
   25.5513  -20.3932   -9.9902 N   0  0  0  0  0  0  0  0  0  0  0  0
   26.8510  -20.0718   -9.3289 C   0  0  1  0  0  0  0  0  0  0  0  0
   26.3988  -19.6584   -7.9441 C   0  0  0  0  0  0  0  0  0  0  0  0
   27.3368  -19.0127   -7.0727 C   0  0  0  0  0  0  0  0  0  0  0  0
   27.8737  -17.7338   -7.1519 C   0  0  0  0  0  0  0  0  0  0  0  0
   28.7223  -17.5267   -6.1352 N   0  0  0  0  0  0  0  0  0  0  0  0
   28.7585  -18.6382   -5.3868 C   0  0  0  0  0  0  0  0  0  0  0  0
   29.4472  -18.9826   -4.2401 C   0  0  0  0  0  0  0  0  0  0  0  0
   29.3020  -20.2220   -3.6575 C   0  0  0  0  0  0  0  0  0  0  0  0
   28.4687  -21.1454   -4.2029 C   0  0  0  0  0  0  0  0  0  0  0  0
   27.7780  -20.8145   -5.3435 C   0  0  0  0  0  0  0  0  0  0  0  0
   27.9177  -19.5602   -5.9430 C   0  0  0  0  0  0  0  0  0  0  0  0
   27.5428  -21.3994   -9.2428 C   0  0  0  0  0  0  0  0  0  0  0  0
   26.8667  -22.3789   -8.8137 O   0  0  0  0  0  0  0  0  0  0  0  0
   28.8835  -21.5019   -9.6350 N   0  0  0  0  0  0  0  0  0  0  0  0
   29.5673  -20.4980  -10.4823 C   0  0  0  0  0  0  0  0  0  0  0  0
   30.9647  -20.4250   -9.9099 C   0  0  0  0  0  0  0  0  0  0  0  0
   31.0426  -21.5779   -8.9330 C   0  0  0  0  0  0  0  0  0  0  0  0
   29.9220  -22.4809   -9.4855 C   0  0  1  0  0  0  0  0  0  0  0  0
   29.6959  -23.6401   -8.6683 C   0  0  0  0  0  0  0  0  0  0  0  0
   29.0845  -23.4074   -7.4059 O   0  0  0  0  0  0  0  0  0  0  0  0
   29.9517  -24.8232   -8.8902 O   0  0  0  0  0  0  0  0  0  0  0  0
  2  1  1  6
  2  3  1  0
  3  4  1  0
  4  8  1  0
  5  4  2  0
  5  6  1  0
  6  7  1  0
  8  7  2  0
  9 10  2  0
  9  2  1  0
 11  9  1  0
 12 11  1  0
 12 13  1  1
 13 14  1  0
 14 15  2  0
 14 22  1  0
 15 16  1  0
 16 17  1  0
 17 18  2  0
 19 18  1  0
 20 19  2  0
 21 22  2  0
 21 20  1  0
 22 17  1  0
 23 12  1  0
 24 23  2  0
 25 29  1  0
 25 23  1  0
 26 25  1  0
 27 28  1  0
 27 26  1  0
 28 29  1  0
 29 30  1  1
 30 32  2  0
 30 31  1  0
M  END
$$$$
