HWP.pdb
     RDKit          3D

 32 35  0  0  1  0  0  0  0  0999 V2000
   24.6213  -20.3262  -13.6081 N   0  0  0  0  0  0  0  0  0  0  0  0
   23.9295  -19.9027  -12.4038 C   0  0  1  0  0  0  0  0  0  0  0  0
   22.4941  -20.3149  -12.4241 C   0  0  0  0  0  0  0  0  0  0  0  0
   21.7625  -19.5245  -13.4471 C   0  0  0  0  0  0  0  0  0  0  0  0
   21.2150  -20.0006  -14.6066 C   0  0  0  0  0  0  0  0  0  0  0  0
   20.6534  -18.9451  -15.2264 N   0  0  0  0  0  0  0  0  0  0  0  0
   20.8555  -17.8477  -14.4578 C   0  0  0  0  0  0  0  0  0  0  0  0
   21.5387  -18.2187  -13.3670 N   0  0  0  0  0  0  0  0  0  0  0  0
   24.5902  -20.5627  -11.2409 C   0  0  0  0  0  0  0  0  0  0  0  0
   24.8285  -21.8147  -11.2466 O   0  0  0  0  0  0  0  0  0  0  0  0
   24.9860  -19.8605  -10.0842 N   0  0  0  0  0  0  0  0  0  0  0  0
   25.6440  -20.5876   -8.9580 C   0  0  1  0  0  0  0  0  0  0  0  0
   26.7561  -19.6317   -8.5812 C   0  0  0  0  0  0  0  0  0  0  0  0
   27.8413  -20.1133   -7.7771 C   0  0  0  0  0  0  0  0  0  0  0  0
   28.6174  -21.2540   -7.9402 C   0  0  0  0  0  0  0  0  0  0  0  0
   29.5263  -21.3370   -6.9585 N   0  0  0  0  0  0  0  0  0  0  0  0
   29.3689  -20.2785   -6.1514 C   0  0  0  0  0  0  0  0  0  0  0  0
   30.0161  -19.8605   -5.0050 C   0  0  0  0  0  0  0  0  0  0  0  0
   29.6489  -18.7055   -4.3509 C   0  0  0  0  0  0  0  0  0  0  0  0
   28.6302  -17.9415   -4.8231 C   0  0  0  0  0  0  0  0  0  0  0  0
   27.9788  -18.3468   -5.9627 C   0  0  0  0  0  0  0  0  0  0  0  0
   28.3428  -19.5167   -6.6344 C   0  0  0  0  0  0  0  0  0  0  0  0
   24.6049  -20.5815   -7.8769 C   0  0  0  0  0  0  0  0  0  0  0  0
   24.0842  -19.4675   -7.5794 O   0  0  0  0  0  0  0  0  0  0  0  0
   24.2567  -21.7858   -7.2522 N   0  0  0  0  0  0  0  0  0  0  0  0
   24.5077  -23.1187   -7.8470 C   0  0  0  0  0  0  0  0  0  0  0  0
   24.8933  -23.9809   -6.6665 C   0  0  0  0  0  0  0  0  0  0  0  0
   24.5911  -23.1303   -5.4520 C   0  0  0  0  0  0  0  0  0  0  0  0
   23.5611  -22.1528   -6.0519 C   0  0  1  0  0  0  0  0  0  0  0  0
   23.1609  -21.1351   -5.1209 C   0  0  0  0  0  0  0  0  0  0  0  0
   21.7872  -21.1268   -4.7538 O   0  0  0  0  0  0  0  0  0  0  0  0
   23.8287  -20.2536   -4.5811 O   0  0  0  0  0  0  0  0  0  0  0  0
  2  1  1  6
  2  3  1  0
  3  4  1  0
  4  8  1  0
  5  4  2  0
  5  6  1  0
  6  7  1  0
  8  7  2  0
  9 10  2  0
  9  2  1  0
 11  9  1  0
 12 11  1  0
 12 13  1  1
 13 14  1  0
 14 15  2  0
 14 22  1  0
 15 16  1  0
 16 17  1  0
 17 18  2  0
 19 18  1  0
 20 19  2  0
 21 22  2  0
 21 20  1  0
 22 17  1  0
 23 12  1  0
 24 23  2  0
 25 29  1  0
 25 23  1  0
 26 25  1  0
 27 28  1  0
 27 26  1  0
 28 29  1  0
 29 30  1  1
 30 32  2  0
 30 31  1  0
M  END
$$$$
