HWP.pdb
     RDKit          3D

 32 35  0  0  1  0  0  0  0  0999 V2000
   22.0602  -20.2472  -11.9949 N   0  0  0  0  0  0  0  0  0  0  0  0
   23.2117  -21.0828  -12.2851 C   0  0  1  0  0  0  0  0  0  0  0  0
   23.4791  -21.1549  -13.7527 C   0  0  0  0  0  0  0  0  0  0  0  0
   22.3501  -21.8404  -14.4325 C   0  0  0  0  0  0  0  0  0  0  0  0
   22.0156  -23.1622  -14.3247 C   0  0  0  0  0  0  0  0  0  0  0  0
   20.9343  -23.3486  -15.1056 N   0  0  0  0  0  0  0  0  0  0  0  0
   20.6173  -22.1618  -15.6775 C   0  0  0  0  0  0  0  0  0  0  0  0
   21.4961  -21.2435  -15.2548 N   0  0  0  0  0  0  0  0  0  0  0  0
   24.3992  -20.4711  -11.6218 C   0  0  0  0  0  0  0  0  0  0  0  0
   24.8420  -19.3342  -11.9900 O   0  0  0  0  0  0  0  0  0  0  0  0
   25.0949  -21.0966  -10.5670 N   0  0  0  0  0  0  0  0  0  0  0  0
   26.2855  -20.4307   -9.9596 C   0  0  1  0  0  0  0  0  0  0  0  0
   25.8659  -20.3108   -8.5096 C   0  0  0  0  0  0  0  0  0  0  0  0
   26.6324  -19.4737   -7.6332 C   0  0  0  0  0  0  0  0  0  0  0  0
   26.8438  -18.1018   -7.6904 C   0  0  0  0  0  0  0  0  0  0  0  0
   27.6313  -17.7145   -6.6771 N   0  0  0  0  0  0  0  0  0  0  0  0
   27.9447  -18.7978   -5.9527 C   0  0  0  0  0  0  0  0  0  0  0  0
   28.7118  -18.9865   -4.8196 C   0  0  0  0  0  0  0  0  0  0  0  0
   28.8779  -20.2348   -4.2618 C   0  0  0  0  0  0  0  0  0  0  0  0
   28.2844  -21.3219   -4.8190 C   0  0  0  0  0  0  0  0  0  0  0  0
   27.5188  -21.1468   -5.9461 C   0  0  0  0  0  0  0  0  0  0  0  0
   27.3435  -19.8852   -6.5205 C   0  0  0  0  0  0  0  0  0  0  0  0
   27.3661  -21.4641  -10.0734 C   0  0  0  0  0  0  0  0  0  0  0  0
   27.1636  -22.5793   -9.5113 O   0  0  0  0  0  0  0  0  0  0  0  0
   28.5337  -21.1613  -10.7852 N   0  0  0  0  0  0  0  0  0  0  0  0
   28.5844  -20.1833  -11.8963 C   0  0  0  0  0  0  0  0  0  0  0  0
   29.9195  -19.4962  -11.7200 C   0  0  0  0  0  0  0  0  0  0  0  0
   30.6365  -20.3100  -10.6649 C   0  0  0  0  0  0  0  0  0  0  0  0
   29.8833  -21.6490  -10.7935 C   0  0  1  0  0  0  0  0  0  0  0  0
   30.2992  -22.6110   -9.8116 C   0  0  0  0  0  0  0  0  0  0  0  0
   30.9662  -23.7646  -10.3078 O   0  0  0  0  0  0  0  0  0  0  0  0
   30.1679  -22.5961   -8.5881 O   0  0  0  0  0  0  0  0  0  0  0  0
  2  1  1  6
  2  3  1  0
  3  4  1  0
  4  8  1  0
  5  4  2  0
  5  6  1  0
  6  7  1  0
  8  7  2  0
  9 10  2  0
  9  2  1  0
 11  9  1  0
 12 11  1  0
 12 13  1  1
 13 14  1  0
 14 15  2  0
 14 22  1  0
 15 16  1  0
 16 17  1  0
 17 18  2  0
 19 18  1  0
 20 19  2  0
 21 22  2  0
 21 20  1  0
 22 17  1  0
 23 12  1  0
 24 23  2  0
 25 29  1  0
 25 23  1  0
 26 25  1  0
 27 28  1  0
 27 26  1  0
 28 29  1  0
 29 30  1  1
 30 32  2  0
 30 31  1  0
M  END
$$$$
