HWP.pdb
     RDKit          3D

 32 35  0  0  1  0  0  0  0  0999 V2000
   28.4513  -22.4240  -16.2102 N   0  0  0  0  0  0  0  0  0  0  0  0
   27.6497  -21.2585  -15.8823 C   0  0  1  0  0  0  0  0  0  0  0  0
   26.7243  -20.8997  -16.9984 C   0  0  0  0  0  0  0  0  0  0  0  0
   27.5059  -20.3599  -18.1405 C   0  0  0  0  0  0  0  0  0  0  0  0
   28.1051  -19.1323  -18.2101 C   0  0  0  0  0  0  0  0  0  0  0  0
   28.6991  -19.0640  -19.4169 N   0  0  0  0  0  0  0  0  0  0  0  0
   28.4653  -20.2287  -20.0687 C   0  0  0  0  0  0  0  0  0  0  0  0
   27.7305  -21.0160  -19.2722 N   0  0  0  0  0  0  0  0  0  0  0  0
   26.8295  -21.5908  -14.6819 C   0  0  0  0  0  0  0  0  0  0  0  0
   26.5627  -22.8013  -14.3853 O   0  0  0  0  0  0  0  0  0  0  0  0
   26.3067  -20.6094  -13.8151 N   0  0  0  0  0  0  0  0  0  0  0  0
   25.6055  -21.0176  -12.5615 C   0  0  1  0  0  0  0  0  0  0  0  0
   26.2304  -20.0888  -11.5418 C   0  0  0  0  0  0  0  0  0  0  0  0
   27.3162  -20.5710  -10.7388 C   0  0  0  0  0  0  0  0  0  0  0  0
   28.4677  -21.2428  -11.1295 C   0  0  0  0  0  0  0  0  0  0  0  0
   29.2249  -21.5202  -10.0588 N   0  0  0  0  0  0  0  0  0  0  0  0
   28.6008  -21.0477   -8.9707 C   0  0  0  0  0  0  0  0  0  0  0  0
   28.9147  -21.0517   -7.6256 C   0  0  0  0  0  0  0  0  0  0  0  0
   28.0793  -20.4842   -6.6893 C   0  0  0  0  0  0  0  0  0  0  0  0
   26.9139  -19.9004   -7.0709 C   0  0  0  0  0  0  0  0  0  0  0  0
   26.5907  -19.8901   -8.4061 C   0  0  0  0  0  0  0  0  0  0  0  0
   27.4307  -20.4628   -9.3646 C   0  0  0  0  0  0  0  0  0  0  0  0
   24.1846  -20.6010  -12.7983 C   0  0  0  0  0  0  0  0  0  0  0  0
   23.8122  -19.5000  -12.2986 O   0  0  0  0  0  0  0  0  0  0  0  0
   23.3422  -21.4296  -13.5502 N   0  0  0  0  0  0  0  0  0  0  0  0
   23.8360  -22.4758  -14.4749 C   0  0  0  0  0  0  0  0  0  0  0  0
   22.8518  -23.6107  -14.3046 C   0  0  0  0  0  0  0  0  0  0  0  0
   21.7282  -23.0266  -13.4762 C   0  0  0  0  0  0  0  0  0  0  0  0
   21.9267  -21.5255  -13.7658 C   0  0  1  0  0  0  0  0  0  0  0  0
   21.0328  -20.6957  -13.0075 C   0  0  0  0  0  0  0  0  0  0  0  0
   21.3771  -20.4861  -11.6440 O   0  0  0  0  0  0  0  0  0  0  0  0
   19.9982  -20.1274  -13.3557 O   0  0  0  0  0  0  0  0  0  0  0  0
  2  1  1  6
  2  3  1  0
  3  4  1  0
  4  8  1  0
  5  4  2  0
  5  6  1  0
  6  7  1  0
  8  7  2  0
  9 10  2  0
  9  2  1  0
 11  9  1  0
 12 11  1  0
 12 13  1  1
 13 14  1  0
 14 15  2  0
 14 22  1  0
 15 16  1  0
 16 17  1  0
 17 18  2  0
 19 18  1  0
 20 19  2  0
 21 22  2  0
 21 20  1  0
 22 17  1  0
 23 12  1  0
 24 23  2  0
 25 29  1  0
 25 23  1  0
 26 25  1  0
 27 28  1  0
 27 26  1  0
 28 29  1  0
 29 30  1  1
 30 32  2  0
 30 31  1  0
M  END
$$$$
