HWP.pdb
     RDKit          3D

 32 35  0  0  1  0  0  0  0  0999 V2000
   26.9874  -16.8462  -18.2942 N   0  0  0  0  0  0  0  0  0  0  0  0
   26.1315  -16.7252  -17.1276 C   0  0  1  0  0  0  0  0  0  0  0  0
   24.7011  -16.5403  -17.5155 C   0  0  0  0  0  0  0  0  0  0  0  0
   24.5108  -15.1828  -18.0876 C   0  0  0  0  0  0  0  0  0  0  0  0
   23.4980  -14.7816  -18.9147 C   0  0  0  0  0  0  0  0  0  0  0  0
   23.7178  -13.4810  -19.1862 N   0  0  0  0  0  0  0  0  0  0  0  0
   24.8434  -13.0985  -18.5361 C   0  0  0  0  0  0  0  0  0  0  0  0
   25.3204  -14.1548  -17.8647 N   0  0  0  0  0  0  0  0  0  0  0  0
   26.2451  -17.9893  -16.3442 C   0  0  0  0  0  0  0  0  0  0  0  0
   26.0965  -19.1236  -16.9059 O   0  0  0  0  0  0  0  0  0  0  0  0
   26.5181  -18.0121  -14.9612 N   0  0  0  0  0  0  0  0  0  0  0  0
   26.5962  -19.3157  -14.2371 C   0  0  1  0  0  0  0  0  0  0  0  0
   27.4071  -18.9416  -13.0143 C   0  0  0  0  0  0  0  0  0  0  0  0
   27.7635  -19.9679  -12.0784 C   0  0  0  0  0  0  0  0  0  0  0  0
   28.6084  -21.0575  -12.2482 C   0  0  0  0  0  0  0  0  0  0  0  0
   28.6622  -21.7790  -11.1198 N   0  0  0  0  0  0  0  0  0  0  0  0
   27.8731  -21.1918  -10.2093 C   0  0  0  0  0  0  0  0  0  0  0  0
   27.5546  -21.4948   -8.8998 C   0  0  0  0  0  0  0  0  0  0  0  0
   26.6945  -20.7073   -8.1670 C   0  0  0  0  0  0  0  0  0  0  0  0
   26.1331  -19.6017   -8.7209 C   0  0  0  0  0  0  0  0  0  0  0  0
   26.4423  -19.2898  -10.0226 C   0  0  0  0  0  0  0  0  0  0  0  0
   27.3134  -20.0816  -10.7754 C   0  0  0  0  0  0  0  0  0  0  0  0
   25.1786  -19.5773  -13.8241 C   0  0  0  0  0  0  0  0  0  0  0  0
   24.5373  -18.6152  -13.3106 O   0  0  0  0  0  0  0  0  0  0  0  0
   24.6298  -20.8508  -14.0208 N   0  0  0  0  0  0  0  0  0  0  0  0
   25.1544  -21.8248  -15.0055 C   0  0  0  0  0  0  0  0  0  0  0  0
   25.0142  -23.1605  -14.3114 C   0  0  0  0  0  0  0  0  0  0  0  0
   24.1887  -22.8695  -13.0770 C   0  0  0  0  0  0  0  0  0  0  0  0
   23.4930  -21.5652  -13.5143 C   0  0  1  0  0  0  0  0  0  0  0  0
   22.6974  -20.9879  -12.4672 C   0  0  0  0  0  0  0  0  0  0  0  0
   23.4046  -20.5373  -11.3188 O   0  0  0  0  0  0  0  0  0  0  0  0
   21.4802  -20.8181  -12.4042 O   0  0  0  0  0  0  0  0  0  0  0  0
  2  1  1  6
  2  3  1  0
  3  4  1  0
  4  8  1  0
  5  4  2  0
  5  6  1  0
  6  7  1  0
  8  7  2  0
  9 10  2  0
  9  2  1  0
 11  9  1  0
 12 11  1  0
 12 13  1  1
 13 14  1  0
 14 15  2  0
 14 22  1  0
 15 16  1  0
 16 17  1  0
 17 18  2  0
 19 18  1  0
 20 19  2  0
 21 22  2  0
 21 20  1  0
 22 17  1  0
 23 12  1  0
 24 23  2  0
 25 29  1  0
 25 23  1  0
 26 25  1  0
 27 28  1  0
 27 26  1  0
 28 29  1  0
 29 30  1  1
 30 32  2  0
 30 31  1  0
M  END
$$$$
