PAY.pdb
     RDKit          3D

 25 26  0  0  1  0  0  0  0  0999 V2000
   28.6640  -22.0519  -18.6273 N   0  0  0  0  0  0  0  0  0  0  0  0
   29.0804  -23.4234  -18.6099 C   0  0  0  0  0  0  0  0  0  0  0  0
   27.7694  -24.1736  -18.6330 C   0  0  0  0  0  0  0  0  0  0  0  0
   26.8081  -23.2972  -17.8689 C   0  0  0  0  0  0  0  0  0  0  0  0
   27.4832  -21.9403  -17.8417 C   0  0  1  0  0  0  0  0  0  0  0  0
   27.6463  -21.4198  -16.4851 C   0  0  0  0  0  0  0  0  0  0  0  0
   28.0105  -22.2356  -15.5671 O   0  0  0  0  0  0  0  0  0  0  0  0
   27.6049  -18.2232  -14.4595 C   0  0  0  0  0  0  0  0  0  0  0  0
   27.4974  -19.7114  -14.6328 C   0  0  2  0  0  0  0  0  0  0  0  0
   27.4444  -20.0854  -16.0538 N   0  0  0  0  0  0  0  0  0  0  0  0
   26.3561  -20.2942  -13.8925 C   0  0  0  0  0  0  0  0  0  0  0  0
   25.2547  -20.3738  -14.4766 O   0  0  0  0  0  0  0  0  0  0  0  0
   28.1312  -18.5039   -6.9555 O   0  0  0  0  0  0  0  0  0  0  0  0
   27.5751  -19.4036   -7.8625 C   0  0  0  0  0  0  0  0  0  0  0  0
   28.3499  -20.1853   -8.6892 C   0  0  0  0  0  0  0  0  0  0  0  0
   27.7619  -21.0703   -9.5799 C   0  0  0  0  0  0  0  0  0  0  0  0
   26.3936  -21.2036   -9.6744 C   0  0  0  0  0  0  0  0  0  0  0  0
   25.7392  -22.1040  -10.6284 C   0  0  0  0  0  0  0  0  0  0  0  0
   25.3173  -21.3532  -11.8334 C   0  0  2  0  0  0  0  0  0  0  0  0
   26.4339  -20.7675  -12.5631 N   0  0  0  0  0  0  0  0  0  0  0  0
   24.2828  -20.3637  -11.5282 C   0  0  0  0  0  0  0  0  0  0  0  0
   24.6453  -19.1397  -11.5364 O   0  0  0  0  0  0  0  0  0  0  0  0
   25.6389  -20.4153   -8.8421 C   0  0  0  0  0  0  0  0  0  0  0  0
   26.2100  -19.5275   -7.9478 C   0  0  0  0  0  0  0  0  0  0  0  0
   22.9602  -20.6060  -11.2358 O   0  0  0  0  0  0  0  0  0  0  0  0
  1  5  1  0
  2  1  1  0
  3  2  1  0
  3  4  1  0
  4  5  1  0
  5  6  1  1
  6 10  1  0
  6  7  2  0
  9  8  1  6
  9 11  1  0
 10  9  1  0
 11 12  2  0
 13 14  1  0
 14 15  2  0
 15 16  1  0
 17 18  1  0
 17 16  2  0
 19 18  1  1
 19 21  1  0
 20 19  1  0
 20 11  1  0
 21 25  1  0
 22 21  2  0
 23 17  1  0
 24 23  2  0
 24 14  1  0
M  END
$$$$
