PAY.pdb
     RDKit          3D

 25 26  0  0  1  0  0  0  0  0999 V2000
   28.6901  -20.9593  -14.9012 N   0  0  0  0  0  0  0  0  0  0  0  0
   28.1106  -20.2517  -16.0050 C   0  0  0  0  0  0  0  0  0  0  0  0
   28.2398  -18.8067  -15.5836 C   0  0  0  0  0  0  0  0  0  0  0  0
   28.0968  -18.8269  -14.0819 C   0  0  0  0  0  0  0  0  0  0  0  0
   28.3356  -20.2756  -13.7051 C   0  0  1  0  0  0  0  0  0  0  0  0
   27.2351  -20.8438  -12.9278 C   0  0  0  0  0  0  0  0  0  0  0  0
   26.3799  -21.5746  -13.5406 O   0  0  0  0  0  0  0  0  0  0  0  0
   25.7894  -20.9432   -9.4177 C   0  0  0  0  0  0  0  0  0  0  0  0
   25.7520  -21.1382  -10.9066 C   0  0  2  0  0  0  0  0  0  0  0  0
   26.9960  -20.6782  -11.5412 N   0  0  0  0  0  0  0  0  0  0  0  0
   24.5734  -20.5045  -11.5387 C   0  0  0  0  0  0  0  0  0  0  0  0
   24.6378  -19.2885  -11.8178 O   0  0  0  0  0  0  0  0  0  0  0  0
   17.8841  -18.6051  -16.7551 O   0  0  0  0  0  0  0  0  0  0  0  0
   18.9797  -19.1285  -16.0717 C   0  0  0  0  0  0  0  0  0  0  0  0
   19.8974  -18.3259  -15.4324 C   0  0  0  0  0  0  0  0  0  0  0  0
   20.9759  -18.8817  -14.7616 C   0  0  0  0  0  0  0  0  0  0  0  0
   21.1730  -20.2444  -14.7068 C   0  0  0  0  0  0  0  0  0  0  0  0
   22.3205  -20.8628  -14.0358 C   0  0  0  0  0  0  0  0  0  0  0  0
   22.2605  -20.6050  -12.5785 C   0  0  2  0  0  0  0  0  0  0  0  0
   23.3766  -21.1900  -11.8474 N   0  0  0  0  0  0  0  0  0  0  0  0
   20.9691  -20.9895  -12.0067 C   0  0  0  0  0  0  0  0  0  0  0  0
   20.8396  -22.2121  -11.6632 O   0  0  0  0  0  0  0  0  0  0  0  0
   20.2476  -21.0271  -15.3505 C   0  0  0  0  0  0  0  0  0  0  0  0
   19.1658  -20.4884  -16.0241 C   0  0  0  0  0  0  0  0  0  0  0  0
   19.8783  -20.1778  -11.7951 O   0  0  0  0  0  0  0  0  0  0  0  0
  1  5  1  0
  2  1  1  0
  3  2  1  0
  3  4  1  0
  4  5  1  0
  5  6  1  6
  6 10  1  0
  6  7  2  0
  9  8  1  1
  9 11  1  0
 10  9  1  0
 11 12  2  0
 13 14  1  0
 14 15  2  0
 15 16  1  0
 17 18  1  0
 17 16  2  0
 19 18  1  6
 19 21  1  0
 20 19  1  0
 20 11  1  0
 21 25  1  0
 22 21  2  0
 23 17  1  0
 24 23  2  0
 24 14  1  0
M  END
$$$$
