PAY.pdb
     RDKit          3D

 25 26  0  0  1  0  0  0  0  0999 V2000
   18.1678  -13.6810  -18.0276 N   0  0  0  0  0  0  0  0  0  0  0  0
   18.6332  -14.4511  -19.1435 C   0  0  0  0  0  0  0  0  0  0  0  0
   19.4359  -15.5480  -18.4841 C   0  0  0  0  0  0  0  0  0  0  0  0
   20.0302  -14.9073  -17.2544 C   0  0  0  0  0  0  0  0  0  0  0  0
   19.2000  -13.6558  -17.0490 C   0  0  1  0  0  0  0  0  0  0  0  0
   20.0150  -12.4434  -16.9882 C   0  0  0  0  0  0  0  0  0  0  0  0
   21.0107  -12.4272  -16.1824 O   0  0  0  0  0  0  0  0  0  0  0  0
   20.8594   -9.3042  -18.8191 C   0  0  0  0  0  0  0  0  0  0  0  0
   20.6858  -10.0735  -17.5407 C   0  0  2  0  0  0  0  0  0  0  0  0
   19.8299  -11.2532  -17.7342 N   0  0  0  0  0  0  0  0  0  0  0  0
   20.1822   -9.2346  -16.4303 C   0  0  0  0  0  0  0  0  0  0  0  0
   18.9609   -9.2739  -16.1700 O   0  0  0  0  0  0  0  0  0  0  0  0
   19.0573   -4.7615   -9.0339 O   0  0  0  0  0  0  0  0  0  0  0  0
   19.6179   -5.4750  -10.0912 C   0  0  0  0  0  0  0  0  0  0  0  0
   19.5612   -6.8486  -10.1610 C   0  0  0  0  0  0  0  0  0  0  0  0
   20.1301   -7.5258  -11.2287 C   0  0  0  0  0  0  0  0  0  0  0  0
   20.7687   -6.8611  -12.2530 C   0  0  0  0  0  0  0  0  0  0  0  0
   21.4101   -7.5478  -13.3782 C   0  0  0  0  0  0  0  0  0  0  0  0
   20.5072   -7.5589  -14.5523 C   0  0  2  0  0  0  0  0  0  0  0  0
   20.9977   -8.3897  -15.6438 N   0  0  0  0  0  0  0  0  0  0  0  0
   20.1744   -6.2057  -15.0004 C   0  0  0  0  0  0  0  0  0  0  0  0
   18.9974   -5.7905  -14.7326 O   0  0  0  0  0  0  0  0  0  0  0  0
   20.8147   -5.4923  -12.1647 C   0  0  0  0  0  0  0  0  0  0  0  0
   20.2520   -4.8015  -11.1063 C   0  0  0  0  0  0  0  0  0  0  0  0
   20.9913   -5.3289  -15.6766 O   0  0  0  0  0  0  0  0  0  0  0  0
  1  5  1  0
  2  1  1  0
  3  2  1  0
  3  4  1  0
  4  5  1  0
  5  6  1  6
  6 10  1  0
  6  7  2  0
  9  8  1  6
  9 11  1  0
 10  9  1  0
 11 12  2  0
 13 14  1  0
 14 15  2  0
 15 16  1  0
 17 18  1  0
 17 16  2  0
 19 18  1  1
 19 21  1  0
 20 19  1  0
 20 11  1  0
 21 25  1  0
 22 21  2  0
 23 17  1  0
 24 23  2  0
 24 14  1  0
M  END
$$$$
