LPF.pdb
     RDKit          3D

 27 28  0  0  1  0  0  0  0  0999 V2000
   26.5567  -13.1180  -15.4371 C   0  0  0  0  0  0  0  0  0  0  0  0
   25.8730  -13.9615  -16.5458 C   0  0  1  0  0  0  0  0  0  0  0  0
   26.9352  -14.0683  -17.6207 C   0  0  0  0  0  0  0  0  0  0  0  0
   25.4906  -15.2318  -15.8973 C   0  0  0  0  0  0  0  0  0  0  0  0
   24.9558  -16.3294  -16.7551 C   0  0  2  0  0  0  0  0  0  0  0  0
   23.6537  -16.0711  -17.2128 N   0  0  0  0  0  0  0  0  0  0  0  0
   25.2421  -17.6603  -16.2021 C   0  0  0  0  0  0  0  0  0  0  0  0
   24.7031  -17.9126  -15.0760 O   0  0  0  0  0  0  0  0  0  0  0  0
   26.0442  -18.6494  -16.8007 N   0  0  0  0  0  0  0  0  0  0  0  0
   26.4131  -18.6521  -18.1993 C   0  0  0  0  0  0  0  0  0  0  0  0
   27.4767  -19.6945  -18.3964 C   0  0  0  0  0  0  0  0  0  0  0  0
   27.8153  -20.1891  -17.0423 C   0  0  0  0  0  0  0  0  0  0  0  0
   26.6320  -19.7997  -16.1915 C   0  0  1  0  0  0  0  0  0  0  0  0
   27.2242  -19.5310  -14.8322 C   0  0  0  0  0  0  0  0  0  0  0  0
   28.0182  -18.5874  -14.6530 O   0  0  0  0  0  0  0  0  0  0  0  0
   26.8562  -20.3735  -13.7741 N   0  0  0  0  0  0  0  0  0  0  0  0
   27.5415  -20.3568  -12.4723 C   0  0  1  0  0  0  0  0  0  0  0  0
   26.7930  -19.3873  -11.6239 C   0  0  0  0  0  0  0  0  0  0  0  0
   25.7605  -19.9629  -10.7607 C   0  0  0  0  0  0  0  0  0  0  0  0
   24.4778  -20.1626  -11.2666 C   0  0  0  0  0  0  0  0  0  0  0  0
   23.5204  -20.7128  -10.4423 C   0  0  0  0  0  0  0  0  0  0  0  0
   23.8306  -21.0594   -9.1370 C   0  0  0  0  0  0  0  0  0  0  0  0
   25.1178  -20.8531   -8.6474 C   0  0  0  0  0  0  0  0  0  0  0  0
   26.0827  -20.3029   -9.4656 C   0  0  0  0  0  0  0  0  0  0  0  0
   27.4385  -21.7180  -11.9101 C   0  0  0  0  0  0  0  0  0  0  0  0
   26.5904  -22.5292  -12.3347 O   0  0  0  0  0  0  0  0  0  0  0  0
   28.2711  -22.1617  -10.8920 O   0  0  0  0  0  0  0  0  0  0  0  0
  2  1  1  1
  3  2  1  0
  4  2  1  0
  5  4  1  0
  5  6  1  1
  7  8  2  0
  7  5  1  0
  9  7  1  0
 10  9  1  0
 11 10  1  0
 12 11  1  0
 12 13  1  0
 13  9  1  0
 13 14  1  1
 14 15  2  0
 16 14  1  0
 17 16  1  0
 17 18  1  1
 19 18  1  0
 19 20  2  0
 21 20  1  0
 22 21  2  0
 23 24  2  0
 23 22  1  0
 24 19  1  0
 25 17  1  0
 26 25  2  0
 27 25  1  0
M  END
$$$$
