LPF.pdb
     RDKit          3D

 27 28  0  0  1  0  0  0  0  0999 V2000
   22.1586  -16.6358  -18.0575 C   0  0  0  0  0  0  0  0  0  0  0  0
   21.5580  -18.0652  -17.9919 C   0  0  1  0  0  0  0  0  0  0  0  0
   22.2177  -18.7843  -19.1506 C   0  0  0  0  0  0  0  0  0  0  0  0
   21.8960  -18.5750  -16.6480 C   0  0  0  0  0  0  0  0  0  0  0  0
   21.4882  -19.9670  -16.2977 C   0  0  2  0  0  0  0  0  0  0  0  0
   20.0945  -20.1385  -16.3023 N   0  0  0  0  0  0  0  0  0  0  0  0
   22.2458  -20.5008  -15.1575 C   0  0  0  0  0  0  0  0  0  0  0  0
   21.8944  -20.0635  -14.0140 O   0  0  0  0  0  0  0  0  0  0  0  0
   23.3009  -21.4291  -15.2276 N   0  0  0  0  0  0  0  0  0  0  0  0
   23.6494  -22.1662  -16.4223 C   0  0  0  0  0  0  0  0  0  0  0  0
   24.9716  -22.8383  -16.1835 C   0  0  0  0  0  0  0  0  0  0  0  0
   25.4453  -22.3455  -14.8698 C   0  0  0  0  0  0  0  0  0  0  0  0
   24.2027  -21.8229  -14.1925 C   0  0  1  0  0  0  0  0  0  0  0  0
   24.6947  -20.6766  -13.3472 C   0  0  0  0  0  0  0  0  0  0  0  0
   24.6816  -19.5080  -13.7800 O   0  0  0  0  0  0  0  0  0  0  0  0
   25.1679  -20.9623  -12.0591 N   0  0  0  0  0  0  0  0  0  0  0  0
   26.2135  -20.1618  -11.4030 C   0  0  1  0  0  0  0  0  0  0  0  0
   25.5311  -19.3988  -10.3203 C   0  0  0  0  0  0  0  0  0  0  0  0
   24.8025  -20.2030   -9.3380 C   0  0  0  0  0  0  0  0  0  0  0  0
   23.5009  -20.6132   -9.6186 C   0  0  0  0  0  0  0  0  0  0  0  0
   22.8328  -21.3764   -8.6857 C   0  0  0  0  0  0  0  0  0  0  0  0
   23.4462  -21.7270   -7.4937 C   0  0  0  0  0  0  0  0  0  0  0  0
   24.7479  -21.3086   -7.2294 C   0  0  0  0  0  0  0  0  0  0  0  0
   25.4244  -20.5444   -8.1576 C   0  0  0  0  0  0  0  0  0  0  0  0
   27.1886  -21.1093  -10.8278 C   0  0  0  0  0  0  0  0  0  0  0  0
   26.9824  -22.3400  -10.8487 O   0  0  0  0  0  0  0  0  0  0  0  0
   28.3730  -20.6852  -10.2414 O   0  0  0  0  0  0  0  0  0  0  0  0
  2  1  1  1
  3  2  1  0
  4  2  1  0
  5  4  1  0
  5  6  1  1
  7  8  2  0
  7  5  1  0
  9  7  1  0
 10  9  1  0
 11 10  1  0
 12 11  1  0
 12 13  1  0
 13  9  1  0
 13 14  1  1
 14 15  2  0
 16 14  1  0
 17 16  1  0
 17 18  1  1
 19 18  1  0
 19 20  2  0
 21 20  1  0
 22 21  2  0
 23 24  2  0
 23 22  1  0
 24 19  1  0
 25 17  1  0
 26 25  2  0
 27 25  1  0
M  END
$$$$
