LPF.pdb
     RDKit          3D

 27 28  0  0  1  0  0  0  0  0999 V2000
   26.4338  -15.8984  -14.2082 C   0  0  0  0  0  0  0  0  0  0  0  0
   25.0748  -16.5382  -14.5979 C   0  0  1  0  0  0  0  0  0  0  0  0
   24.3539  -15.4272  -15.3334 C   0  0  0  0  0  0  0  0  0  0  0  0
   25.4141  -17.7252  -15.4079 C   0  0  0  0  0  0  0  0  0  0  0  0
   24.6874  -18.9990  -15.1326 C   0  0  2  0  0  0  0  0  0  0  0  0
   23.3056  -18.8918  -15.3581 N   0  0  0  0  0  0  0  0  0  0  0  0
   25.1364  -19.6407  -13.8893 C   0  0  0  0  0  0  0  0  0  0  0  0
   24.3423  -19.5317  -12.8995 O   0  0  0  0  0  0  0  0  0  0  0  0
   26.3417  -20.3443  -13.7105 N   0  0  0  0  0  0  0  0  0  0  0  0
   27.2546  -20.6677  -14.7848 C   0  0  0  0  0  0  0  0  0  0  0  0
   28.5310  -21.1713  -14.1733 C   0  0  0  0  0  0  0  0  0  0  0  0
   28.3798  -20.9881  -12.7115 C   0  0  0  0  0  0  0  0  0  0  0  0
   26.8915  -20.8634  -12.4988 C   0  0  1  0  0  0  0  0  0  0  0  0
   26.7613  -19.9290  -11.3238 C   0  0  0  0  0  0  0  0  0  0  0  0
   26.8233  -18.6937  -11.4761 O   0  0  0  0  0  0  0  0  0  0  0  0
   26.5683  -20.4893  -10.0536 N   0  0  0  0  0  0  0  0  0  0  0  0
   27.3837  -20.1123   -8.8885 C   0  0  1  0  0  0  0  0  0  0  0  0
   26.4472  -20.0515   -7.7312 C   0  0  0  0  0  0  0  0  0  0  0  0
   27.0624  -19.7915   -6.4288 C   0  0  0  0  0  0  0  0  0  0  0  0
   27.5876  -18.5296   -6.1589 C   0  0  0  0  0  0  0  0  0  0  0  0
   28.1560  -18.3003   -4.9247 C   0  0  0  0  0  0  0  0  0  0  0  0
   28.2027  -19.3069   -3.9735 C   0  0  0  0  0  0  0  0  0  0  0  0
   27.6730  -20.5625   -4.2598 C   0  0  0  0  0  0  0  0  0  0  0  0
   27.1018  -20.8010   -5.4927 C   0  0  0  0  0  0  0  0  0  0  0  0
   28.3780  -21.1852   -8.6891 C   0  0  0  0  0  0  0  0  0  0  0  0
   28.0974  -22.3776   -8.9276 O   0  0  0  0  0  0  0  0  0  0  0  0
   29.6627  -20.9260   -8.2322 O   0  0  0  0  0  0  0  0  0  0  0  0
  2  1  1  6
  3  2  1  0
  4  2  1  0
  5  4  1  0
  5  6  1  1
  7  8  2  0
  7  5  1  0
  9  7  1  0
 10  9  1  0
 11 10  1  0
 12 11  1  0
 12 13  1  0
 13  9  1  0
 13 14  1  1
 14 15  2  0
 16 14  1  0
 17 16  1  0
 17 18  1  1
 19 18  1  0
 19 20  2  0
 21 20  1  0
 22 21  2  0
 23 24  2  0
 23 22  1  0
 24 19  1  0
 25 17  1  0
 26 25  2  0
 27 25  1  0
M  END
$$$$
