LPF.pdb
     RDKit          3D

 27 28  0  0  1  0  0  0  0  0999 V2000
   32.5625  -36.9285  -21.5274 C   0  0  0  0  0  0  0  0  0  0  0  0
   32.2390  -35.5494  -22.1611 C   0  0  1  0  0  0  0  0  0  0  0  0
   31.5989  -35.9059  -23.4870 C   0  0  0  0  0  0  0  0  0  0  0  0
   31.3608  -34.8647  -21.1914 C   0  0  0  0  0  0  0  0  0  0  0  0
   31.7120  -34.9425  -19.7433 C   0  0  2  0  0  0  0  0  0  0  0  0
   31.7033  -36.2593  -19.2557 N   0  0  0  0  0  0  0  0  0  0  0  0
   31.0368  -33.9074  -18.9484 C   0  0  0  0  0  0  0  0  0  0  0  0
   29.9799  -34.2832  -18.3452 O   0  0  0  0  0  0  0  0  0  0  0  0
   31.4530  -32.5707  -18.8070 N   0  0  0  0  0  0  0  0  0  0  0  0
   32.7768  -32.0972  -19.1469 C   0  0  0  0  0  0  0  0  0  0  0  0
   32.7541  -30.5955  -19.1173 C   0  0  0  0  0  0  0  0  0  0  0  0
   31.3400  -30.2158  -18.8955 C   0  0  0  0  0  0  0  0  0  0  0  0
   30.7015  -31.4569  -18.3229 C   0  0  1  0  0  0  0  0  0  0  0  0
   29.2838  -31.4137  -18.8317 C   0  0  0  0  0  0  0  0  0  0  0  0
   29.0142  -31.7243  -20.0081 O   0  0  0  0  0  0  0  0  0  0  0  0
   28.2759  -31.0140  -17.9433 N   0  0  0  0  0  0  0  0  0  0  0  0
   26.8497  -31.0282  -18.3041 C   0  0  1  0  0  0  0  0  0  0  0  0
   26.2947  -32.2928  -17.7449 C   0  0  0  0  0  0  0  0  0  0  0  0
   26.4630  -32.4778  -16.3027 C   0  0  0  0  0  0  0  0  0  0  0  0
   25.4026  -32.1885  -15.4466 C   0  0  0  0  0  0  0  0  0  0  0  0
   25.5761  -32.3759  -14.0925 C   0  0  0  0  0  0  0  0  0  0  0  0
   26.7824  -32.8429  -13.5956 C   0  0  0  0  0  0  0  0  0  0  0  0
   27.8320  -33.1272  -14.4655 C   0  0  0  0  0  0  0  0  0  0  0  0
   27.6672  -32.9427  -15.8226 C   0  0  0  0  0  0  0  0  0  0  0  0
   26.2253  -29.8603  -17.6517 C   0  0  0  0  0  0  0  0  0  0  0  0
   25.0649  -29.5034  -17.9406 O   0  0  0  0  0  0  0  0  0  0  0  0
   26.8889  -29.1075  -16.6928 O   0  0  0  0  0  0  0  0  0  0  0  0
  2  1  1  1
  3  2  1  0
  4  2  1  0
  5  4  1  0
  5  6  1  1
  7  8  2  0
  7  5  1  0
  9  7  1  0
 10  9  1  0
 11 10  1  0
 12 11  1  0
 12 13  1  0
 13  9  1  0
 13 14  1  6
 14 15  2  0
 16 14  1  0
 17 16  1  0
 17 18  1  1
 19 18  1  0
 19 20  2  0
 21 20  1  0
 22 21  2  0
 23 24  2  0
 23 22  1  0
 24 19  1  0
 25 17  1  0
 26 25  2  0
 27 25  1  0
M  END
$$$$
