LPF.pdb
     RDKit          3D

 27 28  0  0  1  0  0  0  0  0999 V2000
   21.7769  -16.8904  -14.3969 C   0  0  0  0  0  0  0  0  0  0  0  0
   21.8834  -18.4024  -14.7298 C   0  0  1  0  0  0  0  0  0  0  0  0
   22.8719  -18.4478  -15.8768 C   0  0  0  0  0  0  0  0  0  0  0  0
   22.3251  -19.0525  -13.4797 C   0  0  0  0  0  0  0  0  0  0  0  0
   22.5982  -20.5192  -13.5051 C   0  0  2  0  0  0  0  0  0  0  0  0
   21.4334  -21.2822  -13.6865 N   0  0  0  0  0  0  0  0  0  0  0  0
   23.5363  -20.9310  -12.4517 C   0  0  0  0  0  0  0  0  0  0  0  0
   23.0815  -20.8790  -11.2631 O   0  0  0  0  0  0  0  0  0  0  0  0
   24.8608  -21.3637  -12.6470 N   0  0  0  0  0  0  0  0  0  0  0  0
   25.4257  -21.6749  -13.9416 C   0  0  0  0  0  0  0  0  0  0  0  0
   26.9101  -21.8335  -13.7740 C   0  0  0  0  0  0  0  0  0  0  0  0
   27.2020  -21.4580  -12.3716 C   0  0  0  0  0  0  0  0  0  0  0  0
   25.8749  -21.5790  -11.6646 C   0  0  1  0  0  0  0  0  0  0  0  0
   25.9235  -20.5148  -10.5989 C   0  0  0  0  0  0  0  0  0  0  0  0
   25.7450  -19.3143  -10.8819 O   0  0  0  0  0  0  0  0  0  0  0  0
   26.1752  -20.9139   -9.2790 N   0  0  0  0  0  0  0  0  0  0  0  0
   27.1102  -20.1963   -8.3985 C   0  0  1  0  0  0  0  0  0  0  0  0
   26.6987  -20.5240   -7.0044 C   0  0  0  0  0  0  0  0  0  0  0  0
   27.5360  -19.9591   -5.9451 C   0  0  0  0  0  0  0  0  0  0  0  0
   28.2913  -20.8105   -5.1416 C   0  0  0  0  0  0  0  0  0  0  0  0
   29.0800  -20.2609   -4.1542 C   0  0  0  0  0  0  0  0  0  0  0  0
   29.1187  -18.8884   -3.9671 C   0  0  0  0  0  0  0  0  0  0  0  0
   28.3575  -18.0518   -4.7793 C   0  0  0  0  0  0  0  0  0  0  0  0
   27.5651  -18.5933   -5.7704 C   0  0  0  0  0  0  0  0  0  0  0  0
   28.4599  -20.7272   -8.6739 C   0  0  0  0  0  0  0  0  0  0  0  0
   28.6385  -21.9357   -8.9291 O   0  0  0  0  0  0  0  0  0  0  0  0
   29.5878  -19.9183   -8.6646 O   0  0  0  0  0  0  0  0  0  0  0  0
  2  1  1  1
  3  2  1  0
  4  2  1  0
  5  4  1  0
  5  6  1  1
  7  8  2  0
  7  5  1  0
  9  7  1  0
 10  9  1  0
 11 10  1  0
 12 11  1  0
 12 13  1  0
 13  9  1  0
 13 14  1  1
 14 15  2  0
 16 14  1  0
 17 16  1  0
 17 18  1  1
 19 18  1  0
 19 20  2  0
 21 20  1  0
 22 21  2  0
 23 24  2  0
 23 22  1  0
 24 19  1  0
 25 17  1  0
 26 25  2  0
 27 25  1  0
M  END
$$$$
