KMF.pdb
     RDKit          3D

 29 29  0  0  1  0  0  0  0  0999 V2000
    8.3101  -18.6764   20.7592 N   0  0  0  0  0  0  0  0  0  0  0  0
    9.6765  -18.4492   20.7403 C   0  0  1  0  0  0  0  0  0  0  0  0
   10.5240  -18.4792   19.5645 C   0  0  0  0  0  0  0  0  0  0  0  0
   10.1492  -18.9940   18.2771 C   0  0  0  0  0  0  0  0  0  0  0  0
    9.4103  -18.3400   17.2435 C   0  0  0  0  0  0  0  0  0  0  0  0
    8.9852  -18.8837   15.9681 C   0  0  0  0  0  0  0  0  0  0  0  0
    8.2673  -18.0883   15.0603 N   0  0  0  0  0  0  0  0  0  0  0  0
    9.9809  -17.1396   21.4910 C   0  0  0  0  0  0  0  0  0  0  0  0
   11.0878  -16.5965   21.3058 O   0  0  0  0  0  0  0  0  0  0  0  0
    6.7278  -11.1546   25.5529 C   0  0  0  0  0  0  0  0  0  0  0  0
    6.6032  -12.8043   24.8429 S   0  0  0  0  0  0  0  0  0  0  0  0
    8.2076  -13.3026   24.1333 C   0  0  0  0  0  0  0  0  0  0  0  0
    8.0023  -14.6300   23.4629 C   0  0  0  0  0  0  0  0  0  0  0  0
    9.2987  -15.2945   23.0588 C   0  0  2  0  0  0  0  0  0  0  0  0
    9.0550  -16.5530   22.3644 N   0  0  0  0  0  0  0  0  0  0  0  0
   10.1836  -15.5621   24.1929 C   0  0  0  0  0  0  0  0  0  0  0  0
   10.9002  -14.6673   24.6961 O   0  0  0  0  0  0  0  0  0  0  0  0
   10.2450  -16.8639   24.7510 N   0  0  0  0  0  0  0  0  0  0  0  0
   10.9394  -17.1470   26.0061 C   0  0  1  0  0  0  0  0  0  0  0  0
    9.9284  -17.2652   27.0979 C   0  0  0  0  0  0  0  0  0  0  0  0
    9.5967  -16.0063   27.7838 C   0  0  0  0  0  0  0  0  0  0  0  0
    8.5168  -15.2492   27.3642 C   0  0  0  0  0  0  0  0  0  0  0  0
    8.1388  -14.0659   27.9559 C   0  0  0  0  0  0  0  0  0  0  0  0
    8.8726  -13.6033   29.0268 C   0  0  0  0  0  0  0  0  0  0  0  0
    9.9587  -14.3433   29.4655 C   0  0  0  0  0  0  0  0  0  0  0  0
   10.3222  -15.5261   28.8605 C   0  0  0  0  0  0  0  0  0  0  0  0
   11.7440  -18.3807   25.8651 C   0  0  0  0  0  0  0  0  0  0  0  0
   11.6763  -19.1769   24.7434 O   0  0  0  0  0  0  0  0  0  0  0  0
   12.5206  -18.7280   26.7939 O   0  0  0  0  0  0  0  0  0  0  0  0
  2  1  1  6
  3  2  1  0
  4  3  1  0
  5  4  1  0
  6  5  1  0
  7  6  1  0
  8 15  1  0
  8  2  1  0
  9  8  2  0
 10 11  1  0
 11 12  1  0
 13 12  1  0
 14 13  1  1
 14 15  1  0
 16 18  1  0
 16 14  1  0
 17 16  2  0
 19 18  1  0
 19 27  1  0
 19 20  1  1
 21 22  2  0
 21 20  1  0
 23 22  1  0
 24 23  2  0
 25 24  1  0
 25 26  2  0
 26 21  1  0
 27 28  1  0
 29 27  2  0
M  END
$$$$
