KMF.pdb
     RDKit          3D

 29 29  0  0  1  0  0  0  0  0999 V2000
    8.1366  -19.3996   19.7135 N   0  0  0  0  0  0  0  0  0  0  0  0
    8.2491  -19.2027   21.0800 C   0  0  1  0  0  0  0  0  0  0  0  0
    8.6402  -20.2056   22.0510 C   0  0  0  0  0  0  0  0  0  0  0  0
    8.8027  -21.6077   21.7850 C   0  0  0  0  0  0  0  0  0  0  0  0
    7.8327  -22.5326   21.2897 C   0  0  0  0  0  0  0  0  0  0  0  0
    8.0247  -23.9267   20.9390 C   0  0  0  0  0  0  0  0  0  0  0  0
    6.9871  -24.6577   20.3382 N   0  0  0  0  0  0  0  0  0  0  0  0
    9.1099  -17.9527   21.3407 C   0  0  0  0  0  0  0  0  0  0  0  0
   10.3247  -18.0044   21.0650 O   0  0  0  0  0  0  0  0  0  0  0  0
    8.1445  -11.5729   20.1941 C   0  0  0  0  0  0  0  0  0  0  0  0
    7.1847  -13.0219   19.7243 S   0  0  0  0  0  0  0  0  0  0  0  0
    8.0875  -14.5420   20.1713 C   0  0  0  0  0  0  0  0  0  0  0  0
    8.6282  -14.3445   21.5578 C   0  0  0  0  0  0  0  0  0  0  0  0
    9.3461  -15.5634   22.0911 C   0  0  2  0  0  0  0  0  0  0  0  0
    8.5662  -16.7755   21.8725 N   0  0  0  0  0  0  0  0  0  0  0  0
    9.6535  -15.4689   23.5184 C   0  0  0  0  0  0  0  0  0  0  0  0
   10.5097  -14.6676   23.9573 O   0  0  0  0  0  0  0  0  0  0  0  0
    8.9740  -16.2989   24.4454 N   0  0  0  0  0  0  0  0  0  0  0  0
    9.1376  -16.1572   25.8913 C   0  0  1  0  0  0  0  0  0  0  0  0
    7.8028  -15.8833   26.5008 C   0  0  0  0  0  0  0  0  0  0  0  0
    7.3312  -14.4947   26.3785 C   0  0  0  0  0  0  0  0  0  0  0  0
    8.1772  -13.4433   26.6852 C   0  0  0  0  0  0  0  0  0  0  0  0
    7.8140  -12.1195   26.5911 C   0  0  0  0  0  0  0  0  0  0  0  0
    6.5376  -11.8171   26.1684 C   0  0  0  0  0  0  0  0  0  0  0  0
    5.6717  -12.8524   25.8556 C   0  0  0  0  0  0  0  0  0  0  0  0
    6.0531  -14.1722   25.9559 C   0  0  0  0  0  0  0  0  0  0  0  0
    9.7555  -17.3815   26.4469 C   0  0  0  0  0  0  0  0  0  0  0  0
    9.8436  -18.5515   25.7256 O   0  0  0  0  0  0  0  0  0  0  0  0
   10.2199  -17.3692   27.6176 O   0  0  0  0  0  0  0  0  0  0  0  0
  2  1  1  6
  3  2  1  0
  4  3  1  0
  5  4  1  0
  6  5  1  0
  7  6  1  0
  8 15  1  0
  8  2  1  0
  9  8  2  0
 10 11  1  0
 11 12  1  0
 13 12  1  0
 14 13  1  1
 14 15  1  0
 16 18  1  0
 16 14  1  0
 17 16  2  0
 19 18  1  0
 19 27  1  0
 19 20  1  1
 21 22  2  0
 21 20  1  0
 23 22  1  0
 24 23  2  0
 25 24  1  0
 25 26  2  0
 26 21  1  0
 27 28  1  0
 29 27  2  0
M  END
$$$$
