KMF.pdb
     RDKit          3D

 29 29  0  0  1  0  0  0  0  0999 V2000
    8.1148  -18.7596   20.1328 N   0  0  0  0  0  0  0  0  0  0  0  0
    9.2320  -18.0623   19.7033 C   0  0  1  0  0  0  0  0  0  0  0  0
    9.5248  -17.6932   18.3322 C   0  0  0  0  0  0  0  0  0  0  0  0
    9.8785  -18.6036   17.2791 C   0  0  0  0  0  0  0  0  0  0  0  0
   11.1474  -18.7719   16.6439 C   0  0  0  0  0  0  0  0  0  0  0  0
   11.4864  -19.6558   15.5453 C   0  0  0  0  0  0  0  0  0  0  0  0
   12.7348  -19.5534   14.9102 N   0  0  0  0  0  0  0  0  0  0  0  0
    9.3986  -16.7962   20.5639 C   0  0  0  0  0  0  0  0  0  0  0  0
   10.4302  -16.1121   20.4143 O   0  0  0  0  0  0  0  0  0  0  0  0
    6.2950  -12.2100   26.1999 C   0  0  0  0  0  0  0  0  0  0  0  0
    6.2498  -13.7283   25.2335 S   0  0  0  0  0  0  0  0  0  0  0  0
    7.3428  -13.5781   23.7814 C   0  0  0  0  0  0  0  0  0  0  0  0
    7.2825  -14.8846   23.0446 C   0  0  0  0  0  0  0  0  0  0  0  0
    8.5856  -15.2408   22.3660 C   0  0  2  0  0  0  0  0  0  0  0  0
    8.4308  -16.4014   21.4975 N   0  0  0  0  0  0  0  0  0  0  0  0
    9.6672  -15.5185   23.3114 C   0  0  0  0  0  0  0  0  0  0  0  0
   10.8409  -15.1361   23.1021 O   0  0  0  0  0  0  0  0  0  0  0  0
    9.3986  -16.2388   24.5026 N   0  0  0  0  0  0  0  0  0  0  0  0
   10.1732  -16.0455   25.7274 C   0  0  1  0  0  0  0  0  0  0  0  0
    9.2933  -15.4195   26.7580 C   0  0  0  0  0  0  0  0  0  0  0  0
    9.9325  -15.1701   28.0598 C   0  0  0  0  0  0  0  0  0  0  0  0
   10.1383  -16.2139   28.9450 C   0  0  0  0  0  0  0  0  0  0  0  0
   10.7335  -16.0638   30.1764 C   0  0  0  0  0  0  0  0  0  0  0  0
   11.1501  -14.8060   30.5555 C   0  0  0  0  0  0  0  0  0  0  0  0
   10.9549  -13.7445   29.6867 C   0  0  0  0  0  0  0  0  0  0  0  0
   10.3571  -13.9140   28.4575 C   0  0  0  0  0  0  0  0  0  0  0  0
   10.7187  -17.3429   26.1840 C   0  0  0  0  0  0  0  0  0  0  0  0
   11.9706  -17.4555   26.7469 O   0  0  0  0  0  0  0  0  0  0  0  0
   10.0273  -18.3883   26.0595 O   0  0  0  0  0  0  0  0  0  0  0  0
  2  1  1  6
  3  2  1  0
  4  3  1  0
  5  4  1  0
  6  5  1  0
  7  6  1  0
  8 15  1  0
  8  2  1  0
  9  8  2  0
 10 11  1  0
 11 12  1  0
 13 12  1  0
 14 13  1  1
 14 15  1  0
 16 18  1  0
 16 14  1  0
 17 16  2  0
 19 18  1  0
 19 27  1  0
 19 20  1  1
 21 22  2  0
 21 20  1  0
 23 22  1  0
 24 23  2  0
 25 24  1  0
 25 26  2  0
 26 21  1  0
 27 28  1  0
 29 27  2  0
M  END
$$$$
