KMF.pdb
     RDKit          3D

 29 29  0  0  1  0  0  0  0  0999 V2000
    7.6841  -20.5361   21.3788 N   0  0  0  0  0  0  0  0  0  0  0  0
    7.1308  -19.5306   22.1545 C   0  0  1  0  0  0  0  0  0  0  0  0
    6.6628  -19.6738   23.5191 C   0  0  0  0  0  0  0  0  0  0  0  0
    6.6777  -20.8890   24.2845 C   0  0  0  0  0  0  0  0  0  0  0  0
    6.2413  -21.0929   25.6298 C   0  0  0  0  0  0  0  0  0  0  0  0
    6.3770  -22.2867   26.4420 C   0  0  0  0  0  0  0  0  0  0  0  0
    7.5739  -22.5465   27.1289 N   0  0  0  0  0  0  0  0  0  0  0  0
    8.0515  -18.2968   22.1132 C   0  0  0  0  0  0  0  0  0  0  0  0
    9.2797  -18.4802   22.0017 O   0  0  0  0  0  0  0  0  0  0  0  0
    6.6624  -12.6510   19.1869 C   0  0  0  0  0  0  0  0  0  0  0  0
    7.3616  -12.0808   20.7449 S   0  0  0  0  0  0  0  0  0  0  0  0
    8.4303  -13.3735   21.4610 C   0  0  0  0  0  0  0  0  0  0  0  0
    7.6106  -14.6282   21.5470 C   0  0  0  0  0  0  0  0  0  0  0  0
    8.3860  -15.8038   22.0971 C   0  0  2  0  0  0  0  0  0  0  0  0
    7.5471  -16.9919   22.1964 N   0  0  0  0  0  0  0  0  0  0  0  0
    8.9659  -15.5421   23.4147 C   0  0  0  0  0  0  0  0  0  0  0  0
    9.8718  -14.6939   23.5802 O   0  0  0  0  0  0  0  0  0  0  0  0
    8.5025  -16.2585   24.5469 N   0  0  0  0  0  0  0  0  0  0  0  0
    9.0526  -16.0505   25.8854 C   0  0  1  0  0  0  0  0  0  0  0  0
    7.9737  -15.5213   26.7709 C   0  0  0  0  0  0  0  0  0  0  0  0
    7.6369  -14.1031   26.5693 C   0  0  0  0  0  0  0  0  0  0  0  0
    8.6021  -13.1271   26.7456 C   0  0  0  0  0  0  0  0  0  0  0  0
    8.3682  -11.7825   26.5707 C   0  0  0  0  0  0  0  0  0  0  0  0
    7.1040  -11.3786   26.1993 C   0  0  0  0  0  0  0  0  0  0  0  0
    6.1203  -12.3370   26.0167 C   0  0  0  0  0  0  0  0  0  0  0  0
    6.3730  -13.6791   26.1964 C   0  0  0  0  0  0  0  0  0  0  0  0
    9.6125  -17.3203   26.3987 C   0  0  0  0  0  0  0  0  0  0  0  0
    9.6440  -18.4687   25.6391 O   0  0  0  0  0  0  0  0  0  0  0  0
   10.0787  -17.3686   27.5678 O   0  0  0  0  0  0  0  0  0  0  0  0
  2  1  1  1
  3  2  1  0
  4  3  1  0
  5  4  1  0
  6  5  1  0
  7  6  1  0
  8 15  1  0
  8  2  1  0
  9  8  2  0
 10 11  1  0
 11 12  1  0
 13 12  1  0
 14 13  1  1
 14 15  1  0
 16 18  1  0
 16 14  1  0
 17 16  2  0
 19 18  1  0
 19 27  1  0
 19 20  1  1
 21 22  2  0
 21 20  1  0
 23 22  1  0
 24 23  2  0
 25 24  1  0
 25 26  2  0
 26 21  1  0
 27 28  1  0
 29 27  2  0
M  END
$$$$
