KMF.pdb
     RDKit          3D

 29 29  0  0  1  0  0  0  0  0999 V2000
    7.6330  -17.9960   20.9920 N   0  0  0  0  0  0  0  0  0  0  0  0
    8.7091  -17.3059   20.4585 C   0  0  1  0  0  0  0  0  0  0  0  0
    8.8557  -16.9051   19.0731 C   0  0  0  0  0  0  0  0  0  0  0  0
    8.5672  -17.7264   17.9306 C   0  0  0  0  0  0  0  0  0  0  0  0
    7.4320  -18.5651   17.7078 C   0  0  0  0  0  0  0  0  0  0  0  0
    7.0691  -19.2742   16.4959 C   0  0  0  0  0  0  0  0  0  0  0  0
    5.8590  -19.9832   16.4228 N   0  0  0  0  0  0  0  0  0  0  0  0
    8.9941  -16.0661   21.3265 C   0  0  0  0  0  0  0  0  0  0  0  0
    9.8663  -15.2631   20.9406 O   0  0  0  0  0  0  0  0  0  0  0  0
    6.2518  -11.3225   26.9825 C   0  0  0  0  0  0  0  0  0  0  0  0
    6.0127  -12.5909   25.7274 S   0  0  0  0  0  0  0  0  0  0  0  0
    7.5889  -12.9339   24.8767 C   0  0  0  0  0  0  0  0  0  0  0  0
    7.3313  -14.0413   23.8965 C   0  0  0  0  0  0  0  0  0  0  0  0
    8.5996  -14.6975   23.3998 C   0  0  2  0  0  0  0  0  0  0  0  0
    8.3048  -15.8238   22.5224 N   0  0  0  0  0  0  0  0  0  0  0  0
    9.4603  -15.1745   24.4826 C   0  0  0  0  0  0  0  0  0  0  0  0
    9.2435  -14.8744   25.6786 O   0  0  0  0  0  0  0  0  0  0  0  0
   10.5749  -15.9999   24.1893 N   0  0  0  0  0  0  0  0  0  0  0  0
   11.7102  -16.1371   25.1003 C   0  0  1  0  0  0  0  0  0  0  0  0
   11.2425  -16.7986   26.3540 C   0  0  0  0  0  0  0  0  0  0  0  0
   10.7191  -15.8884   27.3850 C   0  0  0  0  0  0  0  0  0  0  0  0
   10.4153  -14.5765   27.0654 C   0  0  0  0  0  0  0  0  0  0  0  0
    9.9173  -13.6667   27.9695 C   0  0  0  0  0  0  0  0  0  0  0  0
    9.7072  -14.0787   29.2678 C   0  0  0  0  0  0  0  0  0  0  0  0
   10.0039  -15.3874   29.6126 C   0  0  0  0  0  0  0  0  0  0  0  0
   10.5019  -16.2844   28.6935 C   0  0  0  0  0  0  0  0  0  0  0  0
   12.7894  -16.9061   24.4420 C   0  0  0  0  0  0  0  0  0  0  0  0
   12.6389  -17.4563   23.1884 O   0  0  0  0  0  0  0  0  0  0  0  0
   13.8877  -17.0725   25.0356 O   0  0  0  0  0  0  0  0  0  0  0  0
  2  1  1  6
  3  2  1  0
  4  3  1  0
  5  4  1  0
  6  5  1  0
  7  6  1  0
  8 15  1  0
  8  2  1  0
  9  8  2  0
 10 11  1  0
 11 12  1  0
 13 12  1  0
 14 13  1  1
 14 15  1  0
 16 18  1  0
 16 14  1  0
 17 16  2  0
 19 18  1  0
 19 27  1  0
 19 20  1  1
 21 22  2  0
 21 20  1  0
 23 22  1  0
 24 23  2  0
 25 24  1  0
 25 26  2  0
 26 21  1  0
 27 28  1  0
 29 27  2  0
M  END
$$$$
