KMF.pdb
     RDKit          3D

 29 29  0  0  1  0  0  0  0  0999 V2000
    7.5205  -19.1541   21.2881 N   0  0  0  0  0  0  0  0  0  0  0  0
    8.6718  -19.3886   20.5543 C   0  0  1  0  0  0  0  0  0  0  0  0
    8.7216  -19.8485   19.1804 C   0  0  0  0  0  0  0  0  0  0  0  0
    7.6385  -19.7878   18.2390 C   0  0  0  0  0  0  0  0  0  0  0  0
    7.6332  -20.1935   16.8689 C   0  0  0  0  0  0  0  0  0  0  0  0
    6.5455  -20.1019   15.9141 C   0  0  0  0  0  0  0  0  0  0  0  0
    6.4270  -18.9804   15.0773 N   0  0  0  0  0  0  0  0  0  0  0  0
    9.5966  -18.1619   20.6605 C   0  0  0  0  0  0  0  0  0  0  0  0
   10.7720  -18.2722   20.2595 O   0  0  0  0  0  0  0  0  0  0  0  0
    8.0958  -11.7713   20.2334 C   0  0  0  0  0  0  0  0  0  0  0  0
    7.5236  -13.1131   19.1781 S   0  0  0  0  0  0  0  0  0  0  0  0
    8.5733  -14.5855   19.4142 C   0  0  0  0  0  0  0  0  0  0  0  0
    9.1210  -14.5198   20.8103 C   0  0  0  0  0  0  0  0  0  0  0  0
    9.9566  -15.7260   21.1745 C   0  0  2  0  0  0  0  0  0  0  0  0
    9.1530  -16.9423   21.1895 N   0  0  0  0  0  0  0  0  0  0  0  0
   10.6140  -15.5964   22.4752 C   0  0  0  0  0  0  0  0  0  0  0  0
   11.6093  -14.8550   22.6405 O   0  0  0  0  0  0  0  0  0  0  0  0
   10.1254  -16.3222   23.5907 N   0  0  0  0  0  0  0  0  0  0  0  0
    9.6363  -15.6641   24.8012 C   0  0  1  0  0  0  0  0  0  0  0  0
    8.5368  -14.7265   24.4268 C   0  0  0  0  0  0  0  0  0  0  0  0
    7.9659  -13.9534   25.5412 C   0  0  0  0  0  0  0  0  0  0  0  0
    6.6186  -13.6370   25.5499 C   0  0  0  0  0  0  0  0  0  0  0  0
    6.0089  -12.9241   26.5565 C   0  0  0  0  0  0  0  0  0  0  0  0
    6.7774  -12.4982   27.6182 C   0  0  0  0  0  0  0  0  0  0  0  0
    8.1291  -12.8024   27.6324 C   0  0  0  0  0  0  0  0  0  0  0  0
    8.7222  -13.5174   26.6155 C   0  0  0  0  0  0  0  0  0  0  0  0
    9.1839  -16.6816   25.7756 C   0  0  0  0  0  0  0  0  0  0  0  0
    9.3588  -16.5269   27.1329 O   0  0  0  0  0  0  0  0  0  0  0  0
    8.6193  -17.7300   25.3652 O   0  0  0  0  0  0  0  0  0  0  0  0
  2  1  1  6
  3  2  1  0
  4  3  1  0
  5  4  1  0
  6  5  1  0
  7  6  1  0
  8 15  1  0
  8  2  1  0
  9  8  2  0
 10 11  1  0
 11 12  1  0
 13 12  1  0
 14 13  1  1
 14 15  1  0
 16 18  1  0
 16 14  1  0
 17 16  2  0
 19 18  1  0
 19 27  1  0
 19 20  1  6
 21 22  2  0
 21 20  1  0
 23 22  1  0
 24 23  2  0
 25 24  1  0
 25 26  2  0
 26 21  1  0
 27 28  1  0
 29 27  2  0
M  END
$$$$
