KMF.pdb
     RDKit          3D

 29 29  0  0  1  0  0  0  0  0999 V2000
    4.9485  -18.4321   23.3224 N   0  0  0  0  0  0  0  0  0  0  0  0
    5.6506  -18.9213   22.2331 C   0  0  1  0  0  0  0  0  0  0  0  0
    5.0712  -19.3530   20.9762 C   0  0  0  0  0  0  0  0  0  0  0  0
    3.6873  -19.6703   20.7593 C   0  0  0  0  0  0  0  0  0  0  0  0
    2.5706  -18.7796   20.7220 C   0  0  0  0  0  0  0  0  0  0  0  0
    1.1741  -19.1059   20.5067 C   0  0  0  0  0  0  0  0  0  0  0  0
    0.4850  -19.9186   21.4215 N   0  0  0  0  0  0  0  0  0  0  0  0
    6.8013  -17.9541   21.8986 C   0  0  0  0  0  0  0  0  0  0  0  0
    7.6030  -18.2784   21.0004 O   0  0  0  0  0  0  0  0  0  0  0  0
    7.8540  -11.5846   20.1935 C   0  0  0  0  0  0  0  0  0  0  0  0
    8.3141  -13.1996   19.5443 S   0  0  0  0  0  0  0  0  0  0  0  0
    7.2413  -14.4896   20.2589 C   0  0  0  0  0  0  0  0  0  0  0  0
    7.4688  -14.4830   21.7427 C   0  0  0  0  0  0  0  0  0  0  0  0
    8.0289  -15.7884   22.2603 C   0  0  2  0  0  0  0  0  0  0  0  0
    6.9649  -16.7354   22.5710 N   0  0  0  0  0  0  0  0  0  0  0  0
    8.8572  -15.6234   23.4550 C   0  0  0  0  0  0  0  0  0  0  0  0
    9.8765  -14.8963   23.4559 O   0  0  0  0  0  0  0  0  0  0  0  0
    8.5125  -16.2969   24.6539 N   0  0  0  0  0  0  0  0  0  0  0  0
    9.2605  -16.1170   25.8972 C   0  0  1  0  0  0  0  0  0  0  0  0
    8.3020  -15.7732   26.9886 C   0  0  0  0  0  0  0  0  0  0  0  0
    7.6292  -14.4723   26.8450 C   0  0  0  0  0  0  0  0  0  0  0  0
    8.3026  -13.3033   27.1538 C   0  0  0  0  0  0  0  0  0  0  0  0
    7.7464  -12.0499   27.0406 C   0  0  0  0  0  0  0  0  0  0  0  0
    6.4462  -11.9461   26.5956 C   0  0  0  0  0  0  0  0  0  0  0  0
    5.7508  -13.1023   26.2803 C   0  0  0  0  0  0  0  0  0  0  0  0
    6.3244  -14.3489   26.3999 C   0  0  0  0  0  0  0  0  0  0  0  0
   10.0249  -17.3465   26.2031 C   0  0  0  0  0  0  0  0  0  0  0  0
   10.0027  -18.4489   25.3778 O   0  0  0  0  0  0  0  0  0  0  0  0
   10.7229  -17.4022   27.2500 O   0  0  0  0  0  0  0  0  0  0  0  0
  2  1  1  1
  3  2  1  0
  4  3  1  0
  5  4  1  0
  6  5  1  0
  7  6  1  0
  8 15  1  0
  8  2  1  0
  9  8  2  0
 10 11  1  0
 11 12  1  0
 13 12  1  0
 14 13  1  1
 14 15  1  0
 16 18  1  0
 16 14  1  0
 17 16  2  0
 19 18  1  0
 19 27  1  0
 19 20  1  1
 21 22  2  0
 21 20  1  0
 23 22  1  0
 24 23  2  0
 25 24  1  0
 25 26  2  0
 26 21  1  0
 27 28  1  0
 29 27  2  0
M  END
$$$$
