KMF.pdb
     RDKit          3D

 29 29  0  0  1  0  0  0  0  0999 V2000
    9.6739  -18.9434   20.0615 N   0  0  0  0  0  0  0  0  0  0  0  0
   10.7854  -18.1178   20.0194 C   0  0  1  0  0  0  0  0  0  0  0  0
   11.4722  -17.6823   18.8193 C   0  0  0  0  0  0  0  0  0  0  0  0
   11.4777  -18.3756   17.5614 C   0  0  0  0  0  0  0  0  0  0  0  0
   10.9833  -17.9230   16.2994 C   0  0  0  0  0  0  0  0  0  0  0  0
   10.9022  -18.6622   15.0543 C   0  0  0  0  0  0  0  0  0  0  0  0
   10.0113  -19.7400   14.9246 N   0  0  0  0  0  0  0  0  0  0  0  0
   10.5161  -16.8648   20.8732 C   0  0  0  0  0  0  0  0  0  0  0  0
   11.4256  -16.0191   20.9837 O   0  0  0  0  0  0  0  0  0  0  0  0
    8.7562  -11.7331   19.9290 C   0  0  0  0  0  0  0  0  0  0  0  0
    7.3437  -12.8455   19.8351 S   0  0  0  0  0  0  0  0  0  0  0  0
    7.8671  -14.5533   20.2029 C   0  0  0  0  0  0  0  0  0  0  0  0
    7.7795  -14.7326   21.6907 C   0  0  0  0  0  0  0  0  0  0  0  0
    8.9784  -15.4476   22.2712 C   0  0  2  0  0  0  0  0  0  0  0  0
    9.2897  -16.6568   21.5188 N   0  0  0  0  0  0  0  0  0  0  0  0
    8.8014  -15.8163   23.6760 C   0  0  0  0  0  0  0  0  0  0  0  0
    7.9637  -16.6761   24.0320 O   0  0  0  0  0  0  0  0  0  0  0  0
    9.5904  -15.1940   24.6760 N   0  0  0  0  0  0  0  0  0  0  0  0
    9.4386  -15.4998   26.0977 C   0  0  1  0  0  0  0  0  0  0  0  0
    7.9856  -15.4845   26.4394 C   0  0  0  0  0  0  0  0  0  0  0  0
    7.3491  -14.1581   26.4109 C   0  0  0  0  0  0  0  0  0  0  0  0
    6.0562  -14.0171   25.9375 C   0  0  0  0  0  0  0  0  0  0  0  0
    5.3903  -12.8142   25.8842 C   0  0  0  0  0  0  0  0  0  0  0  0
    6.0418  -11.6827   26.3251 C   0  0  0  0  0  0  0  0  0  0  0  0
    7.3370  -11.7980   26.8035 C   0  0  0  0  0  0  0  0  0  0  0  0
    7.9879  -13.0110   26.8494 C   0  0  0  0  0  0  0  0  0  0  0  0
   10.0606  -16.8086   26.3968 C   0  0  0  0  0  0  0  0  0  0  0  0
   10.6709  -17.5704   25.4252 O   0  0  0  0  0  0  0  0  0  0  0  0
   10.0383  -17.2548   27.5744 O   0  0  0  0  0  0  0  0  0  0  0  0
  2  1  1  6
  3  2  1  0
  4  3  1  0
  5  4  1  0
  6  5  1  0
  7  6  1  0
  8 15  1  0
  8  2  1  0
  9  8  2  0
 10 11  1  0
 11 12  1  0
 13 12  1  0
 14 13  1  6
 14 15  1  0
 16 18  1  0
 16 14  1  0
 17 16  2  0
 19 18  1  0
 19 27  1  0
 19 20  1  6
 21 22  2  0
 21 20  1  0
 23 22  1  0
 24 23  2  0
 25 24  1  0
 25 26  2  0
 26 21  1  0
 27 28  1  0
 29 27  2  0
M  END
$$$$
