QVG.pdb
     RDKit          3D

 21 20  0  0  1  0  0  0  0  0999 V2000
    8.0051  -20.2274   21.1874 N   0  0  0  0  0  0  0  0  0  0  0  0
    7.8730  -18.8676   20.8012 C   0  0  0  0  0  0  0  0  0  0  0  0
    8.6611  -18.4522   19.8987 O   0  0  0  0  0  0  0  0  0  0  0  0
    6.8911  -17.9485   21.3857 C   0  0  0  0  0  0  0  0  0  0  0  0
    7.5107  -17.1807   22.5316 C   0  0  0  0  0  0  0  0  0  0  0  0
    7.3981  -15.6892   22.3071 C   0  0  2  0  0  0  0  0  0  0  0  0
    8.0343  -15.3564   21.0520 N   0  0  0  0  0  0  0  0  0  0  0  0
    8.0147  -14.9116   23.3981 C   0  0  0  0  0  0  0  0  0  0  0  0
    9.2122  -14.5183   23.3753 O   0  0  0  0  0  0  0  0  0  0  0  0
    6.1381  -11.9314   25.0068 C   0  0  0  0  0  0  0  0  0  0  0  0
    6.6884  -12.7854   26.0830 C   0  0  2  0  0  0  0  0  0  0  0  0
    7.0150  -12.0281   27.3455 C   0  0  0  0  0  0  0  0  0  0  0  0
    7.7735  -13.6901   25.6142 C   0  0  2  0  0  0  0  0  0  0  0  0
    7.2473  -14.5742   24.5430 N   0  0  0  0  0  0  0  0  0  0  0  0
    8.4736  -14.4881   26.6186 C   0  0  0  0  0  0  0  0  0  0  0  0
    9.1023  -13.8532   27.5507 O   0  0  0  0  0  0  0  0  0  0  0  0
    8.5559  -15.8854   26.7128 N   0  0  0  0  0  0  0  0  0  0  0  0
    9.1690  -16.5579   27.8345 C   0  0  0  0  0  0  0  0  0  0  0  0
   10.5634  -16.9387   27.5062 C   0  0  0  0  0  0  0  0  0  0  0  0
   11.1001  -16.6287   26.4118 O   0  0  0  0  0  0  0  0  0  0  0  0
   11.3329  -17.6599   28.4080 O   0  0  0  0  0  0  0  0  0  0  0  0
  2  1  1  0
  2  3  2  0
  4  2  1  0
  5  4  1  0
  6  5  1  0
  6  7  1  6
  8  6  1  0
  8  9  2  0
 11 10  1  6
 11 13  1  0
 12 11  1  0
 13 14  1  6
 14  8  1  0
 15 13  1  0
 15 17  1  0
 16 15  2  0
 18 17  1  0
 18 19  1  0
 19 20  2  0
 19 21  1  0
M  END
$$$$
