QVG.pdb
     RDKit          3D

 21 20  0  0  1  0  0  0  0  0999 V2000
    6.3468  -17.6619   18.8089 N   0  0  0  0  0  0  0  0  0  0  0  0
    6.8286  -18.0020   20.1004 C   0  0  0  0  0  0  0  0  0  0  0  0
    7.9992  -18.4858   20.1630 O   0  0  0  0  0  0  0  0  0  0  0  0
    6.0513  -17.8226   21.3309 C   0  0  0  0  0  0  0  0  0  0  0  0
    6.8961  -17.1506   22.3899 C   0  0  0  0  0  0  0  0  0  0  0  0
    6.6058  -15.6675   22.4529 C   0  0  2  0  0  0  0  0  0  0  0  0
    6.7938  -15.0984   21.1370 N   0  0  0  0  0  0  0  0  0  0  0  0
    7.4692  -14.9698   23.4239 C   0  0  0  0  0  0  0  0  0  0  0  0
    8.6303  -14.5631   23.1490 O   0  0  0  0  0  0  0  0  0  0  0  0
    6.6448  -11.9883   25.4377 C   0  0  0  0  0  0  0  0  0  0  0  0
    7.1304  -12.9840   26.4191 C   0  0  2  0  0  0  0  0  0  0  0  0
    7.8445  -12.3703   27.5970 C   0  0  0  0  0  0  0  0  0  0  0  0
    7.8554  -14.1208   25.7885 C   0  0  2  0  0  0  0  0  0  0  0  0
    6.9972  -14.7299   24.7404 N   0  0  0  0  0  0  0  0  0  0  0  0
    8.3812  -15.1626   26.6684 C   0  0  0  0  0  0  0  0  0  0  0  0
    7.5273  -15.9372   27.2497 O   0  0  0  0  0  0  0  0  0  0  0  0
    9.7210  -15.4453   26.9734 N   0  0  0  0  0  0  0  0  0  0  0  0
   10.1133  -16.5459   27.8226 C   0  0  0  0  0  0  0  0  0  0  0  0
   11.5839  -16.5540   28.0077 C   0  0  0  0  0  0  0  0  0  0  0  0
   12.3793  -16.4597   27.0380 O   0  0  0  0  0  0  0  0  0  0  0  0
   12.1389  -16.6674   29.2744 O   0  0  0  0  0  0  0  0  0  0  0  0
  2  1  1  0
  2  3  2  0
  4  2  1  0
  5  4  1  0
  6  5  1  0
  6  7  1  6
  8  6  1  0
  8  9  2  0
 11 10  1  6
 11 13  1  0
 12 11  1  0
 13 14  1  6
 14  8  1  0
 15 13  1  0
 15 17  1  0
 16 15  2  0
 18 17  1  0
 18 19  1  0
 19 20  2  0
 19 21  1  0
M  END
$$$$
