QVG.pdb
     RDKit          3D

 21 20  0  0  1  0  0  0  0  0999 V2000
    8.3928  -19.1176   20.4554 N   0  0  0  0  0  0  0  0  0  0  0  0
    7.2956  -18.4711   19.8277 C   0  0  0  0  0  0  0  0  0  0  0  0
    6.8193  -19.0308   18.7943 O   0  0  0  0  0  0  0  0  0  0  0  0
    6.7063  -17.2182   20.3106 C   0  0  0  0  0  0  0  0  0  0  0  0
    7.3851  -16.7791   21.5886 C   0  0  0  0  0  0  0  0  0  0  0  0
    6.7287  -15.5380   22.1511 C   0  0  2  0  0  0  0  0  0  0  0  0
    6.5566  -14.5766   21.0849 N   0  0  0  0  0  0  0  0  0  0  0  0
    7.5168  -14.9345   23.2419 C   0  0  0  0  0  0  0  0  0  0  0  0
    8.7502  -14.6903   23.1501 O   0  0  0  0  0  0  0  0  0  0  0  0
    6.5491  -11.8902   25.1524 C   0  0  0  0  0  0  0  0  0  0  0  0
    6.9166  -12.8869   26.1828 C   0  0  2  0  0  0  0  0  0  0  0  0
    7.5639  -12.2816   27.4029 C   0  0  0  0  0  0  0  0  0  0  0  0
    7.6395  -14.0633   25.6267 C   0  0  2  0  0  0  0  0  0  0  0  0
    6.8832  -14.6014   24.4671 N   0  0  0  0  0  0  0  0  0  0  0  0
    7.9794  -15.1479   26.5454 C   0  0  0  0  0  0  0  0  0  0  0  0
    7.0055  -15.7465   27.1457 O   0  0  0  0  0  0  0  0  0  0  0  0
    9.2515  -15.6422   26.8706 N   0  0  0  0  0  0  0  0  0  0  0  0
    9.4620  -16.6512   27.8825 C   0  0  0  0  0  0  0  0  0  0  0  0
   10.9093  -16.9334   28.0340 C   0  0  0  0  0  0  0  0  0  0  0  0
   11.3422  -17.7749   28.8624 O   0  0  0  0  0  0  0  0  0  0  0  0
   11.8468  -16.2691   27.2561 O   0  0  0  0  0  0  0  0  0  0  0  0
  2  1  1  0
  2  3  2  0
  4  2  1  0
  5  4  1  0
  6  5  1  0
  6  7  1  6
  8  6  1  0
  8  9  2  0
 11 10  1  6
 11 13  1  0
 12 11  1  0
 13 14  1  6
 14  8  1  0
 15 13  1  0
 15 17  1  0
 16 15  2  0
 18 17  1  0
 18 19  1  0
 19 20  2  0
 19 21  1  0
M  END
$$$$
