QVG.pdb
     RDKit          3D

 21 20  0  0  1  0  0  0  0  0999 V2000
    7.6479  -12.7415   17.3809 N   0  0  0  0  0  0  0  0  0  0  0  0
    8.2190  -13.7594   18.1892 C   0  0  0  0  0  0  0  0  0  0  0  0
    9.4108  -14.0993   17.9205 O   0  0  0  0  0  0  0  0  0  0  0  0
    7.5086  -14.4162   19.2912 C   0  0  0  0  0  0  0  0  0  0  0  0
    7.7832  -13.6972   20.5929 C   0  0  0  0  0  0  0  0  0  0  0  0
    7.6227  -14.6315   21.7714 C   0  0  2  0  0  0  0  0  0  0  0  0
    6.3294  -15.2726   21.6866 N   0  0  0  0  0  0  0  0  0  0  0  0
    7.7454  -13.9290   23.0623 C   0  0  0  0  0  0  0  0  0  0  0  0
    7.4256  -12.7204   23.2246 O   0  0  0  0  0  0  0  0  0  0  0  0
    6.7134  -12.2059   24.8982 C   0  0  0  0  0  0  0  0  0  0  0  0
    7.0029  -13.3225   25.8253 C   0  0  2  0  0  0  0  0  0  0  0  0
    6.7909  -12.9712   27.2764 C   0  0  0  0  0  0  0  0  0  0  0  0
    8.2997  -13.9963   25.5421 C   0  0  2  0  0  0  0  0  0  0  0  0
    8.2447  -14.6213   24.1958 N   0  0  0  0  0  0  0  0  0  0  0  0
    8.7894  -14.9651   26.5206 C   0  0  0  0  0  0  0  0  0  0  0  0
    9.0804  -14.5253   27.6992 O   0  0  0  0  0  0  0  0  0  0  0  0
    8.9891  -16.3434   26.3512 N   0  0  0  0  0  0  0  0  0  0  0  0
    9.4291  -17.2063   27.4227 C   0  0  0  0  0  0  0  0  0  0  0  0
   10.8883  -17.4471   27.3228 C   0  0  0  0  0  0  0  0  0  0  0  0
   11.4877  -18.2429   28.0904 O   0  0  0  0  0  0  0  0  0  0  0  0
   11.6513  -16.7931   26.3660 O   0  0  0  0  0  0  0  0  0  0  0  0
  2  1  1  0
  2  3  2  0
  4  2  1  0
  5  4  1  0
  6  5  1  0
  6  7  1  1
  8  6  1  0
  8  9  2  0
 11 10  1  6
 11 13  1  0
 12 11  1  0
 13 14  1  6
 14  8  1  0
 15 13  1  0
 15 17  1  0
 16 15  2  0
 18 17  1  0
 18 19  1  0
 19 20  2  0
 19 21  1  0
M  END
$$$$
