QVG.pdb
     RDKit          3D

 21 20  0  0  1  0  0  0  0  0999 V2000
    7.7983  -22.2271   18.1439 N   0  0  0  0  0  0  0  0  0  0  0  0
    8.6217  -21.0893   18.3511 C   0  0  0  0  0  0  0  0  0  0  0  0
    9.7987  -21.1443   17.8822 O   0  0  0  0  0  0  0  0  0  0  0  0
    8.1810  -19.8864   19.0647 C   0  0  0  0  0  0  0  0  0  0  0  0
    9.3146  -18.8901   19.1602 C   0  0  0  0  0  0  0  0  0  0  0  0
    9.0355  -17.6698   18.3112 C   0  0  2  0  0  0  0  0  0  0  0  0
    9.7943  -17.7708   17.0845 N   0  0  0  0  0  0  0  0  0  0  0  0
    9.3789  -16.4151   19.0060 C   0  0  0  0  0  0  0  0  0  0  0  0
   10.5207  -15.8837   18.9490 O   0  0  0  0  0  0  0  0  0  0  0  0
    7.2354  -13.2041   18.7985 C   0  0  0  0  0  0  0  0  0  0  0  0
    7.4672  -13.5518   20.2182 C   0  0  2  0  0  0  0  0  0  0  0  0
    7.4128  -12.3643   21.1460 C   0  0  0  0  0  0  0  0  0  0  0  0
    8.6513  -14.4312   20.4189 C   0  0  2  0  0  0  0  0  0  0  0  0
    8.3967  -15.7500   19.7847 N   0  0  0  0  0  0  0  0  0  0  0  0
    9.1321  -14.6212   21.7859 C   0  0  0  0  0  0  0  0  0  0  0  0
    9.5696  -13.5807   22.4128 O   0  0  0  0  0  0  0  0  0  0  0  0
    9.1821  -15.8093   22.5302 N   0  0  0  0  0  0  0  0  0  0  0  0
    9.6835  -15.8624   23.8838 C   0  0  0  0  0  0  0  0  0  0  0  0
   11.1437  -16.1176   23.8817 C   0  0  0  0  0  0  0  0  0  0  0  0
   11.7807  -16.3420   22.8207 O   0  0  0  0  0  0  0  0  0  0  0  0
   11.8656  -16.1173   25.0667 O   0  0  0  0  0  0  0  0  0  0  0  0
  2  1  1  0
  2  3  2  0
  4  2  1  0
  5  4  1  0
  6  5  1  0
  6  7  1  6
  8  6  1  0
  8  9  2  0
 11 10  1  6
 11 13  1  0
 12 11  1  0
 13 14  1  1
 14  8  1  0
 15 13  1  0
 15 17  1  0
 16 15  2  0
 18 17  1  0
 18 19  1  0
 19 20  2  0
 19 21  1  0
M  END
$$$$
