QVG.pdb
     RDKit          3D

 21 20  0  0  1  0  0  0  0  0999 V2000
    9.0967  -18.0175   18.9965 N   0  0  0  0  0  0  0  0  0  0  0  0
    8.1109  -18.3465   19.9639 C   0  0  0  0  0  0  0  0  0  0  0  0
    8.1001  -19.5435   20.3825 O   0  0  0  0  0  0  0  0  0  0  0  0
    7.1319  -17.3872   20.4851 C   0  0  0  0  0  0  0  0  0  0  0  0
    7.6581  -16.7341   21.7434 C   0  0  0  0  0  0  0  0  0  0  0  0
    6.8877  -15.4718   22.0606 C   0  0  2  0  0  0  0  0  0  0  0  0
    6.6458  -14.7507   20.8308 N   0  0  0  0  0  0  0  0  0  0  0  0
    7.6052  -14.6035   23.0127 C   0  0  0  0  0  0  0  0  0  0  0  0
    8.5396  -13.8287   22.6725 O   0  0  0  0  0  0  0  0  0  0  0  0
    5.7996  -12.3354   25.4704 C   0  0  0  0  0  0  0  0  0  0  0  0
    6.8023  -13.1117   26.2335 C   0  0  2  0  0  0  0  0  0  0  0  0
    7.3180  -12.3936   27.4551 C   0  0  0  0  0  0  0  0  0  0  0  0
    7.8666  -13.6971   25.3730 C   0  0  2  0  0  0  0  0  0  0  0  0
    7.2486  -14.6190   24.3860 N   0  0  0  0  0  0  0  0  0  0  0  0
    8.9888  -14.3581   26.0362 C   0  0  0  0  0  0  0  0  0  0  0  0
    9.7401  -13.6346   26.7974 O   0  0  0  0  0  0  0  0  0  0  0  0
    9.3697  -15.7061   25.9591 N   0  0  0  0  0  0  0  0  0  0  0  0
   10.5068  -16.2385   26.6733 C   0  0  0  0  0  0  0  0  0  0  0  0
   10.0647  -17.2466   27.6659 C   0  0  0  0  0  0  0  0  0  0  0  0
    8.8577  -17.5781   27.7885 O   0  0  0  0  0  0  0  0  0  0  0  0
   10.9807  -17.8661   28.5041 O   0  0  0  0  0  0  0  0  0  0  0  0
  2  1  1  0
  2  3  2  0
  4  2  1  0
  5  4  1  0
  6  5  1  0
  6  7  1  6
  8  6  1  0
  8  9  2  0
 11 10  1  6
 11 13  1  0
 12 11  1  0
 13 14  1  6
 14  8  1  0
 15 13  1  0
 15 17  1  0
 16 15  2  0
 18 17  1  0
 18 19  1  0
 19 20  2  0
 19 21  1  0
M  END
$$$$
