QVG.pdb
     RDKit          3D

 21 20  0  0  1  0  0  0  0  0999 V2000
    8.2962  -18.2736   28.0175 N   0  0  0  0  0  0  0  0  0  0  0  0
    7.9110  -19.6118   27.7405 C   0  0  0  0  0  0  0  0  0  0  0  0
    8.5239  -20.5240   28.3732 O   0  0  0  0  0  0  0  0  0  0  0  0
    6.8634  -19.9736   26.7804 C   0  0  0  0  0  0  0  0  0  0  0  0
    7.1290  -19.3171   25.4443 C   0  0  0  0  0  0  0  0  0  0  0  0
    6.0234  -18.3483   25.0882 C   0  0  2  0  0  0  0  0  0  0  0  0
    5.2108  -18.9303   24.0433 N   0  0  0  0  0  0  0  0  0  0  0  0
    6.5459  -17.0432   24.6423 C   0  0  0  0  0  0  0  0  0  0  0  0
    6.7564  -16.7599   23.4320 O   0  0  0  0  0  0  0  0  0  0  0  0
    5.4420  -13.5047   25.8637 C   0  0  0  0  0  0  0  0  0  0  0  0
    6.9037  -13.6526   26.0419 C   0  0  2  0  0  0  0  0  0  0  0  0
    7.6568  -12.3494   25.9494 C   0  0  0  0  0  0  0  0  0  0  0  0
    7.4837  -14.7537   25.2252 C   0  0  2  0  0  0  0  0  0  0  0  0
    6.8357  -16.0366   25.5995 N   0  0  0  0  0  0  0  0  0  0  0  0
    8.9368  -14.9102   25.2307 C   0  0  0  0  0  0  0  0  0  0  0  0
    9.5076  -15.1277   26.3683 O   0  0  0  0  0  0  0  0  0  0  0  0
    9.8187  -14.8579   24.1409 N   0  0  0  0  0  0  0  0  0  0  0  0
   11.2546  -14.8584   24.2974 C   0  0  0  0  0  0  0  0  0  0  0  0
   11.8510  -16.0030   23.5684 C   0  0  0  0  0  0  0  0  0  0  0  0
   11.2678  -17.1136   23.4775 O   0  0  0  0  0  0  0  0  0  0  0  0
   13.0895  -15.8850   22.9539 O   0  0  0  0  0  0  0  0  0  0  0  0
  2  1  1  0
  2  3  2  0
  4  2  1  0
  5  4  1  0
  6  5  1  0
  6  7  1  6
  8  6  1  0
  8  9  2  0
 11 10  1  6
 11 13  1  0
 12 11  1  0
 13 14  1  1
 14  8  1  0
 15 13  1  0
 15 17  1  0
 16 15  2  0
 18 17  1  0
 18 19  1  0
 19 20  2  0
 19 21  1  0
M  END
$$$$
