EEW.pdb
     RDKit          3D

 33 34  0  0  1  0  0  0  0  0999 V2000
   23.9376  -15.4282  -22.9762 N   0  0  0  0  0  0  0  0  0  0  0  0
   24.5664  -16.1548  -21.8482 C   0  0  1  0  0  0  0  0  0  0  0  0
   25.3016  -15.0957  -21.0704 C   0  0  0  0  0  0  0  0  0  0  0  0
   26.5186  -14.6393  -21.8136 C   0  0  0  0  0  0  0  0  0  0  0  0
   27.1924  -13.5090  -21.1038 C   0  0  0  0  0  0  0  0  0  0  0  0
   26.7437  -13.0792  -20.0114 O   0  0  0  0  0  0  0  0  0  0  0  0
   23.4731  -16.7652  -21.0316 C   0  0  0  0  0  0  0  0  0  0  0  0
   22.5184  -16.0874  -20.6320 O   0  0  0  0  0  0  0  0  0  0  0  0
   28.3165  -12.9132  -21.6271 O   0  0  0  0  0  0  0  0  0  0  0  0
   23.4774  -18.1435  -20.6775 N   0  0  0  0  0  0  0  0  0  0  0  0
   22.4947  -18.7122  -19.7720 C   0  0  1  0  0  0  0  0  0  0  0  0
   21.8478  -19.8429  -20.4847 C   0  0  0  0  0  0  0  0  0  0  0  0
   20.8251  -20.6338  -19.7660 C   0  0  0  0  0  0  0  0  0  0  0  0
   21.1508  -21.3556  -18.5696 C   0  0  0  0  0  0  0  0  0  0  0  0
   20.8444  -21.0003  -17.4267 O   0  0  0  0  0  0  0  0  0  0  0  0
   22.9270  -18.8990  -18.4012 C   0  0  0  0  0  0  0  0  0  0  0  0
   23.9556  -19.5761  -18.1406 O   0  0  0  0  0  0  0  0  0  0  0  0
   21.8619  -22.5446  -18.6675 O   0  0  0  0  0  0  0  0  0  0  0  0
   22.2652  -18.3571  -17.2659 N   0  0  0  0  0  0  0  0  0  0  0  0
   22.7311  -18.5327  -15.9113 C   0  0  1  0  0  0  0  0  0  0  0  0
   23.4896  -17.2845  -15.5424 C   0  0  0  0  0  0  0  0  0  0  0  0
   24.8756  -17.2533  -16.0054 C   0  0  0  0  0  0  0  0  0  0  0  0
   25.4089  -16.5395  -17.0595 C   0  0  0  0  0  0  0  0  0  0  0  0
   26.7284  -16.7933  -17.1466 N   0  0  0  0  0  0  0  0  0  0  0  0
   27.0490  -17.6660  -16.1558 C   0  0  0  0  0  0  0  0  0  0  0  0
   28.2597  -18.2341  -15.8174 C   0  0  0  0  0  0  0  0  0  0  0  0
   28.3836  -19.1141  -14.7570 C   0  0  0  0  0  0  0  0  0  0  0  0
   27.2488  -19.4171  -14.0316 C   0  0  0  0  0  0  0  0  0  0  0  0
   26.0394  -18.8412  -14.3803 C   0  0  0  0  0  0  0  0  0  0  0  0
   25.9113  -17.9631  -15.4368 C   0  0  0  0  0  0  0  0  0  0  0  0
   21.5986  -18.8165  -15.0349 C   0  0  0  0  0  0  0  0  0  0  0  0
   20.4054  -18.9042  -15.4239 O   0  0  0  0  0  0  0  0  0  0  0  0
   21.8099  -19.0108  -13.6633 O   0  0  0  0  0  0  0  0  0  0  0  0
  2  1  1  6
  2  3  1  0
  3  4  1  0
  4  5  1  0
  5  9  1  0
  6  5  2  0
  7  2  1  0
  7  8  2  0
 10  7  1  0
 11 10  1  0
 11 12  1  6
 13 12  1  0
 13 14  1  0
 14 15  2  0
 16 11  1  0
 17 16  2  0
 18 14  1  0
 19 16  1  0
 20 21  1  1
 20 19  1  0
 22 21  1  0
 23 22  2  0
 24 25  1  0
 24 23  1  0
 25 30  2  0
 26 27  2  0
 26 25  1  0
 27 28  1  0
 28 29  2  0
 30 29  1  0
 30 22  1  0
 31 20  1  0
 32 31  2  0
 33 31  1  0
M  END
$$$$
