EEW.pdb
     RDKit          3D

 33 34  0  0  1  0  0  0  0  0999 V2000
   19.3752  -20.0385  -13.2329 N   0  0  0  0  0  0  0  0  0  0  0  0
   20.6420  -19.3176  -13.5001 C   0  0  1  0  0  0  0  0  0  0  0  0
   20.4695  -17.9775  -12.8357 C   0  0  0  0  0  0  0  0  0  0  0  0
   19.5296  -17.1136  -13.6179 C   0  0  0  0  0  0  0  0  0  0  0  0
   18.1160  -17.3140  -13.1743 C   0  0  0  0  0  0  0  0  0  0  0  0
   17.8026  -17.2045  -11.9621 O   0  0  0  0  0  0  0  0  0  0  0  0
   21.7522  -20.0955  -12.8698 C   0  0  0  0  0  0  0  0  0  0  0  0
   21.7352  -20.3722  -11.6641 O   0  0  0  0  0  0  0  0  0  0  0  0
   17.1264  -17.6225  -14.0787 O   0  0  0  0  0  0  0  0  0  0  0  0
   22.8724  -20.5515  -13.6196 N   0  0  0  0  0  0  0  0  0  0  0  0
   23.9350  -21.3392  -13.0202 C   0  0  1  0  0  0  0  0  0  0  0  0
   24.5019  -22.1950  -14.0932 C   0  0  0  0  0  0  0  0  0  0  0  0
   25.5011  -23.2199  -13.7205 C   0  0  0  0  0  0  0  0  0  0  0  0
   25.0976  -24.5299  -13.2965 C   0  0  0  0  0  0  0  0  0  0  0  0
   25.5243  -25.1080  -12.2914 O   0  0  0  0  0  0  0  0  0  0  0  0
   24.8373  -20.6237  -12.1400 C   0  0  0  0  0  0  0  0  0  0  0  0
   25.2031  -19.4508  -12.4136 O   0  0  0  0  0  0  0  0  0  0  0  0
   24.1604  -25.2270  -14.0480 O   0  0  0  0  0  0  0  0  0  0  0  0
   25.3715  -21.1494  -10.9321 N   0  0  0  0  0  0  0  0  0  0  0  0
   26.4496  -20.5295  -10.1999 C   0  0  1  0  0  0  0  0  0  0  0  0
   26.0045  -20.4288   -8.7642 C   0  0  0  0  0  0  0  0  0  0  0  0
   26.8994  -19.6610   -7.9003 C   0  0  0  0  0  0  0  0  0  0  0  0
   27.3737  -18.3782   -8.0853 C   0  0  0  0  0  0  0  0  0  0  0  0
   28.1731  -18.0460   -7.0540 N   0  0  0  0  0  0  0  0  0  0  0  0
   28.2172  -19.1064   -6.2055 C   0  0  0  0  0  0  0  0  0  0  0  0
   28.8886  -19.2733   -5.0120 C   0  0  0  0  0  0  0  0  0  0  0  0
   28.8050  -20.4468   -4.2839 C   0  0  0  0  0  0  0  0  0  0  0  0
   28.0210  -21.4658   -4.7866 C   0  0  0  0  0  0  0  0  0  0  0  0
   27.3520  -21.2871   -5.9851 C   0  0  0  0  0  0  0  0  0  0  0  0
   27.4324  -20.1187   -6.7144 C   0  0  0  0  0  0  0  0  0  0  0  0
   27.6761  -21.2991  -10.3854 C   0  0  0  0  0  0  0  0  0  0  0  0
   27.7173  -22.4652  -10.8558 O   0  0  0  0  0  0  0  0  0  0  0  0
   28.9108  -20.7400  -10.0295 O   0  0  0  0  0  0  0  0  0  0  0  0
  2  1  1  1
  2  3  1  0
  3  4  1  0
  4  5  1  0
  5  9  1  0
  6  5  2  0
  7  2  1  0
  7  8  2  0
 10  7  1  0
 11 10  1  0
 11 12  1  6
 13 12  1  0
 13 14  1  0
 14 15  2  0
 16 11  1  0
 17 16  2  0
 18 14  1  0
 19 16  1  0
 20 21  1  1
 20 19  1  0
 22 21  1  0
 23 22  2  0
 24 25  1  0
 24 23  1  0
 25 30  2  0
 26 27  2  0
 26 25  1  0
 27 28  1  0
 28 29  2  0
 30 29  1  0
 30 22  1  0
 31 20  1  0
 32 31  2  0
 33 31  1  0
M  END
$$$$
