EEW.pdb
     RDKit          3D

 33 34  0  0  1  0  0  0  0  0999 V2000
   28.0994  -22.9877  -17.8451 N   0  0  0  0  0  0  0  0  0  0  0  0
   29.2228  -22.4731  -17.0272 C   0  0  1  0  0  0  0  0  0  0  0  0
   30.1163  -21.7590  -18.0064 C   0  0  0  0  0  0  0  0  0  0  0  0
   29.9262  -22.2983  -19.3901 C   0  0  0  0  0  0  0  0  0  0  0  0
   30.6518  -23.5932  -19.5694 C   0  0  0  0  0  0  0  0  0  0  0  0
   30.0355  -24.6870  -19.5116 O   0  0  0  0  0  0  0  0  0  0  0  0
   28.6574  -21.5249  -16.0191 C   0  0  0  0  0  0  0  0  0  0  0  0
   29.3955  -20.8601  -15.2817 O   0  0  0  0  0  0  0  0  0  0  0  0
   32.0075  -23.6196  -19.8012 O   0  0  0  0  0  0  0  0  0  0  0  0
   27.2551  -21.3424  -15.8605 N   0  0  0  0  0  0  0  0  0  0  0  0
   26.6965  -20.5376  -14.7885 C   0  0  1  0  0  0  0  0  0  0  0  0
   25.8381  -19.5040  -15.4207 C   0  0  0  0  0  0  0  0  0  0  0  0
   24.9172  -18.7317  -14.5586 C   0  0  0  0  0  0  0  0  0  0  0  0
   23.4947  -18.8839  -14.6687 C   0  0  0  0  0  0  0  0  0  0  0  0
   22.8194  -18.5165  -15.6358 O   0  0  0  0  0  0  0  0  0  0  0  0
   26.1913  -21.2676  -13.6428 C   0  0  0  0  0  0  0  0  0  0  0  0
   25.4050  -22.2382  -13.7977 O   0  0  0  0  0  0  0  0  0  0  0  0
   22.7947  -19.4839  -13.6300 O   0  0  0  0  0  0  0  0  0  0  0  0
   26.5219  -20.9768  -12.2912 N   0  0  0  0  0  0  0  0  0  0  0  0
   26.0670  -21.7648  -11.1710 C   0  0  1  0  0  0  0  0  0  0  0  0
   27.1924  -21.7957  -10.1699 C   0  0  0  0  0  0  0  0  0  0  0  0
   27.1123  -20.7719   -9.1298 C   0  0  0  0  0  0  0  0  0  0  0  0
   26.0870  -19.8811   -8.8843 C   0  0  0  0  0  0  0  0  0  0  0  0
   26.4123  -19.1071   -7.8317 N   0  0  0  0  0  0  0  0  0  0  0  0
   27.6405  -19.4931   -7.3972 C   0  0  0  0  0  0  0  0  0  0  0  0
   28.4141  -19.0202   -6.3574 C   0  0  0  0  0  0  0  0  0  0  0  0
   29.6578  -19.5537   -6.0699 C   0  0  0  0  0  0  0  0  0  0  0  0
   30.1165  -20.5883   -6.8603 C   0  0  0  0  0  0  0  0  0  0  0  0
   29.3318  -21.0546   -7.9008 C   0  0  0  0  0  0  0  0  0  0  0  0
   28.0910  -20.5257   -8.1911 C   0  0  0  0  0  0  0  0  0  0  0  0
   24.8256  -21.2033  -10.6469 C   0  0  0  0  0  0  0  0  0  0  0  0
   24.0980  -21.7683   -9.7900 O   0  0  0  0  0  0  0  0  0  0  0  0
   24.3783  -19.9554  -11.1009 O   0  0  0  0  0  0  0  0  0  0  0  0
  2  1  1  6
  2  3  1  0
  3  4  1  0
  4  5  1  0
  5  9  1  0
  6  5  2  0
  7  2  1  0
  7  8  2  0
 10  7  1  0
 11 10  1  0
 11 12  1  6
 13 12  1  0
 13 14  1  0
 14 15  2  0
 16 11  1  0
 17 16  2  0
 18 14  1  0
 19 16  1  0
 20 21  1  1
 20 19  1  0
 22 21  1  0
 23 22  2  0
 24 25  1  0
 24 23  1  0
 25 30  2  0
 26 27  2  0
 26 25  1  0
 27 28  1  0
 28 29  2  0
 30 29  1  0
 30 22  1  0
 31 20  1  0
 32 31  2  0
 33 31  1  0
M  END
$$$$
