EEW.pdb
     RDKit          3D

 33 34  0  0  1  0  0  0  0  0999 V2000
   19.2219  -21.2592  -13.9065 N   0  0  0  0  0  0  0  0  0  0  0  0
   20.2997  -20.2783  -13.6378 C   0  0  1  0  0  0  0  0  0  0  0  0
   19.9352  -19.6588  -12.3148 C   0  0  0  0  0  0  0  0  0  0  0  0
   18.9308  -18.5639  -12.4994 C   0  0  0  0  0  0  0  0  0  0  0  0
   17.6353  -19.1012  -13.0176 C   0  0  0  0  0  0  0  0  0  0  0  0
   16.8589  -18.3712  -13.6836 O   0  0  0  0  0  0  0  0  0  0  0  0
   21.5890  -21.0294  -13.5471 C   0  0  0  0  0  0  0  0  0  0  0  0
   21.7610  -21.9039  -12.6889 O   0  0  0  0  0  0  0  0  0  0  0  0
   17.2622  -20.4036  -12.7788 O   0  0  0  0  0  0  0  0  0  0  0  0
   22.6716  -20.7774  -14.4356 N   0  0  0  0  0  0  0  0  0  0  0  0
   23.9856  -21.3639  -14.2393 C   0  0  1  0  0  0  0  0  0  0  0  0
   24.6295  -21.4482  -15.5746 C   0  0  0  0  0  0  0  0  0  0  0  0
   23.8238  -21.1044  -16.7665 C   0  0  0  0  0  0  0  0  0  0  0  0
   24.4230  -21.0176  -18.0674 C   0  0  0  0  0  0  0  0  0  0  0  0
   24.4412  -21.9326  -18.8974 O   0  0  0  0  0  0  0  0  0  0  0  0
   24.7501  -20.8500  -13.1203 C   0  0  0  0  0  0  0  0  0  0  0  0
   24.1860  -20.1923  -12.2073 O   0  0  0  0  0  0  0  0  0  0  0  0
   25.0360  -19.8328  -18.4537 O   0  0  0  0  0  0  0  0  0  0  0  0
   26.1491  -21.0329  -12.9474 N   0  0  0  0  0  0  0  0  0  0  0  0
   26.9027  -20.4476  -11.8647 C   0  0  1  0  0  0  0  0  0  0  0  0
   26.6180  -21.2712  -10.6358 C   0  0  0  0  0  0  0  0  0  0  0  0
   27.3032  -20.8196   -9.4263 C   0  0  0  0  0  0  0  0  0  0  0  0
   26.7933  -20.0740   -8.3827 C   0  0  0  0  0  0  0  0  0  0  0  0
   27.7580  -19.8750   -7.4647 N   0  0  0  0  0  0  0  0  0  0  0  0
   28.8864  -20.4873   -7.9098 C   0  0  0  0  0  0  0  0  0  0  0  0
   30.1411  -20.5778   -7.3436 C   0  0  0  0  0  0  0  0  0  0  0  0
   31.1755  -21.2567   -7.9628 C   0  0  0  0  0  0  0  0  0  0  0  0
   30.9204  -21.8525   -9.1817 C   0  0  0  0  0  0  0  0  0  0  0  0
   29.6576  -21.7551   -9.7402 C   0  0  0  0  0  0  0  0  0  0  0  0
   28.6233  -21.0792   -9.1263 C   0  0  0  0  0  0  0  0  0  0  0  0
   28.3166  -20.3917  -12.2237 C   0  0  0  0  0  0  0  0  0  0  0  0
   29.0817  -19.4328  -11.9447 O   0  0  0  0  0  0  0  0  0  0  0  0
   28.9004  -21.4550  -12.9254 O   0  0  0  0  0  0  0  0  0  0  0  0
  2  1  1  1
  2  3  1  0
  3  4  1  0
  4  5  1  0
  5  9  1  0
  6  5  2  0
  7  2  1  0
  7  8  2  0
 10  7  1  0
 11 10  1  0
 11 12  1  6
 13 12  1  0
 13 14  1  0
 14 15  2  0
 16 11  1  0
 17 16  2  0
 18 14  1  0
 19 16  1  0
 20 21  1  1
 20 19  1  0
 22 21  1  0
 23 22  2  0
 24 25  1  0
 24 23  1  0
 25 30  2  0
 26 27  2  0
 26 25  1  0
 27 28  1  0
 28 29  2  0
 30 29  1  0
 30 22  1  0
 31 20  1  0
 32 31  2  0
 33 31  1  0
M  END
$$$$
