EEW.pdb
     RDKit          3D

 33 34  0  0  1  0  0  0  0  0999 V2000
   23.4453  -18.8985  -16.5561 N   0  0  0  0  0  0  0  0  0  0  0  0
   23.2042  -17.7457  -15.6567 C   0  0  1  0  0  0  0  0  0  0  0  0
   21.9186  -17.1359  -16.1489 C   0  0  0  0  0  0  0  0  0  0  0  0
   21.8562  -17.1625  -17.6445 C   0  0  0  0  0  0  0  0  0  0  0  0
   20.8370  -18.1451  -18.1251 C   0  0  0  0  0  0  0  0  0  0  0  0
   19.7216  -18.2432  -17.5542 O   0  0  0  0  0  0  0  0  0  0  0  0
   23.0553  -18.2742  -14.2662 C   0  0  0  0  0  0  0  0  0  0  0  0
   22.7813  -17.5229  -13.3222 O   0  0  0  0  0  0  0  0  0  0  0  0
   21.0939  -18.9638  -19.2004 O   0  0  0  0  0  0  0  0  0  0  0  0
   23.2199  -19.6549  -13.9636 N   0  0  0  0  0  0  0  0  0  0  0  0
   23.2554  -20.1483  -12.5983 C   0  0  1  0  0  0  0  0  0  0  0  0
   22.1618  -21.1440  -12.4657 C   0  0  0  0  0  0  0  0  0  0  0  0
   20.7758  -20.6498  -12.3154 C   0  0  0  0  0  0  0  0  0  0  0  0
   20.3676  -19.9302  -11.1431 C   0  0  0  0  0  0  0  0  0  0  0  0
   19.8221  -18.8217  -11.1510 O   0  0  0  0  0  0  0  0  0  0  0  0
   24.5675  -20.4696  -12.0727 C   0  0  0  0  0  0  0  0  0  0  0  0
   25.4266  -21.0364  -12.7973 O   0  0  0  0  0  0  0  0  0  0  0  0
   20.5868  -20.4920   -9.8921 O   0  0  0  0  0  0  0  0  0  0  0  0
   24.9974  -20.1854  -10.7479 N   0  0  0  0  0  0  0  0  0  0  0  0
   26.2666  -20.6142  -10.2115 C   0  0  1  0  0  0  0  0  0  0  0  0
   26.7137  -19.5535   -9.2396 C   0  0  0  0  0  0  0  0  0  0  0  0
   27.9076  -19.8960   -8.4690 C   0  0  0  0  0  0  0  0  0  0  0  0
   29.1351  -20.3190   -8.9373 C   0  0  0  0  0  0  0  0  0  0  0  0
   29.9615  -20.5275   -7.8949 N   0  0  0  0  0  0  0  0  0  0  0  0
   29.2747  -20.2417   -6.7578 C   0  0  0  0  0  0  0  0  0  0  0  0
   29.6660  -20.2939   -5.4360 C   0  0  0  0  0  0  0  0  0  0  0  0
   28.8065  -19.9581   -4.4051 C   0  0  0  0  0  0  0  0  0  0  0  0
   27.5254  -19.5626   -4.7336 C   0  0  0  0  0  0  0  0  0  0  0  0
   27.1437  -19.5141   -6.0633 C   0  0  0  0  0  0  0  0  0  0  0  0
   27.9975  -19.8479   -7.0944 C   0  0  0  0  0  0  0  0  0  0  0  0
   26.1261  -21.9396   -9.6158 C   0  0  0  0  0  0  0  0  0  0  0  0
   25.1086  -22.3303   -8.9873 O   0  0  0  0  0  0  0  0  0  0  0  0
   27.1689  -22.8688   -9.7281 O   0  0  0  0  0  0  0  0  0  0  0  0
  2  1  1  6
  2  3  1  0
  3  4  1  0
  4  5  1  0
  5  9  1  0
  6  5  2  0
  7  2  1  0
  7  8  2  0
 10  7  1  0
 11 10  1  0
 11 12  1  6
 13 12  1  0
 13 14  1  0
 14 15  2  0
 16 11  1  0
 17 16  2  0
 18 14  1  0
 19 16  1  0
 20 21  1  1
 20 19  1  0
 22 21  1  0
 23 22  2  0
 24 25  1  0
 24 23  1  0
 25 30  2  0
 26 27  2  0
 26 25  1  0
 27 28  1  0
 28 29  2  0
 30 29  1  0
 30 22  1  0
 31 20  1  0
 32 31  2  0
 33 31  1  0
M  END
$$$$
