EEW.pdb
     RDKit          3D

 33 34  0  0  1  0  0  0  0  0999 V2000
   27.8428  -19.1072  -17.4926 N   0  0  0  0  0  0  0  0  0  0  0  0
   26.8428  -18.4739  -16.6010 C   0  0  1  0  0  0  0  0  0  0  0  0
   26.0980  -17.5075  -17.4832 C   0  0  0  0  0  0  0  0  0  0  0  0
   26.0703  -17.9935  -18.8991 C   0  0  0  0  0  0  0  0  0  0  0  0
   27.3007  -17.5744  -19.6380 C   0  0  0  0  0  0  0  0  0  0  0  0
   27.9035  -18.3815  -20.3895 O   0  0  0  0  0  0  0  0  0  0  0  0
   25.9384  -19.5496  -16.0916 C   0  0  0  0  0  0  0  0  0  0  0  0
   24.7359  -19.3346  -15.8951 O   0  0  0  0  0  0  0  0  0  0  0  0
   27.8019  -16.2993  -19.5140 O   0  0  0  0  0  0  0  0  0  0  0  0
   26.4123  -20.8617  -15.8108 N   0  0  0  0  0  0  0  0  0  0  0  0
   25.5887  -21.8552  -15.1448 C   0  0  1  0  0  0  0  0  0  0  0  0
   25.8399  -23.1537  -15.8199 C   0  0  0  0  0  0  0  0  0  0  0  0
   25.0037  -24.3145  -15.4442 C   0  0  0  0  0  0  0  0  0  0  0  0
   25.2480  -25.6153  -15.9984 C   0  0  0  0  0  0  0  0  0  0  0  0
   24.5872  -26.6267  -15.7402 O   0  0  0  0  0  0  0  0  0  0  0  0
   25.5794  -21.8052  -13.6963 C   0  0  0  0  0  0  0  0  0  0  0  0
   26.4183  -22.4631  -13.0272 O   0  0  0  0  0  0  0  0  0  0  0  0
   26.2962  -25.7849  -16.8936 O   0  0  0  0  0  0  0  0  0  0  0  0
   24.6663  -21.0392  -12.9215 N   0  0  0  0  0  0  0  0  0  0  0  0
   24.4483  -21.2457  -11.5099 C   0  0  1  0  0  0  0  0  0  0  0  0
   25.1625  -20.1330  -10.7878 C   0  0  0  0  0  0  0  0  0  0  0  0
   26.5733  -20.3935  -10.5085 C   0  0  0  0  0  0  0  0  0  0  0  0
   27.5369  -20.8881  -11.3640 C   0  0  0  0  0  0  0  0  0  0  0  0
   28.7102  -20.9769  -10.7093 N   0  0  0  0  0  0  0  0  0  0  0  0
   28.5091  -20.5428   -9.4375 C   0  0  0  0  0  0  0  0  0  0  0  0
   29.3847  -20.4358   -8.3769 C   0  0  0  0  0  0  0  0  0  0  0  0
   28.9816  -19.9629   -7.1407 C   0  0  0  0  0  0  0  0  0  0  0  0
   27.6601  -19.5937   -6.9886 C   0  0  0  0  0  0  0  0  0  0  0  0
   26.7906  -19.7055   -8.0598 C   0  0  0  0  0  0  0  0  0  0  0  0
   27.1882  -20.1764   -9.2942 C   0  0  0  0  0  0  0  0  0  0  0  0
   23.0154  -21.3028  -11.2370 C   0  0  0  0  0  0  0  0  0  0  0  0
   22.5156  -21.3842  -10.0853 O   0  0  0  0  0  0  0  0  0  0  0  0
   22.1013  -21.2673  -12.2985 O   0  0  0  0  0  0  0  0  0  0  0  0
  2  1  1  6
  2  3  1  0
  3  4  1  0
  4  5  1  0
  5  9  1  0
  6  5  2  0
  7  2  1  0
  7  8  2  0
 10  7  1  0
 11 10  1  0
 11 12  1  1
 13 12  1  0
 13 14  1  0
 14 15  2  0
 16 11  1  0
 17 16  2  0
 18 14  1  0
 19 16  1  0
 20 21  1  1
 20 19  1  0
 22 21  1  0
 23 22  2  0
 24 25  1  0
 24 23  1  0
 25 30  2  0
 26 27  2  0
 26 25  1  0
 27 28  1  0
 28 29  2  0
 30 29  1  0
 30 22  1  0
 31 20  1  0
 32 31  2  0
 33 31  1  0
M  END
$$$$
