EEW.pdb
     RDKit          3D

 33 34  0  0  1  0  0  0  0  0999 V2000
   29.4142  -20.9748  -15.0702 N   0  0  0  0  0  0  0  0  0  0  0  0
   28.4200  -19.8764  -15.0384 C   0  0  1  0  0  0  0  0  0  0  0  0
   28.2395  -19.4789  -16.4794 C   0  0  0  0  0  0  0  0  0  0  0  0
   27.3062  -18.3142  -16.5964 C   0  0  0  0  0  0  0  0  0  0  0  0
   27.8332  -17.2940  -17.5539 C   0  0  0  0  0  0  0  0  0  0  0  0
   28.4006  -17.6464  -18.6186 O   0  0  0  0  0  0  0  0  0  0  0  0
   27.1526  -20.4236  -14.4648 C   0  0  0  0  0  0  0  0  0  0  0  0
   26.1493  -19.7114  -14.3351 O   0  0  0  0  0  0  0  0  0  0  0  0
   27.7108  -15.9486  -17.2943 O   0  0  0  0  0  0  0  0  0  0  0  0
   27.0395  -21.7783  -14.0442 N   0  0  0  0  0  0  0  0  0  0  0  0
   25.8244  -22.3036  -13.4472 C   0  0  1  0  0  0  0  0  0  0  0  0
   25.5637  -23.6227  -14.0774 C   0  0  0  0  0  0  0  0  0  0  0  0
   25.5691  -23.7095  -15.5540 C   0  0  0  0  0  0  0  0  0  0  0  0
   25.3305  -24.9552  -16.2248 C   0  0  0  0  0  0  0  0  0  0  0  0
   25.2775  -25.0963  -17.4511 O   0  0  0  0  0  0  0  0  0  0  0  0
   25.7183  -22.1783  -12.0071 C   0  0  0  0  0  0  0  0  0  0  0  0
   26.3795  -22.9339  -11.2479 O   0  0  0  0  0  0  0  0  0  0  0  0
   25.1412  -26.1060  -15.4707 O   0  0  0  0  0  0  0  0  0  0  0  0
   24.8979  -21.2296  -11.3383 N   0  0  0  0  0  0  0  0  0  0  0  0
   24.8406  -21.0954   -9.9025 C   0  0  1  0  0  0  0  0  0  0  0  0
   26.2376  -20.7804   -9.4347 C   0  0  0  0  0  0  0  0  0  0  0  0
   26.3388  -20.4012   -8.0267 C   0  0  0  0  0  0  0  0  0  0  0  0
   25.3249  -20.2862   -7.0974 C   0  0  0  0  0  0  0  0  0  0  0  0
   25.8464  -19.9128   -5.9135 N   0  0  0  0  0  0  0  0  0  0  0  0
   27.1897  -19.7862   -6.0737 C   0  0  0  0  0  0  0  0  0  0  0  0
   28.1712  -19.4287   -5.1726 C   0  0  0  0  0  0  0  0  0  0  0  0
   29.5046  -19.3560   -5.5342 C   0  0  0  0  0  0  0  0  0  0  0  0
   29.8380  -19.6542   -6.8402 C   0  0  0  0  0  0  0  0  0  0  0  0
   28.8449  -20.0116   -7.7357 C   0  0  0  0  0  0  0  0  0  0  0  0
   27.5140  -20.0855   -7.3794 C   0  0  0  0  0  0  0  0  0  0  0  0
   23.8544  -20.0811   -9.5424 C   0  0  0  0  0  0  0  0  0  0  0  0
   23.6268  -19.0429  -10.2155 O   0  0  0  0  0  0  0  0  0  0  0  0
   23.0892  -20.2347   -8.3786 O   0  0  0  0  0  0  0  0  0  0  0  0
  2  1  1  6
  2  3  1  0
  3  4  1  0
  4  5  1  0
  5  9  1  0
  6  5  2  0
  7  2  1  0
  7  8  2  0
 10  7  1  0
 11 10  1  0
 11 12  1  1
 13 12  1  0
 13 14  1  0
 14 15  2  0
 16 11  1  0
 17 16  2  0
 18 14  1  0
 19 16  1  0
 20 21  1  6
 20 19  1  0
 22 21  1  0
 23 22  2  0
 24 25  1  0
 24 23  1  0
 25 30  2  0
 26 27  2  0
 26 25  1  0
 27 28  1  0
 28 29  2  0
 30 29  1  0
 30 22  1  0
 31 20  1  0
 32 31  2  0
 33 31  1  0
M  END
$$$$
