EEW.pdb
     RDKit          3D

 33 34  0  0  1  0  0  0  0  0999 V2000
   19.0610  -19.5305  -16.7152 N   0  0  0  0  0  0  0  0  0  0  0  0
   18.3404  -19.2099  -17.9697 C   0  0  1  0  0  0  0  0  0  0  0  0
   16.8856  -19.1858  -17.5824 C   0  0  0  0  0  0  0  0  0  0  0  0
   16.7260  -19.3676  -16.1050 C   0  0  0  0  0  0  0  0  0  0  0  0
   15.7091  -18.4217  -15.5512 C   0  0  0  0  0  0  0  0  0  0  0  0
   14.9494  -17.7766  -16.3168 O   0  0  0  0  0  0  0  0  0  0  0  0
   18.8006  -17.8641  -18.4299 C   0  0  0  0  0  0  0  0  0  0  0  0
   19.0179  -16.9518  -17.6230 O   0  0  0  0  0  0  0  0  0  0  0  0
   15.5803  -18.2345  -14.1945 O   0  0  0  0  0  0  0  0  0  0  0  0
   19.0094  -17.5696  -19.8064 N   0  0  0  0  0  0  0  0  0  0  0  0
   19.5153  -16.2840  -20.2540 C   0  0  1  0  0  0  0  0  0  0  0  0
   20.5497  -16.5568  -21.2838 C   0  0  0  0  0  0  0  0  0  0  0  0
   21.2652  -15.4090  -21.8826 C   0  0  0  0  0  0  0  0  0  0  0  0
   22.2904  -15.6054  -22.8670 C   0  0  0  0  0  0  0  0  0  0  0  0
   22.4123  -14.9391  -23.9002 O   0  0  0  0  0  0  0  0  0  0  0  0
   18.5186  -15.2633  -20.5104 C   0  0  0  0  0  0  0  0  0  0  0  0
   17.3934  -15.5713  -20.9831 O   0  0  0  0  0  0  0  0  0  0  0  0
   23.2307  -16.6094  -22.6755 O   0  0  0  0  0  0  0  0  0  0  0  0
   18.7021  -13.8760  -20.2608 N   0  0  0  0  0  0  0  0  0  0  0  0
   17.7201  -12.8698  -20.5862 C   0  0  1  0  0  0  0  0  0  0  0  0
   18.1039  -11.6221  -19.8342 C   0  0  0  0  0  0  0  0  0  0  0  0
   17.1744  -10.5050  -19.9908 C   0  0  0  0  0  0  0  0  0  0  0  0
   15.9446  -10.3256  -19.3905 C   0  0  0  0  0  0  0  0  0  0  0  0
   15.4119   -9.1609  -19.8064 N   0  0  0  0  0  0  0  0  0  0  0  0
   16.2901   -8.5886  -20.6708 C   0  0  0  0  0  0  0  0  0  0  0  0
   16.2180   -7.4005  -21.3680 C   0  0  0  0  0  0  0  0  0  0  0  0
   17.2319   -6.9856  -22.2130 C   0  0  0  0  0  0  0  0  0  0  0  0
   18.3377   -7.8012  -22.3460 C   0  0  0  0  0  0  0  0  0  0  0  0
   18.3992   -8.9913  -21.6416 C   0  0  0  0  0  0  0  0  0  0  0  0
   17.3906   -9.4088  -20.7979 C   0  0  0  0  0  0  0  0  0  0  0  0
   17.6597  -12.6918  -22.0339 C   0  0  0  0  0  0  0  0  0  0  0  0
   18.6411  -12.8369  -22.8077 O   0  0  0  0  0  0  0  0  0  0  0  0
   16.4488  -12.3363  -22.6429 O   0  0  0  0  0  0  0  0  0  0  0  0
  2  1  1  1
  2  3  1  0
  3  4  1  0
  4  5  1  0
  5  9  1  0
  6  5  2  0
  7  2  1  0
  7  8  2  0
 10  7  1  0
 11 10  1  0
 11 12  1  6
 13 12  1  0
 13 14  1  0
 14 15  2  0
 16 11  1  0
 17 16  2  0
 18 14  1  0
 19 16  1  0
 20 21  1  1
 20 19  1  0
 22 21  1  0
 23 22  2  0
 24 25  1  0
 24 23  1  0
 25 30  2  0
 26 27  2  0
 26 25  1  0
 27 28  1  0
 28 29  2  0
 30 29  1  0
 30 22  1  0
 31 20  1  0
 32 31  2  0
 33 31  1  0
M  END
$$$$
