EEW.pdb
     RDKit          3D

 33 34  0  0  1  0  0  0  0  0999 V2000
   18.3751   -8.3336  -22.7330 N   0  0  0  0  0  0  0  0  0  0  0  0
   17.4056   -8.0697  -21.6438 C   0  0  1  0  0  0  0  0  0  0  0  0
   17.0431   -9.4313  -21.1131 C   0  0  0  0  0  0  0  0  0  0  0  0
   16.0755  -10.1174  -22.0266 C   0  0  0  0  0  0  0  0  0  0  0  0
   15.5906  -11.4014  -21.4336 C   0  0  0  0  0  0  0  0  0  0  0  0
   14.7971  -12.1413  -22.0680 O   0  0  0  0  0  0  0  0  0  0  0  0
   18.0989   -7.2500  -20.6035 C   0  0  0  0  0  0  0  0  0  0  0  0
   19.3267   -7.3030  -20.4606 O   0  0  0  0  0  0  0  0  0  0  0  0
   15.9993  -11.8033  -20.1832 O   0  0  0  0  0  0  0  0  0  0  0  0
   17.3866   -6.3766  -19.7347 N   0  0  0  0  0  0  0  0  0  0  0  0
   18.0176   -5.7371  -18.5938 C   0  0  1  0  0  0  0  0  0  0  0  0
   17.1314   -4.6223  -18.1732 C   0  0  0  0  0  0  0  0  0  0  0  0
   17.4990   -3.8487  -16.9673 C   0  0  0  0  0  0  0  0  0  0  0  0
   16.6958   -2.7477  -16.5186 C   0  0  0  0  0  0  0  0  0  0  0  0
   16.4196   -1.7538  -17.1985 O   0  0  0  0  0  0  0  0  0  0  0  0
   18.5568   -6.6268  -17.5845 C   0  0  0  0  0  0  0  0  0  0  0  0
   17.8947   -7.6209  -17.1872 O   0  0  0  0  0  0  0  0  0  0  0  0
   16.1751   -2.7687  -15.2313 O   0  0  0  0  0  0  0  0  0  0  0  0
   19.8313   -6.4754  -16.9736 N   0  0  0  0  0  0  0  0  0  0  0  0
   20.3040   -7.3106  -15.8957 C   0  0  1  0  0  0  0  0  0  0  0  0
   21.8056   -7.3617  -16.0057 C   0  0  0  0  0  0  0  0  0  0  0  0
   22.4483   -8.3427  -15.1335 C   0  0  0  0  0  0  0  0  0  0  0  0
   23.5180   -9.1676  -15.4170 C   0  0  0  0  0  0  0  0  0  0  0  0
   23.7978   -9.9209  -14.3366 N   0  0  0  0  0  0  0  0  0  0  0  0
   22.9156   -9.5870  -13.3587 C   0  0  0  0  0  0  0  0  0  0  0  0
   22.7795  -10.0645  -12.0716 C   0  0  0  0  0  0  0  0  0  0  0  0
   21.8026   -9.5894  -11.2148 C   0  0  0  0  0  0  0  0  0  0  0  0
   20.9512   -8.6093  -11.6841 C   0  0  0  0  0  0  0  0  0  0  0  0
   21.0970   -8.1378  -12.9774 C   0  0  0  0  0  0  0  0  0  0  0  0
   22.0698   -8.6086  -13.8351 C   0  0  0  0  0  0  0  0  0  0  0  0
   19.8226   -6.7872  -14.6208 C   0  0  0  0  0  0  0  0  0  0  0  0
   18.9999   -7.3800  -13.8762 O   0  0  0  0  0  0  0  0  0  0  0  0
   20.2816   -5.5467  -14.1583 O   0  0  0  0  0  0  0  0  0  0  0  0
  2  1  1  6
  2  3  1  0
  3  4  1  0
  4  5  1  0
  5  9  1  0
  6  5  2  0
  7  2  1  0
  7  8  2  0
 10  7  1  0
 11 10  1  0
 11 12  1  1
 13 12  1  0
 13 14  1  0
 14 15  2  0
 16 11  1  0
 17 16  2  0
 18 14  1  0
 19 16  1  0
 20 21  1  1
 20 19  1  0
 22 21  1  0
 23 22  2  0
 24 25  1  0
 24 23  1  0
 25 30  2  0
 26 27  2  0
 26 25  1  0
 27 28  1  0
 28 29  2  0
 30 29  1  0
 30 22  1  0
 31 20  1  0
 32 31  2  0
 33 31  1  0
M  END
$$$$
