EEW.pdb
     RDKit          3D

 33 34  0  0  1  0  0  0  0  0999 V2000
   27.5479  -18.6576  -16.9672 N   0  0  0  0  0  0  0  0  0  0  0  0
   27.4773  -19.7298  -15.9468 C   0  0  1  0  0  0  0  0  0  0  0  0
   28.8342  -19.7298  -15.2942 C   0  0  0  0  0  0  0  0  0  0  0  0
   29.8735  -20.2662  -16.2290 C   0  0  0  0  0  0  0  0  0  0  0  0
   29.6079  -21.6980  -16.5675 C   0  0  0  0  0  0  0  0  0  0  0  0
   29.1541  -22.4881  -15.7019 O   0  0  0  0  0  0  0  0  0  0  0  0
   26.4069  -19.3616  -14.9703 C   0  0  0  0  0  0  0  0  0  0  0  0
   26.6622  -18.6859  -13.9658 O   0  0  0  0  0  0  0  0  0  0  0  0
   29.8529  -22.1847  -17.8306 O   0  0  0  0  0  0  0  0  0  0  0  0
   25.0543  -19.7667  -15.1473 N   0  0  0  0  0  0  0  0  0  0  0  0
   24.0180  -19.4441  -14.1824 C   0  0  1  0  0  0  0  0  0  0  0  0
   22.8198  -19.0253  -14.9529 C   0  0  0  0  0  0  0  0  0  0  0  0
   21.5747  -18.7303  -14.2108 C   0  0  0  0  0  0  0  0  0  0  0  0
   20.3723  -18.3558  -14.8982 C   0  0  0  0  0  0  0  0  0  0  0  0
   19.4341  -19.1209  -15.1450 O   0  0  0  0  0  0  0  0  0  0  0  0
   23.8585  -20.3777  -13.0852 C   0  0  0  0  0  0  0  0  0  0  0  0
   23.7079  -21.6075  -13.3074 O   0  0  0  0  0  0  0  0  0  0  0  0
   20.2192  -17.0452  -15.3316 O   0  0  0  0  0  0  0  0  0  0  0  0
   23.8607  -20.0150  -11.7108 N   0  0  0  0  0  0  0  0  0  0  0  0
   23.7491  -20.9689  -10.6336 C   0  0  1  0  0  0  0  0  0  0  0  0
   24.5369  -20.4164   -9.4743 C   0  0  0  0  0  0  0  0  0  0  0  0
   25.9817  -20.6173   -9.5673 C   0  0  0  0  0  0  0  0  0  0  0  0
   26.6888  -21.3047  -10.5329 C   0  0  0  0  0  0  0  0  0  0  0  0
   28.0032  -21.2497  -10.2459 N   0  0  0  0  0  0  0  0  0  0  0  0
   28.1479  -20.5314   -9.1016 C   0  0  0  0  0  0  0  0  0  0  0  0
   29.2817  -20.1896   -8.3940 C   0  0  0  0  0  0  0  0  0  0  0  0
   29.2206  -19.4401   -7.2326 C   0  0  0  0  0  0  0  0  0  0  0  0
   27.9780  -19.0344   -6.7889 C   0  0  0  0  0  0  0  0  0  0  0  0
   26.8472  -19.3834   -7.5069 C   0  0  0  0  0  0  0  0  0  0  0  0
   26.9034  -20.1305   -8.6655 C   0  0  0  0  0  0  0  0  0  0  0  0
   22.3409  -21.2063  -10.3310 C   0  0  0  0  0  0  0  0  0  0  0  0
   21.9305  -21.9666   -9.4166 O   0  0  0  0  0  0  0  0  0  0  0  0
   21.3481  -20.5651  -11.0840 O   0  0  0  0  0  0  0  0  0  0  0  0
  2  1  1  6
  2  3  1  0
  3  4  1  0
  4  5  1  0
  5  9  1  0
  6  5  2  0
  7  2  1  0
  7  8  2  0
 10  7  1  0
 11 10  1  0
 11 12  1  6
 13 12  1  0
 13 14  1  0
 14 15  2  0
 16 11  1  0
 17 16  2  0
 18 14  1  0
 19 16  1  0
 20 21  1  1
 20 19  1  0
 22 21  1  0
 23 22  2  0
 24 25  1  0
 24 23  1  0
 25 30  2  0
 26 27  2  0
 26 25  1  0
 27 28  1  0
 28 29  2  0
 30 29  1  0
 30 22  1  0
 31 20  1  0
 32 31  2  0
 33 31  1  0
M  END
$$$$
