EEW.pdb
     RDKit          3D

 33 34  0  0  1  0  0  0  0  0999 V2000
   23.1704  -33.4108  -10.9097 N   0  0  0  0  0  0  0  0  0  0  0  0
   24.2968  -34.2505  -10.4387 C   0  0  1  0  0  0  0  0  0  0  0  0
   25.5319  -33.4481  -10.7513 C   0  0  0  0  0  0  0  0  0  0  0  0
   26.0600  -33.7928  -12.1092 C   0  0  0  0  0  0  0  0  0  0  0  0
   26.8243  -35.0775  -12.0813 C   0  0  0  0  0  0  0  0  0  0  0  0
   27.3276  -35.5472  -13.1328 O   0  0  0  0  0  0  0  0  0  0  0  0
   24.1364  -34.4457   -8.9653 C   0  0  0  0  0  0  0  0  0  0  0  0
   23.6372  -33.5652   -8.2539 O   0  0  0  0  0  0  0  0  0  0  0  0
   26.9949  -35.7752  -10.9081 O   0  0  0  0  0  0  0  0  0  0  0  0
   24.5465  -35.6433   -8.3152 N   0  0  0  0  0  0  0  0  0  0  0  0
   24.4303  -35.8221   -6.8788 C   0  0  1  0  0  0  0  0  0  0  0  0
   24.3146  -37.2812   -6.6287 C   0  0  0  0  0  0  0  0  0  0  0  0
   24.0827  -37.7404   -5.2419 C   0  0  0  0  0  0  0  0  0  0  0  0
   24.7929  -38.8652   -4.7041 C   0  0  0  0  0  0  0  0  0  0  0  0
   24.3199  -39.9985   -4.5696 O   0  0  0  0  0  0  0  0  0  0  0  0
   25.3386  -35.0383   -6.0654 C   0  0  0  0  0  0  0  0  0  0  0  0
   26.5229  -34.8365   -6.4410 O   0  0  0  0  0  0  0  0  0  0  0  0
   26.1102  -38.7027   -4.2951 O   0  0  0  0  0  0  0  0  0  0  0  0
   24.9970  -34.4423   -4.8209 N   0  0  0  0  0  0  0  0  0  0  0  0
   25.9245  -33.6803   -4.0197 C   0  0  1  0  0  0  0  0  0  0  0  0
   25.1629  -32.5048   -3.4649 C   0  0  0  0  0  0  0  0  0  0  0  0
   25.0499  -31.3665   -4.3749 C   0  0  0  0  0  0  0  0  0  0  0  0
   24.7640  -31.3766   -5.7251 C   0  0  0  0  0  0  0  0  0  0  0  0
   24.7544  -30.1120   -6.1875 N   0  0  0  0  0  0  0  0  0  0  0  0
   25.0322  -29.2870   -5.1442 C   0  0  0  0  0  0  0  0  0  0  0  0
   25.1392  -27.9127   -5.0908 C   0  0  0  0  0  0  0  0  0  0  0  0
   25.4340  -27.2474   -3.9141 C   0  0  0  0  0  0  0  0  0  0  0  0
   25.6224  -28.0022   -2.7737 C   0  0  0  0  0  0  0  0  0  0  0  0
   25.5128  -29.3805   -2.8392 C   0  0  0  0  0  0  0  0  0  0  0  0
   25.2188  -30.0480   -4.0104 C   0  0  0  0  0  0  0  0  0  0  0  0
   26.5115  -34.5399   -2.9962 C   0  0  0  0  0  0  0  0  0  0  0  0
   26.2262  -35.7555   -2.8421 O   0  0  0  0  0  0  0  0  0  0  0  0
   27.4592  -34.0172   -2.1061 O   0  0  0  0  0  0  0  0  0  0  0  0
  2  1  1  1
  2  3  1  0
  3  4  1  0
  4  5  1  0
  5  9  1  0
  6  5  2  0
  7  2  1  0
  7  8  2  0
 10  7  1  0
 11 10  1  0
 11 12  1  6
 13 12  1  0
 13 14  1  0
 14 15  2  0
 16 11  1  0
 17 16  2  0
 18 14  1  0
 19 16  1  0
 20 21  1  1
 20 19  1  0
 22 21  1  0
 23 22  2  0
 24 25  1  0
 24 23  1  0
 25 30  2  0
 26 27  2  0
 26 25  1  0
 27 28  1  0
 28 29  2  0
 30 29  1  0
 30 22  1  0
 31 20  1  0
 32 31  2  0
 33 31  1  0
M  END
$$$$
