EEW.pdb
     RDKit          3D

 33 34  0  0  1  0  0  0  0  0999 V2000
   24.0459  -22.2541  -17.9867 N   0  0  0  0  0  0  0  0  0  0  0  0
   24.2213  -20.9636  -17.2798 C   0  0  1  0  0  0  0  0  0  0  0  0
   22.8251  -20.5276  -16.9225 C   0  0  0  0  0  0  0  0  0  0  0  0
   22.3898  -21.1456  -15.6302 C   0  0  0  0  0  0  0  0  0  0  0  0
   22.0622  -20.0986  -14.6143 C   0  0  0  0  0  0  0  0  0  0  0  0
   21.9112  -18.8986  -14.9559 O   0  0  0  0  0  0  0  0  0  0  0  0
   25.0383  -21.2210  -16.0546 C   0  0  0  0  0  0  0  0  0  0  0  0
   25.1089  -22.3523  -15.5587 O   0  0  0  0  0  0  0  0  0  0  0  0
   21.9187  -20.4216  -13.2849 O   0  0  0  0  0  0  0  0  0  0  0  0
   25.7681  -20.1864  -15.4050 N   0  0  0  0  0  0  0  0  0  0  0  0
   26.6137  -20.4430  -14.2525 C   0  0  1  0  0  0  0  0  0  0  0  0
   27.6707  -19.4001  -14.2462 C   0  0  0  0  0  0  0  0  0  0  0  0
   29.0563  -19.8017  -14.5728 C   0  0  0  0  0  0  0  0  0  0  0  0
   29.3342  -20.6831  -15.6704 C   0  0  0  0  0  0  0  0  0  0  0  0
   29.2788  -20.3633  -16.8625 O   0  0  0  0  0  0  0  0  0  0  0  0
   25.9249  -20.7547  -13.0159 C   0  0  0  0  0  0  0  0  0  0  0  0
   24.7357  -20.3846  -12.8342 O   0  0  0  0  0  0  0  0  0  0  0  0
   29.6946  -21.9986  -15.4090 O   0  0  0  0  0  0  0  0  0  0  0  0
   26.4960  -21.4807  -11.9355 N   0  0  0  0  0  0  0  0  0  0  0  0
   25.7834  -21.7963  -10.7208 C   0  0  1  0  0  0  0  0  0  0  0  0
   26.8185  -22.0114   -9.6476 C   0  0  0  0  0  0  0  0  0  0  0  0
   26.7929  -21.0255   -8.5687 C   0  0  0  0  0  0  0  0  0  0  0  0
   25.8055  -20.1078   -8.2726 C   0  0  0  0  0  0  0  0  0  0  0  0
   26.1758  -19.3866   -7.1975 N   0  0  0  0  0  0  0  0  0  0  0  0
   27.3955  -19.8335   -6.7988 C   0  0  0  0  0  0  0  0  0  0  0  0
   28.2023  -19.4290   -5.7555 C   0  0  0  0  0  0  0  0  0  0  0  0
   29.4297  -20.0182   -5.5093 C   0  0  0  0  0  0  0  0  0  0  0  0
   29.8372  -21.0382   -6.3456 C   0  0  0  0  0  0  0  0  0  0  0  0
   29.0194  -21.4357   -7.3893 C   0  0  0  0  0  0  0  0  0  0  0  0
   27.7948  -20.8511   -7.6383 C   0  0  0  0  0  0  0  0  0  0  0  0
   24.8315  -20.7316  -10.4185 C   0  0  0  0  0  0  0  0  0  0  0  0
   25.0112  -19.5187  -10.7003 O   0  0  0  0  0  0  0  0  0  0  0  0
   23.6257  -21.0368   -9.7731 O   0  0  0  0  0  0  0  0  0  0  0  0
  2  1  1  6
  2  3  1  0
  3  4  1  0
  4  5  1  0
  5  9  1  0
  6  5  2  0
  7  2  1  0
  7  8  2  0
 10  7  1  0
 11 10  1  0
 11 12  1  1
 13 12  1  0
 13 14  1  0
 14 15  2  0
 16 11  1  0
 17 16  2  0
 18 14  1  0
 19 16  1  0
 20 21  1  1
 20 19  1  0
 22 21  1  0
 23 22  2  0
 24 25  1  0
 24 23  1  0
 25 30  2  0
 26 27  2  0
 26 25  1  0
 27 28  1  0
 28 29  2  0
 30 29  1  0
 30 22  1  0
 31 20  1  0
 32 31  2  0
 33 31  1  0
M  END
$$$$
