FLD.pdb
     RDKit          3D

 28 28  0  0  1  0  0  0  0  0999 V2000
   20.8186  -10.7985  -17.0460 N   0  0  0  0  0  0  0  0  0  0  0  0
   19.8744   -9.7127  -17.2701 C   0  0  1  0  0  0  0  0  0  0  0  0
   18.4459  -10.1637  -17.2022 C   0  0  0  0  0  0  0  0  0  0  0  0
   18.0821  -11.0536  -18.3378 C   0  0  0  0  0  0  0  0  0  0  0  0
   18.1606  -12.4148  -18.1329 C   0  0  0  0  0  0  0  0  0  0  0  0
   17.8504  -13.3523  -19.1038 C   0  0  0  0  0  0  0  0  0  0  0  0
   17.4467  -12.8471  -20.3237 C   0  0  0  0  0  0  0  0  0  0  0  0
   17.3606  -11.4979  -20.5521 C   0  0  0  0  0  0  0  0  0  0  0  0
   17.6791  -10.5728  -19.5560 C   0  0  0  0  0  0  0  0  0  0  0  0
   20.0994   -8.6883  -16.2283 C   0  0  0  0  0  0  0  0  0  0  0  0
   20.9375   -8.9310  -15.3305 O   0  0  0  0  0  0  0  0  0  0  0  0
   23.0573   -4.5545  -14.7800 C   0  0  0  0  0  0  0  0  0  0  0  0
   21.5749   -4.8684  -14.5093 C   0  0  2  0  0  0  0  0  0  0  0  0
   21.4070   -4.9721  -13.0343 C   0  0  0  0  0  0  0  0  0  0  0  0
   21.2417   -6.0730  -15.3070 C   0  0  0  0  0  0  0  0  0  0  0  0
   19.7913   -6.4262  -15.3059 C   0  0  2  0  0  0  0  0  0  0  0  0
   19.4075   -7.4662  -16.2148 N   0  0  0  0  0  0  0  0  0  0  0  0
   18.9374   -5.2318  -15.5307 C   0  0  0  0  0  0  0  0  0  0  0  0
   19.0659   -4.5460  -16.5620 O   0  0  0  0  0  0  0  0  0  0  0  0
   17.9706   -4.8662  -14.5716 N   0  0  0  0  0  0  0  0  0  0  0  0
   16.8975   -3.9671  -14.9637 C   0  0  1  0  0  0  0  0  0  0  0  0
   15.5896   -4.4409  -14.3577 C   0  0  0  0  0  0  0  0  0  0  0  0
   14.4556   -3.5483  -14.6321 C   0  0  0  0  0  0  0  0  0  0  0  0
   14.5549   -2.4950  -15.3105 O   0  0  0  0  0  0  0  0  0  0  0  0
   17.2450   -2.6067  -14.4977 C   0  0  0  0  0  0  0  0  0  0  0  0
   18.4154   -2.3319  -13.7970 O   0  0  0  0  0  0  0  0  0  0  0  0
   13.1731   -3.8317  -14.1398 O   0  0  0  0  0  0  0  0  0  0  0  0
   16.4428   -1.6659  -14.7496 O   0  0  0  0  0  0  0  0  0  0  0  0
  2 10  1  0
  2  1  1  1
  2  3  1  0
  3  4  1  0
  4  5  2  0
  4  9  1  0
  5  6  1  0
  6  7  2  0
  8  7  1  0
  9  8  2  0
 10 17  1  0
 11 10  2  0
 13 12  1  1
 13 14  1  0
 15 13  1  0
 16 15  1  6
 17 16  1  0
 18 19  2  0
 18 16  1  0
 20 18  1  0
 21 22  1  1
 21 20  1  0
 23 22  1  0
 24 23  2  0
 25 21  1  0
 26 25  1  0
 27 23  1  0
 28 25  2  0
M  END
$$$$
