FLD.pdb
     RDKit          3D

 28 28  0  0  1  0  0  0  0  0999 V2000
   26.1722  -20.1091  -17.9228 N   0  0  0  0  0  0  0  0  0  0  0  0
   25.5850  -19.2195  -16.9306 C   0  0  1  0  0  0  0  0  0  0  0  0
   24.4140  -18.4494  -17.4636 C   0  0  0  0  0  0  0  0  0  0  0  0
   24.8110  -17.4829  -18.5228 C   0  0  0  0  0  0  0  0  0  0  0  0
   24.5573  -17.8310  -19.8326 C   0  0  0  0  0  0  0  0  0  0  0  0
   24.8752  -17.0245  -20.9124 C   0  0  0  0  0  0  0  0  0  0  0  0
   25.4760  -15.8189  -20.6092 C   0  0  0  0  0  0  0  0  0  0  0  0
   25.7386  -15.4499  -19.3151 C   0  0  0  0  0  0  0  0  0  0  0  0
   25.4081  -16.2817  -18.2434 C   0  0  0  0  0  0  0  0  0  0  0  0
   25.1328  -20.0424  -15.7887 C   0  0  0  0  0  0  0  0  0  0  0  0
   24.7970  -21.2280  -16.0096 O   0  0  0  0  0  0  0  0  0  0  0  0
   25.2829  -20.3605   -9.6625 C   0  0  0  0  0  0  0  0  0  0  0  0
   24.6871  -20.9196  -10.9671 C   0  0  2  0  0  0  0  0  0  0  0  0
   24.9920  -22.3757  -11.0041 C   0  0  0  0  0  0  0  0  0  0  0  0
   25.2305  -20.0939  -12.0721 C   0  0  0  0  0  0  0  0  0  0  0  0
   24.6167  -20.3727  -13.4039 C   0  0  2  0  0  0  0  0  0  0  0  0
   25.0676  -19.5389  -14.4793 N   0  0  0  0  0  0  0  0  0  0  0  0
   23.1331  -20.3394  -13.3400 C   0  0  0  0  0  0  0  0  0  0  0  0
   22.5326  -19.2741  -13.1056 O   0  0  0  0  0  0  0  0  0  0  0  0
   22.3923  -21.5215  -13.5460 N   0  0  0  0  0  0  0  0  0  0  0  0
   20.9405  -21.4566  -13.5041 C   0  0  1  0  0  0  0  0  0  0  0  0
   20.3615  -22.2742  -14.6436 C   0  0  0  0  0  0  0  0  0  0  0  0
   18.9942  -21.8844  -15.0130 C   0  0  0  0  0  0  0  0  0  0  0  0
   18.3810  -20.9270  -14.4774 O   0  0  0  0  0  0  0  0  0  0  0  0
   20.4955  -21.9727  -12.1910 C   0  0  0  0  0  0  0  0  0  0  0  0
   19.6045  -21.2796  -11.3774 O   0  0  0  0  0  0  0  0  0  0  0  0
   18.2852  -22.5766  -16.0059 O   0  0  0  0  0  0  0  0  0  0  0  0
   20.9471  -23.0850  -11.8022 O   0  0  0  0  0  0  0  0  0  0  0  0
  2 10  1  0
  2  1  1  6
  2  3  1  0
  3  4  1  0
  4  5  2  0
  4  9  1  0
  5  6  1  0
  6  7  2  0
  8  7  1  0
  9  8  2  0
 10 17  1  0
 11 10  2  0
 13 12  1  1
 13 14  1  0
 15 13  1  0
 16 15  1  1
 17 16  1  0
 18 19  2  0
 18 16  1  0
 20 18  1  0
 21 22  1  6
 21 20  1  0
 23 22  1  0
 24 23  2  0
 25 21  1  0
 26 25  1  0
 27 23  1  0
 28 25  2  0
M  END
$$$$
