FLD.pdb
     RDKit          3D

 28 28  0  0  1  0  0  0  0  0999 V2000
   25.6759  -22.3208  -17.5223 N   0  0  0  0  0  0  0  0  0  0  0  0
   25.6000  -21.0978  -16.7354 C   0  0  1  0  0  0  0  0  0  0  0  0
   24.6286  -20.1048  -17.3001 C   0  0  0  0  0  0  0  0  0  0  0  0
   25.1121  -19.5061  -18.5735 C   0  0  0  0  0  0  0  0  0  0  0  0
   24.5499  -19.9614  -19.7472 C   0  0  0  0  0  0  0  0  0  0  0  0
   24.9079  -19.4893  -20.9988 C   0  0  0  0  0  0  0  0  0  0  0  0
   25.8831  -18.5121  -21.0193 C   0  0  0  0  0  0  0  0  0  0  0  0
   26.4573  -18.0428  -19.8660 C   0  0  0  0  0  0  0  0  0  0  0  0
   26.0785  -18.5356  -18.6157 C   0  0  0  0  0  0  0  0  0  0  0  0
   25.1693  -21.4593  -15.3682 C   0  0  0  0  0  0  0  0  0  0  0  0
   24.3409  -22.3884  -15.2346 O   0  0  0  0  0  0  0  0  0  0  0  0
   24.0387  -20.5269  -10.3132 C   0  0  0  0  0  0  0  0  0  0  0  0
   25.4387  -21.1496  -10.4597 C   0  0  2  0  0  0  0  0  0  0  0  0
   26.2238  -20.7606   -9.2569 C   0  0  0  0  0  0  0  0  0  0  0  0
   25.9657  -20.7093  -11.7738 C   0  0  0  0  0  0  0  0  0  0  0  0
   25.1068  -21.0857  -12.9352 C   0  0  2  0  0  0  0  0  0  0  0  0
   25.6546  -20.7979  -14.2283 N   0  0  0  0  0  0  0  0  0  0  0  0
   23.7504  -20.4900  -12.8281 C   0  0  0  0  0  0  0  0  0  0  0  0
   23.6041  -19.3086  -12.4631 O   0  0  0  0  0  0  0  0  0  0  0  0
   22.6141  -21.2641  -13.1415 N   0  0  0  0  0  0  0  0  0  0  0  0
   21.2995  -20.6498  -13.0513 C   0  0  1  0  0  0  0  0  0  0  0  0
   21.0518  -19.7950  -14.2802 C   0  0  0  0  0  0  0  0  0  0  0  0
   19.6938  -19.2387  -14.3470 C   0  0  0  0  0  0  0  0  0  0  0  0
   18.9226  -19.1800  -13.3563 O   0  0  0  0  0  0  0  0  0  0  0  0
   20.2951  -21.7298  -12.9355 C   0  0  0  0  0  0  0  0  0  0  0  0
   20.6452  -23.0758  -12.8908 O   0  0  0  0  0  0  0  0  0  0  0  0
   19.1751  -18.7322  -15.5478 O   0  0  0  0  0  0  0  0  0  0  0  0
   19.0764  -21.4082  -12.8761 O   0  0  0  0  0  0  0  0  0  0  0  0
  2 10  1  0
  2  1  1  6
  2  3  1  0
  3  4  1  0
  4  5  2  0
  4  9  1  0
  5  6  1  0
  6  7  2  0
  8  7  1  0
  9  8  2  0
 10 17  1  0
 11 10  2  0
 13 12  1  1
 13 14  1  0
 15 13  1  0
 16 15  1  1
 17 16  1  0
 18 19  2  0
 18 16  1  0
 20 18  1  0
 21 22  1  6
 21 20  1  0
 23 22  1  0
 24 23  2  0
 25 21  1  0
 26 25  1  0
 27 23  1  0
 28 25  2  0
M  END
$$$$
