FLD.pdb
     RDKit          3D

 28 28  0  0  1  0  0  0  0  0999 V2000
   26.6473  -17.2040   -8.2746 N   0  0  0  0  0  0  0  0  0  0  0  0
   27.2645  -18.4301   -7.7883 C   0  0  1  0  0  0  0  0  0  0  0  0
   26.6016  -18.9620   -6.5530 C   0  0  0  0  0  0  0  0  0  0  0  0
   27.5842  -19.5025   -5.5752 C   0  0  0  0  0  0  0  0  0  0  0  0
   27.5069  -20.8443   -5.2674 C   0  0  0  0  0  0  0  0  0  0  0  0
   28.3591  -21.4735   -4.3755 C   0  0  0  0  0  0  0  0  0  0  0  0
   29.3193  -20.6723   -3.7904 C   0  0  0  0  0  0  0  0  0  0  0  0
   29.4167  -19.3356   -4.0800 C   0  0  0  0  0  0  0  0  0  0  0  0
   28.5447  -18.7248   -4.9834 C   0  0  0  0  0  0  0  0  0  0  0  0
   27.1654  -19.4473   -8.8564 C   0  0  0  0  0  0  0  0  0  0  0  0
   26.1756  -19.4074   -9.6220 O   0  0  0  0  0  0  0  0  0  0  0  0
   31.5852  -22.8915  -10.6041 C   0  0  0  0  0  0  0  0  0  0  0  0
   30.5751  -21.7602  -10.8675 C   0  0  2  0  0  0  0  0  0  0  0  0
   31.1398  -20.5167  -10.2762 C   0  0  0  0  0  0  0  0  0  0  0  0
   29.2703  -22.2213  -10.3354 C   0  0  0  0  0  0  0  0  0  0  0  0
   28.2235  -21.1589  -10.2754 C   0  0  2  0  0  0  0  0  0  0  0  0
   28.1360  -20.4465   -9.0346 N   0  0  0  0  0  0  0  0  0  0  0  0
   26.8843  -21.6896  -10.6373 C   0  0  0  0  0  0  0  0  0  0  0  0
   26.0377  -21.9279   -9.7559 O   0  0  0  0  0  0  0  0  0  0  0  0
   26.5626  -21.9277  -11.9895 N   0  0  0  0  0  0  0  0  0  0  0  0
   25.1768  -21.8091  -12.4128 C   0  0  1  0  0  0  0  0  0  0  0  0
   24.6655  -20.4159  -12.0965 C   0  0  0  0  0  0  0  0  0  0  0  0
   23.3037  -20.3990  -11.5459 C   0  0  0  0  0  0  0  0  0  0  0  0
   22.6314  -21.4399  -11.3357 O   0  0  0  0  0  0  0  0  0  0  0  0
   25.1146  -22.0885  -13.8642 C   0  0  0  0  0  0  0  0  0  0  0  0
   23.9237  -22.3898  -14.5180 O   0  0  0  0  0  0  0  0  0  0  0  0
   22.6680  -19.1923  -11.2186 O   0  0  0  0  0  0  0  0  0  0  0  0
   26.1880  -22.0503  -14.5265 O   0  0  0  0  0  0  0  0  0  0  0  0
  2 10  1  0
  2  1  1  6
  2  3  1  0
  3  4  1  0
  4  5  2  0
  4  9  1  0
  5  6  1  0
  6  7  2  0
  8  7  1  0
  9  8  2  0
 10 17  1  0
 11 10  2  0
 13 12  1  1
 13 14  1  0
 15 13  1  0
 16 15  1  1
 17 16  1  0
 18 19  2  0
 18 16  1  0
 20 18  1  0
 21 22  1  6
 21 20  1  0
 23 22  1  0
 24 23  2  0
 25 21  1  0
 26 25  1  0
 27 23  1  0
 28 25  2  0
M  END
$$$$
