FLD.pdb
     RDKit          3D

 28 28  0  0  1  0  0  0  0  0999 V2000
   18.3731  -12.0413  -17.6232 N   0  0  0  0  0  0  0  0  0  0  0  0
   19.4809  -11.2665  -18.1645 C   0  0  1  0  0  0  0  0  0  0  0  0
   19.0329  -10.2156  -19.1358 C   0  0  0  0  0  0  0  0  0  0  0  0
   18.4787  -10.8035  -20.3852 C   0  0  0  0  0  0  0  0  0  0  0  0
   17.1127  -10.7502  -20.5648 C   0  0  0  0  0  0  0  0  0  0  0  0
   16.4687  -11.2585  -21.6804 C   0  0  0  0  0  0  0  0  0  0  0  0
   17.2810  -11.8390  -22.6341 C   0  0  0  0  0  0  0  0  0  0  0  0
   18.6417  -11.9042  -22.4787 C   0  0  0  0  0  0  0  0  0  0  0  0
   19.2670  -11.3839  -21.3439 C   0  0  0  0  0  0  0  0  0  0  0  0
   20.1727  -10.6073  -17.0366 C   0  0  0  0  0  0  0  0  0  0  0  0
   19.4787  -10.1679  -16.0918 O   0  0  0  0  0  0  0  0  0  0  0  0
   22.8438  -11.9165  -13.9790 C   0  0  0  0  0  0  0  0  0  0  0  0
   23.6869  -11.6793  -15.2448 C   0  0  2  0  0  0  0  0  0  0  0  0
   25.0520  -12.2051  -14.9719 C   0  0  0  0  0  0  0  0  0  0  0  0
   23.5776  -10.2358  -15.5655 C   0  0  0  0  0  0  0  0  0  0  0  0
   22.1933   -9.7849  -15.8948 C   0  0  2  0  0  0  0  0  0  0  0  0
   21.5686  -10.4592  -16.9948 N   0  0  0  0  0  0  0  0  0  0  0  0
   22.1342   -8.3172  -16.1155 C   0  0  0  0  0  0  0  0  0  0  0  0
   22.4492   -7.8287  -17.2167 O   0  0  0  0  0  0  0  0  0  0  0  0
   21.7183   -7.4641  -15.0726 N   0  0  0  0  0  0  0  0  0  0  0  0
   21.7083   -6.0284  -15.3017 C   0  0  1  0  0  0  0  0  0  0  0  0
   20.3265   -5.5950  -15.7546 C   0  0  0  0  0  0  0  0  0  0  0  0
   20.1757   -4.1387  -15.8749 C   0  0  0  0  0  0  0  0  0  0  0  0
   21.0569   -3.3924  -16.3711 O   0  0  0  0  0  0  0  0  0  0  0  0
   22.0958   -5.3594  -14.0404 C   0  0  0  0  0  0  0  0  0  0  0  0
   22.4046   -4.0041  -13.9764 O   0  0  0  0  0  0  0  0  0  0  0  0
   19.0135   -3.4902  -15.4321 O   0  0  0  0  0  0  0  0  0  0  0  0
   22.1458   -6.0529  -12.9874 O   0  0  0  0  0  0  0  0  0  0  0  0
  2 10  1  0
  2  1  1  1
  2  3  1  0
  3  4  1  0
  4  5  2  0
  4  9  1  0
  5  6  1  0
  6  7  2  0
  8  7  1  0
  9  8  2  0
 10 17  1  0
 11 10  2  0
 13 12  1  1
 13 14  1  0
 15 13  1  0
 16 15  1  6
 17 16  1  0
 18 19  2  0
 18 16  1  0
 20 18  1  0
 21 22  1  1
 21 20  1  0
 23 22  1  0
 24 23  2  0
 25 21  1  0
 26 25  1  0
 27 23  1  0
 28 25  2  0
M  END
$$$$
