FLD.pdb
     RDKit          3D

 28 28  0  0  1  0  0  0  0  0999 V2000
   18.3173   -9.6916  -13.5809 N   0  0  0  0  0  0  0  0  0  0  0  0
   18.6723   -8.9811  -12.3603 C   0  0  1  0  0  0  0  0  0  0  0  0
   19.7681   -7.9794  -12.5709 C   0  0  0  0  0  0  0  0  0  0  0  0
   21.0553   -8.6240  -12.9469 C   0  0  0  0  0  0  0  0  0  0  0  0
   21.7368   -9.3102  -11.9642 C   0  0  0  0  0  0  0  0  0  0  0  0
   22.9432   -9.9550  -12.1797 C   0  0  0  0  0  0  0  0  0  0  0  0
   23.4485   -9.8775  -13.4622 C   0  0  0  0  0  0  0  0  0  0  0  0
   22.7898   -9.2013  -14.4566 C   0  0  0  0  0  0  0  0  0  0  0  0
   21.5741   -8.5591  -14.2134 C   0  0  0  0  0  0  0  0  0  0  0  0
   17.4681   -8.2735  -11.8759 C   0  0  0  0  0  0  0  0  0  0  0  0
   16.6279   -7.8884  -12.7203 O   0  0  0  0  0  0  0  0  0  0  0  0
   13.9656   -7.4631   -6.9160 C   0  0  0  0  0  0  0  0  0  0  0  0
   14.2726   -7.0435   -8.3648 C   0  0  2  0  0  0  0  0  0  0  0  0
   13.0614   -7.3400   -9.1771 C   0  0  0  0  0  0  0  0  0  0  0  0
   15.5246   -7.7362   -8.7530 C   0  0  0  0  0  0  0  0  0  0  0  0
   16.0566   -7.3364  -10.0892 C   0  0  2  0  0  0  0  0  0  0  0  0
   17.2424   -8.0215  -10.5129 N   0  0  0  0  0  0  0  0  0  0  0  0
   16.2748   -5.8696  -10.1744 C   0  0  0  0  0  0  0  0  0  0  0  0
   17.2143   -5.3319   -9.5590 O   0  0  0  0  0  0  0  0  0  0  0  0
   15.4141   -5.0735  -10.9578 N   0  0  0  0  0  0  0  0  0  0  0  0
   15.7235   -3.6633  -11.1285 C   0  0  1  0  0  0  0  0  0  0  0  0
   15.5946   -3.2877  -12.5930 C   0  0  0  0  0  0  0  0  0  0  0  0
   16.8794   -2.9902  -13.2402 C   0  0  0  0  0  0  0  0  0  0  0  0
   17.9817   -3.0336  -12.6382 O   0  0  0  0  0  0  0  0  0  0  0  0
   14.7886   -2.8831  -10.2885 C   0  0  0  0  0  0  0  0  0  0  0  0
   15.1854   -1.7555   -9.5762 O   0  0  0  0  0  0  0  0  0  0  0  0
   16.9442   -2.6338  -14.5953 O   0  0  0  0  0  0  0  0  0  0  0  0
   13.5871   -3.2627  -10.2212 O   0  0  0  0  0  0  0  0  0  0  0  0
  2 10  1  0
  2  1  1  6
  2  3  1  0
  3  4  1  0
  4  5  2  0
  4  9  1  0
  5  6  1  0
  6  7  2  0
  8  7  1  0
  9  8  2  0
 10 17  1  0
 11 10  2  0
 13 12  1  1
 13 14  1  0
 15 13  1  0
 16 15  1  1
 17 16  1  0
 18 19  2  0
 18 16  1  0
 20 18  1  0
 21 22  1  6
 21 20  1  0
 23 22  1  0
 24 23  2  0
 25 21  1  0
 26 25  1  0
 27 23  1  0
 28 25  2  0
M  END
$$$$
