FLD.pdb
     RDKit          3D

 28 28  0  0  1  0  0  0  0  0999 V2000
   15.2932   -9.5473  -13.5434 N   0  0  0  0  0  0  0  0  0  0  0  0
   16.3594   -8.7785  -12.9166 C   0  0  1  0  0  0  0  0  0  0  0  0
   17.2965   -8.1670  -13.9147 C   0  0  0  0  0  0  0  0  0  0  0  0
   18.0544   -9.1947  -14.6784 C   0  0  0  0  0  0  0  0  0  0  0  0
   19.1310   -9.7888  -14.0547 C   0  0  0  0  0  0  0  0  0  0  0  0
   19.9194  -10.7585  -14.6511 C   0  0  0  0  0  0  0  0  0  0  0  0
   19.5682  -11.1146  -15.9380 C   0  0  0  0  0  0  0  0  0  0  0  0
   18.5021  -10.5386  -16.5797 C   0  0  0  0  0  0  0  0  0  0  0  0
   17.7225   -9.5625  -15.9559 C   0  0  0  0  0  0  0  0  0  0  0  0
   15.7382   -7.6969  -12.1231 C   0  0  0  0  0  0  0  0  0  0  0  0
   14.7280   -7.1244  -12.5913 O   0  0  0  0  0  0  0  0  0  0  0  0
   13.0924   -6.8896   -8.6194 C   0  0  0  0  0  0  0  0  0  0  0  0
   14.4524   -7.5104   -8.2530 C   0  0  2  0  0  0  0  0  0  0  0  0
   14.3939   -7.8860   -6.8142 C   0  0  0  0  0  0  0  0  0  0  0  0
   15.4897   -6.5266   -8.6460 C   0  0  0  0  0  0  0  0  0  0  0  0
   15.5744   -6.2803  -10.1158 C   0  0  2  0  0  0  0  0  0  0  0  0
   16.2429   -7.2957  -10.8755 N   0  0  0  0  0  0  0  0  0  0  0  0
   16.1813   -4.9579  -10.4146 C   0  0  0  0  0  0  0  0  0  0  0  0
   17.3328   -4.8802  -10.8821 O   0  0  0  0  0  0  0  0  0  0  0  0
   15.4520   -3.7763  -10.1691 N   0  0  0  0  0  0  0  0  0  0  0  0
   16.0247   -2.5016  -10.5704 C   0  0  1  0  0  0  0  0  0  0  0  0
   16.4178   -2.5589  -12.0348 C   0  0  0  0  0  0  0  0  0  0  0  0
   16.8439   -1.2637  -12.5815 C   0  0  0  0  0  0  0  0  0  0  0  0
   17.6095   -0.4754  -11.9715 O   0  0  0  0  0  0  0  0  0  0  0  0
   15.0162   -1.4475  -10.3247 C   0  0  0  0  0  0  0  0  0  0  0  0
   15.3585   -0.1097  -10.1535 O   0  0  0  0  0  0  0  0  0  0  0  0
   16.4084   -0.8293  -13.8421 O   0  0  0  0  0  0  0  0  0  0  0  0
   13.8014   -1.7843  -10.2695 O   0  0  0  0  0  0  0  0  0  0  0  0
  2 10  1  0
  2  1  1  6
  2  3  1  0
  3  4  1  0
  4  5  2  0
  4  9  1  0
  5  6  1  0
  6  7  2  0
  8  7  1  0
  9  8  2  0
 10 17  1  0
 11 10  2  0
 13 12  1  1
 13 14  1  0
 15 13  1  0
 16 15  1  1
 17 16  1  0
 18 19  2  0
 18 16  1  0
 20 18  1  0
 21 22  1  6
 21 20  1  0
 23 22  1  0
 24 23  2  0
 25 21  1  0
 26 25  1  0
 27 23  1  0
 28 25  2  0
M  END
$$$$
