FLD.pdb
     RDKit          3D

 28 28  0  0  1  0  0  0  0  0999 V2000
   26.6397  -18.4022  -17.1644 N   0  0  0  0  0  0  0  0  0  0  0  0
   27.1139  -18.2565  -18.5336 C   0  0  1  0  0  0  0  0  0  0  0  0
   26.0775  -17.6731  -19.4467 C   0  0  0  0  0  0  0  0  0  0  0  0
   24.9145  -18.5825  -19.6318 C   0  0  0  0  0  0  0  0  0  0  0  0
   25.0907  -19.6893  -20.4348 C   0  0  0  0  0  0  0  0  0  0  0  0
   24.0925  -20.6146  -20.6896 C   0  0  0  0  0  0  0  0  0  0  0  0
   22.8753  -20.3716  -20.0849 C   0  0  0  0  0  0  0  0  0  0  0  0
   22.6751  -19.2783  -19.2821 C   0  0  0  0  0  0  0  0  0  0  0  0
   23.6985  -18.3596  -19.0408 C   0  0  0  0  0  0  0  0  0  0  0  0
   28.2909  -17.3620  -18.5175 C   0  0  0  0  0  0  0  0  0  0  0  0
   28.3516  -16.4793  -17.6318 O   0  0  0  0  0  0  0  0  0  0  0  0
   32.3249  -17.4949  -17.3330 C   0  0  0  0  0  0  0  0  0  0  0  0
   32.1727  -18.2085  -18.6884 C   0  0  2  0  0  0  0  0  0  0  0  0
   33.4447  -18.9348  -18.9511 C   0  0  0  0  0  0  0  0  0  0  0  0
   31.7777  -17.1730  -19.6733 C   0  0  0  0  0  0  0  0  0  0  0  0
   30.4392  -16.5637  -19.4178 C   0  0  2  0  0  0  0  0  0  0  0  0
   29.3295  -17.4705  -19.4566 N   0  0  0  0  0  0  0  0  0  0  0  0
   30.1762  -15.4198  -20.3280 C   0  0  0  0  0  0  0  0  0  0  0  0
   31.0013  -14.4937  -20.4366 O   0  0  0  0  0  0  0  0  0  0  0  0
   28.9834  -15.3766  -21.0788 N   0  0  0  0  0  0  0  0  0  0  0  0
   28.7199  -14.2147  -21.9121 C   0  0  1  0  0  0  0  0  0  0  0  0
   27.9854  -14.6454  -23.1681 C   0  0  0  0  0  0  0  0  0  0  0  0
   27.5691  -13.5240  -24.0209 C   0  0  0  0  0  0  0  0  0  0  0  0
   27.8308  -12.3231  -23.7582 O   0  0  0  0  0  0  0  0  0  0  0  0
   27.9179  -13.2552  -21.1218 C   0  0  0  0  0  0  0  0  0  0  0  0
   26.9187  -13.6610  -20.2424 O   0  0  0  0  0  0  0  0  0  0  0  0
   26.8410  -13.7402  -25.2001 O   0  0  0  0  0  0  0  0  0  0  0  0
   28.1560  -12.0235  -21.2574 O   0  0  0  0  0  0  0  0  0  0  0  0
  2 10  1  0
  2  1  1  1
  2  3  1  0
  3  4  1  0
  4  5  2  0
  4  9  1  0
  5  6  1  0
  6  7  2  0
  8  7  1  0
  9  8  2  0
 10 17  1  0
 11 10  2  0
 13 12  1  1
 13 14  1  0
 15 13  1  0
 16 15  1  6
 17 16  1  0
 18 19  2  0
 18 16  1  0
 20 18  1  0
 21 22  1  6
 21 20  1  0
 23 22  1  0
 24 23  2  0
 25 21  1  0
 26 25  1  0
 27 23  1  0
 28 25  2  0
M  END
$$$$
