WSL.pdb
     RDKit          3D

 29 30  0  0  1  0  0  0  0  0999 V2000
    6.4840  -17.5997   24.8127 N   0  0  0  0  0  0  0  0  0  0  0  0
    7.4976  -16.6421   24.4768 C   0  0  1  0  0  0  0  0  0  0  0  0
    7.8184  -15.7822   25.6538 C   0  0  0  0  0  0  0  0  0  0  0  0
    6.7776  -14.7430   25.8057 C   0  0  0  0  0  0  0  0  0  0  0  0
    5.5774  -14.9151   26.4876 C   0  0  0  0  0  0  0  0  0  0  0  0
    4.8997  -13.7552   26.4513 N   0  0  0  0  0  0  0  0  0  0  0  0
    5.6450  -12.8502   25.7597 C   0  0  0  0  0  0  0  0  0  0  0  0
    5.4000  -11.5344   25.4365 C   0  0  0  0  0  0  0  0  0  0  0  0
    6.3098  -10.8056   24.7076 C   0  0  0  0  0  0  0  0  0  0  0  0
    7.4860  -11.4226   24.3005 C   0  0  0  0  0  0  0  0  0  0  0  0
    7.7570  -12.7364   24.6095 C   0  0  0  0  0  0  0  0  0  0  0  0
    6.8337  -13.4512   25.3422 C   0  0  0  0  0  0  0  0  0  0  0  0
    8.7255  -17.3840   24.0306 C   0  0  0  0  0  0  0  0  0  0  0  0
    8.8967  -18.5465   24.4525 O   0  0  0  0  0  0  0  0  0  0  0  0
   11.3592  -15.4918   21.5590 O   0  0  0  0  0  0  0  0  0  0  0  0
   11.7707  -16.7789   21.8968 C   0  0  0  0  0  0  0  0  0  0  0  0
   10.9993  -17.3056   23.0925 C   0  0  2  0  0  0  0  0  0  0  0  0
    9.6707  -16.7885   23.1545 N   0  0  0  0  0  0  0  0  0  0  0  0
   11.7877  -16.9689   24.3262 C   0  0  0  0  0  0  0  0  0  0  0  0
   12.9744  -16.6590   24.1765 O   0  0  0  0  0  0  0  0  0  0  0  0
   11.4309  -14.0798   27.2521 C   0  0  0  0  0  0  0  0  0  0  0  0
   10.4278  -15.1761   27.6151 C   0  0  2  0  0  0  0  0  0  0  0  0
    9.5039  -14.6513   28.6571 C   0  0  0  0  0  0  0  0  0  0  0  0
   11.1646  -16.4215   27.9865 C   0  0  0  0  0  0  0  0  0  0  0  0
   11.9970  -16.9167   26.8531 C   0  0  2  0  0  0  0  0  0  0  0  0
   11.2221  -16.9966   25.6183 N   0  0  0  0  0  0  0  0  0  0  0  0
   12.5225  -18.2585   27.1547 C   0  0  0  0  0  0  0  0  0  0  0  0
   13.5652  -18.3479   28.1032 O   0  0  0  0  0  0  0  0  0  0  0  0
   12.1617  -19.3409   26.6745 O   0  0  0  0  0  0  0  0  0  0  0  0
  2  1  1  1
  2  3  1  0
  2 13  1  0
  3  4  1  0
  4 12  1  0
  5  4  2  0
  5  6  1  0
  6  7  1  0
  7  8  1  0
  8  9  2  0
 10  9  1  0
 11 10  2  0
 12  7  2  0
 12 11  1  0
 13 18  1  0
 13 14  2  0
 16 15  1  0
 17 16  1  6
 18 17  1  0
 19 17  1  0
 19 20  2  0
 22 21  1  1
 23 22  1  0
 25 24  1  1
 24 22  1  0
 25 26  1  0
 26 19  1  0
 27 25  1  0
 28 27  1  0
 29 27  2  0
M  END
$$$$
