WSL.pdb
     RDKit          3D

 29 30  0  0  1  0  0  0  0  0999 V2000
    6.0975  -16.5730   24.6648 N   0  0  0  0  0  0  0  0  0  0  0  0
    7.4259  -16.1969   24.2762 C   0  0  1  0  0  0  0  0  0  0  0  0
    7.7697  -14.8492   24.8176 C   0  0  0  0  0  0  0  0  0  0  0  0
    7.2272  -13.8037   23.9239 C   0  0  0  0  0  0  0  0  0  0  0  0
    6.2807  -12.8543   24.2954 C   0  0  0  0  0  0  0  0  0  0  0  0
    6.0527  -12.0496   23.2436 N   0  0  0  0  0  0  0  0  0  0  0  0
    6.8347  -12.4690   22.2114 C   0  0  0  0  0  0  0  0  0  0  0  0
    6.9681  -11.9939   20.9261 C   0  0  0  0  0  0  0  0  0  0  0  0
    7.8281  -12.5946   20.0373 C   0  0  0  0  0  0  0  0  0  0  0  0
    8.5635  -13.6946   20.4605 C   0  0  0  0  0  0  0  0  0  0  0  0
    8.4502  -14.1906   21.7395 C   0  0  0  0  0  0  0  0  0  0  0  0
    7.5838  -13.5748   22.6172 C   0  0  0  0  0  0  0  0  0  0  0  0
    8.3863  -17.2247   24.8041 C   0  0  0  0  0  0  0  0  0  0  0  0
    8.1562  -17.7246   25.9247 O   0  0  0  0  0  0  0  0  0  0  0  0
   11.2043  -19.1443   22.5389 O   0  0  0  0  0  0  0  0  0  0  0  0
   11.7092  -18.6882   23.7542 C   0  0  0  0  0  0  0  0  0  0  0  0
   10.5898  -18.3164   24.7087 C   0  0  2  0  0  0  0  0  0  0  0  0
    9.5264  -17.6225   24.0574 N   0  0  0  0  0  0  0  0  0  0  0  0
   11.1908  -17.5018   25.8187 C   0  0  0  0  0  0  0  0  0  0  0  0
   12.0150  -16.6355   25.5072 O   0  0  0  0  0  0  0  0  0  0  0  0
   11.1969  -14.1426   27.5191 C   0  0  0  0  0  0  0  0  0  0  0  0
   10.0634  -15.0563   27.9885 C   0  0  2  0  0  0  0  0  0  0  0  0
    8.9496  -14.2112   28.4983 C   0  0  0  0  0  0  0  0  0  0  0  0
   10.6001  -16.0560   28.9602 C   0  0  0  0  0  0  0  0  0  0  0  0
   11.5099  -17.0285   28.2897 C   0  0  2  0  0  0  0  0  0  0  0  0
   10.8469  -17.6956   27.1731 N   0  0  0  0  0  0  0  0  0  0  0  0
   11.9496  -18.0580   29.2459 C   0  0  0  0  0  0  0  0  0  0  0  0
   12.8050  -17.6475   30.2922 O   0  0  0  0  0  0  0  0  0  0  0  0
   11.6608  -19.2617   29.2517 O   0  0  0  0  0  0  0  0  0  0  0  0
  2  1  1  1
  2  3  1  0
  2 13  1  0
  3  4  1  0
  4 12  1  0
  5  4  2  0
  5  6  1  0
  6  7  1  0
  7  8  1  0
  8  9  2  0
 10  9  1  0
 11 10  2  0
 12  7  2  0
 12 11  1  0
 13 18  1  0
 13 14  2  0
 16 15  1  0
 17 16  1  6
 18 17  1  0
 19 17  1  0
 19 20  2  0
 22 21  1  1
 23 22  1  0
 25 24  1  1
 24 22  1  0
 25 26  1  0
 26 19  1  0
 27 25  1  0
 28 27  1  0
 29 27  2  0
M  END
$$$$
