WSL.pdb
     RDKit          3D

 29 30  0  0  1  0  0  0  0  0999 V2000
    6.1243  -17.5932   24.5769 N   0  0  0  0  0  0  0  0  0  0  0  0
    7.2742  -16.7758   24.3181 C   0  0  1  0  0  0  0  0  0  0  0  0
    7.6053  -15.9425   25.5113 C   0  0  0  0  0  0  0  0  0  0  0  0
    6.6789  -14.7926   25.5843 C   0  0  0  0  0  0  0  0  0  0  0  0
    5.4214  -14.8226   26.1786 C   0  0  0  0  0  0  0  0  0  0  0  0
    4.8816  -13.5951   26.0896 N   0  0  0  0  0  0  0  0  0  0  0  0
    5.7705  -12.7863   25.4504 C   0  0  0  0  0  0  0  0  0  0  0  0
    5.6975  -11.4553   25.1060 C   0  0  0  0  0  0  0  0  0  0  0  0
    6.7325  -10.8403   24.4421 C   0  0  0  0  0  0  0  0  0  0  0  0
    7.8585  -11.5887   24.1228 C   0  0  0  0  0  0  0  0  0  0  0  0
    7.9586  -12.9208   24.4550 C   0  0  0  0  0  0  0  0  0  0  0  0
    6.9115  -13.5203   25.1217 C   0  0  0  0  0  0  0  0  0  0  0  0
    8.4306  -17.6730   23.9791 C   0  0  0  0  0  0  0  0  0  0  0  0
    8.5491  -18.7442   24.6094 O   0  0  0  0  0  0  0  0  0  0  0  0
   11.2553  -15.8691   21.5264 O   0  0  0  0  0  0  0  0  0  0  0  0
   11.6105  -17.1256   22.0111 C   0  0  0  0  0  0  0  0  0  0  0  0
   10.7622  -17.5121   23.2084 C   0  0  2  0  0  0  0  0  0  0  0  0
    9.3678  -17.3214   22.9723 N   0  0  0  0  0  0  0  0  0  0  0  0
   11.2441  -16.7110   24.3844 C   0  0  0  0  0  0  0  0  0  0  0  0
   10.7670  -15.5816   24.5378 O   0  0  0  0  0  0  0  0  0  0  0  0
   11.5462  -14.2950   27.8526 C   0  0  0  0  0  0  0  0  0  0  0  0
   10.5308  -15.1228   27.0630 C   0  0  2  0  0  0  0  0  0  0  0  0
    9.1601  -14.7213   27.4809 C   0  0  0  0  0  0  0  0  0  0  0  0
   10.8440  -16.5751   27.2190 C   0  0  0  0  0  0  0  0  0  0  0  0
   12.2135  -16.8903   26.7209 C   0  0  2  0  0  0  0  0  0  0  0  0
   12.2028  -17.2029   25.2949 N   0  0  0  0  0  0  0  0  0  0  0  0
   12.7641  -18.0496   27.4424 C   0  0  0  0  0  0  0  0  0  0  0  0
   12.8785  -19.2627   26.7282 O   0  0  0  0  0  0  0  0  0  0  0  0
   13.1476  -18.0998   28.6183 O   0  0  0  0  0  0  0  0  0  0  0  0
  2  1  1  1
  2  3  1  0
  2 13  1  0
  3  4  1  0
  4 12  1  0
  5  4  2  0
  5  6  1  0
  6  7  1  0
  7  8  1  0
  8  9  2  0
 10  9  1  0
 11 10  2  0
 12  7  2  0
 12 11  1  0
 13 18  1  0
 13 14  2  0
 16 15  1  0
 17 16  1  6
 18 17  1  0
 19 17  1  0
 19 20  2  0
 22 21  1  1
 23 22  1  0
 25 24  1  1
 24 22  1  0
 25 26  1  0
 26 19  1  0
 27 25  1  0
 28 27  1  0
 29 27  2  0
M  END
$$$$
