WSL.pdb
     RDKit          3D

 29 30  0  0  1  0  0  0  0  0999 V2000
    6.3518  -17.5015   24.5292 N   0  0  0  0  0  0  0  0  0  0  0  0
    7.4445  -16.6033   24.2917 C   0  0  1  0  0  0  0  0  0  0  0  0
    7.7854  -15.8508   25.5348 C   0  0  0  0  0  0  0  0  0  0  0  0
    6.8935  -14.6787   25.6641 C   0  0  0  0  0  0  0  0  0  0  0  0
    5.6796  -14.6758   26.3436 C   0  0  0  0  0  0  0  0  0  0  0  0
    5.1640  -13.4363   26.2842 N   0  0  0  0  0  0  0  0  0  0  0  0
    6.0256  -12.6520   25.5802 C   0  0  0  0  0  0  0  0  0  0  0  0
    5.9604  -11.3212   25.2332 C   0  0  0  0  0  0  0  0  0  0  0  0
    6.9613  -10.7343   24.4958 C   0  0  0  0  0  0  0  0  0  0  0  0
    8.0448  -11.5109   24.1046 C   0  0  0  0  0  0  0  0  0  0  0  0
    8.1361  -12.8435   24.4376 C   0  0  0  0  0  0  0  0  0  0  0  0
    7.1236  -13.4146   25.1785 C   0  0  0  0  0  0  0  0  0  0  0  0
    8.6296  -17.4047   23.8330 C   0  0  0  0  0  0  0  0  0  0  0  0
    8.7407  -18.5787   24.2431 O   0  0  0  0  0  0  0  0  0  0  0  0
   11.1075  -15.8219   21.1538 O   0  0  0  0  0  0  0  0  0  0  0  0
   11.8529  -16.6086   22.0287 C   0  0  0  0  0  0  0  0  0  0  0  0
   10.9719  -17.2235   23.1002 C   0  0  2  0  0  0  0  0  0  0  0  0
    9.6015  -16.8515   22.9584 N   0  0  0  0  0  0  0  0  0  0  0  0
   11.5265  -16.8137   24.4349 C   0  0  0  0  0  0  0  0  0  0  0  0
   12.3546  -15.8966   24.4501 O   0  0  0  0  0  0  0  0  0  0  0  0
   10.8169  -14.2410   27.4801 C   0  0  0  0  0  0  0  0  0  0  0  0
    9.7658  -15.3501   27.4107 C   0  0  2  0  0  0  0  0  0  0  0  0
    8.5787  -14.9327   28.2051 C   0  0  0  0  0  0  0  0  0  0  0  0
   10.3829  -16.6470   27.8218 C   0  0  0  0  0  0  0  0  0  0  0  0
   11.5555  -16.9844   26.9650 C   0  0  2  0  0  0  0  0  0  0  0  0
   11.1359  -17.4332   25.6407 N   0  0  0  0  0  0  0  0  0  0  0  0
   12.3481  -18.0588   27.5857 C   0  0  0  0  0  0  0  0  0  0  0  0
   12.3538  -19.3152   26.9405 O   0  0  0  0  0  0  0  0  0  0  0  0
   13.0238  -18.0024   28.6212 O   0  0  0  0  0  0  0  0  0  0  0  0
  2  1  1  1
  2  3  1  0
  2 13  1  0
  3  4  1  0
  4 12  1  0
  5  4  2  0
  5  6  1  0
  6  7  1  0
  7  8  1  0
  8  9  2  0
 10  9  1  0
 11 10  2  0
 12  7  2  0
 12 11  1  0
 13 18  1  0
 13 14  2  0
 16 15  1  0
 17 16  1  6
 18 17  1  0
 19 17  1  0
 19 20  2  0
 22 21  1  1
 23 22  1  0
 25 24  1  1
 24 22  1  0
 25 26  1  0
 26 19  1  0
 27 25  1  0
 28 27  1  0
 29 27  2  0
M  END
$$$$
