WSL.pdb
     RDKit          3D

 29 30  0  0  1  0  0  0  0  0999 V2000
    6.4200  -17.7480   20.6390 N   0  0  0  0  0  0  0  0  0  0  0  0
    7.1592  -16.7841   21.4016 C   0  0  1  0  0  0  0  0  0  0  0  0
    6.4344  -15.4800   21.4434 C   0  0  0  0  0  0  0  0  0  0  0  0
    6.8295  -14.6568   20.2805 C   0  0  0  0  0  0  0  0  0  0  0  0
    6.0015  -14.3531   19.2046 C   0  0  0  0  0  0  0  0  0  0  0  0
    6.6802  -13.5595   18.3588 N   0  0  0  0  0  0  0  0  0  0  0  0
    7.9227  -13.3536   18.8753 C   0  0  0  0  0  0  0  0  0  0  0  0
    8.9923  -12.6296   18.3985 C   0  0  0  0  0  0  0  0  0  0  0  0
   10.1738  -12.5716   19.0991 C   0  0  0  0  0  0  0  0  0  0  0  0
   10.2704  -13.2595   20.3022 C   0  0  0  0  0  0  0  0  0  0  0  0
    9.2171  -13.9909   20.8028 C   0  0  0  0  0  0  0  0  0  0  0  0
    8.0398  -14.0366   20.0871 C   0  0  0  0  0  0  0  0  0  0  0  0
    7.3424  -17.3168   22.7944 C   0  0  0  0  0  0  0  0  0  0  0  0
    6.3295  -17.6986   23.4166 O   0  0  0  0  0  0  0  0  0  0  0  0
   10.8559  -18.5915   24.5400 O   0  0  0  0  0  0  0  0  0  0  0  0
    9.6533  -18.6236   25.2419 C   0  0  0  0  0  0  0  0  0  0  0  0
    8.7376  -17.4918   24.8140 C   0  0  2  0  0  0  0  0  0  0  0  0
    8.6268  -17.3876   23.3951 N   0  0  0  0  0  0  0  0  0  0  0  0
    9.2632  -16.2253   25.4276 C   0  0  0  0  0  0  0  0  0  0  0  0
   10.1232  -15.6013   24.7968 O   0  0  0  0  0  0  0  0  0  0  0  0
    7.9450  -12.3478   26.0312 C   0  0  0  0  0  0  0  0  0  0  0  0
    7.3106  -13.3211   27.0262 C   0  0  2  0  0  0  0  0  0  0  0  0
    6.1004  -12.6832   27.6119 C   0  0  0  0  0  0  0  0  0  0  0  0
    8.3395  -13.7624   28.0153 C   0  0  0  0  0  0  0  0  0  0  0  0
    9.3919  -14.5959   27.3667 C   0  0  2  0  0  0  0  0  0  0  0  0
    8.8114  -15.7423   26.6737 N   0  0  0  0  0  0  0  0  0  0  0  0
   10.3381  -15.0988   28.3763 C   0  0  0  0  0  0  0  0  0  0  0  0
   11.1959  -14.1570   28.9863 O   0  0  0  0  0  0  0  0  0  0  0  0
   10.4825  -16.2642   28.7677 O   0  0  0  0  0  0  0  0  0  0  0  0
  2  1  1  6
  2  3  1  0
  2 13  1  0
  3  4  1  0
  4 12  1  0
  5  4  2  0
  5  6  1  0
  6  7  1  0
  7  8  1  0
  8  9  2  0
 10  9  1  0
 11 10  2  0
 12  7  2  0
 12 11  1  0
 13 18  1  0
 13 14  2  0
 16 15  1  0
 17 16  1  6
 18 17  1  0
 19 17  1  0
 19 20  2  0
 22 21  1  6
 23 22  1  0
 25 24  1  1
 24 22  1  0
 25 26  1  0
 26 19  1  0
 27 25  1  0
 28 27  1  0
 29 27  2  0
M  END
$$$$
