WSL.pdb
     RDKit          3D

 29 30  0  0  1  0  0  0  0  0999 V2000
    6.4242  -16.8042   20.1898 N   0  0  0  0  0  0  0  0  0  0  0  0
    7.4222  -16.1343   20.9725 C   0  0  1  0  0  0  0  0  0  0  0  0
    7.1698  -14.6634   20.9976 C   0  0  0  0  0  0  0  0  0  0  0  0
    7.9573  -14.0079   19.9317 C   0  0  0  0  0  0  0  0  0  0  0  0
    7.4167  -13.2599   18.8908 C   0  0  0  0  0  0  0  0  0  0  0  0
    8.4260  -12.7901   18.1383 N   0  0  0  0  0  0  0  0  0  0  0  0
    9.5967  -13.2250   18.6798 C   0  0  0  0  0  0  0  0  0  0  0  0
   10.9023  -13.0301   18.2884 C   0  0  0  0  0  0  0  0  0  0  0  0
   11.9417  -13.5852   18.9968 C   0  0  0  0  0  0  0  0  0  0  0  0
   11.6506  -14.3499   20.1194 C   0  0  0  0  0  0  0  0  0  0  0  0
   10.3550  -14.5610   20.5336 C   0  0  0  0  0  0  0  0  0  0  0  0
    9.3257  -13.9956   19.8117 C   0  0  0  0  0  0  0  0  0  0  0  0
    7.3841  -16.6876   22.3687 C   0  0  0  0  0  0  0  0  0  0  0  0
    6.2759  -16.7755   22.9371 O   0  0  0  0  0  0  0  0  0  0  0  0
   10.5655  -18.5340   24.4437 O   0  0  0  0  0  0  0  0  0  0  0  0
    9.2850  -18.4048   24.9763 C   0  0  0  0  0  0  0  0  0  0  0  0
    8.5984  -17.1550   24.4576 C   0  0  2  0  0  0  0  0  0  0  0  0
    8.5693  -17.1013   23.0318 N   0  0  0  0  0  0  0  0  0  0  0  0
    9.3077  -15.9690   25.0467 C   0  0  0  0  0  0  0  0  0  0  0  0
   10.2831  -15.5256   24.4313 O   0  0  0  0  0  0  0  0  0  0  0  0
    7.0391  -13.5780   25.9588 C   0  0  0  0  0  0  0  0  0  0  0  0
    7.4794  -13.5211   27.4226 C   0  0  2  0  0  0  0  0  0  0  0  0
    6.6287  -12.5318   28.1383 C   0  0  0  0  0  0  0  0  0  0  0  0
    8.9493  -13.2637   27.4904 C   0  0  0  0  0  0  0  0  0  0  0  0
    9.7285  -14.4499   27.0334 C   0  0  2  0  0  0  0  0  0  0  0  0
    8.8989  -15.3639   26.2538 N   0  0  0  0  0  0  0  0  0  0  0  0
   10.2623  -15.1862   28.1911 C   0  0  0  0  0  0  0  0  0  0  0  0
   11.1910  -14.5129   29.0151 O   0  0  0  0  0  0  0  0  0  0  0  0
    9.9972  -16.3429   28.5432 O   0  0  0  0  0  0  0  0  0  0  0  0
  2  1  1  6
  2  3  1  0
  2 13  1  0
  3  4  1  0
  4 12  1  0
  5  4  2  0
  5  6  1  0
  6  7  1  0
  7  8  1  0
  8  9  2  0
 10  9  1  0
 11 10  2  0
 12  7  2  0
 12 11  1  0
 13 18  1  0
 13 14  2  0
 16 15  1  0
 17 16  1  6
 18 17  1  0
 19 17  1  0
 19 20  2  0
 22 21  1  6
 23 22  1  0
 25 24  1  1
 24 22  1  0
 25 26  1  0
 26 19  1  0
 27 25  1  0
 28 27  1  0
 29 27  2  0
M  END
$$$$
