WSL.pdb
     RDKit          3D

 29 30  0  0  1  0  0  0  0  0999 V2000
    7.0753  -16.9658   21.2421 N   0  0  0  0  0  0  0  0  0  0  0  0
    8.2080  -16.3193   21.8390 C   0  0  1  0  0  0  0  0  0  0  0  0
    7.8733  -14.9139   22.2138 C   0  0  0  0  0  0  0  0  0  0  0  0
    7.8478  -14.0706   20.9996 C   0  0  0  0  0  0  0  0  0  0  0  0
    6.6997  -13.5206   20.4389 C   0  0  0  0  0  0  0  0  0  0  0  0
    7.0590  -12.7881   19.3711 N   0  0  0  0  0  0  0  0  0  0  0  0
    8.4120  -12.8623   19.2419 C   0  0  0  0  0  0  0  0  0  0  0  0
    9.2646  -12.3042   18.3160 C   0  0  0  0  0  0  0  0  0  0  0  0
   10.6195  -12.5294   18.3783 C   0  0  0  0  0  0  0  0  0  0  0  0
   11.1158  -13.3339   19.3964 C   0  0  0  0  0  0  0  0  0  0  0  0
   10.2867  -13.9045   20.3355 C   0  0  0  0  0  0  0  0  0  0  0  0
    8.9311  -13.6666   20.2579 C   0  0  0  0  0  0  0  0  0  0  0  0
    8.6119  -17.0961   23.0599 C   0  0  0  0  0  0  0  0  0  0  0  0
    7.7221  -17.4150   23.8757 O   0  0  0  0  0  0  0  0  0  0  0  0
   12.5668  -18.3492   23.6900 O   0  0  0  0  0  0  0  0  0  0  0  0
   11.5387  -18.9834   24.3834 C   0  0  0  0  0  0  0  0  0  0  0  0
   10.3302  -18.0766   24.5236 C   0  0  2  0  0  0  0  0  0  0  0  0
    9.9645  -17.4616   23.2888 N   0  0  0  0  0  0  0  0  0  0  0  0
   10.6462  -17.0587   25.5823 C   0  0  0  0  0  0  0  0  0  0  0  0
   11.4005  -16.1303   25.2725 O   0  0  0  0  0  0  0  0  0  0  0  0
    9.9093  -13.3308   27.3957 C   0  0  0  0  0  0  0  0  0  0  0  0
    8.8233  -14.4061   27.4602 C   0  0  2  0  0  0  0  0  0  0  0  0
    7.5191  -13.7500   27.7485 C   0  0  0  0  0  0  0  0  0  0  0  0
    9.2305  -15.4668   28.4301 C   0  0  0  0  0  0  0  0  0  0  0  0
   10.4425  -16.1957   27.9583 C   0  0  2  0  0  0  0  0  0  0  0  0
   10.1170  -17.1336   26.8879 N   0  0  0  0  0  0  0  0  0  0  0  0
   11.0455  -16.9536   29.0671 C   0  0  0  0  0  0  0  0  0  0  0  0
   10.9984  -18.3631   28.9897 O   0  0  0  0  0  0  0  0  0  0  0  0
   11.5998  -16.5064   30.0795 O   0  0  0  0  0  0  0  0  0  0  0  0
  2  1  1  1
  2  3  1  0
  2 13  1  0
  3  4  1  0
  4 12  1  0
  5  4  2  0
  5  6  1  0
  6  7  1  0
  7  8  1  0
  8  9  2  0
 10  9  1  0
 11 10  2  0
 12  7  2  0
 12 11  1  0
 13 18  1  0
 13 14  2  0
 16 15  1  0
 17 16  1  6
 18 17  1  0
 19 17  1  0
 19 20  2  0
 22 21  1  1
 23 22  1  0
 25 24  1  1
 24 22  1  0
 25 26  1  0
 26 19  1  0
 27 25  1  0
 28 27  1  0
 29 27  2  0
M  END
$$$$
