WSL.pdb
     RDKit          3D

 29 30  0  0  1  0  0  0  0  0999 V2000
    6.1728  -18.1251   24.3511 N   0  0  0  0  0  0  0  0  0  0  0  0
    7.1493  -17.0801   24.2424 C   0  0  1  0  0  0  0  0  0  0  0  0
    7.4387  -16.4903   25.5826 C   0  0  0  0  0  0  0  0  0  0  0  0
    6.7631  -15.1807   25.7032 C   0  0  0  0  0  0  0  0  0  0  0  0
    5.5200  -14.9800   26.2945 C   0  0  0  0  0  0  0  0  0  0  0  0
    5.2403  -13.6662   26.2569 N   0  0  0  0  0  0  0  0  0  0  0  0
    6.2803  -13.0284   25.6531 C   0  0  0  0  0  0  0  0  0  0  0  0
    6.4811  -11.6971   25.3650 C   0  0  0  0  0  0  0  0  0  0  0  0
    7.6252  -11.2775   24.7285 C   0  0  0  0  0  0  0  0  0  0  0  0
    8.5797  -12.2245   24.3790 C   0  0  0  0  0  0  0  0  0  0  0  0
    8.4053  -13.5618   24.6548 C   0  0  0  0  0  0  0  0  0  0  0  0
    7.2524  -13.9639   25.2947 C   0  0  0  0  0  0  0  0  0  0  0  0
    8.4038  -17.6592   23.6524 C   0  0  0  0  0  0  0  0  0  0  0  0
    8.5160  -18.9020   23.6116 O   0  0  0  0  0  0  0  0  0  0  0  0
   10.9242  -15.7831   21.3387 O   0  0  0  0  0  0  0  0  0  0  0  0
   11.6668  -16.6293   22.1588 C   0  0  0  0  0  0  0  0  0  0  0  0
   10.7951  -17.2621   23.2274 C   0  0  2  0  0  0  0  0  0  0  0  0
    9.4385  -16.8252   23.1531 N   0  0  0  0  0  0  0  0  0  0  0  0
   11.4107  -16.9476   24.5612 C   0  0  0  0  0  0  0  0  0  0  0  0
   12.5895  -16.5770   24.5709 O   0  0  0  0  0  0  0  0  0  0  0  0
   10.6675  -13.7602   26.9154 C   0  0  0  0  0  0  0  0  0  0  0  0
    9.6048  -14.8351   27.1501 C   0  0  2  0  0  0  0  0  0  0  0  0
    8.4236  -14.2043   27.7992 C   0  0  0  0  0  0  0  0  0  0  0  0
   10.2092  -15.9769   27.9002 C   0  0  0  0  0  0  0  0  0  0  0  0
   11.2307  -16.6855   27.0772 C   0  0  2  0  0  0  0  0  0  0  0  0
   10.6957  -17.0615   25.7720 N   0  0  0  0  0  0  0  0  0  0  0  0
   11.6774  -17.9098   27.7621 C   0  0  0  0  0  0  0  0  0  0  0  0
   12.3299  -17.7556   29.0052 O   0  0  0  0  0  0  0  0  0  0  0  0
   11.5527  -19.0811   27.3816 O   0  0  0  0  0  0  0  0  0  0  0  0
  2  1  1  1
  2  3  1  0
  2 13  1  0
  3  4  1  0
  4 12  1  0
  5  4  2  0
  5  6  1  0
  6  7  1  0
  7  8  1  0
  8  9  2  0
 10  9  1  0
 11 10  2  0
 12  7  2  0
 12 11  1  0
 13 18  1  0
 13 14  2  0
 16 15  1  0
 17 16  1  6
 18 17  1  0
 19 17  1  0
 19 20  2  0
 22 21  1  1
 23 22  1  0
 25 24  1  1
 24 22  1  0
 25 26  1  0
 26 19  1  0
 27 25  1  0
 28 27  1  0
 29 27  2  0
M  END
$$$$
