IPK.pdb
     RDKit          3D

 25 25  0  0  1  0  0  0  0  0999 V2000
   22.3829  -21.5737   -8.2697 C   0  0  0  0  0  0  0  0  0  0  0  0
   23.8758  -21.2705   -8.3609 C   0  0  0  0  0  0  0  0  0  0  0  0
   24.1102  -20.7815   -9.7868 C   0  0  2  0  0  0  0  0  0  0  0  0
   23.8280  -21.9485  -10.7078 C   0  0  0  0  0  0  0  0  0  0  0  0
   25.5899  -20.3950   -9.9622 C   0  0  2  0  0  0  0  0  0  0  0  0
   25.7632  -19.3172   -8.9662 N   0  0  0  0  0  0  0  0  0  0  0  0
   25.8579  -19.8246  -11.2849 C   0  0  0  0  0  0  0  0  0  0  0  0
   25.2831  -18.7127  -11.5645 O   0  0  0  0  0  0  0  0  0  0  0  0
   26.7041  -20.4146  -12.2672 N   0  0  0  0  0  0  0  0  0  0  0  0
   27.4567  -21.6615  -12.0500 C   0  0  0  0  0  0  0  0  0  0  0  0
   28.6030  -21.6350  -13.0113 C   0  0  0  0  0  0  0  0  0  0  0  0
   28.4972  -20.3557  -13.8106 C   0  0  0  0  0  0  0  0  0  0  0  0
   27.0233  -20.0044  -13.5847 C   0  0  1  0  0  0  0  0  0  0  0  0
   26.1719  -20.6329  -14.6296 C   0  0  0  0  0  0  0  0  0  0  0  0
   25.8450  -21.8421  -14.5062 O   0  0  0  0  0  0  0  0  0  0  0  0
   25.6936  -19.9529  -15.7766 N   0  0  0  0  0  0  0  0  0  0  0  0
   24.2769  -19.8270  -16.1003 C   0  0  1  0  0  0  0  0  0  0  0  0
   23.5989  -19.2188  -14.9037 C   0  0  0  0  0  0  0  0  0  0  0  0
   22.1693  -18.8469  -15.1073 C   0  0  0  0  0  0  0  0  0  0  0  0
   21.2595  -20.0114  -14.6979 C   0  0  0  0  0  0  0  0  0  0  0  0
   19.8830  -19.7821  -15.2787 C   0  0  0  0  0  0  0  0  0  0  0  0
   18.9915  -20.8843  -15.0036 N   0  0  0  0  0  0  0  0  0  0  0  0
   24.0522  -19.0977  -17.3433 C   0  0  0  0  0  0  0  0  0  0  0  0
   24.5655  -17.8233  -17.4997 O   0  0  0  0  0  0  0  0  0  0  0  0
   23.4008  -19.6014  -18.2795 O   0  0  0  0  0  0  0  0  0  0  0  0
  2  1  1  0
  3  2  1  0
  3  4  1  6
  5  3  1  0
  5  7  1  0
  5  6  1  1
  7  8  2  0
  9  7  1  0
  9 13  1  0
 10 11  1  0
 10  9  1  0
 11 12  1  0
 12 13  1  0
 13 14  1  6
 14 15  2  0
 16 14  1  0
 17 16  1  0
 17 23  1  0
 17 18  1  1
 19 18  1  0
 20 19  1  0
 21 20  1  0
 22 21  1  0
 23 24  1  0
 25 23  2  0
M  END
$$$$
