IPK.pdb
     RDKit          3D

 25 25  0  0  1  0  0  0  0  0999 V2000
   27.0541  -20.0962   -7.5352 C   0  0  0  0  0  0  0  0  0  0  0  0
   27.3930  -21.0269   -8.6962 C   0  0  0  0  0  0  0  0  0  0  0  0
   26.5500  -20.5424   -9.8718 C   0  0  2  0  0  0  0  0  0  0  0  0
   25.1106  -20.8869   -9.5569 C   0  0  0  0  0  0  0  0  0  0  0  0
   26.9476  -21.3137  -11.1433 C   0  0  2  0  0  0  0  0  0  0  0  0
   28.3559  -20.9109  -11.3392 N   0  0  0  0  0  0  0  0  0  0  0  0
   26.1914  -20.8694  -12.3170 C   0  0  0  0  0  0  0  0  0  0  0  0
   26.4440  -19.6921  -12.7583 O   0  0  0  0  0  0  0  0  0  0  0  0
   25.2084  -21.6486  -12.9920 N   0  0  0  0  0  0  0  0  0  0  0  0
   24.7166  -22.9452  -12.4966 C   0  0  0  0  0  0  0  0  0  0  0  0
   24.1830  -23.6767  -13.6877 C   0  0  0  0  0  0  0  0  0  0  0  0
   24.3541  -22.7753  -14.8897 C   0  0  0  0  0  0  0  0  0  0  0  0
   24.5090  -21.4156  -14.2014 C   0  0  1  0  0  0  0  0  0  0  0  0
   23.1810  -20.7740  -14.0103 C   0  0  0  0  0  0  0  0  0  0  0  0
   22.4990  -21.0708  -12.9949 O   0  0  0  0  0  0  0  0  0  0  0  0
   22.6186  -19.8340  -14.9085 N   0  0  0  0  0  0  0  0  0  0  0  0
   21.3346  -19.1796  -14.6827 C   0  0  1  0  0  0  0  0  0  0  0  0
   21.2266  -18.0557  -15.6760 C   0  0  0  0  0  0  0  0  0  0  0  0
   22.3410  -17.0657  -15.6352 C   0  0  0  0  0  0  0  0  0  0  0  0
   22.0890  -15.9479  -16.6542 C   0  0  0  0  0  0  0  0  0  0  0  0
   23.2375  -14.9669  -16.5957 C   0  0  0  0  0  0  0  0  0  0  0  0
   23.0562  -13.8693  -17.5164 N   0  0  0  0  0  0  0  0  0  0  0  0
   20.2173  -20.1163  -14.7234 C   0  0  0  0  0  0  0  0  0  0  0  0
   19.0614  -19.8451  -14.0146 O   0  0  0  0  0  0  0  0  0  0  0  0
   20.2797  -21.1681  -15.3898 O   0  0  0  0  0  0  0  0  0  0  0  0
  2  1  1  0
  3  2  1  0
  3  4  1  1
  5  3  1  0
  5  7  1  0
  5  6  1  6
  7  8  2  0
  9  7  1  0
  9 13  1  0
 10 11  1  0
 10  9  1  0
 11 12  1  0
 12 13  1  0
 13 14  1  1
 14 15  2  0
 16 14  1  0
 17 16  1  0
 17 23  1  0
 17 18  1  6
 19 18  1  0
 20 19  1  0
 21 20  1  0
 22 21  1  0
 23 24  1  0
 25 23  2  0
M  END
$$$$
