IPK.pdb
     RDKit          3D

 25 25  0  0  1  0  0  0  0  0999 V2000
   19.9296  -13.4865  -20.5621 C   0  0  0  0  0  0  0  0  0  0  0  0
   20.6010  -13.7663  -19.2204 C   0  0  0  0  0  0  0  0  0  0  0  0
   20.2638  -12.5713  -18.3342 C   0  0  2  0  0  0  0  0  0  0  0  0
   20.9858  -11.3733  -18.9115 C   0  0  0  0  0  0  0  0  0  0  0  0
   20.8139  -12.8098  -16.9163 C   0  0  2  0  0  0  0  0  0  0  0  0
   20.0784  -14.0158  -16.4824 N   0  0  0  0  0  0  0  0  0  0  0  0
   20.4642  -11.7223  -15.9989 C   0  0  0  0  0  0  0  0  0  0  0  0
   19.2301  -11.6184  -15.6660 O   0  0  0  0  0  0  0  0  0  0  0  0
   21.3920  -10.7861  -15.4586 N   0  0  0  0  0  0  0  0  0  0  0  0
   22.8314  -10.7952  -15.7688 C   0  0  0  0  0  0  0  0  0  0  0  0
   23.5118  -10.0962  -14.6342 C   0  0  0  0  0  0  0  0  0  0  0  0
   22.4403   -9.6597  -13.6605 C   0  0  0  0  0  0  0  0  0  0  0  0
   21.2044   -9.7038  -14.5644 C   0  0  1  0  0  0  0  0  0  0  0  0
   21.0080   -8.3949  -15.2426 C   0  0  0  0  0  0  0  0  0  0  0  0
   21.7574   -8.0868  -16.2058 O   0  0  0  0  0  0  0  0  0  0  0  0
   20.0174   -7.4520  -14.8734 N   0  0  0  0  0  0  0  0  0  0  0  0
   19.7563   -6.2291  -15.6246 C   0  0  1  0  0  0  0  0  0  0  0  0
   18.2634   -6.0730  -15.7166 C   0  0  0  0  0  0  0  0  0  0  0  0
   17.5051   -7.3422  -15.9106 C   0  0  0  0  0  0  0  0  0  0  0  0
   16.0128   -7.0406  -16.0932 C   0  0  0  0  0  0  0  0  0  0  0  0
   15.2937   -8.3260  -16.4326 C   0  0  0  0  0  0  0  0  0  0  0  0
   13.8597   -8.1557  -16.4394 N   0  0  0  0  0  0  0  0  0  0  0  0
   20.4397   -5.0713  -15.0589 C   0  0  0  0  0  0  0  0  0  0  0  0
   21.0249   -5.1564  -13.8090 O   0  0  0  0  0  0  0  0  0  0  0  0
   20.5100   -3.9939  -15.6824 O   0  0  0  0  0  0  0  0  0  0  0  0
  2  1  1  0
  3  2  1  0
  3  4  1  6
  5  3  1  0
  5  7  1  0
  5  6  1  1
  7  8  2  0
  9  7  1  0
  9 13  1  0
 10 11  1  0
 10  9  1  0
 11 12  1  0
 12 13  1  0
 13 14  1  6
 14 15  2  0
 16 14  1  0
 17 16  1  0
 17 23  1  0
 17 18  1  1
 19 18  1  0
 20 19  1  0
 21 20  1  0
 22 21  1  0
 23 24  1  0
 25 23  2  0
M  END
$$$$
