IPK.pdb
     RDKit          3D

 25 25  0  0  1  0  0  0  0  0999 V2000
   25.8949  -16.6095  -18.2609 C   0  0  0  0  0  0  0  0  0  0  0  0
   26.8812  -17.7615  -18.0901 C   0  0  0  0  0  0  0  0  0  0  0  0
   26.5167  -18.4224  -16.7643 C   0  0  2  0  0  0  0  0  0  0  0  0
   26.8172  -17.4196  -15.6717 C   0  0  0  0  0  0  0  0  0  0  0  0
   27.4190  -19.6483  -16.5345 C   0  0  2  0  0  0  0  0  0  0  0  0
   27.0563  -20.5330  -17.6613 N   0  0  0  0  0  0  0  0  0  0  0  0
   27.0876  -20.3520  -15.2929 C   0  0  0  0  0  0  0  0  0  0  0  0
   26.0530  -21.1095  -15.3138 O   0  0  0  0  0  0  0  0  0  0  0  0
   27.8293  -20.2528  -14.0808 N   0  0  0  0  0  0  0  0  0  0  0  0
   29.0211  -19.4024  -13.9231 C   0  0  0  0  0  0  0  0  0  0  0  0
   29.8067  -19.9833  -12.7899 C   0  0  0  0  0  0  0  0  0  0  0  0
   29.0420  -21.1810  -12.2729 C   0  0  0  0  0  0  0  0  0  0  0  0
   27.6449  -20.8823  -12.8255 C   0  0  1  0  0  0  0  0  0  0  0  0
   26.8647  -20.0673  -11.8566 C   0  0  0  0  0  0  0  0  0  0  0  0
   26.7326  -18.8327  -12.0628 O   0  0  0  0  0  0  0  0  0  0  0  0
   26.2476  -20.5932  -10.6949 N   0  0  0  0  0  0  0  0  0  0  0  0
   24.8781  -20.2786  -10.3033 C   0  0  1  0  0  0  0  0  0  0  0  0
   23.9917  -20.6213  -11.4688 C   0  0  0  0  0  0  0  0  0  0  0  0
   22.5351  -20.3940  -11.2443 C   0  0  0  0  0  0  0  0  0  0  0  0
   21.7432  -20.7783  -12.5000 C   0  0  0  0  0  0  0  0  0  0  0  0
   20.2803  -20.4804  -12.2639 C   0  0  0  0  0  0  0  0  0  0  0  0
   19.4792  -20.7520  -13.4344 N   0  0  0  0  0  0  0  0  0  0  0  0
   24.4930  -20.9268   -9.0548 C   0  0  0  0  0  0  0  0  0  0  0  0
   24.6456  -22.2934   -8.9095 O   0  0  0  0  0  0  0  0  0  0  0  0
   24.0239  -20.2708   -8.1039 O   0  0  0  0  0  0  0  0  0  0  0  0
  2  1  1  0
  3  2  1  0
  3  4  1  1
  5  3  1  0
  5  7  1  0
  5  6  1  6
  7  8  2  0
  9  7  1  0
  9 13  1  0
 10 11  1  0
 10  9  1  0
 11 12  1  0
 12 13  1  0
 13 14  1  1
 14 15  2  0
 16 14  1  0
 17 16  1  0
 17 23  1  0
 17 18  1  6
 19 18  1  0
 20 19  1  0
 21 20  1  0
 22 21  1  0
 23 24  1  0
 25 23  2  0
M  END
$$$$
