IPK.pdb
     RDKit          3D

 25 25  0  0  1  0  0  0  0  0999 V2000
   25.5204  -19.6356  -17.7671 C   0  0  0  0  0  0  0  0  0  0  0  0
   26.2489  -20.3822  -16.6531 C   0  0  0  0  0  0  0  0  0  0  0  0
   25.1918  -20.6722  -15.5921 C   0  0  2  0  0  0  0  0  0  0  0  0
   24.7162  -19.3365  -15.0635 C   0  0  0  0  0  0  0  0  0  0  0  0
   25.8340  -21.4367  -14.4204 C   0  0  2  0  0  0  0  0  0  0  0  0
   26.3342  -22.6657  -15.0711 N   0  0  0  0  0  0  0  0  0  0  0  0
   24.8459  -21.8370  -13.4154 C   0  0  0  0  0  0  0  0  0  0  0  0
   24.0884  -22.8291  -13.7095 O   0  0  0  0  0  0  0  0  0  0  0  0
   24.6741  -21.2063  -12.1498 N   0  0  0  0  0  0  0  0  0  0  0  0
   25.5200  -20.1007  -11.6698 C   0  0  0  0  0  0  0  0  0  0  0  0
   25.4230  -20.1130  -10.1767 C   0  0  0  0  0  0  0  0  0  0  0  0
   24.4876  -21.2367   -9.7907 C   0  0  0  0  0  0  0  0  0  0  0  0
   23.7410  -21.4471  -11.1117 C   0  0  1  0  0  0  0  0  0  0  0  0
   22.5379  -20.5752  -11.1749 C   0  0  0  0  0  0  0  0  0  0  0  0
   22.5995  -19.4936  -11.8157 O   0  0  0  0  0  0  0  0  0  0  0  0
   21.3032  -20.8824  -10.5521 N   0  0  0  0  0  0  0  0  0  0  0  0
   20.0303  -20.9027  -11.2643 C   0  0  1  0  0  0  0  0  0  0  0  0
   20.1820  -21.8520  -12.4208 C   0  0  0  0  0  0  0  0  0  0  0  0
   18.9608  -22.0301  -13.2577 C   0  0  0  0  0  0  0  0  0  0  0  0
   19.2509  -22.9968  -14.4123 C   0  0  0  0  0  0  0  0  0  0  0  0
   18.0079  -23.1279  -15.2623 C   0  0  0  0  0  0  0  0  0  0  0  0
   18.2574  -23.8802  -16.4694 N   0  0  0  0  0  0  0  0  0  0  0  0
   18.9064  -21.2115  -10.3875 C   0  0  0  0  0  0  0  0  0  0  0  0
   17.7239  -20.5042  -10.5039 O   0  0  0  0  0  0  0  0  0  0  0  0
   18.9868  -22.1083   -9.5251 O   0  0  0  0  0  0  0  0  0  0  0  0
  2  1  1  0
  3  2  1  0
  3  4  1  1
  5  3  1  0
  5  7  1  0
  5  6  1  6
  7  8  2  0
  9  7  1  0
  9 13  1  0
 10 11  1  0
 10  9  1  0
 11 12  1  0
 12 13  1  0
 13 14  1  6
 14 15  2  0
 16 14  1  0
 17 16  1  0
 17 23  1  0
 17 18  1  6
 19 18  1  0
 20 19  1  0
 21 20  1  0
 22 21  1  0
 23 24  1  0
 25 23  2  0
M  END
$$$$
