IPK.pdb
     RDKit          3D

 25 25  0  0  1  0  0  0  0  0999 V2000
   17.7812  -10.7011  -17.9750 C   0  0  0  0  0  0  0  0  0  0  0  0
   19.1481  -10.3686  -17.3834 C   0  0  0  0  0  0  0  0  0  0  0  0
   18.8668   -9.5123  -16.1526 C   0  0  2  0  0  0  0  0  0  0  0  0
   18.2727   -8.2105  -16.6446 C   0  0  0  0  0  0  0  0  0  0  0  0
   20.1913   -9.1821  -15.4410 C   0  0  2  0  0  0  0  0  0  0  0  0
   20.6888  -10.5168  -15.0473 N   0  0  0  0  0  0  0  0  0  0  0  0
   19.9806   -8.4074  -14.2153 C   0  0  0  0  0  0  0  0  0  0  0  0
   19.4197   -9.0143  -13.2347 O   0  0  0  0  0  0  0  0  0  0  0  0
   20.3538   -7.0436  -14.0428 N   0  0  0  0  0  0  0  0  0  0  0  0
   21.0265   -6.2461  -15.0820 C   0  0  0  0  0  0  0  0  0  0  0  0
   21.7368   -5.1385  -14.3697 C   0  0  0  0  0  0  0  0  0  0  0  0
   21.4517   -5.2908  -12.8924 C   0  0  0  0  0  0  0  0  0  0  0  0
   20.1992   -6.1716  -12.9375 C   0  0  1  0  0  0  0  0  0  0  0  0
   18.9738   -5.3316  -13.0052 C   0  0  0  0  0  0  0  0  0  0  0  0
   18.2244   -5.4234  -14.0123 O   0  0  0  0  0  0  0  0  0  0  0  0
   18.5831   -4.4173  -11.9961 N   0  0  0  0  0  0  0  0  0  0  0  0
   17.2169   -3.9296  -11.8426 C   0  0  1  0  0  0  0  0  0  0  0  0
   16.3270   -5.1339  -11.7040 C   0  0  0  0  0  0  0  0  0  0  0  0
   16.1460   -5.6299  -10.3095 C   0  0  0  0  0  0  0  0  0  0  0  0
   15.2947   -6.9054  -10.3112 C   0  0  0  0  0  0  0  0  0  0  0  0
   15.0752   -7.3469   -8.8824 C   0  0  0  0  0  0  0  0  0  0  0  0
   14.2540   -8.5323   -8.8047 N   0  0  0  0  0  0  0  0  0  0  0  0
   17.0877   -2.9685  -10.7532 C   0  0  0  0  0  0  0  0  0  0  0  0
   16.0669   -2.0359  -10.7712 O   0  0  0  0  0  0  0  0  0  0  0  0
   17.8848   -2.9672   -9.7945 O   0  0  0  0  0  0  0  0  0  0  0  0
  2  1  1  0
  3  2  1  0
  3  4  1  6
  5  3  1  0
  5  7  1  0
  5  6  1  1
  7  8  2  0
  9  7  1  0
  9 13  1  0
 10 11  1  0
 10  9  1  0
 11 12  1  0
 12 13  1  0
 13 14  1  6
 14 15  2  0
 16 14  1  0
 17 16  1  0
 17 23  1  0
 17 18  1  1
 19 18  1  0
 20 19  1  0
 21 20  1  0
 22 21  1  0
 23 24  1  0
 25 23  2  0
M  END
$$$$
