IPK.pdb
     RDKit          3D

 25 25  0  0  1  0  0  0  0  0999 V2000
   25.0598  -24.0919  -17.8100 C   0  0  0  0  0  0  0  0  0  0  0  0
   26.0469  -23.6327  -16.7406 C   0  0  0  0  0  0  0  0  0  0  0  0
   27.4210  -23.6785  -17.4017 C   0  0  2  0  0  0  0  0  0  0  0  0
   27.6758  -25.1173  -17.7952 C   0  0  0  0  0  0  0  0  0  0  0  0
   28.4987  -23.2760  -16.3787 C   0  0  2  0  0  0  0  0  0  0  0  0
   28.1343  -21.8804  -16.0570 N   0  0  0  0  0  0  0  0  0  0  0  0
   29.8399  -23.2602  -16.9681 C   0  0  0  0  0  0  0  0  0  0  0  0
   30.1175  -22.2842  -17.7523 O   0  0  0  0  0  0  0  0  0  0  0  0
   30.8430  -24.2431  -16.7298 N   0  0  0  0  0  0  0  0  0  0  0  0
   30.6419  -25.4183  -15.8656 C   0  0  0  0  0  0  0  0  0  0  0  0
   32.0029  -25.8533  -15.4218 C   0  0  0  0  0  0  0  0  0  0  0  0
   33.0088  -24.9209  -16.0586 C   0  0  0  0  0  0  0  0  0  0  0  0
   32.1726  -24.3472  -17.2067 C   0  0  1  0  0  0  0  0  0  0  0  0
   32.3074  -25.1929  -18.4226 C   0  0  0  0  0  0  0  0  0  0  0  0
   31.5884  -26.2197  -18.5360 O   0  0  0  0  0  0  0  0  0  0  0  0
   33.2058  -24.9185  -19.4829 N   0  0  0  0  0  0  0  0  0  0  0  0
   32.7963  -24.8462  -20.8811 C   0  0  1  0  0  0  0  0  0  0  0  0
   31.6367  -23.8916  -20.9568 C   0  0  0  0  0  0  0  0  0  0  0  0
   31.1042  -23.6503  -22.3285 C   0  0  0  0  0  0  0  0  0  0  0  0
   29.8236  -22.8100  -22.2553 C   0  0  0  0  0  0  0  0  0  0  0  0
   29.2710  -22.6409  -23.6520 C   0  0  0  0  0  0  0  0  0  0  0  0
   28.0031  -21.9496  -23.6499 N   0  0  0  0  0  0  0  0  0  0  0  0
   33.9028  -24.5065  -21.7686 C   0  0  0  0  0  0  0  0  0  0  0  0
   34.8550  -23.5880  -21.3663 O   0  0  0  0  0  0  0  0  0  0  0  0
   34.0123  -25.0303  -22.8947 O   0  0  0  0  0  0  0  0  0  0  0  0
  2  1  1  0
  3  2  1  0
  3  4  1  1
  5  3  1  0
  5  7  1  0
  5  6  1  6
  7  8  2  0
  9  7  1  0
  9 13  1  0
 10 11  1  0
 10  9  1  0
 11 12  1  0
 12 13  1  0
 13 14  1  6
 14 15  2  0
 16 14  1  0
 17 16  1  0
 17 23  1  0
 17 18  1  1
 19 18  1  0
 20 19  1  0
 21 20  1  0
 22 21  1  0
 23 24  1  0
 25 23  2  0
M  END
$$$$
