IPK.pdb
     RDKit          3D

 25 25  0  0  1  0  0  0  0  0999 V2000
   19.5967  -20.0556  -15.0059 C   0  0  0  0  0  0  0  0  0  0  0  0
   20.9324  -20.5504  -15.5539 C   0  0  0  0  0  0  0  0  0  0  0  0
   21.7901  -20.8595  -14.3308 C   0  0  2  0  0  0  0  0  0  0  0  0
   21.9905  -19.5559  -13.5890 C   0  0  0  0  0  0  0  0  0  0  0  0
   23.1746  -21.3565  -14.7846 C   0  0  2  0  0  0  0  0  0  0  0  0
   22.8485  -22.5966  -15.5193 N   0  0  0  0  0  0  0  0  0  0  0  0
   24.0277  -21.7230  -13.6513 C   0  0  0  0  0  0  0  0  0  0  0  0
   23.6694  -22.7429  -12.9614 O   0  0  0  0  0  0  0  0  0  0  0  0
   25.2136  -21.0315  -13.2710 N   0  0  0  0  0  0  0  0  0  0  0  0
   25.6968  -19.8137  -13.9431 C   0  0  0  0  0  0  0  0  0  0  0  0
   27.1663  -19.7372  -13.6722 C   0  0  0  0  0  0  0  0  0  0  0  0
   27.5327  -20.9251  -12.8112 C   0  0  0  0  0  0  0  0  0  0  0  0
   26.1576  -21.2999  -12.2497 C   0  0  1  0  0  0  0  0  0  0  0  0
   25.8940  -20.5656  -10.9836 C   0  0  0  0  0  0  0  0  0  0  0  0
   25.4337  -19.3955  -11.0399 O   0  0  0  0  0  0  0  0  0  0  0  0
   26.1292  -21.1011   -9.6934 N   0  0  0  0  0  0  0  0  0  0  0  0
   26.1234  -20.2942   -8.4782 C   0  0  1  0  0  0  0  0  0  0  0  0
   26.3863  -21.2233   -7.3253 C   0  0  0  0  0  0  0  0  0  0  0  0
   26.3965  -20.5772   -5.9815 C   0  0  0  0  0  0  0  0  0  0  0  0
   27.8380  -20.4303   -5.4794 C   0  0  0  0  0  0  0  0  0  0  0  0
   27.8126  -19.8237   -4.0952 C   0  0  0  0  0  0  0  0  0  0  0  0
   29.1425  -19.6366   -3.5644 N   0  0  0  0  0  0  0  0  0  0  0  0
   27.0461  -19.1671   -8.5536 C   0  0  0  0  0  0  0  0  0  0  0  0
   28.2629  -19.3114   -9.1944 O   0  0  0  0  0  0  0  0  0  0  0  0
   26.7611  -18.0635   -8.0484 O   0  0  0  0  0  0  0  0  0  0  0  0
  2  1  1  0
  3  2  1  0
  3  4  1  1
  5  3  1  0
  5  7  1  0
  5  6  1  6
  7  8  2  0
  9  7  1  0
  9 13  1  0
 10 11  1  0
 10  9  1  0
 11 12  1  0
 12 13  1  0
 13 14  1  1
 14 15  2  0
 16 14  1  0
 17 16  1  0
 17 23  1  0
 17 18  1  1
 19 18  1  0
 20 19  1  0
 21 20  1  0
 22 21  1  0
 23 24  1  0
 25 23  2  0
M  END
$$$$
