IPK.pdb
     RDKit          3D

 25 25  0  0  1  0  0  0  0  0999 V2000
   26.6484  -14.5576  -15.8816 C   0  0  0  0  0  0  0  0  0  0  0  0
   26.8670  -15.7346  -16.8282 C   0  0  0  0  0  0  0  0  0  0  0  0
   26.3863  -16.9678  -16.0696 C   0  0  2  0  0  0  0  0  0  0  0  0
   27.3824  -17.2212  -14.9590 C   0  0  0  0  0  0  0  0  0  0  0  0
   26.4091  -18.1898  -17.0055 C   0  0  2  0  0  0  0  0  0  0  0  0
   25.5076  -17.7755  -18.1008 N   0  0  0  0  0  0  0  0  0  0  0  0
   25.8263  -19.3775  -16.3760 C   0  0  0  0  0  0  0  0  0  0  0  0
   24.5463  -19.4398  -16.3281 O   0  0  0  0  0  0  0  0  0  0  0  0
   26.5773  -20.4539  -15.8223 N   0  0  0  0  0  0  0  0  0  0  0  0
   28.0482  -20.4695  -15.7538 C   0  0  0  0  0  0  0  0  0  0  0  0
   28.4510  -21.9079  -15.6674 C   0  0  0  0  0  0  0  0  0  0  0  0
   27.1856  -22.7357  -15.6673 C   0  0  0  0  0  0  0  0  0  0  0  0
   26.1587  -21.6791  -15.2482 C   0  0  1  0  0  0  0  0  0  0  0  0
   26.0330  -21.6335  -13.7670 C   0  0  0  0  0  0  0  0  0  0  0  0
   27.0442  -21.8811  -13.0596 O   0  0  0  0  0  0  0  0  0  0  0  0
   24.8315  -21.3250  -13.0829 N   0  0  0  0  0  0  0  0  0  0  0  0
   24.6529  -21.5235  -11.6488 C   0  0  1  0  0  0  0  0  0  0  0  0
   25.6717  -20.6660  -10.9502 C   0  0  0  0  0  0  0  0  0  0  0  0
   25.6179  -20.7058   -9.4606 C   0  0  0  0  0  0  0  0  0  0  0  0
   26.4795  -19.5816   -8.8729 C   0  0  0  0  0  0  0  0  0  0  0  0
   26.5336  -19.7432   -7.3710 C   0  0  0  0  0  0  0  0  0  0  0  0
   27.3696  -18.7422   -6.7510 N   0  0  0  0  0  0  0  0  0  0  0  0
   23.2800  -21.2815  -11.2198 C   0  0  0  0  0  0  0  0  0  0  0  0
   22.8308  -21.7948  -10.0170 O   0  0  0  0  0  0  0  0  0  0  0  0
   22.4921  -20.6151  -11.9196 O   0  0  0  0  0  0  0  0  0  0  0  0
  2  1  1  0
  3  2  1  0
  3  4  1  1
  5  3  1  0
  5  7  1  0
  5  6  1  6
  7  8  2  0
  9  7  1  0
  9 13  1  0
 10 11  1  0
 10  9  1  0
 11 12  1  0
 12 13  1  0
 13 14  1  1
 14 15  2  0
 16 14  1  0
 17 16  1  0
 17 23  1  0
 17 18  1  1
 19 18  1  0
 20 19  1  0
 21 20  1  0
 22 21  1  0
 23 24  1  0
 25 23  2  0
M  END
$$$$
