IPK.pdb
     RDKit          3D

 25 25  0  0  1  0  0  0  0  0999 V2000
   21.6890  -20.8407   -9.2977 C   0  0  0  0  0  0  0  0  0  0  0  0
   23.1471  -21.2904   -9.3254 C   0  0  0  0  0  0  0  0  0  0  0  0
   23.8009  -20.4985  -10.4535 C   0  0  2  0  0  0  0  0  0  0  0  0
   23.1189  -20.9129  -11.7392 C   0  0  0  0  0  0  0  0  0  0  0  0
   25.2855  -20.8901  -10.5648 C   0  0  2  0  0  0  0  0  0  0  0  0
   25.8286  -20.4761   -9.2543 N   0  0  0  0  0  0  0  0  0  0  0  0
   25.9830  -20.1201  -11.5979 C   0  0  0  0  0  0  0  0  0  0  0  0
   26.2639  -18.8997  -11.3214 O   0  0  0  0  0  0  0  0  0  0  0  0
   26.3658  -20.6308  -12.8713 N   0  0  0  0  0  0  0  0  0  0  0  0
   26.2060  -22.0410  -13.2642 C   0  0  0  0  0  0  0  0  0  0  0  0
   27.1965  -22.2888  -14.3580 C   0  0  0  0  0  0  0  0  0  0  0  0
   27.9281  -20.9900  -14.6124 C   0  0  0  0  0  0  0  0  0  0  0  0
   26.9481  -19.9894  -13.9918 C   0  0  1  0  0  0  0  0  0  0  0  0
   25.9567  -19.5356  -15.0032 C   0  0  0  0  0  0  0  0  0  0  0  0
   25.0696  -20.3388  -15.3932 O   0  0  0  0  0  0  0  0  0  0  0  0
   25.9404  -18.2373  -15.5698 N   0  0  0  0  0  0  0  0  0  0  0  0
   24.8254  -17.7204  -16.3556 C   0  0  1  0  0  0  0  0  0  0  0  0
   24.6703  -16.2661  -16.0058 C   0  0  0  0  0  0  0  0  0  0  0  0
   25.6730  -15.3550  -16.6286 C   0  0  0  0  0  0  0  0  0  0  0  0
   25.3324  -13.8960  -16.3018 C   0  0  0  0  0  0  0  0  0  0  0  0
   26.3600  -12.9981  -16.9518 C   0  0  0  0  0  0  0  0  0  0  0  0
   26.1004  -11.6024  -16.6876 N   0  0  0  0  0  0  0  0  0  0  0  0
   24.9858  -17.9730  -17.7831 C   0  0  0  0  0  0  0  0  0  0  0  0
   23.8838  -17.9470  -18.6180 O   0  0  0  0  0  0  0  0  0  0  0  0
   26.1057  -18.2148  -18.2749 O   0  0  0  0  0  0  0  0  0  0  0  0
  2  1  1  0
  3  2  1  0
  3  4  1  6
  5  3  1  0
  5  7  1  0
  5  6  1  1
  7  8  2  0
  9  7  1  0
  9 13  1  0
 10 11  1  0
 10  9  1  0
 11 12  1  0
 12 13  1  0
 13 14  1  6
 14 15  2  0
 16 14  1  0
 17 16  1  0
 17 23  1  0
 17 18  1  6
 19 18  1  0
 20 19  1  0
 21 20  1  0
 22 21  1  0
 23 24  1  0
 25 23  2  0
M  END
$$$$
