HMY.pdb
     RDKit          3D

 31 32  0  0  1  0  0  0  0  0999 V2000
    8.0219  -17.3467   19.4941 N   0  0  0  0  0  0  0  0  0  0  0  0
    8.1743  -17.5464   20.9016 C   0  0  1  0  0  0  0  0  0  0  0  0
    8.9338  -18.8314   21.1722 C   0  0  0  0  0  0  0  0  0  0  0  0
    8.2399  -20.0109   20.6363 C   0  0  0  0  0  0  0  0  0  0  0  0
    7.1467  -20.6125   21.2071 C   0  0  0  0  0  0  0  0  0  0  0  0
    6.8042  -21.6404   20.4393 N   0  0  0  0  0  0  0  0  0  0  0  0
    7.6680  -21.6775   19.4103 C   0  0  0  0  0  0  0  0  0  0  0  0
    8.5584  -20.6764   19.5217 N   0  0  0  0  0  0  0  0  0  0  0  0
    8.8424  -16.4432   21.5954 C   0  0  0  0  0  0  0  0  0  0  0  0
    9.9666  -16.0248   21.2266 O   0  0  0  0  0  0  0  0  0  0  0  0
    7.0921  -11.2383   26.2663 C   0  0  0  0  0  0  0  0  0  0  0  0
    6.4718  -12.9216   26.1883 S   0  0  0  0  0  0  0  0  0  0  0  0
    6.9205  -13.7326   24.6821 C   0  0  0  0  0  0  0  0  0  0  0  0
    8.2701  -13.6715   24.1357 C   0  0  0  0  0  0  0  0  0  0  0  0
    8.9641  -14.7003   23.3921 C   0  0  2  0  0  0  0  0  0  0  0  0
    8.2591  -15.7595   22.7495 N   0  0  0  0  0  0  0  0  0  0  0  0
    9.9886  -15.3392   24.3119 C   0  0  0  0  0  0  0  0  0  0  0  0
   10.2224  -14.8439   25.4439 O   0  0  0  0  0  0  0  0  0  0  0  0
    9.1395  -13.9462   29.9392 O   0  0  0  0  0  0  0  0  0  0  0  0
    9.5757  -14.8598   28.9853 C   0  0  0  0  0  0  0  0  0  0  0  0
   10.9028  -14.9959   28.6280 C   0  0  0  0  0  0  0  0  0  0  0  0
   11.3131  -15.9138   27.6742 C   0  0  0  0  0  0  0  0  0  0  0  0
   10.3757  -16.7241   27.0536 C   0  0  0  0  0  0  0  0  0  0  0  0
   10.7718  -17.7050   26.0390 C   0  0  0  0  0  0  0  0  0  0  0  0
   11.6277  -17.1368   24.9309 C   0  0  2  0  0  0  0  0  0  0  0  0
   10.7196  -16.4934   23.9652 N   0  0  0  0  0  0  0  0  0  0  0  0
   12.4717  -18.1461   24.2585 C   0  0  0  0  0  0  0  0  0  0  0  0
   13.3356  -18.7786   24.9103 O   0  0  0  0  0  0  0  0  0  0  0  0
    9.0555  -16.5673   27.4297 C   0  0  0  0  0  0  0  0  0  0  0  0
    8.6342  -15.6595   28.3757 C   0  0  0  0  0  0  0  0  0  0  0  0
   12.3407  -18.4249   22.9064 O   0  0  0  0  0  0  0  0  0  0  0  0
  2  1  1  6
  2  3  1  0
  3  4  1  0
  4  8  1  0
  5  6  1  0
  5  4  2  0
  6  7  1  0
  7  8  2  0
  9  2  1  0
  9 10  2  0
 12 11  1  0
 13 12  1  0
 14 13  1  0
 15 14  1  1
 15 16  1  0
 16  9  1  0
 17 26  1  0
 17 15  1  0
 18 17  2  0
 20 19  1  0
 20 30  2  0
 21 20  1  0
 22 21  2  0
 22 23  1  0
 23 29  2  0
 24 23  1  0
 25 24  1  1
 25 26  1  0
 25 27  1  0
 27 31  1  0
 28 27  2  0
 29 30  1  0
M  END
$$$$
