HMY.pdb
     RDKit          3D

 31 32  0  0  1  0  0  0  0  0999 V2000
    8.6370  -16.5951   19.7655 N   0  0  0  0  0  0  0  0  0  0  0  0
    7.7061  -16.5503   20.8498 C   0  0  1  0  0  0  0  0  0  0  0  0
    7.2632  -17.9527   21.2220 C   0  0  0  0  0  0  0  0  0  0  0  0
    6.5490  -18.6200   20.1245 C   0  0  0  0  0  0  0  0  0  0  0  0
    6.3643  -18.0987   18.8687 C   0  0  0  0  0  0  0  0  0  0  0  0
    5.6785  -18.9872   18.1591 N   0  0  0  0  0  0  0  0  0  0  0  0
    5.4410  -20.0414   18.9584 C   0  0  0  0  0  0  0  0  0  0  0  0
    5.9737  -19.8255   20.1736 N   0  0  0  0  0  0  0  0  0  0  0  0
    8.2121  -15.8770   22.0478 C   0  0  0  0  0  0  0  0  0  0  0  0
    9.4239  -15.9372   22.3683 O   0  0  0  0  0  0  0  0  0  0  0  0
    4.8429  -11.7048   26.3897 C   0  0  0  0  0  0  0  0  0  0  0  0
    6.5766  -11.5460   26.8294 S   0  0  0  0  0  0  0  0  0  0  0  0
    7.5818  -12.7736   26.0483 C   0  0  0  0  0  0  0  0  0  0  0  0
    7.1738  -13.4528   24.8253 C   0  0  0  0  0  0  0  0  0  0  0  0
    7.9093  -14.4607   24.0931 C   0  0  2  0  0  0  0  0  0  0  0  0
    7.3574  -15.0985   22.9439 N   0  0  0  0  0  0  0  0  0  0  0  0
    8.3052  -15.5571   25.0653 C   0  0  0  0  0  0  0  0  0  0  0  0
    7.4241  -16.2576   25.6260 O   0  0  0  0  0  0  0  0  0  0  0  0
    7.1270  -21.8637   29.3545 O   0  0  0  0  0  0  0  0  0  0  0  0
    7.6980  -20.9646   28.4597 C   0  0  0  0  0  0  0  0  0  0  0  0
    8.9343  -20.3844   28.6649 C   0  0  0  0  0  0  0  0  0  0  0  0
    9.4825  -19.4909   27.7583 C   0  0  0  0  0  0  0  0  0  0  0  0
    8.7809  -19.1616   26.6095 C   0  0  0  0  0  0  0  0  0  0  0  0
    9.3278  -18.2193   25.6289 C   0  0  0  0  0  0  0  0  0  0  0  0
    9.9865  -17.0044   26.2399 C   0  0  2  0  0  0  0  0  0  0  0  0
    9.6452  -15.8500   25.3902 N   0  0  0  0  0  0  0  0  0  0  0  0
   11.4519  -17.1329   26.3786 C   0  0  0  0  0  0  0  0  0  0  0  0
   12.2142  -16.5030   25.6084 O   0  0  0  0  0  0  0  0  0  0  0  0
    7.5469  -19.7563   26.4292 C   0  0  0  0  0  0  0  0  0  0  0  0
    6.9906  -20.6455   27.3215 C   0  0  0  0  0  0  0  0  0  0  0  0
   12.0263  -17.9407   27.3484 O   0  0  0  0  0  0  0  0  0  0  0  0
  2  1  1  6
  2  3  1  0
  3  4  1  0
  4  8  1  0
  5  6  1  0
  5  4  2  0
  6  7  1  0
  7  8  2  0
  9  2  1  0
  9 10  2  0
 12 11  1  0
 13 12  1  0
 14 13  1  0
 15 14  1  1
 15 16  1  0
 16  9  1  0
 17 26  1  0
 17 15  1  0
 18 17  2  0
 20 19  1  0
 20 30  2  0
 21 20  1  0
 22 21  2  0
 22 23  1  0
 23 29  2  0
 24 23  1  0
 25 24  1  6
 25 26  1  0
 25 27  1  0
 27 31  1  0
 28 27  2  0
 29 30  1  0
M  END
$$$$
