HMY.pdb
     RDKit          3D

 31 32  0  0  1  0  0  0  0  0999 V2000
   10.5791  -17.0914   19.4555 N   0  0  0  0  0  0  0  0  0  0  0  0
    9.8706  -16.0077   20.0621 C   0  0  1  0  0  0  0  0  0  0  0  0
    8.4655  -15.9155   19.4977 C   0  0  0  0  0  0  0  0  0  0  0  0
    8.4630  -15.6454   18.0531 C   0  0  0  0  0  0  0  0  0  0  0  0
    9.5817  -15.5549   17.2636 C   0  0  0  0  0  0  0  0  0  0  0  0
    9.1813  -15.3033   16.0228 N   0  0  0  0  0  0  0  0  0  0  0  0
    7.8389  -15.2385   16.0400 C   0  0  0  0  0  0  0  0  0  0  0  0
    7.3850  -15.4481   17.2879 N   0  0  0  0  0  0  0  0  0  0  0  0
    9.7932  -16.0841   21.5226 C   0  0  0  0  0  0  0  0  0  0  0  0
    9.8156  -17.1868   22.1212 O   0  0  0  0  0  0  0  0  0  0  0  0
    4.8761  -12.6405   26.0432 C   0  0  0  0  0  0  0  0  0  0  0  0
    6.4275  -13.0718   25.2487 S   0  0  0  0  0  0  0  0  0  0  0  0
    6.1832  -13.9110   23.7112 C   0  0  0  0  0  0  0  0  0  0  0  0
    7.2944  -14.3330   22.8682 C   0  0  0  0  0  0  0  0  0  0  0  0
    8.6044  -14.7726   23.2967 C   0  0  2  0  0  0  0  0  0  0  0  0
    9.6854  -14.9014   22.3765 N   0  0  0  0  0  0  0  0  0  0  0  0
    8.4494  -16.1120   23.9937 C   0  0  0  0  0  0  0  0  0  0  0  0
    8.4665  -17.1796   23.3294 O   0  0  0  0  0  0  0  0  0  0  0  0
   12.4824  -13.9535   29.1838 O   0  0  0  0  0  0  0  0  0  0  0  0
   11.4705  -14.8158   28.7748 C   0  0  0  0  0  0  0  0  0  0  0  0
   11.6782  -16.1618   28.5461 C   0  0  0  0  0  0  0  0  0  0  0  0
   10.6534  -17.0013   28.1388 C   0  0  0  0  0  0  0  0  0  0  0  0
    9.3796  -16.4885   27.9518 C   0  0  0  0  0  0  0  0  0  0  0  0
    8.2713  -17.3452   27.5200 C   0  0  0  0  0  0  0  0  0  0  0  0
    8.2055  -17.5646   26.0264 C   0  0  2  0  0  0  0  0  0  0  0  0
    8.2821  -16.2391   25.3875 N   0  0  0  0  0  0  0  0  0  0  0  0
    6.9923  -18.2845   25.5871 C   0  0  0  0  0  0  0  0  0  0  0  0
    6.7859  -19.4604   25.9688 O   0  0  0  0  0  0  0  0  0  0  0  0
    9.1996  -15.1391   28.1876 C   0  0  0  0  0  0  0  0  0  0  0  0
   10.2087  -14.2940   28.5925 C   0  0  0  0  0  0  0  0  0  0  0  0
    6.0551  -17.6955   24.7517 O   0  0  0  0  0  0  0  0  0  0  0  0
  2  1  1  6
  2  3  1  0
  3  4  1  0
  4  8  1  0
  5  6  1  0
  5  4  2  0
  6  7  1  0
  7  8  2  0
  9  2  1  0
  9 10  2  0
 12 11  1  0
 13 12  1  0
 14 13  1  0
 15 14  1  6
 15 16  1  0
 16  9  1  0
 17 26  1  0
 17 15  1  0
 18 17  2  0
 20 19  1  0
 20 30  2  0
 21 20  1  0
 22 21  2  0
 22 23  1  0
 23 29  2  0
 24 23  1  0
 25 24  1  1
 25 26  1  0
 25 27  1  0
 27 31  1  0
 28 27  2  0
 29 30  1  0
M  END
$$$$
