HMY.pdb
     RDKit          3D

 31 32  0  0  1  0  0  0  0  0999 V2000
    7.7533  -16.2676   19.5959 N   0  0  0  0  0  0  0  0  0  0  0  0
    7.3726  -16.8522   20.8440 C   0  0  1  0  0  0  0  0  0  0  0  0
    7.8949  -18.2732   20.9412 C   0  0  0  0  0  0  0  0  0  0  0  0
    7.2650  -19.1657   19.9580 C   0  0  0  0  0  0  0  0  0  0  0  0
    5.9134  -19.3477   19.8071 C   0  0  0  0  0  0  0  0  0  0  0  0
    5.7306  -20.2224   18.8249 N   0  0  0  0  0  0  0  0  0  0  0  0
    6.9456  -20.5778   18.3733 C   0  0  0  0  0  0  0  0  0  0  0  0
    7.8999  -19.9317   19.0654 N   0  0  0  0  0  0  0  0  0  0  0  0
    7.8169  -16.1001   22.0194 C   0  0  0  0  0  0  0  0  0  0  0  0
    9.0180  -15.7680   22.1668 O   0  0  0  0  0  0  0  0  0  0  0  0
    6.6976  -10.7676   26.0083 C   0  0  0  0  0  0  0  0  0  0  0  0
    6.0910  -12.1929   26.9165 S   0  0  0  0  0  0  0  0  0  0  0  0
    6.8896  -13.6919   26.4236 C   0  0  0  0  0  0  0  0  0  0  0  0
    6.5202  -14.4097   25.2104 C   0  0  0  0  0  0  0  0  0  0  0  0
    7.4094  -15.0014   24.2347 C   0  0  2  0  0  0  0  0  0  0  0  0
    6.9093  -15.6878   23.0899 N   0  0  0  0  0  0  0  0  0  0  0  0
    8.3371  -15.9594   24.9597 C   0  0  0  0  0  0  0  0  0  0  0  0
    7.8731  -16.8035   25.7681 O   0  0  0  0  0  0  0  0  0  0  0  0
    7.7303  -20.6845   29.8096 O   0  0  0  0  0  0  0  0  0  0  0  0
    8.2678  -20.1223   28.6564 C   0  0  0  0  0  0  0  0  0  0  0  0
    7.8861  -20.5065   27.3859 C   0  0  0  0  0  0  0  0  0  0  0  0
    8.4365  -19.9311   26.2515 C   0  0  0  0  0  0  0  0  0  0  0  0
    9.3979  -18.9416   26.3814 C   0  0  0  0  0  0  0  0  0  0  0  0
   10.0037  -18.3114   25.2047 C   0  0  0  0  0  0  0  0  0  0  0  0
   10.5895  -16.9438   25.4688 C   0  0  2  0  0  0  0  0  0  0  0  0
    9.7348  -15.9628   24.7772 N   0  0  0  0  0  0  0  0  0  0  0  0
   11.9948  -16.8080   25.0331 C   0  0  0  0  0  0  0  0  0  0  0  0
   12.8851  -17.5236   25.5491 O   0  0  0  0  0  0  0  0  0  0  0  0
    9.7612  -18.5764   27.6634 C   0  0  0  0  0  0  0  0  0  0  0  0
    9.2225  -19.1395   28.7988 C   0  0  0  0  0  0  0  0  0  0  0  0
   12.3724  -15.9001   24.0553 O   0  0  0  0  0  0  0  0  0  0  0  0
  2  1  1  6
  2  3  1  0
  3  4  1  0
  4  8  1  0
  5  6  1  0
  5  4  2  0
  6  7  1  0
  7  8  2  0
  9  2  1  0
  9 10  2  0
 12 11  1  0
 13 12  1  0
 14 13  1  0
 15 14  1  1
 15 16  1  0
 16  9  1  0
 17 26  1  0
 17 15  1  0
 18 17  2  0
 20 19  1  0
 20 30  2  0
 21 20  1  0
 22 21  2  0
 22 23  1  0
 23 29  2  0
 24 23  1  0
 25 24  1  6
 25 26  1  0
 25 27  1  0
 27 31  1  0
 28 27  2  0
 29 30  1  0
M  END
$$$$
