HMY.pdb
     RDKit          3D

 31 32  0  0  1  0  0  0  0  0999 V2000
    8.0919  -12.6617   17.9470 N   0  0  0  0  0  0  0  0  0  0  0  0
    8.2608  -13.8721   18.6890 C   0  0  1  0  0  0  0  0  0  0  0  0
    9.1991  -14.8125   17.9564 C   0  0  0  0  0  0  0  0  0  0  0  0
    8.6588  -15.2364   16.6571 C   0  0  0  0  0  0  0  0  0  0  0  0
    7.7389  -14.5373   15.9170 C   0  0  0  0  0  0  0  0  0  0  0  0
    7.4975  -15.2320   14.8114 N   0  0  0  0  0  0  0  0  0  0  0  0
    8.2530  -16.3425   14.8627 C   0  0  0  0  0  0  0  0  0  0  0  0
    8.9737  -16.3555   15.9975 N   0  0  0  0  0  0  0  0  0  0  0  0
    8.7537  -13.6755   20.0540 C   0  0  0  0  0  0  0  0  0  0  0  0
    9.3088  -12.6046   20.4002 O   0  0  0  0  0  0  0  0  0  0  0  0
    6.8409  -11.3355   26.5322 C   0  0  0  0  0  0  0  0  0  0  0  0
    6.3531  -12.6983   25.4697 S   0  0  0  0  0  0  0  0  0  0  0  0
    7.7369  -13.4497   24.6646 C   0  0  0  0  0  0  0  0  0  0  0  0
    7.7225  -13.7942   23.2487 C   0  0  0  0  0  0  0  0  0  0  0  0
    8.8081  -14.3465   22.4680 C   0  0  2  0  0  0  0  0  0  0  0  0
    8.6377  -14.6951   21.0964 N   0  0  0  0  0  0  0  0  0  0  0  0
    9.3232  -15.5828   23.1823 C   0  0  0  0  0  0  0  0  0  0  0  0
    8.6475  -16.6433   23.1840 O   0  0  0  0  0  0  0  0  0  0  0  0
   10.1912  -14.3421   30.8428 O   0  0  0  0  0  0  0  0  0  0  0  0
   10.0266  -14.9054   29.5817 C   0  0  0  0  0  0  0  0  0  0  0  0
    9.3112  -14.2909   28.5728 C   0  0  0  0  0  0  0  0  0  0  0  0
    9.1611  -14.8725   27.3237 C   0  0  0  0  0  0  0  0  0  0  0  0
    9.7398  -16.1051   27.0667 C   0  0  0  0  0  0  0  0  0  0  0  0
    9.6010  -16.7518   25.7585 C   0  0  0  0  0  0  0  0  0  0  0  0
   10.8293  -16.6482   24.8845 C   0  0  2  0  0  0  0  0  0  0  0  0
   10.5546  -15.6183   23.8673 N   0  0  0  0  0  0  0  0  0  0  0  0
   11.2085  -17.9244   24.2435 C   0  0  0  0  0  0  0  0  0  0  0  0
   10.9936  -18.1026   23.0216 O   0  0  0  0  0  0  0  0  0  0  0  0
   10.4497  -16.6975   28.0933 C   0  0  0  0  0  0  0  0  0  0  0  0
   10.6068  -16.1309   29.3386 C   0  0  0  0  0  0  0  0  0  0  0  0
   11.8052  -18.9523   24.9580 O   0  0  0  0  0  0  0  0  0  0  0  0
  2  1  1  6
  2  3  1  0
  3  4  1  0
  4  8  1  0
  5  6  1  0
  5  4  2  0
  6  7  1  0
  7  8  2  0
  9  2  1  0
  9 10  2  0
 12 11  1  0
 13 12  1  0
 14 13  1  0
 15 14  1  1
 15 16  1  0
 16  9  1  0
 17 26  1  0
 17 15  1  0
 18 17  2  0
 20 19  1  0
 20 30  2  0
 21 20  1  0
 22 21  2  0
 22 23  1  0
 23 29  2  0
 24 23  1  0
 25 24  1  6
 25 26  1  0
 25 27  1  0
 27 31  1  0
 28 27  2  0
 29 30  1  0
M  END
$$$$
