HMY.pdb
     RDKit          3D

 31 32  0  0  1  0  0  0  0  0999 V2000
   10.0467  -16.9995   18.2522 N   0  0  0  0  0  0  0  0  0  0  0  0
    9.1047  -17.2561   19.2967 C   0  0  1  0  0  0  0  0  0  0  0  0
    9.1834  -18.7071   19.7323 C   0  0  0  0  0  0  0  0  0  0  0  0
    8.5736  -19.6161   18.7517 C   0  0  0  0  0  0  0  0  0  0  0  0
    7.3029  -20.1279   18.8310 C   0  0  0  0  0  0  0  0  0  0  0  0
    7.1123  -20.9026   17.7696 N   0  0  0  0  0  0  0  0  0  0  0  0
    8.2429  -20.8733   17.0435 C   0  0  0  0  0  0  0  0  0  0  0  0
    9.1516  -20.0824   17.6403 N   0  0  0  0  0  0  0  0  0  0  0  0
    9.2629  -16.3968   20.4720 C   0  0  0  0  0  0  0  0  0  0  0  0
   10.3972  -16.0373   20.8705 O   0  0  0  0  0  0  0  0  0  0  0  0
    5.5316  -12.3600   26.0543 C   0  0  0  0  0  0  0  0  0  0  0  0
    6.7910  -13.4972   25.4671 S   0  0  0  0  0  0  0  0  0  0  0  0
    7.3389  -13.1051   23.8319 C   0  0  0  0  0  0  0  0  0  0  0  0
    7.2864  -14.0688   22.7400 C   0  0  0  0  0  0  0  0  0  0  0  0
    8.3363  -14.9660   22.3091 C   0  0  2  0  0  0  0  0  0  0  0  0
    8.1302  -15.9028   21.2547 N   0  0  0  0  0  0  0  0  0  0  0  0
    8.8129  -15.7514   23.5174 C   0  0  0  0  0  0  0  0  0  0  0  0
    8.3833  -16.9141   23.7291 O   0  0  0  0  0  0  0  0  0  0  0  0
   11.6161  -16.7065   31.9026 O   0  0  0  0  0  0  0  0  0  0  0  0
   11.4559  -16.3340   30.5720 C   0  0  0  0  0  0  0  0  0  0  0  0
   11.7703  -17.1671   29.5163 C   0  0  0  0  0  0  0  0  0  0  0  0
   11.6019  -16.7731   28.1983 C   0  0  0  0  0  0  0  0  0  0  0  0
   11.1050  -15.5103   27.9177 C   0  0  0  0  0  0  0  0  0  0  0  0
   10.9150  -15.0580   26.5364 C   0  0  0  0  0  0  0  0  0  0  0  0
   10.0134  -15.9483   25.7131 C   0  0  2  0  0  0  0  0  0  0  0  0
    9.7395  -15.2419   24.4494 N   0  0  0  0  0  0  0  0  0  0  0  0
    8.7514  -16.3042   26.3942 C   0  0  0  0  0  0  0  0  0  0  0  0
    7.7952  -15.4939   26.4102 O   0  0  0  0  0  0  0  0  0  0  0  0
   10.7987  -14.6975   28.9922 C   0  0  0  0  0  0  0  0  0  0  0  0
   10.9610  -15.0762   30.3062 C   0  0  0  0  0  0  0  0  0  0  0  0
    8.5826  -17.5255   27.0289 O   0  0  0  0  0  0  0  0  0  0  0  0
  2  1  1  6
  2  3  1  0
  3  4  1  0
  4  8  1  0
  5  6  1  0
  5  4  2  0
  6  7  1  0
  7  8  2  0
  9  2  1  0
  9 10  2  0
 12 11  1  0
 13 12  1  0
 14 13  1  0
 15 14  1  1
 15 16  1  0
 16  9  1  0
 17 26  1  0
 17 15  1  0
 18 17  2  0
 20 19  1  0
 20 30  2  0
 21 20  1  0
 22 21  2  0
 22 23  1  0
 23 29  2  0
 24 23  1  0
 25 24  1  1
 25 26  1  0
 25 27  1  0
 27 31  1  0
 28 27  2  0
 29 30  1  0
M  END
$$$$
