THA.pdb
     RDKit          3D

 23 23  0  0  1  0  0  0  0  0999 V2000
   15.4758  -10.6219  -17.1827 C   0  0  0  0  0  0  0  0  0  0  0  0
   16.0325   -9.3683  -16.5741 C   0  0  1  0  0  0  0  0  0  0  0  0
   15.0865   -8.6888  -15.8462 O   0  0  0  0  0  0  0  0  0  0  0  0
   17.2263   -9.7053  -15.7021 C   0  0  2  0  0  0  0  0  0  0  0  0
   16.7357  -10.4185  -14.5480 N   0  0  0  0  0  0  0  0  0  0  0  0
   17.9689   -8.5015  -15.2727 C   0  0  0  0  0  0  0  0  0  0  0  0
   17.8120   -7.9727  -14.1463 O   0  0  0  0  0  0  0  0  0  0  0  0
   18.9070   -7.8901  -16.1454 N   0  0  0  0  0  0  0  0  0  0  0  0
   19.7222   -6.7722  -15.8140 C   0  0  1  0  0  0  0  0  0  0  0  0
   21.1579   -7.0715  -16.0970 C   0  0  0  0  0  0  0  0  0  0  0  0
   21.7066   -8.1105  -15.1938 C   0  0  0  0  0  0  0  0  0  0  0  0
   21.0939   -8.6495  -14.0934 C   0  0  0  0  0  0  0  0  0  0  0  0
   21.9488   -9.5500  -13.5816 N   0  0  0  0  0  0  0  0  0  0  0  0
   23.0722   -9.5968  -14.3170 C   0  0  0  0  0  0  0  0  0  0  0  0
   22.9123   -8.7043  -15.3098 N   0  0  0  0  0  0  0  0  0  0  0  0
   19.2630   -5.5003  -16.4092 C   0  0  0  0  0  0  0  0  0  0  0  0
   18.9643   -5.4712  -17.6297 O   0  0  0  0  0  0  0  0  0  0  0  0
   17.7079   -2.5027  -15.1094 C   0  0  0  0  0  0  0  0  0  0  0  0
   18.6429   -3.0657  -16.1682 C   0  0  2  0  0  0  0  0  0  0  0  0
   19.1510   -4.3195  -15.6452 N   0  0  0  0  0  0  0  0  0  0  0  0
   19.7426   -2.1111  -16.4634 C   0  0  0  0  0  0  0  0  0  0  0  0
   19.4574   -1.0831  -17.3531 O   0  0  0  0  0  0  0  0  0  0  0  0
   20.8667   -2.2384  -15.9296 O   0  0  0  0  0  0  0  0  0  0  0  0
  2  1  1  1
  2  4  1  0
  3  2  1  0
  4  5  1  1
  6  8  1  0
  6  4  1  0
  7  6  2  0
  9  8  1  0
  9 16  1  0
  9 10  1  6
 11 10  1  0
 11 15  1  0
 12 11  2  0
 13 12  1  0
 13 14  1  0
 14 15  2  0
 16 20  1  0
 17 16  2  0
 19 21  1  0
 19 18  1  1
 20 19  1  0
 21 22  1  0
 23 21  2  0
M  END
$$$$
