THA.pdb
     RDKit          3D

 23 23  0  0  1  0  0  0  0  0999 V2000
   25.6780   -8.8690  -15.4450 C   0  0  0  0  0  0  0  0  0  0  0  0
   25.4762  -10.1458  -16.2071 C   0  0  1  0  0  0  0  0  0  0  0  0
   26.3631  -11.1198  -15.8181 O   0  0  0  0  0  0  0  0  0  0  0  0
   24.0504  -10.6308  -16.0310 C   0  0  2  0  0  0  0  0  0  0  0  0
   23.9325  -11.8956  -16.7148 N   0  0  0  0  0  0  0  0  0  0  0  0
   23.0590   -9.6740  -16.5663 C   0  0  0  0  0  0  0  0  0  0  0  0
   22.6299   -9.7282  -17.7436 O   0  0  0  0  0  0  0  0  0  0  0  0
   22.5488   -8.6362  -15.7428 N   0  0  0  0  0  0  0  0  0  0  0  0
   21.6321   -7.6340  -16.1663 C   0  0  1  0  0  0  0  0  0  0  0  0
   20.2295   -8.0486  -15.8631 C   0  0  0  0  0  0  0  0  0  0  0  0
   19.2343   -7.0511  -16.3225 C   0  0  0  0  0  0  0  0  0  0  0  0
   18.4929   -6.2083  -15.5373 C   0  0  0  0  0  0  0  0  0  0  0  0
   17.7292   -5.4820  -16.3697 N   0  0  0  0  0  0  0  0  0  0  0  0
   17.9622   -5.8359  -17.6446 C   0  0  0  0  0  0  0  0  0  0  0  0
   18.8931   -6.8053  -17.6043 N   0  0  0  0  0  0  0  0  0  0  0  0
   21.9591   -6.2793  -15.6759 C   0  0  0  0  0  0  0  0  0  0  0  0
   22.2240   -6.1194  -14.4578 O   0  0  0  0  0  0  0  0  0  0  0  0
   22.7831   -3.0905  -17.3957 C   0  0  0  0  0  0  0  0  0  0  0  0
   22.4001   -3.8354  -16.1266 C   0  0  2  0  0  0  0  0  0  0  0  0
   21.9817   -5.1621  -16.5373 N   0  0  0  0  0  0  0  0  0  0  0  0
   21.3176   -3.1213  -15.4011 C   0  0  0  0  0  0  0  0  0  0  0  0
   21.7109   -2.1773  -14.4610 O   0  0  0  0  0  0  0  0  0  0  0  0
   20.1138   -3.3679  -15.6353 O   0  0  0  0  0  0  0  0  0  0  0  0
  2  1  1  1
  2  4  1  0
  3  2  1  0
  4  5  1  6
  6  8  1  0
  6  4  1  0
  7  6  2  0
  9  8  1  0
  9 16  1  0
  9 10  1  1
 11 10  1  0
 11 15  1  0
 12 11  2  0
 13 12  1  0
 13 14  1  0
 14 15  2  0
 16 20  1  0
 17 16  2  0
 19 21  1  0
 19 18  1  6
 20 19  1  0
 21 22  1  0
 23 21  2  0
M  END
$$$$
