THA.pdb
     RDKit          3D

 23 23  0  0  1  0  0  0  0  0999 V2000
   17.1892   -5.9511  -18.4406 C   0  0  0  0  0  0  0  0  0  0  0  0
   16.8262   -7.2210  -17.7284 C   0  0  1  0  0  0  0  0  0  0  0  0
   16.4788   -8.2189  -18.6059 O   0  0  0  0  0  0  0  0  0  0  0  0
   17.9803   -7.6681  -16.8523 C   0  0  2  0  0  0  0  0  0  0  0  0
   17.5890   -8.8996  -16.2107 N   0  0  0  0  0  0  0  0  0  0  0  0
   18.3377   -6.6597  -15.8322 C   0  0  0  0  0  0  0  0  0  0  0  0
   17.5410   -6.2860  -14.9385 O   0  0  0  0  0  0  0  0  0  0  0  0
   19.6276   -6.0669  -15.8331 N   0  0  0  0  0  0  0  0  0  0  0  0
   20.1076   -5.1550  -14.8522 C   0  0  1  0  0  0  0  0  0  0  0  0
   21.2158   -5.7726  -14.0639 C   0  0  0  0  0  0  0  0  0  0  0  0
   20.7917   -7.0105  -13.3680 C   0  0  0  0  0  0  0  0  0  0  0  0
   21.1133   -8.2972  -13.7110 C   0  0  0  0  0  0  0  0  0  0  0  0
   20.5182   -9.0942  -12.8085 N   0  0  0  0  0  0  0  0  0  0  0  0
   19.8369   -8.3586  -11.9142 C   0  0  0  0  0  0  0  0  0  0  0  0
   20.0123   -7.0736  -12.2687 N   0  0  0  0  0  0  0  0  0  0  0  0
   20.4473   -3.8219  -15.3909 C   0  0  0  0  0  0  0  0  0  0  0  0
   21.2445   -3.7408  -16.3592 O   0  0  0  0  0  0  0  0  0  0  0  0
   18.9861   -0.4464  -15.0002 C   0  0  0  0  0  0  0  0  0  0  0  0
   20.1832   -1.3121  -15.3605 C   0  0  2  0  0  0  0  0  0  0  0  0
   19.9016   -2.6395  -14.8481 N   0  0  0  0  0  0  0  0  0  0  0  0
   21.4319   -0.7554  -14.7784 C   0  0  0  0  0  0  0  0  0  0  0  0
   21.9556    0.3781  -15.3874 O   0  0  0  0  0  0  0  0  0  0  0  0
   21.9754   -1.2913  -13.7874 O   0  0  0  0  0  0  0  0  0  0  0  0
  2  1  1  6
  2  4  1  0
  3  2  1  0
  4  5  1  1
  6  8  1  0
  6  4  1  0
  7  6  2  0
  9  8  1  0
  9 16  1  0
  9 10  1  6
 11 10  1  0
 11 15  1  0
 12 11  2  0
 13 12  1  0
 13 14  1  0
 14 15  2  0
 16 20  1  0
 17 16  2  0
 19 21  1  0
 19 18  1  1
 20 19  1  0
 21 22  1  0
 23 21  2  0
M  END
$$$$
