THA.pdb
     RDKit          3D

 23 23  0  0  1  0  0  0  0  0999 V2000
   17.9532  -12.8141  -15.0123 C   0  0  0  0  0  0  0  0  0  0  0  0
   17.5052  -12.0476  -16.2220 C   0  0  1  0  0  0  0  0  0  0  0  0
   16.2728  -12.4629  -16.6639 O   0  0  0  0  0  0  0  0  0  0  0  0
   17.4809  -10.5635  -15.9114 C   0  0  2  0  0  0  0  0  0  0  0  0
   16.9032   -9.8896  -17.0486 N   0  0  0  0  0  0  0  0  0  0  0  0
   18.8287  -10.0227  -15.6361 C   0  0  0  0  0  0  0  0  0  0  0  0
   19.5272  -10.4017  -14.6658 O   0  0  0  0  0  0  0  0  0  0  0  0
   19.3888   -9.0309  -16.4834 N   0  0  0  0  0  0  0  0  0  0  0  0
   20.6577   -8.4163  -16.2932 C   0  0  1  0  0  0  0  0  0  0  0  0
   21.4132   -8.3704  -17.5808 C   0  0  0  0  0  0  0  0  0  0  0  0
   22.0153   -9.6791  -17.9290 C   0  0  0  0  0  0  0  0  0  0  0  0
   22.0248  -10.8106  -17.1568 C   0  0  0  0  0  0  0  0  0  0  0  0
   22.6723  -11.7513  -17.8637 N   0  0  0  0  0  0  0  0  0  0  0  0
   23.0686  -11.2546  -19.0474 C   0  0  0  0  0  0  0  0  0  0  0  0
   22.6580   -9.9747  -19.0776 N   0  0  0  0  0  0  0  0  0  0  0  0
   20.5918   -7.1089  -15.6083 C   0  0  0  0  0  0  0  0  0  0  0  0
   19.7244   -6.2744  -15.9699 O   0  0  0  0  0  0  0  0  0  0  0  0
   22.1541   -5.7474  -12.5217 C   0  0  0  0  0  0  0  0  0  0  0  0
   21.4277   -5.5165  -13.8375 C   0  0  2  0  0  0  0  0  0  0  0  0
   21.4754   -6.7728  -14.5610 N   0  0  0  0  0  0  0  0  0  0  0  0
   22.0662   -4.4178  -14.6077 C   0  0  0  0  0  0  0  0  0  0  0  0
   21.6604   -3.1239  -14.3064 O   0  0  0  0  0  0  0  0  0  0  0  0
   22.9266   -4.6602  -15.4829 O   0  0  0  0  0  0  0  0  0  0  0  0
  2  1  1  1
  2  4  1  0
  3  2  1  0
  4  5  1  6
  6  8  1  0
  6  4  1  0
  7  6  2  0
  9  8  1  0
  9 16  1  0
  9 10  1  6
 11 10  1  0
 11 15  1  0
 12 11  2  0
 13 12  1  0
 13 14  1  0
 14 15  2  0
 16 20  1  0
 17 16  2  0
 19 21  1  0
 19 18  1  1
 20 19  1  0
 21 22  1  0
 23 21  2  0
M  END
$$$$
