THA.pdb
     RDKit          3D

 23 23  0  0  1  0  0  0  0  0999 V2000
   15.5783   -4.5279   -9.5989 C   0  0  0  0  0  0  0  0  0  0  0  0
   15.1915   -5.5406   -8.5613 C   0  0  1  0  0  0  0  0  0  0  0  0
   14.0420   -5.1827   -7.9002 O   0  0  0  0  0  0  0  0  0  0  0  0
   15.0256   -6.9023   -9.2074 C   0  0  2  0  0  0  0  0  0  0  0  0
   14.6664   -7.8368   -8.1687 N   0  0  0  0  0  0  0  0  0  0  0  0
   16.2554   -7.3561   -9.8906 C   0  0  0  0  0  0  0  0  0  0  0  0
   17.2402   -7.8278   -9.2737 O   0  0  0  0  0  0  0  0  0  0  0  0
   16.3628   -7.2691  -11.3035 N   0  0  0  0  0  0  0  0  0  0  0  0
   17.4817   -7.7066  -12.0656 C   0  0  1  0  0  0  0  0  0  0  0  0
   17.0399   -8.6139  -13.1669 C   0  0  0  0  0  0  0  0  0  0  0  0
   16.5255   -9.9081  -12.6599 C   0  0  0  0  0  0  0  0  0  0  0  0
   17.2646  -11.0122  -12.3265 C   0  0  0  0  0  0  0  0  0  0  0  0
   16.3924  -11.9472  -11.9157 N   0  0  0  0  0  0  0  0  0  0  0  0
   15.1368  -11.4733  -11.9784 C   0  0  0  0  0  0  0  0  0  0  0  0
   15.2302  -10.2136  -12.4391 N   0  0  0  0  0  0  0  0  0  0  0  0
   18.3552   -6.6090  -12.5290 C   0  0  0  0  0  0  0  0  0  0  0  0
   17.8326   -5.5226  -12.8845 O   0  0  0  0  0  0  0  0  0  0  0  0
   22.0681   -6.2434  -12.8679 C   0  0  0  0  0  0  0  0  0  0  0  0
   20.6590   -5.6830  -12.9817 C   0  0  2  0  0  0  0  0  0  0  0  0
   19.7583   -6.7476  -12.5830 N   0  0  0  0  0  0  0  0  0  0  0  0
   20.3833   -5.2244  -14.3679 C   0  0  0  0  0  0  0  0  0  0  0  0
   20.6539   -3.8918  -14.6521 O   0  0  0  0  0  0  0  0  0  0  0  0
   19.9292   -6.0108  -15.2282 O   0  0  0  0  0  0  0  0  0  0  0  0
  2  1  1  6
  2  4  1  0
  3  2  1  0
  4  5  1  1
  6  8  1  0
  6  4  1  0
  7  6  2  0
  9  8  1  0
  9 16  1  0
  9 10  1  6
 11 10  1  0
 11 15  1  0
 12 11  2  0
 13 12  1  0
 13 14  1  0
 14 15  2  0
 16 20  1  0
 17 16  2  0
 19 21  1  0
 19 18  1  6
 20 19  1  0
 21 22  1  0
 23 21  2  0
M  END
$$$$
