THA.pdb
     RDKit          3D

 23 23  0  0  1  0  0  0  0  0999 V2000
   20.2107  -13.4346  -19.6137 C   0  0  0  0  0  0  0  0  0  0  0  0
   20.2422  -12.1850  -18.7836 C   0  0  1  0  0  0  0  0  0  0  0  0
   19.0934  -12.0308  -18.0467 O   0  0  0  0  0  0  0  0  0  0  0  0
   21.4542  -12.2023  -17.8725 C   0  0  2  0  0  0  0  0  0  0  0  0
   21.3269  -13.3435  -16.9993 N   0  0  0  0  0  0  0  0  0  0  0  0
   21.5756  -10.9658  -17.0717 C   0  0  0  0  0  0  0  0  0  0  0  0
   21.0157  -10.8198  -15.9590 O   0  0  0  0  0  0  0  0  0  0  0  0
   22.3496   -9.8762  -17.5504 N   0  0  0  0  0  0  0  0  0  0  0  0
   22.5567   -8.6534  -16.8534 C   0  0  1  0  0  0  0  0  0  0  0  0
   23.9829   -8.2242  -16.9657 C   0  0  0  0  0  0  0  0  0  0  0  0
   24.9085   -9.1557  -16.2785 C   0  0  0  0  0  0  0  0  0  0  0  0
   24.5702  -10.2879  -15.5855 C   0  0  0  0  0  0  0  0  0  0  0  0
   25.7187  -10.8193  -15.1359 N   0  0  0  0  0  0  0  0  0  0  0  0
   26.7628  -10.0657  -15.5194 C   0  0  0  0  0  0  0  0  0  0  0  0
   26.2515   -9.0411  -16.2242 N   0  0  0  0  0  0  0  0  0  0  0  0
   21.5971   -7.5897  -17.2144 C   0  0  0  0  0  0  0  0  0  0  0  0
   21.0679   -7.6073  -18.3542 O   0  0  0  0  0  0  0  0  0  0  0  0
   18.9662   -6.2722  -16.8900 C   0  0  0  0  0  0  0  0  0  0  0  0
   20.2645   -5.5382  -16.5932 C   0  0  2  0  0  0  0  0  0  0  0  0
   21.2596   -6.5563  -16.3151 N   0  0  0  0  0  0  0  0  0  0  0  0
   20.0963   -4.6105  -15.4448 C   0  0  0  0  0  0  0  0  0  0  0  0
   19.3470   -3.4629  -15.6716 O   0  0  0  0  0  0  0  0  0  0  0  0
   20.6100   -4.8626  -14.3324 O   0  0  0  0  0  0  0  0  0  0  0  0
  2  1  1  1
  2  4  1  0
  3  2  1  0
  4  5  1  1
  6  8  1  0
  6  4  1  0
  7  6  2  0
  9  8  1  0
  9 16  1  0
  9 10  1  6
 11 10  1  0
 11 15  1  0
 12 11  2  0
 13 12  1  0
 13 14  1  0
 14 15  2  0
 16 20  1  0
 17 16  2  0
 19 21  1  0
 19 18  1  1
 20 19  1  0
 21 22  1  0
 23 21  2  0
M  END
$$$$
