THA.pdb
     RDKit          3D

 23 23  0  0  1  0  0  0  0  0999 V2000
   14.8131   -9.4310  -12.7787 C   0  0  0  0  0  0  0  0  0  0  0  0
   16.0583   -8.6833  -13.1557 C   0  0  1  0  0  0  0  0  0  0  0  0
   15.9739   -7.3514  -12.8309 O   0  0  0  0  0  0  0  0  0  0  0  0
   17.2617   -9.3144  -12.4827 C   0  0  2  0  0  0  0  0  0  0  0  0
   17.0630   -9.2202  -11.0569 N   0  0  0  0  0  0  0  0  0  0  0  0
   18.5295   -8.6544  -12.8597 C   0  0  0  0  0  0  0  0  0  0  0  0
   19.0794   -7.7822  -12.1457 O   0  0  0  0  0  0  0  0  0  0  0  0
   19.1806   -8.9960  -14.0741 N   0  0  0  0  0  0  0  0  0  0  0  0
   20.3266   -8.3367  -14.5995 C   0  0  1  0  0  0  0  0  0  0  0  0
   21.0697   -9.2418  -15.5266 C   0  0  0  0  0  0  0  0  0  0  0  0
   22.3095   -8.6202  -16.0492 C   0  0  0  0  0  0  0  0  0  0  0  0
   23.2467   -7.9262  -15.3303 C   0  0  0  0  0  0  0  0  0  0  0  0
   24.1955   -7.5482  -16.2024 N   0  0  0  0  0  0  0  0  0  0  0  0
   23.8905   -7.9774  -17.4385 C   0  0  0  0  0  0  0  0  0  0  0  0
   22.7242   -8.6380  -17.3327 N   0  0  0  0  0  0  0  0  0  0  0  0
   20.0378   -7.0113  -15.1848 C   0  0  0  0  0  0  0  0  0  0  0  0
   19.0036   -6.8660  -15.8840 O   0  0  0  0  0  0  0  0  0  0  0  0
   20.3867   -4.6967  -16.9685 C   0  0  0  0  0  0  0  0  0  0  0  0
   20.6109   -4.5699  -15.4698 C   0  0  2  0  0  0  0  0  0  0  0  0
   20.8907   -5.9062  -14.9800 N   0  0  0  0  0  0  0  0  0  0  0  0
   19.4185   -3.9830  -14.8052 C   0  0  0  0  0  0  0  0  0  0  0  0
   18.7824   -4.7688  -13.8526 O   0  0  0  0  0  0  0  0  0  0  0  0
   19.0173   -2.8350  -15.0986 O   0  0  0  0  0  0  0  0  0  0  0  0
  2  1  1  1
  2  4  1  0
  3  2  1  0
  4  5  1  1
  6  8  1  0
  6  4  1  0
  7  6  2  0
  9  8  1  0
  9 16  1  0
  9 10  1  6
 11 10  1  0
 11 15  1  0
 12 11  2  0
 13 12  1  0
 13 14  1  0
 14 15  2  0
 16 20  1  0
 17 16  2  0
 19 21  1  0
 19 18  1  6
 20 19  1  0
 21 22  1  0
 23 21  2  0
M  END
$$$$
