TTI.pdb
     RDKit          3D

 23 22  0  0  1  0  0  0  0  0999 V2000
    9.2457  -12.4663   19.8578 C   0  0  0  0  0  0  0  0  0  0  0  0
    8.5536  -12.9834   18.6354 C   0  0  1  0  0  0  0  0  0  0  0  0
    9.0700  -12.4527   17.4569 O   0  0  0  0  0  0  0  0  0  0  0  0
    8.6229  -14.5165   18.6056 C   0  0  2  0  0  0  0  0  0  0  0  0
    7.9880  -14.9500   17.4045 N   0  0  0  0  0  0  0  0  0  0  0  0
    7.9602  -14.9867   19.8419 C   0  0  0  0  0  0  0  0  0  0  0  0
    6.7099  -14.8722   19.8994 O   0  0  0  0  0  0  0  0  0  0  0  0
    7.7616  -18.3364   21.0359 C   0  0  0  0  0  0  0  0  0  0  0  0
    8.2867  -17.5071   22.1881 C   0  0  1  0  0  0  0  0  0  0  0  0
    9.6973  -17.5659   22.1519 O   0  0  0  0  0  0  0  0  0  0  0  0
    7.8455  -16.0431   22.0760 C   0  0  2  0  0  0  0  0  0  0  0  0
    8.6353  -15.5438   20.9359 N   0  0  0  0  0  0  0  0  0  0  0  0
    8.3138  -15.3079   23.2656 C   0  0  0  0  0  0  0  0  0  0  0  0
    9.4297  -14.6918   23.1785 O   0  0  0  0  0  0  0  0  0  0  0  0
    6.8509  -11.2870   27.2579 C   0  0  0  0  0  0  0  0  0  0  0  0
    7.8187  -12.4289   27.0067 C   0  0  0  0  0  0  0  0  0  0  0  0
    7.2164  -13.3188   25.9745 C   0  0  2  0  0  0  0  0  0  0  0  0
    5.9553  -13.9329   26.5481 C   0  0  0  0  0  0  0  0  0  0  0  0
    8.2086  -14.3943   25.5629 C   0  0  2  0  0  0  0  0  0  0  0  0
    7.6389  -15.2161   24.5017 N   0  0  0  0  0  0  0  0  0  0  0  0
    8.5598  -15.2837   26.6807 C   0  0  0  0  0  0  0  0  0  0  0  0
    9.4109  -14.8498   27.6688 O   0  0  0  0  0  0  0  0  0  0  0  0
    8.0929  -16.4389   26.7474 O   0  0  0  0  0  0  0  0  0  0  0  0
  2  1  1  1
  2  3  1  0
  2  4  1  0
  4  5  1  6
  6 12  1  0
  6  4  1  0
  7  6  2  0
  9  8  1  6
  9 11  1  0
 10  9  1  0
 11 13  1  0
 11 12  1  6
 13 14  2  0
 16 15  1  0
 17 18  1  1
 17 16  1  0
 19 17  1  0
 20 13  1  0
 19 20  1  6
 21 22  1  0
 21 19  1  0
 23 21  2  0
M  END
$$$$
