TTI.pdb
     RDKit          3D

 23 22  0  0  1  0  0  0  0  0999 V2000
    8.4063  -12.6027   19.9613 C   0  0  0  0  0  0  0  0  0  0  0  0
    8.0266  -13.4130   18.7614 C   0  0  1  0  0  0  0  0  0  0  0  0
    8.5328  -12.8910   17.5747 O   0  0  0  0  0  0  0  0  0  0  0  0
    8.4880  -14.8654   18.9452 C   0  0  2  0  0  0  0  0  0  0  0  0
    8.0847  -15.5921   17.7865 N   0  0  0  0  0  0  0  0  0  0  0  0
    7.8697  -15.3422   20.2019 C   0  0  0  0  0  0  0  0  0  0  0  0
    6.6202  -15.4778   20.2087 O   0  0  0  0  0  0  0  0  0  0  0  0
    7.5584  -18.3720   21.6793 C   0  0  0  0  0  0  0  0  0  0  0  0
    8.1997  -17.5140   22.7487 C   0  0  1  0  0  0  0  0  0  0  0  0
    9.5998  -17.6603   22.6345 O   0  0  0  0  0  0  0  0  0  0  0  0
    7.8372  -16.0343   22.5768 C   0  0  2  0  0  0  0  0  0  0  0  0
    8.5853  -15.6467   21.3672 N   0  0  0  0  0  0  0  0  0  0  0  0
    8.4165  -15.2649   23.6937 C   0  0  0  0  0  0  0  0  0  0  0  0
    9.6211  -14.8578   23.5691 O   0  0  0  0  0  0  0  0  0  0  0  0
    5.7577  -11.8184   27.0822 C   0  0  0  0  0  0  0  0  0  0  0  0
    6.3449  -13.1184   26.5639 C   0  0  0  0  0  0  0  0  0  0  0  0
    7.7637  -12.8608   26.1889 C   0  0  2  0  0  0  0  0  0  0  0  0
    7.7813  -11.9634   24.9680 C   0  0  0  0  0  0  0  0  0  0  0  0
    8.4816  -14.1719   25.9128 C   0  0  2  0  0  0  0  0  0  0  0  0
    7.7599  -14.9293   24.8971 N   0  0  0  0  0  0  0  0  0  0  0  0
    8.5823  -15.0143   27.1144 C   0  0  0  0  0  0  0  0  0  0  0  0
    7.9698  -16.2443   27.1502 O   0  0  0  0  0  0  0  0  0  0  0  0
    9.2215  -14.6265   28.1134 O   0  0  0  0  0  0  0  0  0  0  0  0
  2  1  1  1
  2  3  1  0
  2  4  1  0
  4  5  1  6
  6 12  1  0
  6  4  1  0
  7  6  2  0
  9  8  1  6
  9 11  1  0
 10  9  1  0
 11 13  1  0
 11 12  1  6
 13 14  2  0
 16 15  1  0
 17 18  1  6
 17 16  1  0
 19 17  1  0
 20 13  1  0
 19 20  1  6
 21 22  1  0
 21 19  1  0
 23 21  2  0
M  END
$$$$
