TTI.pdb
     RDKit          3D

 23 22  0  0  1  0  0  0  0  0999 V2000
    8.8784  -12.4727   19.7586 C   0  0  0  0  0  0  0  0  0  0  0  0
    8.3575  -13.2431   18.5857 C   0  0  1  0  0  0  0  0  0  0  0  0
    8.8527  -12.7783   17.3709 O   0  0  0  0  0  0  0  0  0  0  0  0
    8.6778  -14.7345   18.7570 C   0  0  2  0  0  0  0  0  0  0  0  0
    8.1956  -15.4113   17.5981 N   0  0  0  0  0  0  0  0  0  0  0  0
    8.0275  -15.1573   20.0168 C   0  0  0  0  0  0  0  0  0  0  0  0
    6.7720  -15.1142   20.0547 O   0  0  0  0  0  0  0  0  0  0  0  0
    7.8473  -18.3719   21.2287 C   0  0  0  0  0  0  0  0  0  0  0  0
    8.3729  -17.5654   22.3968 C   0  0  1  0  0  0  0  0  0  0  0  0
    9.7831  -17.6372   22.3685 O   0  0  0  0  0  0  0  0  0  0  0  0
    7.9463  -16.0956   22.3044 C   0  0  2  0  0  0  0  0  0  0  0  0
    8.7197  -15.5964   21.1531 N   0  0  0  0  0  0  0  0  0  0  0  0
    8.4459  -15.3751   23.4903 C   0  0  0  0  0  0  0  0  0  0  0  0
    9.6013  -14.8357   23.4111 O   0  0  0  0  0  0  0  0  0  0  0  0
    5.6715  -11.9772   26.3989 C   0  0  0  0  0  0  0  0  0  0  0  0
    6.7653  -12.6982   25.6326 C   0  0  0  0  0  0  0  0  0  0  0  0
    7.4111  -13.6671   26.5623 C   0  0  2  0  0  0  0  0  0  0  0  0
    8.0798  -12.8885   27.6772 C   0  0  0  0  0  0  0  0  0  0  0  0
    8.4197  -14.5229   25.8134 C   0  0  2  0  0  0  0  0  0  0  0  0
    7.7614  -15.2201   24.7149 N   0  0  0  0  0  0  0  0  0  0  0  0
    9.0415  -15.5358   26.6800 C   0  0  0  0  0  0  0  0  0  0  0  0
   10.2231  -15.2617   27.3266 O   0  0  0  0  0  0  0  0  0  0  0  0
    8.5085  -16.6526   26.8396 O   0  0  0  0  0  0  0  0  0  0  0  0
  2  1  1  1
  2  3  1  0
  2  4  1  0
  4  5  1  6
  6 12  1  0
  6  4  1  0
  7  6  2  0
  9  8  1  6
  9 11  1  0
 10  9  1  0
 11 13  1  0
 11 12  1  6
 13 14  2  0
 16 15  1  0
 17 18  1  1
 17 16  1  0
 19 17  1  0
 20 13  1  0
 19 20  1  6
 21 22  1  0
 21 19  1  0
 23 21  2  0
M  END
$$$$
