TTI.pdb
     RDKit          3D

 23 22  0  0  1  0  0  0  0  0999 V2000
    9.4298  -16.7641   18.1566 C   0  0  0  0  0  0  0  0  0  0  0  0
    8.1124  -16.8056   18.8661 C   0  0  1  0  0  0  0  0  0  0  0  0
    7.0297  -16.8534   17.9927 O   0  0  0  0  0  0  0  0  0  0  0  0
    8.0751  -18.0012   19.8281 C   0  0  2  0  0  0  0  0  0  0  0  0
    7.3974  -19.0647   19.1624 N   0  0  0  0  0  0  0  0  0  0  0  0
    7.3963  -17.5272   21.0541 C   0  0  0  0  0  0  0  0  0  0  0  0
    6.2882  -16.9523   20.9083 O   0  0  0  0  0  0  0  0  0  0  0  0
    6.1170  -19.6331   23.5803 C   0  0  0  0  0  0  0  0  0  0  0  0
    6.9623  -18.6023   24.2972 C   0  0  1  0  0  0  0  0  0  0  0  0
    8.2563  -19.1447   24.4581 O   0  0  0  0  0  0  0  0  0  0  0  0
    7.0636  -17.2997   23.4950 C   0  0  2  0  0  0  0  0  0  0  0  0
    7.9093  -17.6795   22.3489 N   0  0  0  0  0  0  0  0  0  0  0  0
    7.8329  -16.3132   24.2761 C   0  0  0  0  0  0  0  0  0  0  0  0
    9.0276  -16.0625   23.8991 O   0  0  0  0  0  0  0  0  0  0  0  0
    5.6135  -11.9576   26.3306 C   0  0  0  0  0  0  0  0  0  0  0  0
    6.6708  -12.7966   25.6366 C   0  0  0  0  0  0  0  0  0  0  0  0
    7.4298  -13.5335   26.6857 C   0  0  2  0  0  0  0  0  0  0  0  0
    8.3187  -12.5471   27.4160 C   0  0  0  0  0  0  0  0  0  0  0  0
    8.2517  -14.6468   26.0568 C   0  0  2  0  0  0  0  0  0  0  0  0
    7.3698  -15.6105   25.4091 N   0  0  0  0  0  0  0  0  0  0  0  0
    9.0575  -15.3724   27.0507 C   0  0  0  0  0  0  0  0  0  0  0  0
    8.6243  -16.5800   27.5439 O   0  0  0  0  0  0  0  0  0  0  0  0
   10.1400  -14.9045   27.4585 O   0  0  0  0  0  0  0  0  0  0  0  0
  2  1  1  6
  2  3  1  0
  2  4  1  0
  4  5  1  6
  6 12  1  0
  6  4  1  0
  7  6  2  0
  9  8  1  6
  9 11  1  0
 10  9  1  0
 11 13  1  0
 11 12  1  6
 13 14  2  0
 16 15  1  0
 17 18  1  6
 17 16  1  0
 19 17  1  0
 20 13  1  0
 19 20  1  1
 21 22  1  0
 21 19  1  0
 23 21  2  0
M  END
$$$$
