TTI.pdb
     RDKit          3D

 23 22  0  0  1  0  0  0  0  0999 V2000
    8.6277  -12.5721   20.0287 C   0  0  0  0  0  0  0  0  0  0  0  0
    8.1842  -13.2402   18.7647 C   0  0  1  0  0  0  0  0  0  0  0  0
    8.7141  -12.6443   17.6240 O   0  0  0  0  0  0  0  0  0  0  0  0
    8.5488  -14.7307   18.8065 C   0  0  2  0  0  0  0  0  0  0  0  0
    8.0447  -15.3278   17.6137 N   0  0  0  0  0  0  0  0  0  0  0  0
    7.9536  -15.2695   20.0491 C   0  0  0  0  0  0  0  0  0  0  0  0
    6.6992  -15.3261   20.1045 O   0  0  0  0  0  0  0  0  0  0  0  0
    8.0901  -18.3499   23.7115 C   0  0  0  0  0  0  0  0  0  0  0  0
    8.4900  -17.6950   22.4069 C   0  0  1  0  0  0  0  0  0  0  0  0
    7.9238  -18.4497   21.3560 O   0  0  0  0  0  0  0  0  0  0  0  0
    7.9758  -16.2533   22.3189 C   0  0  2  0  0  0  0  0  0  0  0  0
    8.6958  -15.7137   21.1513 N   0  0  0  0  0  0  0  0  0  0  0  0
    8.4550  -15.5000   23.4928 C   0  0  0  0  0  0  0  0  0  0  0  0
    9.6867  -15.1616   23.5157 O   0  0  0  0  0  0  0  0  0  0  0  0
    5.6333  -11.8046   26.1775 C   0  0  0  0  0  0  0  0  0  0  0  0
    6.7253  -12.5741   25.4573 C   0  0  0  0  0  0  0  0  0  0  0  0
    7.3248  -13.5322   26.4283 C   0  0  2  0  0  0  0  0  0  0  0  0
    7.9969  -12.7393   27.5310 C   0  0  0  0  0  0  0  0  0  0  0  0
    8.3201  -14.4407   25.7252 C   0  0  2  0  0  0  0  0  0  0  0  0
    7.6744  -15.1106   24.6024 N   0  0  0  0  0  0  0  0  0  0  0  0
    8.8544  -15.4784   26.6205 C   0  0  0  0  0  0  0  0  0  0  0  0
   10.0841  -15.3150   27.2124 O   0  0  0  0  0  0  0  0  0  0  0  0
    8.2027  -16.5165   26.8540 O   0  0  0  0  0  0  0  0  0  0  0  0
  2  1  1  1
  2  3  1  0
  2  4  1  0
  4  5  1  6
  6 12  1  0
  6  4  1  0
  7  6  2  0
  9  8  1  1
  9 11  1  0
 10  9  1  0
 11 13  1  0
 11 12  1  6
 13 14  2  0
 16 15  1  0
 17 18  1  1
 17 16  1  0
 19 17  1  0
 20 13  1  0
 19 20  1  6
 21 22  1  0
 21 19  1  0
 23 21  2  0
M  END
$$$$
