TTI.pdb
     RDKit          3D

 23 22  0  0  1  0  0  0  0  0999 V2000
    8.4187  -12.4582   19.7718 C   0  0  0  0  0  0  0  0  0  0  0  0
    8.1763  -13.2999   18.5579 C   0  0  1  0  0  0  0  0  0  0  0  0
    8.6418  -12.7073   17.3877 O   0  0  0  0  0  0  0  0  0  0  0  0
    8.8147  -14.6832   18.7460 C   0  0  2  0  0  0  0  0  0  0  0  0
    8.6051  -15.4181   17.5420 N   0  0  0  0  0  0  0  0  0  0  0  0
    8.1706  -15.2798   19.9368 C   0  0  0  0  0  0  0  0  0  0  0  0
    7.1159  -15.9365   19.7476 O   0  0  0  0  0  0  0  0  0  0  0  0
    7.7866  -17.8693   20.8206 C   0  0  0  0  0  0  0  0  0  0  0  0
    8.3585  -17.3247   22.1119 C   0  0  1  0  0  0  0  0  0  0  0  0
    9.7658  -17.4094   22.0278 O   0  0  0  0  0  0  0  0  0  0  0  0
    7.9592  -15.8609   22.3321 C   0  0  2  0  0  0  0  0  0  0  0  0
    8.6609  -15.1570   21.2435 N   0  0  0  0  0  0  0  0  0  0  0  0
    8.5565  -15.3848   23.5938 C   0  0  0  0  0  0  0  0  0  0  0  0
    9.7623  -14.9643   23.5554 O   0  0  0  0  0  0  0  0  0  0  0  0
    5.9051  -12.0018   26.4882 C   0  0  0  0  0  0  0  0  0  0  0  0
    6.9765  -12.7746   25.7410 C   0  0  0  0  0  0  0  0  0  0  0  0
    7.5576  -13.7741   26.6808 C   0  0  2  0  0  0  0  0  0  0  0  0
    8.2100  -13.0299   27.8284 C   0  0  0  0  0  0  0  0  0  0  0  0
    8.5649  -14.6532   25.9577 C   0  0  2  0  0  0  0  0  0  0  0  0
    7.9159  -15.3457   24.8508 N   0  0  0  0  0  0  0  0  0  0  0  0
    9.1508  -15.6713   26.8430 C   0  0  0  0  0  0  0  0  0  0  0  0
   10.3338  -15.4215   27.4967 O   0  0  0  0  0  0  0  0  0  0  0  0
    8.5856  -16.7708   27.0123 O   0  0  0  0  0  0  0  0  0  0  0  0
  2  1  1  1
  2  3  1  0
  2  4  1  0
  4  5  1  6
  6 12  1  0
  6  4  1  0
  7  6  2  0
  9  8  1  6
  9 11  1  0
 10  9  1  0
 11 13  1  0
 11 12  1  6
 13 14  2  0
 16 15  1  0
 17 18  1  1
 17 16  1  0
 19 17  1  0
 20 13  1  0
 19 20  1  6
 21 22  1  0
 21 19  1  0
 23 21  2  0
M  END
$$$$
