TTI.pdb
     RDKit          3D

 23 22  0  0  1  0  0  0  0  0999 V2000
   11.7509  -17.8524   22.4852 C   0  0  0  0  0  0  0  0  0  0  0  0
   12.2654  -17.2150   21.2324 C   0  0  1  0  0  0  0  0  0  0  0  0
   13.3510  -17.8941   20.6871 O   0  0  0  0  0  0  0  0  0  0  0  0
   11.1338  -17.1025   20.2013 C   0  0  2  0  0  0  0  0  0  0  0  0
   11.7118  -16.6459   18.9802 N   0  0  0  0  0  0  0  0  0  0  0  0
   10.1351  -16.1767   20.7794 C   0  0  0  0  0  0  0  0  0  0  0  0
   10.3953  -14.9483   20.7246 O   0  0  0  0  0  0  0  0  0  0  0  0
    6.2311  -16.1731   20.1475 C   0  0  0  0  0  0  0  0  0  0  0  0
    6.6221  -16.2049   21.6094 C   0  0  1  0  0  0  0  0  0  0  0  0
    6.6854  -17.5584   22.0077 O   0  0  0  0  0  0  0  0  0  0  0  0
    7.9898  -15.5521   21.8414 C   0  0  2  0  0  0  0  0  0  0  0  0
    8.9342  -16.5836   21.3754 N   0  0  0  0  0  0  0  0  0  0  0  0
    8.2116  -15.4041   23.2919 C   0  0  0  0  0  0  0  0  0  0  0  0
    9.1687  -16.0696   23.8147 O   0  0  0  0  0  0  0  0  0  0  0  0
    6.2344  -11.1320   26.0624 C   0  0  0  0  0  0  0  0  0  0  0  0
    7.2554  -12.1219   25.5323 C   0  0  0  0  0  0  0  0  0  0  0  0
    7.0671  -13.4069   26.2626 C   0  0  2  0  0  0  0  0  0  0  0  0
    7.5412  -13.2207   27.6899 C   0  0  0  0  0  0  0  0  0  0  0  0
    7.8364  -14.5219   25.5732 C   0  0  2  0  0  0  0  0  0  0  0  0
    7.4623  -14.5870   24.1654 N   0  0  0  0  0  0  0  0  0  0  0  0
    7.5642  -15.8377   26.1719 C   0  0  0  0  0  0  0  0  0  0  0  0
    6.4206  -16.5247   25.8413 O   0  0  0  0  0  0  0  0  0  0  0  0
    8.3631  -16.3463   26.9843 O   0  0  0  0  0  0  0  0  0  0  0  0
  2  1  1  1
  2  3  1  0
  2  4  1  0
  4  5  1  6
  6 12  1  0
  6  4  1  0
  7  6  2  0
  9  8  1  6
  9 11  1  0
 10  9  1  0
 11 13  1  0
 11 12  1  1
 13 14  2  0
 16 15  1  0
 17 18  1  1
 17 16  1  0
 19 17  1  0
 20 13  1  0
 19 20  1  6
 21 22  1  0
 21 19  1  0
 23 21  2  0
M  END
$$$$
