TTI.pdb
     RDKit          3D

 23 22  0  0  1  0  0  0  0  0999 V2000
   10.5088  -14.0548   18.4111 C   0  0  0  0  0  0  0  0  0  0  0  0
    9.6345  -14.1289   19.6238 C   0  0  1  0  0  0  0  0  0  0  0  0
    9.6773  -12.9693   20.3925 O   0  0  0  0  0  0  0  0  0  0  0  0
    8.1901  -14.4402   19.2077 C   0  0  2  0  0  0  0  0  0  0  0  0
    7.7042  -13.3165   18.4764 N   0  0  0  0  0  0  0  0  0  0  0  0
    7.4472  -14.7137   20.4575 C   0  0  0  0  0  0  0  0  0  0  0  0
    6.8006  -13.7595   20.9587 O   0  0  0  0  0  0  0  0  0  0  0  0
    5.5546  -18.1572   21.3740 C   0  0  0  0  0  0  0  0  0  0  0  0
    6.4492  -17.6119   22.4664 C   0  0  1  0  0  0  0  0  0  0  0  0
    7.7091  -18.2379   22.3424 O   0  0  0  0  0  0  0  0  0  0  0  0
    6.6315  -16.0948   22.3409 C   0  0  2  0  0  0  0  0  0  0  0  0
    7.4229  -15.9558   21.1051 N   0  0  0  0  0  0  0  0  0  0  0  0
    7.4882  -15.6211   23.4440 C   0  0  0  0  0  0  0  0  0  0  0  0
    8.7332  -15.4679   23.2017 O   0  0  0  0  0  0  0  0  0  0  0  0
    5.9376  -11.7294   26.5755 C   0  0  0  0  0  0  0  0  0  0  0  0
    6.7900  -12.6289   25.6992 C   0  0  0  0  0  0  0  0  0  0  0  0
    7.3535  -13.7052   26.5617 C   0  0  2  0  0  0  0  0  0  0  0  0
    8.3454  -13.0800   27.5217 C   0  0  0  0  0  0  0  0  0  0  0  0
    8.0195  -14.7707   25.7063 C   0  0  2  0  0  0  0  0  0  0  0  0
    7.0593  -15.3147   24.7532 N   0  0  0  0  0  0  0  0  0  0  0  0
    8.5354  -15.8881   26.5119 C   0  0  0  0  0  0  0  0  0  0  0  0
    9.8070  -15.8372   27.0311 O   0  0  0  0  0  0  0  0  0  0  0  0
    7.8300  -16.8931   26.7340 O   0  0  0  0  0  0  0  0  0  0  0  0
  2  1  1  6
  2  3  1  0
  2  4  1  0
  4  5  1  1
  6 12  1  0
  6  4  1  0
  7  6  2  0
  9  8  1  6
  9 11  1  0
 10  9  1  0
 11 13  1  0
 11 12  1  6
 13 14  2  0
 16 15  1  0
 17 18  1  1
 17 16  1  0
 19 17  1  0
 20 13  1  0
 19 20  1  6
 21 22  1  0
 21 19  1  0
 23 21  2  0
M  END
$$$$
