GSQ.pdb
     RDKit          3D

 20 19  0  0  1  0  0  0  0  0999 V2000
   28.0594  -22.1580  -15.7522 N   0  0  0  0  0  0  0  0  0  0  0  0
   27.8794  -21.3229  -14.6060 C   0  0  0  0  0  0  0  0  0  0  0  0
   26.6194  -21.7071  -13.8851 C   0  0  0  0  0  0  0  0  0  0  0  0
   25.7591  -22.4477  -14.4265 O   0  0  0  0  0  0  0  0  0  0  0  0
   25.5844  -19.8106  -10.3170 O   0  0  0  0  0  0  0  0  0  0  0  0
   25.1869  -21.1297  -10.4285 C   0  0  0  0  0  0  0  0  0  0  0  0
   25.0787  -21.4970  -11.8810 C   0  0  2  0  0  0  0  0  0  0  0  0
   26.3454  -21.2548  -12.5707 N   0  0  0  0  0  0  0  0  0  0  0  0
   23.9900  -20.7439  -12.5098 C   0  0  0  0  0  0  0  0  0  0  0  0
   24.1834  -19.6060  -13.0603 O   0  0  0  0  0  0  0  0  0  0  0  0
   22.7996  -21.8684  -17.2876 N   0  0  0  0  0  0  0  0  0  0  0  0
   21.6499  -21.0342  -17.2369 C   0  0  0  0  0  0  0  0  0  0  0  0
   21.0840  -20.7422  -18.3019 O   0  0  0  0  0  0  0  0  0  0  0  0
   21.1868  -20.5552  -15.9026 C   0  0  0  0  0  0  0  0  0  0  0  0
   22.1156  -21.0682  -14.8520 C   0  0  0  0  0  0  0  0  0  0  0  0
   21.6830  -20.6214  -13.4937 C   0  0  2  0  0  0  0  0  0  0  0  0
   22.6614  -21.2195  -12.5535 N   0  0  0  0  0  0  0  0  0  0  0  0
   20.3394  -21.1151  -13.0992 C   0  0  0  0  0  0  0  0  0  0  0  0
   20.1929  -22.3294  -12.4054 O   0  0  0  0  0  0  0  0  0  0  0  0
   19.2680  -20.5005  -13.3500 O   0  0  0  0  0  0  0  0  0  0  0  0
  2  1  1  0
  3  2  1  0
  4  3  2  0
  6  5  1  0
  7  8  1  0
  7  6  1  1
  8  3  1  0
  9  7  1  0
 10  9  2  0
 12 14  1  0
 12 11  1  0
 13 12  2  0
 15 14  1  0
 16 15  1  6
 16 17  1  0
 17  9  1  0
 18 19  1  0
 18 16  1  0
 20 18  2  0
M  END
$$$$
