GSQ.pdb
     RDKit          3D

 20 19  0  0  1  0  0  0  0  0999 V2000
   17.0268  -12.6635  -15.2809 N   0  0  0  0  0  0  0  0  0  0  0  0
   17.5391  -11.7753  -16.2771 C   0  0  0  0  0  0  0  0  0  0  0  0
   18.1418  -10.5652  -15.6235 C   0  0  0  0  0  0  0  0  0  0  0  0
   17.4520   -9.8072  -14.8944 O   0  0  0  0  0  0  0  0  0  0  0  0
   22.1323   -8.1810  -14.3202 O   0  0  0  0  0  0  0  0  0  0  0  0
   21.5971   -9.2633  -14.9929 C   0  0  0  0  0  0  0  0  0  0  0  0
   20.1262   -9.0422  -15.2031 C   0  0  2  0  0  0  0  0  0  0  0  0
   19.5061  -10.2255  -15.7981 N   0  0  0  0  0  0  0  0  0  0  0  0
   19.9109   -7.8616  -16.0442 C   0  0  0  0  0  0  0  0  0  0  0  0
   20.1264   -7.8795  -17.3045 O   0  0  0  0  0  0  0  0  0  0  0  0
   15.8792   -4.7265  -14.4307 N   0  0  0  0  0  0  0  0  0  0  0  0
   15.7014   -5.4968  -15.6119 C   0  0  0  0  0  0  0  0  0  0  0  0
   14.6052   -6.0474  -15.7991 O   0  0  0  0  0  0  0  0  0  0  0  0
   16.8455   -5.6004  -16.5629 C   0  0  0  0  0  0  0  0  0  0  0  0
   18.0014   -4.8264  -16.0199 C   0  0  0  0  0  0  0  0  0  0  0  0
   19.2973   -5.4553  -16.4162 C   0  0  2  0  0  0  0  0  0  0  0  0
   19.4515   -6.6312  -15.5261 N   0  0  0  0  0  0  0  0  0  0  0  0
   20.4791   -4.5834  -16.1975 C   0  0  0  0  0  0  0  0  0  0  0  0
   20.6194   -3.3712  -16.8960 O   0  0  0  0  0  0  0  0  0  0  0  0
   21.4115   -4.8589  -15.3955 O   0  0  0  0  0  0  0  0  0  0  0  0
  2  1  1  0
  3  2  1  0
  4  3  2  0
  6  5  1  0
  7  8  1  0
  7  6  1  6
  8  3  1  0
  9  7  1  0
 10  9  2  0
 12 14  1  0
 12 11  1  0
 13 12  2  0
 15 14  1  0
 16 15  1  1
 16 17  1  0
 17  9  1  0
 18 19  1  0
 18 16  1  0
 20 18  2  0
M  END
$$$$
