GSQ.pdb
     RDKit          3D

 20 19  0  0  1  0  0  0  0  0999 V2000
   13.5726   -8.4799   -6.4542 N   0  0  0  0  0  0  0  0  0  0  0  0
   13.7353   -7.8850   -7.7439 C   0  0  0  0  0  0  0  0  0  0  0  0
   14.8956   -8.5175   -8.4571 C   0  0  0  0  0  0  0  0  0  0  0  0
   15.9958   -8.7009   -7.8760 O   0  0  0  0  0  0  0  0  0  0  0  0
   14.3738  -10.3065  -12.1584 O   0  0  0  0  0  0  0  0  0  0  0  0
   15.4230  -10.7130  -11.3558 C   0  0  0  0  0  0  0  0  0  0  0  0
   15.9089   -9.5477  -10.5418 C   0  0  2  0  0  0  0  0  0  0  0  0
   14.8029   -8.9333   -9.8083 N   0  0  0  0  0  0  0  0  0  0  0  0
   16.5672   -8.5680  -11.4103 C   0  0  0  0  0  0  0  0  0  0  0  0
   15.9251   -7.6039  -11.9521 O   0  0  0  0  0  0  0  0  0  0  0  0
   22.1260   -6.4994  -10.7773 N   0  0  0  0  0  0  0  0  0  0  0  0
   21.9032   -5.9419  -12.0656 C   0  0  0  0  0  0  0  0  0  0  0  0
   22.7666   -5.1878  -12.5408 O   0  0  0  0  0  0  0  0  0  0  0  0
   20.6406   -6.2956  -12.7763 C   0  0  0  0  0  0  0  0  0  0  0  0
   19.8238   -7.1890  -11.9020 C   0  0  0  0  0  0  0  0  0  0  0  0
   18.5608   -7.5964  -12.5880 C   0  0  2  0  0  0  0  0  0  0  0  0
   17.9468   -8.6181  -11.7058 N   0  0  0  0  0  0  0  0  0  0  0  0
   18.7754   -8.2338  -13.9117 C   0  0  0  0  0  0  0  0  0  0  0  0
   18.9713   -7.4527  -15.0644 O   0  0  0  0  0  0  0  0  0  0  0  0
   18.7967   -9.4812  -14.0912 O   0  0  0  0  0  0  0  0  0  0  0  0
  2  1  1  0
  3  2  1  0
  4  3  2  0
  6  5  1  0
  7  8  1  0
  7  6  1  6
  8  3  1  0
  9  7  1  0
 10  9  2  0
 12 14  1  0
 12 11  1  0
 13 12  2  0
 15 14  1  0
 16 15  1  1
 16 17  1  0
 17  9  1  0
 18 19  1  0
 18 16  1  0
 20 18  2  0
M  END
$$$$
