GSQ.pdb
     RDKit          3D

 20 19  0  0  1  0  0  0  0  0999 V2000
   28.3353  -20.1136  -17.5583 N   0  0  0  0  0  0  0  0  0  0  0  0
   28.6706  -19.4704  -16.3264 C   0  0  0  0  0  0  0  0  0  0  0  0
   28.3387  -20.3708  -15.1714 C   0  0  0  0  0  0  0  0  0  0  0  0
   27.3155  -21.1021  -15.1886 O   0  0  0  0  0  0  0  0  0  0  0  0
   30.3278  -19.9309  -11.4500 O   0  0  0  0  0  0  0  0  0  0  0  0
   29.9064  -21.1930  -11.8236 C   0  0  0  0  0  0  0  0  0  0  0  0
   28.7442  -21.0718  -12.7676 C   0  0  2  0  0  0  0  0  0  0  0  0
   29.1586  -20.4362  -14.0178 N   0  0  0  0  0  0  0  0  0  0  0  0
   27.6588  -20.3182  -12.1338 C   0  0  0  0  0  0  0  0  0  0  0  0
   27.3453  -19.1368  -12.5097 O   0  0  0  0  0  0  0  0  0  0  0  0
   22.8738  -19.9563  -13.5467 N   0  0  0  0  0  0  0  0  0  0  0  0
   22.4785  -20.6310  -12.3597 C   0  0  0  0  0  0  0  0  0  0  0  0
   21.3261  -21.0867  -12.2947 O   0  0  0  0  0  0  0  0  0  0  0  0
   23.4737  -20.7536  -11.2558 C   0  0  0  0  0  0  0  0  0  0  0  0
   24.7315  -20.0545  -11.6544 C   0  0  0  0  0  0  0  0  0  0  0  0
   25.7302  -20.0794  -10.5437 C   0  0  2  0  0  0  0  0  0  0  0  0
   26.8873  -20.8407  -11.0731 N   0  0  0  0  0  0  0  0  0  0  0  0
   25.2585  -20.7900   -9.3283 C   0  0  0  0  0  0  0  0  0  0  0  0
   25.5265  -22.1580   -9.1437 O   0  0  0  0  0  0  0  0  0  0  0  0
   24.6049  -20.2354   -8.4043 O   0  0  0  0  0  0  0  0  0  0  0  0
  2  1  1  0
  3  2  1  0
  4  3  2  0
  6  5  1  0
  7  8  1  0
  7  6  1  1
  8  3  1  0
  9  7  1  0
 10  9  2  0
 12 14  1  0
 12 11  1  0
 13 12  2  0
 15 14  1  0
 16 15  1  6
 16 17  1  0
 17  9  1  0
 18 19  1  0
 18 16  1  0
 20 18  2  0
M  END
$$$$
