GSQ.pdb
     RDKit          3D

 20 19  0  0  1  0  0  0  0  0999 V2000
   19.8047  -12.7630  -17.4535 N   0  0  0  0  0  0  0  0  0  0  0  0
   20.9085  -12.1197  -16.8121 C   0  0  0  0  0  0  0  0  0  0  0  0
   20.5551  -10.6963  -16.4898 C   0  0  0  0  0  0  0  0  0  0  0  0
   20.9964   -9.7429  -17.1815 O   0  0  0  0  0  0  0  0  0  0  0  0
   17.1435   -9.7268  -14.4642 O   0  0  0  0  0  0  0  0  0  0  0  0
   18.2337   -9.0003  -14.0237 C   0  0  0  0  0  0  0  0  0  0  0  0
   19.2953   -8.9999  -15.0865 C   0  0  2  0  0  0  0  0  0  0  0  0
   19.7140  -10.3659  -15.3987 N   0  0  0  0  0  0  0  0  0  0  0  0
   20.4376   -8.1896  -14.6551 C   0  0  0  0  0  0  0  0  0  0  0  0
   21.3443   -8.6545  -13.8824 O   0  0  0  0  0  0  0  0  0  0  0  0
   22.9129   -3.7983  -17.9448 N   0  0  0  0  0  0  0  0  0  0  0  0
   23.6355   -3.5315  -16.7502 C   0  0  0  0  0  0  0  0  0  0  0  0
   24.4919   -2.6336  -16.7655 O   0  0  0  0  0  0  0  0  0  0  0  0
   23.3231   -4.3480  -15.5420 C   0  0  0  0  0  0  0  0  0  0  0  0
   22.1862   -5.2642  -15.8543 C   0  0  0  0  0  0  0  0  0  0  0  0
   21.8394   -6.1064  -14.6701 C   0  0  2  0  0  0  0  0  0  0  0  0
   20.6172   -6.8494  -15.0611 N   0  0  0  0  0  0  0  0  0  0  0  0
   21.5045   -5.3231  -13.4540 C   0  0  0  0  0  0  0  0  0  0  0  0
   22.5080   -4.9311  -12.5504 O   0  0  0  0  0  0  0  0  0  0  0  0
   20.3339   -4.9648  -13.1542 O   0  0  0  0  0  0  0  0  0  0  0  0
  2  1  1  0
  3  2  1  0
  4  3  2  0
  6  5  1  0
  7  8  1  0
  7  6  1  1
  8  3  1  0
  9  7  1  0
 10  9  2  0
 12 14  1  0
 12 11  1  0
 13 12  2  0
 15 14  1  0
 16 15  1  6
 16 17  1  0
 17  9  1  0
 18 19  1  0
 18 16  1  0
 20 18  2  0
M  END
$$$$
