GSQ.pdb
     RDKit          3D

 20 19  0  0  1  0  0  0  0  0999 V2000
   24.1101  -18.3166  -16.7786 N   0  0  0  0  0  0  0  0  0  0  0  0
   23.1746  -19.2655  -17.2966 C   0  0  0  0  0  0  0  0  0  0  0  0
   22.1585  -19.6092  -16.2457 C   0  0  0  0  0  0  0  0  0  0  0  0
   22.1085  -20.7596  -15.7395 O   0  0  0  0  0  0  0  0  0  0  0  0
   19.8724  -17.5703  -12.8319 O   0  0  0  0  0  0  0  0  0  0  0  0
   19.6604  -17.6529  -14.1952 C   0  0  0  0  0  0  0  0  0  0  0  0
   20.2523  -18.9318  -14.7155 C   0  0  2  0  0  0  0  0  0  0  0  0
   21.2166  -18.6586  -15.7805 N   0  0  0  0  0  0  0  0  0  0  0  0
   19.1886  -19.8210  -15.1902 C   0  0  0  0  0  0  0  0  0  0  0  0
   18.8053  -19.8274  -16.4102 O   0  0  0  0  0  0  0  0  0  0  0  0
   15.6145  -26.1023  -14.0630 N   0  0  0  0  0  0  0  0  0  0  0  0
   16.4997  -25.0364  -13.7456 C   0  0  0  0  0  0  0  0  0  0  0  0
   17.3051  -25.1942  -12.8149 O   0  0  0  0  0  0  0  0  0  0  0  0
   16.4106  -23.7846  -14.5513 C   0  0  0  0  0  0  0  0  0  0  0  0
   17.4639  -22.8324  -14.0892 C   0  0  0  0  0  0  0  0  0  0  0  0
   17.4016  -21.5537  -14.8592 C   0  0  2  0  0  0  0  0  0  0  0  0
   18.5188  -20.7281  -14.3405 N   0  0  0  0  0  0  0  0  0  0  0  0
   16.1511  -20.7830  -14.6425 C   0  0  0  0  0  0  0  0  0  0  0  0
   16.0009  -19.9552  -13.5158 O   0  0  0  0  0  0  0  0  0  0  0  0
   15.1659  -20.8147  -15.4280 O   0  0  0  0  0  0  0  0  0  0  0  0
  2  1  1  0
  3  2  1  0
  4  3  2  0
  6  5  1  0
  7  8  1  0
  7  6  1  6
  8  3  1  0
  9  7  1  0
 10  9  2  0
 12 14  1  0
 12 11  1  0
 13 12  2  0
 15 14  1  0
 16 15  1  1
 16 17  1  0
 17  9  1  0
 18 19  1  0
 18 16  1  0
 20 18  2  0
M  END
$$$$
