GSQ.pdb
     RDKit          3D

 20 19  0  0  1  0  0  0  0  0999 V2000
   18.9074  -12.0409  -18.1179 N   0  0  0  0  0  0  0  0  0  0  0  0
   20.1052  -11.2837  -18.3070 C   0  0  0  0  0  0  0  0  0  0  0  0
   20.3978  -10.4723  -17.0777 C   0  0  0  0  0  0  0  0  0  0  0  0
   19.4702   -9.9694  -16.3931 O   0  0  0  0  0  0  0  0  0  0  0  0
   23.2835  -11.1734  -14.4299 O   0  0  0  0  0  0  0  0  0  0  0  0
   23.3762   -9.8706  -14.8820 C   0  0  0  0  0  0  0  0  0  0  0  0
   22.0536   -9.4456  -15.4535 C   0  0  2  0  0  0  0  0  0  0  0  0
   21.7239  -10.2386  -16.6372 N   0  0  0  0  0  0  0  0  0  0  0  0
   22.0811   -8.0159  -15.7743 C   0  0  0  0  0  0  0  0  0  0  0  0
   22.6281   -7.5717  -16.8414 O   0  0  0  0  0  0  0  0  0  0  0  0
   17.5515   -4.3990  -15.4331 N   0  0  0  0  0  0  0  0  0  0  0  0
   18.5024   -3.3866  -15.7352 C   0  0  0  0  0  0  0  0  0  0  0  0
   18.0883   -2.2486  -16.0059 O   0  0  0  0  0  0  0  0  0  0  0  0
   19.9486   -3.7499  -15.7097 C   0  0  0  0  0  0  0  0  0  0  0  0
   20.0812   -5.1961  -15.3623 C   0  0  0  0  0  0  0  0  0  0  0  0
   21.5167   -5.6087  -15.3364 C   0  0  2  0  0  0  0  0  0  0  0  0
   21.5078   -7.0361  -14.9349 N   0  0  0  0  0  0  0  0  0  0  0  0
   22.3333   -4.8778  -14.3346 C   0  0  0  0  0  0  0  0  0  0  0  0
   22.8860   -3.6202  -14.6345 O   0  0  0  0  0  0  0  0  0  0  0  0
   22.5815   -5.3185  -13.1801 O   0  0  0  0  0  0  0  0  0  0  0  0
  2  1  1  0
  3  2  1  0
  4  3  2  0
  6  5  1  0
  7  8  1  0
  7  6  1  6
  8  3  1  0
  9  7  1  0
 10  9  2  0
 12 14  1  0
 12 11  1  0
 13 12  2  0
 15 14  1  0
 16 15  1  1
 16 17  1  0
 17  9  1  0
 18 19  1  0
 18 16  1  0
 20 18  2  0
M  END
$$$$
