GSQ.pdb
     RDKit          3D

 20 19  0  0  1  0  0  0  0  0999 V2000
   29.1866   -9.9012  -17.4942 N   0  0  0  0  0  0  0  0  0  0  0  0
   28.1909  -10.9038  -17.2777 C   0  0  0  0  0  0  0  0  0  0  0  0
   26.8216  -10.2944  -17.3700 C   0  0  0  0  0  0  0  0  0  0  0  0
   26.6672   -9.0801  -17.6593 O   0  0  0  0  0  0  0  0  0  0  0  0
   23.5373  -12.4993  -18.4816 O   0  0  0  0  0  0  0  0  0  0  0  0
   23.3073  -11.6849  -17.3888 C   0  0  0  0  0  0  0  0  0  0  0  0
   24.2987  -10.5564  -17.3901 C   0  0  2  0  0  0  0  0  0  0  0  0
   25.6497  -11.0556  -17.1368 N   0  0  0  0  0  0  0  0  0  0  0  0
   23.9180   -9.5521  -16.3930 C   0  0  0  0  0  0  0  0  0  0  0  0
   24.2454   -9.6623  -15.1617 O   0  0  0  0  0  0  0  0  0  0  0  0
   23.7990   -3.7065  -17.3797 N   0  0  0  0  0  0  0  0  0  0  0  0
   23.2756   -3.6517  -16.0593 C   0  0  0  0  0  0  0  0  0  0  0  0
   23.1270   -2.5401  -15.5281 O   0  0  0  0  0  0  0  0  0  0  0  0
   22.9334   -4.9368  -15.3843 C   0  0  0  0  0  0  0  0  0  0  0  0
   23.2006   -6.0662  -16.3239 C   0  0  0  0  0  0  0  0  0  0  0  0
   22.8798   -7.3781  -15.6853 C   0  0  2  0  0  0  0  0  0  0  0  0
   23.1704   -8.3999  -16.7198 N   0  0  0  0  0  0  0  0  0  0  0  0
   21.4512   -7.5297  -15.3103 C   0  0  0  0  0  0  0  0  0  0  0  0
   20.9654   -7.0097  -14.0975 O   0  0  0  0  0  0  0  0  0  0  0  0
   20.5986   -8.1166  -16.0295 O   0  0  0  0  0  0  0  0  0  0  0  0
  2  1  1  0
  3  2  1  0
  4  3  2  0
  6  5  1  0
  7  8  1  0
  7  6  1  1
  8  3  1  0
  9  7  1  0
 10  9  2  0
 12 14  1  0
 12 11  1  0
 13 12  2  0
 15 14  1  0
 16 15  1  6
 16 17  1  0
 17  9  1  0
 18 19  1  0
 18 16  1  0
 20 18  2  0
M  END
$$$$
