GSQ.pdb
     RDKit          3D

 20 19  0  0  1  0  0  0  0  0999 V2000
   15.6724  -13.9286  -14.3655 N   0  0  0  0  0  0  0  0  0  0  0  0
   15.5427  -12.5604  -14.7592 C   0  0  0  0  0  0  0  0  0  0  0  0
   16.3889  -11.6905  -13.8748 C   0  0  0  0  0  0  0  0  0  0  0  0
   16.9046  -12.1404  -12.8195 O   0  0  0  0  0  0  0  0  0  0  0  0
   19.5076   -8.2670  -13.2948 O   0  0  0  0  0  0  0  0  0  0  0  0
   18.7056   -9.0340  -14.1187 C   0  0  0  0  0  0  0  0  0  0  0  0
   17.4761   -9.4560  -13.3659 C   0  0  2  0  0  0  0  0  0  0  0  0
   16.6426  -10.3323  -14.1881 N   0  0  0  0  0  0  0  0  0  0  0  0
   16.7231   -8.2760  -12.9320 C   0  0  0  0  0  0  0  0  0  0  0  0
   15.9626   -7.6270  -13.7294 O   0  0  0  0  0  0  0  0  0  0  0  0
   15.2472   -7.0499   -7.1793 N   0  0  0  0  0  0  0  0  0  0  0  0
   14.2217   -7.5165   -8.0459 C   0  0  0  0  0  0  0  0  0  0  0  0
   13.2149   -8.0389   -7.5427 O   0  0  0  0  0  0  0  0  0  0  0  0
   14.4138   -7.3515   -9.5156 C   0  0  0  0  0  0  0  0  0  0  0  0
   15.7447   -6.7221   -9.7649 C   0  0  0  0  0  0  0  0  0  0  0  0
   16.0001   -6.5776  -11.2297 C   0  0  2  0  0  0  0  0  0  0  0  0
   16.7822   -7.7778  -11.6123 N   0  0  0  0  0  0  0  0  0  0  0  0
   16.8200   -5.3909  -11.5818 C   0  0  0  0  0  0  0  0  0  0  0  0
   16.2254   -4.1275  -11.7477 O   0  0  0  0  0  0  0  0  0  0  0  0
   18.0683   -5.4298  -11.7517 O   0  0  0  0  0  0  0  0  0  0  0  0
  2  1  1  0
  3  2  1  0
  4  3  2  0
  6  5  1  0
  7  8  1  0
  7  6  1  6
  8  3  1  0
  9  7  1  0
 10  9  2  0
 12 14  1  0
 12 11  1  0
 13 12  2  0
 15 14  1  0
 16 15  1  1
 16 17  1  0
 17  9  1  0
 18 19  1  0
 18 16  1  0
 20 18  2  0
M  END
$$$$
