GSQ.pdb
     RDKit          3D

 20 19  0  0  1  0  0  0  0  0999 V2000
   24.7902  -24.7577  -15.1719 N   0  0  0  0  0  0  0  0  0  0  0  0
   23.9353  -23.7104  -15.6364 C   0  0  0  0  0  0  0  0  0  0  0  0
   23.1638  -23.1306  -14.4858 C   0  0  0  0  0  0  0  0  0  0  0  0
   23.2535  -23.6181  -13.3298 O   0  0  0  0  0  0  0  0  0  0  0  0
   20.5411  -19.4138  -12.8140 O   0  0  0  0  0  0  0  0  0  0  0  0
   21.1220  -20.0143  -13.9150 C   0  0  0  0  0  0  0  0  0  0  0  0
   21.5521  -21.4076  -13.5544 C   0  0  2  0  0  0  0  0  0  0  0  0
   22.3057  -22.0154  -14.6504 N   0  0  0  0  0  0  0  0  0  0  0  0
   20.3825  -22.2213  -13.2111 C   0  0  0  0  0  0  0  0  0  0  0  0
   19.6847  -22.8145  -14.1035 O   0  0  0  0  0  0  0  0  0  0  0  0
   18.9529  -24.0529   -7.5125 N   0  0  0  0  0  0  0  0  0  0  0  0
   17.8896  -24.6912   -8.2070 C   0  0  0  0  0  0  0  0  0  0  0  0
   17.0840  -25.3742   -7.5556 O   0  0  0  0  0  0  0  0  0  0  0  0
   17.8014  -24.5036   -9.6839 C   0  0  0  0  0  0  0  0  0  0  0  0
   18.9371  -23.6450  -10.1342 C   0  0  0  0  0  0  0  0  0  0  0  0
   18.8094  -23.3095  -11.5843 C   0  0  2  0  0  0  0  0  0  0  0  0
   19.9487  -22.4078  -11.8806 N   0  0  0  0  0  0  0  0  0  0  0  0
   17.5671  -22.5698  -11.9221 C   0  0  0  0  0  0  0  0  0  0  0  0
   16.4520  -23.2398  -12.4559 O   0  0  0  0  0  0  0  0  0  0  0  0
   17.4276  -21.3277  -11.7598 O   0  0  0  0  0  0  0  0  0  0  0  0
  2  1  1  0
  3  2  1  0
  4  3  2  0
  6  5  1  0
  7  8  1  0
  7  6  1  6
  8  3  1  0
  9  7  1  0
 10  9  2  0
 12 14  1  0
 12 11  1  0
 13 12  2  0
 15 14  1  0
 16 15  1  1
 16 17  1  0
 17  9  1  0
 18 19  1  0
 18 16  1  0
 20 18  2  0
M  END
$$$$
