EGG.pdb
     RDKit          3D

 18 17  0  0  1  0  0  0  0  0999 V2000
   18.3644  -11.4950  -17.0473 N   0  0  0  0  0  0  0  0  0  0  0  0
   17.9911  -11.1536  -15.6644 C   0  0  1  0  0  0  0  0  0  0  0  0
   17.6914  -12.4446  -14.9812 C   0  0  0  0  0  0  0  0  0  0  0  0
   16.3979  -13.0899  -15.3729 C   0  0  0  0  0  0  0  0  0  0  0  0
   16.1321  -14.3553  -14.6478 C   0  0  0  0  0  0  0  0  0  0  0  0
   16.9273  -14.9327  -13.8835 O   0  0  0  0  0  0  0  0  0  0  0  0
   19.1171  -10.4127  -15.0599 C   0  0  0  0  0  0  0  0  0  0  0  0
   18.9982   -9.9520  -13.8950 O   0  0  0  0  0  0  0  0  0  0  0  0
   14.8889  -14.9425  -14.8408 O   0  0  0  0  0  0  0  0  0  0  0  0
   20.3485  -10.1859  -15.7290 N   0  0  0  0  0  0  0  0  0  0  0  0
   21.4884   -9.5612  -15.1369 C   0  0  0  0  0  0  0  0  0  0  0  0
   21.5575   -8.1054  -15.3896 C   0  0  0  0  0  0  0  0  0  0  0  0
   22.4748   -7.3740  -14.9819 O   0  0  0  0  0  0  0  0  0  0  0  0
   20.5036   -7.5207  -16.1464 N   0  0  0  0  0  0  0  0  0  0  0  0
   20.6167   -6.1741  -16.6616 C   0  0  0  0  0  0  0  0  0  0  0  0
   20.1767   -5.2041  -15.6407 C   0  0  0  0  0  0  0  0  0  0  0  0
   20.0701   -3.8528  -15.9399 O   0  0  0  0  0  0  0  0  0  0  0  0
   19.8894   -5.5831  -14.4783 O   0  0  0  0  0  0  0  0  0  0  0  0
  2  1  1  6
  3  2  1  0
  4  3  1  0
  5  4  1  0
  5  6  2  0
  7  8  2  0
  7  2  1  0
  9  5  1  0
 10  7  1  0
 11 10  1  0
 12 11  1  0
 13 12  2  0
 14 12  1  0
 15 14  1  0
 16 15  1  0
 17 16  1  0
 18 16  2  0
M  END
$$$$
