EGG.pdb
     RDKit          3D

 18 17  0  0  1  0  0  0  0  0999 V2000
   18.3175  -11.5315  -17.8601 N   0  0  0  0  0  0  0  0  0  0  0  0
   18.4787  -10.4752  -16.8468 C   0  0  1  0  0  0  0  0  0  0  0  0
   17.9470  -11.0350  -15.5712 C   0  0  0  0  0  0  0  0  0  0  0  0
   16.8769  -12.0714  -15.7247 C   0  0  0  0  0  0  0  0  0  0  0  0
   16.2941  -12.5068  -14.4331 C   0  0  0  0  0  0  0  0  0  0  0  0
   16.6168  -12.0749  -13.3109 O   0  0  0  0  0  0  0  0  0  0  0  0
   19.9114  -10.1205  -16.7847 C   0  0  0  0  0  0  0  0  0  0  0  0
   20.7675  -10.9320  -17.2227 O   0  0  0  0  0  0  0  0  0  0  0  0
   15.3046  -13.4792  -14.4845 O   0  0  0  0  0  0  0  0  0  0  0  0
   20.3875   -8.8947  -16.2496 N   0  0  0  0  0  0  0  0  0  0  0  0
   21.7652   -8.5254  -16.1742 C   0  0  0  0  0  0  0  0  0  0  0  0
   21.9849   -7.2019  -15.5511 C   0  0  0  0  0  0  0  0  0  0  0  0
   23.1026   -6.6782  -15.4125 O   0  0  0  0  0  0  0  0  0  0  0  0
   20.8388   -6.4974  -15.0872 N   0  0  0  0  0  0  0  0  0  0  0  0
   20.9674   -5.2042  -14.4526 C   0  0  0  0  0  0  0  0  0  0  0  0
   21.5646   -5.3567  -13.1121 C   0  0  0  0  0  0  0  0  0  0  0  0
   22.1802   -4.2852  -12.4796 O   0  0  0  0  0  0  0  0  0  0  0  0
   21.5275   -6.4614  -12.5158 O   0  0  0  0  0  0  0  0  0  0  0  0
  2  1  1  6
  3  2  1  0
  4  3  1  0
  5  4  1  0
  5  6  2  0
  7  8  2  0
  7  2  1  0
  9  5  1  0
 10  7  1  0
 11 10  1  0
 12 11  1  0
 13 12  2  0
 14 12  1  0
 15 14  1  0
 16 15  1  0
 17 16  1  0
 18 16  2  0
M  END
$$$$
