EGG.pdb
     RDKit          3D

 18 17  0  0  1  0  0  0  0  0999 V2000
   14.6172  -20.9313    1.2295 N   0  0  0  0  0  0  0  0  0  0  0  0
   14.8835  -21.5924    2.5181 C   0  0  1  0  0  0  0  0  0  0  0  0
   15.5530  -22.8848    2.1946 C   0  0  0  0  0  0  0  0  0  0  0  0
   14.7794  -23.7976    1.2938 C   0  0  0  0  0  0  0  0  0  0  0  0
   15.4566  -25.0941    1.0531 C   0  0  0  0  0  0  0  0  0  0  0  0
   16.1268  -25.3848    0.0450 O   0  0  0  0  0  0  0  0  0  0  0  0
   15.7163  -20.6829    3.3314 C   0  0  0  0  0  0  0  0  0  0  0  0
   16.0879  -19.5843    2.8431 O   0  0  0  0  0  0  0  0  0  0  0  0
   15.3296  -26.0636    2.0388 O   0  0  0  0  0  0  0  0  0  0  0  0
   16.1294  -20.9815    4.6564 N   0  0  0  0  0  0  0  0  0  0  0  0
   16.8274  -20.0740    5.5105 C   0  0  0  0  0  0  0  0  0  0  0  0
   18.2954  -20.1119    5.3330 C   0  0  0  0  0  0  0  0  0  0  0  0
   18.8656  -20.6987    4.3986 O   0  0  0  0  0  0  0  0  0  0  0  0
   19.0901  -19.4314    6.2977 N   0  0  0  0  0  0  0  0  0  0  0  0
   20.5338  -19.4435    6.2136 C   0  0  0  0  0  0  0  0  0  0  0  0
   21.1088  -18.5998    7.2787 C   0  0  0  0  0  0  0  0  0  0  0  0
   22.4835  -18.4905    7.4380 O   0  0  0  0  0  0  0  0  0  0  0  0
   20.3639  -17.9626    8.0638 O   0  0  0  0  0  0  0  0  0  0  0  0
  2  1  1  6
  3  2  1  0
  4  3  1  0
  5  4  1  0
  5  6  2  0
  7  8  2  0
  7  2  1  0
  9  5  1  0
 10  7  1  0
 11 10  1  0
 12 11  1  0
 13 12  2  0
 14 12  1  0
 15 14  1  0
 16 15  1  0
 17 16  1  0
 18 16  2  0
M  END
$$$$
