EGG.pdb
     RDKit          3D

 18 17  0  0  1  0  0  0  0  0999 V2000
   17.8741  -12.9005  -17.4464 N   0  0  0  0  0  0  0  0  0  0  0  0
   16.8192  -12.1634  -16.7306 C   0  0  1  0  0  0  0  0  0  0  0  0
   16.4386  -13.0076  -15.5620 C   0  0  0  0  0  0  0  0  0  0  0  0
   16.1107  -14.4333  -15.8831 C   0  0  0  0  0  0  0  0  0  0  0  0
   17.1141  -15.3950  -15.3675 C   0  0  0  0  0  0  0  0  0  0  0  0
   17.4627  -15.5096  -14.1778 O   0  0  0  0  0  0  0  0  0  0  0  0
   17.3640  -10.8432  -16.3533 C   0  0  0  0  0  0  0  0  0  0  0  0
   18.6051  -10.6462  -16.4186 O   0  0  0  0  0  0  0  0  0  0  0  0
   17.7133  -16.2374  -16.2942 O   0  0  0  0  0  0  0  0  0  0  0  0
   16.5540   -9.7635  -15.9130 N   0  0  0  0  0  0  0  0  0  0  0  0
   17.0497   -8.4716  -15.5590 C   0  0  0  0  0  0  0  0  0  0  0  0
   18.0931   -8.5099  -14.5112 C   0  0  0  0  0  0  0  0  0  0  0  0
   17.8811   -8.8441  -13.3339 O   0  0  0  0  0  0  0  0  0  0  0  0
   19.4144   -8.1393  -14.8881 N   0  0  0  0  0  0  0  0  0  0  0  0
   20.4932   -8.1515  -13.9250 C   0  0  0  0  0  0  0  0  0  0  0  0
   21.7673   -7.8177  -14.5897 C   0  0  0  0  0  0  0  0  0  0  0  0
   22.9286   -7.6303  -13.8525 O   0  0  0  0  0  0  0  0  0  0  0  0
   21.8263   -7.6963  -15.8383 O   0  0  0  0  0  0  0  0  0  0  0  0
  2  1  1  1
  3  2  1  0
  4  3  1  0
  5  4  1  0
  5  6  2  0
  7  8  2  0
  7  2  1  0
  9  5  1  0
 10  7  1  0
 11 10  1  0
 12 11  1  0
 13 12  2  0
 14 12  1  0
 15 14  1  0
 16 15  1  0
 17 16  1  0
 18 16  2  0
M  END
$$$$
