EGG.pdb
     RDKit          3D

 18 17  0  0  1  0  0  0  0  0999 V2000
   25.2576  -21.0938  -10.5789 N   0  0  0  0  0  0  0  0  0  0  0  0
   25.8887  -20.3968  -11.7122 C   0  0  1  0  0  0  0  0  0  0  0  0
   27.2474  -20.9916  -11.8647 C   0  0  0  0  0  0  0  0  0  0  0  0
   28.1078  -20.9429  -10.6398 C   0  0  0  0  0  0  0  0  0  0  0  0
   29.4260  -21.5955  -10.8242 C   0  0  0  0  0  0  0  0  0  0  0  0
   29.7987  -22.1984  -11.8477 O   0  0  0  0  0  0  0  0  0  0  0  0
   25.0259  -20.5826  -12.8968 C   0  0  0  0  0  0  0  0  0  0  0  0
   25.4491  -20.2336  -14.0292 O   0  0  0  0  0  0  0  0  0  0  0  0
   30.3174  -21.5257   -9.7621 O   0  0  0  0  0  0  0  0  0  0  0  0
   23.7230  -21.1426  -12.8309 N   0  0  0  0  0  0  0  0  0  0  0  0
   23.0153  -21.6795  -13.9494 C   0  0  0  0  0  0  0  0  0  0  0  0
   21.5675  -21.3769  -13.9283 C   0  0  0  0  0  0  0  0  0  0  0  0
   20.7635  -21.8912  -13.1335 O   0  0  0  0  0  0  0  0  0  0  0  0
   21.0799  -20.4389  -14.8809 N   0  0  0  0  0  0  0  0  0  0  0  0
   19.6599  -20.2582  -15.0869 C   0  0  0  0  0  0  0  0  0  0  0  0
   19.3412  -18.8204  -15.1750 C   0  0  0  0  0  0  0  0  0  0  0  0
   18.7707  -18.2853  -16.3219 O   0  0  0  0  0  0  0  0  0  0  0  0
   19.5805  -18.0507  -14.2118 O   0  0  0  0  0  0  0  0  0  0  0  0
  2  1  1  1
  3  2  1  0
  4  3  1  0
  5  4  1  0
  5  6  2  0
  7  8  2  0
  7  2  1  0
  9  5  1  0
 10  7  1  0
 11 10  1  0
 12 11  1  0
 13 12  2  0
 14 12  1  0
 15 14  1  0
 16 15  1  0
 17 16  1  0
 18 16  2  0
M  END
$$$$
