EGG.pdb
     RDKit          3D

 18 17  0  0  1  0  0  0  0  0999 V2000
   20.1441  -13.1518  -17.5201 N   0  0  0  0  0  0  0  0  0  0  0  0
   19.1949  -12.3080  -16.7748 C   0  0  1  0  0  0  0  0  0  0  0  0
   18.2596  -13.2409  -16.0835 C   0  0  0  0  0  0  0  0  0  0  0  0
   17.7246  -14.3541  -16.9307 C   0  0  0  0  0  0  0  0  0  0  0  0
   16.8311  -15.2760  -16.1897 C   0  0  0  0  0  0  0  0  0  0  0  0
   17.1964  -16.1190  -15.3495 O   0  0  0  0  0  0  0  0  0  0  0  0
   19.9725  -11.4580  -15.8501 C   0  0  0  0  0  0  0  0  0  0  0  0
   21.1301  -11.8149  -15.5096 O   0  0  0  0  0  0  0  0  0  0  0  0
   15.4720  -15.1881  -16.4592 O   0  0  0  0  0  0  0  0  0  0  0  0
   19.4807  -10.2392  -15.3131 N   0  0  0  0  0  0  0  0  0  0  0  0
   20.2317   -9.3652  -14.4691 C   0  0  0  0  0  0  0  0  0  0  0  0
   20.8207   -8.2157  -15.1899 C   0  0  0  0  0  0  0  0  0  0  0  0
   20.8413   -8.1104  -16.4273 O   0  0  0  0  0  0  0  0  0  0  0  0
   21.3946   -7.1752  -14.4068 N   0  0  0  0  0  0  0  0  0  0  0  0
   21.7659   -5.9124  -15.0058 C   0  0  0  0  0  0  0  0  0  0  0  0
   22.4576   -5.0670  -14.0140 C   0  0  0  0  0  0  0  0  0  0  0  0
   22.8194   -3.7617  -14.3180 O   0  0  0  0  0  0  0  0  0  0  0  0
   22.7332   -5.5129  -12.8727 O   0  0  0  0  0  0  0  0  0  0  0  0
  2  1  1  1
  3  2  1  0
  4  3  1  0
  5  4  1  0
  5  6  2  0
  7  8  2  0
  7  2  1  0
  9  5  1  0
 10  7  1  0
 11 10  1  0
 12 11  1  0
 13 12  2  0
 14 12  1  0
 15 14  1  0
 16 15  1  0
 17 16  1  0
 18 16  2  0
M  END
$$$$
