EGG.pdb
     RDKit          3D

 18 17  0  0  1  0  0  0  0  0999 V2000
   26.1992  -20.4961  -15.6857 N   0  0  0  0  0  0  0  0  0  0  0  0
   27.5220  -19.8602  -15.5658 C   0  0  1  0  0  0  0  0  0  0  0  0
   28.4103  -20.5560  -16.5404 C   0  0  0  0  0  0  0  0  0  0  0  0
   28.7443  -21.9759  -16.2003 C   0  0  0  0  0  0  0  0  0  0  0  0
   27.7264  -22.9453  -16.6710 C   0  0  0  0  0  0  0  0  0  0  0  0
   27.7620  -24.1768  -16.4918 O   0  0  0  0  0  0  0  0  0  0  0  0
   27.3589  -18.4179  -15.8403 C   0  0  0  0  0  0  0  0  0  0  0  0
   28.3377  -17.6442  -15.6771 O   0  0  0  0  0  0  0  0  0  0  0  0
   26.6431  -22.4313  -17.3707 O   0  0  0  0  0  0  0  0  0  0  0  0
   26.1396  -17.8431  -16.2857 N   0  0  0  0  0  0  0  0  0  0  0  0
   25.3161  -16.9811  -15.4989 C   0  0  0  0  0  0  0  0  0  0  0  0
   23.9394  -17.4904  -15.3160 C   0  0  0  0  0  0  0  0  0  0  0  0
   23.0433  -16.8678  -14.7229 O   0  0  0  0  0  0  0  0  0  0  0  0
   23.6372  -18.7715  -15.8569 N   0  0  0  0  0  0  0  0  0  0  0  0
   22.3062  -19.3274  -15.7526 C   0  0  0  0  0  0  0  0  0  0  0  0
   22.2282  -20.2373  -14.5938 C   0  0  0  0  0  0  0  0  0  0  0  0
   22.2596  -21.6145  -14.7652 O   0  0  0  0  0  0  0  0  0  0  0  0
   22.1317  -19.7825  -13.4272 O   0  0  0  0  0  0  0  0  0  0  0  0
  2  1  1  6
  3  2  1  0
  4  3  1  0
  5  4  1  0
  5  6  2  0
  7  8  2  0
  7  2  1  0
  9  5  1  0
 10  7  1  0
 11 10  1  0
 12 11  1  0
 13 12  2  0
 14 12  1  0
 15 14  1  0
 16 15  1  0
 17 16  1  0
 18 16  2  0
M  END
$$$$
