EGG.pdb
     RDKit          3D

 18 17  0  0  1  0  0  0  0  0999 V2000
   17.9894  -12.0398  -16.4499 N   0  0  0  0  0  0  0  0  0  0  0  0
   16.7129  -11.3392  -16.2309 C   0  0  1  0  0  0  0  0  0  0  0  0
   15.9366  -12.1750  -15.2708 C   0  0  0  0  0  0  0  0  0  0  0  0
   15.6534  -13.5739  -15.7247 C   0  0  0  0  0  0  0  0  0  0  0  0
   16.5789  -14.5761  -15.1445 C   0  0  0  0  0  0  0  0  0  0  0  0
   17.3864  -15.2731  -15.7865 O   0  0  0  0  0  0  0  0  0  0  0  0
   17.0189   -9.9861  -15.7231 C   0  0  0  0  0  0  0  0  0  0  0  0
   16.0741   -9.2001  -15.4531 O   0  0  0  0  0  0  0  0  0  0  0  0
   16.5378  -14.7484  -13.7675 O   0  0  0  0  0  0  0  0  0  0  0  0
   18.3413   -9.5121  -15.5181 N   0  0  0  0  0  0  0  0  0  0  0  0
   18.6679   -8.2663  -14.9004 C   0  0  0  0  0  0  0  0  0  0  0  0
   20.1236   -8.0432  -14.7624 C   0  0  0  0  0  0  0  0  0  0  0  0
   20.9868   -8.8680  -15.1050 O   0  0  0  0  0  0  0  0  0  0  0  0
   20.5469   -6.8053  -14.2022 N   0  0  0  0  0  0  0  0  0  0  0  0
   21.9519   -6.4820  -14.0895 C   0  0  0  0  0  0  0  0  0  0  0  0
   22.1145   -5.1101  -13.5719 C   0  0  0  0  0  0  0  0  0  0  0  0
   23.3744   -4.5968  -13.2953 O   0  0  0  0  0  0  0  0  0  0  0  0
   21.1140   -4.3781  -13.3709 O   0  0  0  0  0  0  0  0  0  0  0  0
  2  1  1  1
  3  2  1  0
  4  3  1  0
  5  4  1  0
  5  6  2  0
  7  8  2  0
  7  2  1  0
  9  5  1  0
 10  7  1  0
 11 10  1  0
 12 11  1  0
 13 12  2  0
 14 12  1  0
 15 14  1  0
 16 15  1  0
 17 16  1  0
 18 16  2  0
M  END
$$$$
