EGG.pdb
     RDKit          3D

 18 17  0  0  1  0  0  0  0  0999 V2000
   21.2100   -7.2952  -12.6355 N   0  0  0  0  0  0  0  0  0  0  0  0
   20.7598   -7.3570  -14.0361 C   0  0  1  0  0  0  0  0  0  0  0  0
   21.5639   -6.3446  -14.7789 C   0  0  0  0  0  0  0  0  0  0  0  0
   21.3430   -4.9228  -14.3634 C   0  0  0  0  0  0  0  0  0  0  0  0
   22.1684   -3.9555  -15.1253 C   0  0  0  0  0  0  0  0  0  0  0  0
   23.0767   -4.2501  -15.9242 O   0  0  0  0  0  0  0  0  0  0  0  0
   20.9603   -8.7393  -14.5170 C   0  0  0  0  0  0  0  0  0  0  0  0
   22.0605   -9.3124  -14.3061 O   0  0  0  0  0  0  0  0  0  0  0  0
   21.9021   -2.6073  -14.9277 O   0  0  0  0  0  0  0  0  0  0  0  0
   19.9657   -9.4724  -15.2161 N   0  0  0  0  0  0  0  0  0  0  0  0
   20.1634  -10.7694  -15.7808 C   0  0  0  0  0  0  0  0  0  0  0  0
   18.9563  -11.3126  -16.4409 C   0  0  0  0  0  0  0  0  0  0  0  0
   18.8469  -11.4646  -17.6688 O   0  0  0  0  0  0  0  0  0  0  0  0
   17.8623  -11.6789  -15.6078 N   0  0  0  0  0  0  0  0  0  0  0  0
   16.6054  -12.1109  -16.1782 C   0  0  0  0  0  0  0  0  0  0  0  0
   15.6184  -12.3446  -15.1067 C   0  0  0  0  0  0  0  0  0  0  0  0
   14.3119  -12.7053  -15.4069 O   0  0  0  0  0  0  0  0  0  0  0  0
   15.9418  -12.2215  -13.8994 O   0  0  0  0  0  0  0  0  0  0  0  0
  2  1  1  1
  3  2  1  0
  4  3  1  0
  5  4  1  0
  5  6  2  0
  7  8  2  0
  7  2  1  0
  9  5  1  0
 10  7  1  0
 11 10  1  0
 12 11  1  0
 13 12  2  0
 14 12  1  0
 15 14  1  0
 16 15  1  0
 17 16  1  0
 18 16  2  0
M  END
$$$$
