GHC.pdb
     RDKit          3D

 21 21  0  0  1  0  0  0  0  0999 V2000
   18.6161   -9.8066  -12.9609 N   0  0  0  0  0  0  0  0  0  0  0  0
   18.5395   -9.5158  -11.5596 C   0  0  0  0  0  0  0  0  0  0  0  0
   17.3872   -8.6490  -11.2946 C   0  0  0  0  0  0  0  0  0  0  0  0
   16.7776   -8.0703  -12.2009 O   0  0  0  0  0  0  0  0  0  0  0  0
   16.9508   -8.4642   -9.9448 N   0  0  0  0  0  0  0  0  0  0  0  0
   15.7272   -7.8029   -9.6136 C   0  0  1  0  0  0  0  0  0  0  0  0
   14.7695   -8.5095   -8.7553 C   0  0  0  0  0  0  0  0  0  0  0  0
   13.9799   -9.5937   -9.3086 C   0  0  0  0  0  0  0  0  0  0  0  0
   13.9577  -10.0606  -10.5877 C   0  0  0  0  0  0  0  0  0  0  0  0
   13.0756  -11.1064  -10.5808 N   0  0  0  0  0  0  0  0  0  0  0  0
   12.5830  -11.2661   -9.3419 C   0  0  0  0  0  0  0  0  0  0  0  0
   13.1274  -10.3423   -8.5370 N   0  0  0  0  0  0  0  0  0  0  0  0
   16.1077   -6.4644   -9.0265 C   0  0  0  0  0  0  0  0  0  0  0  0
   16.9334   -6.3586   -8.0782 O   0  0  0  0  0  0  0  0  0  0  0  0
   15.5583   -5.2463   -9.5076 N   0  0  0  0  0  0  0  0  0  0  0  0
   15.9085   -3.9706   -8.9172 C   0  0  1  0  0  0  0  0  0  0  0  0
   16.3822   -3.0273  -10.0299 C   0  0  0  0  0  0  0  0  0  0  0  0
   16.6095   -1.3930   -9.3070 S   0  0  0  0  0  0  0  0  0  0  0  0
   14.6836   -3.3703   -8.3199 C   0  0  0  0  0  0  0  0  0  0  0  0
   13.5362   -3.7094   -8.7096 O   0  0  0  0  0  0  0  0  0  0  0  0
   14.7446   -2.4158   -7.3131 O   0  0  0  0  0  0  0  0  0  0  0  0
  1  2  1  0
  3  4  2  0
  3  2  1  0
  5  3  1  0
  6 13  1  0
  6  5  1  0
  6  7  1  1
  8  7  1  0
  9  8  2  0
 10 11  1  0
 10  9  1  0
 11 12  2  0
 12  8  1  0
 13 15  1  0
 14 13  2  0
 15 16  1  0
 16 17  1  6
 17 18  1  0
 19 21  1  0
 19 16  1  0
 20 19  2  0
M  END
$$$$
