GHC.pdb
     RDKit          3D

 21 21  0  0  1  0  0  0  0  0999 V2000
   24.1862  -13.9064  -19.5243 N   0  0  0  0  0  0  0  0  0  0  0  0
   23.9956  -12.4950  -19.6848 C   0  0  0  0  0  0  0  0  0  0  0  0
   23.8847  -11.8563  -18.3698 C   0  0  0  0  0  0  0  0  0  0  0  0
   23.7595  -12.5113  -17.3292 O   0  0  0  0  0  0  0  0  0  0  0  0
   23.9221  -10.4287  -18.2839 N   0  0  0  0  0  0  0  0  0  0  0  0
   23.8604   -9.7293  -17.0385 C   0  0  1  0  0  0  0  0  0  0  0  0
   25.0726   -9.0512  -16.5653 C   0  0  0  0  0  0  0  0  0  0  0  0
   26.2954   -9.8129  -16.3928 C   0  0  0  0  0  0  0  0  0  0  0  0
   27.4038   -9.8295  -17.1838 C   0  0  0  0  0  0  0  0  0  0  0  0
   28.2801  -10.6813  -16.5689 N   0  0  0  0  0  0  0  0  0  0  0  0
   27.7216  -11.1619  -15.4463 C   0  0  0  0  0  0  0  0  0  0  0  0
   26.4937  -10.6392  -15.3155 N   0  0  0  0  0  0  0  0  0  0  0  0
   22.6988   -8.7696  -17.1420 C   0  0  0  0  0  0  0  0  0  0  0  0
   22.4424   -8.1395  -18.2048 O   0  0  0  0  0  0  0  0  0  0  0  0
   21.8269   -8.5202  -16.0490 N   0  0  0  0  0  0  0  0  0  0  0  0
   20.7189   -7.5935  -16.1585 C   0  0  1  0  0  0  0  0  0  0  0  0
   19.7058   -7.9052  -15.0500 C   0  0  0  0  0  0  0  0  0  0  0  0
   18.3870   -6.6820  -15.1492 S   0  0  0  0  0  0  0  0  0  0  0  0
   21.2265   -6.2142  -15.9190 C   0  0  0  0  0  0  0  0  0  0  0  0
   20.6741   -5.2161  -16.4501 O   0  0  0  0  0  0  0  0  0  0  0  0
   22.3235   -5.9618  -15.1059 O   0  0  0  0  0  0  0  0  0  0  0  0
  1  2  1  0
  3  4  2  0
  3  2  1  0
  5  3  1  0
  6 13  1  0
  6  5  1  0
  6  7  1  6
  8  7  1  0
  9  8  2  0
 10 11  1  0
 10  9  1  0
 11 12  2  0
 12  8  1  0
 13 15  1  0
 14 13  2  0
 15 16  1  0
 16 17  1  1
 17 18  1  0
 19 21  1  0
 19 16  1  0
 20 19  2  0
M  END
$$$$
