GHC.pdb
     RDKit          3D

 21 21  0  0  1  0  0  0  0  0999 V2000
   14.6635  -12.1383  -13.7567 N   0  0  0  0  0  0  0  0  0  0  0  0
   15.0402  -10.7645  -13.9144 C   0  0  0  0  0  0  0  0  0  0  0  0
   16.4896  -10.6667  -14.1119 C   0  0  0  0  0  0  0  0  0  0  0  0
   17.2690  -11.5343  -13.7028 O   0  0  0  0  0  0  0  0  0  0  0  0
   17.0235   -9.5317  -14.8001 N   0  0  0  0  0  0  0  0  0  0  0  0
   18.4112   -9.4067  -15.1205 C   0  0  1  0  0  0  0  0  0  0  0  0
   18.8224   -9.6276  -16.5116 C   0  0  0  0  0  0  0  0  0  0  0  0
   18.6261  -10.9323  -17.1154 C   0  0  0  0  0  0  0  0  0  0  0  0
   17.5604  -11.3838  -17.8330 C   0  0  0  0  0  0  0  0  0  0  0  0
   17.8815  -12.6616  -18.2014 N   0  0  0  0  0  0  0  0  0  0  0  0
   19.0978  -12.9711  -17.7239 C   0  0  0  0  0  0  0  0  0  0  0  0
   19.5790  -11.9173  -17.0487 N   0  0  0  0  0  0  0  0  0  0  0  0
   18.8446   -8.0460  -14.6289 C   0  0  0  0  0  0  0  0  0  0  0  0
   18.0201   -7.1123  -14.4268 O   0  0  0  0  0  0  0  0  0  0  0  0
   20.2056   -7.7377  -14.3652 N   0  0  0  0  0  0  0  0  0  0  0  0
   20.6031   -6.4481  -13.8385 C   0  0  1  0  0  0  0  0  0  0  0  0
   22.0473   -6.5479  -13.3318 C   0  0  0  0  0  0  0  0  0  0  0  0
   22.5771   -4.8951  -12.8490 S   0  0  0  0  0  0  0  0  0  0  0  0
   20.5915   -5.4562  -14.9492 C   0  0  0  0  0  0  0  0  0  0  0  0
   20.8633   -5.7976  -16.1295 O   0  0  0  0  0  0  0  0  0  0  0  0
   20.2833   -4.1183  -14.7412 O   0  0  0  0  0  0  0  0  0  0  0  0
  1  2  1  0
  3  4  2  0
  3  2  1  0
  5  3  1  0
  6 13  1  0
  6  5  1  0
  6  7  1  6
  8  7  1  0
  9  8  2  0
 10 11  1  0
 10  9  1  0
 11 12  2  0
 12  8  1  0
 13 15  1  0
 14 13  2  0
 15 16  1  0
 16 17  1  6
 17 18  1  0
 19 21  1  0
 19 16  1  0
 20 19  2  0
M  END
$$$$
