GHC.pdb
     RDKit          3D

 21 21  0  0  1  0  0  0  0  0999 V2000
   20.6607  -13.7485  -17.5551 N   0  0  0  0  0  0  0  0  0  0  0  0
   20.4506  -12.4670  -18.1615 C   0  0  0  0  0  0  0  0  0  0  0  0
   20.9778  -11.4127  -17.2898 C   0  0  0  0  0  0  0  0  0  0  0  0
   21.0675  -11.5557  -16.0653 O   0  0  0  0  0  0  0  0  0  0  0  0
   21.4033  -10.1766  -17.8710 N   0  0  0  0  0  0  0  0  0  0  0  0
   22.0385   -9.1456  -17.1112 C   0  0  1  0  0  0  0  0  0  0  0  0
   23.4572   -8.8718  -17.3675 C   0  0  0  0  0  0  0  0  0  0  0  0
   24.4576   -9.3581  -16.4360 C   0  0  0  0  0  0  0  0  0  0  0  0
   24.2735  -10.0477  -15.2761 C   0  0  0  0  0  0  0  0  0  0  0  0
   25.5295  -10.2944  -14.7931 N   0  0  0  0  0  0  0  0  0  0  0  0
   26.4400   -9.7732  -15.6313 C   0  0  0  0  0  0  0  0  0  0  0  0
   25.8015   -9.1889  -16.6554 N   0  0  0  0  0  0  0  0  0  0  0  0
   21.1985   -7.9028  -17.2872 C   0  0  0  0  0  0  0  0  0  0  0  0
   20.6888   -7.5900  -18.3984 O   0  0  0  0  0  0  0  0  0  0  0  0
   20.9331   -7.0135  -16.2122 N   0  0  0  0  0  0  0  0  0  0  0  0
   20.0639   -5.8659  -16.3739 C   0  0  1  0  0  0  0  0  0  0  0  0
   18.9516   -5.9391  -15.3205 C   0  0  0  0  0  0  0  0  0  0  0  0
   18.1060   -4.3486  -15.3008 S   0  0  0  0  0  0  0  0  0  0  0  0
   20.8504   -4.6310  -16.1018 C   0  0  0  0  0  0  0  0  0  0  0  0
   21.7561   -4.6155  -15.2283 O   0  0  0  0  0  0  0  0  0  0  0  0
   20.6269   -3.4463  -16.7909 O   0  0  0  0  0  0  0  0  0  0  0  0
  1  2  1  0
  3  4  2  0
  3  2  1  0
  5  3  1  0
  6 13  1  0
  6  5  1  0
  6  7  1  6
  8  7  1  0
  9  8  2  0
 10 11  1  0
 10  9  1  0
 11 12  2  0
 12  8  1  0
 13 15  1  0
 14 13  2  0
 15 16  1  0
 16 17  1  1
 17 18  1  0
 19 21  1  0
 19 16  1  0
 20 19  2  0
M  END
$$$$
