GHC.pdb
     RDKit          3D

 21 21  0  0  1  0  0  0  0  0999 V2000
   27.0930  -19.3055  -16.2602 N   0  0  0  0  0  0  0  0  0  0  0  0
   25.9413  -18.8052  -16.9513 C   0  0  0  0  0  0  0  0  0  0  0  0
   25.1105  -18.0233  -16.0306 C   0  0  0  0  0  0  0  0  0  0  0  0
   25.4413  -17.8209  -14.8570 O   0  0  0  0  0  0  0  0  0  0  0  0
   23.8759  -17.4750  -16.5017 N   0  0  0  0  0  0  0  0  0  0  0  0
   23.0453  -16.6385  -15.6928 C   0  0  1  0  0  0  0  0  0  0  0  0
   22.9343  -15.2200  -16.0513 C   0  0  0  0  0  0  0  0  0  0  0  0
   24.1092  -14.3717  -15.9799 C   0  0  0  0  0  0  0  0  0  0  0  0
   24.7352  -13.8799  -14.8750 C   0  0  0  0  0  0  0  0  0  0  0  0
   25.8044  -13.1681  -15.3459 N   0  0  0  0  0  0  0  0  0  0  0  0
   25.8242  -13.2279  -16.6873 C   0  0  0  0  0  0  0  0  0  0  0  0
   24.7855  -13.9670  -17.1031 N   0  0  0  0  0  0  0  0  0  0  0  0
   21.6886  -17.3004  -15.6426 C   0  0  0  0  0  0  0  0  0  0  0  0
   21.2258  -17.9555  -16.6168 O   0  0  0  0  0  0  0  0  0  0  0  0
   20.8543  -17.2241  -14.4958 N   0  0  0  0  0  0  0  0  0  0  0  0
   19.5277  -17.8060  -14.4826 C   0  0  1  0  0  0  0  0  0  0  0  0
   18.9470  -17.6744  -13.0692 C   0  0  0  0  0  0  0  0  0  0  0  0
   17.3303  -18.4690  -13.0617 S   0  0  0  0  0  0  0  0  0  0  0  0
   18.6534  -17.0186  -15.3953 C   0  0  0  0  0  0  0  0  0  0  0  0
   18.8304  -15.7839  -15.5615 O   0  0  0  0  0  0  0  0  0  0  0  0
   17.6092  -17.6005  -16.1020 O   0  0  0  0  0  0  0  0  0  0  0  0
  1  2  1  0
  3  4  2  0
  3  2  1  0
  5  3  1  0
  6 13  1  0
  6  5  1  0
  6  7  1  6
  8  7  1  0
  9  8  2  0
 10 11  1  0
 10  9  1  0
 11 12  2  0
 12  8  1  0
 13 15  1  0
 14 13  2  0
 15 16  1  0
 16 17  1  1
 17 18  1  0
 19 21  1  0
 19 16  1  0
 20 19  2  0
M  END
$$$$
