GHC.pdb
     RDKit          3D

 21 21  0  0  1  0  0  0  0  0999 V2000
   18.4926  -28.9793   -2.5085 N   0  0  0  0  0  0  0  0  0  0  0  0
   18.9038  -27.6836   -2.9625 C   0  0  0  0  0  0  0  0  0  0  0  0
   18.1159  -27.2956   -4.1364 C   0  0  0  0  0  0  0  0  0  0  0  0
   17.5552  -28.1290   -4.8567 O   0  0  0  0  0  0  0  0  0  0  0  0
   17.9891  -25.9083   -4.4624 N   0  0  0  0  0  0  0  0  0  0  0  0
   17.2288  -25.4455   -5.5811 C   0  0  1  0  0  0  0  0  0  0  0  0
   16.4358  -24.2215   -5.4196 C   0  0  0  0  0  0  0  0  0  0  0  0
   15.3444  -24.1991   -4.4639 C   0  0  0  0  0  0  0  0  0  0  0  0
   14.1918  -24.9243   -4.4746 C   0  0  0  0  0  0  0  0  0  0  0  0
   13.5175  -24.5576   -3.3420 N   0  0  0  0  0  0  0  0  0  0  0  0
   14.2371  -23.6440   -2.6707 C   0  0  0  0  0  0  0  0  0  0  0  0
   15.3715  -23.4057   -3.3447 N   0  0  0  0  0  0  0  0  0  0  0  0
   18.1941  -25.3263   -6.7367 C   0  0  0  0  0  0  0  0  0  0  0  0
   19.4053  -25.0145   -6.5690 O   0  0  0  0  0  0  0  0  0  0  0  0
   17.7949  -25.5584   -8.0797 N   0  0  0  0  0  0  0  0  0  0  0  0
   18.7494  -25.5375   -9.1693 C   0  0  1  0  0  0  0  0  0  0  0  0
   18.8579  -26.9507   -9.7552 C   0  0  0  0  0  0  0  0  0  0  0  0
   17.4080  -27.2322  -10.7867 S   0  0  0  0  0  0  0  0  0  0  0  0
   18.2244  -24.6516  -10.2450 C   0  0  0  0  0  0  0  0  0  0  0  0
   17.0647  -24.1674  -10.1812 O   0  0  0  0  0  0  0  0  0  0  0  0
   18.9798  -24.3183  -11.3615 O   0  0  0  0  0  0  0  0  0  0  0  0
  1  2  1  0
  3  4  2  0
  3  2  1  0
  5  3  1  0
  6 13  1  0
  6  5  1  0
  6  7  1  1
  8  7  1  0
  9  8  2  0
 10 11  1  0
 10  9  1  0
 11 12  2  0
 12  8  1  0
 13 15  1  0
 14 13  2  0
 15 16  1  0
 16 17  1  6
 17 18  1  0
 19 21  1  0
 19 16  1  0
 20 19  2  0
M  END
$$$$
