GHC.pdb
     RDKit          3D

 21 21  0  0  1  0  0  0  0  0999 V2000
   26.7676  -25.7575  -16.5309 N   0  0  0  0  0  0  0  0  0  0  0  0
   25.9104  -24.6384  -16.7898 C   0  0  0  0  0  0  0  0  0  0  0  0
   25.9643  -23.7008  -15.6640 C   0  0  0  0  0  0  0  0  0  0  0  0
   26.5874  -23.9538  -14.6269 O   0  0  0  0  0  0  0  0  0  0  0  0
   25.2746  -22.4515  -15.7648 N   0  0  0  0  0  0  0  0  0  0  0  0
   25.3244  -21.4582  -14.7377 C   0  0  1  0  0  0  0  0  0  0  0  0
   25.5115  -20.0588  -15.1375 C   0  0  0  0  0  0  0  0  0  0  0  0
   26.7176  -19.6742  -15.8465 C   0  0  0  0  0  0  0  0  0  0  0  0
   28.0143  -19.9207  -15.5114 C   0  0  0  0  0  0  0  0  0  0  0  0
   28.7629  -19.3782  -16.5199 N   0  0  0  0  0  0  0  0  0  0  0  0
   27.9478  -18.8243  -17.4320 C   0  0  0  0  0  0  0  0  0  0  0  0
   26.6776  -18.9946  -17.0378 N   0  0  0  0  0  0  0  0  0  0  0  0
   24.0715  -21.6309  -13.9122 C   0  0  0  0  0  0  0  0  0  0  0  0
   22.9552  -21.8995  -14.4358 O   0  0  0  0  0  0  0  0  0  0  0  0
   24.0764  -21.5011  -12.4979 N   0  0  0  0  0  0  0  0  0  0  0  0
   22.8610  -21.6289  -11.7201 C   0  0  1  0  0  0  0  0  0  0  0  0
   23.2217  -21.5671  -10.2306 C   0  0  0  0  0  0  0  0  0  0  0  0
   24.0653  -20.0036   -9.9326 S   0  0  0  0  0  0  0  0  0  0  0  0
   21.9842  -20.4612  -12.0118 C   0  0  0  0  0  0  0  0  0  0  0  0
   20.7913  -20.4272  -11.6124 O   0  0  0  0  0  0  0  0  0  0  0  0
   22.4333  -19.3621  -12.7319 O   0  0  0  0  0  0  0  0  0  0  0  0
  1  2  1  0
  3  4  2  0
  3  2  1  0
  5  3  1  0
  6 13  1  0
  6  5  1  0
  6  7  1  6
  8  7  1  0
  9  8  2  0
 10 11  1  0
 10  9  1  0
 11 12  2  0
 12  8  1  0
 13 15  1  0
 14 13  2  0
 15 16  1  0
 16 17  1  1
 17 18  1  0
 19 21  1  0
 19 16  1  0
 20 19  2  0
M  END
$$$$
