GHC.pdb
     RDKit          3D

 21 21  0  0  1  0  0  0  0  0999 V2000
   26.6721  -23.5367  -15.8537 N   0  0  0  0  0  0  0  0  0  0  0  0
   25.2685  -23.3162  -15.6649 C   0  0  0  0  0  0  0  0  0  0  0  0
   25.0242  -21.9026  -15.3627 C   0  0  0  0  0  0  0  0  0  0  0  0
   25.7909  -21.2393  -14.6556 O   0  0  0  0  0  0  0  0  0  0  0  0
   23.8619  -21.2661  -15.9018 N   0  0  0  0  0  0  0  0  0  0  0  0
   23.5634  -19.8864  -15.6757 C   0  0  1  0  0  0  0  0  0  0  0  0
   23.8717  -18.9281  -16.7432 C   0  0  0  0  0  0  0  0  0  0  0  0
   25.2420  -18.7816  -17.1971 C   0  0  0  0  0  0  0  0  0  0  0  0
   25.7717  -19.0935  -18.4123 C   0  0  0  0  0  0  0  0  0  0  0  0
   27.0904  -18.7367  -18.3398 N   0  0  0  0  0  0  0  0  0  0  0  0
   27.3484  -18.2268  -17.1246 C   0  0  0  0  0  0  0  0  0  0  0  0
   26.2206  -18.2439  -16.3996 N   0  0  0  0  0  0  0  0  0  0  0  0
   22.1066  -19.8210  -15.2825 C   0  0  0  0  0  0  0  0  0  0  0  0
   21.2534  -20.6342  -15.7331 O   0  0  0  0  0  0  0  0  0  0  0  0
   21.6118  -18.8403  -14.3823 N   0  0  0  0  0  0  0  0  0  0  0  0
   20.2396  -18.8598  -13.9183 C   0  0  1  0  0  0  0  0  0  0  0  0
   20.0722  -17.7892  -12.8329 C   0  0  0  0  0  0  0  0  0  0  0  0
   20.5786  -16.2093  -13.5348 S   0  0  0  0  0  0  0  0  0  0  0  0
   19.3487  -18.4846  -15.0510 C   0  0  0  0  0  0  0  0  0  0  0  0
   19.8124  -17.9653  -16.0993 O   0  0  0  0  0  0  0  0  0  0  0  0
   17.9755  -18.6864  -15.0087 O   0  0  0  0  0  0  0  0  0  0  0  0
  1  2  1  0
  3  4  2  0
  3  2  1  0
  5  3  1  0
  6 13  1  0
  6  5  1  0
  6  7  1  6
  8  7  1  0
  9  8  2  0
 10 11  1  0
 10  9  1  0
 11 12  2  0
 12  8  1  0
 13 15  1  0
 14 13  2  0
 15 16  1  0
 16 17  1  1
 17 18  1  0
 19 21  1  0
 19 16  1  0
 20 19  2  0
M  END
$$$$
