GHC.pdb
     RDKit          3D

 21 21  0  0  1  0  0  0  0  0999 V2000
   27.0439  -35.1222   -9.1340 N   0  0  0  0  0  0  0  0  0  0  0  0
   27.6012  -34.0853   -8.3164 C   0  0  0  0  0  0  0  0  0  0  0  0
   28.6459  -34.6423   -7.4517 C   0  0  0  0  0  0  0  0  0  0  0  0
   28.9143  -35.8488   -7.4383 O   0  0  0  0  0  0  0  0  0  0  0  0
   29.3811  -33.7645   -6.5940 N   0  0  0  0  0  0  0  0  0  0  0  0
   30.4086  -34.2278   -5.7145 C   0  0  1  0  0  0  0  0  0  0  0  0
   31.6651  -33.4718   -5.6599 C   0  0  0  0  0  0  0  0  0  0  0  0
   32.7015  -33.7382   -6.6397 C   0  0  0  0  0  0  0  0  0  0  0  0
   32.7200  -34.6833   -7.6201 C   0  0  0  0  0  0  0  0  0  0  0  0
   33.9003  -34.4970   -8.2864 N   0  0  0  0  0  0  0  0  0  0  0  0
   34.5707  -33.4756   -7.7291 C   0  0  0  0  0  0  0  0  0  0  0  0
   33.8494  -32.9897   -6.7085 N   0  0  0  0  0  0  0  0  0  0  0  0
   29.7804  -34.3490   -4.3463 C   0  0  0  0  0  0  0  0  0  0  0  0
   29.1490  -33.3961   -3.8117 O   0  0  0  0  0  0  0  0  0  0  0  0
   29.8634  -35.5427   -3.5814 N   0  0  0  0  0  0  0  0  0  0  0  0
   29.2609  -35.6457   -2.2681 C   0  0  1  0  0  0  0  0  0  0  0  0
   28.1415  -36.6928   -2.3214 C   0  0  0  0  0  0  0  0  0  0  0  0
   27.4080  -36.7991   -0.6794 S   0  0  0  0  0  0  0  0  0  0  0  0
   30.2874  -36.1437   -1.3111 C   0  0  0  0  0  0  0  0  0  0  0  0
   31.2985  -36.7764   -1.7122 O   0  0  0  0  0  0  0  0  0  0  0  0
   30.1823  -35.9375    0.0581 O   0  0  0  0  0  0  0  0  0  0  0  0
  1  2  1  0
  3  4  2  0
  3  2  1  0
  5  3  1  0
  6 13  1  0
  6  5  1  0
  6  7  1  1
  8  7  1  0
  9  8  2  0
 10 11  1  0
 10  9  1  0
 11 12  2  0
 12  8  1  0
 13 15  1  0
 14 13  2  0
 15 16  1  0
 16 17  1  6
 17 18  1  0
 19 21  1  0
 19 16  1  0
 20 19  2  0
M  END
$$$$
