GHC.pdb
     RDKit          3D

 21 21  0  0  1  0  0  0  0  0999 V2000
   20.8401  -34.1942   -5.1296 N   0  0  0  0  0  0  0  0  0  0  0  0
   22.0657  -33.4697   -4.9647 C   0  0  0  0  0  0  0  0  0  0  0  0
   23.2032  -34.3411   -5.2750 C   0  0  0  0  0  0  0  0  0  0  0  0
   23.0551  -35.5226   -5.6063 O   0  0  0  0  0  0  0  0  0  0  0  0
   24.5293  -33.8107   -5.1929 N   0  0  0  0  0  0  0  0  0  0  0  0
   25.6930  -34.6006   -5.4494 C   0  0  1  0  0  0  0  0  0  0  0  0
   26.5962  -34.1729   -6.5239 C   0  0  0  0  0  0  0  0  0  0  0  0
   26.0762  -33.3740   -7.6178 C   0  0  0  0  0  0  0  0  0  0  0  0
   24.8098  -32.9080   -7.8013 C   0  0  0  0  0  0  0  0  0  0  0  0
   24.8494  -32.1869   -8.9632 N   0  0  0  0  0  0  0  0  0  0  0  0
   26.0952  -32.2156   -9.4637 C   0  0  0  0  0  0  0  0  0  0  0  0
   26.8724  -32.9437   -8.6490 N   0  0  0  0  0  0  0  0  0  0  0  0
   26.4248  -34.7270   -4.1343 C   0  0  0  0  0  0  0  0  0  0  0  0
   26.1901  -33.9600   -3.1601 O   0  0  0  0  0  0  0  0  0  0  0  0
   27.4200  -35.7166   -3.9171 N   0  0  0  0  0  0  0  0  0  0  0  0
   28.0580  -35.8806   -2.6269 C   0  0  1  0  0  0  0  0  0  0  0  0
   28.1388  -34.5114   -1.9406 C   0  0  0  0  0  0  0  0  0  0  0  0
   29.3199  -33.5052   -2.8560 S   0  0  0  0  0  0  0  0  0  0  0  0
   27.1981  -36.7510   -1.7779 C   0  0  0  0  0  0  0  0  0  0  0  0
   26.1363  -37.2544   -2.2279 O   0  0  0  0  0  0  0  0  0  0  0  0
   27.5208  -37.0482   -0.4604 O   0  0  0  0  0  0  0  0  0  0  0  0
  1  2  1  0
  3  4  2  0
  3  2  1  0
  5  3  1  0
  6 13  1  0
  6  5  1  0
  6  7  1  6
  8  7  1  0
  9  8  2  0
 10 11  1  0
 10  9  1  0
 11 12  2  0
 12  8  1  0
 13 15  1  0
 14 13  2  0
 15 16  1  0
 16 17  1  1
 17 18  1  0
 19 21  1  0
 19 16  1  0
 20 19  2  0
M  END
$$$$
