GHC.pdb
     RDKit          3D

 21 21  0  0  1  0  0  0  0  0999 V2000
   22.2200  -12.2355  -17.1984 N   0  0  0  0  0  0  0  0  0  0  0  0
   21.7264  -11.5516  -18.3572 C   0  0  0  0  0  0  0  0  0  0  0  0
   21.4752  -10.1439  -18.0336 C   0  0  0  0  0  0  0  0  0  0  0  0
   22.2187   -9.2368  -18.4236 O   0  0  0  0  0  0  0  0  0  0  0  0
   20.3336   -9.8047  -17.2409 N   0  0  0  0  0  0  0  0  0  0  0  0
   19.9354   -8.4527  -17.0012 C   0  0  1  0  0  0  0  0  0  0  0  0
   18.5274   -8.1930  -16.6800 C   0  0  0  0  0  0  0  0  0  0  0  0
   18.0883   -6.8301  -16.4460 C   0  0  0  0  0  0  0  0  0  0  0  0
   18.0468   -5.7892  -17.3232 C   0  0  0  0  0  0  0  0  0  0  0  0
   17.5274   -4.7373  -16.6195 N   0  0  0  0  0  0  0  0  0  0  0  0
   17.2639   -5.1285  -15.3622 C   0  0  0  0  0  0  0  0  0  0  0  0
   17.6022   -6.4193  -15.2304 N   0  0  0  0  0  0  0  0  0  0  0  0
   20.8518   -7.9194  -15.9256 C   0  0  0  0  0  0  0  0  0  0  0  0
   21.0583   -8.5456  -14.8497 O   0  0  0  0  0  0  0  0  0  0  0  0
   21.5348   -6.6817  -16.0623 N   0  0  0  0  0  0  0  0  0  0  0  0
   22.4498   -6.2038  -15.0459 C   0  0  1  0  0  0  0  0  0  0  0  0
   23.7392   -5.7306  -15.7284 C   0  0  0  0  0  0  0  0  0  0  0  0
   23.3050   -4.4030  -16.8660 S   0  0  0  0  0  0  0  0  0  0  0  0
   21.8427   -5.0197  -14.3776 C   0  0  0  0  0  0  0  0  0  0  0  0
   20.8111   -4.4683  -14.8416 O   0  0  0  0  0  0  0  0  0  0  0  0
   22.3781   -4.4695  -13.2205 O   0  0  0  0  0  0  0  0  0  0  0  0
  1  2  1  0
  3  4  2  0
  3  2  1  0
  5  3  1  0
  6 13  1  0
  6  5  1  0
  6  7  1  1
  8  7  1  0
  9  8  2  0
 10 11  1  0
 10  9  1  0
 11 12  2  0
 12  8  1  0
 13 15  1  0
 14 13  2  0
 15 16  1  0
 16 17  1  6
 17 18  1  0
 19 21  1  0
 19 16  1  0
 20 19  2  0
M  END
$$$$
