GHC.pdb
     RDKit          3D

 21 21  0  0  1  0  0  0  0  0999 V2000
   24.1297  -11.1725  -19.1261 N   0  0  0  0  0  0  0  0  0  0  0  0
   23.2861  -10.2186  -19.7837 C   0  0  0  0  0  0  0  0  0  0  0  0
   22.4711   -9.5099  -18.7923 C   0  0  0  0  0  0  0  0  0  0  0  0
   21.9681   -8.4048  -19.0236 O   0  0  0  0  0  0  0  0  0  0  0  0
   22.2482  -10.1134  -17.5145 N   0  0  0  0  0  0  0  0  0  0  0  0
   21.3260   -9.5809  -16.5606 C   0  0  1  0  0  0  0  0  0  0  0  0
   20.6873  -10.5110  -15.6224 C   0  0  0  0  0  0  0  0  0  0  0  0
   19.5423  -11.2890  -16.0568 C   0  0  0  0  0  0  0  0  0  0  0  0
   18.8906  -11.2456  -17.2518 C   0  0  0  0  0  0  0  0  0  0  0  0
   17.9081  -12.1939  -17.1680 N   0  0  0  0  0  0  0  0  0  0  0  0
   17.9644  -12.7896  -15.9659 C   0  0  0  0  0  0  0  0  0  0  0  0
   18.9674  -12.2471  -15.2604 N   0  0  0  0  0  0  0  0  0  0  0  0
   22.0531   -8.4767  -15.8304 C   0  0  0  0  0  0  0  0  0  0  0  0
   23.2361   -8.6145  -15.4133 O   0  0  0  0  0  0  0  0  0  0  0  0
   21.4478   -7.2185  -15.5705 N   0  0  0  0  0  0  0  0  0  0  0  0
   22.1568   -6.1651  -14.8733 C   0  0  1  0  0  0  0  0  0  0  0  0
   22.0992   -4.8886  -15.7216 C   0  0  0  0  0  0  0  0  0  0  0  0
   22.8523   -3.5588  -14.7678 S   0  0  0  0  0  0  0  0  0  0  0  0
   21.4480   -5.8793  -13.5952 C   0  0  0  0  0  0  0  0  0  0  0  0
   20.1919   -5.8191  -13.5470 O   0  0  0  0  0  0  0  0  0  0  0  0
   22.1296   -5.6670  -12.4041 O   0  0  0  0  0  0  0  0  0  0  0  0
  1  2  1  0
  3  4  2  0
  3  2  1  0
  5  3  1  0
  6 13  1  0
  6  5  1  0
  6  7  1  1
  8  7  1  0
  9  8  2  0
 10 11  1  0
 10  9  1  0
 11 12  2  0
 12  8  1  0
 13 15  1  0
 14 13  2  0
 15 16  1  0
 16 17  1  6
 17 18  1  0
 19 21  1  0
 19 16  1  0
 20 19  2  0
M  END
$$$$
