GHC.pdb
     RDKit          3D

 21 21  0  0  1  0  0  0  0  0999 V2000
   13.2291  -14.6372  -15.4724 N   0  0  0  0  0  0  0  0  0  0  0  0
   13.6026  -13.3172  -15.8873 C   0  0  0  0  0  0  0  0  0  0  0  0
   14.8969  -12.9593  -15.2989 C   0  0  0  0  0  0  0  0  0  0  0  0
   15.5217  -13.7327  -14.5646 O   0  0  0  0  0  0  0  0  0  0  0  0
   15.4585  -11.6741  -15.5812 N   0  0  0  0  0  0  0  0  0  0  0  0
   16.7003  -11.2361  -15.0244 C   0  0  1  0  0  0  0  0  0  0  0  0
   17.8688  -11.1668  -15.9092 C   0  0  0  0  0  0  0  0  0  0  0  0
   18.3909  -12.3853  -16.4989 C   0  0  0  0  0  0  0  0  0  0  0  0
   19.3139  -13.2472  -15.9893 C   0  0  0  0  0  0  0  0  0  0  0  0
   19.4329  -14.2467  -16.9159 N   0  0  0  0  0  0  0  0  0  0  0  0
   18.6109  -13.9981  -17.9482 C   0  0  0  0  0  0  0  0  0  0  0  0
   17.9554  -12.8522  -17.7135 N   0  0  0  0  0  0  0  0  0  0  0  0
   16.4297   -9.9040  -14.3661 C   0  0  0  0  0  0  0  0  0  0  0  0
   15.5877   -9.0861  -14.8291 O   0  0  0  0  0  0  0  0  0  0  0  0
   17.1072   -9.4940  -13.1872 N   0  0  0  0  0  0  0  0  0  0  0  0
   16.7846   -8.2487  -12.5209 C   0  0  1  0  0  0  0  0  0  0  0  0
   17.2963   -8.3169  -11.0766 C   0  0  0  0  0  0  0  0  0  0  0  0
   16.3933   -9.6281  -10.2336 S   0  0  0  0  0  0  0  0  0  0  0  0
   17.5169   -7.1430  -13.1980 C   0  0  0  0  0  0  0  0  0  0  0  0
   18.4031   -7.3807  -14.0592 O   0  0  0  0  0  0  0  0  0  0  0  0
   17.2619   -5.8072  -12.9166 O   0  0  0  0  0  0  0  0  0  0  0  0
  1  2  1  0
  3  4  2  0
  3  2  1  0
  5  3  1  0
  6 13  1  0
  6  5  1  0
  6  7  1  6
  8  7  1  0
  9  8  2  0
 10 11  1  0
 10  9  1  0
 11 12  2  0
 12  8  1  0
 13 15  1  0
 14 13  2  0
 15 16  1  0
 16 17  1  1
 17 18  1  0
 19 21  1  0
 19 16  1  0
 20 19  2  0
M  END
$$$$
