MYS.pdb
     RDKit          3D

 27 27  0  0  1  0  0  0  0  0999 V2000
    8.4405  -11.7760   18.4325 C   0  0  0  0  0  0  0  0  0  0  0  0
    8.2799  -13.3616   19.2691 S   0  0  0  0  0  0  0  0  0  0  0  0
    6.9926  -13.2940   20.5036 C   0  0  0  0  0  0  0  0  0  0  0  0
    6.7222  -14.5967   21.1894 C   0  0  0  0  0  0  0  0  0  0  0  0
    7.8731  -15.5429   21.2093 C   0  0  2  0  0  0  0  0  0  0  0  0
    7.4968  -16.9274   21.0597 N   0  0  0  0  0  0  0  0  0  0  0  0
    8.6200  -15.3463   22.4667 C   0  0  0  0  0  0  0  0  0  0  0  0
    9.4724  -14.4406   22.5559 O   0  0  0  0  0  0  0  0  0  0  0  0
    6.0821  -10.8078   26.7158 O   0  0  0  0  0  0  0  0  0  0  0  0
    6.5649  -12.0836   26.5410 C   0  0  0  0  0  0  0  0  0  0  0  0
    7.9145  -12.2906   26.6181 C   0  0  0  0  0  0  0  0  0  0  0  0
    8.4619  -13.5558   26.4506 C   0  0  0  0  0  0  0  0  0  0  0  0
    7.6724  -14.6580   26.1993 C   0  0  0  0  0  0  0  0  0  0  0  0
    8.2317  -16.0111   26.0101 C   0  0  0  0  0  0  0  0  0  0  0  0
    9.1122  -16.1608   24.7998 C   0  0  2  0  0  0  0  0  0  0  0  0
    8.3668  -16.1882   23.5718 N   0  0  0  0  0  0  0  0  0  0  0  0
    9.9269  -17.3890   24.8792 C   0  0  0  0  0  0  0  0  0  0  0  0
    9.4172  -18.5480   24.8829 O   0  0  0  0  0  0  0  0  0  0  0  0
    6.2932  -14.4464   26.1208 C   0  0  0  0  0  0  0  0  0  0  0  0
    5.7645  -13.1844   26.2894 C   0  0  0  0  0  0  0  0  0  0  0  0
   13.9499  -16.8134   24.4355 O   0  0  0  0  0  0  0  0  0  0  0  0
   13.4196  -18.0582   24.0511 C   0  0  0  0  0  0  0  0  0  0  0  0
   12.2145  -18.4084   24.9031 C   0  0  2  0  0  0  0  0  0  0  0  0
   11.3468  -17.2503   24.9541 N   0  0  0  0  0  0  0  0  0  0  0  0
   12.7076  -18.6847   26.2615 C   0  0  0  0  0  0  0  0  0  0  0  0
   13.5558  -19.7783   26.4835 O   0  0  0  0  0  0  0  0  0  0  0  0
   12.3768  -17.9553   27.2089 O   0  0  0  0  0  0  0  0  0  0  0  0
  2  1  1  0
  3  2  1  0
  4  3  1  0
  4  5  1  0
  5  7  1  0
  5  6  1  1
  7  8  2  0
  9 10  1  0
 10 20  2  0
 10 11  1  0
 11 12  2  0
 12 13  1  0
 13 14  1  0
 15 14  1  1
 16 15  1  0
 16  7  1  0
 17 24  1  0
 17 15  1  0
 18 17  2  0
 19 13  2  0
 20 19  1  0
 22 21  1  0
 23 24  1  0
 23 22  1  6
 25 23  1  0
 26 25  1  0
 27 25  2  0
M  END
$$$$
