MYS.pdb
     RDKit          3D

 27 27  0  0  1  0  0  0  0  0999 V2000
    7.0978  -12.0500   20.4418 C   0  0  0  0  0  0  0  0  0  0  0  0
    8.0166  -13.5661   20.1300 S   0  0  0  0  0  0  0  0  0  0  0  0
    7.5788  -14.2515   18.5412 C   0  0  0  0  0  0  0  0  0  0  0  0
    8.2808  -15.5294   18.2026 C   0  0  0  0  0  0  0  0  0  0  0  0
    9.6476  -15.3597   17.6343 C   0  0  2  0  0  0  0  0  0  0  0  0
    9.8102  -15.9270   16.3180 N   0  0  0  0  0  0  0  0  0  0  0  0
   10.6221  -15.9499   18.5722 C   0  0  0  0  0  0  0  0  0  0  0  0
   10.9389  -17.1520   18.4748 O   0  0  0  0  0  0  0  0  0  0  0  0
   17.2271  -15.0827   16.6099 O   0  0  0  0  0  0  0  0  0  0  0  0
   16.2700  -14.9493   17.5885 C   0  0  0  0  0  0  0  0  0  0  0  0
   16.1449  -15.9398   18.5231 C   0  0  0  0  0  0  0  0  0  0  0  0
   15.1975  -15.8622   19.5355 C   0  0  0  0  0  0  0  0  0  0  0  0
   14.3420  -14.7863   19.6445 C   0  0  0  0  0  0  0  0  0  0  0  0
   13.3220  -14.6850   20.7070 C   0  0  0  0  0  0  0  0  0  0  0  0
   12.1544  -15.6193   20.5449 C   0  0  2  0  0  0  0  0  0  0  0  0
   11.1968  -15.1484   19.5828 N   0  0  0  0  0  0  0  0  0  0  0  0
   11.4592  -15.8350   21.8289 C   0  0  0  0  0  0  0  0  0  0  0  0
   10.8607  -14.9056   22.4464 O   0  0  0  0  0  0  0  0  0  0  0  0
   14.4700  -13.7740   18.6894 C   0  0  0  0  0  0  0  0  0  0  0  0
   15.4155  -13.8653   17.6902 C   0  0  0  0  0  0  0  0  0  0  0  0
   10.8535  -19.6873   22.8314 O   0  0  0  0  0  0  0  0  0  0  0  0
   10.0767  -18.7412   23.5240 C   0  0  0  0  0  0  0  0  0  0  0  0
   10.8277  -17.4296   23.6540 C   0  0  2  0  0  0  0  0  0  0  0  0
   11.4695  -17.1503   22.3864 N   0  0  0  0  0  0  0  0  0  0  0  0
   11.8700  -17.6244   24.6740 C   0  0  0  0  0  0  0  0  0  0  0  0
   11.5030  -17.8488   26.0081 O   0  0  0  0  0  0  0  0  0  0  0  0
   13.0695  -17.5912   24.3590 O   0  0  0  0  0  0  0  0  0  0  0  0
  2  1  1  0
  3  2  1  0
  4  3  1  0
  4  5  1  0
  5  7  1  0
  5  6  1  6
  7  8  2  0
  9 10  1  0
 10 20  2  0
 10 11  1  0
 11 12  2  0
 12 13  1  0
 13 14  1  0
 15 14  1  1
 16 15  1  0
 16  7  1  0
 17 24  1  0
 17 15  1  0
 18 17  2  0
 19 13  2  0
 20 19  1  0
 22 21  1  0
 23 24  1  0
 23 22  1  6
 25 23  1  0
 26 25  1  0
 27 25  2  0
M  END
$$$$
