MYS.pdb
     RDKit          3D

 27 27  0  0  1  0  0  0  0  0999 V2000
    5.7921  -12.3057   18.3490 C   0  0  0  0  0  0  0  0  0  0  0  0
    7.0388  -12.9492   19.4766 S   0  0  0  0  0  0  0  0  0  0  0  0
    7.0923  -14.7318   19.4043 C   0  0  0  0  0  0  0  0  0  0  0  0
    8.0528  -15.3627   20.3633 C   0  0  0  0  0  0  0  0  0  0  0  0
    9.2517  -14.5368   20.6808 C   0  0  2  0  0  0  0  0  0  0  0  0
   10.2784  -14.5796   19.6683 N   0  0  0  0  0  0  0  0  0  0  0  0
    9.7935  -14.9770   21.9809 C   0  0  0  0  0  0  0  0  0  0  0  0
   10.8415  -15.6509   22.0290 O   0  0  0  0  0  0  0  0  0  0  0  0
   10.5572  -15.4489   30.8417 O   0  0  0  0  0  0  0  0  0  0  0  0
   10.1430  -15.1387   29.5674 C   0  0  0  0  0  0  0  0  0  0  0  0
    9.3368  -16.0235   28.9061 C   0  0  0  0  0  0  0  0  0  0  0  0
    8.8861  -15.7664   27.6180 C   0  0  0  0  0  0  0  0  0  0  0  0
    9.2298  -14.6109   26.9486 C   0  0  0  0  0  0  0  0  0  0  0  0
    8.7695  -14.3190   25.5766 C   0  0  0  0  0  0  0  0  0  0  0  0
    9.5825  -14.9707   24.4917 C   0  0  2  0  0  0  0  0  0  0  0  0
    9.1210  -14.6325   23.1739 N   0  0  0  0  0  0  0  0  0  0  0  0
    9.5744  -16.4405   24.6266 C   0  0  0  0  0  0  0  0  0  0  0  0
    8.5433  -17.1413   24.4054 O   0  0  0  0  0  0  0  0  0  0  0  0
   10.0535  -13.7067   27.6247 C   0  0  0  0  0  0  0  0  0  0  0  0
   10.4929  -13.9759   28.9034 C   0  0  0  0  0  0  0  0  0  0  0  0
   12.2576  -18.0668   23.2350 O   0  0  0  0  0  0  0  0  0  0  0  0
   11.9855  -19.0126   24.2398 C   0  0  0  0  0  0  0  0  0  0  0  0
   10.8619  -18.5276   25.1360 C   0  0  2  0  0  0  0  0  0  0  0  0
   10.7857  -17.0860   25.0230 N   0  0  0  0  0  0  0  0  0  0  0  0
   11.2295  -18.8704   26.5188 C   0  0  0  0  0  0  0  0  0  0  0  0
   11.4657  -20.2084   26.8634 O   0  0  0  0  0  0  0  0  0  0  0  0
   11.3314  -17.9822   27.3790 O   0  0  0  0  0  0  0  0  0  0  0  0
  2  1  1  0
  3  2  1  0
  4  3  1  0
  4  5  1  0
  5  7  1  0
  5  6  1  6
  7  8  2  0
  9 10  1  0
 10 20  2  0
 10 11  1  0
 11 12  2  0
 12 13  1  0
 13 14  1  0
 15 14  1  1
 16 15  1  0
 16  7  1  0
 17 24  1  0
 17 15  1  0
 18 17  2  0
 19 13  2  0
 20 19  1  0
 22 21  1  0
 23 24  1  0
 23 22  1  6
 25 23  1  0
 26 25  1  0
 27 25  2  0
M  END
$$$$
