MYS.pdb
     RDKit          3D

 27 27  0  0  1  0  0  0  0  0999 V2000
    8.6419  -11.9001   18.6633 C   0  0  0  0  0  0  0  0  0  0  0  0
    7.9777  -13.3501   17.8290 S   0  0  0  0  0  0  0  0  0  0  0  0
    7.6822  -14.6674   18.9964 C   0  0  0  0  0  0  0  0  0  0  0  0
    7.3876  -14.2066   20.3897 C   0  0  0  0  0  0  0  0  0  0  0  0
    7.1805  -15.3012   21.3792 C   0  0  2  0  0  0  0  0  0  0  0  0
    5.7984  -15.5227   21.7282 N   0  0  0  0  0  0  0  0  0  0  0  0
    7.9733  -14.9983   22.5864 C   0  0  0  0  0  0  0  0  0  0  0  0
    7.8891  -13.8786   23.1286 O   0  0  0  0  0  0  0  0  0  0  0  0
    5.7694  -11.7317   27.2290 O   0  0  0  0  0  0  0  0  0  0  0  0
    6.6376  -12.7192   26.8256 C   0  0  0  0  0  0  0  0  0  0  0  0
    6.1238  -13.9244   26.4336 C   0  0  0  0  0  0  0  0  0  0  0  0
    6.9492  -14.9600   26.0158 C   0  0  0  0  0  0  0  0  0  0  0  0
    8.3206  -14.8212   25.9772 C   0  0  0  0  0  0  0  0  0  0  0  0
    9.2188  -15.9099   25.5443 C   0  0  0  0  0  0  0  0  0  0  0  0
    9.7933  -15.7361   24.1650 C   0  0  2  0  0  0  0  0  0  0  0  0
    8.8297  -15.9818   23.1280 N   0  0  0  0  0  0  0  0  0  0  0  0
   10.9488  -16.6289   23.9501 C   0  0  0  0  0  0  0  0  0  0  0  0
   10.8264  -17.8796   23.7950 O   0  0  0  0  0  0  0  0  0  0  0  0
    8.8455  -13.5894   26.3776 C   0  0  0  0  0  0  0  0  0  0  0  0
    8.0132  -12.5707   26.7898 C   0  0  0  0  0  0  0  0  0  0  0  0
   13.7390  -15.6454   21.4741 O   0  0  0  0  0  0  0  0  0  0  0  0
   14.3285  -15.9438   22.7158 C   0  0  0  0  0  0  0  0  0  0  0  0
   13.4118  -16.8269   23.5408 C   0  0  2  0  0  0  0  0  0  0  0  0
   12.2525  -16.0454   23.9176 N   0  0  0  0  0  0  0  0  0  0  0  0
   14.1455  -17.1952   24.7618 C   0  0  0  0  0  0  0  0  0  0  0  0
   15.3145  -17.9626   24.6648 O   0  0  0  0  0  0  0  0  0  0  0  0
   13.7350  -16.8301   25.8741 O   0  0  0  0  0  0  0  0  0  0  0  0
  2  1  1  0
  3  2  1  0
  4  3  1  0
  4  5  1  0
  5  7  1  0
  5  6  1  1
  7  8  2  0
  9 10  1  0
 10 20  2  0
 10 11  1  0
 11 12  2  0
 12 13  1  0
 13 14  1  0
 15 14  1  1
 16 15  1  0
 16  7  1  0
 17 24  1  0
 17 15  1  0
 18 17  2  0
 19 13  2  0
 20 19  1  0
 22 21  1  0
 23 24  1  0
 23 22  1  6
 25 23  1  0
 26 25  1  0
 27 25  2  0
M  END
$$$$
