MYS.pdb
     RDKit          3D

 27 27  0  0  1  0  0  0  0  0999 V2000
    8.9181  -12.2196   17.6940 C   0  0  0  0  0  0  0  0  0  0  0  0
    8.1553  -13.7322   17.0857 S   0  0  0  0  0  0  0  0  0  0  0  0
    8.6431  -15.1285   18.0848 C   0  0  0  0  0  0  0  0  0  0  0  0
    9.3541  -14.7665   19.3512 C   0  0  0  0  0  0  0  0  0  0  0  0
    9.7671  -15.9271   20.1894 C   0  0  2  0  0  0  0  0  0  0  0  0
    8.8888  -17.0668   20.0869 N   0  0  0  0  0  0  0  0  0  0  0  0
    9.8677  -15.4802   21.5922 C   0  0  0  0  0  0  0  0  0  0  0  0
   10.8255  -14.7707   21.9583 O   0  0  0  0  0  0  0  0  0  0  0  0
    6.5137  -11.6680   28.7217 O   0  0  0  0  0  0  0  0  0  0  0  0
    6.6823  -12.4146   27.5790 C   0  0  0  0  0  0  0  0  0  0  0  0
    7.5180  -11.9430   26.6046 C   0  0  0  0  0  0  0  0  0  0  0  0
    7.7289  -12.6514   25.4290 C   0  0  0  0  0  0  0  0  0  0  0  0
    7.1072  -13.8589   25.1907 C   0  0  0  0  0  0  0  0  0  0  0  0
    7.3096  -14.6263   23.9459 C   0  0  0  0  0  0  0  0  0  0  0  0
    8.6786  -15.2323   23.7998 C   0  0  2  0  0  0  0  0  0  0  0  0
    8.8743  -15.8587   22.5217 N   0  0  0  0  0  0  0  0  0  0  0  0
    8.9367  -16.2321   24.8545 C   0  0  0  0  0  0  0  0  0  0  0  0
    8.5471  -16.0806   26.0496 O   0  0  0  0  0  0  0  0  0  0  0  0
    6.2534  -14.3408   26.1866 C   0  0  0  0  0  0  0  0  0  0  0  0
    6.0541  -13.6261   27.3486 C   0  0  0  0  0  0  0  0  0  0  0  0
   10.6280  -19.4333   23.4053 O   0  0  0  0  0  0  0  0  0  0  0  0
   10.3076  -19.7117   24.7463 C   0  0  0  0  0  0  0  0  0  0  0  0
    9.9486  -18.4352   25.4830 C   0  0  2  0  0  0  0  0  0  0  0  0
    9.6560  -17.4141   24.4989 N   0  0  0  0  0  0  0  0  0  0  0  0
   11.1377  -18.0240   26.2456 C   0  0  0  0  0  0  0  0  0  0  0  0
   11.6235  -18.8462   27.2716 O   0  0  0  0  0  0  0  0  0  0  0  0
   11.7110  -16.9551   25.9847 O   0  0  0  0  0  0  0  0  0  0  0  0
  2  1  1  0
  3  2  1  0
  4  3  1  0
  4  5  1  0
  5  7  1  0
  5  6  1  1
  7  8  2  0
  9 10  1  0
 10 20  2  0
 10 11  1  0
 11 12  2  0
 12 13  1  0
 13 14  1  0
 15 14  1  6
 16 15  1  0
 16  7  1  0
 17 24  1  0
 17 15  1  0
 18 17  2  0
 19 13  2  0
 20 19  1  0
 22 21  1  0
 23 24  1  0
 23 22  1  6
 25 23  1  0
 26 25  1  0
 27 25  2  0
M  END
$$$$
