MYS.pdb
     RDKit          3D

 27 27  0  0  1  0  0  0  0  0999 V2000
    8.3732  -11.3938   20.3036 C   0  0  0  0  0  0  0  0  0  0  0  0
    7.4120  -12.4941   19.2524 S   0  0  0  0  0  0  0  0  0  0  0  0
    7.4260  -14.1563   19.9023 C   0  0  0  0  0  0  0  0  0  0  0  0
    8.5073  -14.4218   20.9027 C   0  0  0  0  0  0  0  0  0  0  0  0
    8.5541  -15.8199   21.4158 C   0  0  2  0  0  0  0  0  0  0  0  0
    7.2554  -16.4033   21.6482 N   0  0  0  0  0  0  0  0  0  0  0  0
    9.3549  -15.8380   22.6552 C   0  0  0  0  0  0  0  0  0  0  0  0
   10.5144  -15.3794   22.6606 O   0  0  0  0  0  0  0  0  0  0  0  0
    6.2442  -10.8608   26.0573 O   0  0  0  0  0  0  0  0  0  0  0  0
    6.8333  -12.1022   26.1153 C   0  0  0  0  0  0  0  0  0  0  0  0
    6.0944  -13.1962   25.7587 C   0  0  0  0  0  0  0  0  0  0  0  0
    6.6335  -14.4754   25.7963 C   0  0  0  0  0  0  0  0  0  0  0  0
    7.9345  -14.7006   26.1938 C   0  0  0  0  0  0  0  0  0  0  0  0
    8.5272  -16.0516   26.2493 C   0  0  0  0  0  0  0  0  0  0  0  0
    9.4622  -16.3718   25.1153 C   0  0  2  0  0  0  0  0  0  0  0  0
    8.8038  -16.3770   23.8383 N   0  0  0  0  0  0  0  0  0  0  0  0
   10.1120  -17.6825   25.3113 C   0  0  0  0  0  0  0  0  0  0  0  0
    9.4573  -18.7434   25.5329 O   0  0  0  0  0  0  0  0  0  0  0  0
    8.6896  -13.5825   26.5580 C   0  0  0  0  0  0  0  0  0  0  0  0
    8.1404  -12.3186   26.5154 C   0  0  0  0  0  0  0  0  0  0  0  0
   14.2147  -17.7102   24.9255 O   0  0  0  0  0  0  0  0  0  0  0  0
   13.5398  -18.9005   24.6001 C   0  0  0  0  0  0  0  0  0  0  0  0
   12.2393  -19.0028   25.3743 C   0  0  2  0  0  0  0  0  0  0  0  0
   11.5378  -17.7427   25.2454 N   0  0  0  0  0  0  0  0  0  0  0  0
   12.5900  -19.2013   26.7894 C   0  0  0  0  0  0  0  0  0  0  0  0
   13.2215  -20.3872   27.1888 O   0  0  0  0  0  0  0  0  0  0  0  0
   12.3299  -18.3253   27.6285 O   0  0  0  0  0  0  0  0  0  0  0  0
  2  1  1  0
  3  2  1  0
  4  3  1  0
  4  5  1  0
  5  7  1  0
  5  6  1  1
  7  8  2  0
  9 10  1  0
 10 20  2  0
 10 11  1  0
 11 12  2  0
 12 13  1  0
 13 14  1  0
 15 14  1  1
 16 15  1  0
 16  7  1  0
 17 24  1  0
 17 15  1  0
 18 17  2  0
 19 13  2  0
 20 19  1  0
 22 21  1  0
 23 24  1  0
 23 22  1  6
 25 23  1  0
 26 25  1  0
 27 25  2  0
M  END
$$$$
