MYS.pdb
     RDKit          3D

 27 27  0  0  1  0  0  0  0  0999 V2000
    7.7247  -12.6576   18.5300 C   0  0  0  0  0  0  0  0  0  0  0  0
    6.8894  -13.1677   20.0405 S   0  0  0  0  0  0  0  0  0  0  0  0
    6.8345  -14.9478   20.1588 C   0  0  0  0  0  0  0  0  0  0  0  0
    8.1266  -15.5819   20.5695 C   0  0  0  0  0  0  0  0  0  0  0  0
    9.2200  -14.6215   20.8892 C   0  0  2  0  0  0  0  0  0  0  0  0
   10.2171  -14.5021   19.8536 N   0  0  0  0  0  0  0  0  0  0  0  0
    9.8466  -15.0306   22.1611 C   0  0  0  0  0  0  0  0  0  0  0  0
   10.9006  -15.6969   22.1564 O   0  0  0  0  0  0  0  0  0  0  0  0
   10.7348  -15.9130   30.9856 O   0  0  0  0  0  0  0  0  0  0  0  0
   10.3441  -15.4981   29.7339 C   0  0  0  0  0  0  0  0  0  0  0  0
    9.4797  -16.2835   29.0225 C   0  0  0  0  0  0  0  0  0  0  0  0
    9.0490  -15.9181   27.7539 C   0  0  0  0  0  0  0  0  0  0  0  0
    9.4718  -14.7502   27.1550 C   0  0  0  0  0  0  0  0  0  0  0  0
    9.0339  -14.3444   25.8048 C   0  0  0  0  0  0  0  0  0  0  0  0
    9.7603  -15.0286   24.6793 C   0  0  2  0  0  0  0  0  0  0  0  0
    9.2485  -14.6651   23.3870 N   0  0  0  0  0  0  0  0  0  0  0  0
    9.6922  -16.4969   24.8126 C   0  0  0  0  0  0  0  0  0  0  0  0
    8.6122  -17.1453   24.6848 O   0  0  0  0  0  0  0  0  0  0  0  0
   10.3549  -13.9475   27.8822 C   0  0  0  0  0  0  0  0  0  0  0  0
   10.7736  -14.3237   29.1408 C   0  0  0  0  0  0  0  0  0  0  0  0
   12.8071  -18.5707   23.8042 O   0  0  0  0  0  0  0  0  0  0  0  0
   11.6106  -19.2577   24.0776 C   0  0  0  0  0  0  0  0  0  0  0  0
   10.9039  -18.6408   25.2695 C   0  0  2  0  0  0  0  0  0  0  0  0
   10.9011  -17.2031   25.0971 N   0  0  0  0  0  0  0  0  0  0  0  0
   11.6987  -18.9679   26.4637 C   0  0  0  0  0  0  0  0  0  0  0  0
   11.8286  -20.3041   26.8670 O   0  0  0  0  0  0  0  0  0  0  0  0
   12.2533  -18.0683   27.1134 O   0  0  0  0  0  0  0  0  0  0  0  0
  2  1  1  0
  3  2  1  0
  4  3  1  0
  4  5  1  0
  5  7  1  0
  5  6  1  6
  7  8  2  0
  9 10  1  0
 10 20  2  0
 10 11  1  0
 11 12  2  0
 12 13  1  0
 13 14  1  0
 15 14  1  1
 16 15  1  0
 16  7  1  0
 17 24  1  0
 17 15  1  0
 18 17  2  0
 19 13  2  0
 20 19  1  0
 22 21  1  0
 23 24  1  0
 23 22  1  6
 25 23  1  0
 26 25  1  0
 27 25  2  0
M  END
$$$$
