MYS.pdb
     RDKit          3D

 27 27  0  0  1  0  0  0  0  0999 V2000
    8.9042  -12.0623   19.4844 C   0  0  0  0  0  0  0  0  0  0  0  0
    7.3872  -12.4257   20.3823 S   0  0  0  0  0  0  0  0  0  0  0  0
    6.9332  -14.1402   20.1823 C   0  0  0  0  0  0  0  0  0  0  0  0
    8.0235  -15.0112   19.6410 C   0  0  0  0  0  0  0  0  0  0  0  0
    8.2524  -16.2715   20.4023 C   0  0  2  0  0  0  0  0  0  0  0  0
    7.0403  -16.9396   20.8089 N   0  0  0  0  0  0  0  0  0  0  0  0
    9.0888  -15.9635   21.5785 C   0  0  0  0  0  0  0  0  0  0  0  0
   10.2670  -15.5835   21.4292 O   0  0  0  0  0  0  0  0  0  0  0  0
   10.9747  -14.7491   30.2161 O   0  0  0  0  0  0  0  0  0  0  0  0
   10.3433  -14.9345   29.0085 C   0  0  0  0  0  0  0  0  0  0  0  0
   10.2153  -13.8663   28.1643 C   0  0  0  0  0  0  0  0  0  0  0  0
    9.5880  -13.9908   26.9317 C   0  0  0  0  0  0  0  0  0  0  0  0
    9.0666  -15.1935   26.5037 C   0  0  0  0  0  0  0  0  0  0  0  0
    8.3888  -15.3488   25.2015 C   0  0  0  0  0  0  0  0  0  0  0  0
    9.2763  -15.8331   24.0877 C   0  0  2  0  0  0  0  0  0  0  0  0
    8.5507  -16.1004   22.8768 N   0  0  0  0  0  0  0  0  0  0  0  0
   10.0032  -17.0574   24.4766 C   0  0  0  0  0  0  0  0  0  0  0  0
    9.4257  -18.1723   24.6396 O   0  0  0  0  0  0  0  0  0  0  0  0
    9.1976  -16.2852   27.3664 C   0  0  0  0  0  0  0  0  0  0  0  0
    9.8232  -16.1459   28.5871 C   0  0  0  0  0  0  0  0  0  0  0  0
   13.9912  -17.1215   23.7448 O   0  0  0  0  0  0  0  0  0  0  0  0
   13.2512  -18.3074   23.9006 C   0  0  0  0  0  0  0  0  0  0  0  0
   12.2032  -18.1414   24.9846 C   0  0  2  0  0  0  0  0  0  0  0  0
   11.4154  -16.9670   24.6736 N   0  0  0  0  0  0  0  0  0  0  0  0
   12.9183  -17.9047   26.2484 C   0  0  0  0  0  0  0  0  0  0  0  0
   13.6828  -18.9328   26.8171 O   0  0  0  0  0  0  0  0  0  0  0  0
   12.8480  -16.8014   26.8114 O   0  0  0  0  0  0  0  0  0  0  0  0
  2  1  1  0
  3  2  1  0
  4  3  1  0
  4  5  1  0
  5  7  1  0
  5  6  1  1
  7  8  2  0
  9 10  1  0
 10 20  2  0
 10 11  1  0
 11 12  2  0
 12 13  1  0
 13 14  1  0
 15 14  1  1
 16 15  1  0
 16  7  1  0
 17 24  1  0
 17 15  1  0
 18 17  2  0
 19 13  2  0
 20 19  1  0
 22 21  1  0
 23 24  1  0
 23 22  1  6
 25 23  1  0
 26 25  1  0
 27 25  2  0
M  END
$$$$
