MYS.pdb
     RDKit          3D

 27 27  0  0  1  0  0  0  0  0999 V2000
    6.6708  -11.3822   27.1698 C   0  0  0  0  0  0  0  0  0  0  0  0
    5.2095  -12.1940   26.5024 S   0  0  0  0  0  0  0  0  0  0  0  0
    5.6386  -13.7705   25.7839 C   0  0  0  0  0  0  0  0  0  0  0  0
    7.0105  -13.8275   25.1882 C   0  0  0  0  0  0  0  0  0  0  0  0
    7.3135  -15.0774   24.4357 C   0  0  2  0  0  0  0  0  0  0  0  0
    6.9328  -16.2850   25.1268 N   0  0  0  0  0  0  0  0  0  0  0  0
    8.7552  -15.0978   24.1214 C   0  0  0  0  0  0  0  0  0  0  0  0
    9.2684  -14.1693   23.4661 O   0  0  0  0  0  0  0  0  0  0  0  0
   10.3434  -14.6721   30.6227 O   0  0  0  0  0  0  0  0  0  0  0  0
   10.6540  -15.2498   29.4139 C   0  0  0  0  0  0  0  0  0  0  0  0
   11.1280  -14.4530   28.4086 C   0  0  0  0  0  0  0  0  0  0  0  0
   11.4590  -14.9777   27.1662 C   0  0  0  0  0  0  0  0  0  0  0  0
   11.3252  -16.3220   26.8899 C   0  0  0  0  0  0  0  0  0  0  0  0
   11.6632  -16.9017   25.5749 C   0  0  0  0  0  0  0  0  0  0  0  0
   10.9808  -16.2439   24.4069 C   0  0  2  0  0  0  0  0  0  0  0  0
    9.5546  -16.1737   24.5655 N   0  0  0  0  0  0  0  0  0  0  0  0
   11.2763  -16.9522   23.1461 C   0  0  0  0  0  0  0  0  0  0  0  0
   10.6449  -17.9867   22.7794 O   0  0  0  0  0  0  0  0  0  0  0  0
   10.8411  -17.1362   27.9174 C   0  0  0  0  0  0  0  0  0  0  0  0
   10.5168  -16.6006   29.1457 C   0  0  0  0  0  0  0  0  0  0  0  0
   13.2940  -15.1145   20.1311 O   0  0  0  0  0  0  0  0  0  0  0  0
   12.7136  -16.3825   19.9475 C   0  0  0  0  0  0  0  0  0  0  0  0
   12.8429  -17.2139   21.2096 C   0  0  2  0  0  0  0  0  0  0  0  0
   12.3190  -16.4393   22.3151 N   0  0  0  0  0  0  0  0  0  0  0  0
   14.2789  -17.4412   21.4356 C   0  0  0  0  0  0  0  0  0  0  0  0
   15.0040  -18.2434   20.5437 O   0  0  0  0  0  0  0  0  0  0  0  0
   14.8493  -16.9268   22.4099 O   0  0  0  0  0  0  0  0  0  0  0  0
  2  1  1  0
  3  2  1  0
  4  3  1  0
  4  5  1  0
  5  7  1  0
  5  6  1  1
  7  8  2  0
  9 10  1  0
 10 20  2  0
 10 11  1  0
 11 12  2  0
 12 13  1  0
 13 14  1  0
 15 14  1  1
 16 15  1  0
 16  7  1  0
 17 24  1  0
 17 15  1  0
 18 17  2  0
 19 13  2  0
 20 19  1  0
 22 21  1  0
 23 24  1  0
 23 22  1  6
 25 23  1  0
 26 25  1  0
 27 25  2  0
M  END
$$$$
