MYS.pdb
     RDKit          3D

 27 27  0  0  1  0  0  0  0  0999 V2000
    8.0613  -11.6719   18.9009 C   0  0  0  0  0  0  0  0  0  0  0  0
    7.4024  -12.9848   17.8609 S   0  0  0  0  0  0  0  0  0  0  0  0
    7.6170  -14.5747   18.6432 C   0  0  0  0  0  0  0  0  0  0  0  0
    8.8470  -14.6886   19.4885 C   0  0  0  0  0  0  0  0  0  0  0  0
    8.9453  -15.9460   20.2820 C   0  0  2  0  0  0  0  0  0  0  0  0
    7.7493  -16.7520   20.2546 N   0  0  0  0  0  0  0  0  0  0  0  0
    9.2981  -15.5970   21.6718 C   0  0  0  0  0  0  0  0  0  0  0  0
   10.4316  -15.1515   21.9392 O   0  0  0  0  0  0  0  0  0  0  0  0
    8.1868  -12.7728   29.9526 O   0  0  0  0  0  0  0  0  0  0  0  0
    8.0048  -13.2709   28.6836 C   0  0  0  0  0  0  0  0  0  0  0  0
    7.5884  -12.4191   27.6980 C   0  0  0  0  0  0  0  0  0  0  0  0
    7.3872  -12.8626   26.3976 C   0  0  0  0  0  0  0  0  0  0  0  0
    7.5970  -14.1781   26.0414 C   0  0  0  0  0  0  0  0  0  0  0  0
    7.3825  -14.6746   24.6677 C   0  0  0  0  0  0  0  0  0  0  0  0
    8.5597  -15.3975   24.0726 C   0  0  2  0  0  0  0  0  0  0  0  0
    8.3468  -15.7690   22.7011 N   0  0  0  0  0  0  0  0  0  0  0  0
    8.8846  -16.6149   24.8413 C   0  0  0  0  0  0  0  0  0  0  0  0
    8.0082  -17.4641   25.1788 O   0  0  0  0  0  0  0  0  0  0  0  0
    8.0227  -15.0484   27.0486 C   0  0  0  0  0  0  0  0  0  0  0  0
    8.2183  -14.5932   28.3352 C   0  0  0  0  0  0  0  0  0  0  0  0
   12.7462  -17.7160   24.7264 O   0  0  0  0  0  0  0  0  0  0  0  0
   11.7713  -18.6792   25.0428 C   0  0  0  0  0  0  0  0  0  0  0  0
   10.6576  -18.0582   25.8643 C   0  0  2  0  0  0  0  0  0  0  0  0
   10.2469  -16.8320   25.2128 N   0  0  0  0  0  0  0  0  0  0  0  0
   11.2230  -17.7228   27.1805 C   0  0  0  0  0  0  0  0  0  0  0  0
   11.2701  -16.3849   27.5958 O   0  0  0  0  0  0  0  0  0  0  0  0
   11.6569  -18.6172   27.9228 O   0  0  0  0  0  0  0  0  0  0  0  0
  2  1  1  0
  3  2  1  0
  4  3  1  0
  4  5  1  0
  5  7  1  0
  5  6  1  1
  7  8  2  0
  9 10  1  0
 10 20  2  0
 10 11  1  0
 11 12  2  0
 12 13  1  0
 13 14  1  0
 15 14  1  1
 16 15  1  0
 16  7  1  0
 17 24  1  0
 17 15  1  0
 18 17  2  0
 19 13  2  0
 20 19  1  0
 22 21  1  0
 23 24  1  0
 23 22  1  6
 25 23  1  0
 26 25  1  0
 27 25  2  0
M  END
$$$$
