MYS.pdb
     RDKit          3D

 27 27  0  0  1  0  0  0  0  0999 V2000
    8.0031  -11.7072   18.8125 C   0  0  0  0  0  0  0  0  0  0  0  0
    7.7832  -13.3805   19.4381 S   0  0  0  0  0  0  0  0  0  0  0  0
    6.7465  -13.3777   20.8910 C   0  0  0  0  0  0  0  0  0  0  0  0
    6.2451  -14.7281   21.2975 C   0  0  0  0  0  0  0  0  0  0  0  0
    7.3101  -15.7338   21.5705 C   0  0  2  0  0  0  0  0  0  0  0  0
    6.8102  -17.0616   21.8313 N   0  0  0  0  0  0  0  0  0  0  0  0
    8.1237  -15.2587   22.7064 C   0  0  0  0  0  0  0  0  0  0  0  0
    8.2024  -14.0395   22.9561 O   0  0  0  0  0  0  0  0  0  0  0  0
    5.4537  -11.7168   26.9813 O   0  0  0  0  0  0  0  0  0  0  0  0
    6.3881  -12.6937   26.7280 C   0  0  0  0  0  0  0  0  0  0  0  0
    5.9538  -13.9383   26.3640 C   0  0  0  0  0  0  0  0  0  0  0  0
    6.8486  -14.9656   26.0953 C   0  0  0  0  0  0  0  0  0  0  0  0
    8.2120  -14.7787   26.1831 C   0  0  0  0  0  0  0  0  0  0  0  0
    9.1824  -15.8571   25.9099 C   0  0  0  0  0  0  0  0  0  0  0  0
    9.7696  -15.8347   24.5252 C   0  0  2  0  0  0  0  0  0  0  0  0
    8.8147  -16.1899   23.5121 N   0  0  0  0  0  0  0  0  0  0  0  0
   10.9247  -16.7472   24.4188 C   0  0  0  0  0  0  0  0  0  0  0  0
   10.8668  -17.9655   24.7590 O   0  0  0  0  0  0  0  0  0  0  0  0
    8.6557  -13.5066   26.5549 C   0  0  0  0  0  0  0  0  0  0  0  0
    7.7550  -12.4967   26.8184 C   0  0  0  0  0  0  0  0  0  0  0  0
   13.6436  -15.8275   21.6609 O   0  0  0  0  0  0  0  0  0  0  0  0
   13.5586  -17.1288   22.1880 C   0  0  0  0  0  0  0  0  0  0  0  0
   13.2948  -17.0812   23.6810 C   0  0  2  0  0  0  0  0  0  0  0  0
   12.1519  -16.2220   23.9095 N   0  0  0  0  0  0  0  0  0  0  0  0
   14.4746  -16.4692   24.3120 C   0  0  0  0  0  0  0  0  0  0  0  0
   15.7003  -17.1492   24.2994 O   0  0  0  0  0  0  0  0  0  0  0  0
   14.3895  -15.3563   24.8536 O   0  0  0  0  0  0  0  0  0  0  0  0
  2  1  1  0
  3  2  1  0
  4  3  1  0
  4  5  1  0
  5  7  1  0
  5  6  1  1
  7  8  2  0
  9 10  1  0
 10 20  2  0
 10 11  1  0
 11 12  2  0
 12 13  1  0
 13 14  1  0
 15 14  1  1
 16 15  1  0
 16  7  1  0
 17 24  1  0
 17 15  1  0
 18 17  2  0
 19 13  2  0
 20 19  1  0
 22 21  1  0
 23 24  1  0
 23 22  1  6
 25 23  1  0
 26 25  1  0
 27 25  2  0
M  END
$$$$
