WAT.pdb
     RDKit          3D

 27 28  0  0  1  0  0  0  0  0999 V2000
    6.5368  -17.6567   24.0003 N   0  0  0  0  0  0  0  0  0  0  0  0
    6.8775  -16.3853   23.4510 C   0  0  1  0  0  0  0  0  0  0  0  0
    7.8036  -15.6518   24.3893 C   0  0  0  0  0  0  0  0  0  0  0  0
    7.1302  -14.8770   25.4414 C   0  0  0  0  0  0  0  0  0  0  0  0
    6.1463  -15.3410   26.3276 C   0  0  0  0  0  0  0  0  0  0  0  0
    5.7696  -14.3201   27.1061 N   0  0  0  0  0  0  0  0  0  0  0  0
    6.4638  -13.2235   26.7638 C   0  0  0  0  0  0  0  0  0  0  0  0
    6.4225  -11.9396   27.2937 C   0  0  0  0  0  0  0  0  0  0  0  0
    7.2677  -10.9970   26.7486 C   0  0  0  0  0  0  0  0  0  0  0  0
    8.1301  -11.2944   25.7165 C   0  0  0  0  0  0  0  0  0  0  0  0
    8.1689  -12.5733   25.1908 C   0  0  0  0  0  0  0  0  0  0  0  0
    7.3333  -13.5329   25.7177 C   0  0  0  0  0  0  0  0  0  0  0  0
    7.5198  -16.5563   22.1118 C   0  0  0  0  0  0  0  0  0  0  0  0
    8.1243  -17.6460   21.8237 O   0  0  0  0  0  0  0  0  0  0  0  0
    8.0534  -14.5700   18.9177 C   0  0  0  0  0  0  0  0  0  0  0  0
    8.3301  -15.6708   19.8918 C   0  0  2  0  0  0  0  0  0  0  0  0
    7.5186  -15.5752   21.0913 N   0  0  0  0  0  0  0  0  0  0  0  0
    9.7577  -15.7449   20.1713 C   0  0  0  0  0  0  0  0  0  0  0  0
   10.5354  -14.8318   19.8265 O   0  0  0  0  0  0  0  0  0  0  0  0
   11.9146  -15.9895   23.3777 C   0  0  0  0  0  0  0  0  0  0  0  0
   12.0520  -17.2342   22.5456 C   0  0  1  0  0  0  0  0  0  0  0  0
   11.1174  -18.1591   23.0641 O   0  0  0  0  0  0  0  0  0  0  0  0
   11.7009  -17.0448   21.1053 C   0  0  2  0  0  0  0  0  0  0  0  0
   10.3067  -16.8575   20.8445 N   0  0  0  0  0  0  0  0  0  0  0  0
   12.1809  -18.2128   20.3411 C   0  0  0  0  0  0  0  0  0  0  0  0
   11.3896  -19.0542   19.8481 O   0  0  0  0  0  0  0  0  0  0  0  0
   13.5322  -18.4160   20.1443 O   0  0  0  0  0  0  0  0  0  0  0  0
  2  3  1  0
  2  1  1  1
  4  5  2  0
  4  3  1  0
  6  5  1  0
  7 12  2  0
  7  6  1  0
  8  7  1  0
  9 10  1  0
  9  8  2  0
 10 11  2  0
 11 12  1  0
 12  4  1  0
 13  2  1  0
 14 13  2  0
 16 15  1  6
 16 18  1  0
 16 17  1  0
 17 13  1  0
 18 19  2  0
 21 20  1  1
 22 21  1  0
 23 21  1  0
 23 25  1  0
 23 24  1  1
 24 18  1  0
 25 26  2  0
 25 27  1  0
M  END
$$$$
