WAT.pdb
     RDKit          3D

 27 28  0  0  1  0  0  0  0  0999 V2000
    6.6801  -17.8490   24.4319 N   0  0  0  0  0  0  0  0  0  0  0  0
    7.5887  -16.7506   24.3804 C   0  0  1  0  0  0  0  0  0  0  0  0
    7.5891  -16.0220   25.7014 C   0  0  0  0  0  0  0  0  0  0  0  0
    6.5890  -14.9508   25.8162 C   0  0  0  0  0  0  0  0  0  0  0  0
    5.2005  -15.1074   25.9437 C   0  0  0  0  0  0  0  0  0  0  0  0
    4.6447  -13.8912   25.9872 N   0  0  0  0  0  0  0  0  0  0  0  0
    5.6081  -12.9611   25.8946 C   0  0  0  0  0  0  0  0  0  0  0  0
    5.5142  -11.5748   25.9049 C   0  0  0  0  0  0  0  0  0  0  0  0
    6.6858  -10.8553   25.8050 C   0  0  0  0  0  0  0  0  0  0  0  0
    7.9153  -11.4670   25.6983 C   0  0  0  0  0  0  0  0  0  0  0  0
    8.0058  -12.8472   25.6881 C   0  0  0  0  0  0  0  0  0  0  0  0
    6.8493  -13.5886   25.7856 C   0  0  0  0  0  0  0  0  0  0  0  0
    8.9647  -17.2333   24.0504 C   0  0  0  0  0  0  0  0  0  0  0  0
    9.3565  -18.3820   24.4540 O   0  0  0  0  0  0  0  0  0  0  0  0
   12.0422  -16.0940   22.1485 C   0  0  0  0  0  0  0  0  0  0  0  0
   11.3121  -16.8706   23.1978 C   0  0  2  0  0  0  0  0  0  0  0  0
    9.9129  -16.4984   23.2990 N   0  0  0  0  0  0  0  0  0  0  0  0
   12.0203  -16.7848   24.4677 C   0  0  0  0  0  0  0  0  0  0  0  0
   13.2319  -17.0704   24.5565 O   0  0  0  0  0  0  0  0  0  0  0  0
   11.2951  -13.8570   27.3578 C   0  0  0  0  0  0  0  0  0  0  0  0
   11.3004  -15.2774   27.8505 C   0  0  1  0  0  0  0  0  0  0  0  0
    9.9456  -15.6742   27.9214 O   0  0  0  0  0  0  0  0  0  0  0  0
   11.9721  -16.2398   26.9251 C   0  0  2  0  0  0  0  0  0  0  0  0
   11.3536  -16.3732   25.6419 N   0  0  0  0  0  0  0  0  0  0  0  0
   12.0260  -17.5645   27.5736 C   0  0  0  0  0  0  0  0  0  0  0  0
   11.4105  -18.5561   27.1098 O   0  0  0  0  0  0  0  0  0  0  0  0
   12.7649  -17.7533   28.7245 O   0  0  0  0  0  0  0  0  0  0  0  0
  2  3  1  0
  2  1  1  1
  4  5  2  0
  4  3  1  0
  6  5  1  0
  7 12  2  0
  7  6  1  0
  8  7  1  0
  9 10  1  0
  9  8  2  0
 10 11  2  0
 11 12  1  0
 12  4  1  0
 13  2  1  0
 14 13  2  0
 16 15  1  6
 16 18  1  0
 16 17  1  0
 17 13  1  0
 18 19  2  0
 21 20  1  6
 22 21  1  0
 23 21  1  0
 23 25  1  0
 23 24  1  6
 24 18  1  0
 25 26  2  0
 25 27  1  0
M  END
$$$$
