WAT.pdb
     RDKit          3D

 27 28  0  0  1  0  0  0  0  0999 V2000
    6.3092  -18.2632   24.2057 N   0  0  0  0  0  0  0  0  0  0  0  0
    6.6714  -16.8982   24.0057 C   0  0  1  0  0  0  0  0  0  0  0  0
    7.4385  -16.3898   25.2011 C   0  0  0  0  0  0  0  0  0  0  0  0
    6.7684  -15.3212   25.9561 C   0  0  0  0  0  0  0  0  0  0  0  0
    5.5511  -15.4166   26.6472 C   0  0  0  0  0  0  0  0  0  0  0  0
    5.2737  -14.2181   27.1732 N   0  0  0  0  0  0  0  0  0  0  0  0
    6.2536  -13.3579   26.8546 C   0  0  0  0  0  0  0  0  0  0  0  0
    6.4048  -12.0160   27.1825 C   0  0  0  0  0  0  0  0  0  0  0  0
    7.5330  -11.3704   26.7237 C   0  0  0  0  0  0  0  0  0  0  0  0
    8.4885  -12.0119   25.9669 C   0  0  0  0  0  0  0  0  0  0  0  0
    8.3353  -13.3477   25.6418 C   0  0  0  0  0  0  0  0  0  0  0  0
    7.2159  -14.0148   26.0875 C   0  0  0  0  0  0  0  0  0  0  0  0
    7.4897  -16.7575   22.7624 C   0  0  0  0  0  0  0  0  0  0  0  0
    8.2531  -17.7115   22.3844 O   0  0  0  0  0  0  0  0  0  0  0  0
    8.0757  -14.2138   20.0003 C   0  0  0  0  0  0  0  0  0  0  0  0
    8.2928  -15.5045   20.7243 C   0  0  2  0  0  0  0  0  0  0  0  0
    7.4947  -15.6112   21.9318 N   0  0  0  0  0  0  0  0  0  0  0  0
    9.7151  -15.7141   20.9581 C   0  0  0  0  0  0  0  0  0  0  0  0
   10.5448  -15.6352   20.0292 O   0  0  0  0  0  0  0  0  0  0  0  0
   11.6770  -15.1085   24.7624 C   0  0  0  0  0  0  0  0  0  0  0  0
   11.8758  -16.3990   24.0171 C   0  0  1  0  0  0  0  0  0  0  0  0
   10.9524  -17.3171   24.5669 O   0  0  0  0  0  0  0  0  0  0  0  0
   11.5646  -16.3130   22.5579 C   0  0  2  0  0  0  0  0  0  0  0  0
   10.1999  -16.0138   22.2496 N   0  0  0  0  0  0  0  0  0  0  0  0
   11.9342  -17.5899   21.9165 C   0  0  0  0  0  0  0  0  0  0  0  0
   13.1304  -17.9572   21.8097 O   0  0  0  0  0  0  0  0  0  0  0  0
   10.9616  -18.4279   21.4087 O   0  0  0  0  0  0  0  0  0  0  0  0
  2  3  1  0
  2  1  1  1
  4  5  2  0
  4  3  1  0
  6  5  1  0
  7 12  2  0
  7  6  1  0
  8  7  1  0
  9 10  1  0
  9  8  2  0
 10 11  2  0
 11 12  1  0
 12  4  1  0
 13  2  1  0
 14 13  2  0
 16 15  1  1
 16 18  1  0
 16 17  1  0
 17 13  1  0
 18 19  2  0
 21 20  1  1
 22 21  1  0
 23 21  1  0
 23 25  1  0
 23 24  1  1
 24 18  1  0
 25 26  2  0
 25 27  1  0
M  END
$$$$
