WAT.pdb
     RDKit          3D

 27 28  0  0  1  0  0  0  0  0999 V2000
    6.0214  -18.1431   23.6472 N   0  0  0  0  0  0  0  0  0  0  0  0
    6.4320  -16.7776   23.6117 C   0  0  1  0  0  0  0  0  0  0  0  0
    7.2537  -16.4563   24.8354 C   0  0  0  0  0  0  0  0  0  0  0  0
    6.6653  -15.4461   25.7266 C   0  0  0  0  0  0  0  0  0  0  0  0
    5.5486  -15.6091   26.5604 C   0  0  0  0  0  0  0  0  0  0  0  0
    5.3177  -14.4471   27.1822 N   0  0  0  0  0  0  0  0  0  0  0  0
    6.2317  -13.5461   26.7892 C   0  0  0  0  0  0  0  0  0  0  0  0
    6.3976  -12.2195   27.1681 C   0  0  0  0  0  0  0  0  0  0  0  0
    7.4449  -11.5217   26.6058 C   0  0  0  0  0  0  0  0  0  0  0  0
    8.3079  -12.0978   25.6999 C   0  0  0  0  0  0  0  0  0  0  0  0
    8.1403  -13.4185   25.3244 C   0  0  0  0  0  0  0  0  0  0  0  0
    7.1004  -14.1370   25.8714 C   0  0  0  0  0  0  0  0  0  0  0  0
    7.2185  -16.5067   22.3694 C   0  0  0  0  0  0  0  0  0  0  0  0
    7.9077  -17.4390   21.8293 O   0  0  0  0  0  0  0  0  0  0  0  0
    7.8034  -13.6535   19.9295 C   0  0  0  0  0  0  0  0  0  0  0  0
    7.9941  -15.0342   20.4722 C   0  0  2  0  0  0  0  0  0  0  0  0
    7.2704  -15.2547   21.7108 N   0  0  0  0  0  0  0  0  0  0  0  0
    9.4144  -15.3390   20.5774 C   0  0  0  0  0  0  0  0  0  0  0  0
   10.1778  -15.2245   19.5968 O   0  0  0  0  0  0  0  0  0  0  0  0
   11.6776  -15.1317   24.2573 C   0  0  0  0  0  0  0  0  0  0  0  0
   11.7509  -16.3658   23.4017 C   0  0  1  0  0  0  0  0  0  0  0  0
   10.8190  -17.2782   23.9466 O   0  0  0  0  0  0  0  0  0  0  0  0
   11.3424  -16.1461   21.9810 C   0  0  2  0  0  0  0  0  0  0  0  0
    9.9728  -15.7748   21.7984 N   0  0  0  0  0  0  0  0  0  0  0  0
   11.6142  -17.3764   21.2121 C   0  0  0  0  0  0  0  0  0  0  0  0
   10.6906  -18.0607   20.7065 O   0  0  0  0  0  0  0  0  0  0  0  0
   12.9097  -17.8154   21.0249 O   0  0  0  0  0  0  0  0  0  0  0  0
  2  3  1  0
  2  1  1  1
  4  5  2  0
  4  3  1  0
  6  5  1  0
  7 12  2  0
  7  6  1  0
  8  7  1  0
  9 10  1  0
  9  8  2  0
 10 11  2  0
 11 12  1  0
 12  4  1  0
 13  2  1  0
 14 13  2  0
 16 15  1  1
 16 18  1  0
 16 17  1  0
 17 13  1  0
 18 19  2  0
 21 20  1  1
 22 21  1  0
 23 21  1  0
 23 25  1  0
 23 24  1  1
 24 18  1  0
 25 26  2  0
 25 27  1  0
M  END
$$$$
