WAT.pdb
     RDKit          3D

 27 28  0  0  1  0  0  0  0  0999 V2000
    5.9614  -17.6157   23.4915 N   0  0  0  0  0  0  0  0  0  0  0  0
    6.4739  -16.2965   23.3143 C   0  0  1  0  0  0  0  0  0  0  0  0
    7.5654  -16.0299   24.3211 C   0  0  0  0  0  0  0  0  0  0  0  0
    7.1443  -15.2569   25.4984 C   0  0  0  0  0  0  0  0  0  0  0  0
    6.5169  -15.7549   26.6503 C   0  0  0  0  0  0  0  0  0  0  0  0
    6.2715  -14.7267   27.4706 N   0  0  0  0  0  0  0  0  0  0  0  0
    6.7112  -13.5930   26.9022 C   0  0  0  0  0  0  0  0  0  0  0  0
    6.6836  -12.2875   27.3774 C   0  0  0  0  0  0  0  0  0  0  0  0
    7.2251  -11.3053   26.5758 C   0  0  0  0  0  0  0  0  0  0  0  0
    7.7787  -11.5848   25.3459 C   0  0  0  0  0  0  0  0  0  0  0  0
    7.8047  -12.8853   24.8754 C   0  0  0  0  0  0  0  0  0  0  0  0
    7.2689  -13.8845   25.6572 C   0  0  0  0  0  0  0  0  0  0  0  0
    6.9946  -16.1269   21.9231 C   0  0  0  0  0  0  0  0  0  0  0  0
    7.3050  -17.1520   21.2240 O   0  0  0  0  0  0  0  0  0  0  0  0
    7.7172  -13.3254   19.4609 C   0  0  0  0  0  0  0  0  0  0  0  0
    7.7319  -14.7394   19.9483 C   0  0  2  0  0  0  0  0  0  0  0  0
    7.1833  -14.8776   21.2849 N   0  0  0  0  0  0  0  0  0  0  0  0
    9.0700  -15.2998   19.8183 C   0  0  0  0  0  0  0  0  0  0  0  0
    9.6721  -15.2973   18.7252 O   0  0  0  0  0  0  0  0  0  0  0  0
   12.0807  -15.1290   22.7875 C   0  0  0  0  0  0  0  0  0  0  0  0
   11.7389  -16.4794   22.2219 C   0  0  1  0  0  0  0  0  0  0  0  0
   10.8252  -17.0653   23.1272 O   0  0  0  0  0  0  0  0  0  0  0  0
   11.0447  -16.4270   20.8994 C   0  0  2  0  0  0  0  0  0  0  0  0
    9.7294  -15.8649   20.9312 N   0  0  0  0  0  0  0  0  0  0  0  0
   10.9710  -17.7934   20.3462 C   0  0  0  0  0  0  0  0  0  0  0  0
    9.8737  -18.3726   20.1523 O   0  0  0  0  0  0  0  0  0  0  0  0
   12.1225  -18.4826   20.0222 O   0  0  0  0  0  0  0  0  0  0  0  0
  2  3  1  0
  2  1  1  6
  4  5  2  0
  4  3  1  0
  6  5  1  0
  7 12  2  0
  7  6  1  0
  8  7  1  0
  9 10  1  0
  9  8  2  0
 10 11  2  0
 11 12  1  0
 12  4  1  0
 13  2  1  0
 14 13  2  0
 16 15  1  1
 16 18  1  0
 16 17  1  0
 17 13  1  0
 18 19  2  0
 21 20  1  1
 22 21  1  0
 23 21  1  0
 23 25  1  0
 23 24  1  1
 24 18  1  0
 25 26  2  0
 25 27  1  0
M  END
$$$$
