WAT.pdb
     RDKit          3D

 27 28  0  0  1  0  0  0  0  0999 V2000
    6.6743  -17.6877   24.5831 N   0  0  0  0  0  0  0  0  0  0  0  0
    7.0085  -16.5644   23.7703 C   0  0  1  0  0  0  0  0  0  0  0  0
    7.8652  -15.6005   24.5533 C   0  0  0  0  0  0  0  0  0  0  0  0
    7.1291  -14.7434   25.4937 C   0  0  0  0  0  0  0  0  0  0  0  0
    6.0894  -15.1352   26.3505 C   0  0  0  0  0  0  0  0  0  0  0  0
    5.6676  -14.0547   27.0175 N   0  0  0  0  0  0  0  0  0  0  0  0
    6.3859  -12.9885   26.6316 C   0  0  0  0  0  0  0  0  0  0  0  0
    6.3154  -11.6657   27.0511 C   0  0  0  0  0  0  0  0  0  0  0  0
    7.1968  -10.7693   26.4855 C   0  0  0  0  0  0  0  0  0  0  0  0
    8.1218  -11.1487   25.5380 C   0  0  0  0  0  0  0  0  0  0  0  0
    8.1895  -12.4661   25.1222 C   0  0  0  0  0  0  0  0  0  0  0  0
    7.3189  -13.3809   25.6716 C   0  0  0  0  0  0  0  0  0  0  0  0
    7.7232  -17.0138   22.5364 C   0  0  0  0  0  0  0  0  0  0  0  0
    8.4527  -18.0640   22.5631 O   0  0  0  0  0  0  0  0  0  0  0  0
    8.1614  -15.9333   18.9218 C   0  0  0  0  0  0  0  0  0  0  0  0
    8.5315  -16.6686   20.1707 C   0  0  2  0  0  0  0  0  0  0  0  0
    7.6615  -16.3496   21.2878 N   0  0  0  0  0  0  0  0  0  0  0  0
    9.9429  -16.4690   20.4695 C   0  0  0  0  0  0  0  0  0  0  0  0
   10.5495  -15.4470   20.0886 O   0  0  0  0  0  0  0  0  0  0  0  0
   11.6942  -16.3928   23.9799 C   0  0  0  0  0  0  0  0  0  0  0  0
   12.2372  -17.4898   23.1069 C   0  0  1  0  0  0  0  0  0  0  0  0
   11.5114  -18.6553   23.4425 O   0  0  0  0  0  0  0  0  0  0  0  0
   12.0215  -17.2669   21.6449 C   0  0  2  0  0  0  0  0  0  0  0  0
   10.6705  -17.4307   21.2034 N   0  0  0  0  0  0  0  0  0  0  0  0
   12.8901  -18.1906   20.8895 C   0  0  0  0  0  0  0  0  0  0  0  0
   12.4209  -19.1377   20.2112 O   0  0  0  0  0  0  0  0  0  0  0  0
   14.2620  -18.0373   20.9078 O   0  0  0  0  0  0  0  0  0  0  0  0
  2  3  1  0
  2  1  1  1
  4  5  2  0
  4  3  1  0
  6  5  1  0
  7 12  2  0
  7  6  1  0
  8  7  1  0
  9 10  1  0
  9  8  2  0
 10 11  2  0
 11 12  1  0
 12  4  1  0
 13  2  1  0
 14 13  2  0
 16 15  1  6
 16 18  1  0
 16 17  1  0
 17 13  1  0
 18 19  2  0
 21 20  1  1
 22 21  1  0
 23 21  1  0
 23 25  1  0
 23 24  1  1
 24 18  1  0
 25 26  2  0
 25 27  1  0
M  END
$$$$
