WAT.pdb
     RDKit          3D

 27 28  0  0  1  0  0  0  0  0999 V2000
    6.4461  -18.3078   24.0511 N   0  0  0  0  0  0  0  0  0  0  0  0
    6.6545  -16.9175   23.8101 C   0  0  1  0  0  0  0  0  0  0  0  0
    7.4912  -16.3243   24.9165 C   0  0  0  0  0  0  0  0  0  0  0  0
    6.8017  -15.3234   25.7433 C   0  0  0  0  0  0  0  0  0  0  0  0
    5.5552  -15.4665   26.3713 C   0  0  0  0  0  0  0  0  0  0  0  0
    5.2692  -14.3202   26.9993 N   0  0  0  0  0  0  0  0  0  0  0  0
    6.2712  -13.4482   26.8061 C   0  0  0  0  0  0  0  0  0  0  0  0
    6.4233  -12.1467   27.2685 C   0  0  0  0  0  0  0  0  0  0  0  0
    7.5770  -11.4771   26.9211 C   0  0  0  0  0  0  0  0  0  0  0  0
    8.5566  -12.0571   26.1456 C   0  0  0  0  0  0  0  0  0  0  0  0
    8.4024  -13.3527   25.6865 C   0  0  0  0  0  0  0  0  0  0  0  0
    7.2578  -14.0427   26.0191 C   0  0  0  0  0  0  0  0  0  0  0  0
    7.3210  -16.7166   22.4870 C   0  0  0  0  0  0  0  0  0  0  0  0
    8.0408  -17.6459   21.9826 O   0  0  0  0  0  0  0  0  0  0  0  0
    7.6287  -14.0247   19.8217 C   0  0  0  0  0  0  0  0  0  0  0  0
    7.8726  -15.3719   20.4239 C   0  0  2  0  0  0  0  0  0  0  0  0
    7.2220  -15.5371   21.7107 N   0  0  0  0  0  0  0  0  0  0  0  0
    9.3016  -15.6504   20.4653 C   0  0  0  0  0  0  0  0  0  0  0  0
   10.0008  -15.6146   19.4321 O   0  0  0  0  0  0  0  0  0  0  0  0
   13.2599  -16.8001   23.3422 C   0  0  0  0  0  0  0  0  0  0  0  0
   11.8355  -16.3350   23.2190 C   0  0  1  0  0  0  0  0  0  0  0  0
   11.8133  -15.0049   23.6969 O   0  0  0  0  0  0  0  0  0  0  0  0
   11.3314  -16.2847   21.8130 C   0  0  2  0  0  0  0  0  0  0  0  0
    9.9418  -15.9703   21.6821 N   0  0  0  0  0  0  0  0  0  0  0  0
   11.5935  -17.5855   21.1668 C   0  0  0  0  0  0  0  0  0  0  0  0
   10.6656  -18.3013   20.7153 O   0  0  0  0  0  0  0  0  0  0  0  0
   12.8843  -18.0585   21.0390 O   0  0  0  0  0  0  0  0  0  0  0  0
  2  3  1  0
  2  1  1  1
  4  5  2  0
  4  3  1  0
  6  5  1  0
  7 12  2  0
  7  6  1  0
  8  7  1  0
  9 10  1  0
  9  8  2  0
 10 11  2  0
 11 12  1  0
 12  4  1  0
 13  2  1  0
 14 13  2  0
 16 15  1  1
 16 18  1  0
 16 17  1  0
 17 13  1  0
 18 19  2  0
 21 20  1  6
 22 21  1  0
 23 21  1  0
 23 25  1  0
 23 24  1  1
 24 18  1  0
 25 26  2  0
 25 27  1  0
M  END
$$$$
