WAT.pdb
     RDKit          3D

 27 28  0  0  1  0  0  0  0  0999 V2000
    6.4337  -18.2633   24.6032 N   0  0  0  0  0  0  0  0  0  0  0  0
    6.7165  -16.9111   24.2481 C   0  0  1  0  0  0  0  0  0  0  0  0
    7.5033  -16.2446   25.3493 C   0  0  0  0  0  0  0  0  0  0  0  0
    6.8399  -15.0890   25.9699 C   0  0  0  0  0  0  0  0  0  0  0  0
    5.5591  -15.0624   26.5421 C   0  0  0  0  0  0  0  0  0  0  0  0
    5.3162  -13.8170   26.9664 N   0  0  0  0  0  0  0  0  0  0  0  0
    6.3786  -13.0426   26.6955 C   0  0  0  0  0  0  0  0  0  0  0  0
    6.5899  -11.6942   26.9567 C   0  0  0  0  0  0  0  0  0  0  0  0
    7.7981  -11.1520   26.5740 C   0  0  0  0  0  0  0  0  0  0  0  0
    8.7745  -11.9004   25.9544 C   0  0  0  0  0  0  0  0  0  0  0  0
    8.5613  -13.2423   25.6954 C   0  0  0  0  0  0  0  0  0  0  0  0
    7.3617  -13.8074   26.0673 C   0  0  0  0  0  0  0  0  0  0  0  0
    7.4762  -16.8628   22.9613 C   0  0  0  0  0  0  0  0  0  0  0  0
    8.4088  -17.7081   22.7338 O   0  0  0  0  0  0  0  0  0  0  0  0
    7.6420  -14.7193   19.8275 C   0  0  0  0  0  0  0  0  0  0  0  0
    8.0637  -15.8317   20.7341 C   0  0  2  0  0  0  0  0  0  0  0  0
    7.2447  -15.9224   21.9289 N   0  0  0  0  0  0  0  0  0  0  0  0
    9.4877  -15.7296   21.0229 C   0  0  0  0  0  0  0  0  0  0  0  0
   10.0357  -14.6235   21.2062 O   0  0  0  0  0  0  0  0  0  0  0  0
   11.7435  -16.5910   23.8843 C   0  0  0  0  0  0  0  0  0  0  0  0
   12.0751  -17.4672   22.7084 C   0  0  1  0  0  0  0  0  0  0  0  0
   11.2992  -18.6390   22.8597 O   0  0  0  0  0  0  0  0  0  0  0  0
   11.6970  -16.8807   21.3868 C   0  0  2  0  0  0  0  0  0  0  0  0
   10.2943  -16.8852   21.1049 N   0  0  0  0  0  0  0  0  0  0  0  0
   12.4047  -17.6154   20.3202 C   0  0  0  0  0  0  0  0  0  0  0  0
   11.7984  -18.3669   19.5171 O   0  0  0  0  0  0  0  0  0  0  0  0
   13.7723  -17.4957   20.1736 O   0  0  0  0  0  0  0  0  0  0  0  0
  2  3  1  0
  2  1  1  1
  4  5  2  0
  4  3  1  0
  6  5  1  0
  7 12  2  0
  7  6  1  0
  8  7  1  0
  9 10  1  0
  9  8  2  0
 10 11  2  0
 11 12  1  0
 12  4  1  0
 13  2  1  0
 14 13  2  0
 16 15  1  1
 16 18  1  0
 16 17  1  0
 17 13  1  0
 18 19  2  0
 21 20  1  1
 22 21  1  0
 23 21  1  0
 23 25  1  0
 23 24  1  6
 24 18  1  0
 25 26  2  0
 25 27  1  0
M  END
$$$$
