WAT.pdb
     RDKit          3D

 27 28  0  0  1  0  0  0  0  0999 V2000
    6.5255  -17.2720   24.1581 N   0  0  0  0  0  0  0  0  0  0  0  0
    7.6619  -16.4109   24.1964 C   0  0  1  0  0  0  0  0  0  0  0  0
    7.7309  -15.7103   25.5307 C   0  0  0  0  0  0  0  0  0  0  0  0
    6.7304  -14.6509   25.7244 C   0  0  0  0  0  0  0  0  0  0  0  0
    5.3939  -14.8187   26.1173 C   0  0  0  0  0  0  0  0  0  0  0  0
    4.8121  -13.6143   26.1464 N   0  0  0  0  0  0  0  0  0  0  0  0
    5.7096  -12.6810   25.7922 C   0  0  0  0  0  0  0  0  0  0  0  0
    5.5699  -11.3024   25.6886 C   0  0  0  0  0  0  0  0  0  0  0  0
    6.6781  -10.5757   25.3091 C   0  0  0  0  0  0  0  0  0  0  0  0
    7.8894  -11.1730   25.0381 C   0  0  0  0  0  0  0  0  0  0  0  0
    8.0254  -12.5456   25.1419 C   0  0  0  0  0  0  0  0  0  0  0  0
    6.9323  -13.2941   25.5183 C   0  0  0  0  0  0  0  0  0  0  0  0
    8.9121  -17.1940   23.9531 C   0  0  0  0  0  0  0  0  0  0  0  0
    9.1346  -18.2691   24.6094 O   0  0  0  0  0  0  0  0  0  0  0  0
   12.1371  -16.8215   21.9809 C   0  0  0  0  0  0  0  0  0  0  0  0
   11.3099  -17.2065   23.1661 C   0  0  2  0  0  0  0  0  0  0  0  0
    9.9146  -16.8338   23.0209 N   0  0  0  0  0  0  0  0  0  0  0  0
   11.9152  -16.6929   24.3872 C   0  0  0  0  0  0  0  0  0  0  0  0
   12.6610  -15.6924   24.3716 O   0  0  0  0  0  0  0  0  0  0  0  0
   11.1641  -14.5859   26.9799 C   0  0  0  0  0  0  0  0  0  0  0  0
   11.3365  -15.9253   27.6405 C   0  0  1  0  0  0  0  0  0  0  0  0
   10.0522  -16.5144   27.6768 O   0  0  0  0  0  0  0  0  0  0  0  0
   12.2107  -16.8701   26.8811 C   0  0  2  0  0  0  0  0  0  0  0  0
   11.6746  -17.3148   25.6314 N   0  0  0  0  0  0  0  0  0  0  0  0
   12.4917  -18.0447   27.7296 C   0  0  0  0  0  0  0  0  0  0  0  0
   12.0501  -19.1866   27.4497 O   0  0  0  0  0  0  0  0  0  0  0  0
   13.2585  -17.9191   28.8708 O   0  0  0  0  0  0  0  0  0  0  0  0
  2  3  1  0
  2  1  1  1
  4  5  2  0
  4  3  1  0
  6  5  1  0
  7 12  2  0
  7  6  1  0
  8  7  1  0
  9 10  1  0
  9  8  2  0
 10 11  2  0
 11 12  1  0
 12  4  1  0
 13  2  1  0
 14 13  2  0
 16 15  1  6
 16 18  1  0
 16 17  1  0
 17 13  1  0
 18 19  2  0
 21 20  1  6
 22 21  1  0
 23 21  1  0
 23 25  1  0
 23 24  1  6
 24 18  1  0
 25 26  2  0
 25 27  1  0
M  END
$$$$
