WAT.pdb
     RDKit          3D

 27 28  0  0  1  0  0  0  0  0999 V2000
    5.9039  -17.2077   24.0647 N   0  0  0  0  0  0  0  0  0  0  0  0
    6.5286  -15.9795   23.6963 C   0  0  1  0  0  0  0  0  0  0  0  0
    7.7708  -15.7661   24.5254 C   0  0  0  0  0  0  0  0  0  0  0  0
    7.5534  -15.0495   25.7904 C   0  0  0  0  0  0  0  0  0  0  0  0
    7.3650  -15.6204   27.0581 C   0  0  0  0  0  0  0  0  0  0  0  0
    7.1700  -14.6311   27.9376 N   0  0  0  0  0  0  0  0  0  0  0  0
    7.2248  -13.4529   27.2969 C   0  0  0  0  0  0  0  0  0  0  0  0
    7.0912  -12.1611   27.7914 C   0  0  0  0  0  0  0  0  0  0  0  0
    7.2061  -11.1200   26.8953 C   0  0  0  0  0  0  0  0  0  0  0  0
    7.4448  -11.3289   25.5549 C   0  0  0  0  0  0  0  0  0  0  0  0
    7.5772  -12.6159   25.0654 C   0  0  0  0  0  0  0  0  0  0  0  0
    7.4654  -13.6733   25.9406 C   0  0  0  0  0  0  0  0  0  0  0  0
    6.8684  -15.9889   22.2404 C   0  0  0  0  0  0  0  0  0  0  0  0
    6.8892  -17.0917   21.5927 O   0  0  0  0  0  0  0  0  0  0  0  0
    7.4657  -13.5530   19.4104 C   0  0  0  0  0  0  0  0  0  0  0  0
    7.5853  -14.8802   20.0896 C   0  0  2  0  0  0  0  0  0  0  0  0
    7.1838  -14.8349   21.4837 N   0  0  0  0  0  0  0  0  0  0  0  0
    8.9233  -15.4224   19.8969 C   0  0  0  0  0  0  0  0  0  0  0  0
    9.4003  -15.5848   18.7552 O   0  0  0  0  0  0  0  0  0  0  0  0
   12.1848  -15.1426   22.7366 C   0  0  0  0  0  0  0  0  0  0  0  0
   11.7678  -16.4809   22.1931 C   0  0  1  0  0  0  0  0  0  0  0  0
   10.8821  -17.0338   23.1459 O   0  0  0  0  0  0  0  0  0  0  0  0
   11.0088  -16.4059   20.9079 C   0  0  2  0  0  0  0  0  0  0  0  0
    9.7249  -15.7817   21.0019 N   0  0  0  0  0  0  0  0  0  0  0  0
   10.8422  -17.7715   20.3733 C   0  0  0  0  0  0  0  0  0  0  0  0
    9.7111  -18.3042   20.2541 O   0  0  0  0  0  0  0  0  0  0  0  0
   11.9405  -18.5119   19.9840 O   0  0  0  0  0  0  0  0  0  0  0  0
  2  3  1  0
  2  1  1  1
  4  5  2  0
  4  3  1  0
  6  5  1  0
  7 12  2  0
  7  6  1  0
  8  7  1  0
  9 10  1  0
  9  8  2  0
 10 11  2  0
 11 12  1  0
 12  4  1  0
 13  2  1  0
 14 13  2  0
 16 15  1  1
 16 18  1  0
 16 17  1  0
 17 13  1  0
 18 19  2  0
 21 20  1  1
 22 21  1  0
 23 21  1  0
 23 25  1  0
 23 24  1  1
 24 18  1  0
 25 26  2  0
 25 27  1  0
M  END
$$$$
