WAM.pdb
     RDKit          3D

 28 29  0  0  1  0  0  0  0  0999 V2000
    6.4250  -18.2618   23.3417 N   0  0  0  0  0  0  0  0  0  0  0  0
    7.2772  -17.1065   23.4838 C   0  0  1  0  0  0  0  0  0  0  0  0
    7.4301  -16.7564   24.9650 C   0  0  0  0  0  0  0  0  0  0  0  0
    6.7153  -15.5259   25.3179 C   0  0  0  0  0  0  0  0  0  0  0  0
    5.6542  -15.4134   26.1914 C   0  0  0  0  0  0  0  0  0  0  0  0
    5.2930  -14.1189   26.2308 N   0  0  0  0  0  0  0  0  0  0  0  0
    6.0853  -13.3975   25.4133 C   0  0  0  0  0  0  0  0  0  0  0  0
    6.1362  -12.0441   25.0942 C   0  0  0  0  0  0  0  0  0  0  0  0
    7.0896  -11.6041   24.1999 C   0  0  0  0  0  0  0  0  0  0  0  0
    7.9746  -12.4725   23.6302 C   0  0  0  0  0  0  0  0  0  0  0  0
    7.9511  -13.8359   23.9283 C   0  0  0  0  0  0  0  0  0  0  0  0
    6.9936  -14.2743   24.8258 C   0  0  0  0  0  0  0  0  0  0  0  0
    8.6296  -17.4114   22.9848 C   0  0  0  0  0  0  0  0  0  0  0  0
    9.0850  -18.5860   22.9690 O   0  0  0  0  0  0  0  0  0  0  0  0
   11.1602  -15.4346   21.1131 C   0  0  0  0  0  0  0  0  0  0  0  0
   10.7900  -16.6419   21.9493 C   0  0  2  0  0  0  0  0  0  0  0  0
    9.4612  -16.3705   22.5032 N   0  0  0  0  0  0  0  0  0  0  0  0
   11.7690  -16.7960   23.0542 C   0  0  0  0  0  0  0  0  0  0  0  0
   12.9658  -17.1171   22.8583 O   0  0  0  0  0  0  0  0  0  0  0  0
    9.6012  -13.4967   28.8676 C   0  0  0  0  0  0  0  0  0  0  0  0
   11.2094  -13.9117   28.1699 S   0  0  0  0  0  0  0  0  0  0  0  0
   11.0339  -15.3546   27.0580 C   0  0  0  0  0  0  0  0  0  0  0  0
   12.3451  -15.5116   26.3437 C   0  0  0  0  0  0  0  0  0  0  0  0
   12.3191  -16.7221   25.4882 C   0  0  2  0  0  0  0  0  0  0  0  0
   11.3649  -16.5788   24.3868 N   0  0  0  0  0  0  0  0  0  0  0  0
   12.0198  -17.9256   26.2673 C   0  0  0  0  0  0  0  0  0  0  0  0
   12.7736  -18.4435   27.2906 O   0  0  0  0  0  0  0  0  0  0  0  0
   10.9561  -18.5792   25.9829 O   0  0  0  0  0  0  0  0  0  0  0  0
  2 13  1  0
  2  1  1  1
  3  2  1  0
  4 12  1  0
  4  3  1  0
  5  4  2  0
  6  5  1  0
  6  7  1  0
  7  8  1  0
  7 12  2  0
  8  9  2  0
  9 10  1  0
 11 10  2  0
 12 11  1  0
 13 14  2  0
 16 15  1  6
 17 16  1  0
 17 13  1  0
 18 16  1  0
 19 18  2  0
 21 20  1  0
 22 23  1  0
 22 21  1  0
 24 23  1  1
 24 25  1  0
 25 18  1  0
 26 24  1  0
 26 27  1  0
 28 26  2  0
M  END
$$$$
