WAM.pdb
     RDKit          3D

 28 29  0  0  1  0  0  0  0  0999 V2000
    6.7959  -17.6098   24.9747 N   0  0  0  0  0  0  0  0  0  0  0  0
    7.5820  -16.6661   24.2178 C   0  0  1  0  0  0  0  0  0  0  0  0
    8.1408  -15.5920   25.1527 C   0  0  0  0  0  0  0  0  0  0  0  0
    7.1056  -14.6529   25.5955 C   0  0  0  0  0  0  0  0  0  0  0  0
    6.0838  -14.9148   26.4838 C   0  0  0  0  0  0  0  0  0  0  0  0
    5.3586  -13.7904   26.6153 N   0  0  0  0  0  0  0  0  0  0  0  0
    5.8796  -12.8166   25.8426 C   0  0  0  0  0  0  0  0  0  0  0  0
    5.5204  -11.4914   25.6170 C   0  0  0  0  0  0  0  0  0  0  0  0
    6.2760  -10.7335   24.7470 C   0  0  0  0  0  0  0  0  0  0  0  0
    7.3608  -11.2634   24.1113 C   0  0  0  0  0  0  0  0  0  0  0  0
    7.7486  -12.5886   24.3150 C   0  0  0  0  0  0  0  0  0  0  0  0
    6.9887  -13.3464   25.1884 C   0  0  0  0  0  0  0  0  0  0  0  0
    8.7445  -17.3433   23.6172 C   0  0  0  0  0  0  0  0  0  0  0  0
    9.2428  -18.3849   24.1211 O   0  0  0  0  0  0  0  0  0  0  0  0
   10.9068  -16.5868   20.6570 C   0  0  0  0  0  0  0  0  0  0  0  0
   10.6640  -17.2590   21.9922 C   0  0  2  0  0  0  0  0  0  0  0  0
    9.3370  -16.8274   22.4382 N   0  0  0  0  0  0  0  0  0  0  0  0
   11.6889  -16.8072   22.9660 C   0  0  0  0  0  0  0  0  0  0  0  0
   12.2404  -15.6825   22.8955 O   0  0  0  0  0  0  0  0  0  0  0  0
    8.9393  -15.9258   28.5323 C   0  0  0  0  0  0  0  0  0  0  0  0
   10.5918  -15.5242   27.9378 S   0  0  0  0  0  0  0  0  0  0  0  0
   11.0837  -16.7305   26.6526 C   0  0  0  0  0  0  0  0  0  0  0  0
   12.2361  -16.1219   25.9072 C   0  0  0  0  0  0  0  0  0  0  0  0
   12.9292  -17.1575   25.1041 C   0  0  2  0  0  0  0  0  0  0  0  0
   12.0770  -17.6554   24.0225 N   0  0  0  0  0  0  0  0  0  0  0  0
   13.3907  -18.2678   25.9404 C   0  0  0  0  0  0  0  0  0  0  0  0
   14.3376  -18.2037   26.9318 O   0  0  0  0  0  0  0  0  0  0  0  0
   12.8772  -19.4243   25.7446 O   0  0  0  0  0  0  0  0  0  0  0  0
  2 13  1  0
  2  1  1  1
  3  2  1  0
  4 12  1  0
  4  3  1  0
  5  4  2  0
  6  5  1  0
  6  7  1  0
  7  8  1  0
  7 12  2  0
  8  9  2  0
  9 10  1  0
 11 10  2  0
 12 11  1  0
 13 14  2  0
 16 15  1  6
 17 16  1  0
 17 13  1  0
 18 16  1  0
 19 18  2  0
 21 20  1  0
 22 23  1  0
 22 21  1  0
 24 23  1  1
 24 25  1  0
 25 18  1  0
 26 24  1  0
 26 27  1  0
 28 26  2  0
M  END
$$$$
