WAM.pdb
     RDKit          3D

 28 29  0  0  1  0  0  0  0  0999 V2000
    6.9763  -18.1089   24.7530 N   0  0  0  0  0  0  0  0  0  0  0  0
    7.5845  -16.9121   24.2249 C   0  0  1  0  0  0  0  0  0  0  0  0
    7.9949  -15.9905   25.3748 C   0  0  0  0  0  0  0  0  0  0  0  0
    6.9381  -15.0346   25.7201 C   0  0  0  0  0  0  0  0  0  0  0  0
    5.7726  -15.3093   26.4040 C   0  0  0  0  0  0  0  0  0  0  0  0
    5.0806  -14.1615   26.5095 N   0  0  0  0  0  0  0  0  0  0  0  0
    5.7615  -13.1603   25.9173 C   0  0  0  0  0  0  0  0  0  0  0  0
    5.4977  -11.8046   25.7485 C   0  0  0  0  0  0  0  0  0  0  0  0
    6.4175  -11.0233   25.0807 C   0  0  0  0  0  0  0  0  0  0  0  0
    7.5716  -11.5596   24.5886 C   0  0  0  0  0  0  0  0  0  0  0  0
    7.8672  -12.9153   24.7405 C   0  0  0  0  0  0  0  0  0  0  0  0
    6.9426  -13.6965   25.4109 C   0  0  0  0  0  0  0  0  0  0  0  0
    8.8213  -17.2513   23.4995 C   0  0  0  0  0  0  0  0  0  0  0  0
    9.3986  -18.3610   23.6492 O   0  0  0  0  0  0  0  0  0  0  0  0
   10.8134  -15.5110   20.8591 C   0  0  0  0  0  0  0  0  0  0  0  0
   10.6464  -16.6060   21.8919 C   0  0  2  0  0  0  0  0  0  0  0  0
    9.3975  -16.3190   22.6018 N   0  0  0  0  0  0  0  0  0  0  0  0
   11.7832  -16.5629   22.8452 C   0  0  0  0  0  0  0  0  0  0  0  0
   12.9769  -16.6922   22.4815 O   0  0  0  0  0  0  0  0  0  0  0  0
    9.3506  -14.3914   28.3337 C   0  0  0  0  0  0  0  0  0  0  0  0
   10.7749  -15.4496   28.6452 S   0  0  0  0  0  0  0  0  0  0  0  0
   11.1779  -16.3867   27.1260 C   0  0  0  0  0  0  0  0  0  0  0  0
   12.2627  -15.6234   26.4225 C   0  0  0  0  0  0  0  0  0  0  0  0
   12.6510  -16.3214   25.1736 C   0  0  2  0  0  0  0  0  0  0  0  0
   11.5408  -16.3699   24.2200 N   0  0  0  0  0  0  0  0  0  0  0  0
   13.1487  -17.6720   25.4441 C   0  0  0  0  0  0  0  0  0  0  0  0
   12.6021  -18.8481   24.9952 O   0  0  0  0  0  0  0  0  0  0  0  0
   14.1949  -17.7947   26.1721 O   0  0  0  0  0  0  0  0  0  0  0  0
  2 13  1  0
  2  1  1  1
  3  2  1  0
  4 12  1  0
  4  3  1  0
  5  4  2  0
  6  5  1  0
  6  7  1  0
  7  8  1  0
  7 12  2  0
  8  9  2  0
  9 10  1  0
 11 10  2  0
 12 11  1  0
 13 14  2  0
 16 15  1  6
 17 16  1  0
 17 13  1  0
 18 16  1  0
 19 18  2  0
 21 20  1  0
 22 23  1  0
 22 21  1  0
 24 23  1  1
 24 25  1  0
 25 18  1  0
 26 24  1  0
 26 27  1  0
 28 26  2  0
M  END
$$$$
