WAM.pdb
     RDKit          3D

 28 29  0  0  1  0  0  0  0  0999 V2000
    6.6073  -17.7473   23.8057 N   0  0  0  0  0  0  0  0  0  0  0  0
    7.5882  -16.7054   23.6233 C   0  0  1  0  0  0  0  0  0  0  0  0
    8.0009  -16.1405   24.9837 C   0  0  0  0  0  0  0  0  0  0  0  0
    6.9960  -15.2220   25.5278 C   0  0  0  0  0  0  0  0  0  0  0  0
    5.8373  -15.5697   26.1897 C   0  0  0  0  0  0  0  0  0  0  0  0
    5.1989  -14.4335   26.5203 N   0  0  0  0  0  0  0  0  0  0  0  0
    5.9077  -13.3694   26.0935 C   0  0  0  0  0  0  0  0  0  0  0  0
    5.6991  -11.9963   26.1772 C   0  0  0  0  0  0  0  0  0  0  0  0
    6.6348  -11.1440   25.6292 C   0  0  0  0  0  0  0  0  0  0  0  0
    7.7516  -11.6275   25.0121 C   0  0  0  0  0  0  0  0  0  0  0  0
    7.9915  -12.9987   24.9107 C   0  0  0  0  0  0  0  0  0  0  0  0
    7.0510  -13.8512   25.4614 C   0  0  0  0  0  0  0  0  0  0  0  0
    8.8090  -17.2613   23.0139 C   0  0  0  0  0  0  0  0  0  0  0  0
    9.0849  -18.4890   23.0753 O   0  0  0  0  0  0  0  0  0  0  0  0
   11.4301  -15.8931   20.7571 C   0  0  0  0  0  0  0  0  0  0  0  0
   10.9731  -16.9145   21.7776 C   0  0  2  0  0  0  0  0  0  0  0  0
    9.7148  -16.4106   22.3334 N   0  0  0  0  0  0  0  0  0  0  0  0
   11.9871  -17.0222   22.8562 C   0  0  0  0  0  0  0  0  0  0  0  0
   13.1252  -17.5156   22.6687 O   0  0  0  0  0  0  0  0  0  0  0  0
    9.7479  -13.5027   28.5058 C   0  0  0  0  0  0  0  0  0  0  0  0
   11.3891  -13.8471   27.8475 S   0  0  0  0  0  0  0  0  0  0  0  0
   11.3104  -15.3180   26.7617 C   0  0  0  0  0  0  0  0  0  0  0  0
   12.6452  -15.4256   26.0826 C   0  0  0  0  0  0  0  0  0  0  0  0
   12.6844  -16.6317   25.2214 C   0  0  2  0  0  0  0  0  0  0  0  0
   11.6858  -16.5592   24.1529 N   0  0  0  0  0  0  0  0  0  0  0  0
   12.5054  -17.8573   26.0029 C   0  0  0  0  0  0  0  0  0  0  0  0
   13.4182  -18.4189   26.8602 O   0  0  0  0  0  0  0  0  0  0  0  0
   11.3967  -18.4879   25.8903 O   0  0  0  0  0  0  0  0  0  0  0  0
  2 13  1  0
  2  1  1  1
  3  2  1  0
  4 12  1  0
  4  3  1  0
  5  4  2  0
  6  5  1  0
  6  7  1  0
  7  8  1  0
  7 12  2  0
  8  9  2  0
  9 10  1  0
 11 10  2  0
 12 11  1  0
 13 14  2  0
 16 15  1  6
 17 16  1  0
 17 13  1  0
 18 16  1  0
 19 18  2  0
 21 20  1  0
 22 23  1  0
 22 21  1  0
 24 23  1  1
 24 25  1  0
 25 18  1  0
 26 24  1  0
 26 27  1  0
 28 26  2  0
M  END
$$$$
