WAM.pdb
     RDKit          3D

 28 29  0  0  1  0  0  0  0  0999 V2000
    6.4891  -18.6258   22.8524 N   0  0  0  0  0  0  0  0  0  0  0  0
    7.5529  -17.6641   22.6956 C   0  0  1  0  0  0  0  0  0  0  0  0
    7.0306  -16.2606   23.0077 C   0  0  0  0  0  0  0  0  0  0  0  0
    6.7067  -15.5091   21.7912 C   0  0  0  0  0  0  0  0  0  0  0  0
    5.6159  -15.7042   20.9705 C   0  0  0  0  0  0  0  0  0  0  0  0
    5.6930  -14.8105   19.9690 N   0  0  0  0  0  0  0  0  0  0  0  0
    6.7951  -14.0492   20.1188 C   0  0  0  0  0  0  0  0  0  0  0  0
    7.3309  -13.0008   19.3772 C   0  0  0  0  0  0  0  0  0  0  0  0
    8.5027  -12.4115   19.8038 C   0  0  0  0  0  0  0  0  0  0  0  0
    9.1361  -12.8408   20.9336 C   0  0  0  0  0  0  0  0  0  0  0  0
    8.6259  -13.8895   21.7004 C   0  0  0  0  0  0  0  0  0  0  0  0
    7.4502  -14.4787   21.2700 C   0  0  0  0  0  0  0  0  0  0  0  0
    8.6272  -17.9357   23.6665 C   0  0  0  0  0  0  0  0  0  0  0  0
    8.3839  -18.3509   24.8309 O   0  0  0  0  0  0  0  0  0  0  0  0
   12.3349  -18.1144   23.4046 C   0  0  0  0  0  0  0  0  0  0  0  0
   11.0766  -17.9996   24.2396 C   0  0  2  0  0  0  0  0  0  0  0  0
    9.9815  -17.7320   23.3040 N   0  0  0  0  0  0  0  0  0  0  0  0
   11.2136  -16.8638   25.1851 C   0  0  0  0  0  0  0  0  0  0  0  0
   11.5113  -15.7038   24.8112 O   0  0  0  0  0  0  0  0  0  0  0  0
    8.5717  -11.5101   26.4189 C   0  0  0  0  0  0  0  0  0  0  0  0
    7.9228  -13.0324   27.1311 S   0  0  0  0  0  0  0  0  0  0  0  0
    9.2961  -13.9892   27.8709 C   0  0  0  0  0  0  0  0  0  0  0  0
    9.5933  -15.1186   26.9273 C   0  0  0  0  0  0  0  0  0  0  0  0
   10.7119  -15.9396   27.4494 C   0  0  2  0  0  0  0  0  0  0  0  0
   11.0063  -17.0682   26.5640 N   0  0  0  0  0  0  0  0  0  0  0  0
   10.4420  -16.4156   28.8079 C   0  0  0  0  0  0  0  0  0  0  0  0
   10.6340  -15.7136   29.9715 O   0  0  0  0  0  0  0  0  0  0  0  0
    9.9837  -17.6026   28.9512 O   0  0  0  0  0  0  0  0  0  0  0  0
  2 13  1  0
  2  1  1  1
  3  2  1  0
  4 12  1  0
  4  3  1  0
  5  4  2  0
  6  5  1  0
  6  7  1  0
  7  8  1  0
  7 12  2  0
  8  9  2  0
  9 10  1  0
 11 10  2  0
 12 11  1  0
 13 14  2  0
 16 15  1  6
 17 16  1  0
 17 13  1  0
 18 16  1  0
 19 18  2  0
 21 20  1  0
 22 23  1  0
 22 21  1  0
 24 23  1  6
 24 25  1  0
 25 18  1  0
 26 24  1  0
 26 27  1  0
 28 26  2  0
M  END
$$$$
