WAM.pdb
     RDKit          3D

 28 29  0  0  1  0  0  0  0  0999 V2000
    6.1439  -18.7229   24.1344 N   0  0  0  0  0  0  0  0  0  0  0  0
    6.4491  -17.3147   24.0644 C   0  0  1  0  0  0  0  0  0  0  0  0
    6.9344  -16.8229   25.4293 C   0  0  0  0  0  0  0  0  0  0  0  0
    6.2598  -15.5886   25.8429 C   0  0  0  0  0  0  0  0  0  0  0  0
    4.9275  -15.4500   26.1704 C   0  0  0  0  0  0  0  0  0  0  0  0
    4.7173  -14.1613   26.4905 N   0  0  0  0  0  0  0  0  0  0  0  0
    5.8682  -13.4685   26.3798 C   0  0  0  0  0  0  0  0  0  0  0  0
    6.1944  -12.1325   26.5912 C   0  0  0  0  0  0  0  0  0  0  0  0
    7.4956  -11.7226   26.3882 C   0  0  0  0  0  0  0  0  0  0  0  0
    8.4569  -12.6037   25.9863 C   0  0  0  0  0  0  0  0  0  0  0  0
    8.1636  -13.9503   25.7653 C   0  0  0  0  0  0  0  0  0  0  0  0
    6.8575  -14.3585   25.9698 C   0  0  0  0  0  0  0  0  0  0  0  0
    7.5554  -17.0834   23.1194 C   0  0  0  0  0  0  0  0  0  0  0  0
    8.4311  -17.9599   22.8911 O   0  0  0  0  0  0  0  0  0  0  0  0
    8.4399  -14.2323   20.8611 C   0  0  0  0  0  0  0  0  0  0  0  0
    8.7154  -15.6000   21.4503 C   0  0  2  0  0  0  0  0  0  0  0  0
    7.6592  -15.8475   22.4348 N   0  0  0  0  0  0  0  0  0  0  0  0
   10.0360  -15.5887   22.1277 C   0  0  0  0  0  0  0  0  0  0  0  0
   11.1045  -15.3291   21.5237 O   0  0  0  0  0  0  0  0  0  0  0  0
   12.1290  -14.1746   28.5050 C   0  0  0  0  0  0  0  0  0  0  0  0
   10.4912  -14.4053   27.7909 S   0  0  0  0  0  0  0  0  0  0  0  0
   10.6300  -14.4841   25.9680 C   0  0  0  0  0  0  0  0  0  0  0  0
   11.2875  -15.7937   25.6410 C   0  0  0  0  0  0  0  0  0  0  0  0
   11.4236  -15.9444   24.1724 C   0  0  2  0  0  0  0  0  0  0  0  0
   10.1222  -15.8774   23.5045 N   0  0  0  0  0  0  0  0  0  0  0  0
   12.1126  -17.1880   23.8204 C   0  0  0  0  0  0  0  0  0  0  0  0
   13.4486  -17.4554   23.9857 O   0  0  0  0  0  0  0  0  0  0  0  0
   11.4226  -18.1341   23.3026 O   0  0  0  0  0  0  0  0  0  0  0  0
  2 13  1  0
  2  1  1  1
  3  2  1  0
  4 12  1  0
  4  3  1  0
  5  4  2  0
  6  5  1  0
  6  7  1  0
  7  8  1  0
  7 12  2  0
  8  9  2  0
  9 10  1  0
 11 10  2  0
 12 11  1  0
 13 14  2  0
 16 15  1  1
 17 16  1  0
 17 13  1  0
 18 16  1  0
 19 18  2  0
 21 20  1  0
 22 23  1  0
 22 21  1  0
 24 23  1  1
 24 25  1  0
 25 18  1  0
 26 24  1  0
 26 27  1  0
 28 26  2  0
M  END
$$$$
