WAM.pdb
     RDKit          3D

 28 29  0  0  1  0  0  0  0  0999 V2000
    6.3210  -17.6799   25.1180 N   0  0  0  0  0  0  0  0  0  0  0  0
    7.3823  -16.9457   24.4733 C   0  0  1  0  0  0  0  0  0  0  0  0
    7.7920  -15.7574   25.3452 C   0  0  0  0  0  0  0  0  0  0  0  0
    7.1131  -14.5205   24.9467 C   0  0  0  0  0  0  0  0  0  0  0  0
    6.1981  -13.8080   25.6928 C   0  0  0  0  0  0  0  0  0  0  0  0
    5.8183  -12.7431   24.9653 N   0  0  0  0  0  0  0  0  0  0  0  0
    6.4578  -12.7477   23.7788 C   0  0  0  0  0  0  0  0  0  0  0  0
    6.4281  -11.8912   22.6826 C   0  0  0  0  0  0  0  0  0  0  0  0
    7.2211  -12.1761   21.5907 C   0  0  0  0  0  0  0  0  0  0  0  0
    8.0263  -13.2775   21.5735 C   0  0  0  0  0  0  0  0  0  0  0  0
    8.0801  -14.1571   22.6560 C   0  0  0  0  0  0  0  0  0  0  0  0
    7.2835  -13.8686   23.7499 C   0  0  0  0  0  0  0  0  0  0  0  0
    8.5772  -17.7972   24.3392 C   0  0  0  0  0  0  0  0  0  0  0  0
    8.8805  -18.6610   25.2046 O   0  0  0  0  0  0  0  0  0  0  0  0
   11.4218  -17.7295   21.9072 C   0  0  0  0  0  0  0  0  0  0  0  0
   10.8068  -18.1474   23.2266 C   0  0  2  0  0  0  0  0  0  0  0  0
    9.4255  -17.6596   23.2130 N   0  0  0  0  0  0  0  0  0  0  0  0
   11.5502  -17.5093   24.3417 C   0  0  0  0  0  0  0  0  0  0  0  0
   11.9244  -16.3124   24.3084 O   0  0  0  0  0  0  0  0  0  0  0  0
   10.5522  -13.2170   27.8896 C   0  0  0  0  0  0  0  0  0  0  0  0
   10.2042  -14.7294   28.8044 S   0  0  0  0  0  0  0  0  0  0  0  0
   11.5080  -15.9644   28.4528 C   0  0  0  0  0  0  0  0  0  0  0  0
   11.1556  -16.6031   27.1406 C   0  0  0  0  0  0  0  0  0  0  0  0
   12.2004  -17.5801   26.7510 C   0  0  2  0  0  0  0  0  0  0  0  0
   11.8612  -18.2549   25.4965 N   0  0  0  0  0  0  0  0  0  0  0  0
   12.4391  -18.5638   27.8095 C   0  0  0  0  0  0  0  0  0  0  0  0
   12.2569  -19.9210   27.7182 O   0  0  0  0  0  0  0  0  0  0  0  0
   12.8569  -18.1402   28.9433 O   0  0  0  0  0  0  0  0  0  0  0  0
  2 13  1  0
  2  1  1  1
  3  2  1  0
  4 12  1  0
  4  3  1  0
  5  4  2  0
  6  5  1  0
  6  7  1  0
  7  8  1  0
  7 12  2  0
  8  9  2  0
  9 10  1  0
 11 10  2  0
 12 11  1  0
 13 14  2  0
 16 15  1  6
 17 16  1  0
 17 13  1  0
 18 16  1  0
 19 18  2  0
 21 20  1  0
 22 23  1  0
 22 21  1  0
 24 23  1  1
 24 25  1  0
 25 18  1  0
 26 24  1  0
 26 27  1  0
 28 26  2  0
M  END
$$$$
