VEP.pdb
     RDKit          3D

 24 24  0  0  1  0  0  0  0  0999 V2000
    7.4453  -12.8617   20.4735 C   0  0  0  0  0  0  0  0  0  0  0  0
    8.5174  -13.2283   19.5067 C   0  0  2  0  0  0  0  0  0  0  0  0
    8.6014  -12.2320   18.3813 C   0  0  0  0  0  0  0  0  0  0  0  0
    8.4366  -14.6486   19.0086 C   0  0  2  0  0  0  0  0  0  0  0  0
    7.2461  -14.7171   18.1520 N   0  0  0  0  0  0  0  0  0  0  0  0
    8.3624  -15.6454   20.0773 C   0  0  0  0  0  0  0  0  0  0  0  0
    7.2500  -15.9454   20.5669 O   0  0  0  0  0  0  0  0  0  0  0  0
    9.5175  -16.2897   20.5830 N   0  0  0  0  0  0  0  0  0  0  0  0
    9.4209  -17.2624   21.6934 C   0  0  1  0  0  0  0  0  0  0  0  0
   10.4192  -18.3531   21.3543 C   0  0  0  0  0  0  0  0  0  0  0  0
   10.3753  -19.3985   22.4193 C   0  0  0  0  0  0  0  0  0  0  0  0
   11.3480  -20.5159   22.1209 C   0  0  0  0  0  0  0  0  0  0  0  0
   10.9408  -21.5272   21.4993 O   0  0  0  0  0  0  0  0  0  0  0  0
    9.7816  -16.6128   22.9723 C   0  0  0  0  0  0  0  0  0  0  0  0
   10.9894  -16.1391   22.9884 O   0  0  0  0  0  0  0  0  0  0  0  0
   12.6684  -20.4707   22.5043 O   0  0  0  0  0  0  0  0  0  0  0  0
    8.9616  -16.4755   24.1039 N   0  0  0  0  0  0  0  0  0  0  0  0
    7.5515  -16.9025   24.0983 C   0  0  0  0  0  0  0  0  0  0  0  0
    7.1905  -16.9812   25.5732 C   0  0  0  0  0  0  0  0  0  0  0  0
    7.9599  -15.8016   26.1567 C   0  0  0  0  0  0  0  0  0  0  0  0
    9.2868  -15.9411   25.3965 C   0  0  1  0  0  0  0  0  0  0  0  0
   10.1669  -16.8657   26.1679 C   0  0  0  0  0  0  0  0  0  0  0  0
   10.8074  -16.4168   27.2933 O   0  0  0  0  0  0  0  0  0  0  0  0
   10.3011  -18.0311   25.7701 O   0  0  0  0  0  0  0  0  0  0  0  0
  2  1  1  6
  2  3  1  0
  4  2  1  0
  4  6  1  0
  4  5  1  6
  6  7  2  0
  8  6  1  0
  8  9  1  0
  9 10  1  6
 10 11  1  0
 12 16  1  0
 12 11  1  0
 13 12  2  0
 14  9  1  0
 14 15  2  0
 17 21  1  0
 17 14  1  0
 18 17  1  0
 19 20  1  0
 19 18  1  0
 20 21  1  0
 21 22  1  1
 22 24  2  0
 22 23  1  0
M  END
$$$$
