VEP.pdb
     RDKit          3D

 24 24  0  0  1  0  0  0  0  0999 V2000
    9.2076  -12.3722   20.2815 C   0  0  0  0  0  0  0  0  0  0  0  0
    8.5303  -13.3607   19.3967 C   0  0  2  0  0  0  0  0  0  0  0  0
    7.0945  -12.9803   19.1521 C   0  0  0  0  0  0  0  0  0  0  0  0
    8.6740  -14.7911   19.8500 C   0  0  2  0  0  0  0  0  0  0  0  0
    8.1808  -15.6241   18.7461 N   0  0  0  0  0  0  0  0  0  0  0  0
    7.9534  -15.0931   21.0873 C   0  0  0  0  0  0  0  0  0  0  0  0
    6.7576  -15.4597   21.0327 O   0  0  0  0  0  0  0  0  0  0  0  0
    8.5679  -14.9842   22.3583 N   0  0  0  0  0  0  0  0  0  0  0  0
    7.8206  -15.3046   23.5941 C   0  0  1  0  0  0  0  0  0  0  0  0
    7.9701  -16.8037   23.7716 C   0  0  0  0  0  0  0  0  0  0  0  0
    9.4168  -17.1291   23.9456 C   0  0  0  0  0  0  0  0  0  0  0  0
    9.6058  -18.5899   24.2842 C   0  0  0  0  0  0  0  0  0  0  0  0
    9.9378  -19.3874   23.3739 O   0  0  0  0  0  0  0  0  0  0  0  0
    8.4098  -14.5878   24.7460 C   0  0  0  0  0  0  0  0  0  0  0  0
    9.6906  -14.7601   24.8614 O   0  0  0  0  0  0  0  0  0  0  0  0
    9.4282  -19.0845   25.5556 O   0  0  0  0  0  0  0  0  0  0  0  0
    7.7272  -13.7790   25.6689 N   0  0  0  0  0  0  0  0  0  0  0  0
    6.2607  -13.6384   25.6436 C   0  0  0  0  0  0  0  0  0  0  0  0
    5.9279  -13.0641   27.0115 C   0  0  0  0  0  0  0  0  0  0  0  0
    7.0996  -12.1208   27.2589 C   0  0  0  0  0  0  0  0  0  0  0  0
    8.2579  -12.9867   26.7425 C   0  0  1  0  0  0  0  0  0  0  0  0
    8.7369  -13.8383   27.8693 C   0  0  0  0  0  0  0  0  0  0  0  0
    8.4815  -15.1848   27.8626 O   0  0  0  0  0  0  0  0  0  0  0  0
    9.3616  -13.3042   28.7961 O   0  0  0  0  0  0  0  0  0  0  0  0
  2  1  1  1
  2  3  1  0
  4  2  1  0
  4  6  1  0
  4  5  1  6
  6  7  2  0
  8  6  1  0
  8  9  1  0
  9 10  1  1
 10 11  1  0
 12 16  1  0
 12 11  1  0
 13 12  2  0
 14  9  1  0
 14 15  2  0
 17 21  1  0
 17 14  1  0
 18 17  1  0
 19 20  1  0
 19 18  1  0
 20 21  1  0
 21 22  1  1
 22 24  2  0
 22 23  1  0
M  END
$$$$
