VEP.pdb
     RDKit          3D

 24 24  0  0  1  0  0  0  0  0999 V2000
    7.6402  -12.5150   19.9047 C   0  0  0  0  0  0  0  0  0  0  0  0
    8.6380  -13.6168   19.8092 C   0  0  2  0  0  0  0  0  0  0  0  0
    9.3502  -13.5946   18.4832 C   0  0  0  0  0  0  0  0  0  0  0  0
    8.0829  -14.9791   20.1377 C   0  0  2  0  0  0  0  0  0  0  0  0
    7.1102  -15.2922   19.0835 N   0  0  0  0  0  0  0  0  0  0  0  0
    7.4574  -15.0586   21.4582 C   0  0  0  0  0  0  0  0  0  0  0  0
    6.2434  -14.7807   21.5852 O   0  0  0  0  0  0  0  0  0  0  0  0
    8.1852  -15.4431   22.6105 N   0  0  0  0  0  0  0  0  0  0  0  0
    7.5082  -15.6175   23.9142 C   0  0  1  0  0  0  0  0  0  0  0  0
    7.5647  -17.1071   24.1952 C   0  0  0  0  0  0  0  0  0  0  0  0
    6.9399  -17.3735   25.5248 C   0  0  0  0  0  0  0  0  0  0  0  0
    7.0437  -18.8369   25.8879 C   0  0  0  0  0  0  0  0  0  0  0  0
    7.1022  -19.6891   24.9685 O   0  0  0  0  0  0  0  0  0  0  0  0
    8.2277  -14.8668   24.9661 C   0  0  0  0  0  0  0  0  0  0  0  0
    9.5072  -15.0818   24.9706 O   0  0  0  0  0  0  0  0  0  0  0  0
    7.0769  -19.2761   27.1911 O   0  0  0  0  0  0  0  0  0  0  0  0
    7.6632  -13.9874   25.9042 N   0  0  0  0  0  0  0  0  0  0  0  0
    6.2095  -13.7593   25.9788 C   0  0  0  0  0  0  0  0  0  0  0  0
    6.0124  -13.1199   27.3442 C   0  0  0  0  0  0  0  0  0  0  0  0
    7.2519  -12.2415   27.4707 C   0  0  0  0  0  0  0  0  0  0  0  0
    8.3168  -13.1929   26.9059 C   0  0  1  0  0  0  0  0  0  0  0  0
    8.8275  -14.0335   28.0272 C   0  0  0  0  0  0  0  0  0  0  0  0
    9.7643  -13.5249   28.8886 O   0  0  0  0  0  0  0  0  0  0  0  0
    8.3892  -15.1848   28.1564 O   0  0  0  0  0  0  0  0  0  0  0  0
  2  1  1  6
  2  3  1  0
  4  2  1  0
  4  6  1  0
  4  5  1  6
  6  7  2  0
  8  6  1  0
  8  9  1  0
  9 10  1  1
 10 11  1  0
 12 16  1  0
 12 11  1  0
 13 12  2  0
 14  9  1  0
 14 15  2  0
 17 21  1  0
 17 14  1  0
 18 17  1  0
 19 20  1  0
 19 18  1  0
 20 21  1  0
 21 22  1  1
 22 24  2  0
 22 23  1  0
M  END
$$$$
