VEP.pdb
     RDKit          3D

 24 24  0  0  1  0  0  0  0  0999 V2000
    7.8416  -12.1737   19.5153 C   0  0  0  0  0  0  0  0  0  0  0  0
    8.2321  -13.6029   19.3613 C   0  0  2  0  0  0  0  0  0  0  0  0
    7.0350  -14.4672   19.0680 C   0  0  0  0  0  0  0  0  0  0  0  0
    9.0603  -14.1400   20.5005 C   0  0  2  0  0  0  0  0  0  0  0  0
    9.5724  -15.4431   20.0583 N   0  0  0  0  0  0  0  0  0  0  0  0
    8.3204  -14.2743   21.7558 C   0  0  0  0  0  0  0  0  0  0  0  0
    7.7954  -13.2635   22.2753 O   0  0  0  0  0  0  0  0  0  0  0  0
    8.1758  -15.5212   22.4109 N   0  0  0  0  0  0  0  0  0  0  0  0
    7.5063  -15.6156   23.7268 C   0  0  1  0  0  0  0  0  0  0  0  0
    7.4396  -17.0998   24.0332 C   0  0  0  0  0  0  0  0  0  0  0  0
    6.8514  -17.2880   25.3925 C   0  0  0  0  0  0  0  0  0  0  0  0
    6.8282  -18.7502   25.7741 C   0  0  0  0  0  0  0  0  0  0  0  0
    6.6049  -19.0636   26.9686 O   0  0  0  0  0  0  0  0  0  0  0  0
    8.3032  -14.9122   24.7552 C   0  0  0  0  0  0  0  0  0  0  0  0
    9.5542  -15.2564   24.7643 O   0  0  0  0  0  0  0  0  0  0  0  0
    7.0429  -19.7573   24.8619 O   0  0  0  0  0  0  0  0  0  0  0  0
    7.8354  -13.9530   25.6680 N   0  0  0  0  0  0  0  0  0  0  0  0
    6.4335  -13.4997   25.6687 C   0  0  0  0  0  0  0  0  0  0  0  0
    6.2684  -12.8341   27.0258 C   0  0  0  0  0  0  0  0  0  0  0  0
    7.6219  -12.1605   27.2212 C   0  0  0  0  0  0  0  0  0  0  0  0
    8.5525  -13.2683   26.7067 C   0  0  1  0  0  0  0  0  0  0  0  0
    8.8664  -14.1758   27.8479 C   0  0  0  0  0  0  0  0  0  0  0  0
    9.8187  -13.8138   28.7648 O   0  0  0  0  0  0  0  0  0  0  0  0
    8.2532  -15.2478   27.9429 O   0  0  0  0  0  0  0  0  0  0  0  0
  2  1  1  1
  2  3  1  0
  4  2  1  0
  4  6  1  0
  4  5  1  6
  6  7  2  0
  8  6  1  0
  8  9  1  0
  9 10  1  1
 10 11  1  0
 12 16  1  0
 12 11  1  0
 13 12  2  0
 14  9  1  0
 14 15  2  0
 17 21  1  0
 17 14  1  0
 18 17  1  0
 19 20  1  0
 19 18  1  0
 20 21  1  0
 21 22  1  1
 22 24  2  0
 22 23  1  0
M  END
$$$$
