VEP.pdb
     RDKit          3D

 24 24  0  0  1  0  0  0  0  0999 V2000
    9.3481  -13.1484   20.2276 C   0  0  0  0  0  0  0  0  0  0  0  0
    8.1973  -13.8050   19.5470 C   0  0  2  0  0  0  0  0  0  0  0  0
    6.9741  -12.9281   19.5750 C   0  0  0  0  0  0  0  0  0  0  0  0
    7.9108  -15.2023   20.0343 C   0  0  2  0  0  0  0  0  0  0  0  0
    6.9267  -15.7690   19.1035 N   0  0  0  0  0  0  0  0  0  0  0  0
    7.4131  -15.2573   21.4092 C   0  0  0  0  0  0  0  0  0  0  0  0
    6.2265  -14.9396   21.6506 O   0  0  0  0  0  0  0  0  0  0  0  0
    8.2357  -15.6617   22.4886 N   0  0  0  0  0  0  0  0  0  0  0  0
    7.6898  -15.7782   23.8585 C   0  0  1  0  0  0  0  0  0  0  0  0
    7.7016  -17.2636   24.1661 C   0  0  0  0  0  0  0  0  0  0  0  0
    6.5960  -17.5695   25.1216 C   0  0  0  0  0  0  0  0  0  0  0  0
    6.7250  -18.9731   25.6669 C   0  0  0  0  0  0  0  0  0  0  0  0
    7.0818  -19.1320   26.8595 O   0  0  0  0  0  0  0  0  0  0  0  0
    8.5505  -15.0471   24.8137 C   0  0  0  0  0  0  0  0  0  0  0  0
    9.7942  -15.4147   24.7742 O   0  0  0  0  0  0  0  0  0  0  0  0
    6.4662  -20.0898   24.9063 O   0  0  0  0  0  0  0  0  0  0  0  0
    8.1468  -14.0410   25.7063 N   0  0  0  0  0  0  0  0  0  0  0  0
    6.7810  -13.4886   25.6886 C   0  0  0  0  0  0  0  0  0  0  0  0
    6.6553  -12.7892   27.0328 C   0  0  0  0  0  0  0  0  0  0  0  0
    8.0523  -12.2108   27.2271 C   0  0  0  0  0  0  0  0  0  0  0  0
    8.9043  -13.3912   26.7387 C   0  0  1  0  0  0  0  0  0  0  0  0
    9.1451  -14.2988   27.8976 C   0  0  0  0  0  0  0  0  0  0  0  0
   10.1205  -13.9942   28.8109 O   0  0  0  0  0  0  0  0  0  0  0  0
    8.4508  -15.3184   28.0102 O   0  0  0  0  0  0  0  0  0  0  0  0
  2  1  1  1
  2  3  1  0
  4  2  1  0
  4  6  1  0
  4  5  1  6
  6  7  2  0
  8  6  1  0
  8  9  1  0
  9 10  1  1
 10 11  1  0
 12 16  1  0
 12 11  1  0
 13 12  2  0
 14  9  1  0
 14 15  2  0
 17 21  1  0
 17 14  1  0
 18 17  1  0
 19 20  1  0
 19 18  1  0
 20 21  1  0
 21 22  1  1
 22 24  2  0
 22 23  1  0
M  END
$$$$
