VEP.pdb
     RDKit          3D

 24 24  0  0  1  0  0  0  0  0999 V2000
    8.4028  -13.8410   18.3321 C   0  0  0  0  0  0  0  0  0  0  0  0
    7.8016  -13.9225   19.6925 C   0  0  2  0  0  0  0  0  0  0  0  0
    8.2859  -12.8003   20.5712 C   0  0  0  0  0  0  0  0  0  0  0  0
    7.9513  -15.2701   20.3509 C   0  0  2  0  0  0  0  0  0  0  0  0
    7.3125  -16.2401   19.4527 N   0  0  0  0  0  0  0  0  0  0  0  0
    7.3648  -15.3411   21.6896 C   0  0  0  0  0  0  0  0  0  0  0  0
    6.1304  -15.1894   21.8328 O   0  0  0  0  0  0  0  0  0  0  0  0
    8.1531  -15.5780   22.8418 N   0  0  0  0  0  0  0  0  0  0  0  0
    7.5545  -15.5378   24.1941 C   0  0  1  0  0  0  0  0  0  0  0  0
    7.5462  -16.9788   24.6680 C   0  0  0  0  0  0  0  0  0  0  0  0
    6.5099  -17.7344   23.9035 C   0  0  0  0  0  0  0  0  0  0  0  0
    6.4501  -19.1760   24.3531 C   0  0  0  0  0  0  0  0  0  0  0  0
    7.2030  -19.5551   25.2828 O   0  0  0  0  0  0  0  0  0  0  0  0
    8.3822  -14.7042   25.0928 C   0  0  0  0  0  0  0  0  0  0  0  0
    9.6456  -14.9968   25.0508 O   0  0  0  0  0  0  0  0  0  0  0  0
    5.6002  -20.0951   23.7826 O   0  0  0  0  0  0  0  0  0  0  0  0
    7.9301  -13.6773   25.9372 N   0  0  0  0  0  0  0  0  0  0  0  0
    6.5496  -13.1669   25.8697 C   0  0  0  0  0  0  0  0  0  0  0  0
    6.3743  -12.4208   27.1830 C   0  0  0  0  0  0  0  0  0  0  0  0
    7.7494  -11.7941   27.3837 C   0  0  0  0  0  0  0  0  0  0  0  0
    8.6457  -12.9664   26.9592 C   0  0  1  0  0  0  0  0  0  0  0  0
    8.8872  -13.8215   28.1572 C   0  0  0  0  0  0  0  0  0  0  0  0
    9.8134  -13.4392   29.0922 O   0  0  0  0  0  0  0  0  0  0  0  0
    8.2386  -14.8694   28.2818 O   0  0  0  0  0  0  0  0  0  0  0  0
  2  1  1  6
  2  3  1  0
  4  2  1  0
  4  6  1  0
  4  5  1  6
  6  7  2  0
  8  6  1  0
  8  9  1  0
  9 10  1  1
 10 11  1  0
 12 16  1  0
 12 11  1  0
 13 12  2  0
 14  9  1  0
 14 15  2  0
 17 21  1  0
 17 14  1  0
 18 17  1  0
 19 20  1  0
 19 18  1  0
 20 21  1  0
 21 22  1  1
 22 24  2  0
 22 23  1  0
M  END
$$$$
