VEP.pdb
     RDKit          3D

 24 24  0  0  1  0  0  0  0  0999 V2000
    9.2769  -12.9472   20.4377 C   0  0  0  0  0  0  0  0  0  0  0  0
    8.2748  -13.6988   19.6317 C   0  0  2  0  0  0  0  0  0  0  0  0
    6.9755  -12.9449   19.5355 C   0  0  0  0  0  0  0  0  0  0  0  0
    8.0766  -15.1263   20.0734 C   0  0  2  0  0  0  0  0  0  0  0  0
    7.2169  -15.7543   19.0623 N   0  0  0  0  0  0  0  0  0  0  0  0
    7.4860  -15.2551   21.4060 C   0  0  0  0  0  0  0  0  0  0  0  0
    6.2562  -15.0766   21.5572 O   0  0  0  0  0  0  0  0  0  0  0  0
    8.2654  -15.5779   22.5433 N   0  0  0  0  0  0  0  0  0  0  0  0
    7.6450  -15.6981   23.8809 C   0  0  1  0  0  0  0  0  0  0  0  0
    7.7238  -17.1736   24.2244 C   0  0  0  0  0  0  0  0  0  0  0  0
    7.1555  -17.3845   25.5889 C   0  0  0  0  0  0  0  0  0  0  0  0
    7.2022  -18.8450   25.9744 C   0  0  0  0  0  0  0  0  0  0  0  0
    8.2956  -19.4573   25.9072 O   0  0  0  0  0  0  0  0  0  0  0  0
    8.4027  -14.8979   24.8675 C   0  0  0  0  0  0  0  0  0  0  0  0
    9.6621  -15.2048   24.9236 O   0  0  0  0  0  0  0  0  0  0  0  0
    6.0901  -19.5351   26.3983 O   0  0  0  0  0  0  0  0  0  0  0  0
    7.8917  -13.8873   25.6978 N   0  0  0  0  0  0  0  0  0  0  0  0
    6.4944  -13.4309   25.5967 C   0  0  0  0  0  0  0  0  0  0  0  0
    6.2599  -12.6891   26.9030 C   0  0  0  0  0  0  0  0  0  0  0  0
    7.6047  -12.0091   27.1335 C   0  0  0  0  0  0  0  0  0  0  0  0
    8.5553  -13.1467   26.7337 C   0  0  1  0  0  0  0  0  0  0  0  0
    8.8018  -13.9890   27.9397 C   0  0  0  0  0  0  0  0  0  0  0  0
    8.1967  -15.2136   28.0513 O   0  0  0  0  0  0  0  0  0  0  0  0
    9.5559  -13.5585   28.8232 O   0  0  0  0  0  0  0  0  0  0  0  0
  2  1  1  1
  2  3  1  0
  4  2  1  0
  4  6  1  0
  4  5  1  6
  6  7  2  0
  8  6  1  0
  8  9  1  0
  9 10  1  1
 10 11  1  0
 12 16  1  0
 12 11  1  0
 13 12  2  0
 14  9  1  0
 14 15  2  0
 17 21  1  0
 17 14  1  0
 18 17  1  0
 19 20  1  0
 19 18  1  0
 20 21  1  0
 21 22  1  1
 22 24  2  0
 22 23  1  0
M  END
$$$$
