VEP.pdb
     RDKit          3D

 24 24  0  0  1  0  0  0  0  0999 V2000
    9.3269  -12.6724   20.4130 C   0  0  0  0  0  0  0  0  0  0  0  0
    8.4275  -13.5002   19.5619 C   0  0  2  0  0  0  0  0  0  0  0  0
    7.0846  -12.8431   19.3867 C   0  0  0  0  0  0  0  0  0  0  0  0
    8.3084  -14.9352   20.0077 C   0  0  2  0  0  0  0  0  0  0  0  0
    7.5667  -15.6342   18.9508 N   0  0  0  0  0  0  0  0  0  0  0  0
    7.6428  -15.0981   21.3006 C   0  0  0  0  0  0  0  0  0  0  0  0
    6.3922  -15.0893   21.3577 O   0  0  0  0  0  0  0  0  0  0  0  0
    8.3714  -15.2672   22.5029 N   0  0  0  0  0  0  0  0  0  0  0  0
    7.6748  -15.4729   23.7917 C   0  0  1  0  0  0  0  0  0  0  0  0
    7.6617  -16.9753   24.0009 C   0  0  0  0  0  0  0  0  0  0  0  0
    6.9599  -17.2799   25.2830 C   0  0  0  0  0  0  0  0  0  0  0  0
    6.9675  -18.7648   25.5644 C   0  0  0  0  0  0  0  0  0  0  0  0
    6.7672  -19.1626   26.7377 O   0  0  0  0  0  0  0  0  0  0  0  0
    8.4172  -14.8068   24.8839 C   0  0  0  0  0  0  0  0  0  0  0  0
    9.6637  -15.1603   24.9518 O   0  0  0  0  0  0  0  0  0  0  0  0
    7.1860  -19.7035   24.5829 O   0  0  0  0  0  0  0  0  0  0  0  0
    7.9047  -13.8721   25.7981 N   0  0  0  0  0  0  0  0  0  0  0  0
    6.4885  -13.4659   25.7826 C   0  0  0  0  0  0  0  0  0  0  0  0
    6.2820  -12.8187   27.1429 C   0  0  0  0  0  0  0  0  0  0  0  0
    7.6093  -12.1021   27.3636 C   0  0  0  0  0  0  0  0  0  0  0  0
    8.5836  -13.1734   26.8529 C   0  0  1  0  0  0  0  0  0  0  0  0
    8.9117  -14.0804   27.9906 C   0  0  0  0  0  0  0  0  0  0  0  0
    9.8441  -13.6988   28.9198 O   0  0  0  0  0  0  0  0  0  0  0  0
    8.3282  -15.1701   28.0714 O   0  0  0  0  0  0  0  0  0  0  0  0
  2  1  1  1
  2  3  1  0
  4  2  1  0
  4  6  1  0
  4  5  1  6
  6  7  2  0
  8  6  1  0
  8  9  1  0
  9 10  1  1
 10 11  1  0
 12 16  1  0
 12 11  1  0
 13 12  2  0
 14  9  1  0
 14 15  2  0
 17 21  1  0
 17 14  1  0
 18 17  1  0
 19 20  1  0
 19 18  1  0
 20 21  1  0
 21 22  1  1
 22 24  2  0
 22 23  1  0
M  END
$$$$
