KAP.pdb
     RDKit          3D

 22 22  0  0  1  0  0  0  0  0999 V2000
    9.0317  -18.4436   21.2684 N   0  0  0  0  0  0  0  0  0  0  0  0
    9.7773  -17.2775   21.5897 C   0  0  1  0  0  0  0  0  0  0  0  0
   10.4056  -16.5017   20.5140 C   0  0  0  0  0  0  0  0  0  0  0  0
   11.3965  -17.1467   19.6508 C   0  0  0  0  0  0  0  0  0  0  0  0
   12.7997  -17.3349   19.9651 C   0  0  0  0  0  0  0  0  0  0  0  0
   13.7200  -18.0930   19.1008 C   0  0  0  0  0  0  0  0  0  0  0  0
   15.0919  -18.1525   19.5382 N   0  0  0  0  0  0  0  0  0  0  0  0
    8.9651  -16.3809   22.5136 C   0  0  0  0  0  0  0  0  0  0  0  0
    9.0847  -15.1454   22.3482 O   0  0  0  0  0  0  0  0  0  0  0  0
    6.3028  -16.9313   25.0591 C   0  0  0  0  0  0  0  0  0  0  0  0
    7.2929  -16.0255   24.3578 C   0  0  2  0  0  0  0  0  0  0  0  0
    8.1158  -16.8639   23.5097 N   0  0  0  0  0  0  0  0  0  0  0  0
    8.1708  -15.3318   25.3819 C   0  0  0  0  0  0  0  0  0  0  0  0
    9.0895  -16.0576   25.8666 O   0  0  0  0  0  0  0  0  0  0  0  0
    7.9306  -13.9969   25.7180 N   0  0  0  0  0  0  0  0  0  0  0  0
    7.1973  -13.0569   24.8468 C   0  0  0  0  0  0  0  0  0  0  0  0
    6.2120  -12.5013   25.8368 C   0  0  0  0  0  0  0  0  0  0  0  0
    6.8291  -12.6891   27.2060 C   0  0  0  0  0  0  0  0  0  0  0  0
    8.2518  -13.1968   26.8334 C   0  0  1  0  0  0  0  0  0  0  0  0
    8.9118  -13.7655   27.9871 C   0  0  0  0  0  0  0  0  0  0  0  0
    8.8633  -15.0255   28.5166 O   0  0  0  0  0  0  0  0  0  0  0  0
    9.6802  -12.9516   28.6349 O   0  0  0  0  0  0  0  0  0  0  0  0
  2  1  1  6
  2  3  1  0
  2  8  1  0
  4  3  1  0
  5  4  1  0
  6  5  1  0
  7  6  1  0
  8 12  1  0
  8  9  2  0
 11 10  1  1
 12 11  1  0
 13 11  1  0
 13 14  2  0
 15 13  1  0
 16 15  1  0
 17 18  1  0
 17 16  1  0
 18 19  1  0
 19 15  1  0
 19 20  1  1
 20 21  1  0
 22 20  2  0
M  END
$$$$
