KAP.pdb
     RDKit          3D

 22 22  0  0  1  0  0  0  0  0999 V2000
    9.5178  -16.5747   20.1200 N   0  0  0  0  0  0  0  0  0  0  0  0
   10.1445  -16.4156   21.3852 C   0  0  1  0  0  0  0  0  0  0  0  0
   11.4919  -15.8384   21.4572 C   0  0  0  0  0  0  0  0  0  0  0  0
   12.6480  -16.6763   21.1341 C   0  0  0  0  0  0  0  0  0  0  0  0
   12.8822  -18.0219   21.6218 C   0  0  0  0  0  0  0  0  0  0  0  0
   14.0493  -18.8269   21.2238 C   0  0  0  0  0  0  0  0  0  0  0  0
   14.0400  -20.2045   21.6471 N   0  0  0  0  0  0  0  0  0  0  0  0
    9.1950  -15.7204   22.3505 C   0  0  0  0  0  0  0  0  0  0  0  0
    9.0942  -14.4768   22.2444 O   0  0  0  0  0  0  0  0  0  0  0  0
    6.6053  -16.8308   24.7678 C   0  0  0  0  0  0  0  0  0  0  0  0
    7.5122  -15.7496   24.2190 C   0  0  2  0  0  0  0  0  0  0  0  0
    8.4518  -16.3916   23.3222 N   0  0  0  0  0  0  0  0  0  0  0  0
    8.2718  -15.0898   25.3541 C   0  0  0  0  0  0  0  0  0  0  0  0
    9.2642  -15.7531   25.7798 O   0  0  0  0  0  0  0  0  0  0  0  0
    7.8567  -13.8487   25.8439 N   0  0  0  0  0  0  0  0  0  0  0  0
    7.0242  -12.9053   25.0711 C   0  0  0  0  0  0  0  0  0  0  0  0
    5.9587  -12.6068   26.0886 C   0  0  0  0  0  0  0  0  0  0  0  0
    6.5709  -12.8876   27.4440 C   0  0  0  0  0  0  0  0  0  0  0  0
    8.0532  -13.1622   27.0593 C   0  0  1  0  0  0  0  0  0  0  0  0
    8.7605  -13.7852   28.1556 C   0  0  0  0  0  0  0  0  0  0  0  0
    9.4165  -13.2394   29.2242 O   0  0  0  0  0  0  0  0  0  0  0  0
    8.7821  -15.0781   28.1291 O   0  0  0  0  0  0  0  0  0  0  0  0
  2  1  1  6
  2  3  1  0
  2  8  1  0
  4  3  1  0
  5  4  1  0
  6  5  1  0
  7  6  1  0
  8 12  1  0
  8  9  2  0
 11 10  1  1
 12 11  1  0
 13 11  1  0
 13 14  2  0
 15 13  1  0
 16 15  1  0
 17 18  1  0
 17 16  1  0
 18 19  1  0
 19 15  1  0
 19 20  1  1
 20 21  1  0
 22 20  2  0
M  END
$$$$
