KAP.pdb
     RDKit          3D

 22 22  0  0  1  0  0  0  0  0999 V2000
    6.5460  -16.3875   19.9250 N   0  0  0  0  0  0  0  0  0  0  0  0
    7.1169  -15.4452   20.8222 C   0  0  1  0  0  0  0  0  0  0  0  0
    6.9924  -14.0104   20.5398 C   0  0  0  0  0  0  0  0  0  0  0  0
    7.6948  -13.4440   19.3871 C   0  0  0  0  0  0  0  0  0  0  0  0
    9.1087  -13.5913   19.1002 C   0  0  0  0  0  0  0  0  0  0  0  0
    9.7351  -13.0763   17.8709 C   0  0  0  0  0  0  0  0  0  0  0  0
   11.1439  -13.3408   17.7216 N   0  0  0  0  0  0  0  0  0  0  0  0
    6.6928  -15.7648   22.2488 C   0  0  0  0  0  0  0  0  0  0  0  0
    5.5492  -16.2516   22.4011 O   0  0  0  0  0  0  0  0  0  0  0  0
    6.8247  -17.3726   24.7392 C   0  0  0  0  0  0  0  0  0  0  0  0
    7.1328  -15.8903   24.7215 C   0  0  2  0  0  0  0  0  0  0  0  0
    7.5022  -15.5447   23.3638 N   0  0  0  0  0  0  0  0  0  0  0  0
    8.2962  -15.5953   25.6491 C   0  0  0  0  0  0  0  0  0  0  0  0
    9.1603  -16.5193   25.7211 O   0  0  0  0  0  0  0  0  0  0  0  0
    8.3489  -14.3813   26.3391 N   0  0  0  0  0  0  0  0  0  0  0  0
    7.6545  -13.1582   25.8894 C   0  0  0  0  0  0  0  0  0  0  0  0
    6.9577  -12.7725   27.1642 C   0  0  0  0  0  0  0  0  0  0  0  0
    7.7515  -13.3971   28.2915 C   0  0  0  0  0  0  0  0  0  0  0  0
    8.9835  -13.9574   27.5243 C   0  0  1  0  0  0  0  0  0  0  0  0
    9.7175  -14.8930   28.3465 C   0  0  0  0  0  0  0  0  0  0  0  0
   10.8023  -14.7122   29.1594 O   0  0  0  0  0  0  0  0  0  0  0  0
    9.2815  -16.1102   28.3135 O   0  0  0  0  0  0  0  0  0  0  0  0
  2  1  1  6
  2  3  1  0
  2  8  1  0
  4  3  1  0
  5  4  1  0
  6  5  1  0
  7  6  1  0
  8 12  1  0
  8  9  2  0
 11 10  1  6
 12 11  1  0
 13 11  1  0
 13 14  2  0
 15 13  1  0
 16 15  1  0
 17 18  1  0
 17 16  1  0
 18 19  1  0
 19 15  1  0
 19 20  1  1
 20 21  1  0
 22 20  2  0
M  END
$$$$
