KAP.pdb
     RDKit          3D

 22 22  0  0  1  0  0  0  0  0999 V2000
    7.4245  -16.3967   19.7710 N   0  0  0  0  0  0  0  0  0  0  0  0
    7.7857  -15.3210   20.6262 C   0  0  1  0  0  0  0  0  0  0  0  0
    7.6536  -13.9403   20.1467 C   0  0  0  0  0  0  0  0  0  0  0  0
    8.4093  -13.5168   18.9666 C   0  0  0  0  0  0  0  0  0  0  0  0
    8.2132  -14.0043   17.6149 C   0  0  0  0  0  0  0  0  0  0  0  0
    8.9681  -13.4898   16.4599 C   0  0  0  0  0  0  0  0  0  0  0  0
    8.5968  -14.0246   15.1741 N   0  0  0  0  0  0  0  0  0  0  0  0
    7.1271  -15.4970   21.9872 C   0  0  0  0  0  0  0  0  0  0  0  0
    5.9413  -15.8993   21.9917 O   0  0  0  0  0  0  0  0  0  0  0  0
    6.9928  -16.9994   24.6039 C   0  0  0  0  0  0  0  0  0  0  0  0
    7.1976  -15.5028   24.5009 C   0  0  2  0  0  0  0  0  0  0  0  0
    7.7711  -15.2365   23.1973 N   0  0  0  0  0  0  0  0  0  0  0  0
    8.1607  -15.0397   25.5775 C   0  0  0  0  0  0  0  0  0  0  0  0
    9.0547  -15.8840   25.8835 O   0  0  0  0  0  0  0  0  0  0  0  0
    8.0167  -13.7708   26.1445 N   0  0  0  0  0  0  0  0  0  0  0  0
    7.1910  -12.7013   25.5488 C   0  0  0  0  0  0  0  0  0  0  0  0
    6.3843  -12.2969   26.7509 C   0  0  0  0  0  0  0  0  0  0  0  0
    7.1942  -12.6992   27.9647 C   0  0  0  0  0  0  0  0  0  0  0  0
    8.5275  -13.1553   27.3054 C   0  0  1  0  0  0  0  0  0  0  0  0
    9.3351  -13.9009   28.2444 C   0  0  0  0  0  0  0  0  0  0  0  0
    9.4192  -15.2446   28.4848 O   0  0  0  0  0  0  0  0  0  0  0  0
   10.1130  -13.1836   28.9881 O   0  0  0  0  0  0  0  0  0  0  0  0
  2  1  1  6
  2  3  1  0
  2  8  1  0
  4  3  1  0
  5  4  1  0
  6  5  1  0
  7  6  1  0
  8 12  1  0
  8  9  2  0
 11 10  1  1
 12 11  1  0
 13 11  1  0
 13 14  2  0
 15 13  1  0
 16 15  1  0
 17 18  1  0
 17 16  1  0
 18 19  1  0
 19 15  1  0
 19 20  1  1
 20 21  1  0
 22 20  2  0
M  END
$$$$
