KAP.pdb
     RDKit          3D

 22 22  0  0  1  0  0  0  0  0999 V2000
    7.3912  -16.6520   19.8599 N   0  0  0  0  0  0  0  0  0  0  0  0
    7.6638  -15.4574   20.5794 C   0  0  1  0  0  0  0  0  0  0  0  0
    7.3758  -14.1585   19.9600 C   0  0  0  0  0  0  0  0  0  0  0  0
    8.1938  -13.7052   18.8337 C   0  0  0  0  0  0  0  0  0  0  0  0
    8.0362  -14.1170   17.4522 C   0  0  0  0  0  0  0  0  0  0  0  0
    8.8724  -13.5928   16.3592 C   0  0  0  0  0  0  0  0  0  0  0  0
    8.5600  -14.0760   15.0378 N   0  0  0  0  0  0  0  0  0  0  0  0
    7.0667  -15.5460   21.9768 C   0  0  0  0  0  0  0  0  0  0  0  0
    5.8680  -15.8995   22.0560 O   0  0  0  0  0  0  0  0  0  0  0  0
    7.0111  -16.9393   24.6505 C   0  0  0  0  0  0  0  0  0  0  0  0
    7.2654  -15.4562   24.4820 C   0  0  2  0  0  0  0  0  0  0  0  0
    7.7787  -15.2581   23.1417 N   0  0  0  0  0  0  0  0  0  0  0  0
    8.3005  -14.9937   25.4897 C   0  0  0  0  0  0  0  0  0  0  0  0
    9.2498  -15.8106   25.6829 O   0  0  0  0  0  0  0  0  0  0  0  0
    8.1579  -13.7540   26.1185 N   0  0  0  0  0  0  0  0  0  0  0  0
    7.3594  -12.6446   25.5601 C   0  0  0  0  0  0  0  0  0  0  0  0
    6.5289  -12.2925   26.7625 C   0  0  0  0  0  0  0  0  0  0  0  0
    7.3048  -12.7674   27.9723 C   0  0  0  0  0  0  0  0  0  0  0  0
    8.6481  -13.2061   27.3213 C   0  0  1  0  0  0  0  0  0  0  0  0
    9.4241  -14.0097   28.2389 C   0  0  0  0  0  0  0  0  0  0  0  0
   10.4490  -13.6724   29.0793 O   0  0  0  0  0  0  0  0  0  0  0  0
    9.1018  -15.2615   28.2780 O   0  0  0  0  0  0  0  0  0  0  0  0
  2  1  1  6
  2  3  1  0
  2  8  1  0
  4  3  1  0
  5  4  1  0
  6  5  1  0
  7  6  1  0
  8 12  1  0
  8  9  2  0
 11 10  1  1
 12 11  1  0
 13 11  1  0
 13 14  2  0
 15 13  1  0
 16 15  1  0
 17 18  1  0
 17 16  1  0
 18 19  1  0
 19 15  1  0
 19 20  1  1
 20 21  1  0
 22 20  2  0
M  END
$$$$
