KSI.pdb
     RDKit          3D

 24 23  0  0  1  0  0  0  0  0999 V2000
   19.4817  -11.5687  -17.5206 N   0  0  0  0  0  0  0  0  0  0  0  0
   18.7945  -11.2787  -16.2827 C   0  0  1  0  0  0  0  0  0  0  0  0
   18.2895  -12.5306  -15.6465 C   0  0  0  0  0  0  0  0  0  0  0  0
   17.3228  -13.3238  -16.4443 C   0  0  0  0  0  0  0  0  0  0  0  0
   15.9353  -12.7896  -16.5270 C   0  0  0  0  0  0  0  0  0  0  0  0
   14.9979  -13.6867  -17.2981 C   0  0  0  0  0  0  0  0  0  0  0  0
   14.9203  -15.0002  -16.6905 N   0  0  0  0  0  0  0  0  0  0  0  0
   19.7448  -10.5415  -15.4001 C   0  0  0  0  0  0  0  0  0  0  0  0
   19.4229  -10.1679  -14.2440 O   0  0  0  0  0  0  0  0  0  0  0  0
   23.5108   -9.5140  -16.9312 O   0  0  0  0  0  0  0  0  0  0  0  0
   23.4105   -9.8273  -15.5712 C   0  0  0  0  0  0  0  0  0  0  0  0
   22.0111   -9.4642  -15.0559 C   0  0  2  0  0  0  0  0  0  0  0  0
   21.0704  -10.2212  -15.8216 N   0  0  0  0  0  0  0  0  0  0  0  0
   21.7906   -7.9788  -15.2402 C   0  0  0  0  0  0  0  0  0  0  0  0
   22.4883   -7.1576  -14.5988 O   0  0  0  0  0  0  0  0  0  0  0  0
   20.0194   -4.3401  -19.7811 C   0  0  0  0  0  0  0  0  0  0  0  0
   20.0653   -4.5039  -18.2568 C   0  0  0  0  0  0  0  0  0  0  0  0
   20.3101   -5.9429  -17.8966 C   0  0  2  0  0  0  0  0  0  0  0  0
   19.2156   -6.7731  -18.5603 C   0  0  0  0  0  0  0  0  0  0  0  0
   20.4608   -6.1619  -16.4478 C   0  0  2  0  0  0  0  0  0  0  0  0
   20.8121   -7.5392  -16.1229 N   0  0  0  0  0  0  0  0  0  0  0  0
   19.3305   -5.6308  -15.6729 C   0  0  0  0  0  0  0  0  0  0  0  0
   19.2712   -4.2895  -15.3464 O   0  0  0  0  0  0  0  0  0  0  0  0
   18.3958   -6.3475  -15.2883 O   0  0  0  0  0  0  0  0  0  0  0  0
  2  1  1  6
  3  2  1  0
  4  3  1  0
  5  6  1  0
  5  4  1  0
  6  7  1  0
  8  2  1  0
  8  9  2  0
 10 11  1  0
 12 11  1  6
 12 13  1  0
 13  8  1  0
 14 12  1  0
 15 14  2  0
 17 16  1  0
 18 17  1  0
 18 19  1  1
 20 18  1  0
 20 21  1  6
 21 14  1  0
 22 20  1  0
 23 22  1  0
 24 22  2  0
M  END
$$$$
