KSI.pdb
     RDKit          3D

 24 23  0  0  1  0  0  0  0  0999 V2000
   20.4404  -12.6688  -17.3132 N   0  0  0  0  0  0  0  0  0  0  0  0
   19.6011  -11.9272  -18.2266 C   0  0  1  0  0  0  0  0  0  0  0  0
   18.3235  -12.6532  -18.4866 C   0  0  0  0  0  0  0  0  0  0  0  0
   18.4531  -14.0389  -18.9995 C   0  0  0  0  0  0  0  0  0  0  0  0
   17.1944  -14.8274  -19.1048 C   0  0  0  0  0  0  0  0  0  0  0  0
   17.4145  -16.2347  -19.6039 C   0  0  0  0  0  0  0  0  0  0  0  0
   16.1900  -17.0068  -19.5344 N   0  0  0  0  0  0  0  0  0  0  0  0
   19.3721  -10.5769  -17.6352 C   0  0  0  0  0  0  0  0  0  0  0  0
   18.7143   -9.6915  -18.2377 O   0  0  0  0  0  0  0  0  0  0  0  0
   20.3296   -9.8947  -13.6025 O   0  0  0  0  0  0  0  0  0  0  0  0
   19.2876   -9.2354  -14.2637 C   0  0  0  0  0  0  0  0  0  0  0  0
   19.6905   -8.9533  -15.7176 C   0  0  2  0  0  0  0  0  0  0  0  0
   19.8878  -10.2186  -16.3534 N   0  0  0  0  0  0  0  0  0  0  0  0
   20.9651   -8.1382  -15.7240 C   0  0  0  0  0  0  0  0  0  0  0  0
   22.0705   -8.7054  -15.8939 O   0  0  0  0  0  0  0  0  0  0  0  0
   23.1567   -3.0948  -17.9286 C   0  0  0  0  0  0  0  0  0  0  0  0
   23.1586   -3.9353  -16.6457 C   0  0  0  0  0  0  0  0  0  0  0  0
   22.0038   -4.8981  -16.6543 C   0  0  2  0  0  0  0  0  0  0  0  0
   20.7276   -4.0800  -16.8262 C   0  0  0  0  0  0  0  0  0  0  0  0
   22.0018   -5.8138  -15.5005 C   0  0  2  0  0  0  0  0  0  0  0  0
   20.8958   -6.7629  -15.5404 N   0  0  0  0  0  0  0  0  0  0  0  0
   22.1448   -5.1107  -14.2178 C   0  0  0  0  0  0  0  0  0  0  0  0
   21.1133   -5.1095  -13.2985 O   0  0  0  0  0  0  0  0  0  0  0  0
   23.1785   -4.5022  -13.9073 O   0  0  0  0  0  0  0  0  0  0  0  0
  2  1  1  1
  3  2  1  0
  4  3  1  0
  5  6  1  0
  5  4  1  0
  6  7  1  0
  8  2  1  0
  8  9  2  0
 10 11  1  0
 12 11  1  1
 12 13  1  0
 13  8  1  0
 14 12  1  0
 15 14  2  0
 17 16  1  0
 18 17  1  0
 18 19  1  1
 20 18  1  0
 20 21  1  1
 21 14  1  0
 22 20  1  0
 23 22  1  0
 24 22  2  0
M  END
$$$$
