KSI.pdb
     RDKit          3D

 24 23  0  0  1  0  0  0  0  0999 V2000
   19.6304  -13.5350  -15.9079 N   0  0  0  0  0  0  0  0  0  0  0  0
   19.6810  -12.4906  -16.9056 C   0  0  1  0  0  0  0  0  0  0  0  0
   18.5959  -12.6640  -17.9153 C   0  0  0  0  0  0  0  0  0  0  0  0
   18.1187  -14.0521  -18.1284 C   0  0  0  0  0  0  0  0  0  0  0  0
   17.0676  -14.2400  -19.1663 C   0  0  0  0  0  0  0  0  0  0  0  0
   16.6908  -15.6865  -19.3759 C   0  0  0  0  0  0  0  0  0  0  0  0
   15.7754  -15.8274  -20.4906 N   0  0  0  0  0  0  0  0  0  0  0  0
   19.5864  -11.1820  -16.1955 C   0  0  0  0  0  0  0  0  0  0  0  0
   18.5459  -10.8332  -15.5829 O   0  0  0  0  0  0  0  0  0  0  0  0
   23.0091   -9.1862  -15.3560 O   0  0  0  0  0  0  0  0  0  0  0  0
   21.8487   -8.8423  -14.6537 C   0  0  0  0  0  0  0  0  0  0  0  0
   20.6285   -8.9579  -15.5774 C   0  0  2  0  0  0  0  0  0  0  0  0
   20.6729  -10.2565  -16.1740 N   0  0  0  0  0  0  0  0  0  0  0  0
   20.7059   -7.8741  -16.6303 C   0  0  0  0  0  0  0  0  0  0  0  0
   21.3485   -8.0736  -17.6885 O   0  0  0  0  0  0  0  0  0  0  0  0
   17.7754   -4.5389  -20.2223 C   0  0  0  0  0  0  0  0  0  0  0  0
   18.8900   -4.3651  -19.1831 C   0  0  0  0  0  0  0  0  0  0  0  0
   18.9063   -5.5350  -18.2389 C   0  0  2  0  0  0  0  0  0  0  0  0
   17.5258   -5.6225  -17.5953 C   0  0  0  0  0  0  0  0  0  0  0  0
   20.0314   -5.4995  -17.2888 C   0  0  2  0  0  0  0  0  0  0  0  0
   20.0606   -6.6635  -16.4113 N   0  0  0  0  0  0  0  0  0  0  0  0
   20.1399   -4.2135  -16.5855 C   0  0  0  0  0  0  0  0  0  0  0  0
   19.8996   -4.1331  -15.2272 O   0  0  0  0  0  0  0  0  0  0  0  0
   20.4496   -3.1642  -17.1672 O   0  0  0  0  0  0  0  0  0  0  0  0
  2  1  1  1
  3  2  1  0
  4  3  1  0
  5  6  1  0
  5  4  1  0
  6  7  1  0
  8  2  1  0
  8  9  2  0
 10 11  1  0
 12 11  1  1
 12 13  1  0
 13  8  1  0
 14 12  1  0
 15 14  2  0
 17 16  1  0
 18 17  1  0
 18 19  1  1
 20 18  1  0
 20 21  1  1
 21 14  1  0
 22 20  1  0
 23 22  1  0
 24 22  2  0
M  END
$$$$
