KSI.pdb
     RDKit          3D

 24 23  0  0  1  0  0  0  0  0999 V2000
   28.4813  -20.2835  -17.5387 N   0  0  0  0  0  0  0  0  0  0  0  0
   28.7299  -19.5353  -16.3275 C   0  0  1  0  0  0  0  0  0  0  0  0
   27.9803  -18.2449  -16.3341 C   0  0  0  0  0  0  0  0  0  0  0  0
   27.0617  -18.0296  -17.4786 C   0  0  0  0  0  0  0  0  0  0  0  0
   27.0373  -16.6593  -18.0606 C   0  0  0  0  0  0  0  0  0  0  0  0
   26.0307  -16.5043  -19.1746 C   0  0  0  0  0  0  0  0  0  0  0  0
   26.0260  -15.1475  -19.6839 N   0  0  0  0  0  0  0  0  0  0  0  0
   28.3499  -20.4021  -15.1744 C   0  0  0  0  0  0  0  0  0  0  0  0
   27.3137  -21.1131  -15.1920 O   0  0  0  0  0  0  0  0  0  0  0  0
   30.6332  -19.8250  -11.9985 O   0  0  0  0  0  0  0  0  0  0  0  0
   29.9239  -21.0150  -11.8016 C   0  0  0  0  0  0  0  0  0  0  0  0
   28.7273  -21.0718  -12.7611 C   0  0  2  0  0  0  0  0  0  0  0  0
   29.1432  -20.4703  -13.9897 N   0  0  0  0  0  0  0  0  0  0  0  0
   27.5711  -20.3117  -12.1489 C   0  0  0  0  0  0  0  0  0  0  0  0
   27.2387  -19.1957  -12.6141 O   0  0  0  0  0  0  0  0  0  0  0  0
   22.1887  -20.0844  -12.3270 C   0  0  0  0  0  0  0  0  0  0  0  0
   23.1947  -20.0418  -11.1701 C   0  0  0  0  0  0  0  0  0  0  0  0
   24.5331  -20.5518  -11.6271 C   0  0  2  0  0  0  0  0  0  0  0  0
   24.3121  -21.9322  -12.2381 C   0  0  0  0  0  0  0  0  0  0  0  0
   25.5652  -20.4973  -10.5775 C   0  0  2  0  0  0  0  0  0  0  0  0
   26.8873  -20.8622  -11.0723 N   0  0  0  0  0  0  0  0  0  0  0  0
   25.1659  -21.2031   -9.3517 C   0  0  0  0  0  0  0  0  0  0  0  0
   24.2298  -20.6527   -8.4974 O   0  0  0  0  0  0  0  0  0  0  0  0
   25.6389  -22.3043   -9.0372 O   0  0  0  0  0  0  0  0  0  0  0  0
  2  1  1  6
  3  2  1  0
  4  3  1  0
  5  6  1  0
  5  4  1  0
  6  7  1  0
  8  2  1  0
  8  9  2  0
 10 11  1  0
 12 11  1  1
 12 13  1  0
 13  8  1  0
 14 12  1  0
 15 14  2  0
 17 16  1  0
 18 17  1  0
 18 19  1  1
 20 18  1  0
 20 21  1  6
 21 14  1  0
 22 20  1  0
 23 22  1  0
 24 22  2  0
M  END
$$$$
