KSI.pdb
     RDKit          3D

 24 23  0  0  1  0  0  0  0  0999 V2000
   16.3929  -10.5542  -15.5054 N   0  0  0  0  0  0  0  0  0  0  0  0
   15.5724  -11.0539  -14.4257 C   0  0  1  0  0  0  0  0  0  0  0  0
   15.7286  -12.5305  -14.2761 C   0  0  0  0  0  0  0  0  0  0  0  0
   15.8387  -13.3060  -15.5356 C   0  0  0  0  0  0  0  0  0  0  0  0
   15.9837  -14.7813  -15.3954 C   0  0  0  0  0  0  0  0  0  0  0  0
   16.1290  -15.4928  -16.7186 C   0  0  0  0  0  0  0  0  0  0  0  0
   16.4225  -16.8984  -16.5219 N   0  0  0  0  0  0  0  0  0  0  0  0
   15.9578  -10.3177  -13.1869 C   0  0  0  0  0  0  0  0  0  0  0  0
   15.4495  -10.5874  -12.0695 O   0  0  0  0  0  0  0  0  0  0  0  0
   19.1248   -7.0504  -11.3769 O   0  0  0  0  0  0  0  0  0  0  0  0
   18.5888   -7.7167  -12.4844 C   0  0  0  0  0  0  0  0  0  0  0  0
   17.3785   -8.5552  -12.0511 C   0  0  2  0  0  0  0  0  0  0  0  0
   16.9246   -9.2677  -13.2045 N   0  0  0  0  0  0  0  0  0  0  0  0
   16.3027   -7.6295  -11.5269 C   0  0  0  0  0  0  0  0  0  0  0  0
   15.5738   -6.9988  -12.3289 O   0  0  0  0  0  0  0  0  0  0  0  0
   12.3205   -8.8101   -8.6790 C   0  0  0  0  0  0  0  0  0  0  0  0
   13.3124   -8.0362   -9.5562 C   0  0  0  0  0  0  0  0  0  0  0  0
   14.2017   -7.1775   -8.7006 C   0  0  2  0  0  0  0  0  0  0  0  0
   13.3028   -6.2221   -7.9216 C   0  0  0  0  0  0  0  0  0  0  0  0
   15.2863   -6.5289   -9.4574 C   0  0  2  0  0  0  0  0  0  0  0  0
   16.1340   -7.4881  -10.1553 N   0  0  0  0  0  0  0  0  0  0  0  0
   16.0263   -5.5433   -8.6567 C   0  0  0  0  0  0  0  0  0  0  0  0
   15.5261   -4.2683   -8.4744 O   0  0  0  0  0  0  0  0  0  0  0  0
   17.1096   -5.8076   -8.1163 O   0  0  0  0  0  0  0  0  0  0  0  0
  2  1  1  6
  3  2  1  0
  4  3  1  0
  5  6  1  0
  5  4  1  0
  6  7  1  0
  8  2  1  0
  8  9  2  0
 10 11  1  0
 12 11  1  6
 12 13  1  0
 13  8  1  0
 14 12  1  0
 15 14  2  0
 17 16  1  0
 18 17  1  0
 18 19  1  6
 20 18  1  0
 20 21  1  1
 21 14  1  0
 22 20  1  0
 23 22  1  0
 24 22  2  0
M  END
$$$$
