KSI.pdb
     RDKit          3D

 24 23  0  0  1  0  0  0  0  0999 V2000
   18.8501  -22.1611  -12.6658 N   0  0  0  0  0  0  0  0  0  0  0  0
   19.6968  -22.4247  -13.8070 C   0  0  1  0  0  0  0  0  0  0  0  0
   18.8945  -22.9198  -14.9638 C   0  0  0  0  0  0  0  0  0  0  0  0
   18.5590  -24.3646  -14.9545 C   0  0  0  0  0  0  0  0  0  0  0  0
   19.6887  -25.3062  -14.7218 C   0  0  0  0  0  0  0  0  0  0  0  0
   19.2822  -26.7569  -14.8138 C   0  0  0  0  0  0  0  0  0  0  0  0
   20.4012  -27.6287  -14.5164 N   0  0  0  0  0  0  0  0  0  0  0  0
   20.4295  -21.1652  -14.1270 C   0  0  0  0  0  0  0  0  0  0  0  0
   19.8285  -20.1191  -14.4791 O   0  0  0  0  0  0  0  0  0  0  0  0
   24.6207  -21.2127  -14.0501 O   0  0  0  0  0  0  0  0  0  0  0  0
   23.9637  -20.0442  -13.6490 C   0  0  0  0  0  0  0  0  0  0  0  0
   22.6219  -19.9236  -14.3845 C   0  0  2  0  0  0  0  0  0  0  0  0
   21.8523  -21.0812  -14.0500 N   0  0  0  0  0  0  0  0  0  0  0  0
   22.8830  -19.8571  -15.8733 C   0  0  0  0  0  0  0  0  0  0  0  0
   22.8963  -20.9099  -16.5546 O   0  0  0  0  0  0  0  0  0  0  0  0
   20.5391  -16.2156  -18.8914 C   0  0  0  0  0  0  0  0  0  0  0  0
   21.2898  -17.5154  -18.5763 C   0  0  0  0  0  0  0  0  0  0  0  0
   22.7642  -17.2470  -18.4554 C   0  0  2  0  0  0  0  0  0  0  0  0
   23.2643  -16.8139  -19.8301 C   0  0  0  0  0  0  0  0  0  0  0  0
   23.5102  -18.3626  -17.8483 C   0  0  2  0  0  0  0  0  0  0  0  0
   23.1062  -18.6236  -16.4719 N   0  0  0  0  0  0  0  0  0  0  0  0
   24.9630  -18.2427  -18.0361 C   0  0  0  0  0  0  0  0  0  0  0  0
   25.7524  -17.6670  -17.0590 O   0  0  0  0  0  0  0  0  0  0  0  0
   25.5348  -18.6480  -19.0578 O   0  0  0  0  0  0  0  0  0  0  0  0
  2  1  1  1
  3  2  1  0
  4  3  1  0
  5  6  1  0
  5  4  1  0
  6  7  1  0
  8  2  1  0
  8  9  2  0
 10 11  1  0
 12 11  1  1
 12 13  1  0
 13  8  1  0
 14 12  1  0
 15 14  2  0
 17 16  1  0
 18 17  1  0
 18 19  1  6
 20 18  1  0
 20 21  1  1
 21 14  1  0
 22 20  1  0
 23 22  1  0
 24 22  2  0
M  END
$$$$
