KSI.pdb
     RDKit          3D

 24 23  0  0  1  0  0  0  0  0999 V2000
   23.3182  -15.9539  -17.2283 N   0  0  0  0  0  0  0  0  0  0  0  0
   23.4187  -14.6289  -17.7965 C   0  0  1  0  0  0  0  0  0  0  0  0
   22.5309  -14.4901  -18.9879 C   0  0  0  0  0  0  0  0  0  0  0  0
   22.0577  -15.7557  -19.6000 C   0  0  0  0  0  0  0  0  0  0  0  0
   21.1764  -15.6262  -20.7932 C   0  0  0  0  0  0  0  0  0  0  0  0
   20.7664  -16.9565  -21.3766 C   0  0  0  0  0  0  0  0  0  0  0  0
   19.9818  -16.7745  -22.5814 N   0  0  0  0  0  0  0  0  0  0  0  0
   23.0793  -13.6498  -16.7233 C   0  0  0  0  0  0  0  0  0  0  0  0
   22.0027  -13.7188  -16.0785 O   0  0  0  0  0  0  0  0  0  0  0  0
   25.7978  -10.6002  -15.9540 O   0  0  0  0  0  0  0  0  0  0  0  0
   25.0158  -11.0459  -14.8827 C   0  0  0  0  0  0  0  0  0  0  0  0
   23.6708  -11.5705  -15.4037 C   0  0  2  0  0  0  0  0  0  0  0  0
   23.9594  -12.5825  -16.3716 N   0  0  0  0  0  0  0  0  0  0  0  0
   22.9061  -10.4242  -16.0286 C   0  0  0  0  0  0  0  0  0  0  0  0
   23.1097  -10.1146  -17.2265 O   0  0  0  0  0  0  0  0  0  0  0  0
   18.2183   -9.9924  -17.3460 C   0  0  0  0  0  0  0  0  0  0  0  0
   19.6770   -9.5367  -17.2168 C   0  0  0  0  0  0  0  0  0  0  0  0
   19.8617   -8.7384  -15.9562 C   0  0  2  0  0  0  0  0  0  0  0  0
   19.0111   -7.4784  -16.0841 C   0  0  0  0  0  0  0  0  0  0  0  0
   21.2762   -8.4994  -15.6215 C   0  0  2  0  0  0  0  0  0  0  0  0
   21.9819   -9.7240  -15.2635 N   0  0  0  0  0  0  0  0  0  0  0  0
   21.4544   -7.4003  -14.6622 C   0  0  0  0  0  0  0  0  0  0  0  0
   21.8580   -7.6577  -13.3660 O   0  0  0  0  0  0  0  0  0  0  0  0
   21.2582   -6.2156  -14.9678 O   0  0  0  0  0  0  0  0  0  0  0  0
  2  1  1  1
  3  2  1  0
  4  3  1  0
  5  6  1  0
  5  4  1  0
  6  7  1  0
  8  2  1  0
  8  9  2  0
 10 11  1  0
 12 11  1  6
 12 13  1  0
 13  8  1  0
 14 12  1  0
 15 14  2  0
 17 16  1  0
 18 17  1  0
 18 19  1  6
 20 18  1  0
 20 21  1  1
 21 14  1  0
 22 20  1  0
 23 22  1  0
 24 22  2  0
M  END
$$$$
