KSI.pdb
     RDKit          3D

 24 23  0  0  1  0  0  0  0  0999 V2000
   30.4293  -23.9039  -16.1710 N   0  0  0  0  0  0  0  0  0  0  0  0
   29.2660  -23.6393  -16.9867 C   0  0  1  0  0  0  0  0  0  0  0  0
   28.5239  -24.8997  -17.2827 C   0  0  0  0  0  0  0  0  0  0  0  0
   29.1333  -25.7926  -18.2984 C   0  0  0  0  0  0  0  0  0  0  0  0
   30.1197  -26.7896  -17.7984 C   0  0  0  0  0  0  0  0  0  0  0  0
   30.6574  -27.6899  -18.8840 C   0  0  0  0  0  0  0  0  0  0  0  0
   30.1582  -29.0418  -18.7308 N   0  0  0  0  0  0  0  0  0  0  0  0
   28.4223  -22.6452  -16.2621 C   0  0  0  0  0  0  0  0  0  0  0  0
   27.7436  -22.9613  -15.2526 O   0  0  0  0  0  0  0  0  0  0  0  0
   28.1476  -18.8354  -17.8614 O   0  0  0  0  0  0  0  0  0  0  0  0
   28.1046  -18.9167  -16.4652 C   0  0  0  0  0  0  0  0  0  0  0  0
   27.5426  -20.2804  -16.0408 C   0  0  2  0  0  0  0  0  0  0  0  0
   28.3410  -21.2817  -16.6766 N   0  0  0  0  0  0  0  0  0  0  0  0
   26.0990  -20.3754  -16.4838 C   0  0  0  0  0  0  0  0  0  0  0  0
   25.7973  -21.0525  -17.4952 O   0  0  0  0  0  0  0  0  0  0  0  0
   20.9992  -21.5126  -16.0828 C   0  0  0  0  0  0  0  0  0  0  0  0
   21.3873  -20.2116  -15.3692 C   0  0  0  0  0  0  0  0  0  0  0  0
   22.8513  -20.2240  -15.0272 C   0  0  2  0  0  0  0  0  0  0  0  0
   23.0014  -19.6127  -13.6375 C   0  0  0  0  0  0  0  0  0  0  0  0
   23.6965  -19.6126  -16.0673 C   0  0  2  0  0  0  0  0  0  0  0  0
   25.1187  -19.7074  -15.7608 N   0  0  0  0  0  0  0  0  0  0  0  0
   23.2503  -18.2628  -16.4400 C   0  0  0  0  0  0  0  0  0  0  0  0
   22.2127  -18.0882  -17.3357 O   0  0  0  0  0  0  0  0  0  0  0  0
   23.7719  -17.2401  -15.9739 O   0  0  0  0  0  0  0  0  0  0  0  0
  2  1  1  1
  3  2  1  0
  4  3  1  0
  5  6  1  0
  5  4  1  0
  6  7  1  0
  8  2  1  0
  8  9  2  0
 10 11  1  0
 12 11  1  6
 12 13  1  0
 13  8  1  0
 14 12  1  0
 15 14  2  0
 17 16  1  0
 18 17  1  0
 18 19  1  1
 20 18  1  0
 20 21  1  1
 21 14  1  0
 22 20  1  0
 23 22  1  0
 24 22  2  0
M  END
$$$$
