KSI.pdb
     RDKit          3D

 24 23  0  0  1  0  0  0  0  0999 V2000
   16.1201  -14.0790  -18.5146 N   0  0  0  0  0  0  0  0  0  0  0  0
   17.2978  -14.0474  -17.6775 C   0  0  1  0  0  0  0  0  0  0  0  0
   18.1748  -15.2247  -17.9455 C   0  0  0  0  0  0  0  0  0  0  0  0
   17.6709  -16.5357  -17.4686 C   0  0  0  0  0  0  0  0  0  0  0  0
   18.5340  -17.7176  -17.7433 C   0  0  0  0  0  0  0  0  0  0  0  0
   18.0131  -18.9912  -17.1232 C   0  0  0  0  0  0  0  0  0  0  0  0
   18.9456  -20.0830  -17.3203 N   0  0  0  0  0  0  0  0  0  0  0  0
   17.9974  -12.7542  -17.9299 C   0  0  0  0  0  0  0  0  0  0  0  0
   18.1258  -12.2844  -19.0885 O   0  0  0  0  0  0  0  0  0  0  0  0
   17.1429   -9.5183  -16.4188 O   0  0  0  0  0  0  0  0  0  0  0  0
   18.0382   -9.7323  -17.4726 C   0  0  0  0  0  0  0  0  0  0  0  0
   19.1506  -10.6895  -17.0233 C   0  0  2  0  0  0  0  0  0  0  0  0
   18.5581  -11.9815  -16.8688 N   0  0  0  0  0  0  0  0  0  0  0  0
   19.7237  -10.1951  -15.7132 C   0  0  0  0  0  0  0  0  0  0  0  0
   19.0756  -10.3441  -14.6501 O   0  0  0  0  0  0  0  0  0  0  0  0
   25.3085  -10.1495  -15.2834 C   0  0  0  0  0  0  0  0  0  0  0  0
   23.9539   -9.4771  -15.5389 C   0  0  0  0  0  0  0  0  0  0  0  0
   23.0181   -9.7429  -14.3926 C   0  0  2  0  0  0  0  0  0  0  0  0
   22.9585  -11.2541  -14.1919 C   0  0  0  0  0  0  0  0  0  0  0  0
   21.7084   -9.0867  -14.5472 C   0  0  2  0  0  0  0  0  0  0  0  0
   20.9684   -9.5782  -15.7032 N   0  0  0  0  0  0  0  0  0  0  0  0
   21.7947   -7.6216  -14.4669 C   0  0  0  0  0  0  0  0  0  0  0  0
   21.4582   -6.8376  -15.5537 O   0  0  0  0  0  0  0  0  0  0  0  0
   22.1624   -7.0348  -13.4395 O   0  0  0  0  0  0  0  0  0  0  0  0
  2  1  1  6
  3  2  1  0
  4  3  1  0
  5  6  1  0
  5  4  1  0
  6  7  1  0
  8  2  1  0
  8  9  2  0
 10 11  1  0
 12 11  1  1
 12 13  1  0
 13  8  1  0
 14 12  1  0
 15 14  2  0
 17 16  1  0
 18 17  1  0
 18 19  1  6
 20 18  1  0
 20 21  1  6
 21 14  1  0
 22 20  1  0
 23 22  1  0
 24 22  2  0
M  END
$$$$
