KSI.pdb
     RDKit          3D

 24 23  0  0  1  0  0  0  0  0999 V2000
   26.8322  -24.7460  -16.3354 N   0  0  0  0  0  0  0  0  0  0  0  0
   26.9826  -23.4493  -15.7153 C   0  0  1  0  0  0  0  0  0  0  0  0
   27.2310  -22.3933  -16.7401 C   0  0  0  0  0  0  0  0  0  0  0  0
   28.6482  -22.1692  -17.1160 C   0  0  0  0  0  0  0  0  0  0  0  0
   29.4474  -23.3824  -17.4426 C   0  0  0  0  0  0  0  0  0  0  0  0
   30.8795  -23.0714  -17.8037 C   0  0  0  0  0  0  0  0  0  0  0  0
   31.6277  -24.2879  -18.0504 N   0  0  0  0  0  0  0  0  0  0  0  0
   25.7496  -23.1832  -14.9189 C   0  0  0  0  0  0  0  0  0  0  0  0
   24.6046  -23.4621  -15.3556 O   0  0  0  0  0  0  0  0  0  0  0  0
   25.9802  -20.7635  -11.4892 O   0  0  0  0  0  0  0  0  0  0  0  0
   25.1791  -21.9087  -11.4210 C   0  0  0  0  0  0  0  0  0  0  0  0
   24.6643  -22.2672  -12.8218 C   0  0  2  0  0  0  0  0  0  0  0  0
   25.8047  -22.5977  -13.6183 N   0  0  0  0  0  0  0  0  0  0  0  0
   23.9296  -21.0748  -13.3944 C   0  0  0  0  0  0  0  0  0  0  0  0
   24.5490  -20.0093  -13.6254 O   0  0  0  0  0  0  0  0  0  0  0  0
   22.4462  -20.3017  -17.9055 C   0  0  0  0  0  0  0  0  0  0  0  0
   22.7408  -20.1290  -16.4103 C   0  0  0  0  0  0  0  0  0  0  0  0
   21.4679  -20.2247  -15.6160 C   0  0  2  0  0  0  0  0  0  0  0  0
   20.4944  -19.1980  -16.1869 C   0  0  0  0  0  0  0  0  0  0  0  0
   21.6820  -20.1330  -14.1615 C   0  0  2  0  0  0  0  0  0  0  0  0
   22.5696  -21.1749  -13.6591 N   0  0  0  0  0  0  0  0  0  0  0  0
   20.4259  -19.9993  -13.4103 C   0  0  0  0  0  0  0  0  0  0  0  0
   19.9711  -18.7550  -13.0178 O   0  0  0  0  0  0  0  0  0  0  0  0
   19.7294  -20.9774  -13.1043 O   0  0  0  0  0  0  0  0  0  0  0  0
  2  1  1  6
  3  2  1  0
  4  3  1  0
  5  6  1  0
  5  4  1  0
  6  7  1  0
  8  2  1  0
  8  9  2  0
 10 11  1  0
 12 11  1  1
 12 13  1  0
 13  8  1  0
 14 12  1  0
 15 14  2  0
 17 16  1  0
 18 17  1  0
 18 19  1  6
 20 18  1  0
 20 21  1  1
 21 14  1  0
 22 20  1  0
 23 22  1  0
 24 22  2  0
M  END
$$$$
