SYL.pdb
     RDKit          3D

 27 27  0  0  1  0  0  0  0  0999 V2000
    8.2570  -15.1622   19.1070 O   0  0  0  0  0  0  0  0  0  0  0  0
    7.9647  -15.2933   20.4659 C   0  0  0  0  0  0  0  0  0  0  0  0
    7.1325  -16.5257   20.7245 C   0  0  2  0  0  0  0  0  0  0  0  0
    5.8843  -16.4090   20.0184 N   0  0  0  0  0  0  0  0  0  0  0  0
    6.9061  -16.7469   22.1676 C   0  0  0  0  0  0  0  0  0  0  0  0
    5.7903  -16.4333   22.6567 O   0  0  0  0  0  0  0  0  0  0  0  0
    7.5937  -20.6990   29.9790 O   0  0  0  0  0  0  0  0  0  0  0  0
    7.7960  -20.2689   28.6512 C   0  0  0  0  0  0  0  0  0  0  0  0
    9.0628  -19.9373   28.2392 C   0  0  0  0  0  0  0  0  0  0  0  0
    9.2811  -19.5091   26.9264 C   0  0  0  0  0  0  0  0  0  0  0  0
    8.2382  -19.4141   26.0341 C   0  0  0  0  0  0  0  0  0  0  0  0
    8.4481  -18.9660   24.6502 C   0  0  0  0  0  0  0  0  0  0  0  0
    7.6521  -17.7285   24.3000 C   0  0  2  0  0  0  0  0  0  0  0  0
    7.9469  -17.3028   22.9533 N   0  0  0  0  0  0  0  0  0  0  0  0
    7.9171  -16.6119   25.2395 C   0  0  0  0  0  0  0  0  0  0  0  0
    7.4355  -16.5626   26.3944 O   0  0  0  0  0  0  0  0  0  0  0  0
    6.9822  -19.7510   26.4702 C   0  0  0  0  0  0  0  0  0  0  0  0
    6.7559  -20.1781   27.7749 C   0  0  0  0  0  0  0  0  0  0  0  0
    5.8867  -12.9110   26.7755 C   0  0  0  0  0  0  0  0  0  0  0  0
    6.9774  -13.4445   25.8704 C   0  0  1  0  0  0  0  0  0  0  0  0
    7.5586  -12.2958   25.0275 C   0  0  0  0  0  0  0  0  0  0  0  0
    8.0886  -14.0720   26.6272 C   0  0  0  0  0  0  0  0  0  0  0  0
    9.2257  -14.5144   25.7568 C   0  0  2  0  0  0  0  0  0  0  0  0
    8.7522  -15.5434   24.8260 N   0  0  0  0  0  0  0  0  0  0  0  0
   10.2528  -15.1851   26.5895 C   0  0  0  0  0  0  0  0  0  0  0  0
   11.0223  -14.5337   27.3775 O   0  0  0  0  0  0  0  0  0  0  0  0
   10.4308  -16.5432   26.5607 O   0  0  0  0  0  0  0  0  0  0  0  0
  2  3  1  0
  2  1  1  0
  3  4  1  6
  5  6  2  0
  5  3  1  0
  7  8  1  0
  8 18  2  0
  9 10  2  0
  9  8  1  0
 10 11  1  0
 11 12  1  0
 11 17  2  0
 13 12  1  1
 13 14  1  0
 14  5  1  0
 15 13  1  0
 16 15  2  0
 18 17  1  0
 20 22  1  0
 20 19  1  1
 21 20  1  0
 23 22  1  1
 23 24  1  0
 24 15  1  0
 25 23  1  0
 26 25  2  0
 27 25  1  0
M  END
$$$$
