SYL.pdb
     RDKit          3D

 27 27  0  0  1  0  0  0  0  0999 V2000
    6.0431  -18.0152   24.7373 O   0  0  0  0  0  0  0  0  0  0  0  0
    6.2462  -19.1039   23.8873 C   0  0  0  0  0  0  0  0  0  0  0  0
    6.5357  -18.6449   22.4789 C   0  0  2  0  0  0  0  0  0  0  0  0
    6.7893  -19.7938   21.6506 N   0  0  0  0  0  0  0  0  0  0  0  0
    7.6665  -17.6955   22.4284 C   0  0  0  0  0  0  0  0  0  0  0  0
    8.8335  -18.1544   22.3285 O   0  0  0  0  0  0  0  0  0  0  0  0
    7.8868  -13.9577   16.1845 O   0  0  0  0  0  0  0  0  0  0  0  0
    7.9279  -13.9715   17.5941 C   0  0  0  0  0  0  0  0  0  0  0  0
    8.0898  -15.1673   18.2487 C   0  0  0  0  0  0  0  0  0  0  0  0
    8.1328  -15.1991   19.6457 C   0  0  0  0  0  0  0  0  0  0  0  0
    8.0144  -14.0419   20.3804 C   0  0  0  0  0  0  0  0  0  0  0  0
    8.0572  -14.0555   21.8494 C   0  0  0  0  0  0  0  0  0  0  0  0
    8.5112  -15.3817   22.4175 C   0  0  2  0  0  0  0  0  0  0  0  0
    7.4041  -16.3039   22.4937 N   0  0  0  0  0  0  0  0  0  0  0  0
    9.1218  -15.2320   23.7608 C   0  0  0  0  0  0  0  0  0  0  0  0
   10.3535  -15.0933   23.9392 O   0  0  0  0  0  0  0  0  0  0  0  0
    7.8536  -12.8602   19.7028 C   0  0  0  0  0  0  0  0  0  0  0  0
    7.8098  -12.8194   18.3128 C   0  0  0  0  0  0  0  0  0  0  0  0
    5.6677  -12.8085   26.9560 C   0  0  0  0  0  0  0  0  0  0  0  0
    7.0011  -13.1654   26.3330 C   0  0  1  0  0  0  0  0  0  0  0  0
    7.9316  -11.9403   26.3644 C   0  0  0  0  0  0  0  0  0  0  0  0
    7.6790  -14.2802   27.0394 C   0  0  0  0  0  0  0  0  0  0  0  0
    8.7839  -14.9049   26.2425 C   0  0  2  0  0  0  0  0  0  0  0  0
    8.2859  -15.2444   24.9059 N   0  0  0  0  0  0  0  0  0  0  0  0
    9.1647  -16.1994   26.8568 C   0  0  0  0  0  0  0  0  0  0  0  0
    9.6835  -16.2727   28.0242 O   0  0  0  0  0  0  0  0  0  0  0  0
    8.9780  -17.3899   26.2051 O   0  0  0  0  0  0  0  0  0  0  0  0
  2  3  1  0
  2  1  1  0
  3  4  1  6
  5  6  2  0
  5  3  1  0
  7  8  1  0
  8 18  2  0
  9 10  2  0
  9  8  1  0
 10 11  1  0
 11 12  1  0
 11 17  2  0
 13 12  1  1
 13 14  1  0
 14  5  1  0
 15 13  1  0
 16 15  2  0
 18 17  1  0
 20 22  1  0
 20 19  1  1
 21 20  1  0
 23 22  1  1
 23 24  1  0
 24 15  1  0
 25 23  1  0
 26 25  2  0
 27 25  1  0
M  END
$$$$
