SYL.pdb
     RDKit          3D

 27 27  0  0  1  0  0  0  0  0999 V2000
    7.9006  -15.5542   19.5115 O   0  0  0  0  0  0  0  0  0  0  0  0
    6.7098  -14.9375   19.8999 C   0  0  0  0  0  0  0  0  0  0  0  0
    6.9744  -13.5776   20.4988 C   0  0  2  0  0  0  0  0  0  0  0  0
    7.5086  -12.7101   19.4827 N   0  0  0  0  0  0  0  0  0  0  0  0
    7.8824  -13.6530   21.6618 C   0  0  0  0  0  0  0  0  0  0  0  0
    9.0940  -13.3558   21.4997 O   0  0  0  0  0  0  0  0  0  0  0  0
   10.9103  -15.1279   29.8011 O   0  0  0  0  0  0  0  0  0  0  0  0
   10.0701  -14.9079   28.6901 C   0  0  0  0  0  0  0  0  0  0  0  0
    9.9693  -13.6433   28.1654 C   0  0  0  0  0  0  0  0  0  0  0  0
    9.1410  -13.4076   27.0641 C   0  0  0  0  0  0  0  0  0  0  0  0
    8.4198  -14.4309   26.4935 C   0  0  0  0  0  0  0  0  0  0  0  0
    7.5440  -14.2024   25.3356 C   0  0  0  0  0  0  0  0  0  0  0  0
    8.2784  -14.2642   24.0149 C   0  0  2  0  0  0  0  0  0  0  0  0
    7.3641  -14.0556   22.9184 N   0  0  0  0  0  0  0  0  0  0  0  0
    8.9837  -15.5558   23.8301 C   0  0  0  0  0  0  0  0  0  0  0  0
    8.3879  -16.6305   23.5890 O   0  0  0  0  0  0  0  0  0  0  0  0
    8.5378  -15.6851   27.0362 C   0  0  0  0  0  0  0  0  0  0  0  0
    9.3597  -15.9287   28.1320 C   0  0  0  0  0  0  0  0  0  0  0  0
   13.3673  -15.6093   20.8836 C   0  0  0  0  0  0  0  0  0  0  0  0
   12.1327  -16.1390   21.5826 C   0  0  1  0  0  0  0  0  0  0  0  0
   11.5872  -17.3574   20.8172 C   0  0  0  0  0  0  0  0  0  0  0  0
   12.4045  -16.5540   22.9809 C   0  0  0  0  0  0  0  0  0  0  0  0
   11.1618  -16.8335   23.7705 C   0  0  2  0  0  0  0  0  0  0  0  0
   10.3976  -15.5921   23.9280 N   0  0  0  0  0  0  0  0  0  0  0  0
   11.5326  -17.2399   25.1473 C   0  0  0  0  0  0  0  0  0  0  0  0
   11.4446  -16.4384   26.1409 O   0  0  0  0  0  0  0  0  0  0  0  0
   11.9885  -18.5007   25.4292 O   0  0  0  0  0  0  0  0  0  0  0  0
  2  3  1  0
  2  1  1  0
  3  4  1  6
  5  6  2  0
  5  3  1  0
  7  8  1  0
  8 18  2  0
  9 10  2  0
  9  8  1  0
 10 11  1  0
 11 12  1  0
 11 17  2  0
 13 12  1  1
 13 14  1  0
 14  5  1  0
 15 13  1  0
 16 15  2  0
 18 17  1  0
 20 22  1  0
 20 19  1  6
 21 20  1  0
 23 22  1  6
 23 24  1  0
 24 15  1  0
 25 23  1  0
 26 25  2  0
 27 25  1  0
M  END
$$$$
