SYL.pdb
     RDKit          3D

 27 27  0  0  1  0  0  0  0  0999 V2000
    5.9181  -18.3456   24.3975 O   0  0  0  0  0  0  0  0  0  0  0  0
    5.7498  -17.6619   23.1919 C   0  0  0  0  0  0  0  0  0  0  0  0
    6.6799  -18.1980   22.1309 C   0  0  2  0  0  0  0  0  0  0  0  0
    6.3319  -19.5645   21.8446 N   0  0  0  0  0  0  0  0  0  0  0  0
    8.0977  -18.0849   22.5303 C   0  0  0  0  0  0  0  0  0  0  0  0
    8.7230  -19.1336   22.8334 O   0  0  0  0  0  0  0  0  0  0  0  0
   16.4504  -16.0445   22.5364 O   0  0  0  0  0  0  0  0  0  0  0  0
   15.0465  -15.9408   22.4500 C   0  0  0  0  0  0  0  0  0  0  0  0
   14.3766  -16.6761   21.5039 C   0  0  0  0  0  0  0  0  0  0  0  0
   12.9851  -16.5853   21.4045 C   0  0  0  0  0  0  0  0  0  0  0  0
   12.2711  -15.7642   22.2465 C   0  0  0  0  0  0  0  0  0  0  0  0
   10.8081  -15.6555   22.1571 C   0  0  0  0  0  0  0  0  0  0  0  0
   10.0844  -16.6994   22.9782 C   0  0  2  0  0  0  0  0  0  0  0  0
    8.7076  -16.8056   22.5599 N   0  0  0  0  0  0  0  0  0  0  0  0
   10.1372  -16.4004   24.4299 C   0  0  0  0  0  0  0  0  0  0  0  0
   11.2071  -16.3549   25.0790 O   0  0  0  0  0  0  0  0  0  0  0  0
   12.9637  -15.0400   23.1831 C   0  0  0  0  0  0  0  0  0  0  0  0
   14.3484  -15.1243   23.2890 C   0  0  0  0  0  0  0  0  0  0  0  0
    6.2579  -13.0115   26.2116 C   0  0  0  0  0  0  0  0  0  0  0  0
    7.5992  -13.7000   26.0692 C   0  0  1  0  0  0  0  0  0  0  0  0
    8.7137  -12.7746   26.5880 C   0  0  0  0  0  0  0  0  0  0  0  0
    7.6670  -14.9755   26.8240 C   0  0  0  0  0  0  0  0  0  0  0  0
    8.9085  -15.7670   26.5439 C   0  0  2  0  0  0  0  0  0  0  0  0
    8.9292  -16.1525   25.1295 N   0  0  0  0  0  0  0  0  0  0  0  0
    8.8597  -17.0442   27.2952 C   0  0  0  0  0  0  0  0  0  0  0  0
    8.9329  -17.0864   28.5721 O   0  0  0  0  0  0  0  0  0  0  0  0
    8.7306  -18.2508   26.6593 O   0  0  0  0  0  0  0  0  0  0  0  0
  2  3  1  0
  2  1  1  0
  3  4  1  1
  5  6  2  0
  5  3  1  0
  7  8  1  0
  8 18  2  0
  9 10  2  0
  9  8  1  0
 10 11  1  0
 11 12  1  0
 11 17  2  0
 13 12  1  6
 13 14  1  0
 14  5  1  0
 15 13  1  0
 16 15  2  0
 18 17  1  0
 20 22  1  0
 20 19  1  1
 21 20  1  0
 23 22  1  6
 23 24  1  0
 24 15  1  0
 25 23  1  0
 26 25  2  0
 27 25  1  0
M  END
$$$$
