SYL.pdb
     RDKit          3D

 27 27  0  0  1  0  0  0  0  0999 V2000
    7.0987  -18.4146   26.4038 O   0  0  0  0  0  0  0  0  0  0  0  0
    7.1974  -19.6879   25.8399 C   0  0  0  0  0  0  0  0  0  0  0  0
    6.7370  -19.6808   24.4024 C   0  0  2  0  0  0  0  0  0  0  0  0
    6.9196  -20.9933   23.8418 N   0  0  0  0  0  0  0  0  0  0  0  0
    7.4426  -18.6597   23.6011 C   0  0  0  0  0  0  0  0  0  0  0  0
    8.5663  -18.9475   23.1142 O   0  0  0  0  0  0  0  0  0  0  0  0
    9.2253  -11.9302   18.4004 O   0  0  0  0  0  0  0  0  0  0  0  0
    8.5880  -12.7666   19.3402 C   0  0  0  0  0  0  0  0  0  0  0  0
    8.2529  -14.0479   18.9791 C   0  0  0  0  0  0  0  0  0  0  0  0
    7.6206  -14.8904   19.8982 C   0  0  0  0  0  0  0  0  0  0  0  0
    7.3267  -14.4521   21.1689 C   0  0  0  0  0  0  0  0  0  0  0  0
    6.6625  -15.3231   22.1488 C   0  0  0  0  0  0  0  0  0  0  0  0
    7.5918  -16.3514   22.7544 C   0  0  2  0  0  0  0  0  0  0  0  0
    6.8359  -17.3934   23.4061 N   0  0  0  0  0  0  0  0  0  0  0  0
    8.5352  -15.7456   23.7253 C   0  0  0  0  0  0  0  0  0  0  0  0
    9.7216  -15.4645   23.4398 O   0  0  0  0  0  0  0  0  0  0  0  0
    7.6717  -13.1678   21.5051 C   0  0  0  0  0  0  0  0  0  0  0  0
    8.3011  -12.3227   20.5966 C   0  0  0  0  0  0  0  0  0  0  0  0
    5.7810  -12.8296   27.1421 C   0  0  0  0  0  0  0  0  0  0  0  0
    6.8909  -13.2581   26.2051 C   0  0  1  0  0  0  0  0  0  0  0  0
    7.4627  -12.0258   25.4824 C   0  0  0  0  0  0  0  0  0  0  0  0
    8.0034  -13.9372   26.9139 C   0  0  0  0  0  0  0  0  0  0  0  0
    8.9031  -14.7147   26.0017 C   0  0  2  0  0  0  0  0  0  0  0  0
    8.0885  -15.4658   25.0415 N   0  0  0  0  0  0  0  0  0  0  0  0
    9.6302  -15.7430   26.7841 C   0  0  0  0  0  0  0  0  0  0  0  0
   10.4802  -15.4347   27.6896 O   0  0  0  0  0  0  0  0  0  0  0  0
    9.4274  -17.0823   26.5796 O   0  0  0  0  0  0  0  0  0  0  0  0
  2  3  1  0
  2  1  1  0
  3  4  1  6
  5  6  2  0
  5  3  1  0
  7  8  1  0
  8 18  2  0
  9 10  2  0
  9  8  1  0
 10 11  1  0
 11 12  1  0
 11 17  2  0
 13 12  1  1
 13 14  1  0
 14  5  1  0
 15 13  1  0
 16 15  2  0
 18 17  1  0
 20 22  1  0
 20 19  1  1
 21 20  1  0
 23 22  1  1
 23 24  1  0
 24 15  1  0
 25 23  1  0
 26 25  2  0
 27 25  1  0
M  END
$$$$
