SYL.pdb
     RDKit          3D

 27 27  0  0  1  0  0  0  0  0999 V2000
    8.7573  -14.2892   20.2613 O   0  0  0  0  0  0  0  0  0  0  0  0
    7.5360  -14.6167   19.6694 C   0  0  0  0  0  0  0  0  0  0  0  0
    7.1286  -16.0287   20.0136 C   0  0  2  0  0  0  0  0  0  0  0  0
    5.9033  -16.3466   19.3296 N   0  0  0  0  0  0  0  0  0  0  0  0
    6.9875  -16.2234   21.4713 C   0  0  0  0  0  0  0  0  0  0  0  0
    5.8863  -15.9444   22.0118 O   0  0  0  0  0  0  0  0  0  0  0  0
    7.6912  -19.5605   29.4796 O   0  0  0  0  0  0  0  0  0  0  0  0
    7.8540  -19.2600   28.1113 C   0  0  0  0  0  0  0  0  0  0  0  0
    9.1106  -18.9907   27.6286 C   0  0  0  0  0  0  0  0  0  0  0  0
    9.2900  -18.6909   26.2750 C   0  0  0  0  0  0  0  0  0  0  0  0
    8.2186  -18.6612   25.4123 C   0  0  0  0  0  0  0  0  0  0  0  0
    8.3874  -18.3481   23.9863 C   0  0  0  0  0  0  0  0  0  0  0  0
    7.9300  -16.9519   23.6272 C   0  0  2  0  0  0  0  0  0  0  0  0
    8.0906  -16.7160   22.2129 N   0  0  0  0  0  0  0  0  0  0  0  0
    8.6659  -15.9125   24.3874 C   0  0  0  0  0  0  0  0  0  0  0  0
    9.8268  -15.5457   24.0940 O   0  0  0  0  0  0  0  0  0  0  0  0
    6.9735  -18.9339   25.9191 C   0  0  0  0  0  0  0  0  0  0  0  0
    6.7859  -19.2332   27.2649 C   0  0  0  0  0  0  0  0  0  0  0  0
    5.5325  -12.0817   26.6118 C   0  0  0  0  0  0  0  0  0  0  0  0
    6.6651  -12.8284   25.9387 C   0  0  1  0  0  0  0  0  0  0  0  0
    7.4110  -11.8831   24.9806 C   0  0  0  0  0  0  0  0  0  0  0  0
    7.6458  -13.3712   26.9107 C   0  0  0  0  0  0  0  0  0  0  0  0
    8.6920  -14.2385   26.2787 C   0  0  2  0  0  0  0  0  0  0  0  0
    8.0399  -15.2960   25.5001 N   0  0  0  0  0  0  0  0  0  0  0  0
    9.4519  -14.9461   27.3370 C   0  0  0  0  0  0  0  0  0  0  0  0
   10.2693  -14.3376   28.1109 O   0  0  0  0  0  0  0  0  0  0  0  0
    9.3164  -16.2935   27.5442 O   0  0  0  0  0  0  0  0  0  0  0  0
  2  3  1  0
  2  1  1  0
  3  4  1  6
  5  6  2  0
  5  3  1  0
  7  8  1  0
  8 18  2  0
  9 10  2  0
  9  8  1  0
 10 11  1  0
 11 12  1  0
 11 17  2  0
 13 12  1  6
 13 14  1  0
 14  5  1  0
 15 13  1  0
 16 15  2  0
 18 17  1  0
 20 22  1  0
 20 19  1  1
 21 20  1  0
 23 22  1  1
 23 24  1  0
 24 15  1  0
 25 23  1  0
 26 25  2  0
 27 25  1  0
M  END
$$$$
