SYL.pdb
     RDKit          3D

 27 27  0  0  1  0  0  0  0  0999 V2000
    7.0345  -20.3328   21.5512 O   0  0  0  0  0  0  0  0  0  0  0  0
    6.1693  -20.7575   22.5612 C   0  0  0  0  0  0  0  0  0  0  0  0
    5.0530  -19.7637   22.7715 C   0  0  2  0  0  0  0  0  0  0  0  0
    4.1735  -19.7938   21.6331 N   0  0  0  0  0  0  0  0  0  0  0  0
    5.5657  -18.3986   23.0088 C   0  0  0  0  0  0  0  0  0  0  0  0
    5.3935  -17.5277   22.1175 O   0  0  0  0  0  0  0  0  0  0  0  0
    7.6660  -11.0262   27.1448 O   0  0  0  0  0  0  0  0  0  0  0  0
    7.4699  -12.3903   26.8452 C   0  0  0  0  0  0  0  0  0  0  0  0
    6.1904  -12.8771   26.7417 C   0  0  0  0  0  0  0  0  0  0  0  0
    5.9779  -14.2267   26.4454 C   0  0  0  0  0  0  0  0  0  0  0  0
    7.0391  -15.0812   26.2542 C   0  0  0  0  0  0  0  0  0  0  0  0
    6.8355  -16.5029   25.9419 C   0  0  0  0  0  0  0  0  0  0  0  0
    6.7163  -16.7733   24.4586 C   0  0  2  0  0  0  0  0  0  0  0  0
    6.2324  -18.1126   24.2267 N   0  0  0  0  0  0  0  0  0  0  0  0
    8.0075  -16.5863   23.7532 C   0  0  0  0  0  0  0  0  0  0  0  0
    8.8742  -17.4860   23.6659 O   0  0  0  0  0  0  0  0  0  0  0  0
    8.3075  -14.5705   26.3630 C   0  0  0  0  0  0  0  0  0  0  0  0
    8.5281  -13.2287   26.6576 C   0  0  0  0  0  0  0  0  0  0  0  0
    7.8610  -12.1473   20.3804 C   0  0  0  0  0  0  0  0  0  0  0  0
    7.9825  -13.5540   20.9280 C   0  0  1  0  0  0  0  0  0  0  0  0
    7.8041  -14.5708   19.7870 C   0  0  0  0  0  0  0  0  0  0  0  0
    9.2969  -13.8032   21.5695 C   0  0  0  0  0  0  0  0  0  0  0  0
    9.4009  -15.1559   22.2065 C   0  0  2  0  0  0  0  0  0  0  0  0
    8.2886  -15.3371   23.1444 N   0  0  0  0  0  0  0  0  0  0  0  0
   10.6262  -15.2166   23.0390 C   0  0  0  0  0  0  0  0  0  0  0  0
   11.7988  -15.1537   22.5304 O   0  0  0  0  0  0  0  0  0  0  0  0
   10.5671  -15.3414   24.4020 O   0  0  0  0  0  0  0  0  0  0  0  0
  2  3  1  0
  2  1  1  0
  3  4  1  6
  5  6  2  0
  5  3  1  0
  7  8  1  0
  8 18  2  0
  9 10  2  0
  9  8  1  0
 10 11  1  0
 11 12  1  0
 11 17  2  0
 13 12  1  1
 13 14  1  0
 14  5  1  0
 15 13  1  0
 16 15  2  0
 18 17  1  0
 20 22  1  0
 20 19  1  6
 21 20  1  0
 23 22  1  1
 23 24  1  0
 24 15  1  0
 25 23  1  0
 26 25  2  0
 27 25  1  0
M  END
$$$$
