SYL.pdb
     RDKit          3D

 27 27  0  0  1  0  0  0  0  0999 V2000
    6.5934  -18.4220   23.8165 O   0  0  0  0  0  0  0  0  0  0  0  0
    6.8772  -19.2235   22.7091 C   0  0  0  0  0  0  0  0  0  0  0  0
    7.0897  -18.3839   21.4730 C   0  0  2  0  0  0  0  0  0  0  0  0
    7.3785  -19.2480   20.3593 N   0  0  0  0  0  0  0  0  0  0  0  0
    8.1621  -17.3853   21.6607 C   0  0  0  0  0  0  0  0  0  0  0  0
    9.3438  -17.7109   21.3775 O   0  0  0  0  0  0  0  0  0  0  0  0
    7.9010  -13.4681   16.3036 O   0  0  0  0  0  0  0  0  0  0  0  0
    8.0604  -13.5446   17.7027 C   0  0  0  0  0  0  0  0  0  0  0  0
    6.9477  -13.5272   18.5065 C   0  0  0  0  0  0  0  0  0  0  0  0
    7.0875  -13.6023   19.8955 C   0  0  0  0  0  0  0  0  0  0  0  0
    8.3325  -13.6941   20.4739 C   0  0  0  0  0  0  0  0  0  0  0  0
    8.4995  -13.7739   21.9319 C   0  0  0  0  0  0  0  0  0  0  0  0
    8.8907  -15.1547   22.4095 C   0  0  2  0  0  0  0  0  0  0  0  0
    7.8296  -16.0977   22.1516 N   0  0  0  0  0  0  0  0  0  0  0  0
    9.2237  -15.1701   23.8547 C   0  0  0  0  0  0  0  0  0  0  0  0
   10.3985  -15.1175   24.2851 O   0  0  0  0  0  0  0  0  0  0  0  0
    9.4284  -13.7096   19.6491 C   0  0  0  0  0  0  0  0  0  0  0  0
    9.2983  -13.6353   18.2659 C   0  0  0  0  0  0  0  0  0  0  0  0
    5.5538  -12.5514   26.6666 C   0  0  0  0  0  0  0  0  0  0  0  0
    6.9217  -13.0692   26.2739 C   0  0  1  0  0  0  0  0  0  0  0  0
    8.0043  -12.0858   26.7522 C   0  0  0  0  0  0  0  0  0  0  0  0
    7.2151  -14.4012   26.8580 C   0  0  0  0  0  0  0  0  0  0  0  0
    8.4061  -15.0712   26.2425 C   0  0  2  0  0  0  0  0  0  0  0  0
    8.1748  -15.2475   24.8055 N   0  0  0  0  0  0  0  0  0  0  0  0
    8.5365  -16.4439   26.7874 C   0  0  0  0  0  0  0  0  0  0  0  0
    8.2978  -17.4830   26.0796 O   0  0  0  0  0  0  0  0  0  0  0  0
    8.9235  -16.6728   28.0815 O   0  0  0  0  0  0  0  0  0  0  0  0
  2  3  1  0
  2  1  1  0
  3  4  1  6
  5  6  2  0
  5  3  1  0
  7  8  1  0
  8 18  2  0
  9 10  2  0
  9  8  1  0
 10 11  1  0
 11 12  1  0
 11 17  2  0
 13 12  1  1
 13 14  1  0
 14  5  1  0
 15 13  1  0
 16 15  2  0
 18 17  1  0
 20 22  1  0
 20 19  1  1
 21 20  1  0
 23 22  1  1
 23 24  1  0
 24 15  1  0
 25 23  1  0
 26 25  2  0
 27 25  1  0
M  END
$$$$
