SYL.pdb
     RDKit          3D

 27 27  0  0  1  0  0  0  0  0999 V2000
    8.9518  -15.4993   19.8303 O   0  0  0  0  0  0  0  0  0  0  0  0
    7.6284  -15.4087   19.3949 C   0  0  0  0  0  0  0  0  0  0  0  0
    6.7876  -16.5153   19.9837 C   0  0  2  0  0  0  0  0  0  0  0  0
    5.4470  -16.4133   19.4711 N   0  0  0  0  0  0  0  0  0  0  0  0
    6.7934  -16.4877   21.4608 C   0  0  0  0  0  0  0  0  0  0  0  0
    6.0040  -15.7061   22.0512 O   0  0  0  0  0  0  0  0  0  0  0  0
    8.7216  -18.9030   29.7378 O   0  0  0  0  0  0  0  0  0  0  0  0
    8.5432  -18.8635   28.3394 C   0  0  0  0  0  0  0  0  0  0  0  0
    7.2716  -18.9085   27.8239 C   0  0  0  0  0  0  0  0  0  0  0  0
    7.0767  -18.8704   26.4401 C   0  0  0  0  0  0  0  0  0  0  0  0
    8.1475  -18.7877   25.5801 C   0  0  0  0  0  0  0  0  0  0  0  0
    7.9624  -18.7465   24.1227 C   0  0  0  0  0  0  0  0  0  0  0  0
    7.6271  -17.3651   23.6061 C   0  0  2  0  0  0  0  0  0  0  0  0
    7.6831  -17.3378   22.1646 N   0  0  0  0  0  0  0  0  0  0  0  0
    8.5365  -16.3298   24.1547 C   0  0  0  0  0  0  0  0  0  0  0  0
    9.6699  -16.0944   23.6773 O   0  0  0  0  0  0  0  0  0  0  0  0
    9.4077  -18.7441   26.1200 C   0  0  0  0  0  0  0  0  0  0  0  0
    9.6108  -18.7816   27.4959 C   0  0  0  0  0  0  0  0  0  0  0  0
    6.9699  -12.9575   27.9090 C   0  0  0  0  0  0  0  0  0  0  0  0
    6.8751  -13.2276   26.4218 C   0  0  1  0  0  0  0  0  0  0  0  0
    5.9742  -12.1701   25.7601 C   0  0  0  0  0  0  0  0  0  0  0  0
    8.1984  -13.1937   25.7519 C   0  0  0  0  0  0  0  0  0  0  0  0
    8.9425  -14.4917   25.8389 C   0  0  2  0  0  0  0  0  0  0  0  0
    8.1177  -15.5627   25.2712 N   0  0  0  0  0  0  0  0  0  0  0  0
    9.1307  -14.8584   27.2631 C   0  0  0  0  0  0  0  0  0  0  0  0
    9.9314  -14.2201   28.0305 O   0  0  0  0  0  0  0  0  0  0  0  0
    8.4526  -15.9023   27.8351 O   0  0  0  0  0  0  0  0  0  0  0  0
  2  3  1  0
  2  1  1  0
  3  4  1  6
  5  6  2  0
  5  3  1  0
  7  8  1  0
  8 18  2  0
  9 10  2  0
  9  8  1  0
 10 11  1  0
 11 12  1  0
 11 17  2  0
 13 12  1  1
 13 14  1  0
 14  5  1  0
 15 13  1  0
 16 15  2  0
 18 17  1  0
 20 22  1  0
 20 19  1  1
 21 20  1  0
 23 22  1  1
 23 24  1  0
 24 15  1  0
 25 23  1  0
 26 25  2  0
 27 25  1  0
M  END
$$$$
