SYL.pdb
     RDKit          3D

 27 27  0  0  1  0  0  0  0  0999 V2000
    8.3883  -14.9994   18.3911 O   0  0  0  0  0  0  0  0  0  0  0  0
    7.7685  -15.0346   19.6416 C   0  0  0  0  0  0  0  0  0  0  0  0
    7.3482  -16.4397   19.9983 C   0  0  2  0  0  0  0  0  0  0  0  0
    6.1540  -16.7747   19.2690 N   0  0  0  0  0  0  0  0  0  0  0  0
    7.1442  -16.6033   21.4524 C   0  0  0  0  0  0  0  0  0  0  0  0
    5.9904  -16.4271   21.9218 O   0  0  0  0  0  0  0  0  0  0  0  0
    8.0084  -19.4756   29.6592 O   0  0  0  0  0  0  0  0  0  0  0  0
    8.1058  -19.2468   28.2710 C   0  0  0  0  0  0  0  0  0  0  0  0
    9.3470  -19.1442   27.6936 C   0  0  0  0  0  0  0  0  0  0  0  0
    9.4618  -18.9176   26.3189 C   0  0  0  0  0  0  0  0  0  0  0  0
    8.3416  -18.7947   25.5295 C   0  0  0  0  0  0  0  0  0  0  0  0
    8.4423  -18.5564   24.0828 C   0  0  0  0  0  0  0  0  0  0  0  0
    8.0324  -17.1566   23.6822 C   0  0  2  0  0  0  0  0  0  0  0  0
    8.2483  -16.9518   22.2704 N   0  0  0  0  0  0  0  0  0  0  0  0
    8.7667  -16.1208   24.4488 C   0  0  0  0  0  0  0  0  0  0  0  0
    9.9805  -15.8707   24.2690 O   0  0  0  0  0  0  0  0  0  0  0  0
    7.1132  -18.9011   26.1304 C   0  0  0  0  0  0  0  0  0  0  0  0
    6.9898  -19.1266   27.4977 C   0  0  0  0  0  0  0  0  0  0  0  0
    5.6916  -11.9486   26.3012 C   0  0  0  0  0  0  0  0  0  0  0  0
    6.7736  -12.8328   25.7174 C   0  0  1  0  0  0  0  0  0  0  0  0
    7.6211  -12.0238   24.7199 C   0  0  0  0  0  0  0  0  0  0  0  0
    7.6797  -13.3837   26.7551 C   0  0  0  0  0  0  0  0  0  0  0  0
    8.7258  -14.3043   26.2034 C   0  0  2  0  0  0  0  0  0  0  0  0
    8.0767  -15.3706   25.4343 N   0  0  0  0  0  0  0  0  0  0  0  0
    9.4152  -14.9939   27.3202 C   0  0  0  0  0  0  0  0  0  0  0  0
   10.2062  -14.3784   28.1159 O   0  0  0  0  0  0  0  0  0  0  0  0
    9.2391  -16.3309   27.5613 O   0  0  0  0  0  0  0  0  0  0  0  0
  2  3  1  0
  2  1  1  0
  3  4  1  6
  5  6  2  0
  5  3  1  0
  7  8  1  0
  8 18  2  0
  9 10  2  0
  9  8  1  0
 10 11  1  0
 11 12  1  0
 11 17  2  0
 13 12  1  1
 13 14  1  0
 14  5  1  0
 15 13  1  0
 16 15  2  0
 18 17  1  0
 20 22  1  0
 20 19  1  1
 21 20  1  0
 23 22  1  1
 23 24  1  0
 24 15  1  0
 25 23  1  0
 26 25  2  0
 27 25  1  0
M  END
$$$$
