SYL.pdb
     RDKit          3D

 27 27  0  0  1  0  0  0  0  0999 V2000
   12.8808  -19.2781   25.2915 O   0  0  0  0  0  0  0  0  0  0  0  0
   14.2353  -19.3287   25.6263 C   0  0  0  0  0  0  0  0  0  0  0  0
   14.4881  -20.3511   26.7075 C   0  0  2  0  0  0  0  0  0  0  0  0
   14.6259  -21.6507   26.1054 N   0  0  0  0  0  0  0  0  0  0  0  0
   13.4207  -20.3510   27.7288 C   0  0  0  0  0  0  0  0  0  0  0  0
   12.7630  -21.4076   27.9121 O   0  0  0  0  0  0  0  0  0  0  0  0
   16.2763  -22.0915   33.3922 O   0  0  0  0  0  0  0  0  0  0  0  0
   15.3803  -21.2226   32.7355 C   0  0  0  0  0  0  0  0  0  0  0  0
   14.0353  -21.3294   32.9891 C   0  0  0  0  0  0  0  0  0  0  0  0
   13.1332  -20.4761   32.3468 C   0  0  0  0  0  0  0  0  0  0  0  0
   13.5755  -19.5238   31.4578 C   0  0  0  0  0  0  0  0  0  0  0  0
   12.6424  -18.6180   30.7732 C   0  0  0  0  0  0  0  0  0  0  0  0
   12.1278  -19.1747   29.4644 C   0  0  2  0  0  0  0  0  0  0  0  0
   13.1709  -19.1671   28.4675 N   0  0  0  0  0  0  0  0  0  0  0  0
   10.9572  -18.4170   28.9592 C   0  0  0  0  0  0  0  0  0  0  0  0
    9.8262  -18.4717   29.4938 O   0  0  0  0  0  0  0  0  0  0  0  0
   14.9239  -19.4373   31.2217 C   0  0  0  0  0  0  0  0  0  0  0  0
   15.8287  -20.2824   31.8564 C   0  0  0  0  0  0  0  0  0  0  0  0
   10.3620  -13.9497   29.4060 C   0  0  0  0  0  0  0  0  0  0  0  0
    9.5164  -14.6095   28.3368 C   0  0  1  0  0  0  0  0  0  0  0  0
    8.6994  -13.5405   27.5902 C   0  0  0  0  0  0  0  0  0  0  0  0
   10.3321  -15.3481   27.3415 C   0  0  0  0  0  0  0  0  0  0  0  0
    9.9990  -16.8073   27.2649 C   0  0  2  0  0  0  0  0  0  0  0  0
   11.1094  -17.5881   27.8191 N   0  0  0  0  0  0  0  0  0  0  0  0
    9.9051  -17.2182   25.8434 C   0  0  0  0  0  0  0  0  0  0  0  0
    9.0018  -16.7612   25.0607 O   0  0  0  0  0  0  0  0  0  0  0  0
   10.7856  -18.1104   25.2906 O   0  0  0  0  0  0  0  0  0  0  0  0
  2  3  1  0
  2  1  1  0
  3  4  1  6
  5  6  2  0
  5  3  1  0
  7  8  1  0
  8 18  2  0
  9 10  2  0
  9  8  1  0
 10 11  1  0
 11 12  1  0
 11 17  2  0
 13 12  1  1
 13 14  1  0
 14  5  1  0
 15 13  1  0
 16 15  2  0
 18 17  1  0
 20 22  1  0
 20 19  1  1
 21 20  1  0
 23 22  1  6
 23 24  1  0
 24 15  1  0
 25 23  1  0
 26 25  2  0
 27 25  1  0
M  END
$$$$
