QGP.pdb
     RDKit          3D

 21 21  0  0  1  0  0  0  0  0999 V2000
   11.2367  -19.2720   22.9425 N   0  0  0  0  0  0  0  0  0  0  0  0
   11.5699  -18.1913   22.0858 C   0  0  0  0  0  0  0  0  0  0  0  0
   12.7824  -17.9112   21.9859 O   0  0  0  0  0  0  0  0  0  0  0  0
   10.5104  -17.4761   21.3794 C   0  0  0  0  0  0  0  0  0  0  0  0
    9.1160  -17.8611   21.7115 C   0  0  0  0  0  0  0  0  0  0  0  0
    8.0605  -17.0256   21.0563 C   0  0  2  0  0  0  0  0  0  0  0  0
    8.5860  -16.2684   19.9247 N   0  0  0  0  0  0  0  0  0  0  0  0
    7.4215  -16.0738   21.9740 C   0  0  0  0  0  0  0  0  0  0  0  0
    6.7173  -16.4622   22.9402 O   0  0  0  0  0  0  0  0  0  0  0  0
    7.5497  -14.6534   21.8405 N   0  0  0  0  0  0  0  0  0  0  0  0
    7.0813  -13.7600   22.8648 C   0  0  0  0  0  0  0  0  0  0  0  0
    7.9862  -13.6993   24.0283 C   0  0  0  0  0  0  0  0  0  0  0  0
    9.1806  -14.0520   23.9390 O   0  0  0  0  0  0  0  0  0  0  0  0
    7.4900  -13.2326   25.2671 N   0  0  0  0  0  0  0  0  0  0  0  0
    6.1006  -12.9245   25.5953 C   0  0  0  0  0  0  0  0  0  0  0  0
    6.1253  -12.0973   26.8363 C   0  0  0  0  0  0  0  0  0  0  0  0
    7.5855  -11.7573   27.0236 C   0  0  0  0  0  0  0  0  0  0  0  0
    8.2695  -12.9727   26.4442 C   0  0  1  0  0  0  0  0  0  0  0  0
    8.2244  -14.1420   27.3156 C   0  0  0  0  0  0  0  0  0  0  0  0
    7.3634  -15.0485   27.2032 O   0  0  0  0  0  0  0  0  0  0  0  0
    9.1674  -14.2789   28.3223 O   0  0  0  0  0  0  0  0  0  0  0  0
  1  2  1  0
  2  3  2  0
  2  4  1  0
  5  4  1  0
  6  5  1  0
  6  7  1  6
  8  6  1  0
  8 10  1  0
  9  8  2  0
 11 10  1  0
 11 12  1  0
 12 14  1  0
 13 12  2  0
 14 15  1  0
 14 18  1  0
 15 16  1  0
 16 17  1  0
 18 17  1  0
 18 19  1  1
 19 21  1  0
 20 19  2  0
M  END
$$$$
