QGP.pdb
     RDKit          3D

 21 21  0  0  1  0  0  0  0  0999 V2000
    8.6886  -18.9845   18.2359 N   0  0  0  0  0  0  0  0  0  0  0  0
    7.3365  -18.5672   18.3393 C   0  0  0  0  0  0  0  0  0  0  0  0
    6.4713  -19.3721   17.9365 O   0  0  0  0  0  0  0  0  0  0  0  0
    7.0264  -17.2533   18.8965 C   0  0  0  0  0  0  0  0  0  0  0  0
    8.1758  -16.3421   19.1236 C   0  0  0  0  0  0  0  0  0  0  0  0
    8.8085  -16.4539   20.4758 C   0  0  2  0  0  0  0  0  0  0  0  0
    8.7233  -17.8096   21.0095 N   0  0  0  0  0  0  0  0  0  0  0  0
    8.2215  -15.5443   21.4680 C   0  0  0  0  0  0  0  0  0  0  0  0
    8.3037  -14.2958   21.3465 O   0  0  0  0  0  0  0  0  0  0  0  0
    7.5221  -16.0026   22.6309 N   0  0  0  0  0  0  0  0  0  0  0  0
    6.8673  -15.0833   23.5213 C   0  0  0  0  0  0  0  0  0  0  0  0
    7.8132  -14.3522   24.3855 C   0  0  0  0  0  0  0  0  0  0  0  0
    9.0434  -14.3885   24.1753 O   0  0  0  0  0  0  0  0  0  0  0  0
    7.3157  -13.5965   25.4719 N   0  0  0  0  0  0  0  0  0  0  0  0
    5.9174  -13.4382   25.8626 C   0  0  0  0  0  0  0  0  0  0  0  0
    5.8564  -12.2584   26.7733 C   0  0  0  0  0  0  0  0  0  0  0  0
    7.2272  -11.6334   26.6589 C   0  0  0  0  0  0  0  0  0  0  0  0
    8.1026  -12.8369   26.4017 C   0  0  1  0  0  0  0  0  0  0  0  0
    8.3514  -13.6457   27.5903 C   0  0  0  0  0  0  0  0  0  0  0  0
    9.1716  -13.3193   28.4827 O   0  0  0  0  0  0  0  0  0  0  0  0
    7.6603  -14.8348   27.7627 O   0  0  0  0  0  0  0  0  0  0  0  0
  1  2  1  0
  2  3  2  0
  2  4  1  0
  5  4  1  0
  6  5  1  0
  6  7  1  1
  8  6  1  0
  8 10  1  0
  9  8  2  0
 11 10  1  0
 11 12  1  0
 12 14  1  0
 13 12  2  0
 14 15  1  0
 14 18  1  0
 15 16  1  0
 16 17  1  0
 18 17  1  0
 18 19  1  1
 19 21  1  0
 20 19  2  0
M  END
$$$$
