QGP.pdb
     RDKit          3D

 21 21  0  0  1  0  0  0  0  0999 V2000
   10.1063  -17.2095   26.3346 N   0  0  0  0  0  0  0  0  0  0  0  0
    9.4832  -18.4775   26.4647 C   0  0  0  0  0  0  0  0  0  0  0  0
    9.3340  -18.9099   27.6264 O   0  0  0  0  0  0  0  0  0  0  0  0
    9.0562  -19.1989   25.2687 C   0  0  0  0  0  0  0  0  0  0  0  0
    7.5928  -19.2961   25.0410 C   0  0  0  0  0  0  0  0  0  0  0  0
    7.1130  -18.6770   23.7652 C   0  0  2  0  0  0  0  0  0  0  0  0
    8.0810  -18.8314   22.6840 N   0  0  0  0  0  0  0  0  0  0  0  0
    6.8090  -17.2460   23.8931 C   0  0  0  0  0  0  0  0  0  0  0  0
    5.9934  -16.8202   24.7497 O   0  0  0  0  0  0  0  0  0  0  0  0
    7.4088  -16.2427   23.0654 N   0  0  0  0  0  0  0  0  0  0  0  0
    7.1020  -14.8488   23.2374 C   0  0  0  0  0  0  0  0  0  0  0  0
    8.0037  -14.1784   24.1933 C   0  0  0  0  0  0  0  0  0  0  0  0
    9.2434  -14.2185   24.0514 O   0  0  0  0  0  0  0  0  0  0  0  0
    7.4518  -13.4778   25.2902 N   0  0  0  0  0  0  0  0  0  0  0  0
    6.0344  -13.2986   25.5930 C   0  0  0  0  0  0  0  0  0  0  0  0
    5.9424  -12.1781   26.5732 C   0  0  0  0  0  0  0  0  0  0  0  0
    7.3351  -11.5927   26.5956 C   0  0  0  0  0  0  0  0  0  0  0  0
    8.1919  -12.8056   26.3204 C   0  0  1  0  0  0  0  0  0  0  0  0
    8.3324  -13.6965   27.4673 C   0  0  0  0  0  0  0  0  0  0  0  0
    9.1103  -13.4646   28.4248 O   0  0  0  0  0  0  0  0  0  0  0  0
    7.5809  -14.8598   27.5230 O   0  0  0  0  0  0  0  0  0  0  0  0
  1  2  1  0
  2  3  2  0
  2  4  1  0
  5  4  1  0
  6  5  1  0
  6  7  1  6
  8  6  1  0
  8 10  1  0
  9  8  2  0
 11 10  1  0
 11 12  1  0
 12 14  1  0
 13 12  2  0
 14 15  1  0
 14 18  1  0
 15 16  1  0
 16 17  1  0
 18 17  1  0
 18 19  1  1
 19 21  1  0
 20 19  2  0
M  END
$$$$
