QGP.pdb
     RDKit          3D

 21 21  0  0  1  0  0  0  0  0999 V2000
   10.2944  -19.5379   29.1601 N   0  0  0  0  0  0  0  0  0  0  0  0
   10.1129  -18.1471   28.9462 C   0  0  0  0  0  0  0  0  0  0  0  0
   10.7887  -17.3792   29.6619 O   0  0  0  0  0  0  0  0  0  0  0  0
    9.1714  -17.6895   27.9277 C   0  0  0  0  0  0  0  0  0  0  0  0
    8.3311  -18.7314   27.2865 C   0  0  0  0  0  0  0  0  0  0  0  0
    8.1677  -18.5833   25.8057 C   0  0  2  0  0  0  0  0  0  0  0  0
    9.2379  -17.7869   25.2139 N   0  0  0  0  0  0  0  0  0  0  0  0
    6.8892  -17.9714   25.4215 C   0  0  0  0  0  0  0  0  0  0  0  0
    5.8105  -18.2938   25.9807 O   0  0  0  0  0  0  0  0  0  0  0  0
    6.7756  -16.9767   24.3971 N   0  0  0  0  0  0  0  0  0  0  0  0
    7.7147  -15.8927   24.2989 C   0  0  0  0  0  0  0  0  0  0  0  0
    7.0593  -14.5731   24.2250 C   0  0  0  0  0  0  0  0  0  0  0  0
    6.5633  -14.1551   23.1582 O   0  0  0  0  0  0  0  0  0  0  0  0
    6.9923  -13.7679   25.3852 N   0  0  0  0  0  0  0  0  0  0  0  0
    5.7964  -13.1617   25.9640 C   0  0  0  0  0  0  0  0  0  0  0  0
    6.2635  -12.0991   26.9009 C   0  0  0  0  0  0  0  0  0  0  0  0
    7.7429  -11.9819   26.6171 C   0  0  0  0  0  0  0  0  0  0  0  0
    8.1005  -13.3937   26.2174 C   0  0  1  0  0  0  0  0  0  0  0  0
    8.1866  -14.3178   27.3432 C   0  0  0  0  0  0  0  0  0  0  0  0
    7.3292  -15.2066   27.5683 O   0  0  0  0  0  0  0  0  0  0  0  0
    9.2577  -14.2281   28.2185 O   0  0  0  0  0  0  0  0  0  0  0  0
  1  2  1  0
  2  3  2  0
  2  4  1  0
  5  4  1  0
  6  5  1  0
  6  7  1  1
  8  6  1  0
  8 10  1  0
  9  8  2  0
 11 10  1  0
 11 12  1  0
 12 14  1  0
 13 12  2  0
 14 15  1  0
 14 18  1  0
 15 16  1  0
 16 17  1  0
 18 17  1  0
 18 19  1  1
 19 21  1  0
 20 19  2  0
M  END
$$$$
