QGP.pdb
     RDKit          3D

 21 21  0  0  1  0  0  0  0  0999 V2000
    9.8321  -18.1251   26.9136 N   0  0  0  0  0  0  0  0  0  0  0  0
    8.8998  -18.9918   27.5402 C   0  0  0  0  0  0  0  0  0  0  0  0
    8.9053  -19.0093   28.7886 O   0  0  0  0  0  0  0  0  0  0  0  0
    8.0014  -19.8007   26.7208 C   0  0  0  0  0  0  0  0  0  0  0  0
    6.7896  -19.1214   26.1983 C   0  0  0  0  0  0  0  0  0  0  0  0
    6.8134  -18.8364   24.7288 C   0  0  2  0  0  0  0  0  0  0  0  0
    8.1006  -19.1703   24.1273 N   0  0  0  0  0  0  0  0  0  0  0  0
    6.5180  -17.4348   24.4048 C   0  0  0  0  0  0  0  0  0  0  0  0
    5.5047  -16.8517   24.8670 O   0  0  0  0  0  0  0  0  0  0  0  0
    7.3481  -16.6383   23.5516 N   0  0  0  0  0  0  0  0  0  0  0  0
    7.1255  -15.2265   23.3965 C   0  0  0  0  0  0  0  0  0  0  0  0
    8.0122  -14.4108   24.2478 C   0  0  0  0  0  0  0  0  0  0  0  0
    9.2404  -14.3494   24.0321 O   0  0  0  0  0  0  0  0  0  0  0  0
    7.4590  -13.6854   25.3279 N   0  0  0  0  0  0  0  0  0  0  0  0
    6.0412  -13.4951   25.6218 C   0  0  0  0  0  0  0  0  0  0  0  0
    5.9497  -12.3540   26.5781 C   0  0  0  0  0  0  0  0  0  0  0  0
    7.3444  -11.7729   26.5930 C   0  0  0  0  0  0  0  0  0  0  0  0
    8.1979  -12.9942   26.3463 C   0  0  1  0  0  0  0  0  0  0  0  0
    8.3314  -13.8614   27.5121 C   0  0  0  0  0  0  0  0  0  0  0  0
    7.6445  -14.8990   27.6775 O   0  0  0  0  0  0  0  0  0  0  0  0
    9.2543  -13.5434   28.4962 O   0  0  0  0  0  0  0  0  0  0  0  0
  1  2  1  0
  2  3  2  0
  2  4  1  0
  5  4  1  0
  6  5  1  0
  6  7  1  1
  8  6  1  0
  8 10  1  0
  9  8  2  0
 11 10  1  0
 11 12  1  0
 12 14  1  0
 13 12  2  0
 14 15  1  0
 14 18  1  0
 15 16  1  0
 16 17  1  0
 18 17  1  0
 18 19  1  1
 19 21  1  0
 20 19  2  0
M  END
$$$$
