QGP.pdb
     RDKit          3D

 21 21  0  0  1  0  0  0  0  0999 V2000
   10.0080  -18.8978   17.7916 N   0  0  0  0  0  0  0  0  0  0  0  0
    8.8711  -18.0497   17.7598 C   0  0  0  0  0  0  0  0  0  0  0  0
    9.0285  -16.9238   17.2438 O   0  0  0  0  0  0  0  0  0  0  0  0
    7.6043  -18.5182   18.3156 C   0  0  0  0  0  0  0  0  0  0  0  0
    6.9426  -17.6259   19.2999 C   0  0  0  0  0  0  0  0  0  0  0  0
    7.7258  -17.3813   20.5521 C   0  0  2  0  0  0  0  0  0  0  0  0
    8.0025  -18.6185   21.2750 N   0  0  0  0  0  0  0  0  0  0  0  0
    7.0610  -16.4587   21.4813 C   0  0  0  0  0  0  0  0  0  0  0  0
    5.8146  -16.2954   21.4678 O   0  0  0  0  0  0  0  0  0  0  0  0
    7.7701  -15.6874   22.4578 N   0  0  0  0  0  0  0  0  0  0  0  0
    7.0823  -14.7934   23.3491 C   0  0  0  0  0  0  0  0  0  0  0  0
    7.9768  -14.1863   24.3529 C   0  0  0  0  0  0  0  0  0  0  0  0
    9.2176  -14.2178   24.2182 O   0  0  0  0  0  0  0  0  0  0  0  0
    7.4166  -13.5574   25.4884 N   0  0  0  0  0  0  0  0  0  0  0  0
    5.9969  -13.3857   25.7848 C   0  0  0  0  0  0  0  0  0  0  0  0
    5.9017  -12.3343   26.8386 C   0  0  0  0  0  0  0  0  0  0  0  0
    7.2991  -11.7654   26.9188 C   0  0  0  0  0  0  0  0  0  0  0  0
    8.1488  -12.9647   26.5717 C   0  0  1  0  0  0  0  0  0  0  0  0
    8.2662  -13.9337   27.6562 C   0  0  0  0  0  0  0  0  0  0  0  0
    7.5279  -14.9440   27.7564 O   0  0  0  0  0  0  0  0  0  0  0  0
    9.2319  -13.7496   28.6334 O   0  0  0  0  0  0  0  0  0  0  0  0
  1  2  1  0
  2  3  2  0
  2  4  1  0
  5  4  1  0
  6  5  1  0
  6  7  1  1
  8  6  1  0
  8 10  1  0
  9  8  2  0
 11 10  1  0
 11 12  1  0
 12 14  1  0
 13 12  2  0
 14 15  1  0
 14 18  1  0
 15 16  1  0
 16 17  1  0
 18 17  1  0
 18 19  1  1
 19 21  1  0
 20 19  2  0
M  END
$$$$
