QGP.pdb
     RDKit          3D

 21 21  0  0  1  0  0  0  0  0999 V2000
   12.6030  -17.7941   24.6027 N   0  0  0  0  0  0  0  0  0  0  0  0
   11.4342  -17.7027   23.8036 C   0  0  0  0  0  0  0  0  0  0  0  0
   11.5772  -17.2302   22.6569 O   0  0  0  0  0  0  0  0  0  0  0  0
   10.1535  -18.1528   24.3425 C   0  0  0  0  0  0  0  0  0  0  0  0
   10.1794  -18.7490   25.7014 C   0  0  0  0  0  0  0  0  0  0  0  0
    8.8330  -19.0646   26.2749 C   0  0  2  0  0  0  0  0  0  0  0  0
    8.0613  -19.9473   25.4059 N   0  0  0  0  0  0  0  0  0  0  0  0
    8.0194  -17.8703   26.5363 C   0  0  0  0  0  0  0  0  0  0  0  0
    8.4592  -16.9104   27.2186 O   0  0  0  0  0  0  0  0  0  0  0  0
    6.6846  -17.7106   26.0420 N   0  0  0  0  0  0  0  0  0  0  0  0
    6.0050  -16.4460   26.1167 C   0  0  0  0  0  0  0  0  0  0  0  0
    6.5448  -15.4500   25.1719 C   0  0  0  0  0  0  0  0  0  0  0  0
    6.7416  -15.7351   23.9724 O   0  0  0  0  0  0  0  0  0  0  0  0
    6.8446  -14.1483   25.6351 N   0  0  0  0  0  0  0  0  0  0  0  0
    6.6706  -13.6389   26.9927 C   0  0  0  0  0  0  0  0  0  0  0  0
    6.7225  -12.1508   26.9035 C   0  0  0  0  0  0  0  0  0  0  0  0
    6.6763  -11.8687   25.4198 C   0  0  0  0  0  0  0  0  0  0  0  0
    7.3814  -13.0752   24.8470 C   0  0  1  0  0  0  0  0  0  0  0  0
    8.8307  -13.0399   25.0110 C   0  0  0  0  0  0  0  0  0  0  0  0
    9.4338  -13.6642   25.9178 O   0  0  0  0  0  0  0  0  0  0  0  0
    9.5979  -12.2879   24.1352 O   0  0  0  0  0  0  0  0  0  0  0  0
  1  2  1  0
  2  3  2  0
  2  4  1  0
  5  4  1  0
  6  5  1  0
  6  7  1  6
  8  6  1  0
  8 10  1  0
  9  8  2  0
 11 10  1  0
 11 12  1  0
 12 14  1  0
 13 12  2  0
 14 15  1  0
 14 18  1  0
 15 16  1  0
 16 17  1  0
 18 17  1  0
 18 19  1  1
 19 21  1  0
 20 19  2  0
M  END
$$$$
