QGP.pdb
     RDKit          3D

 21 21  0  0  1  0  0  0  0  0999 V2000
    8.2913  -12.7557   17.0080 N   0  0  0  0  0  0  0  0  0  0  0  0
    8.2559  -13.8642   17.8928 C   0  0  0  0  0  0  0  0  0  0  0  0
    9.1942  -14.6826   17.8005 O   0  0  0  0  0  0  0  0  0  0  0  0
    7.1557  -13.9943   18.8445 C   0  0  0  0  0  0  0  0  0  0  0  0
    7.3810  -13.4296   20.1985 C   0  0  0  0  0  0  0  0  0  0  0  0
    8.3635  -14.1848   21.0386 C   0  0  2  0  0  0  0  0  0  0  0  0
    8.3489  -15.6145   20.7458 N   0  0  0  0  0  0  0  0  0  0  0  0
    8.1404  -14.0208   22.4808 C   0  0  0  0  0  0  0  0  0  0  0  0
    7.4547  -13.0711   22.9371 O   0  0  0  0  0  0  0  0  0  0  0  0
    8.6782  -14.9155   23.4615 N   0  0  0  0  0  0  0  0  0  0  0  0
    8.7716  -14.5401   24.8460 C   0  0  0  0  0  0  0  0  0  0  0  0
    9.4585  -15.5541   25.6684 C   0  0  0  0  0  0  0  0  0  0  0  0
    9.8033  -16.6532   25.1871 O   0  0  0  0  0  0  0  0  0  0  0  0
    9.7307  -15.2742   27.0272 N   0  0  0  0  0  0  0  0  0  0  0  0
    8.8544  -14.5900   27.9743 C   0  0  0  0  0  0  0  0  0  0  0  0
    9.7078  -14.1699   29.1233 C   0  0  0  0  0  0  0  0  0  0  0  0
   11.1187  -14.4267   28.6478 C   0  0  0  0  0  0  0  0  0  0  0  0
   10.9327  -15.6149   27.7343 C   0  0  1  0  0  0  0  0  0  0  0  0
   10.7297  -16.8737   28.4437 C   0  0  0  0  0  0  0  0  0  0  0  0
    9.5943  -17.3616   28.6641 O   0  0  0  0  0  0  0  0  0  0  0  0
   11.8288  -17.5812   28.9050 O   0  0  0  0  0  0  0  0  0  0  0  0
  1  2  1  0
  2  3  2  0
  2  4  1  0
  5  4  1  0
  6  5  1  0
  6  7  1  6
  8  6  1  0
  8 10  1  0
  9  8  2  0
 11 10  1  0
 11 12  1  0
 12 14  1  0
 13 12  2  0
 14 15  1  0
 14 18  1  0
 15 16  1  0
 16 17  1  0
 18 17  1  0
 18 19  1  1
 19 21  1  0
 20 19  2  0
M  END
$$$$
