QGP.pdb
     RDKit          3D

 21 21  0  0  1  0  0  0  0  0999 V2000
   11.1646  -19.9038   21.8270 N   0  0  0  0  0  0  0  0  0  0  0  0
   11.2753  -19.2389   20.5786 C   0  0  0  0  0  0  0  0  0  0  0  0
   12.0439  -19.7517   19.7389 O   0  0  0  0  0  0  0  0  0  0  0  0
   10.5072  -18.0201   20.3384 C   0  0  0  0  0  0  0  0  0  0  0  0
    9.6289  -17.5621   21.4437 C   0  0  0  0  0  0  0  0  0  0  0  0
    8.3219  -16.9775   21.0065 C   0  0  2  0  0  0  0  0  0  0  0  0
    8.4657  -16.1433   19.8177 N   0  0  0  0  0  0  0  0  0  0  0  0
    7.6718  -16.1684   22.0454 C   0  0  0  0  0  0  0  0  0  0  0  0
    7.2505  -16.6821   23.1126 O   0  0  0  0  0  0  0  0  0  0  0  0
    7.4715  -14.7553   21.9241 N   0  0  0  0  0  0  0  0  0  0  0  0
    6.8179  -14.0004   22.9583 C   0  0  0  0  0  0  0  0  0  0  0  0
    7.7125  -13.6844   24.0879 C   0  0  0  0  0  0  0  0  0  0  0  0
    8.9346  -13.9347   24.0360 O   0  0  0  0  0  0  0  0  0  0  0  0
    7.1742  -13.0869   25.2507 N   0  0  0  0  0  0  0  0  0  0  0  0
    5.7616  -12.8710   25.5520 C   0  0  0  0  0  0  0  0  0  0  0  0
    5.7055  -11.8672   26.6539 C   0  0  0  0  0  0  0  0  0  0  0  0
    7.1248  -11.3606   26.7635 C   0  0  0  0  0  0  0  0  0  0  0  0
    7.9258  -12.5764   26.3621 C   0  0  1  0  0  0  0  0  0  0  0  0
    7.9991  -13.5991   27.4000 C   0  0  0  0  0  0  0  0  0  0  0  0
    8.7383  -13.5000   28.4098 O   0  0  0  0  0  0  0  0  0  0  0  0
    7.2244  -14.7428   27.2862 O   0  0  0  0  0  0  0  0  0  0  0  0
  1  2  1  0
  2  3  2  0
  2  4  1  0
  5  4  1  0
  6  5  1  0
  6  7  1  6
  8  6  1  0
  8 10  1  0
  9  8  2  0
 11 10  1  0
 11 12  1  0
 12 14  1  0
 13 12  2  0
 14 15  1  0
 14 18  1  0
 15 16  1  0
 16 17  1  0
 18 17  1  0
 18 19  1  1
 19 21  1  0
 20 19  2  0
M  END
$$$$
