QGP.pdb
     RDKit          3D

 21 21  0  0  1  0  0  0  0  0999 V2000
    9.6079  -13.1062   18.5832 N   0  0  0  0  0  0  0  0  0  0  0  0
    8.4075  -13.5531   17.9731 C   0  0  0  0  0  0  0  0  0  0  0  0
    8.4578  -13.7889   16.7482 O   0  0  0  0  0  0  0  0  0  0  0  0
    7.2020  -13.7132   18.7820 C   0  0  0  0  0  0  0  0  0  0  0  0
    7.3642  -13.5621   20.2495 C   0  0  0  0  0  0  0  0  0  0  0  0
    8.2179  -14.6070   20.8981 C   0  0  2  0  0  0  0  0  0  0  0  0
    7.8141  -15.9570   20.5181 N   0  0  0  0  0  0  0  0  0  0  0  0
    8.2108  -14.5336   22.3648 C   0  0  0  0  0  0  0  0  0  0  0  0
    8.6294  -13.5175   22.9752 O   0  0  0  0  0  0  0  0  0  0  0  0
    7.7343  -15.5967   23.1981 N   0  0  0  0  0  0  0  0  0  0  0  0
    7.6976  -15.4670   24.6293 C   0  0  0  0  0  0  0  0  0  0  0  0
    9.0423  -15.3962   25.2318 C   0  0  0  0  0  0  0  0  0  0  0  0
   10.0462  -15.8276   24.6278 O   0  0  0  0  0  0  0  0  0  0  0  0
    9.1954  -14.8288   26.5176 N   0  0  0  0  0  0  0  0  0  0  0  0
    8.1575  -14.1931   27.3249 C   0  0  0  0  0  0  0  0  0  0  0  0
    8.8567  -13.4029   28.3793 C   0  0  0  0  0  0  0  0  0  0  0  0
   10.3076  -13.4298   27.9587 C   0  0  0  0  0  0  0  0  0  0  0  0
   10.4134  -14.7723   27.2753 C   0  0  1  0  0  0  0  0  0  0  0  0
   10.4538  -15.8997   28.2006 C   0  0  0  0  0  0  0  0  0  0  0  0
   11.4843  -16.2274   28.8381 O   0  0  0  0  0  0  0  0  0  0  0  0
    9.3114  -16.6588   28.4006 O   0  0  0  0  0  0  0  0  0  0  0  0
  1  2  1  0
  2  3  2  0
  2  4  1  0
  5  4  1  0
  6  5  1  0
  6  7  1  1
  8  6  1  0
  8 10  1  0
  9  8  2  0
 11 10  1  0
 11 12  1  0
 12 14  1  0
 13 12  2  0
 14 15  1  0
 14 18  1  0
 15 16  1  0
 16 17  1  0
 18 17  1  0
 18 19  1  1
 19 21  1  0
 20 19  2  0
M  END
$$$$
