WLH.pdb
     RDKit          3D

 33 35  0  0  1  0  0  0  0  0999 V2000
    6.5097  -15.0080   23.5065 N   0  0  0  0  0  0  0  0  0  0  0  0
    7.8690  -15.2722   23.7528 C   0  0  1  0  0  0  0  0  0  0  0  0
    8.2225  -15.9260   25.0425 C   0  0  0  0  0  0  0  0  0  0  0  0
    7.7060  -15.2619   26.2379 C   0  0  0  0  0  0  0  0  0  0  0  0
    7.0601  -15.7668   27.3366 C   0  0  0  0  0  0  0  0  0  0  0  0
    6.6864  -14.7754   28.1545 N   0  0  0  0  0  0  0  0  0  0  0  0
    7.0767  -13.6355   27.6063 C   0  0  0  0  0  0  0  0  0  0  0  0
    6.9872  -12.3058   28.0110 C   0  0  0  0  0  0  0  0  0  0  0  0
    7.4992  -11.2617   27.2801 C   0  0  0  0  0  0  0  0  0  0  0  0
    8.1412  -11.5196   26.0749 C   0  0  0  0  0  0  0  0  0  0  0  0
    8.2201  -12.8289   25.6930 C   0  0  0  0  0  0  0  0  0  0  0  0
    7.7166  -13.8947   26.4072 C   0  0  0  0  0  0  0  0  0  0  0  0
    8.5216  -15.9670   22.6000 C   0  0  0  0  0  0  0  0  0  0  0  0
    8.7270  -17.1955   22.6005 O   0  0  0  0  0  0  0  0  0  0  0  0
    7.0825  -14.1858   19.1656 C   0  0  0  0  0  0  0  0  0  0  0  0
    8.4663  -13.5672   19.4543 C   0  0  2  0  0  0  0  0  0  0  0  0
    8.6096  -12.3603   18.5651 C   0  0  0  0  0  0  0  0  0  0  0  0
    9.4610  -14.6433   19.2302 C   0  0  0  0  0  0  0  0  0  0  0  0
    9.5288  -15.7163   20.2691 C   0  0  2  0  0  0  0  0  0  0  0  0
    8.9251  -15.2104   21.4602 N   0  0  0  0  0  0  0  0  0  0  0  0
   10.8776  -16.2614   20.3930 C   0  0  0  0  0  0  0  0  0  0  0  0
   11.3117  -16.8516   19.3455 O   0  0  0  0  0  0  0  0  0  0  0  0
   11.6927  -16.1935   21.5165 N   0  0  0  0  0  0  0  0  0  0  0  0
   13.0538  -16.7606   21.5195 C   0  0  1  0  0  0  0  0  0  0  0  0
   14.0487  -15.6150   21.5010 C   0  0  0  0  0  0  0  0  0  0  0  0
   14.1148  -14.9776   20.1801 C   0  0  0  0  0  0  0  0  0  0  0  0
   14.0931  -15.6920   18.9709 C   0  0  0  0  0  0  0  0  0  0  0  0
   14.1632  -14.8203   17.9584 N   0  0  0  0  0  0  0  0  0  0  0  0
   14.2293  -13.5708   18.4728 C   0  0  0  0  0  0  0  0  0  0  0  0
   14.1984  -13.6915   19.8027 N   0  0  0  0  0  0  0  0  0  0  0  0
   13.2055  -17.4430   22.8464 C   0  0  0  0  0  0  0  0  0  0  0  0
   12.2303  -17.4604   23.6720 O   0  0  0  0  0  0  0  0  0  0  0  0
   14.3371  -18.0772   23.2803 O   0  0  0  0  0  0  0  0  0  0  0  0
  2  1  1  6
  3  2  1  0
  4  3  1  0
  4  5  2  0
  6  5  1  0
  7  6  1  0
  8  7  2  0
  9  8  1  0
 10  9  2  0
 10 11  1  0
 11 12  2  0
 12  7  1  0
 12  4  1  0
 13  2  1  0
 13 14  2  0
 16 15  1  6
 16 17  1  0
 19 18  1  6
 18 16  1  0
 19 20  1  0
 20 13  1  0
 21 19  1  0
 22 21  2  0
 23 21  1  0
 24 25  1  1
 24 23  1  0
 25 26  1  0
 26 27  2  0
 27 28  1  0
 29 28  1  0
 30 26  1  0
 30 29  2  0
 31 24  1  0
 32 31  2  0
 33 31  1  0
M  END
$$$$
