WLH.pdb
     RDKit          3D

 33 35  0  0  1  0  0  0  0  0999 V2000
    7.8190  -13.9975   23.4151 N   0  0  0  0  0  0  0  0  0  0  0  0
    8.5388  -15.1606   23.7427 C   0  0  1  0  0  0  0  0  0  0  0  0
    8.0073  -16.0154   24.8393 C   0  0  0  0  0  0  0  0  0  0  0  0
    7.1504  -15.3277   25.8036 C   0  0  0  0  0  0  0  0  0  0  0  0
    5.9340  -15.6756   26.3311 C   0  0  0  0  0  0  0  0  0  0  0  0
    5.4696  -14.6973   27.1176 N   0  0  0  0  0  0  0  0  0  0  0  0
    6.3618  -13.7195   27.1096 C   0  0  0  0  0  0  0  0  0  0  0  0
    6.4273  -12.4864   27.7537 C   0  0  0  0  0  0  0  0  0  0  0  0
    7.4872  -11.6232   27.6187 C   0  0  0  0  0  0  0  0  0  0  0  0
    8.5573  -11.9752   26.8049 C   0  0  0  0  0  0  0  0  0  0  0  0
    8.4768  -13.1877   26.1808 C   0  0  0  0  0  0  0  0  0  0  0  0
    7.4268  -14.0725   26.2997 C   0  0  0  0  0  0  0  0  0  0  0  0
    8.8631  -15.9773   22.5322 C   0  0  0  0  0  0  0  0  0  0  0  0
    9.0906  -17.1998   22.6026 O   0  0  0  0  0  0  0  0  0  0  0  0
    8.0026  -13.0201   17.9583 C   0  0  0  0  0  0  0  0  0  0  0  0
    8.5701  -13.6618   19.2417 C   0  0  2  0  0  0  0  0  0  0  0  0
    9.7556  -12.8361   19.6665 C   0  0  0  0  0  0  0  0  0  0  0  0
    8.8672  -15.0750   18.9070 C   0  0  0  0  0  0  0  0  0  0  0  0
    9.3495  -15.9391   20.0277 C   0  0  2  0  0  0  0  0  0  0  0  0
    8.9160  -15.3481   21.2532 N   0  0  0  0  0  0  0  0  0  0  0  0
   10.7741  -16.2347   19.9051 C   0  0  0  0  0  0  0  0  0  0  0  0
   11.1387  -16.6263   18.7442 O   0  0  0  0  0  0  0  0  0  0  0  0
   11.7260  -16.1300   20.9122 N   0  0  0  0  0  0  0  0  0  0  0  0
   13.1240  -16.5484   20.7011 C   0  0  1  0  0  0  0  0  0  0  0  0
   13.9645  -15.3066   20.4688 C   0  0  0  0  0  0  0  0  0  0  0  0
   14.0577  -14.9760   19.0414 C   0  0  0  0  0  0  0  0  0  0  0  0
   13.5464  -15.7932   18.0197 C   0  0  0  0  0  0  0  0  0  0  0  0
   13.7896  -15.2072   16.8419 N   0  0  0  0  0  0  0  0  0  0  0  0
   14.4392  -14.0425   17.0691 C   0  0  0  0  0  0  0  0  0  0  0  0
   14.5872  -13.9269   18.3915 N   0  0  0  0  0  0  0  0  0  0  0  0
   13.5727  -17.1357   22.0060 C   0  0  0  0  0  0  0  0  0  0  0  0
   14.7819  -17.5229   22.1511 O   0  0  0  0  0  0  0  0  0  0  0  0
   12.7787  -17.3063   23.1067 O   0  0  0  0  0  0  0  0  0  0  0  0
  2  1  1  6
  3  2  1  0
  4  3  1  0
  4  5  2  0
  6  5  1  0
  7  6  1  0
  8  7  2  0
  9  8  1  0
 10  9  2  0
 10 11  1  0
 11 12  2  0
 12  7  1  0
 12  4  1  0
 13  2  1  0
 13 14  2  0
 16 15  1  6
 16 17  1  0
 19 18  1  6
 18 16  1  0
 19 20  1  0
 20 13  1  0
 21 19  1  0
 22 21  2  0
 23 21  1  0
 24 25  1  1
 24 23  1  0
 25 26  1  0
 26 27  2  0
 27 28  1  0
 29 28  1  0
 30 26  1  0
 30 29  2  0
 31 24  1  0
 32 31  2  0
 33 31  1  0
M  END
$$$$
