WLH.pdb
     RDKit          3D

 33 35  0  0  1  0  0  0  0  0999 V2000
    6.4619  -17.1457   25.5306 N   0  0  0  0  0  0  0  0  0  0  0  0
    7.1751  -16.1151   24.8923 C   0  0  1  0  0  0  0  0  0  0  0  0
    8.4706  -15.6968   25.4943 C   0  0  0  0  0  0  0  0  0  0  0  0
    8.3639  -14.7495   26.6024 C   0  0  0  0  0  0  0  0  0  0  0  0
    8.6571  -14.8895   27.9341 C   0  0  0  0  0  0  0  0  0  0  0  0
    8.3195  -13.7818   28.6052 N   0  0  0  0  0  0  0  0  0  0  0  0
    7.8111  -12.9249   27.7336 C   0  0  0  0  0  0  0  0  0  0  0  0
    7.3249  -11.6251   27.8505 C   0  0  0  0  0  0  0  0  0  0  0  0
    6.8616  -10.8969   26.7820 C   0  0  0  0  0  0  0  0  0  0  0  0
    6.8678  -11.4636   25.5131 C   0  0  0  0  0  0  0  0  0  0  0  0
    7.3479  -12.7390   25.4164 C   0  0  0  0  0  0  0  0  0  0  0  0
    7.8193  -13.4908   26.4709 C   0  0  0  0  0  0  0  0  0  0  0  0
    7.3178  -16.3602   23.4236 C   0  0  0  0  0  0  0  0  0  0  0  0
    7.1370  -17.4856   22.9218 O   0  0  0  0  0  0  0  0  0  0  0  0
    8.7000  -12.3496   18.9448 C   0  0  0  0  0  0  0  0  0  0  0  0
    8.4683  -13.8508   19.2163 C   0  0  2  0  0  0  0  0  0  0  0  0
    7.2980  -14.2813   18.3720 C   0  0  0  0  0  0  0  0  0  0  0  0
    8.2800  -13.9872   20.6803 C   0  0  0  0  0  0  0  0  0  0  0  0
    8.1016  -15.3763   21.2037 C   0  0  2  0  0  0  0  0  0  0  0  0
    7.6711  -15.2800   22.5618 N   0  0  0  0  0  0  0  0  0  0  0  0
    9.2740  -16.2057   20.9402 C   0  0  0  0  0  0  0  0  0  0  0  0
    9.4546  -16.4967   19.7086 O   0  0  0  0  0  0  0  0  0  0  0  0
   10.1716  -16.6862   21.8861 N   0  0  0  0  0  0  0  0  0  0  0  0
   11.6170  -16.7709   21.6072 C   0  0  1  0  0  0  0  0  0  0  0  0
   12.1737  -15.3611   21.5380 C   0  0  0  0  0  0  0  0  0  0  0  0
   12.6943  -15.0504   20.2008 C   0  0  0  0  0  0  0  0  0  0  0  0
   12.6410  -15.9450   19.1192 C   0  0  0  0  0  0  0  0  0  0  0  0
   13.1920  -15.3573   18.0511 N   0  0  0  0  0  0  0  0  0  0  0  0
   13.5979  -14.1168   18.4067 C   0  0  0  0  0  0  0  0  0  0  0  0
   13.2889  -13.9570   19.6963 N   0  0  0  0  0  0  0  0  0  0  0  0
   12.2258  -17.4168   22.8161 C   0  0  0  0  0  0  0  0  0  0  0  0
   13.4934  -17.5579   22.8958 O   0  0  0  0  0  0  0  0  0  0  0  0
   11.5259  -17.8922   23.8909 O   0  0  0  0  0  0  0  0  0  0  0  0
  2  1  1  1
  3  2  1  0
  4  3  1  0
  4  5  2  0
  6  5  1  0
  7  6  1  0
  8  7  2  0
  9  8  1  0
 10  9  2  0
 10 11  1  0
 11 12  2  0
 12  7  1  0
 12  4  1  0
 13  2  1  0
 13 14  2  0
 16 15  1  1
 16 17  1  0
 19 18  1  1
 18 16  1  0
 19 20  1  0
 20 13  1  0
 21 19  1  0
 22 21  2  0
 23 21  1  0
 24 25  1  1
 24 23  1  0
 25 26  1  0
 26 27  2  0
 27 28  1  0
 29 28  1  0
 30 26  1  0
 30 29  2  0
 31 24  1  0
 32 31  2  0
 33 31  1  0
M  END
$$$$
