WLH.pdb
     RDKit          3D

 33 35  0  0  1  0  0  0  0  0999 V2000
   10.4099  -17.5526   22.0514 N   0  0  0  0  0  0  0  0  0  0  0  0
    9.5454  -16.4793   22.3323 C   0  0  1  0  0  0  0  0  0  0  0  0
    8.1057  -16.6454   21.9926 C   0  0  0  0  0  0  0  0  0  0  0  0
    7.6429  -15.8623   20.8483 C   0  0  0  0  0  0  0  0  0  0  0  0
    7.3092  -16.2450   19.5750 C   0  0  0  0  0  0  0  0  0  0  0  0
    7.0212  -15.1736   18.8263 N   0  0  0  0  0  0  0  0  0  0  0  0
    7.1629  -14.1016   19.5898 C   0  0  0  0  0  0  0  0  0  0  0  0
    6.9750  -12.7404   19.3626 C   0  0  0  0  0  0  0  0  0  0  0  0
    7.1576  -11.7844   20.3318 C   0  0  0  0  0  0  0  0  0  0  0  0
    7.5493  -12.1697   21.6083 C   0  0  0  0  0  0  0  0  0  0  0  0
    7.7290  -13.5082   21.8138 C   0  0  0  0  0  0  0  0  0  0  0  0
    7.5518  -14.4876   20.8605 C   0  0  0  0  0  0  0  0  0  0  0  0
    9.7142  -15.9765   23.7309 C   0  0  0  0  0  0  0  0  0  0  0  0
   10.7826  -16.1124   24.3566 O   0  0  0  0  0  0  0  0  0  0  0  0
    8.0571  -12.0400   26.1635 C   0  0  0  0  0  0  0  0  0  0  0  0
    7.0169  -12.9346   25.4575 C   0  0  2  0  0  0  0  0  0  0  0  0
    5.6608  -12.3354   25.7217 C   0  0  0  0  0  0  0  0  0  0  0  0
    7.2189  -14.3060   25.9825 C   0  0  0  0  0  0  0  0  0  0  0  0
    8.5619  -14.9196   25.7472 C   0  0  2  0  0  0  0  0  0  0  0  0
    8.6259  -15.3198   24.3780 N   0  0  0  0  0  0  0  0  0  0  0  0
    8.8718  -15.9372   26.7474 C   0  0  0  0  0  0  0  0  0  0  0  0
    8.8538  -15.5194   27.9554 O   0  0  0  0  0  0  0  0  0  0  0  0
    9.1748  -17.2703   26.4986 N   0  0  0  0  0  0  0  0  0  0  0  0
    8.4797  -18.3652   27.2002 C   0  0  1  0  0  0  0  0  0  0  0  0
    7.4995  -19.0050   26.2347 C   0  0  0  0  0  0  0  0  0  0  0  0
    6.8180  -20.1561   26.8397 C   0  0  0  0  0  0  0  0  0  0  0  0
    6.9830  -20.5398   28.1808 C   0  0  0  0  0  0  0  0  0  0  0  0
    6.2243  -21.6168   28.4135 N   0  0  0  0  0  0  0  0  0  0  0  0
    5.5772  -21.9399   27.2703 C   0  0  0  0  0  0  0  0  0  0  0  0
    5.9485  -21.0517   26.3444 N   0  0  0  0  0  0  0  0  0  0  0  0
    9.5324  -19.3929   27.4913 C   0  0  0  0  0  0  0  0  0  0  0  0
   10.6160  -19.4081   26.8140 O   0  0  0  0  0  0  0  0  0  0  0  0
    9.4428  -20.3605   28.4539 O   0  0  0  0  0  0  0  0  0  0  0  0
  2  1  1  1
  3  2  1  0
  4  3  1  0
  4  5  2  0
  6  5  1  0
  7  6  1  0
  8  7  2  0
  9  8  1  0
 10  9  2  0
 10 11  1  0
 11 12  2  0
 12  7  1  0
 12  4  1  0
 13  2  1  0
 13 14  2  0
 16 15  1  1
 16 17  1  0
 19 18  1  1
 18 16  1  0
 19 20  1  0
 20 13  1  0
 21 19  1  0
 22 21  2  0
 23 21  1  0
 24 25  1  6
 24 23  1  0
 25 26  1  0
 26 27  2  0
 27 28  1  0
 29 28  1  0
 30 26  1  0
 30 29  2  0
 31 24  1  0
 32 31  2  0
 33 31  1  0
M  END
$$$$
