KQQ.pdb
     RDKit          3D

 28 27  0  0  1  0  0  0  0  0999 V2000
   27.4474  -23.1764  -16.9638 N   0  0  0  0  0  0  0  0  0  0  0  0
   27.2280  -21.8905  -16.2860 C   0  0  1  0  0  0  0  0  0  0  0  0
   26.9433  -20.8472  -17.3111 C   0  0  0  0  0  0  0  0  0  0  0  0
   28.1185  -20.5904  -18.2060 C   0  0  0  0  0  0  0  0  0  0  0  0
   28.4930  -19.1059  -18.2274 C   0  0  0  0  0  0  0  0  0  0  0  0
   29.6612  -18.8556  -19.1435 C   0  0  0  0  0  0  0  0  0  0  0  0
   30.0486  -17.4562  -19.1346 N   0  0  0  0  0  0  0  0  0  0  0  0
   26.1098  -22.0101  -15.3399 C   0  0  0  0  0  0  0  0  0  0  0  0
   25.0457  -22.6181  -15.6503 O   0  0  0  0  0  0  0  0  0  0  0  0
   26.3496  -20.6699   -8.9266 N   0  0  0  0  0  0  0  0  0  0  0  0
   24.9740  -20.9597   -9.2582 C   0  0  0  0  0  0  0  0  0  0  0  0
   24.2077  -21.0462   -8.2967 O   0  0  0  0  0  0  0  0  0  0  0  0
   24.5875  -21.1266  -10.6313 C   0  0  0  0  0  0  0  0  0  0  0  0
   25.5927  -21.1595  -11.7056 C   0  0  0  0  0  0  0  0  0  0  0  0
   25.1465  -21.3096  -13.1092 C   0  0  2  0  0  0  0  0  0  0  0  0
   26.2473  -21.4197  -14.0459 N   0  0  0  0  0  0  0  0  0  0  0  0
   24.0544  -20.4183  -13.5635 C   0  0  0  0  0  0  0  0  0  0  0  0
   24.3761  -19.2600  -13.9060 O   0  0  0  0  0  0  0  0  0  0  0  0
   20.3278  -21.0374  -17.8926 N   0  0  0  0  0  0  0  0  0  0  0  0
   19.7828  -19.8197  -17.3908 C   0  0  0  0  0  0  0  0  0  0  0  0
   18.9140  -19.2043  -18.0046 O   0  0  0  0  0  0  0  0  0  0  0  0
   20.2973  -19.3130  -16.0916 C   0  0  0  0  0  0  0  0  0  0  0  0
   21.4316  -20.1474  -15.5682 C   0  0  0  0  0  0  0  0  0  0  0  0
   21.5599  -20.0929  -14.0708 C   0  0  2  0  0  0  0  0  0  0  0  0
   22.7055  -20.8259  -13.6170 N   0  0  0  0  0  0  0  0  0  0  0  0
   20.3134  -20.3546  -13.3530 C   0  0  0  0  0  0  0  0  0  0  0  0
   20.1559  -21.4486  -12.7648 O   0  0  0  0  0  0  0  0  0  0  0  0
   19.3091  -19.4064  -13.3189 O   0  0  0  0  0  0  0  0  0  0  0  0
  2  1  1  6
  3  2  1  0
  4  5  1  0
  4  3  1  0
  6  7  1  0
  6  5  1  0
  8  9  2  0
  8  2  1  0
 10 11  1  0
 11 12  2  0
 13 14  1  0
 13 11  1  0
 15 14  1  1
 15 16  1  0
 16  8  1  0
 17 15  1  0
 18 17  2  0
 20 19  1  0
 20 22  1  0
 21 20  2  0
 23 22  1  0
 24 23  1  6
 24 25  1  0
 25 17  1  0
 26 28  1  0
 26 24  1  0
 27 26  2  0
M  END
$$$$
