KQQ.pdb
     RDKit          3D

 28 27  0  0  1  0  0  0  0  0999 V2000
   18.8439  -23.5068  -11.7412 N   0  0  0  0  0  0  0  0  0  0  0  0
   19.0326  -22.2772  -10.9578 C   0  0  1  0  0  0  0  0  0  0  0  0
   19.4269  -22.6459   -9.5689 C   0  0  0  0  0  0  0  0  0  0  0  0
   18.9108  -23.9952   -9.1679 C   0  0  0  0  0  0  0  0  0  0  0  0
   18.1651  -23.9358   -7.8319 C   0  0  0  0  0  0  0  0  0  0  0  0
   17.6791  -25.3004   -7.4222 C   0  0  0  0  0  0  0  0  0  0  0  0
   17.0536  -25.2666   -6.1122 N   0  0  0  0  0  0  0  0  0  0  0  0
   20.0627  -21.4386  -11.5866 C   0  0  0  0  0  0  0  0  0  0  0  0
   20.3687  -20.3060  -11.1158 O   0  0  0  0  0  0  0  0  0  0  0  0
   25.5042  -23.4738  -13.9707 N   0  0  0  0  0  0  0  0  0  0  0  0
   25.3417  -22.1770  -14.5855 C   0  0  0  0  0  0  0  0  0  0  0  0
   26.2982  -21.7906  -15.2601 O   0  0  0  0  0  0  0  0  0  0  0  0
   24.1275  -21.4361  -14.3862 C   0  0  0  0  0  0  0  0  0  0  0  0
   22.9801  -22.0318  -13.6831 C   0  0  0  0  0  0  0  0  0  0  0  0
   21.7789  -21.2046  -13.4289 C   0  0  2  0  0  0  0  0  0  0  0  0
   20.7215  -21.9317  -12.7548 N   0  0  0  0  0  0  0  0  0  0  0  0
   21.3080  -20.3484  -14.5419 C   0  0  0  0  0  0  0  0  0  0  0  0
   20.5164  -20.8676  -15.3582 O   0  0  0  0  0  0  0  0  0  0  0  0
   24.6882  -15.3635  -16.2617 N   0  0  0  0  0  0  0  0  0  0  0  0
   23.6280  -15.2479  -17.2074 C   0  0  0  0  0  0  0  0  0  0  0  0
   23.6537  -14.4043  -18.1006 O   0  0  0  0  0  0  0  0  0  0  0  0
   22.4825  -16.1870  -17.0832 C   0  0  0  0  0  0  0  0  0  0  0  0
   22.6728  -17.1660  -15.9597 C   0  0  0  0  0  0  0  0  0  0  0  0
   21.5340  -18.1393  -15.8283 C   0  0  2  0  0  0  0  0  0  0  0  0
   21.7157  -19.0080  -14.7022 N   0  0  0  0  0  0  0  0  0  0  0  0
   21.1575  -18.7933  -17.0806 C   0  0  0  0  0  0  0  0  0  0  0  0
   21.8556  -19.7346  -17.5214 O   0  0  0  0  0  0  0  0  0  0  0  0
   20.0400  -18.3814  -17.7808 O   0  0  0  0  0  0  0  0  0  0  0  0
  2  1  1  6
  3  2  1  0
  4  5  1  0
  4  3  1  0
  6  7  1  0
  6  5  1  0
  8  9  2  0
  8  2  1  0
 10 11  1  0
 11 12  2  0
 13 14  1  0
 13 11  1  0
 15 14  1  6
 15 16  1  0
 16  8  1  0
 17 15  1  0
 18 17  2  0
 20 19  1  0
 20 22  1  0
 21 20  2  0
 23 22  1  0
 24 23  1  6
 24 25  1  0
 25 17  1  0
 26 28  1  0
 26 24  1  0
 27 26  2  0
M  END
$$$$
