KQQ.pdb
     RDKit          3D

 28 27  0  0  1  0  0  0  0  0999 V2000
   17.5788  -12.4896  -15.5159 N   0  0  0  0  0  0  0  0  0  0  0  0
   18.3441  -11.7732  -16.5466 C   0  0  1  0  0  0  0  0  0  0  0  0
   17.3914  -11.1227  -17.4898 C   0  0  0  0  0  0  0  0  0  0  0  0
   16.4258  -12.0997  -18.0904 C   0  0  0  0  0  0  0  0  0  0  0  0
   17.0065  -12.7649  -19.3414 C   0  0  0  0  0  0  0  0  0  0  0  0
   15.9804  -13.6343  -20.0178 C   0  0  0  0  0  0  0  0  0  0  0  0
   16.1388  -15.0278  -19.6416 N   0  0  0  0  0  0  0  0  0  0  0  0
   19.2164  -10.7733  -15.9150 C   0  0  0  0  0  0  0  0  0  0  0  0
   18.9712  -10.3194  -14.7609 O   0  0  0  0  0  0  0  0  0  0  0  0
   25.3724  -10.6418  -15.4146 N   0  0  0  0  0  0  0  0  0  0  0  0
   25.0000   -9.2676  -15.1718 C   0  0  0  0  0  0  0  0  0  0  0  0
   25.9043   -8.5436  -14.7508 O   0  0  0  0  0  0  0  0  0  0  0  0
   23.6533   -8.8350  -15.4210 C   0  0  0  0  0  0  0  0  0  0  0  0
   22.6287   -9.7764  -15.9000 C   0  0  0  0  0  0  0  0  0  0  0  0
   21.2510   -9.2879  -16.1348 C   0  0  2  0  0  0  0  0  0  0  0  0
   20.3619  -10.3168  -16.6370 N   0  0  0  0  0  0  0  0  0  0  0  0
   21.1113   -7.9825  -16.8204 C   0  0  0  0  0  0  0  0  0  0  0  0
   21.0186   -8.0060  -18.0668 O   0  0  0  0  0  0  0  0  0  0  0  0
   17.7343   -3.9173  -18.7611 N   0  0  0  0  0  0  0  0  0  0  0  0
   17.3236   -4.6646  -17.6190 C   0  0  0  0  0  0  0  0  0  0  0  0
   16.1547   -4.6666  -17.2393 O   0  0  0  0  0  0  0  0  0  0  0  0
   18.3575   -5.4507  -16.8960 C   0  0  0  0  0  0  0  0  0  0  0  0
   19.6870   -5.4139  -17.5945 C   0  0  0  0  0  0  0  0  0  0  0  0
   20.8519   -5.4355  -16.6435 C   0  0  2  0  0  0  0  0  0  0  0  0
   21.0828   -6.7537  -16.1291 N   0  0  0  0  0  0  0  0  0  0  0  0
   20.8358   -4.3608  -15.6522 C   0  0  0  0  0  0  0  0  0  0  0  0
   20.8418   -4.6438  -14.4326 O   0  0  0  0  0  0  0  0  0  0  0  0
   20.8134   -3.0378  -16.0497 O   0  0  0  0  0  0  0  0  0  0  0  0
  2  1  1  1
  3  2  1  0
  4  5  1  0
  4  3  1  0
  6  7  1  0
  6  5  1  0
  8  9  2  0
  8  2  1  0
 10 11  1  0
 11 12  2  0
 13 14  1  0
 13 11  1  0
 15 14  1  6
 15 16  1  0
 16  8  1  0
 17 15  1  0
 18 17  2  0
 20 19  1  0
 20 22  1  0
 21 20  2  0
 23 22  1  0
 24 23  1  1
 24 25  1  0
 25 17  1  0
 26 28  1  0
 26 24  1  0
 27 26  2  0
M  END
$$$$
