KQQ.pdb
     RDKit          3D

 28 27  0  0  1  0  0  0  0  0999 V2000
   25.0272  -20.8727  -16.8745 N   0  0  0  0  0  0  0  0  0  0  0  0
   25.3717  -20.5057  -15.4932 C   0  0  1  0  0  0  0  0  0  0  0  0
   26.5019  -19.5349  -15.5195 C   0  0  0  0  0  0  0  0  0  0  0  0
   27.6188  -19.9830  -16.4136 C   0  0  0  0  0  0  0  0  0  0  0  0
   28.0846  -21.3988  -16.0623 C   0  0  0  0  0  0  0  0  0  0  0  0
   29.1597  -21.8649  -17.0073 C   0  0  0  0  0  0  0  0  0  0  0  0
   29.6737  -23.1668  -16.6210 N   0  0  0  0  0  0  0  0  0  0  0  0
   24.1997  -19.9229  -14.8251 C   0  0  0  0  0  0  0  0  0  0  0  0
   24.2873  -19.3994  -13.6777 O   0  0  0  0  0  0  0  0  0  0  0  0
   20.9552  -15.5174  -16.8751 N   0  0  0  0  0  0  0  0  0  0  0  0
   22.2959  -15.8771  -16.4760 C   0  0  0  0  0  0  0  0  0  0  0  0
   23.1660  -15.0465  -16.7451 O   0  0  0  0  0  0  0  0  0  0  0  0
   22.5358  -17.1301  -15.8164 C   0  0  0  0  0  0  0  0  0  0  0  0
   21.4273  -18.0406  -15.4876 C   0  0  0  0  0  0  0  0  0  0  0  0
   21.7318  -19.3855  -14.9488 C   0  0  2  0  0  0  0  0  0  0  0  0
   22.9425  -19.9582  -15.5034 N   0  0  0  0  0  0  0  0  0  0  0  0
   20.6027  -20.3391  -14.8516 C   0  0  0  0  0  0  0  0  0  0  0  0
   20.4110  -21.0896  -15.8327 O   0  0  0  0  0  0  0  0  0  0  0  0
   18.4099  -23.4956   -9.9695 N   0  0  0  0  0  0  0  0  0  0  0  0
   19.1647  -24.0708  -11.0330 C   0  0  0  0  0  0  0  0  0  0  0  0
   19.7499  -25.1431  -10.8981 O   0  0  0  0  0  0  0  0  0  0  0  0
   19.2218  -23.3320  -12.3216 C   0  0  0  0  0  0  0  0  0  0  0  0
   18.6422  -21.9507  -12.2078 C   0  0  0  0  0  0  0  0  0  0  0  0
   18.5930  -21.2232  -13.5230 C   0  0  2  0  0  0  0  0  0  0  0  0
   19.7642  -20.4202  -13.7208 N   0  0  0  0  0  0  0  0  0  0  0  0
   17.3170  -20.5631  -13.7950 C   0  0  0  0  0  0  0  0  0  0  0  0
   17.2580  -19.3125  -13.8091 O   0  0  0  0  0  0  0  0  0  0  0  0
   16.1778  -21.3067  -14.0356 O   0  0  0  0  0  0  0  0  0  0  0  0
  2  1  1  6
  3  2  1  0
  4  5  1  0
  4  3  1  0
  6  7  1  0
  6  5  1  0
  8  9  2  0
  8  2  1  0
 10 11  1  0
 11 12  2  0
 13 14  1  0
 13 11  1  0
 15 14  1  6
 15 16  1  0
 16  8  1  0
 17 15  1  0
 18 17  2  0
 20 19  1  0
 20 22  1  0
 21 20  2  0
 23 22  1  0
 24 23  1  1
 24 25  1  0
 25 17  1  0
 26 28  1  0
 26 24  1  0
 27 26  2  0
M  END
$$$$
