KQQ.pdb
     RDKit          3D

 28 27  0  0  1  0  0  0  0  0999 V2000
   26.0338  -21.6247  -14.1574 N   0  0  0  0  0  0  0  0  0  0  0  0
   24.9025  -21.3015  -15.0388 C   0  0  1  0  0  0  0  0  0  0  0  0
   24.7112  -22.4177  -16.0073 C   0  0  0  0  0  0  0  0  0  0  0  0
   25.6452  -23.5622  -15.7512 C   0  0  0  0  0  0  0  0  0  0  0  0
   25.5196  -24.6407  -16.8308 C   0  0  0  0  0  0  0  0  0  0  0  0
   26.4698  -25.7792  -16.5716 C   0  0  0  0  0  0  0  0  0  0  0  0
   26.3833  -26.7866  -17.6138 N   0  0  0  0  0  0  0  0  0  0  0  0
   23.6888  -21.0943  -14.2364 C   0  0  0  0  0  0  0  0  0  0  0  0
   23.6207  -21.4761  -13.0332 O   0  0  0  0  0  0  0  0  0  0  0  0
   19.6035  -16.2238  -14.6867 N   0  0  0  0  0  0  0  0  0  0  0  0
   18.8733  -17.2396  -13.9647 C   0  0  0  0  0  0  0  0  0  0  0  0
   17.8039  -16.8713  -13.4747 O   0  0  0  0  0  0  0  0  0  0  0  0
   19.4087  -18.5681  -13.8581 C   0  0  0  0  0  0  0  0  0  0  0  0
   20.7036  -18.9168  -14.4640 C   0  0  0  0  0  0  0  0  0  0  0  0
   21.3129  -20.2317  -14.1614 C   0  0  2  0  0  0  0  0  0  0  0  0
   22.5720  -20.4450  -14.8472 N   0  0  0  0  0  0  0  0  0  0  0  0
   20.4113  -21.4066  -14.1758 C   0  0  0  0  0  0  0  0  0  0  0  0
   20.3572  -22.0642  -15.2375 O   0  0  0  0  0  0  0  0  0  0  0  0
   18.6842  -25.8042   -8.9326 N   0  0  0  0  0  0  0  0  0  0  0  0
   18.7271  -24.4609   -9.4072 C   0  0  0  0  0  0  0  0  0  0  0  0
   18.4165  -23.5151   -8.6865 O   0  0  0  0  0  0  0  0  0  0  0  0
   19.1651  -24.2344  -10.8095 C   0  0  0  0  0  0  0  0  0  0  0  0
   18.3862  -23.1354  -11.4748 C   0  0  0  0  0  0  0  0  0  0  0  0
   18.7743  -22.9268  -12.9127 C   0  0  2  0  0  0  0  0  0  0  0  0
   19.6359  -21.7905  -13.0623 N   0  0  0  0  0  0  0  0  0  0  0  0
   17.6566  -23.0042  -13.8521 C   0  0  0  0  0  0  0  0  0  0  0  0
   17.0710  -21.9553  -14.2049 O   0  0  0  0  0  0  0  0  0  0  0  0
   17.2417  -24.2233  -14.3524 O   0  0  0  0  0  0  0  0  0  0  0  0
  2  1  1  1
  3  2  1  0
  4  5  1  0
  4  3  1  0
  6  7  1  0
  6  5  1  0
  8  9  2  0
  8  2  1  0
 10 11  1  0
 11 12  2  0
 13 14  1  0
 13 11  1  0
 15 14  1  6
 15 16  1  0
 16  8  1  0
 17 15  1  0
 18 17  2  0
 20 19  1  0
 20 22  1  0
 21 20  2  0
 23 22  1  0
 24 23  1  1
 24 25  1  0
 25 17  1  0
 26 28  1  0
 26 24  1  0
 27 26  2  0
M  END
$$$$
