KQQ.pdb
     RDKit          3D

 28 27  0  0  1  0  0  0  0  0999 V2000
   21.8269  -26.7523  -12.4407 N   0  0  0  0  0  0  0  0  0  0  0  0
   21.2362  -26.3748  -13.7329 C   0  0  1  0  0  0  0  0  0  0  0  0
   19.8078  -26.7986  -13.7525 C   0  0  0  0  0  0  0  0  0  0  0  0
   19.6452  -28.2693  -13.5113 C   0  0  0  0  0  0  0  0  0  0  0  0
   19.5063  -28.5807  -12.0186 C   0  0  0  0  0  0  0  0  0  0  0  0
   19.3009  -30.0544  -11.7899 C   0  0  0  0  0  0  0  0  0  0  0  0
   17.9087  -30.3558  -11.5085 N   0  0  0  0  0  0  0  0  0  0  0  0
   21.3516  -24.9228  -13.9285 C   0  0  0  0  0  0  0  0  0  0  0  0
   21.2211  -24.1152  -12.9647 O   0  0  0  0  0  0  0  0  0  0  0  0
   24.6067  -22.2540  -18.8549 N   0  0  0  0  0  0  0  0  0  0  0  0
   24.0697  -21.1611  -18.0781 C   0  0  0  0  0  0  0  0  0  0  0  0
   24.4744  -20.0410  -18.3954 O   0  0  0  0  0  0  0  0  0  0  0  0
   23.1339  -21.4248  -17.0210 C   0  0  0  0  0  0  0  0  0  0  0  0
   22.7673  -22.8026  -16.6562 C   0  0  0  0  0  0  0  0  0  0  0  0
   21.8286  -23.0281  -15.5337 C   0  0  2  0  0  0  0  0  0  0  0  0
   21.6173  -24.4326  -15.2441 N   0  0  0  0  0  0  0  0  0  0  0  0
   20.5895  -22.2169  -15.5240 C   0  0  0  0  0  0  0  0  0  0  0  0
   19.5574  -22.7566  -15.9778 O   0  0  0  0  0  0  0  0  0  0  0  0
   17.5486  -22.7017  -11.5403 N   0  0  0  0  0  0  0  0  0  0  0  0
   16.9623  -21.4171  -11.7347 C   0  0  0  0  0  0  0  0  0  0  0  0
   15.9363  -21.0840  -11.1460 O   0  0  0  0  0  0  0  0  0  0  0  0
   17.6349  -20.4830  -12.6752 C   0  0  0  0  0  0  0  0  0  0  0  0
   18.8576  -21.0924  -13.3001 C   0  0  0  0  0  0  0  0  0  0  0  0
   19.4733  -20.2208  -14.3597 C   0  0  2  0  0  0  0  0  0  0  0  0
   20.5434  -20.8951  -15.0349 N   0  0  0  0  0  0  0  0  0  0  0  0
   19.7595  -18.8558  -13.9208 C   0  0  0  0  0  0  0  0  0  0  0  0
   18.8509  -18.1701  -13.3994 O   0  0  0  0  0  0  0  0  0  0  0  0
   21.0221  -18.3172  -14.0769 O   0  0  0  0  0  0  0  0  0  0  0  0
  2  1  1  1
  3  2  1  0
  4  5  1  0
  4  3  1  0
  6  7  1  0
  6  5  1  0
  8  9  2  0
  8  2  1  0
 10 11  1  0
 11 12  2  0
 13 14  1  0
 13 11  1  0
 15 14  1  6
 15 16  1  0
 16  8  1  0
 17 15  1  0
 18 17  2  0
 20 19  1  0
 20 22  1  0
 21 20  2  0
 23 22  1  0
 24 23  1  1
 24 25  1  0
 25 17  1  0
 26 28  1  0
 26 24  1  0
 27 26  2  0
M  END
$$$$
