KQQ.pdb
     RDKit          3D

 28 27  0  0  1  0  0  0  0  0999 V2000
   19.1020  -26.4766  -14.0824 N   0  0  0  0  0  0  0  0  0  0  0  0
   20.1282  -25.6102  -13.4844 C   0  0  1  0  0  0  0  0  0  0  0  0
   20.4182  -24.4884  -14.4214 C   0  0  0  0  0  0  0  0  0  0  0  0
   21.1194  -24.9491  -15.6640 C   0  0  0  0  0  0  0  0  0  0  0  0
   22.6356  -24.7667  -15.5525 C   0  0  0  0  0  0  0  0  0  0  0  0
   23.3130  -25.0518  -16.8663 C   0  0  0  0  0  0  0  0  0  0  0  0
   24.7512  -24.8786  -16.7670 N   0  0  0  0  0  0  0  0  0  0  0  0
   19.6563  -25.0989  -12.1899 C   0  0  0  0  0  0  0  0  0  0  0  0
   20.3178  -24.2402  -11.5394 O   0  0  0  0  0  0  0  0  0  0  0  0
   14.8142  -22.1523  -10.3187 N   0  0  0  0  0  0  0  0  0  0  0  0
   15.2947  -22.7209   -9.0809 C   0  0  0  0  0  0  0  0  0  0  0  0
   14.7953  -22.2508   -8.0567 O   0  0  0  0  0  0  0  0  0  0  0  0
   16.2875  -23.7583   -9.1064 C   0  0  0  0  0  0  0  0  0  0  0  0
   16.8568  -24.2348  -10.3770 C   0  0  0  0  0  0  0  0  0  0  0  0
   17.9272  -25.2573  -10.3516 C   0  0  2  0  0  0  0  0  0  0  0  0
   18.4206  -25.5954  -11.6720 N   0  0  0  0  0  0  0  0  0  0  0  0
   17.7144  -26.4274   -9.4690 C   0  0  0  0  0  0  0  0  0  0  0  0
   17.3916  -27.5010  -10.0221 O   0  0  0  0  0  0  0  0  0  0  0  0
   18.5768  -26.1131   -3.1868 N   0  0  0  0  0  0  0  0  0  0  0  0
   18.2006  -27.4820   -3.3136 C   0  0  0  0  0  0  0  0  0  0  0  0
   18.2196  -28.2449   -2.3503 O   0  0  0  0  0  0  0  0  0  0  0  0
   17.7780  -27.9638   -4.6548 C   0  0  0  0  0  0  0  0  0  0  0  0
   17.8658  -26.8852   -5.6968 C   0  0  0  0  0  0  0  0  0  0  0  0
   17.6546  -27.3988   -7.0944 C   0  0  2  0  0  0  0  0  0  0  0  0
   17.8591  -26.3660   -8.0676 N   0  0  0  0  0  0  0  0  0  0  0  0
   16.4418  -28.1981   -7.2619 C   0  0  0  0  0  0  0  0  0  0  0  0
   15.3749  -27.6395   -7.6042 O   0  0  0  0  0  0  0  0  0  0  0  0
   16.4633  -29.5624   -7.0452 O   0  0  0  0  0  0  0  0  0  0  0  0
  2  1  1  6
  3  2  1  0
  4  5  1  0
  4  3  1  0
  6  7  1  0
  6  5  1  0
  8  9  2  0
  8  2  1  0
 10 11  1  0
 11 12  2  0
 13 14  1  0
 13 11  1  0
 15 14  1  6
 15 16  1  0
 16  8  1  0
 17 15  1  0
 18 17  2  0
 20 19  1  0
 20 22  1  0
 21 20  2  0
 23 22  1  0
 24 23  1  1
 24 25  1  0
 25 17  1  0
 26 28  1  0
 26 24  1  0
 27 26  2  0
M  END
$$$$
