KQQ.pdb
     RDKit          3D

 28 27  0  0  1  0  0  0  0  0999 V2000
   15.1285  -16.6978  -16.3359 N   0  0  0  0  0  0  0  0  0  0  0  0
   15.1491  -15.5954  -17.3082 C   0  0  1  0  0  0  0  0  0  0  0  0
   13.7524  -15.1312  -17.5409 C   0  0  0  0  0  0  0  0  0  0  0  0
   12.8351  -15.4920  -16.4112 C   0  0  0  0  0  0  0  0  0  0  0  0
   11.3798  -15.1461  -16.7384 C   0  0  0  0  0  0  0  0  0  0  0  0
   10.4877  -15.3779  -15.5481 C   0  0  0  0  0  0  0  0  0  0  0  0
   10.4007  -16.7898  -15.2207 N   0  0  0  0  0  0  0  0  0  0  0  0
   15.9849  -14.4984  -16.8004 C   0  0  0  0  0  0  0  0  0  0  0  0
   15.9977  -14.1926  -15.5737 O   0  0  0  0  0  0  0  0  0  0  0  0
   21.7841  -13.1407  -18.7532 N   0  0  0  0  0  0  0  0  0  0  0  0
   21.1561  -14.1791  -17.9699 C   0  0  0  0  0  0  0  0  0  0  0  0
   21.8584  -15.1668  -17.7453 O   0  0  0  0  0  0  0  0  0  0  0  0
   19.8039  -14.0148  -17.5144 C   0  0  0  0  0  0  0  0  0  0  0  0
   19.0343  -12.8032  -17.8389 C   0  0  0  0  0  0  0  0  0  0  0  0
   17.6483  -12.6705  -17.3356 C   0  0  2  0  0  0  0  0  0  0  0  0
   16.7938  -13.7735  -17.7288 N   0  0  0  0  0  0  0  0  0  0  0  0
   17.0132  -11.3389  -17.4662 C   0  0  0  0  0  0  0  0  0  0  0  0
   16.0432  -11.2500  -18.2496 O   0  0  0  0  0  0  0  0  0  0  0  0
   14.7113   -7.8681  -18.9418 N   0  0  0  0  0  0  0  0  0  0  0  0
   14.3943   -7.0483  -17.8197 C   0  0  0  0  0  0  0  0  0  0  0  0
   13.7725   -5.9962  -17.9485 O   0  0  0  0  0  0  0  0  0  0  0  0
   14.8384   -7.5078  -16.4775 C   0  0  0  0  0  0  0  0  0  0  0  0
   15.4355   -8.8857  -16.5204 C   0  0  0  0  0  0  0  0  0  0  0  0
   16.9215   -8.8758  -16.7515 C   0  0  2  0  0  0  0  0  0  0  0  0
   17.4589  -10.2051  -16.7560 N   0  0  0  0  0  0  0  0  0  0  0  0
   17.6475   -7.9001  -15.9399 C   0  0  0  0  0  0  0  0  0  0  0  0
   17.7738   -6.7244  -16.3515 O   0  0  0  0  0  0  0  0  0  0  0  0
   18.1948   -8.2644  -14.7248 O   0  0  0  0  0  0  0  0  0  0  0  0
  2  1  1  1
  3  2  1  0
  4  5  1  0
  4  3  1  0
  6  7  1  0
  6  5  1  0
  8  9  2  0
  8  2  1  0
 10 11  1  0
 11 12  2  0
 13 14  1  0
 13 11  1  0
 15 14  1  6
 15 16  1  0
 16  8  1  0
 17 15  1  0
 18 17  2  0
 20 19  1  0
 20 22  1  0
 21 20  2  0
 23 22  1  0
 24 23  1  1
 24 25  1  0
 25 17  1  0
 26 28  1  0
 26 24  1  0
 27 26  2  0
M  END
$$$$
