IGR.pdb
     RDKit          3D

 24 23  0  0  1  0  0  0  0  0999 V2000
   32.3793  -21.9854   -9.3906 C   0  0  0  0  0  0  0  0  0  0  0  0
   31.1963  -22.3084  -10.2547 C   0  0  0  0  0  0  0  0  0  0  0  0
   29.9665  -21.5090   -9.8993 C   0  0  2  0  0  0  0  0  0  0  0  0
   29.5844  -21.7456   -8.4731 C   0  0  0  0  0  0  0  0  0  0  0  0
   28.8640  -21.8730  -10.8743 C   0  0  2  0  0  0  0  0  0  0  0  0
   29.3203  -21.5541  -12.2463 N   0  0  0  0  0  0  0  0  0  0  0  0
   27.6992  -21.0043  -10.5980 C   0  0  0  0  0  0  0  0  0  0  0  0
   27.7906  -19.7626  -10.8726 O   0  0  0  0  0  0  0  0  0  0  0  0
   26.4712  -21.4327  -10.0495 N   0  0  0  0  0  0  0  0  0  0  0  0
   25.3700  -20.5074   -9.8779 C   0  0  0  0  0  0  0  0  0  0  0  0
   24.4135  -20.6925  -10.9975 C   0  0  0  0  0  0  0  0  0  0  0  0
   23.5794  -21.6190  -10.9581 O   0  0  0  0  0  0  0  0  0  0  0  0
   21.2376  -15.4271  -17.3947 N   0  0  0  0  0  0  0  0  0  0  0  0
   20.6065  -16.6908  -17.6263 C   0  0  0  0  0  0  0  0  0  0  0  0
   19.6786  -16.7729  -18.5111 N   0  0  0  0  0  0  0  0  0  0  0  0
   21.0329  -17.8125  -16.8642 N   0  0  0  0  0  0  0  0  0  0  0  0
   21.9783  -17.5997  -15.8010 C   0  0  0  0  0  0  0  0  0  0  0  0
   22.4112  -18.8861  -15.1996 C   0  0  0  0  0  0  0  0  0  0  0  0
   23.3466  -18.8206  -14.0540 C   0  0  0  0  0  0  0  0  0  0  0  0
   23.4125  -20.0297  -13.1746 C   0  0  2  0  0  0  0  0  0  0  0  0
   24.4034  -19.8460  -12.1359 N   0  0  0  0  0  0  0  0  0  0  0  0
   23.5511  -21.3122  -13.8696 C   0  0  0  0  0  0  0  0  0  0  0  0
   24.6913  -21.7699  -14.1856 O   0  0  0  0  0  0  0  0  0  0  0  0
   22.4480  -22.0721  -14.2060 O   0  0  0  0  0  0  0  0  0  0  0  0
  2  1  1  0
  2  3  1  0
  3  5  1  0
  3  4  1  1
  5  7  1  0
  5  6  1  6
  7  9  1  0
  8  7  2  0
  9 10  1  0
 11 12  2  0
 11 10  1  0
 14 13  1  0
 14 15  2  0
 16 14  1  0
 17 16  1  0
 18 17  1  0
 18 19  1  0
 20 19  1  6
 20 21  1  0
 21 11  1  0
 22 20  1  0
 22 24  1  0
 23 22  2  0
M  END
$$$$
