IGR.pdb
     RDKit          3D

 24 23  0  0  1  0  0  0  0  0999 V2000
   16.5770  -27.5856   -2.7174 C   0  0  0  0  0  0  0  0  0  0  0  0
   16.9277  -26.3736   -3.5289 C   0  0  0  0  0  0  0  0  0  0  0  0
   16.9298  -26.6355   -5.0152 C   0  0  2  0  0  0  0  0  0  0  0  0
   17.9230  -27.7002   -5.3561 C   0  0  0  0  0  0  0  0  0  0  0  0
   17.2000  -25.3255   -5.7290 C   0  0  2  0  0  0  0  0  0  0  0  0
   16.0663  -24.4067   -5.4783 N   0  0  0  0  0  0  0  0  0  0  0  0
   17.2230  -25.5897   -7.1841 C   0  0  0  0  0  0  0  0  0  0  0  0
   18.2321  -26.1958   -7.6740 O   0  0  0  0  0  0  0  0  0  0  0  0
   16.2096  -25.2274   -8.0973 N   0  0  0  0  0  0  0  0  0  0  0  0
   16.3208  -25.5604   -9.5027 C   0  0  0  0  0  0  0  0  0  0  0  0
   16.1470  -24.3214  -10.3010 C   0  0  0  0  0  0  0  0  0  0  0  0
   16.0488  -23.2186   -9.7268 O   0  0  0  0  0  0  0  0  0  0  0  0
   21.5518  -24.0880  -15.0849 N   0  0  0  0  0  0  0  0  0  0  0  0
   20.7611  -23.0413  -15.6577 C   0  0  0  0  0  0  0  0  0  0  0  0
   20.9695  -22.6972  -16.8779 N   0  0  0  0  0  0  0  0  0  0  0  0
   19.7703  -22.4192  -14.8501 N   0  0  0  0  0  0  0  0  0  0  0  0
   19.6686  -22.8076  -13.4688 C   0  0  0  0  0  0  0  0  0  0  0  0
   18.3405  -23.4010  -13.1724 C   0  0  0  0  0  0  0  0  0  0  0  0
   17.2685  -22.4815  -12.7287 C   0  0  0  0  0  0  0  0  0  0  0  0
   15.9320  -23.0960  -12.4535 C   0  0  2  0  0  0  0  0  0  0  0  0
   16.0860  -24.3331  -11.7183 N   0  0  0  0  0  0  0  0  0  0  0  0
   15.0461  -23.2323  -13.6127 C   0  0  0  0  0  0  0  0  0  0  0  0
   14.6164  -24.3670  -13.9830 O   0  0  0  0  0  0  0  0  0  0  0  0
   14.6441  -22.1327  -14.3453 O   0  0  0  0  0  0  0  0  0  0  0  0
  2  1  1  0
  2  3  1  0
  3  5  1  0
  3  4  1  1
  5  7  1  0
  5  6  1  6
  7  9  1  0
  8  7  2  0
  9 10  1  0
 11 12  2  0
 11 10  1  0
 14 13  1  0
 14 15  2  0
 16 14  1  0
 17 16  1  0
 18 17  1  0
 18 19  1  0
 20 19  1  6
 20 21  1  0
 21 11  1  0
 22 20  1  0
 22 24  1  0
 23 22  2  0
M  END
$$$$
