IGR.pdb
     RDKit          3D

 24 23  0  0  1  0  0  0  0  0999 V2000
   28.3711  -18.3275   -2.6391 C   0  0  0  0  0  0  0  0  0  0  0  0
   28.6914  -18.3420   -4.1046 C   0  0  0  0  0  0  0  0  0  0  0  0
   28.0650  -19.5034   -4.8370 C   0  0  2  0  0  0  0  0  0  0  0  0
   28.3964  -20.7914   -4.1534 C   0  0  0  0  0  0  0  0  0  0  0  0
   28.5306  -19.4635   -6.2793 C   0  0  2  0  0  0  0  0  0  0  0  0
   28.1982  -18.1375   -6.8480 N   0  0  0  0  0  0  0  0  0  0  0  0
   27.7527  -20.4636   -7.0425 C   0  0  0  0  0  0  0  0  0  0  0  0
   27.9670  -21.6998   -6.8154 O   0  0  0  0  0  0  0  0  0  0  0  0
   26.7744  -20.1691   -8.0165 N   0  0  0  0  0  0  0  0  0  0  0  0
   26.0030  -21.2254   -8.6391 C   0  0  0  0  0  0  0  0  0  0  0  0
   25.0249  -20.6138   -9.5728 C   0  0  0  0  0  0  0  0  0  0  0  0
   24.3576  -19.6226   -9.2153 O   0  0  0  0  0  0  0  0  0  0  0  0
   28.4494  -21.7011  -15.2761 N   0  0  0  0  0  0  0  0  0  0  0  0
   27.4268  -21.2207  -16.1549 C   0  0  0  0  0  0  0  0  0  0  0  0
   27.4276  -21.6017  -17.3818 N   0  0  0  0  0  0  0  0  0  0  0  0
   26.4441  -20.3356  -15.6334 N   0  0  0  0  0  0  0  0  0  0  0  0
   26.4544  -20.0540  -14.2228 C   0  0  0  0  0  0  0  0  0  0  0  0
   25.6528  -21.0503  -13.4687 C   0  0  0  0  0  0  0  0  0  0  0  0
   24.2358  -20.7186  -13.1978 C   0  0  0  0  0  0  0  0  0  0  0  0
   23.8705  -20.4614  -11.7695 C   0  0  2  0  0  0  0  0  0  0  0  0
   24.8085  -21.1152  -10.8822 N   0  0  0  0  0  0  0  0  0  0  0  0
   22.4742  -20.7282  -11.4143 C   0  0  0  0  0  0  0  0  0  0  0  0
   21.5346  -19.9873  -11.8359 O   0  0  0  0  0  0  0  0  0  0  0  0
   22.1269  -21.7951  -10.6092 O   0  0  0  0  0  0  0  0  0  0  0  0
  2  1  1  0
  2  3  1  0
  3  5  1  0
  3  4  1  1
  5  7  1  0
  5  6  1  6
  7  9  1  0
  8  7  2  0
  9 10  1  0
 11 12  2  0
 11 10  1  0
 14 13  1  0
 14 15  2  0
 16 14  1  0
 17 16  1  0
 18 17  1  0
 18 19  1  0
 20 19  1  6
 20 21  1  0
 21 11  1  0
 22 20  1  0
 22 24  1  0
 23 22  2  0
M  END
$$$$
