IGR.pdb
     RDKit          3D

 24 23  0  0  1  0  0  0  0  0999 V2000
   25.4949  -24.5081  -14.7586 C   0  0  0  0  0  0  0  0  0  0  0  0
   25.2376  -23.1941  -14.0824 C   0  0  0  0  0  0  0  0  0  0  0  0
   24.2863  -22.3086  -14.8497 C   0  0  2  0  0  0  0  0  0  0  0  0
   24.6912  -22.2296  -16.2870 C   0  0  0  0  0  0  0  0  0  0  0  0
   24.2464  -20.9529  -14.1720 C   0  0  2  0  0  0  0  0  0  0  0  0
   23.9404  -21.1495  -12.7367 N   0  0  0  0  0  0  0  0  0  0  0  0
   23.1224  -20.1829  -14.7476 C   0  0  0  0  0  0  0  0  0  0  0  0
   23.2433  -19.7284  -15.9327 O   0  0  0  0  0  0  0  0  0  0  0  0
   21.9037  -19.9015  -14.0933 N   0  0  0  0  0  0  0  0  0  0  0  0
   20.8507  -19.1682  -14.7652 C   0  0  0  0  0  0  0  0  0  0  0  0
   19.6344  -20.0173  -14.8126 C   0  0  0  0  0  0  0  0  0  0  0  0
   18.5948  -19.5875  -15.3512 O   0  0  0  0  0  0  0  0  0  0  0  0
   17.4289  -25.2025   -8.6063 N   0  0  0  0  0  0  0  0  0  0  0  0
   18.6919  -24.5584   -8.8028 C   0  0  0  0  0  0  0  0  0  0  0  0
   19.4988  -24.4490   -7.8091 N   0  0  0  0  0  0  0  0  0  0  0  0
   19.0068  -24.0618  -10.0971 N   0  0  0  0  0  0  0  0  0  0  0  0
   18.0303  -24.2069  -11.1434 C   0  0  0  0  0  0  0  0  0  0  0  0
   18.0606  -23.0497  -12.0728 C   0  0  0  0  0  0  0  0  0  0  0  0
   18.4694  -23.3113  -13.4714 C   0  0  0  0  0  0  0  0  0  0  0  0
   18.4180  -22.1482  -14.4117 C   0  0  2  0  0  0  0  0  0  0  0  0
   19.5981  -21.3240  -14.2615 N   0  0  0  0  0  0  0  0  0  0  0  0
   17.1767  -21.3698  -14.3900 C   0  0  0  0  0  0  0  0  0  0  0  0
   16.9509  -20.5160  -13.4793 O   0  0  0  0  0  0  0  0  0  0  0  0
   16.2065  -21.5341  -15.3590 O   0  0  0  0  0  0  0  0  0  0  0  0
  2  1  1  0
  2  3  1  0
  3  5  1  0
  3  4  1  6
  5  7  1  0
  5  6  1  1
  7  9  1  0
  8  7  2  0
  9 10  1  0
 11 12  2  0
 11 10  1  0
 14 13  1  0
 14 15  2  0
 16 14  1  0
 17 16  1  0
 18 17  1  0
 18 19  1  0
 20 19  1  1
 20 21  1  0
 21 11  1  0
 22 20  1  0
 22 24  1  0
 23 22  2  0
M  END
$$$$
