IGR.pdb
     RDKit          3D

 24 23  0  0  1  0  0  0  0  0999 V2000
   28.0978  -20.8435   -8.5142 C   0  0  0  0  0  0  0  0  0  0  0  0
   26.6438  -21.1556   -8.3168 C   0  0  0  0  0  0  0  0  0  0  0  0
   25.8584  -21.1618   -9.6056 C   0  0  2  0  0  0  0  0  0  0  0  0
   26.2528  -22.3302  -10.4514 C   0  0  0  0  0  0  0  0  0  0  0  0
   26.0726  -19.8311  -10.2999 C   0  0  2  0  0  0  0  0  0  0  0  0
   25.7280  -18.7434   -9.3563 N   0  0  0  0  0  0  0  0  0  0  0  0
   25.1175  -19.7397  -11.4256 C   0  0  0  0  0  0  0  0  0  0  0  0
   23.8766  -19.6179  -11.1590 O   0  0  0  0  0  0  0  0  0  0  0  0
   25.4607  -19.7736  -12.7943 N   0  0  0  0  0  0  0  0  0  0  0  0
   24.4431  -19.6633  -13.8193 C   0  0  0  0  0  0  0  0  0  0  0  0
   23.5447  -20.8410  -13.7272 C   0  0  0  0  0  0  0  0  0  0  0  0
   23.9841  -21.9813  -13.9768 O   0  0  0  0  0  0  0  0  0  0  0  0
   19.6592  -24.0025   -7.5354 N   0  0  0  0  0  0  0  0  0  0  0  0
   18.5117  -23.4265   -8.1680 C   0  0  0  0  0  0  0  0  0  0  0  0
   17.4298  -23.2845   -7.4899 N   0  0  0  0  0  0  0  0  0  0  0  0
   18.6137  -23.0314   -9.5298 N   0  0  0  0  0  0  0  0  0  0  0  0
   19.6888  -23.5681  -10.3207 C   0  0  0  0  0  0  0  0  0  0  0  0
   19.6721  -23.0153  -11.6983 C   0  0  0  0  0  0  0  0  0  0  0  0
   20.5473  -21.8540  -11.9758 C   0  0  0  0  0  0  0  0  0  0  0  0
   21.3556  -21.9114  -13.2339 C   0  0  2  0  0  0  0  0  0  0  0  0
   22.1789  -20.7279  -13.3604 N   0  0  0  0  0  0  0  0  0  0  0  0
   20.6056  -22.2132  -14.4560 C   0  0  0  0  0  0  0  0  0  0  0  0
   20.1572  -21.2875  -15.1987 O   0  0  0  0  0  0  0  0  0  0  0  0
   20.3590  -23.5145  -14.8470 O   0  0  0  0  0  0  0  0  0  0  0  0
  2  1  1  0
  2  3  1  0
  3  5  1  0
  3  4  1  6
  5  7  1  0
  5  6  1  1
  7  9  1  0
  8  7  2  0
  9 10  1  0
 11 12  2  0
 11 10  1  0
 14 13  1  0
 14 15  2  0
 16 14  1  0
 17 16  1  0
 18 17  1  0
 18 19  1  0
 20 19  1  1
 20 21  1  0
 21 11  1  0
 22 20  1  0
 22 24  1  0
 23 22  2  0
M  END
$$$$
