IGR.pdb
     RDKit          3D

 24 23  0  0  1  0  0  0  0  0999 V2000
   30.5748  -15.8099  -18.3109 C   0  0  0  0  0  0  0  0  0  0  0  0
   29.2082  -16.0932  -18.8607 C   0  0  0  0  0  0  0  0  0  0  0  0
   28.1193  -16.0005  -17.8198 C   0  0  2  0  0  0  0  0  0  0  0  0
   28.4069  -16.9247  -16.6800 C   0  0  0  0  0  0  0  0  0  0  0  0
   26.7916  -16.2882  -18.4929 C   0  0  2  0  0  0  0  0  0  0  0  0
   26.6134  -15.3386  -19.6148 N   0  0  0  0  0  0  0  0  0  0  0  0
   25.7122  -16.0096  -17.5208 C   0  0  0  0  0  0  0  0  0  0  0  0
   25.4186  -14.7938  -17.2733 O   0  0  0  0  0  0  0  0  0  0  0  0
   24.9615  -16.9852  -16.8302 N   0  0  0  0  0  0  0  0  0  0  0  0
   23.9040  -16.6017  -15.9176 C   0  0  0  0  0  0  0  0  0  0  0  0
   23.1955  -17.8259  -15.4681 C   0  0  0  0  0  0  0  0  0  0  0  0
   23.4439  -18.9231  -16.0068 O   0  0  0  0  0  0  0  0  0  0  0  0
   21.0753  -21.1844   -7.7487 N   0  0  0  0  0  0  0  0  0  0  0  0
   20.4796  -22.1048   -8.6688 C   0  0  0  0  0  0  0  0  0  0  0  0
   19.8971  -23.1552   -8.2129 N   0  0  0  0  0  0  0  0  0  0  0  0
   20.5558  -21.8199  -10.0595 N   0  0  0  0  0  0  0  0  0  0  0  0
   21.1275  -20.5661  -10.4722 C   0  0  0  0  0  0  0  0  0  0  0  0
   21.0639  -20.4042  -11.9465 C   0  0  0  0  0  0  0  0  0  0  0  0
   21.6590  -19.1771  -12.5222 C   0  0  0  0  0  0  0  0  0  0  0  0
   21.5827  -19.0313  -14.0097 C   0  0  2  0  0  0  0  0  0  0  0  0
   22.2273  -17.8061  -14.4314 N   0  0  0  0  0  0  0  0  0  0  0  0
   20.2506  -19.2017  -14.5959 C   0  0  0  0  0  0  0  0  0  0  0  0
   19.4138  -18.2484  -14.6169 O   0  0  0  0  0  0  0  0  0  0  0  0
   19.8551  -20.4040  -15.1484 O   0  0  0  0  0  0  0  0  0  0  0  0
  2  1  1  0
  2  3  1  0
  3  5  1  0
  3  4  1  1
  5  7  1  0
  5  6  1  6
  7  9  1  0
  8  7  2  0
  9 10  1  0
 11 12  2  0
 11 10  1  0
 14 13  1  0
 14 15  2  0
 16 14  1  0
 17 16  1  0
 18 17  1  0
 18 19  1  0
 20 19  1  1
 20 21  1  0
 21 11  1  0
 22 20  1  0
 22 24  1  0
 23 22  2  0
M  END
$$$$
