IGR.pdb
     RDKit          3D

 24 23  0  0  1  0  0  0  0  0999 V2000
   21.2559  -19.7090  -18.6434 C   0  0  0  0  0  0  0  0  0  0  0  0
   22.0272  -19.1550  -17.4823 C   0  0  0  0  0  0  0  0  0  0  0  0
   21.5752  -19.7073  -16.1525 C   0  0  2  0  0  0  0  0  0  0  0  0
   20.1147  -19.4562  -15.9524 C   0  0  0  0  0  0  0  0  0  0  0  0
   22.4344  -19.0927  -15.0649 C   0  0  2  0  0  0  0  0  0  0  0  0
   23.8585  -19.3166  -15.4028 N   0  0  0  0  0  0  0  0  0  0  0  0
   22.1738  -19.8218  -13.8046 C   0  0  0  0  0  0  0  0  0  0  0  0
   22.7703  -20.9321  -13.6125 O   0  0  0  0  0  0  0  0  0  0  0  0
   21.3102  -19.3916  -12.7743 N   0  0  0  0  0  0  0  0  0  0  0  0
   21.1195  -20.1907  -11.5813 C   0  0  0  0  0  0  0  0  0  0  0  0
   19.9831  -21.1184  -11.8061 C   0  0  0  0  0  0  0  0  0  0  0  0
   19.3359  -21.0648  -12.8709 O   0  0  0  0  0  0  0  0  0  0  0  0
   18.3784  -26.6056   -5.5339 N   0  0  0  0  0  0  0  0  0  0  0  0
   17.3540  -25.6059   -5.5389 C   0  0  0  0  0  0  0  0  0  0  0  0
   16.4811  -25.6012   -4.5963 N   0  0  0  0  0  0  0  0  0  0  0  0
   17.3417  -24.6514   -6.5923 N   0  0  0  0  0  0  0  0  0  0  0  0
   17.9183  -25.0195   -7.8578 C   0  0  0  0  0  0  0  0  0  0  0  0
   17.9255  -23.8727   -8.8005 C   0  0  0  0  0  0  0  0  0  0  0  0
   18.4642  -24.1120  -10.1584 C   0  0  0  0  0  0  0  0  0  0  0  0
   18.4543  -22.9462  -11.0967 C   0  0  2  0  0  0  0  0  0  0  0  0
   19.5898  -22.0850  -10.8449 N   0  0  0  0  0  0  0  0  0  0  0  0
   17.1908  -22.2087  -11.1783 C   0  0  0  0  0  0  0  0  0  0  0  0
   16.2322  -22.6227  -11.8988 O   0  0  0  0  0  0  0  0  0  0  0  0
   16.9939  -21.0369  -10.4744 O   0  0  0  0  0  0  0  0  0  0  0  0
  2  1  1  0
  2  3  1  0
  3  5  1  0
  3  4  1  1
  5  7  1  0
  5  6  1  6
  7  9  1  0
  8  7  2  0
  9 10  1  0
 11 12  2  0
 11 10  1  0
 14 13  1  0
 14 15  2  0
 16 14  1  0
 17 16  1  0
 18 17  1  0
 18 19  1  0
 20 19  1  1
 20 21  1  0
 21 11  1  0
 22 20  1  0
 22 24  1  0
 23 22  2  0
M  END
$$$$
