HFL.pdb
     RDKit          3D

 30 31  0  0  1  0  0  0  0  0999 V2000
   10.7006  -17.2116   19.1656 N   0  0  0  0  0  0  0  0  0  0  0  0
   10.0187  -17.7222   20.3124 C   0  0  1  0  0  0  0  0  0  0  0  0
   10.6375  -19.0324   20.7986 C   0  0  0  0  0  0  0  0  0  0  0  0
   10.1689  -20.0808   19.8448 C   0  0  0  0  0  0  0  0  0  0  0  0
    9.2285  -19.9745   18.8386 C   0  0  0  0  0  0  0  0  0  0  0  0
    9.0793  -21.1511   18.1888 N   0  0  0  0  0  0  0  0  0  0  0  0
    9.9294  -22.0002   18.7891 C   0  0  0  0  0  0  0  0  0  0  0  0
   10.5892  -21.3783   19.7812 N   0  0  0  0  0  0  0  0  0  0  0  0
   10.0137  -16.7032   21.3830 C   0  0  0  0  0  0  0  0  0  0  0  0
   11.0346  -16.0001   21.5715 O   0  0  0  0  0  0  0  0  0  0  0  0
    8.8550  -16.5351   22.1815 N   0  0  0  0  0  0  0  0  0  0  0  0
    8.7701  -15.5071   23.2329 C   0  0  1  0  0  0  0  0  0  0  0  0
    7.3258  -15.1661   23.3541 C   0  0  0  0  0  0  0  0  0  0  0  0
    6.9791  -14.1115   24.3007 C   0  0  0  0  0  0  0  0  0  0  0  0
    6.2543  -14.4327   25.4339 C   0  0  0  0  0  0  0  0  0  0  0  0
    5.9027  -13.4576   26.3741 C   0  0  0  0  0  0  0  0  0  0  0  0
    6.2670  -12.1530   26.1986 C   0  0  0  0  0  0  0  0  0  0  0  0
    6.9873  -11.8311   25.0728 C   0  0  0  0  0  0  0  0  0  0  0  0
    7.3280  -12.7873   24.1581 C   0  0  0  0  0  0  0  0  0  0  0  0
    9.2469  -16.0853   24.5066 C   0  0  0  0  0  0  0  0  0  0  0  0
    8.9864  -17.2817   24.7821 O   0  0  0  0  0  0  0  0  0  0  0  0
   12.2374  -15.1856   29.3048 C   0  0  0  0  0  0  0  0  0  0  0  0
   10.7532  -14.9985   29.0868 C   0  0  1  0  0  0  0  0  0  0  0  0
   10.3417  -13.8002   29.9533 C   0  0  0  0  0  0  0  0  0  0  0  0
   10.4180  -14.6377   27.6785 C   0  0  0  0  0  0  0  0  0  0  0  0
   10.3981  -15.8055   26.7292 C   0  0  2  0  0  0  0  0  0  0  0  0
    9.9961  -15.2910   25.4141 N   0  0  0  0  0  0  0  0  0  0  0  0
    9.5131  -16.8902   27.1646 C   0  0  0  0  0  0  0  0  0  0  0  0
    8.2702  -16.7227   27.2197 O   0  0  0  0  0  0  0  0  0  0  0  0
   10.0234  -18.1245   27.5254 O   0  0  0  0  0  0  0  0  0  0  0  0
  2  3  1  0
  2  1  1  6
  3  4  1  0
  4  5  2  0
  5  6  1  0
  7  6  1  0
  8  4  1  0
  8  7  2  0
  9 11  1  0
  9  2  1  0
 10  9  2  0
 12 11  1  0
 12 13  1  1
 13 14  1  0
 14 15  2  0
 14 19  1  0
 15 16  1  0
 16 17  2  0
 18 17  1  0
 19 18  2  0
 20 12  1  0
 21 20  2  0
 23 22  1  6
 23 25  1  0
 24 23  1  0
 26 25  1  1
 26 28  1  0
 26 27  1  0
 27 20  1  0
 28 30  1  0
 29 28  2  0
M  END
$$$$
