HFL.pdb
     RDKit          3D

 30 31  0  0  1  0  0  0  0  0999 V2000
    9.1123  -17.6466   21.0137 N   0  0  0  0  0  0  0  0  0  0  0  0
   10.1910  -16.7107   21.0501 C   0  0  1  0  0  0  0  0  0  0  0  0
   10.3220  -15.9506   19.7305 C   0  0  0  0  0  0  0  0  0  0  0  0
   10.0441  -16.9503   18.6573 C   0  0  0  0  0  0  0  0  0  0  0  0
    8.8354  -17.2782   18.0747 C   0  0  0  0  0  0  0  0  0  0  0  0
    8.9952  -18.2365   17.1340 N   0  0  0  0  0  0  0  0  0  0  0  0
   10.3098  -18.5119   17.1253 C   0  0  0  0  0  0  0  0  0  0  0  0
   10.9527  -17.7529   18.0292 N   0  0  0  0  0  0  0  0  0  0  0  0
   10.0068  -15.7830   22.1859 C   0  0  0  0  0  0  0  0  0  0  0  0
   10.8611  -14.8904   22.3993 O   0  0  0  0  0  0  0  0  0  0  0  0
    8.8671  -15.9154   23.0177 N   0  0  0  0  0  0  0  0  0  0  0  0
    8.6778  -15.0925   24.2245 C   0  0  1  0  0  0  0  0  0  0  0  0
    7.2543  -14.6564   24.2014 C   0  0  0  0  0  0  0  0  0  0  0  0
    6.9126  -13.4929   25.0126 C   0  0  0  0  0  0  0  0  0  0  0  0
    7.4841  -12.2696   24.7134 C   0  0  0  0  0  0  0  0  0  0  0  0
    7.1834  -11.1237   25.4584 C   0  0  0  0  0  0  0  0  0  0  0  0
    6.3122  -11.1807   26.5086 C   0  0  0  0  0  0  0  0  0  0  0  0
    5.7429  -12.3956   26.8082 C   0  0  0  0  0  0  0  0  0  0  0  0
    6.0399  -13.5113   26.0774 C   0  0  0  0  0  0  0  0  0  0  0  0
    8.9152  -15.9315   25.4176 C   0  0  0  0  0  0  0  0  0  0  0  0
    8.1368  -15.8513   26.3988 O   0  0  0  0  0  0  0  0  0  0  0  0
    9.1989  -14.5826   29.1565 C   0  0  0  0  0  0  0  0  0  0  0  0
    9.9192  -14.9416   27.8769 C   0  0  1  0  0  0  0  0  0  0  0  0
   11.2509  -14.1788   27.9076 C   0  0  0  0  0  0  0  0  0  0  0  0
   10.2632  -16.3910   27.7956 C   0  0  0  0  0  0  0  0  0  0  0  0
   11.0016  -16.7818   26.5437 C   0  0  2  0  0  0  0  0  0  0  0  0
   10.0188  -16.8240   25.4536 N   0  0  0  0  0  0  0  0  0  0  0  0
   11.7105  -18.0593   26.6648 C   0  0  0  0  0  0  0  0  0  0  0  0
   12.6414  -18.2016   27.4950 O   0  0  0  0  0  0  0  0  0  0  0  0
   11.3729  -19.1395   25.8690 O   0  0  0  0  0  0  0  0  0  0  0  0
  2  3  1  0
  2  1  1  6
  3  4  1  0
  4  5  2  0
  5  6  1  0
  7  6  1  0
  8  4  1  0
  8  7  2  0
  9 11  1  0
  9  2  1  0
 10  9  2  0
 12 11  1  0
 12 13  1  1
 13 14  1  0
 14 15  2  0
 14 19  1  0
 15 16  1  0
 16 17  2  0
 18 17  1  0
 19 18  2  0
 20 12  1  0
 21 20  2  0
 23 22  1  1
 23 25  1  0
 24 23  1  0
 26 25  1  1
 26 28  1  0
 26 27  1  0
 27 20  1  0
 28 30  1  0
 29 28  2  0
M  END
$$$$
