HFL.pdb
     RDKit          3D

 30 31  0  0  1  0  0  0  0  0999 V2000
   10.1419  -18.1833   19.1565 N   0  0  0  0  0  0  0  0  0  0  0  0
    9.9229  -18.5111   20.5296 C   0  0  1  0  0  0  0  0  0  0  0  0
   10.9350  -19.5408   21.0312 C   0  0  0  0  0  0  0  0  0  0  0  0
   10.5121  -20.8456   20.4422 C   0  0  0  0  0  0  0  0  0  0  0  0
    9.4169  -21.6235   20.7638 C   0  0  0  0  0  0  0  0  0  0  0  0
    9.3762  -22.7408   20.0031 N   0  0  0  0  0  0  0  0  0  0  0  0
   10.4503  -22.6648   19.2002 C   0  0  0  0  0  0  0  0  0  0  0  0
   11.1411  -21.5389   19.4483 N   0  0  0  0  0  0  0  0  0  0  0  0
    9.9616  -17.2805   21.3473 C   0  0  0  0  0  0  0  0  0  0  0  0
   10.8973  -16.4614   21.1870 O   0  0  0  0  0  0  0  0  0  0  0  0
    8.9405  -17.0436   22.3011 N   0  0  0  0  0  0  0  0  0  0  0  0
    8.9250  -15.8401   23.1500 C   0  0  1  0  0  0  0  0  0  0  0  0
    7.5035  -15.4003   23.2078 C   0  0  0  0  0  0  0  0  0  0  0  0
    7.2037  -14.2665   24.0755 C   0  0  0  0  0  0  0  0  0  0  0  0
    7.6276  -13.0029   23.7065 C   0  0  0  0  0  0  0  0  0  0  0  0
    7.3593  -11.8835   24.5023 C   0  0  0  0  0  0  0  0  0  0  0  0
    6.6673  -12.0072   25.6733 C   0  0  0  0  0  0  0  0  0  0  0  0
    6.2449  -13.2622   26.0424 C   0  0  0  0  0  0  0  0  0  0  0  0
    6.5095  -14.3518   25.2615 C   0  0  0  0  0  0  0  0  0  0  0  0
    9.3815  -16.2061   24.5070 C   0  0  0  0  0  0  0  0  0  0  0  0
    8.7551  -17.0757   25.1601 O   0  0  0  0  0  0  0  0  0  0  0  0
   11.0982  -14.1486   29.2336 C   0  0  0  0  0  0  0  0  0  0  0  0
    9.8186  -14.7112   28.6581 C   0  0  1  0  0  0  0  0  0  0  0  0
    8.6923  -13.7814   29.1305 C   0  0  0  0  0  0  0  0  0  0  0  0
    9.7948  -14.6814   27.1667 C   0  0  0  0  0  0  0  0  0  0  0  0
   10.7821  -15.6112   26.5141 C   0  0  2  0  0  0  0  0  0  0  0  0
   10.5233  -15.5769   25.0691 N   0  0  0  0  0  0  0  0  0  0  0  0
   10.7144  -16.9819   27.0298 C   0  0  0  0  0  0  0  0  0  0  0  0
   11.7392  -17.5508   27.4795 O   0  0  0  0  0  0  0  0  0  0  0  0
    9.5218  -17.6832   27.0345 O   0  0  0  0  0  0  0  0  0  0  0  0
  2  3  1  0
  2  1  1  6
  3  4  1  0
  4  5  2  0
  5  6  1  0
  7  6  1  0
  8  4  1  0
  8  7  2  0
  9 11  1  0
  9  2  1  0
 10  9  2  0
 12 11  1  0
 12 13  1  1
 13 14  1  0
 14 15  2  0
 14 19  1  0
 15 16  1  0
 16 17  2  0
 18 17  1  0
 19 18  2  0
 20 12  1  0
 21 20  2  0
 23 22  1  1
 23 25  1  0
 24 23  1  0
 26 25  1  1
 26 28  1  0
 26 27  1  0
 27 20  1  0
 28 30  1  0
 29 28  2  0
M  END
$$$$
