HFL.pdb
     RDKit          3D

 30 31  0  0  1  0  0  0  0  0999 V2000
    9.5966  -16.7096   19.2414 N   0  0  0  0  0  0  0  0  0  0  0  0
    8.6070  -16.8477   20.2624 C   0  0  1  0  0  0  0  0  0  0  0  0
    8.3483  -18.3154   20.6014 C   0  0  0  0  0  0  0  0  0  0  0  0
    7.5077  -18.8468   19.4880 C   0  0  0  0  0  0  0  0  0  0  0  0
    7.0317  -18.1841   18.3735 C   0  0  0  0  0  0  0  0  0  0  0  0
    6.3023  -19.0125   17.5921 N   0  0  0  0  0  0  0  0  0  0  0  0
    6.3200  -20.2007   18.2182 C   0  0  0  0  0  0  0  0  0  0  0  0
    7.0356  -20.1208   19.3531 N   0  0  0  0  0  0  0  0  0  0  0  0
    9.0186  -16.0864   21.4606 C   0  0  0  0  0  0  0  0  0  0  0  0
   10.2290  -16.0542   21.7864 O   0  0  0  0  0  0  0  0  0  0  0  0
    8.0395  -15.4035   22.2244 N   0  0  0  0  0  0  0  0  0  0  0  0
    8.3688  -14.7121   23.4825 C   0  0  1  0  0  0  0  0  0  0  0  0
    7.1622  -13.9151   23.8377 C   0  0  0  0  0  0  0  0  0  0  0  0
    7.1899  -13.2215   25.1209 C   0  0  0  0  0  0  0  0  0  0  0  0
    7.9764  -12.0927   25.2616 C   0  0  0  0  0  0  0  0  0  0  0  0
    8.0318  -11.3898   26.4704 C   0  0  0  0  0  0  0  0  0  0  0  0
    7.3067  -11.8007   27.5524 C   0  0  0  0  0  0  0  0  0  0  0  0
    6.5242  -12.9227   27.4152 C   0  0  0  0  0  0  0  0  0  0  0  0
    6.4739  -13.6051   26.2325 C   0  0  0  0  0  0  0  0  0  0  0  0
    8.6170  -15.7221   24.5324 C   0  0  0  0  0  0  0  0  0  0  0  0
    7.8252  -16.6864   24.6667 O   0  0  0  0  0  0  0  0  0  0  0  0
   13.4087  -18.7907   25.9441 C   0  0  0  0  0  0  0  0  0  0  0  0
   12.0880  -18.3208   26.5097 C   0  0  1  0  0  0  0  0  0  0  0  0
   12.3785  -17.8542   27.9429 C   0  0  0  0  0  0  0  0  0  0  0  0
   11.5368  -17.1399   25.7834 C   0  0  0  0  0  0  0  0  0  0  0  0
   10.1725  -16.7087   26.2502 C   0  0  2  0  0  0  0  0  0  0  0  0
    9.7458  -15.6017   25.3850 N   0  0  0  0  0  0  0  0  0  0  0  0
   10.1411  -16.3168   27.6626 C   0  0  0  0  0  0  0  0  0  0  0  0
   10.3834  -15.1341   28.0070 O   0  0  0  0  0  0  0  0  0  0  0  0
    9.8443  -17.2382   28.6510 O   0  0  0  0  0  0  0  0  0  0  0  0
  2  3  1  0
  2  1  1  6
  3  4  1  0
  4  5  2  0
  5  6  1  0
  7  6  1  0
  8  4  1  0
  8  7  2  0
  9 11  1  0
  9  2  1  0
 10  9  2  0
 12 11  1  0
 12 13  1  1
 13 14  1  0
 14 15  2  0
 14 19  1  0
 15 16  1  0
 16 17  2  0
 18 17  1  0
 19 18  2  0
 20 12  1  0
 21 20  2  0
 23 22  1  6
 23 25  1  0
 24 23  1  0
 26 25  1  6
 26 28  1  0
 26 27  1  0
 27 20  1  0
 28 30  1  0
 29 28  2  0
M  END
$$$$
