HFL.pdb
     RDKit          3D

 30 31  0  0  1  0  0  0  0  0999 V2000
   11.0554  -17.0915   19.3442 N   0  0  0  0  0  0  0  0  0  0  0  0
   10.2687  -17.6541   20.3956 C   0  0  1  0  0  0  0  0  0  0  0  0
   10.7902  -19.0279   20.8160 C   0  0  0  0  0  0  0  0  0  0  0  0
   10.5630  -19.9242   19.6440 C   0  0  0  0  0  0  0  0  0  0  0  0
    9.4750  -20.7304   19.3718 C   0  0  0  0  0  0  0  0  0  0  0  0
    9.6438  -21.3941   18.2057 N   0  0  0  0  0  0  0  0  0  0  0  0
   10.8427  -21.0034   17.7433 C   0  0  0  0  0  0  0  0  0  0  0  0
   11.4069  -20.1249   18.5896 N   0  0  0  0  0  0  0  0  0  0  0  0
   10.2311  -16.7222   21.5422 C   0  0  0  0  0  0  0  0  0  0  0  0
   11.2877  -16.1605   21.9167 O   0  0  0  0  0  0  0  0  0  0  0  0
    9.0013  -16.4766   22.2023 N   0  0  0  0  0  0  0  0  0  0  0  0
    8.8990  -15.5660   23.3554 C   0  0  1  0  0  0  0  0  0  0  0  0
    7.4701  -15.1524   23.4227 C   0  0  0  0  0  0  0  0  0  0  0  0
    7.1020  -14.2423   24.5019 C   0  0  0  0  0  0  0  0  0  0  0  0
    7.3991  -12.8970   24.3817 C   0  0  0  0  0  0  0  0  0  0  0  0
    7.0611  -11.9839   25.3869 C   0  0  0  0  0  0  0  0  0  0  0  0
    6.4246  -12.3974   26.5223 C   0  0  0  0  0  0  0  0  0  0  0  0
    6.1283  -13.7342   26.6444 C   0  0  0  0  0  0  0  0  0  0  0  0
    6.4606  -14.6213   25.6597 C   0  0  0  0  0  0  0  0  0  0  0  0
    9.2542  -16.3075   24.5834 C   0  0  0  0  0  0  0  0  0  0  0  0
    9.1057  -17.5531   24.6222 O   0  0  0  0  0  0  0  0  0  0  0  0
   10.1319  -14.3324   29.9707 C   0  0  0  0  0  0  0  0  0  0  0  0
    9.7417  -14.7926   28.5846 C   0  0  1  0  0  0  0  0  0  0  0  0
    9.2075  -13.5512   27.8567 C   0  0  0  0  0  0  0  0  0  0  0  0
   10.9061  -15.2810   27.7899 C   0  0  0  0  0  0  0  0  0  0  0  0
   10.5540  -16.3011   26.7407 C   0  0  2  0  0  0  0  0  0  0  0  0
    9.7609  -15.6138   25.7138 N   0  0  0  0  0  0  0  0  0  0  0  0
    9.8322  -17.4585   27.2781 C   0  0  0  0  0  0  0  0  0  0  0  0
    8.9493  -18.0374   26.5987 O   0  0  0  0  0  0  0  0  0  0  0  0
   10.1044  -17.9423   28.5453 O   0  0  0  0  0  0  0  0  0  0  0  0
  2  3  1  0
  2  1  1  6
  3  4  1  0
  4  5  2  0
  5  6  1  0
  7  6  1  0
  8  4  1  0
  8  7  2  0
  9 11  1  0
  9  2  1  0
 10  9  2  0
 12 11  1  0
 12 13  1  1
 13 14  1  0
 14 15  2  0
 14 19  1  0
 15 16  1  0
 16 17  2  0
 18 17  1  0
 19 18  2  0
 20 12  1  0
 21 20  2  0
 23 22  1  1
 23 25  1  0
 24 23  1  0
 26 25  1  1
 26 28  1  0
 26 27  1  0
 27 20  1  0
 28 30  1  0
 29 28  2  0
M  END
$$$$
