HFL.pdb
     RDKit          3D

 30 31  0  0  1  0  0  0  0  0999 V2000
   10.4024  -17.4331   19.0625 N   0  0  0  0  0  0  0  0  0  0  0  0
   10.4207  -17.8782   20.4198 C   0  0  1  0  0  0  0  0  0  0  0  0
   11.6471  -18.7420   20.7128 C   0  0  0  0  0  0  0  0  0  0  0  0
   11.4966  -19.9612   19.8647 C   0  0  0  0  0  0  0  0  0  0  0  0
   10.8834  -21.1591   20.1760 C   0  0  0  0  0  0  0  0  0  0  0  0
   10.9542  -22.0234   19.1383 N   0  0  0  0  0  0  0  0  0  0  0  0
   11.6146  -21.3660   18.1710 C   0  0  0  0  0  0  0  0  0  0  0  0
   11.9467  -20.1319   18.5871 N   0  0  0  0  0  0  0  0  0  0  0  0
   10.3581  -16.7127   21.3266 C   0  0  0  0  0  0  0  0  0  0  0  0
   11.2882  -15.8719   21.3172 O   0  0  0  0  0  0  0  0  0  0  0  0
    9.2476  -16.5619   22.1941 N   0  0  0  0  0  0  0  0  0  0  0  0
    9.1120  -15.4087   23.1003 C   0  0  1  0  0  0  0  0  0  0  0  0
    7.6548  -15.1092   23.1637 C   0  0  0  0  0  0  0  0  0  0  0  0
    7.2360  -14.0943   24.1245 C   0  0  0  0  0  0  0  0  0  0  0  0
    7.6326  -12.7827   23.9374 C   0  0  0  0  0  0  0  0  0  0  0  0
    7.2518  -11.7727   24.8281 C   0  0  0  0  0  0  0  0  0  0  0  0
    6.4732  -12.0548   25.9142 C   0  0  0  0  0  0  0  0  0  0  0  0
    6.0778  -13.3578   26.1025 C   0  0  0  0  0  0  0  0  0  0  0  0
    6.4524  -14.3400   25.2296 C   0  0  0  0  0  0  0  0  0  0  0  0
    9.5927  -15.7964   24.4429 C   0  0  0  0  0  0  0  0  0  0  0  0
    9.2675  -16.9099   24.9219 O   0  0  0  0  0  0  0  0  0  0  0  0
    9.2533  -14.8869   29.4649 C   0  0  0  0  0  0  0  0  0  0  0  0
   10.2990  -13.9966   28.8331 C   0  0  1  0  0  0  0  0  0  0  0  0
   11.6534  -14.6616   29.1149 C   0  0  0  0  0  0  0  0  0  0  0  0
   10.1675  -13.9157   27.3492 C   0  0  0  0  0  0  0  0  0  0  0  0
   10.6754  -15.1285   26.6167 C   0  0  2  0  0  0  0  0  0  0  0  0
   10.4184  -14.9132   25.1872 N   0  0  0  0  0  0  0  0  0  0  0  0
   10.0685  -16.3803   27.0793 C   0  0  0  0  0  0  0  0  0  0  0  0
   10.7088  -17.1721   27.8135 O   0  0  0  0  0  0  0  0  0  0  0  0
    8.7768  -16.7212   26.7196 O   0  0  0  0  0  0  0  0  0  0  0  0
  2  3  1  0
  2  1  1  6
  3  4  1  0
  4  5  2  0
  5  6  1  0
  7  6  1  0
  8  4  1  0
  8  7  2  0
  9 11  1  0
  9  2  1  0
 10  9  2  0
 12 11  1  0
 12 13  1  1
 13 14  1  0
 14 15  2  0
 14 19  1  0
 15 16  1  0
 16 17  2  0
 18 17  1  0
 19 18  2  0
 20 12  1  0
 21 20  2  0
 23 22  1  6
 23 25  1  0
 24 23  1  0
 26 25  1  1
 26 28  1  0
 26 27  1  0
 27 20  1  0
 28 30  1  0
 29 28  2  0
M  END
$$$$
