HFL.pdb
     RDKit          3D

 30 31  0  0  1  0  0  0  0  0999 V2000
   11.1702  -17.0336   19.8617 N   0  0  0  0  0  0  0  0  0  0  0  0
   10.2139  -17.5049   20.8126 C   0  0  1  0  0  0  0  0  0  0  0  0
   10.4808  -18.9572   21.2073 C   0  0  0  0  0  0  0  0  0  0  0  0
    9.9832  -19.7850   20.0691 C   0  0  0  0  0  0  0  0  0  0  0  0
    8.8374  -19.6177   19.3160 C   0  0  0  0  0  0  0  0  0  0  0  0
    8.7351  -20.5784   18.3698 N   0  0  0  0  0  0  0  0  0  0  0  0
    9.8211  -21.3527   18.5289 C   0  0  0  0  0  0  0  0  0  0  0  0
   10.5786  -20.8938   19.5398 N   0  0  0  0  0  0  0  0  0  0  0  0
   10.2119  -16.6203   21.9967 C   0  0  0  0  0  0  0  0  0  0  0  0
   11.3001  -16.1954   22.4522 O   0  0  0  0  0  0  0  0  0  0  0  0
    8.9801  -16.2648   22.6005 N   0  0  0  0  0  0  0  0  0  0  0  0
    8.9152  -15.4841   23.8477 C   0  0  1  0  0  0  0  0  0  0  0  0
    7.4799  -15.1357   24.0364 C   0  0  0  0  0  0  0  0  0  0  0  0
    7.1887  -14.0210   24.9316 C   0  0  0  0  0  0  0  0  0  0  0  0
    5.8792  -13.7781   25.3039 C   0  0  0  0  0  0  0  0  0  0  0  0
    5.5503  -12.7249   26.1647 C   0  0  0  0  0  0  0  0  0  0  0  0
    6.5186  -11.9016   26.6647 C   0  0  0  0  0  0  0  0  0  0  0  0
    7.8211  -12.1408   26.2960 C   0  0  0  0  0  0  0  0  0  0  0  0
    8.1366  -13.1707   25.4552 C   0  0  0  0  0  0  0  0  0  0  0  0
    9.3656  -16.3352   24.9687 C   0  0  0  0  0  0  0  0  0  0  0  0
    9.3552  -17.5840   24.8441 O   0  0  0  0  0  0  0  0  0  0  0  0
   10.4330  -13.3436   29.4099 C   0  0  0  0  0  0  0  0  0  0  0  0
   10.6480  -14.2413   28.2128 C   0  0  1  0  0  0  0  0  0  0  0  0
   12.1431  -14.1544   27.8765 C   0  0  0  0  0  0  0  0  0  0  0  0
   10.3631  -15.6755   28.5088 C   0  0  0  0  0  0  0  0  0  0  0  0
   10.3126  -16.5596   27.2918 C   0  0  2  0  0  0  0  0  0  0  0  0
    9.8079  -15.7429   26.1808 N   0  0  0  0  0  0  0  0  0  0  0  0
    9.4905  -17.7586   27.4812 C   0  0  0  0  0  0  0  0  0  0  0  0
    8.3304  -17.8242   27.0058 O   0  0  0  0  0  0  0  0  0  0  0  0
    9.9705  -18.8472   28.1873 O   0  0  0  0  0  0  0  0  0  0  0  0
  2  3  1  0
  2  1  1  6
  3  4  1  0
  4  5  2  0
  5  6  1  0
  7  6  1  0
  8  4  1  0
  8  7  2  0
  9 11  1  0
  9  2  1  0
 10  9  2  0
 12 11  1  0
 12 13  1  1
 13 14  1  0
 14 15  2  0
 14 19  1  0
 15 16  1  0
 16 17  2  0
 18 17  1  0
 19 18  2  0
 20 12  1  0
 21 20  2  0
 23 22  1  1
 23 25  1  0
 24 23  1  0
 26 25  1  1
 26 28  1  0
 26 27  1  0
 27 20  1  0
 28 30  1  0
 29 28  2  0
M  END
$$$$
