HFL.pdb
     RDKit          3D

 30 31  0  0  1  0  0  0  0  0999 V2000
   10.4861  -17.6303   18.9855 N   0  0  0  0  0  0  0  0  0  0  0  0
   10.1398  -18.1027   20.2884 C   0  0  1  0  0  0  0  0  0  0  0  0
   11.1098  -19.1799   20.7732 C   0  0  0  0  0  0  0  0  0  0  0  0
   10.7716  -20.4094   19.9970 C   0  0  0  0  0  0  0  0  0  0  0  0
    9.6978  -20.6321   19.1571 C   0  0  0  0  0  0  0  0  0  0  0  0
    9.7408  -21.8794   18.6364 N   0  0  0  0  0  0  0  0  0  0  0  0
   10.8460  -22.4428   19.1511 C   0  0  0  0  0  0  0  0  0  0  0  0
   11.4750  -21.5792   19.9666 N   0  0  0  0  0  0  0  0  0  0  0  0
   10.0871  -16.9664   21.2320 C   0  0  0  0  0  0  0  0  0  0  0  0
   11.0172  -16.1255   21.2391 O   0  0  0  0  0  0  0  0  0  0  0  0
    8.9859  -16.8431   22.1156 N   0  0  0  0  0  0  0  0  0  0  0  0
    8.8648  -15.7239   23.0654 C   0  0  1  0  0  0  0  0  0  0  0  0
    7.4078  -15.4355   23.1721 C   0  0  0  0  0  0  0  0  0  0  0  0
    7.0210  -14.3301   24.0419 C   0  0  0  0  0  0  0  0  0  0  0  0
    7.3510  -13.0372   23.6783 C   0  0  0  0  0  0  0  0  0  0  0  0
    6.9970  -11.9435   24.4763 C   0  0  0  0  0  0  0  0  0  0  0  0
    6.3117  -12.1222   25.6441 C   0  0  0  0  0  0  0  0  0  0  0  0
    5.9827  -13.4064   26.0080 C   0  0  0  0  0  0  0  0  0  0  0  0
    6.3308  -14.4707   25.2249 C   0  0  0  0  0  0  0  0  0  0  0  0
    9.3776  -16.1565   24.3822 C   0  0  0  0  0  0  0  0  0  0  0  0
    9.0171  -17.2607   24.8573 O   0  0  0  0  0  0  0  0  0  0  0  0
   11.7840  -14.6219   29.1842 C   0  0  0  0  0  0  0  0  0  0  0  0
   10.3204  -14.6654   28.8084 C   0  0  1  0  0  0  0  0  0  0  0  0
    9.6670  -13.4574   29.4941 C   0  0  0  0  0  0  0  0  0  0  0  0
   10.0956  -14.4936   27.3436 C   0  0  0  0  0  0  0  0  0  0  0  0
   10.6306  -15.6194   26.5000 C   0  0  2  0  0  0  0  0  0  0  0  0
   10.2738  -15.3267   25.1061 N   0  0  0  0  0  0  0  0  0  0  0  0
   10.1308  -16.9360   26.9074 C   0  0  0  0  0  0  0  0  0  0  0  0
   10.9050  -17.7937   27.3984 O   0  0  0  0  0  0  0  0  0  0  0  0
    8.7954  -17.2673   26.7617 O   0  0  0  0  0  0  0  0  0  0  0  0
  2  3  1  0
  2  1  1  6
  3  4  1  0
  4  5  2  0
  5  6  1  0
  7  6  1  0
  8  4  1  0
  8  7  2  0
  9 11  1  0
  9  2  1  0
 10  9  2  0
 12 11  1  0
 12 13  1  1
 13 14  1  0
 14 15  2  0
 14 19  1  0
 15 16  1  0
 16 17  2  0
 18 17  1  0
 19 18  2  0
 20 12  1  0
 21 20  2  0
 23 22  1  6
 23 25  1  0
 24 23  1  0
 26 25  1  1
 26 28  1  0
 26 27  1  0
 27 20  1  0
 28 30  1  0
 29 28  2  0
M  END
$$$$
