HFL.pdb
     RDKit          3D

 30 31  0  0  1  0  0  0  0  0999 V2000
    9.4783  -18.3369   20.9155 N   0  0  0  0  0  0  0  0  0  0  0  0
   10.6749  -17.5566   20.9196 C   0  0  1  0  0  0  0  0  0  0  0  0
   11.0935  -17.1599   19.5042 C   0  0  0  0  0  0  0  0  0  0  0  0
   11.4195  -18.4376   18.8044 C   0  0  0  0  0  0  0  0  0  0  0  0
   11.5774  -19.7002   19.3417 C   0  0  0  0  0  0  0  0  0  0  0  0
   11.8705  -20.6032   18.3786 N   0  0  0  0  0  0  0  0  0  0  0  0
   11.8969  -19.9051   17.2314 C   0  0  0  0  0  0  0  0  0  0  0  0
   11.6296  -18.6091   17.4663 N   0  0  0  0  0  0  0  0  0  0  0  0
   10.4899  -16.3664   21.7762 C   0  0  0  0  0  0  0  0  0  0  0  0
   11.4133  -15.5234   21.8704 O   0  0  0  0  0  0  0  0  0  0  0  0
    9.2714  -16.1947   22.4793 N   0  0  0  0  0  0  0  0  0  0  0  0
    9.0706  -15.0998   23.4437 C   0  0  1  0  0  0  0  0  0  0  0  0
    7.6156  -15.0967   23.7600 C   0  0  0  0  0  0  0  0  0  0  0  0
    7.1315  -14.0108   24.6054 C   0  0  0  0  0  0  0  0  0  0  0  0
    6.1770  -14.2795   25.5695 C   0  0  0  0  0  0  0  0  0  0  0  0
    5.6858  -13.2729   26.4084 C   0  0  0  0  0  0  0  0  0  0  0  0
    6.1372  -11.9885   26.2985 C   0  0  0  0  0  0  0  0  0  0  0  0
    7.0857  -11.7187   25.3408 C   0  0  0  0  0  0  0  0  0  0  0  0
    7.5620  -12.7055   24.5244 C   0  0  0  0  0  0  0  0  0  0  0  0
    9.8394  -15.3960   24.6705 C   0  0  0  0  0  0  0  0  0  0  0  0
   10.7515  -14.6154   25.0362 O   0  0  0  0  0  0  0  0  0  0  0  0
   10.8652  -13.7390   27.2783 C   0  0  0  0  0  0  0  0  0  0  0  0
   10.4660  -14.8028   28.2755 C   0  0  1  0  0  0  0  0  0  0  0  0
    9.7085  -14.0760   29.3954 C   0  0  0  0  0  0  0  0  0  0  0  0
    9.5185  -15.8032   27.7034 C   0  0  0  0  0  0  0  0  0  0  0  0
   10.1525  -16.7808   26.7509 C   0  0  2  0  0  0  0  0  0  0  0  0
    9.5475  -16.5584   25.4316 N   0  0  0  0  0  0  0  0  0  0  0  0
   10.0037  -18.1775   27.1710 C   0  0  0  0  0  0  0  0  0  0  0  0
    8.9437  -18.8089   26.9393 O   0  0  0  0  0  0  0  0  0  0  0  0
   11.0256  -18.8351   27.8324 O   0  0  0  0  0  0  0  0  0  0  0  0
  2  3  1  0
  2  1  1  6
  3  4  1  0
  4  5  2  0
  5  6  1  0
  7  6  1  0
  8  4  1  0
  8  7  2  0
  9 11  1  0
  9  2  1  0
 10  9  2  0
 12 11  1  0
 12 13  1  1
 13 14  1  0
 14 15  2  0
 14 19  1  0
 15 16  1  0
 16 17  2  0
 18 17  1  0
 19 18  2  0
 20 12  1  0
 21 20  2  0
 23 22  1  6
 23 25  1  0
 24 23  1  0
 26 25  1  1
 26 28  1  0
 26 27  1  0
 27 20  1  0
 28 30  1  0
 29 28  2  0
M  END
$$$$
