ECC.pdb
     RDKit          3D

 22 21  0  0  1  0  0  0  0  0999 V2000
    8.0509  -14.4974   19.9031 N   0  0  0  0  0  0  0  0  0  0  0  0
    8.1415  -15.5026   20.9209 C   0  0  1  0  0  0  0  0  0  0  0  0
    9.1030  -16.6080   20.6677 C   0  0  0  0  0  0  0  0  0  0  0  0
   10.5212  -16.3906   21.0141 C   0  0  0  0  0  0  0  0  0  0  0  0
   11.4553  -17.4968   20.7808 C   0  0  0  0  0  0  0  0  0  0  0  0
   12.6680  -17.3969   21.0408 O   0  0  0  0  0  0  0  0  0  0  0  0
    8.3913  -14.8216   22.2232 C   0  0  0  0  0  0  0  0  0  0  0  0
    9.1964  -13.8610   22.2642 O   0  0  0  0  0  0  0  0  0  0  0  0
   11.0320  -18.7244   20.2532 O   0  0  0  0  0  0  0  0  0  0  0  0
    7.7689  -15.1970   23.4260 N   0  0  0  0  0  0  0  0  0  0  0  0
    7.8856  -14.4392   24.6813 C   0  0  1  0  0  0  0  0  0  0  0  0
    6.5310  -14.6569   25.3630 C   0  0  0  0  0  0  0  0  0  0  0  0
    6.3169  -13.6921   26.8523 S   0  0  0  0  0  0  0  0  0  0  0  0
    8.9229  -15.0174   25.5492 C   0  0  0  0  0  0  0  0  0  0  0  0
    9.2851  -16.2156   25.3124 O   0  0  0  0  0  0  0  0  0  0  0  0
    9.5633  -14.3803   26.6217 N   0  0  0  0  0  0  0  0  0  0  0  0
   10.5951  -15.0063   27.4373 C   0  0  1  0  0  0  0  0  0  0  0  0
   11.0743  -14.0617   28.5324 C   0  0  0  0  0  0  0  0  0  0  0  0
    9.6877  -13.0435   29.0742 S   0  0  0  0  0  0  0  0  0  0  0  0
    9.9639  -16.1725   28.1101 C   0  0  0  0  0  0  0  0  0  0  0  0
    8.6128  -16.4617   27.9948 O   0  0  0  0  0  0  0  0  0  0  0  0
   10.6670  -16.9277   28.8082 O   0  0  0  0  0  0  0  0  0  0  0  0
  2  1  1  6
  2  3  1  0
  3  4  1  0
  4  5  1  0
  5  9  1  0
  6  5  2  0
  7  2  1  0
  8  7  2  0
 10  7  1  0
 11 10  1  0
 11 14  1  0
 11 12  1  1
 13 12  1  0
 14 15  2  0
 14 16  1  0
 16 17  1  0
 17 20  1  0
 17 18  1  1
 19 18  1  0
 20 22  2  0
 20 21  1  0
M  END
$$$$
