ECC.pdb
     RDKit          3D

 22 21  0  0  1  0  0  0  0  0999 V2000
    8.5703  -17.9023   21.0549 N   0  0  0  0  0  0  0  0  0  0  0  0
    9.8714  -17.3038   21.1142 C   0  0  1  0  0  0  0  0  0  0  0  0
   10.4359  -16.8316   19.8224 C   0  0  0  0  0  0  0  0  0  0  0  0
   10.0095  -17.5141   18.5850 C   0  0  0  0  0  0  0  0  0  0  0  0
   11.0572  -18.0149   17.6893 C   0  0  0  0  0  0  0  0  0  0  0  0
   11.2212  -19.2319   17.4880 O   0  0  0  0  0  0  0  0  0  0  0  0
    9.8396  -16.2281   22.1456 C   0  0  0  0  0  0  0  0  0  0  0  0
   10.8228  -15.4570   22.2528 O   0  0  0  0  0  0  0  0  0  0  0  0
   11.9285  -17.1503   17.0130 O   0  0  0  0  0  0  0  0  0  0  0  0
    8.7571  -16.0227   23.0181 N   0  0  0  0  0  0  0  0  0  0  0  0
    8.6608  -14.8917   23.9536 C   0  0  1  0  0  0  0  0  0  0  0  0
    7.1596  -14.7858   24.2404 C   0  0  0  0  0  0  0  0  0  0  0  0
    6.7408  -13.4780   25.3845 S   0  0  0  0  0  0  0  0  0  0  0  0
    9.3394  -15.1998   25.2217 C   0  0  0  0  0  0  0  0  0  0  0  0
    9.3468  -16.4153   25.6029 O   0  0  0  0  0  0  0  0  0  0  0  0
    9.9878  -14.2855   26.0643 N   0  0  0  0  0  0  0  0  0  0  0  0
   10.5976  -14.6473   27.3366 C   0  0  1  0  0  0  0  0  0  0  0  0
   10.4302  -13.5312   28.3600 C   0  0  0  0  0  0  0  0  0  0  0  0
   11.1203  -14.0744   29.9354 S   0  0  0  0  0  0  0  0  0  0  0  0
    9.8539  -15.8280   27.8506 C   0  0  0  0  0  0  0  0  0  0  0  0
   10.4903  -16.9435   28.3731 O   0  0  0  0  0  0  0  0  0  0  0  0
    8.6087  -15.8268   27.8157 O   0  0  0  0  0  0  0  0  0  0  0  0
  2  1  1  6
  2  3  1  0
  3  4  1  0
  4  5  1  0
  5  9  1  0
  6  5  2  0
  7  2  1  0
  8  7  2  0
 10  7  1  0
 11 10  1  0
 11 14  1  0
 11 12  1  1
 13 12  1  0
 14 15  2  0
 14 16  1  0
 16 17  1  0
 17 20  1  0
 17 18  1  1
 19 18  1  0
 20 22  2  0
 20 21  1  0
M  END
$$$$
