ECC.pdb
     RDKit          3D

 22 21  0  0  1  0  0  0  0  0999 V2000
    6.5236  -16.1452   21.9249 N   0  0  0  0  0  0  0  0  0  0  0  0
    7.9499  -16.1357   21.7821 C   0  0  1  0  0  0  0  0  0  0  0  0
    8.4721  -15.7868   20.4345 C   0  0  0  0  0  0  0  0  0  0  0  0
    9.9331  -15.8121   20.2257 C   0  0  0  0  0  0  0  0  0  0  0  0
   10.5040  -16.9859   19.5571 C   0  0  0  0  0  0  0  0  0  0  0  0
   11.2657  -16.8776   18.5792 O   0  0  0  0  0  0  0  0  0  0  0  0
    8.5165  -15.2661   22.8520 C   0  0  0  0  0  0  0  0  0  0  0  0
    9.7619  -15.1721   22.9654 O   0  0  0  0  0  0  0  0  0  0  0  0
   10.2223  -18.2909   19.9839 O   0  0  0  0  0  0  0  0  0  0  0  0
    7.7267  -14.5337   23.7547 N   0  0  0  0  0  0  0  0  0  0  0  0
    8.2745  -13.7195   24.8504 C   0  0  1  0  0  0  0  0  0  0  0  0
    7.0971  -12.8316   25.2655 C   0  0  0  0  0  0  0  0  0  0  0  0
    5.9187  -13.6566   26.3262 S   0  0  0  0  0  0  0  0  0  0  0  0
    8.6302  -14.5612   26.0031 C   0  0  0  0  0  0  0  0  0  0  0  0
    7.8665  -15.5457   26.2684 O   0  0  0  0  0  0  0  0  0  0  0  0
    9.7352  -14.3924   26.8497 N   0  0  0  0  0  0  0  0  0  0  0  0
   10.0429  -15.2752   27.9666 C   0  0  1  0  0  0  0  0  0  0  0  0
   11.4859  -15.7591   27.8995 C   0  0  0  0  0  0  0  0  0  0  0  0
   11.7358  -16.6386   26.3448 S   0  0  0  0  0  0  0  0  0  0  0  0
    9.9099  -14.4644   29.2060 C   0  0  0  0  0  0  0  0  0  0  0  0
    9.6276  -13.1071   29.1852 O   0  0  0  0  0  0  0  0  0  0  0  0
   10.0558  -15.0155   30.3137 O   0  0  0  0  0  0  0  0  0  0  0  0
  2  1  1  6
  2  3  1  0
  3  4  1  0
  4  5  1  0
  5  9  1  0
  6  5  2  0
  7  2  1  0
  8  7  2  0
 10  7  1  0
 11 10  1  0
 11 14  1  0
 11 12  1  1
 13 12  1  0
 14 15  2  0
 14 16  1  0
 16 17  1  0
 17 20  1  0
 17 18  1  6
 19 18  1  0
 20 22  2  0
 20 21  1  0
M  END
$$$$
