ECC.pdb
     RDKit          3D

 22 21  0  0  1  0  0  0  0  0999 V2000
   10.2391  -18.0112   17.2660 N   0  0  0  0  0  0  0  0  0  0  0  0
   11.3196  -18.3445   18.1470 C   0  0  1  0  0  0  0  0  0  0  0  0
   12.5795  -18.7951   17.4988 C   0  0  0  0  0  0  0  0  0  0  0  0
   12.5636  -20.0716   16.7578 C   0  0  0  0  0  0  0  0  0  0  0  0
   13.8126  -20.5046   16.1229 C   0  0  0  0  0  0  0  0  0  0  0  0
   14.7432  -21.0050   16.7801 O   0  0  0  0  0  0  0  0  0  0  0  0
   11.5370  -17.1936   19.0690 C   0  0  0  0  0  0  0  0  0  0  0  0
   11.0482  -16.0766   18.7756 O   0  0  0  0  0  0  0  0  0  0  0  0
   14.0243  -20.3780   14.7432 O   0  0  0  0  0  0  0  0  0  0  0  0
   12.2677  -17.2867   20.2659 N   0  0  0  0  0  0  0  0  0  0  0  0
   12.4457  -16.1705   21.2072 C   0  0  1  0  0  0  0  0  0  0  0  0
   11.0290  -15.9051   21.7263 C   0  0  0  0  0  0  0  0  0  0  0  0
   10.2966  -17.3089   22.5555 S   0  0  0  0  0  0  0  0  0  0  0  0
   13.2746  -16.5765   22.3525 C   0  0  0  0  0  0  0  0  0  0  0  0
   13.1788  -17.7840   22.7473 O   0  0  0  0  0  0  0  0  0  0  0  0
   14.1706  -15.7649   23.0629 N   0  0  0  0  0  0  0  0  0  0  0  0
   15.2714  -16.2815   23.8647 C   0  0  1  0  0  0  0  0  0  0  0  0
   16.4881  -15.3689   23.7755 C   0  0  0  0  0  0  0  0  0  0  0  0
   16.9126  -15.1288   22.0391 S   0  0  0  0  0  0  0  0  0  0  0  0
   14.8166  -16.2681   25.2804 C   0  0  0  0  0  0  0  0  0  0  0  0
   15.5878  -16.7682   26.3186 O   0  0  0  0  0  0  0  0  0  0  0  0
   13.6997  -15.7910   25.5576 O   0  0  0  0  0  0  0  0  0  0  0  0
  2  1  1  6
  2  3  1  0
  3  4  1  0
  4  5  1  0
  5  9  1  0
  6  5  2  0
  7  2  1  0
  8  7  2  0
 10  7  1  0
 11 10  1  0
 11 14  1  0
 11 12  1  1
 13 12  1  0
 14 15  2  0
 14 16  1  0
 16 17  1  0
 17 20  1  0
 17 18  1  1
 19 18  1  0
 20 22  2  0
 20 21  1  0
M  END
$$$$
