ECC.pdb
     RDKit          3D

 22 21  0  0  1  0  0  0  0  0999 V2000
   10.6782  -16.6480   20.9355 N   0  0  0  0  0  0  0  0  0  0  0  0
    9.3673  -16.1737   20.6024 C   0  0  1  0  0  0  0  0  0  0  0  0
    8.6992  -16.8429   19.4552 C   0  0  0  0  0  0  0  0  0  0  0  0
    9.4902  -17.0843   18.2326 C   0  0  0  0  0  0  0  0  0  0  0  0
    8.8815  -17.9038   17.1798 C   0  0  0  0  0  0  0  0  0  0  0  0
    7.7568  -18.4181   17.3170 O   0  0  0  0  0  0  0  0  0  0  0  0
    8.5357  -16.2047   21.8391 C   0  0  0  0  0  0  0  0  0  0  0  0
    7.3119  -15.9430   21.7576 O   0  0  0  0  0  0  0  0  0  0  0  0
    9.5337  -18.1511   15.9641 O   0  0  0  0  0  0  0  0  0  0  0  0
    9.0485  -16.5149   23.1103 N   0  0  0  0  0  0  0  0  0  0  0  0
    8.2636  -16.4400   24.3521 C   0  0  1  0  0  0  0  0  0  0  0  0
    8.7109  -17.6766   25.1383 C   0  0  0  0  0  0  0  0  0  0  0  0
    8.1063  -19.2143   24.4569 S   0  0  0  0  0  0  0  0  0  0  0  0
    8.6332  -15.2517   25.1362 C   0  0  0  0  0  0  0  0  0  0  0  0
    9.8624  -14.9173   25.1504 O   0  0  0  0  0  0  0  0  0  0  0  0
    7.7643  -14.4381   25.8773 N   0  0  0  0  0  0  0  0  0  0  0  0
    8.2077  -13.3402   26.7255 C   0  0  1  0  0  0  0  0  0  0  0  0
    7.0350  -12.4585   27.1361 C   0  0  0  0  0  0  0  0  0  0  0  0
    5.9923  -12.1640   25.6942 S   0  0  0  0  0  0  0  0  0  0  0  0
    8.7540  -13.9488   27.9674 C   0  0  0  0  0  0  0  0  0  0  0  0
    9.4217  -13.2094   28.9317 O   0  0  0  0  0  0  0  0  0  0  0  0
    8.6124  -15.1713   28.1608 O   0  0  0  0  0  0  0  0  0  0  0  0
  2  1  1  1
  2  3  1  0
  3  4  1  0
  4  5  1  0
  5  9  1  0
  6  5  2  0
  7  2  1  0
  8  7  2  0
 10  7  1  0
 11 10  1  0
 11 14  1  0
 11 12  1  1
 13 12  1  0
 14 15  2  0
 14 16  1  0
 16 17  1  0
 17 20  1  0
 17 18  1  1
 19 18  1  0
 20 22  2  0
 20 21  1  0
M  END
$$$$
