ECC.pdb
     RDKit          3D

 22 21  0  0  1  0  0  0  0  0999 V2000
    9.2795  -18.3337   20.4969 N   0  0  0  0  0  0  0  0  0  0  0  0
   10.5704  -17.7409   20.6883 C   0  0  1  0  0  0  0  0  0  0  0  0
   11.3391  -17.4298   19.4543 C   0  0  0  0  0  0  0  0  0  0  0  0
   11.9434  -18.5514   18.7089 C   0  0  0  0  0  0  0  0  0  0  0  0
   13.3694  -18.4587   18.3793 C   0  0  0  0  0  0  0  0  0  0  0  0
   14.2205  -19.1693   18.9441 O   0  0  0  0  0  0  0  0  0  0  0  0
   10.4068  -16.5496   21.5693 C   0  0  0  0  0  0  0  0  0  0  0  0
   11.4291  -15.9666   22.0024 O   0  0  0  0  0  0  0  0  0  0  0  0
   13.8489  -17.5656   17.4113 O   0  0  0  0  0  0  0  0  0  0  0  0
    9.1564  -16.0325   21.9490 N   0  0  0  0  0  0  0  0  0  0  0  0
    8.9839  -14.8704   22.8341 C   0  0  1  0  0  0  0  0  0  0  0  0
    7.5186  -14.4731   22.6287 C   0  0  0  0  0  0  0  0  0  0  0  0
    6.9189  -14.7834   20.9738 S   0  0  0  0  0  0  0  0  0  0  0  0
    9.1513  -15.2546   24.2440 C   0  0  0  0  0  0  0  0  0  0  0  0
    8.3735  -14.7139   25.0958 O   0  0  0  0  0  0  0  0  0  0  0  0
   10.0872  -16.1654   24.7547 N   0  0  0  0  0  0  0  0  0  0  0  0
   10.1582  -16.5543   26.1566 C   0  0  1  0  0  0  0  0  0  0  0  0
    8.9237  -17.3473   26.5671 C   0  0  0  0  0  0  0  0  0  0  0  0
    9.1740  -17.9991   28.2300 S   0  0  0  0  0  0  0  0  0  0  0  0
   11.3277  -17.4625   26.2932 C   0  0  0  0  0  0  0  0  0  0  0  0
   11.9809  -18.0105   25.1998 O   0  0  0  0  0  0  0  0  0  0  0  0
   11.7468  -17.7501   27.4305 O   0  0  0  0  0  0  0  0  0  0  0  0
  2  1  1  6
  2  3  1  0
  3  4  1  0
  4  5  1  0
  5  9  1  0
  6  5  2  0
  7  2  1  0
  8  7  2  0
 10  7  1  0
 11 10  1  0
 11 14  1  0
 11 12  1  1
 13 12  1  0
 14 15  2  0
 14 16  1  0
 16 17  1  0
 17 20  1  0
 17 18  1  6
 19 18  1  0
 20 22  2  0
 20 21  1  0
M  END
$$$$
