ECC.pdb
     RDKit          3D

 22 21  0  0  1  0  0  0  0  0999 V2000
   10.8193  -17.0716   18.7546 N   0  0  0  0  0  0  0  0  0  0  0  0
   11.3389  -16.4639   19.9442 C   0  0  1  0  0  0  0  0  0  0  0  0
   12.3194  -15.3642   19.7448 C   0  0  0  0  0  0  0  0  0  0  0  0
   13.7138  -15.7245   19.4216 C   0  0  0  0  0  0  0  0  0  0  0  0
   14.6791  -14.6318   19.2636 C   0  0  0  0  0  0  0  0  0  0  0  0
   14.7476  -13.9638   18.2160 O   0  0  0  0  0  0  0  0  0  0  0  0
   10.1862  -16.0482   20.7932 C   0  0  0  0  0  0  0  0  0  0  0  0
    9.2403  -15.4137   20.2685 O   0  0  0  0  0  0  0  0  0  0  0  0
   15.5748  -14.2821   20.2832 O   0  0  0  0  0  0  0  0  0  0  0  0
   10.0945  -16.3293   22.1671 N   0  0  0  0  0  0  0  0  0  0  0  0
    8.9951  -15.8660   23.0275 C   0  0  1  0  0  0  0  0  0  0  0  0
    8.1577  -17.1283   23.2564 C   0  0  0  0  0  0  0  0  0  0  0  0
    9.1030  -18.5093   23.8838 S   0  0  0  0  0  0  0  0  0  0  0  0
    9.5028  -15.4211   24.3344 C   0  0  0  0  0  0  0  0  0  0  0  0
   10.7115  -15.7034   24.6212 O   0  0  0  0  0  0  0  0  0  0  0  0
    8.7880  -14.7095   25.3085 N   0  0  0  0  0  0  0  0  0  0  0  0
    9.3175  -14.3835   26.6256 C   0  0  1  0  0  0  0  0  0  0  0  0
    8.4139  -13.3922   27.3481 C   0  0  0  0  0  0  0  0  0  0  0  0
    8.2687  -11.8978   26.3488 S   0  0  0  0  0  0  0  0  0  0  0  0
    9.3084  -15.6421   27.4174 C   0  0  0  0  0  0  0  0  0  0  0  0
    9.8344  -15.7245   28.6976 O   0  0  0  0  0  0  0  0  0  0  0  0
    8.8107  -16.6708   26.9213 O   0  0  0  0  0  0  0  0  0  0  0  0
  2  1  1  6
  2  3  1  0
  3  4  1  0
  4  5  1  0
  5  9  1  0
  6  5  2  0
  7  2  1  0
  8  7  2  0
 10  7  1  0
 11 10  1  0
 11 14  1  0
 11 12  1  1
 13 12  1  0
 14 15  2  0
 14 16  1  0
 16 17  1  0
 17 20  1  0
 17 18  1  1
 19 18  1  0
 20 22  2  0
 20 21  1  0
M  END
$$$$
