ECC.pdb
     RDKit          3D

 22 21  0  0  1  0  0  0  0  0999 V2000
    6.7488  -18.6526   17.7909 N   0  0  0  0  0  0  0  0  0  0  0  0
    8.1673  -18.4738   17.6879 C   0  0  1  0  0  0  0  0  0  0  0  0
    8.6770  -18.0179   16.3678 C   0  0  0  0  0  0  0  0  0  0  0  0
    7.9124  -16.9819   15.6459 C   0  0  0  0  0  0  0  0  0  0  0  0
    8.4801  -16.4650   14.3964 C   0  0  0  0  0  0  0  0  0  0  0  0
    9.5734  -16.8657   13.9578 O   0  0  0  0  0  0  0  0  0  0  0  0
    8.6039  -17.5845   18.8017 C   0  0  0  0  0  0  0  0  0  0  0  0
    9.8298  -17.4487   19.0286 O   0  0  0  0  0  0  0  0  0  0  0  0
    7.8218  -15.4931   13.6306 O   0  0  0  0  0  0  0  0  0  0  0  0
    7.7106  -16.8780   19.6251 N   0  0  0  0  0  0  0  0  0  0  0  0
    8.1316  -15.9797   20.7110 C   0  0  1  0  0  0  0  0  0  0  0  0
    6.8089  -15.4780   21.2993 C   0  0  0  0  0  0  0  0  0  0  0  0
    7.0067  -14.5462   22.8115 S   0  0  0  0  0  0  0  0  0  0  0  0
    8.8376  -16.7244   21.7648 C   0  0  0  0  0  0  0  0  0  0  0  0
    8.5697  -17.9639   21.8872 O   0  0  0  0  0  0  0  0  0  0  0  0
    9.7867  -16.2077   22.6583 N   0  0  0  0  0  0  0  0  0  0  0  0
   10.4079  -16.9865   23.7209 C   0  0  1  0  0  0  0  0  0  0  0  0
   11.7583  -17.5357   23.2782 C   0  0  0  0  0  0  0  0  0  0  0  0
   12.7216  -16.1983   22.5457 S   0  0  0  0  0  0  0  0  0  0  0  0
   10.6637  -16.0507   24.8478 C   0  0  0  0  0  0  0  0  0  0  0  0
   11.1979  -16.4657   26.0582 O   0  0  0  0  0  0  0  0  0  0  0  0
   10.3914  -14.8428   24.7112 O   0  0  0  0  0  0  0  0  0  0  0  0
  2  1  1  6
  2  3  1  0
  3  4  1  0
  4  5  1  0
  5  9  1  0
  6  5  2  0
  7  2  1  0
  8  7  2  0
 10  7  1  0
 11 10  1  0
 11 14  1  0
 11 12  1  1
 13 12  1  0
 14 15  2  0
 14 16  1  0
 16 17  1  0
 17 20  1  0
 17 18  1  6
 19 18  1  0
 20 22  2  0
 20 21  1  0
M  END
$$$$
