HFK.pdb
     RDKit          3D

 31 32  0  0  1  0  0  0  0  0999 V2000
   28.2260  -21.2833  -17.2800 N   0  0  0  0  0  0  0  0  0  0  0  0
   26.7846  -21.2962  -17.2294 C   0  0  1  0  0  0  0  0  0  0  0  0
   26.2905  -22.2150  -18.3128 C   0  0  0  0  0  0  0  0  0  0  0  0
   26.9120  -21.7959  -19.5895 C   0  0  0  0  0  0  0  0  0  0  0  0
   26.5068  -20.7288  -20.3599 C   0  0  0  0  0  0  0  0  0  0  0  0
   27.2841  -20.6257  -21.4530 N   0  0  0  0  0  0  0  0  0  0  0  0
   28.1773  -21.6167  -21.3824 C   0  0  0  0  0  0  0  0  0  0  0  0
   27.9527  -22.3344  -20.2440 N   0  0  0  0  0  0  0  0  0  0  0  0
   26.2651  -21.6447  -15.8901 C   0  0  0  0  0  0  0  0  0  0  0  0
   25.2474  -22.3785  -15.8185 O   0  0  0  0  0  0  0  0  0  0  0  0
   26.8323  -21.2105  -14.6707 N   0  0  0  0  0  0  0  0  0  0  0  0
   26.2343  -21.3043  -13.3846 C   0  0  1  0  0  0  0  0  0  0  0  0
   27.0906  -20.8456  -12.2525 C   0  0  0  0  0  0  0  0  0  0  0  0
   26.4253  -20.8120  -10.9523 C   0  0  0  0  0  0  0  0  0  0  0  0
   26.1785  -21.9183  -10.1684 C   0  0  0  0  0  0  0  0  0  0  0  0
   25.5449  -21.8307   -8.9451 C   0  0  0  0  0  0  0  0  0  0  0  0
   25.1349  -20.6006   -8.4696 C   0  0  0  0  0  0  0  0  0  0  0  0
   25.3760  -19.4653   -9.2501 C   0  0  0  0  0  0  0  0  0  0  0  0
   26.0082  -19.5917  -10.4604 C   0  0  0  0  0  0  0  0  0  0  0  0
   24.9118  -20.5858  -13.4270 C   0  0  0  0  0  0  0  0  0  0  0  0
   24.8758  -19.3780  -13.7699 O   0  0  0  0  0  0  0  0  0  0  0  0
   23.7065  -21.2347  -13.0909 N   0  0  0  0  0  0  0  0  0  0  0  0
   22.3880  -20.6377  -13.0391 C   0  0  1  0  0  0  0  0  0  0  0  0
   21.5610  -20.9471  -14.2235 C   0  0  0  0  0  0  0  0  0  0  0  0
   20.1911  -20.3951  -14.2775 C   0  0  0  0  0  0  0  0  0  0  0  0
   19.4058  -20.7676  -15.5058 C   0  0  0  0  0  0  0  0  0  0  0  0
   18.0683  -20.0592  -15.5665 C   0  0  0  0  0  0  0  0  0  0  0  0
   17.3964  -20.5206  -16.7700 N   0  0  0  0  0  0  0  0  0  0  0  0
   21.7221  -20.8013  -11.7247 C   0  0  0  0  0  0  0  0  0  0  0  0
   21.7098  -21.8866  -11.1017 O   0  0  0  0  0  0  0  0  0  0  0  0
   21.0745  -19.7458  -11.1178 O   0  0  0  0  0  0  0  0  0  0  0  0
  2  1  1  1
  2  3  1  0
  3  4  1  0
  4  5  2  0
  6  5  1  0
  7  6  1  0
  8  7  2  0
  8  4  1  0
  9  2  1  0
 10  9  2  0
 11  9  1  0
 12 13  1  1
 12 11  1  0
 13 14  1  0
 14 15  2  0
 15 16  1  0
 17 16  2  0
 18 17  1  0
 19 18  2  0
 19 14  1  0
 20 22  1  0
 20 12  1  0
 21 20  2  0
 23 24  1  6
 23 22  1  0
 25 24  1  0
 26 27  1  0
 26 25  1  0
 27 28  1  0
 29 23  1  0
 29 31  1  0
 30 29  2  0
M  END
$$$$
