HFK.pdb
     RDKit          3D

 31 32  0  0  1  0  0  0  0  0999 V2000
   23.8108  -19.0426  -18.7982 N   0  0  0  0  0  0  0  0  0  0  0  0
   22.9865  -18.3431  -17.8435 C   0  0  1  0  0  0  0  0  0  0  0  0
   21.7454  -17.8781  -18.5545 C   0  0  0  0  0  0  0  0  0  0  0  0
   22.1162  -16.7456  -19.4329 C   0  0  0  0  0  0  0  0  0  0  0  0
   22.3033  -16.8225  -20.7951 C   0  0  0  0  0  0  0  0  0  0  0  0
   22.6323  -15.6141  -21.2860 N   0  0  0  0  0  0  0  0  0  0  0  0
   22.6554  -14.7728  -20.2484 C   0  0  0  0  0  0  0  0  0  0  0  0
   22.3403  -15.4614  -19.1135 N   0  0  0  0  0  0  0  0  0  0  0  0
   22.6985  -19.1516  -16.6399 C   0  0  0  0  0  0  0  0  0  0  0  0
   22.6066  -20.3984  -16.7681 O   0  0  0  0  0  0  0  0  0  0  0  0
   22.5166  -18.6232  -15.3419 N   0  0  0  0  0  0  0  0  0  0  0  0
   22.2894  -19.3700  -14.1541 C   0  0  1  0  0  0  0  0  0  0  0  0
   22.8468  -18.7661  -12.9092 C   0  0  0  0  0  0  0  0  0  0  0  0
   22.5931  -19.5280  -11.6888 C   0  0  0  0  0  0  0  0  0  0  0  0
   23.4084  -20.5280  -11.2046 C   0  0  0  0  0  0  0  0  0  0  0  0
   23.1217  -21.2180  -10.0438 C   0  0  0  0  0  0  0  0  0  0  0  0
   21.9823  -20.9122   -9.3256 C   0  0  0  0  0  0  0  0  0  0  0  0
   21.1416  -19.9002   -9.8003 C   0  0  0  0  0  0  0  0  0  0  0  0
   21.4594  -19.2367  -10.9575 C   0  0  0  0  0  0  0  0  0  0  0  0
   20.8124  -19.6418  -14.0445 C   0  0  0  0  0  0  0  0  0  0  0  0
   20.0028  -18.6826  -14.0919 O   0  0  0  0  0  0  0  0  0  0  0  0
   20.3106  -20.9497  -13.8895 N   0  0  0  0  0  0  0  0  0  0  0  0
   18.9342  -21.3241  -13.6388 C   0  0  1  0  0  0  0  0  0  0  0  0
   18.3899  -22.2549  -14.6486 C   0  0  0  0  0  0  0  0  0  0  0  0
   18.0254  -21.7079  -15.9723 C   0  0  0  0  0  0  0  0  0  0  0  0
   17.5057  -22.7215  -16.9555 C   0  0  0  0  0  0  0  0  0  0  0  0
   17.1518  -22.0962  -18.2890 C   0  0  0  0  0  0  0  0  0  0  0  0
   16.5541  -23.1409  -19.1039 N   0  0  0  0  0  0  0  0  0  0  0  0
   18.6724  -21.6798  -12.2236 C   0  0  0  0  0  0  0  0  0  0  0  0
   19.1714  -22.6877  -11.6749 O   0  0  0  0  0  0  0  0  0  0  0  0
   17.8526  -20.9019  -11.4333 O   0  0  0  0  0  0  0  0  0  0  0  0
  2  1  1  6
  2  3  1  0
  3  4  1  0
  4  5  2  0
  6  5  1  0
  7  6  1  0
  8  7  2  0
  8  4  1  0
  9  2  1  0
 10  9  2  0
 11  9  1  0
 12 13  1  1
 12 11  1  0
 13 14  1  0
 14 15  2  0
 15 16  1  0
 17 16  2  0
 18 17  1  0
 19 18  2  0
 19 14  1  0
 20 22  1  0
 20 12  1  0
 21 20  2  0
 23 24  1  6
 23 22  1  0
 25 24  1  0
 26 27  1  0
 26 25  1  0
 27 28  1  0
 29 23  1  0
 29 31  1  0
 30 29  2  0
M  END
$$$$
