HFK.pdb
     RDKit          3D

 31 32  0  0  1  0  0  0  0  0999 V2000
   22.5422  -11.9996  -17.5798 N   0  0  0  0  0  0  0  0  0  0  0  0
   22.3713  -10.6643  -18.0977 C   0  0  1  0  0  0  0  0  0  0  0  0
   21.6236  -10.7634  -19.3990 C   0  0  0  0  0  0  0  0  0  0  0  0
   22.4935  -11.4551  -20.3771 C   0  0  0  0  0  0  0  0  0  0  0  0
   23.8705  -11.4473  -20.3632 C   0  0  0  0  0  0  0  0  0  0  0  0
   24.3477  -12.1730  -21.3904 N   0  0  0  0  0  0  0  0  0  0  0  0
   23.2867  -12.6403  -22.0545 C   0  0  0  0  0  0  0  0  0  0  0  0
   22.1511  -12.2031  -21.4375 N   0  0  0  0  0  0  0  0  0  0  0  0
   21.7285   -9.7548  -17.1258 C   0  0  0  0  0  0  0  0  0  0  0  0
   20.6857  -10.1460  -16.5437 O   0  0  0  0  0  0  0  0  0  0  0  0
   22.2028   -8.4646  -16.7978 N   0  0  0  0  0  0  0  0  0  0  0  0
   21.6012   -7.5536  -15.8876 C   0  0  1  0  0  0  0  0  0  0  0  0
   22.4132   -7.2383  -14.6767 C   0  0  0  0  0  0  0  0  0  0  0  0
   22.3940   -8.2658  -13.6384 C   0  0  0  0  0  0  0  0  0  0  0  0
   21.5882   -8.2368  -12.5208 C   0  0  0  0  0  0  0  0  0  0  0  0
   21.6096   -9.2358  -11.5682 C   0  0  0  0  0  0  0  0  0  0  0  0
   22.4612  -10.3125  -11.7200 C   0  0  0  0  0  0  0  0  0  0  0  0
   23.2873  -10.3607  -12.8476 C   0  0  0  0  0  0  0  0  0  0  0  0
   23.2382   -9.3496  -13.7725 C   0  0  0  0  0  0  0  0  0  0  0  0
   21.2098   -6.3158  -16.6503 C   0  0  0  0  0  0  0  0  0  0  0  0
   21.7352   -6.0872  -17.7681 O   0  0  0  0  0  0  0  0  0  0  0  0
   20.2652   -5.4016  -16.1418 N   0  0  0  0  0  0  0  0  0  0  0  0
   19.5816   -4.3619  -16.8832 C   0  0  1  0  0  0  0  0  0  0  0  0
   19.0722   -4.8184  -18.1926 C   0  0  0  0  0  0  0  0  0  0  0  0
   18.9127   -3.8135  -19.2645 C   0  0  0  0  0  0  0  0  0  0  0  0
   18.3826   -4.3531  -20.5652 C   0  0  0  0  0  0  0  0  0  0  0  0
   18.1659   -3.2608  -21.5921 C   0  0  0  0  0  0  0  0  0  0  0  0
   17.5466   -2.1426  -20.9000 N   0  0  0  0  0  0  0  0  0  0  0  0
   18.6311   -3.5810  -16.0559 C   0  0  0  0  0  0  0  0  0  0  0  0
   17.7202   -4.1149  -15.3842 O   0  0  0  0  0  0  0  0  0  0  0  0
   18.7091   -2.2058  -15.9876 O   0  0  0  0  0  0  0  0  0  0  0  0
  2  1  1  1
  2  3  1  0
  3  4  1  0
  4  5  2  0
  6  5  1  0
  7  6  1  0
  8  7  2  0
  8  4  1  0
  9  2  1  0
 10  9  2  0
 11  9  1  0
 12 13  1  1
 12 11  1  0
 13 14  1  0
 14 15  2  0
 15 16  1  0
 17 16  2  0
 18 17  1  0
 19 18  2  0
 19 14  1  0
 20 22  1  0
 20 12  1  0
 21 20  2  0
 23 24  1  6
 23 22  1  0
 25 24  1  0
 26 27  1  0
 26 25  1  0
 27 28  1  0
 29 23  1  0
 29 31  1  0
 30 29  2  0
M  END
$$$$
