HFK.pdb
     RDKit          3D

 31 32  0  0  1  0  0  0  0  0999 V2000
   26.2256  -23.4464  -17.3469 N   0  0  0  0  0  0  0  0  0  0  0  0
   25.5605  -22.2555  -16.8781 C   0  0  1  0  0  0  0  0  0  0  0  0
   24.3180  -22.0623  -17.7033 C   0  0  0  0  0  0  0  0  0  0  0  0
   24.7044  -21.3914  -18.9652 C   0  0  0  0  0  0  0  0  0  0  0  0
   24.4107  -21.8465  -20.2313 C   0  0  0  0  0  0  0  0  0  0  0  0
   24.9069  -21.0019  -21.1533 N   0  0  0  0  0  0  0  0  0  0  0  0
   25.5118  -20.0166  -20.4838 C   0  0  0  0  0  0  0  0  0  0  0  0
   25.3898  -20.2516  -19.1453 N   0  0  0  0  0  0  0  0  0  0  0  0
   25.2937  -22.2874  -15.4245 C   0  0  0  0  0  0  0  0  0  0  0  0
   24.7754  -23.3232  -14.9368 O   0  0  0  0  0  0  0  0  0  0  0  0
   25.5803  -21.2300  -14.5318 N   0  0  0  0  0  0  0  0  0  0  0  0
   25.4061  -21.2497  -13.1213 C   0  0  1  0  0  0  0  0  0  0  0  0
   26.3347  -20.3684  -12.3556 C   0  0  0  0  0  0  0  0  0  0  0  0
   26.1719  -20.4162  -10.9046 C   0  0  0  0  0  0  0  0  0  0  0  0
   26.8857  -21.2404  -10.0618 C   0  0  0  0  0  0  0  0  0  0  0  0
   26.6922  -21.2458   -8.6949 C   0  0  0  0  0  0  0  0  0  0  0  0
   25.7550  -20.4035   -8.1297 C   0  0  0  0  0  0  0  0  0  0  0  0
   25.0199  -19.5590   -8.9681 C   0  0  0  0  0  0  0  0  0  0  0  0
   25.2399  -19.5817  -10.3214 C   0  0  0  0  0  0  0  0  0  0  0  0
   23.9607  -20.9527  -12.8215 C   0  0  0  0  0  0  0  0  0  0  0  0
   23.3715  -20.0451  -13.4594 O   0  0  0  0  0  0  0  0  0  0  0  0
   23.2469  -21.6688  -11.8396 N   0  0  0  0  0  0  0  0  0  0  0  0
   21.8435  -21.5235  -11.5122 C   0  0  1  0  0  0  0  0  0  0  0  0
   21.4459  -22.2746  -10.3039 C   0  0  0  0  0  0  0  0  0  0  0  0
   20.0084  -22.3365   -9.9662 C   0  0  0  0  0  0  0  0  0  0  0  0
   19.4408  -23.7262   -9.8632 C   0  0  0  0  0  0  0  0  0  0  0  0
   17.9477  -23.7172   -9.6085 C   0  0  0  0  0  0  0  0  0  0  0  0
   17.5047  -25.1015   -9.6242 N   0  0  0  0  0  0  0  0  0  0  0  0
   21.3663  -20.1220  -11.5888 C   0  0  0  0  0  0  0  0  0  0  0  0
   20.6815  -19.6906  -12.5433 O   0  0  0  0  0  0  0  0  0  0  0  0
   21.6605  -19.2137  -10.5936 O   0  0  0  0  0  0  0  0  0  0  0  0
  2  1  1  6
  2  3  1  0
  3  4  1  0
  4  5  2  0
  6  5  1  0
  7  6  1  0
  8  7  2  0
  8  4  1  0
  9  2  1  0
 10  9  2  0
 11  9  1  0
 12 13  1  1
 12 11  1  0
 13 14  1  0
 14 15  2  0
 15 16  1  0
 17 16  2  0
 18 17  1  0
 19 18  2  0
 19 14  1  0
 20 22  1  0
 20 12  1  0
 21 20  2  0
 23 24  1  1
 23 22  1  0
 25 24  1  0
 26 27  1  0
 26 25  1  0
 27 28  1  0
 29 23  1  0
 29 31  1  0
 30 29  2  0
M  END
$$$$
