HFK.pdb
     RDKit          3D

 31 32  0  0  1  0  0  0  0  0999 V2000
   21.5345   -9.8996  -17.4703 N   0  0  0  0  0  0  0  0  0  0  0  0
   20.4507   -9.2746  -16.7525 C   0  0  1  0  0  0  0  0  0  0  0  0
   19.1590   -9.8280  -17.2885 C   0  0  0  0  0  0  0  0  0  0  0  0
   19.0839   -9.5040  -18.7311 C   0  0  0  0  0  0  0  0  0  0  0  0
   18.7526   -8.2741  -19.2548 C   0  0  0  0  0  0  0  0  0  0  0  0
   18.7781   -8.3215  -20.5989 N   0  0  0  0  0  0  0  0  0  0  0  0
   19.1222   -9.5688  -20.9316 C   0  0  0  0  0  0  0  0  0  0  0  0
   19.3100  -10.2947  -19.7917 N   0  0  0  0  0  0  0  0  0  0  0  0
   20.5810   -9.4182  -15.2870 C   0  0  0  0  0  0  0  0  0  0  0  0
   21.4152  -10.2459  -14.8417 O   0  0  0  0  0  0  0  0  0  0  0  0
   19.8304   -8.6875  -14.3385 N   0  0  0  0  0  0  0  0  0  0  0  0
   20.1208   -8.5616  -12.9528 C   0  0  1  0  0  0  0  0  0  0  0  0
   21.4724   -8.0161  -12.6354 C   0  0  0  0  0  0  0  0  0  0  0  0
   21.7668   -7.8927  -11.2098 C   0  0  0  0  0  0  0  0  0  0  0  0
   21.4606   -6.7929  -10.4378 C   0  0  0  0  0  0  0  0  0  0  0  0
   21.7616   -6.7277   -9.0921 C   0  0  0  0  0  0  0  0  0  0  0  0
   22.3921   -7.7910   -8.4762 C   0  0  0  0  0  0  0  0  0  0  0  0
   22.7115   -8.9167   -9.2423 C   0  0  0  0  0  0  0  0  0  0  0  0
   22.3967   -8.9451  -10.5767 C   0  0  0  0  0  0  0  0  0  0  0  0
   19.0179   -7.7618  -12.3117 C   0  0  0  0  0  0  0  0  0  0  0  0
   18.7769   -6.6004  -12.7249 O   0  0  0  0  0  0  0  0  0  0  0  0
   18.2443   -8.2832  -11.2551 N   0  0  0  0  0  0  0  0  0  0  0  0
   17.1532   -7.6191  -10.5723 C   0  0  1  0  0  0  0  0  0  0  0  0
   16.1621   -8.5574  -10.0069 C   0  0  0  0  0  0  0  0  0  0  0  0
   14.9777   -7.9910   -9.3283 C   0  0  0  0  0  0  0  0  0  0  0  0
   14.0002   -9.0083   -8.8051 C   0  0  0  0  0  0  0  0  0  0  0  0
   12.7918   -8.3618   -8.1599 C   0  0  0  0  0  0  0  0  0  0  0  0
   11.9107   -9.4364   -7.7339 N   0  0  0  0  0  0  0  0  0  0  0  0
   17.6020   -6.5314   -9.6706 C   0  0  0  0  0  0  0  0  0  0  0  0
   18.1974   -6.7481   -8.5915 O   0  0  0  0  0  0  0  0  0  0  0  0
   17.3798   -5.2073   -9.9859 O   0  0  0  0  0  0  0  0  0  0  0  0
  2  1  1  6
  2  3  1  0
  3  4  1  0
  4  5  2  0
  6  5  1  0
  7  6  1  0
  8  7  2  0
  8  4  1  0
  9  2  1  0
 10  9  2  0
 11  9  1  0
 12 13  1  6
 12 11  1  0
 13 14  1  0
 14 15  2  0
 15 16  1  0
 17 16  2  0
 18 17  1  0
 19 18  2  0
 19 14  1  0
 20 22  1  0
 20 12  1  0
 21 20  2  0
 23 24  1  1
 23 22  1  0
 25 24  1  0
 26 27  1  0
 26 25  1  0
 27 28  1  0
 29 23  1  0
 29 31  1  0
 30 29  2  0
M  END
$$$$
