HFK.pdb
     RDKit          3D

 31 32  0  0  1  0  0  0  0  0999 V2000
   26.4059  -25.5969  -16.2929 N   0  0  0  0  0  0  0  0  0  0  0  0
   26.1248  -24.1845  -16.3728 C   0  0  1  0  0  0  0  0  0  0  0  0
   25.4267  -23.9233  -17.6791 C   0  0  0  0  0  0  0  0  0  0  0  0
   26.4470  -23.9166  -18.7519 C   0  0  0  0  0  0  0  0  0  0  0  0
   27.4969  -23.0306  -18.8467 C   0  0  0  0  0  0  0  0  0  0  0  0
   28.2342  -23.3018  -19.9387 N   0  0  0  0  0  0  0  0  0  0  0  0
   27.6616  -24.3507  -20.5363 C   0  0  0  0  0  0  0  0  0  0  0  0
   26.5684  -24.7293  -19.8131 N   0  0  0  0  0  0  0  0  0  0  0  0
   25.3721  -23.6868  -15.2019 C   0  0  0  0  0  0  0  0  0  0  0  0
   24.4957  -24.4325  -14.6966 O   0  0  0  0  0  0  0  0  0  0  0  0
   25.5653  -22.4224  -14.6010 N   0  0  0  0  0  0  0  0  0  0  0  0
   24.9504  -21.9558  -13.4075 C   0  0  1  0  0  0  0  0  0  0  0  0
   25.7800  -21.0240  -12.5896 C   0  0  0  0  0  0  0  0  0  0  0  0
   26.4158  -19.9450  -13.3417 C   0  0  0  0  0  0  0  0  0  0  0  0
   25.9367  -18.6551  -13.4200 C   0  0  0  0  0  0  0  0  0  0  0  0
   26.5778  -17.6716  -14.1463 C   0  0  0  0  0  0  0  0  0  0  0  0
   27.7425  -17.9680  -14.8268 C   0  0  0  0  0  0  0  0  0  0  0  0
   28.2452  -19.2715  -14.7600 C   0  0  0  0  0  0  0  0  0  0  0  0
   27.5806  -20.2220  -14.0283 C   0  0  0  0  0  0  0  0  0  0  0  0
   23.6138  -21.3632  -13.7674 C   0  0  0  0  0  0  0  0  0  0  0  0
   23.5482  -20.4872  -14.6651 O   0  0  0  0  0  0  0  0  0  0  0  0
   22.4279  -21.7666  -13.1212 N   0  0  0  0  0  0  0  0  0  0  0  0
   21.1005  -21.2277  -13.3341 C   0  0  1  0  0  0  0  0  0  0  0  0
   20.0247  -22.1281  -12.8712 C   0  0  0  0  0  0  0  0  0  0  0  0
   20.0174  -22.5276  -11.4483 C   0  0  0  0  0  0  0  0  0  0  0  0
   19.0560  -23.6331  -11.1054 C   0  0  0  0  0  0  0  0  0  0  0  0
   19.1747  -24.0665   -9.6589 C   0  0  0  0  0  0  0  0  0  0  0  0
   18.1853  -25.1095   -9.4444 N   0  0  0  0  0  0  0  0  0  0  0  0
   20.9734  -19.8070  -12.9303 C   0  0  0  0  0  0  0  0  0  0  0  0
   21.4944  -19.3494  -11.8885 O   0  0  0  0  0  0  0  0  0  0  0  0
   20.2626  -18.9088  -13.6983 O   0  0  0  0  0  0  0  0  0  0  0  0
  2  1  1  1
  2  3  1  0
  3  4  1  0
  4  5  2  0
  6  5  1  0
  7  6  1  0
  8  7  2  0
  8  4  1  0
  9  2  1  0
 10  9  2  0
 11  9  1  0
 12 13  1  6
 12 11  1  0
 13 14  1  0
 14 15  2  0
 15 16  1  0
 17 16  2  0
 18 17  1  0
 19 18  2  0
 19 14  1  0
 20 22  1  0
 20 12  1  0
 21 20  2  0
 23 24  1  1
 23 22  1  0
 25 24  1  0
 26 27  1  0
 26 25  1  0
 27 28  1  0
 29 23  1  0
 29 31  1  0
 30 29  2  0
M  END
$$$$
