HFK.pdb
     RDKit          3D

 31 32  0  0  1  0  0  0  0  0999 V2000
   27.9812  -22.1429  -16.4220 N   0  0  0  0  0  0  0  0  0  0  0  0
   27.0828  -21.1449  -15.8954 C   0  0  1  0  0  0  0  0  0  0  0  0
   26.0694  -20.8249  -16.9596 C   0  0  0  0  0  0  0  0  0  0  0  0
   26.7465  -20.0425  -18.0185 C   0  0  0  0  0  0  0  0  0  0  0  0
   26.7822  -20.3747  -19.3545 C   0  0  0  0  0  0  0  0  0  0  0  0
   27.4791  -19.4522  -20.0422 N   0  0  0  0  0  0  0  0  0  0  0  0
   27.8850  -18.5393  -19.1552 C   0  0  0  0  0  0  0  0  0  0  0  0
   27.4387  -18.8972  -17.9165 N   0  0  0  0  0  0  0  0  0  0  0  0
   26.4703  -21.5505  -14.6126 C   0  0  0  0  0  0  0  0  0  0  0  0
   26.1286  -22.7513  -14.4693 O   0  0  0  0  0  0  0  0  0  0  0  0
   26.2374  -20.6809  -13.5233 N   0  0  0  0  0  0  0  0  0  0  0  0
   25.6812  -21.0392  -12.2652 C   0  0  1  0  0  0  0  0  0  0  0  0
   26.3706  -20.4556  -11.0781 C   0  0  0  0  0  0  0  0  0  0  0  0
   27.7981  -20.7529  -10.9879 C   0  0  0  0  0  0  0  0  0  0  0  0
   28.3726  -21.5578  -10.0280 C   0  0  0  0  0  0  0  0  0  0  0  0
   29.7299  -21.8065   -9.9881 C   0  0  0  0  0  0  0  0  0  0  0  0
   30.5612  -21.2391  -10.9338 C   0  0  0  0  0  0  0  0  0  0  0  0
   29.9976  -20.4190  -11.9167 C   0  0  0  0  0  0  0  0  0  0  0  0
   28.6448  -20.1949  -11.9243 C   0  0  0  0  0  0  0  0  0  0  0  0
   24.2118  -20.7114  -12.2899 C   0  0  0  0  0  0  0  0  0  0  0  0
   23.5208  -20.8945  -11.2570 O   0  0  0  0  0  0  0  0  0  0  0  0
   23.5870  -20.2020  -13.4460 N   0  0  0  0  0  0  0  0  0  0  0  0
   22.2117  -19.7635  -13.5641 C   0  0  1  0  0  0  0  0  0  0  0  0
   22.0521  -18.5684  -14.4177 C   0  0  0  0  0  0  0  0  0  0  0  0
   21.4688  -18.7490  -15.7636 C   0  0  0  0  0  0  0  0  0  0  0  0
   22.2517  -18.1188  -16.8834 C   0  0  0  0  0  0  0  0  0  0  0  0
   21.6540  -18.4232  -18.2416 C   0  0  0  0  0  0  0  0  0  0  0  0
   22.5660  -17.8866  -19.2380 N   0  0  0  0  0  0  0  0  0  0  0  0
   21.2631  -20.8733  -13.8212 C   0  0  0  0  0  0  0  0  0  0  0  0
   21.5632  -21.8761  -14.5070 O   0  0  0  0  0  0  0  0  0  0  0  0
   19.9837  -20.8507  -13.3069 O   0  0  0  0  0  0  0  0  0  0  0  0
  2  1  1  6
  2  3  1  0
  3  4  1  0
  4  5  2  0
  6  5  1  0
  7  6  1  0
  8  7  2  0
  8  4  1  0
  9  2  1  0
 10  9  2  0
 11  9  1  0
 12 13  1  1
 12 11  1  0
 13 14  1  0
 14 15  2  0
 15 16  1  0
 17 16  2  0
 18 17  1  0
 19 18  2  0
 19 14  1  0
 20 22  1  0
 20 12  1  0
 21 20  2  0
 23 24  1  6
 23 22  1  0
 25 24  1  0
 26 27  1  0
 26 25  1  0
 27 28  1  0
 29 23  1  0
 29 31  1  0
 30 29  2  0
M  END
$$$$
