HFK.pdb
     RDKit          3D

 31 32  0  0  1  0  0  0  0  0999 V2000
   28.2222  -21.1840  -16.2940 N   0  0  0  0  0  0  0  0  0  0  0  0
   27.5610  -20.3229  -15.3444 C   0  0  1  0  0  0  0  0  0  0  0  0
   27.1565  -19.0646  -16.0622 C   0  0  0  0  0  0  0  0  0  0  0  0
   28.3884  -18.3574  -16.4795 C   0  0  0  0  0  0  0  0  0  0  0  0
   29.6731  -18.7478  -16.1735 C   0  0  0  0  0  0  0  0  0  0  0  0
   30.5579  -17.8857  -16.7059 N   0  0  0  0  0  0  0  0  0  0  0  0
   29.8464  -16.9534  -17.3459 C   0  0  0  0  0  0  0  0  0  0  0  0
   28.5192  -17.2388  -17.2094 N   0  0  0  0  0  0  0  0  0  0  0  0
   26.4332  -20.9900  -14.6603 C   0  0  0  0  0  0  0  0  0  0  0  0
   25.4893  -21.4332  -15.3617 O   0  0  0  0  0  0  0  0  0  0  0  0
   26.3347  -21.1692  -13.2620 N   0  0  0  0  0  0  0  0  0  0  0  0
   25.2731  -21.8122  -12.5692 C   0  0  1  0  0  0  0  0  0  0  0  0
   25.6527  -22.4418  -11.2713 C   0  0  0  0  0  0  0  0  0  0  0  0
   26.3503  -21.5587  -10.3398 C   0  0  0  0  0  0  0  0  0  0  0  0
   25.7294  -20.7227   -9.4371 C   0  0  0  0  0  0  0  0  0  0  0  0
   26.4375  -19.9068   -8.5776 C   0  0  0  0  0  0  0  0  0  0  0  0
   27.8183  -19.9119   -8.6058 C   0  0  0  0  0  0  0  0  0  0  0  0
   28.4676  -20.7534   -9.5149 C   0  0  0  0  0  0  0  0  0  0  0  0
   27.7304  -21.5499  -10.3531 C   0  0  0  0  0  0  0  0  0  0  0  0
   24.1454  -20.8262  -12.4167 C   0  0  0  0  0  0  0  0  0  0  0  0
   24.3902  -19.6683  -11.9959 O   0  0  0  0  0  0  0  0  0  0  0  0
   22.8157  -21.1685  -12.7349 N   0  0  0  0  0  0  0  0  0  0  0  0
   21.6728  -20.2788  -12.7474 C   0  0  1  0  0  0  0  0  0  0  0  0
   21.4505  -19.6338  -14.0577 C   0  0  0  0  0  0  0  0  0  0  0  0
   20.3054  -18.7090  -14.1913 C   0  0  0  0  0  0  0  0  0  0  0  0
   20.0683  -18.1910  -15.5840 C   0  0  0  0  0  0  0  0  0  0  0  0
   18.8865  -17.2458  -15.6495 C   0  0  0  0  0  0  0  0  0  0  0  0
   18.7200  -16.8684  -17.0432 N   0  0  0  0  0  0  0  0  0  0  0  0
   20.4719  -20.8588  -12.1000 C   0  0  0  0  0  0  0  0  0  0  0  0
   20.2293  -22.0865  -12.0982 O   0  0  0  0  0  0  0  0  0  0  0  0
   19.5511  -20.0573  -11.4585 O   0  0  0  0  0  0  0  0  0  0  0  0
  2  1  1  6
  2  3  1  0
  3  4  1  0
  4  5  2  0
  6  5  1  0
  7  6  1  0
  8  7  2  0
  8  4  1  0
  9  2  1  0
 10  9  2  0
 11  9  1  0
 12 13  1  1
 12 11  1  0
 13 14  1  0
 14 15  2  0
 15 16  1  0
 17 16  2  0
 18 17  1  0
 19 18  2  0
 19 14  1  0
 20 22  1  0
 20 12  1  0
 21 20  2  0
 23 24  1  6
 23 22  1  0
 25 24  1  0
 26 27  1  0
 26 25  1  0
 27 28  1  0
 29 23  1  0
 29 31  1  0
 30 29  2  0
M  END
$$$$
