SWT.pdb
     RDKit          3D

 28 29  0  0  1  0  0  0  0  0999 V2000
    8.4400  -17.7502   20.1840 O   0  0  0  0  0  0  0  0  0  0  0  0
    7.7108  -16.6657   19.7596 C   0  0  0  0  0  0  0  0  0  0  0  0
    7.0151  -15.9653   20.9339 C   0  0  2  0  0  0  0  0  0  0  0  0
    6.3299  -14.8290   20.3743 N   0  0  0  0  0  0  0  0  0  0  0  0
    8.0104  -15.5714   21.9644 C   0  0  0  0  0  0  0  0  0  0  0  0
    8.6762  -14.5181   21.7992 O   0  0  0  0  0  0  0  0  0  0  0  0
    8.2503  -16.3349   23.1420 N   0  0  0  0  0  0  0  0  0  0  0  0
    9.3264  -16.0401   24.0538 C   0  0  1  0  0  0  0  0  0  0  0  0
    8.8991  -15.9611   25.4799 C   0  0  0  0  0  0  0  0  0  0  0  0
    7.7537  -15.0697   25.7537 C   0  0  0  0  0  0  0  0  0  0  0  0
    6.4032  -15.4464   25.7884 C   0  0  0  0  0  0  0  0  0  0  0  0
    5.6335  -14.3755   26.0465 N   0  0  0  0  0  0  0  0  0  0  0  0
    6.4271  -13.2875   26.1871 C   0  0  0  0  0  0  0  0  0  0  0  0
    6.1102  -11.9742   26.4623 C   0  0  0  0  0  0  0  0  0  0  0  0
    7.1609  -11.0828   26.5548 C   0  0  0  0  0  0  0  0  0  0  0  0
    8.4703  -11.4587   26.3854 C   0  0  0  0  0  0  0  0  0  0  0  0
    8.7439  -12.7736   26.1129 C   0  0  0  0  0  0  0  0  0  0  0  0
    7.7304  -13.7084   26.0088 C   0  0  0  0  0  0  0  0  0  0  0  0
   10.4680  -16.9552   23.8087 C   0  0  0  0  0  0  0  0  0  0  0  0
   10.3216  -18.2065   23.9110 O   0  0  0  0  0  0  0  0  0  0  0  0
   12.9182  -16.5108   20.8400 C   0  0  0  0  0  0  0  0  0  0  0  0
   13.7117  -16.7550   22.0927 C   0  0  1  0  0  0  0  0  0  0  0  0
   14.2664  -15.5748   22.5810 O   0  0  0  0  0  0  0  0  0  0  0  0
   12.8689  -17.3993   23.1943 C   0  0  2  0  0  0  0  0  0  0  0  0
   11.7627  -16.5003   23.4520 N   0  0  0  0  0  0  0  0  0  0  0  0
   13.7254  -17.4388   24.3921 C   0  0  0  0  0  0  0  0  0  0  0  0
   14.7716  -18.3387   24.5332 O   0  0  0  0  0  0  0  0  0  0  0  0
   13.5137  -16.6370   25.3257 O   0  0  0  0  0  0  0  0  0  0  0  0
  2  1  1  0
  2  3  1  0
  3  5  1  0
  3  4  1  6
  5  6  2  0
  7  8  1  0
  7  5  1  0
  8  9  1  1
  9 10  1  0
 10 18  1  0
 11 10  2  0
 11 12  1  0
 12 13  1  0
 13 14  1  0
 14 15  2  0
 16 15  1  0
 17 16  2  0
 18 13  2  0
 18 17  1  0
 19 25  1  0
 19  8  1  0
 20 19  2  0
 22 21  1  6
 23 22  1  0
 24 25  1  1
 24 22  1  0
 26 24  1  0
 27 26  1  0
 28 26  2  0
M  END
$$$$
