SWT.pdb
     RDKit          3D

 28 29  0  0  1  0  0  0  0  0999 V2000
    6.3599  -17.7467   19.3656 O   0  0  0  0  0  0  0  0  0  0  0  0
    7.3572  -17.3372   20.2173 C   0  0  0  0  0  0  0  0  0  0  0  0
    6.8907  -16.1792   21.1091 C   0  0  2  0  0  0  0  0  0  0  0  0
    6.6334  -15.0712   20.2259 N   0  0  0  0  0  0  0  0  0  0  0  0
    7.9260  -15.8601   22.1261 C   0  0  0  0  0  0  0  0  0  0  0  0
    8.7763  -14.9697   21.8733 O   0  0  0  0  0  0  0  0  0  0  0  0
    8.0039  -16.5191   23.3858 N   0  0  0  0  0  0  0  0  0  0  0  0
    9.0199  -16.2144   24.3611 C   0  0  1  0  0  0  0  0  0  0  0  0
    8.4861  -16.0028   25.7368 C   0  0  0  0  0  0  0  0  0  0  0  0
    7.3854  -15.0246   25.8501 C   0  0  0  0  0  0  0  0  0  0  0  0
    6.0155  -15.3061   25.7452 C   0  0  0  0  0  0  0  0  0  0  0  0
    5.3019  -14.1753   25.8791 N   0  0  0  0  0  0  0  0  0  0  0  0
    6.1521  -13.1393   26.0715 C   0  0  0  0  0  0  0  0  0  0  0  0
    5.9032  -11.7972   26.2653 C   0  0  0  0  0  0  0  0  0  0  0  0
    6.9993  -10.9767   26.4456 C   0  0  0  0  0  0  0  0  0  0  0  0
    8.2886  -11.4480   26.4372 C   0  0  0  0  0  0  0  0  0  0  0  0
    8.4943  -12.7887   26.2413 C   0  0  0  0  0  0  0  0  0  0  0  0
    7.4332  -13.6554   26.0552 C   0  0  0  0  0  0  0  0  0  0  0  0
   10.1197  -17.2066   24.2791 C   0  0  0  0  0  0  0  0  0  0  0  0
    9.8973  -18.4315   24.4980 O   0  0  0  0  0  0  0  0  0  0  0  0
   12.6631  -17.2844   21.3177 C   0  0  0  0  0  0  0  0  0  0  0  0
   13.3890  -17.3255   22.6329 C   0  0  1  0  0  0  0  0  0  0  0  0
   13.8817  -16.0704   22.9808 O   0  0  0  0  0  0  0  0  0  0  0  0
   12.5017  -17.8412   23.7669 C   0  0  2  0  0  0  0  0  0  0  0  0
   11.4557  -16.8574   23.9577 N   0  0  0  0  0  0  0  0  0  0  0  0
   13.3493  -17.8590   24.9715 C   0  0  0  0  0  0  0  0  0  0  0  0
   14.3628  -18.7875   25.1582 O   0  0  0  0  0  0  0  0  0  0  0  0
   13.1601  -17.0114   25.8688 O   0  0  0  0  0  0  0  0  0  0  0  0
  2  1  1  0
  2  3  1  0
  3  5  1  0
  3  4  1  6
  5  6  2  0
  7  8  1  0
  7  5  1  0
  8  9  1  1
  9 10  1  0
 10 18  1  0
 11 10  2  0
 11 12  1  0
 12 13  1  0
 13 14  1  0
 14 15  2  0
 16 15  1  0
 17 16  2  0
 18 13  2  0
 18 17  1  0
 19 25  1  0
 19  8  1  0
 20 19  2  0
 22 21  1  6
 23 22  1  0
 24 25  1  1
 24 22  1  0
 26 24  1  0
 27 26  1  0
 28 26  2  0
M  END
$$$$
