SWT.pdb
     RDKit          3D

 28 29  0  0  1  0  0  0  0  0999 V2000
    8.4630  -17.0670   19.7073 O   0  0  0  0  0  0  0  0  0  0  0  0
    7.1645  -16.9278   20.1342 C   0  0  0  0  0  0  0  0  0  0  0  0
    6.9560  -15.5955   20.8657 C   0  0  2  0  0  0  0  0  0  0  0  0
    6.9537  -14.5757   19.8490 N   0  0  0  0  0  0  0  0  0  0  0  0
    8.0284  -15.3848   21.8724 C   0  0  0  0  0  0  0  0  0  0  0  0
    8.9565  -14.5769   21.6158 O   0  0  0  0  0  0  0  0  0  0  0  0
    8.0578  -16.0589   23.1262 N   0  0  0  0  0  0  0  0  0  0  0  0
    9.1609  -15.9422   24.0459 C   0  0  1  0  0  0  0  0  0  0  0  0
    8.7446  -15.8739   25.4758 C   0  0  0  0  0  0  0  0  0  0  0  0
    7.5957  -14.9915   25.7638 C   0  0  0  0  0  0  0  0  0  0  0  0
    6.2445  -15.3671   25.7629 C   0  0  0  0  0  0  0  0  0  0  0  0
    5.4717  -14.3053   26.0478 N   0  0  0  0  0  0  0  0  0  0  0  0
    6.2639  -13.2244   26.2411 C   0  0  0  0  0  0  0  0  0  0  0  0
    5.9439  -11.9216   26.5593 C   0  0  0  0  0  0  0  0  0  0  0  0
    6.9937  -11.0359   26.7015 C   0  0  0  0  0  0  0  0  0  0  0  0
    8.3053  -11.4072   26.5394 C   0  0  0  0  0  0  0  0  0  0  0  0
    8.5821  -12.7116   26.2231 C   0  0  0  0  0  0  0  0  0  0  0  0
    7.5696  -13.6404   26.0684 C   0  0  0  0  0  0  0  0  0  0  0  0
   10.1791  -16.9813   23.7558 C   0  0  0  0  0  0  0  0  0  0  0  0
    9.8455  -18.1959   23.6510 O   0  0  0  0  0  0  0  0  0  0  0  0
   12.5687  -17.1381   20.8541 C   0  0  0  0  0  0  0  0  0  0  0  0
   13.3748  -17.2094   22.1204 C   0  0  1  0  0  0  0  0  0  0  0  0
   13.9235  -15.9712   22.4439 O   0  0  0  0  0  0  0  0  0  0  0  0
   12.5468  -17.7092   23.3053 C   0  0  2  0  0  0  0  0  0  0  0  0
   11.5554  -16.6894   23.5803 N   0  0  0  0  0  0  0  0  0  0  0  0
   13.4727  -17.7787   24.4488 C   0  0  0  0  0  0  0  0  0  0  0  0
   14.4885  -18.7197   24.5316 O   0  0  0  0  0  0  0  0  0  0  0  0
   13.3509  -16.9654   25.3886 O   0  0  0  0  0  0  0  0  0  0  0  0
  2  1  1  0
  2  3  1  0
  3  5  1  0
  3  4  1  6
  5  6  2  0
  7  8  1  0
  7  5  1  0
  8  9  1  1
  9 10  1  0
 10 18  1  0
 11 10  2  0
 11 12  1  0
 12 13  1  0
 13 14  1  0
 14 15  2  0
 16 15  1  0
 17 16  2  0
 18 13  2  0
 18 17  1  0
 19 25  1  0
 19  8  1  0
 20 19  2  0
 22 21  1  6
 23 22  1  0
 24 25  1  1
 24 22  1  0
 26 24  1  0
 27 26  1  0
 28 26  2  0
M  END
$$$$
