SWT.pdb
     RDKit          3D

 28 29  0  0  1  0  0  0  0  0999 V2000
    9.1623  -18.8118   18.7136 O   0  0  0  0  0  0  0  0  0  0  0  0
    9.8978  -17.7167   18.3292 C   0  0  0  0  0  0  0  0  0  0  0  0
    9.1203  -16.4135   18.5545 C   0  0  2  0  0  0  0  0  0  0  0  0
    9.6936  -15.4440   17.6571 N   0  0  0  0  0  0  0  0  0  0  0  0
    9.2181  -15.9920   19.9761 C   0  0  0  0  0  0  0  0  0  0  0  0
   10.2659  -15.4226   20.3734 O   0  0  0  0  0  0  0  0  0  0  0  0
    8.1737  -16.2029   20.9205 N   0  0  0  0  0  0  0  0  0  0  0  0
    8.2521  -15.7393   22.2826 C   0  0  1  0  0  0  0  0  0  0  0  0
    6.9448  -15.2865   22.8379 C   0  0  0  0  0  0  0  0  0  0  0  0
    6.9423  -14.9619   24.2788 C   0  0  0  0  0  0  0  0  0  0  0  0
    6.7637  -15.8723   25.3306 C   0  0  0  0  0  0  0  0  0  0  0  0
    6.7993  -15.2267   26.5087 N   0  0  0  0  0  0  0  0  0  0  0  0
    6.9972  -13.9068   26.2808 C   0  0  0  0  0  0  0  0  0  0  0  0
    7.1122  -12.8509   27.1598 C   0  0  0  0  0  0  0  0  0  0  0  0
    7.3236  -11.6008   26.6124 C   0  0  0  0  0  0  0  0  0  0  0  0
    7.4191  -11.3894   25.2594 C   0  0  0  0  0  0  0  0  0  0  0  0
    7.2991  -12.4650   24.4187 C   0  0  0  0  0  0  0  0  0  0  0  0
    7.0863  -13.7387   24.9127 C   0  0  0  0  0  0  0  0  0  0  0  0
    8.9583  -16.7383   23.1217 C   0  0  0  0  0  0  0  0  0  0  0  0
    8.6229  -17.9565   23.0891 O   0  0  0  0  0  0  0  0  0  0  0  0
   12.3358  -17.7463   22.7813 C   0  0  0  0  0  0  0  0  0  0  0  0
   12.2211  -17.3229   24.2186 C   0  0  1  0  0  0  0  0  0  0  0  0
   12.7024  -16.0300   24.4074 O   0  0  0  0  0  0  0  0  0  0  0  0
   10.7813  -17.3951   24.7292 C   0  0  2  0  0  0  0  0  0  0  0  0
   10.0272  -16.4030   23.9908 N   0  0  0  0  0  0  0  0  0  0  0  0
   10.8295  -16.9856   26.1434 C   0  0  0  0  0  0  0  0  0  0  0  0
   10.3429  -15.7638   26.5845 O   0  0  0  0  0  0  0  0  0  0  0  0
   11.3254  -17.7579   26.9903 O   0  0  0  0  0  0  0  0  0  0  0  0
  2  1  1  0
  2  3  1  0
  3  5  1  0
  3  4  1  6
  5  6  2  0
  7  8  1  0
  7  5  1  0
  8  9  1  1
  9 10  1  0
 10 18  1  0
 11 10  2  0
 11 12  1  0
 12 13  1  0
 13 14  1  0
 14 15  2  0
 16 15  1  0
 17 16  2  0
 18 13  2  0
 18 17  1  0
 19 25  1  0
 19  8  1  0
 20 19  2  0
 22 21  1  6
 23 22  1  0
 24 25  1  6
 24 22  1  0
 26 24  1  0
 27 26  1  0
 28 26  2  0
M  END
$$$$
