SWT.pdb
     RDKit          3D

 28 29  0  0  1  0  0  0  0  0999 V2000
    8.0556  -17.8281   20.5281 O   0  0  0  0  0  0  0  0  0  0  0  0
    6.7882  -17.3015   20.5936 C   0  0  0  0  0  0  0  0  0  0  0  0
    6.8051  -15.8699   21.1449 C   0  0  2  0  0  0  0  0  0  0  0  0
    6.8143  -14.9986   19.9983 N   0  0  0  0  0  0  0  0  0  0  0  0
    7.9905  -15.6655   22.0172 C   0  0  0  0  0  0  0  0  0  0  0  0
    8.9816  -15.0394   21.5637 O   0  0  0  0  0  0  0  0  0  0  0  0
    8.0609  -16.1481   23.3548 N   0  0  0  0  0  0  0  0  0  0  0  0
    9.1759  -15.8698   24.2241 C   0  0  1  0  0  0  0  0  0  0  0  0
    8.7888  -15.6663   25.6493 C   0  0  0  0  0  0  0  0  0  0  0  0
    7.6218  -14.7893   25.8739 C   0  0  0  0  0  0  0  0  0  0  0  0
    6.2801  -15.1949   25.9208 C   0  0  0  0  0  0  0  0  0  0  0  0
    5.4847  -14.1307   26.1227 N   0  0  0  0  0  0  0  0  0  0  0  0
    6.2524  -13.0191   26.2135 C   0  0  0  0  0  0  0  0  0  0  0  0
    5.9041  -11.7016   26.4228 C   0  0  0  0  0  0  0  0  0  0  0  0
    6.9336  -10.7828   26.4764 C   0  0  0  0  0  0  0  0  0  0  0  0
    8.2522  -11.1362   26.3316 C   0  0  0  0  0  0  0  0  0  0  0  0
    8.5573  -12.4561   26.1249 C   0  0  0  0  0  0  0  0  0  0  0  0
    7.5660  -13.4180   26.0620 C   0  0  0  0  0  0  0  0  0  0  0  0
   10.2456  -16.8771   24.0201 C   0  0  0  0  0  0  0  0  0  0  0  0
   10.0294  -18.1001   24.2549 O   0  0  0  0  0  0  0  0  0  0  0  0
   12.7789  -16.8078   20.9694 C   0  0  0  0  0  0  0  0  0  0  0  0
   13.5058  -16.9974   22.2709 C   0  0  1  0  0  0  0  0  0  0  0  0
   14.0884  -15.8096   22.7052 O   0  0  0  0  0  0  0  0  0  0  0  0
   12.5890  -17.5314   23.3725 C   0  0  2  0  0  0  0  0  0  0  0  0
   11.5450  -16.5449   23.5600 N   0  0  0  0  0  0  0  0  0  0  0  0
   13.4081  -17.5807   24.5958 C   0  0  0  0  0  0  0  0  0  0  0  0
   14.4157  -18.5154   24.7833 O   0  0  0  0  0  0  0  0  0  0  0  0
   13.1988  -16.7552   25.5092 O   0  0  0  0  0  0  0  0  0  0  0  0
  2  1  1  0
  2  3  1  0
  3  5  1  0
  3  4  1  6
  5  6  2  0
  7  8  1  0
  7  5  1  0
  8  9  1  1
  9 10  1  0
 10 18  1  0
 11 10  2  0
 11 12  1  0
 12 13  1  0
 13 14  1  0
 14 15  2  0
 16 15  1  0
 17 16  2  0
 18 13  2  0
 18 17  1  0
 19 25  1  0
 19  8  1  0
 20 19  2  0
 22 21  1  6
 23 22  1  0
 24 25  1  1
 24 22  1  0
 26 24  1  0
 27 26  1  0
 28 26  2  0
M  END
$$$$
