SWT.pdb
     RDKit          3D

 28 29  0  0  1  0  0  0  0  0999 V2000
    8.4564  -17.3110   19.7388 O   0  0  0  0  0  0  0  0  0  0  0  0
    7.1918  -17.0363   20.2004 C   0  0  0  0  0  0  0  0  0  0  0  0
    7.1239  -15.6503   20.8547 C   0  0  2  0  0  0  0  0  0  0  0  0
    7.2426  -14.6949   19.7837 N   0  0  0  0  0  0  0  0  0  0  0  0
    8.2039  -15.5015   21.8644 C   0  0  0  0  0  0  0  0  0  0  0  0
    9.2206  -14.8214   21.5752 O   0  0  0  0  0  0  0  0  0  0  0  0
    8.1442  -16.0967   23.1564 N   0  0  0  0  0  0  0  0  0  0  0  0
    9.1477  -15.8680   24.1648 C   0  0  1  0  0  0  0  0  0  0  0  0
    8.6037  -15.8205   25.5520 C   0  0  0  0  0  0  0  0  0  0  0  0
    7.4684  -14.8989   25.7603 C   0  0  0  0  0  0  0  0  0  0  0  0
    6.1119  -15.2533   25.7948 C   0  0  0  0  0  0  0  0  0  0  0  0
    5.3553  -14.1589   25.9835 N   0  0  0  0  0  0  0  0  0  0  0  0
    6.1635  -13.0766   26.0775 C   0  0  0  0  0  0  0  0  0  0  0  0
    5.8631  -11.7459   26.2771 C   0  0  0  0  0  0  0  0  0  0  0  0
    6.9259  -10.8664   26.3375 C   0  0  0  0  0  0  0  0  0  0  0  0
    8.2316  -11.2700   26.2083 C   0  0  0  0  0  0  0  0  0  0  0  0
    8.4888  -12.6015   26.0108 C   0  0  0  0  0  0  0  0  0  0  0  0
    7.4626  -13.5256   25.9417 C   0  0  0  0  0  0  0  0  0  0  0  0
   10.2771  -16.8127   23.9843 C   0  0  0  0  0  0  0  0  0  0  0  0
   10.0603  -18.0315   23.7289 O   0  0  0  0  0  0  0  0  0  0  0  0
   15.2113  -17.3850   23.5189 C   0  0  0  0  0  0  0  0  0  0  0  0
   13.9617  -16.5505   23.5444 C   0  0  1  0  0  0  0  0  0  0  0  0
   13.7144  -15.9679   22.3041 O   0  0  0  0  0  0  0  0  0  0  0  0
   12.7344  -17.3603   23.9651 C   0  0  2  0  0  0  0  0  0  0  0  0
   11.6366  -16.4225   24.0821 N   0  0  0  0  0  0  0  0  0  0  0  0
   13.0370  -17.8923   25.3050 C   0  0  0  0  0  0  0  0  0  0  0  0
   13.8568  -18.9935   25.5041 O   0  0  0  0  0  0  0  0  0  0  0  0
   12.5433  -17.3412   26.3109 O   0  0  0  0  0  0  0  0  0  0  0  0
  2  1  1  0
  2  3  1  0
  3  5  1  0
  3  4  1  6
  5  6  2  0
  7  8  1  0
  7  5  1  0
  8  9  1  1
  9 10  1  0
 10 18  1  0
 11 10  2  0
 11 12  1  0
 12 13  1  0
 13 14  1  0
 14 15  2  0
 16 15  1  0
 17 16  2  0
 18 13  2  0
 18 17  1  0
 19 25  1  0
 19  8  1  0
 20 19  2  0
 22 21  1  6
 23 22  1  0
 24 25  1  1
 24 22  1  0
 26 24  1  0
 27 26  1  0
 28 26  2  0
M  END
$$$$
