SWT.pdb
     RDKit          3D

 28 29  0  0  1  0  0  0  0  0999 V2000
    8.7713  -18.8774   19.4275 O   0  0  0  0  0  0  0  0  0  0  0  0
    7.5077  -18.3536   19.2977 C   0  0  0  0  0  0  0  0  0  0  0  0
    7.5229  -16.8232   19.4039 C   0  0  2  0  0  0  0  0  0  0  0  0
    8.3063  -16.3517   18.2913 N   0  0  0  0  0  0  0  0  0  0  0  0
    8.0897  -16.4010   20.7109 C   0  0  0  0  0  0  0  0  0  0  0  0
    9.2481  -15.9145   20.7455 O   0  0  0  0  0  0  0  0  0  0  0  0
    7.3791  -16.5210   21.9388 N   0  0  0  0  0  0  0  0  0  0  0  0
    7.9186  -16.0700   23.1966 C   0  0  1  0  0  0  0  0  0  0  0  0
    6.8810  -15.8063   24.2340 C   0  0  0  0  0  0  0  0  0  0  0  0
    7.3646  -15.1549   25.4682 C   0  0  0  0  0  0  0  0  0  0  0  0
    8.0640  -15.7779   26.5120 C   0  0  0  0  0  0  0  0  0  0  0  0
    8.3280  -14.8884   27.4841 N   0  0  0  0  0  0  0  0  0  0  0  0
    7.8264  -13.6831   27.1250 C   0  0  0  0  0  0  0  0  0  0  0  0
    7.8500  -12.4695   27.7788 C   0  0  0  0  0  0  0  0  0  0  0  0
    7.2506  -11.4023   27.1395 C   0  0  0  0  0  0  0  0  0  0  0  0
    6.6515  -11.5150   25.9096 C   0  0  0  0  0  0  0  0  0  0  0  0
    6.6489  -12.7385   25.2923 C   0  0  0  0  0  0  0  0  0  0  0  0
    7.2341  -13.8410   25.8872 C   0  0  0  0  0  0  0  0  0  0  0  0
    9.0074  -16.9754   23.6387 C   0  0  0  0  0  0  0  0  0  0  0  0
    8.7938  -18.2124   23.7864 O   0  0  0  0  0  0  0  0  0  0  0  0
   12.5021  -17.3659   22.1247 C   0  0  0  0  0  0  0  0  0  0  0  0
   12.6334  -17.0429   23.5865 C   0  0  1  0  0  0  0  0  0  0  0  0
   12.9123  -15.6932   23.7856 O   0  0  0  0  0  0  0  0  0  0  0  0
   11.3754  -17.4104   24.3749 C   0  0  2  0  0  0  0  0  0  0  0  0
   10.3234  -16.5266   23.9162 N   0  0  0  0  0  0  0  0  0  0  0  0
   11.6696  -17.0926   25.7828 C   0  0  0  0  0  0  0  0  0  0  0  0
   12.5581  -17.8352   26.5466 O   0  0  0  0  0  0  0  0  0  0  0  0
   11.1046  -16.1194   26.3242 O   0  0  0  0  0  0  0  0  0  0  0  0
  2  1  1  0
  2  3  1  0
  3  5  1  0
  3  4  1  6
  5  6  2  0
  7  8  1  0
  7  5  1  0
  8  9  1  1
  9 10  1  0
 10 18  1  0
 11 10  2  0
 11 12  1  0
 12 13  1  0
 13 14  1  0
 14 15  2  0
 16 15  1  0
 17 16  2  0
 18 13  2  0
 18 17  1  0
 19 25  1  0
 19  8  1  0
 20 19  2  0
 22 21  1  6
 23 22  1  0
 24 25  1  6
 24 22  1  0
 26 24  1  0
 27 26  1  0
 28 26  2  0
M  END
$$$$
