SQL.pdb
     RDKit          3D

 24 23  0  0  1  0  0  0  0  0999 V2000
   27.8680  -21.0998  -17.5119 O   0  0  0  0  0  0  0  0  0  0  0  0
   27.2781  -20.5833  -18.6649 C   0  0  0  0  0  0  0  0  0  0  0  0
   27.0857  -19.0929  -18.4727 C   0  0  2  0  0  0  0  0  0  0  0  0
   28.3145  -18.4085  -18.2063 N   0  0  0  0  0  0  0  0  0  0  0  0
   26.1674  -18.8983  -17.3342 C   0  0  0  0  0  0  0  0  0  0  0  0
   26.5723  -18.2893  -16.3185 O   0  0  0  0  0  0  0  0  0  0  0  0
   20.1941  -17.6750  -17.5488 N   0  0  0  0  0  0  0  0  0  0  0  0
   20.4246  -17.7650  -16.1604 C   0  0  0  0  0  0  0  0  0  0  0  0
   19.6267  -17.2403  -15.3608 O   0  0  0  0  0  0  0  0  0  0  0  0
   21.6151  -18.4839  -15.6713 C   0  0  0  0  0  0  0  0  0  0  0  0
   22.5178  -18.8707  -16.8012 C   0  0  0  0  0  0  0  0  0  0  0  0
   23.9384  -18.9985  -16.2915 C   0  0  2  0  0  0  0  0  0  0  0  0
   24.8389  -19.3767  -17.3473 N   0  0  0  0  0  0  0  0  0  0  0  0
   23.9992  -20.0527  -15.2259 C   0  0  0  0  0  0  0  0  0  0  0  0
   23.9026  -21.2688  -15.5151 O   0  0  0  0  0  0  0  0  0  0  0  0
   25.3259  -20.3119   -9.2278 C   0  0  0  0  0  0  0  0  0  0  0  0
   25.0941  -21.0370  -10.5201 C   0  0  2  0  0  0  0  0  0  0  0  0
   26.2502  -21.9695  -10.8402 C   0  0  0  0  0  0  0  0  0  0  0  0
   24.9996  -20.0287  -11.6418 C   0  0  0  0  0  0  0  0  0  0  0  0
   24.2592  -20.6473  -12.8305 C   0  0  2  0  0  0  0  0  0  0  0  0
   24.1664  -19.6705  -13.8894 N   0  0  0  0  0  0  0  0  0  0  0  0
   22.8959  -21.0179  -12.3568 C   0  0  0  0  0  0  0  0  0  0  0  0
   21.9839  -20.1609  -12.2172 O   0  0  0  0  0  0  0  0  0  0  0  0
   22.6467  -22.3462  -12.0680 O   0  0  0  0  0  0  0  0  0  0  0  0
  2  1  1  0
  3  2  1  0
  3  4  1  1
  5  3  1  0
  5  6  2  0
  7  8  1  0
  8 10  1  0
  9  8  2  0
 10 11  1  0
 12 11  1  6
 12 13  1  0
 13  5  1  0
 14 12  1  0
 15 14  2  0
 17 19  1  0
 17 16  1  1
 17 18  1  0
 20 19  1  1
 20 22  1  0
 20 21  1  0
 21 14  1  0
 22 24  1  0
 23 22  2  0
M  END
$$$$
