SQL.pdb
     RDKit          3D

 24 23  0  0  1  0  0  0  0  0999 V2000
   27.2833  -16.4372  -17.5757 O   0  0  0  0  0  0  0  0  0  0  0  0
   26.2534  -17.2943  -17.1899 C   0  0  0  0  0  0  0  0  0  0  0  0
   26.8607  -18.4501  -16.4215 C   0  0  2  0  0  0  0  0  0  0  0  0
   27.6744  -19.2924  -17.2448 N   0  0  0  0  0  0  0  0  0  0  0  0
   25.7557  -19.2484  -15.8567 C   0  0  0  0  0  0  0  0  0  0  0  0
   25.0600  -19.9563  -16.6192 O   0  0  0  0  0  0  0  0  0  0  0  0
   25.3442  -21.3649  -10.0412 N   0  0  0  0  0  0  0  0  0  0  0  0
   26.3827  -21.3966  -10.9948 C   0  0  0  0  0  0  0  0  0  0  0  0
   27.5164  -21.7961  -10.6686 O   0  0  0  0  0  0  0  0  0  0  0  0
   26.1101  -20.9535  -12.3741 C   0  0  0  0  0  0  0  0  0  0  0  0
   24.6938  -20.4929  -12.5264 C   0  0  0  0  0  0  0  0  0  0  0  0
   24.4345  -20.1276  -13.9732 C   0  0  2  0  0  0  0  0  0  0  0  0
   25.4510  -19.2439  -14.4779 N   0  0  0  0  0  0  0  0  0  0  0  0
   23.1109  -19.4309  -14.0883 C   0  0  0  0  0  0  0  0  0  0  0  0
   22.8626  -18.4023  -13.4158 O   0  0  0  0  0  0  0  0  0  0  0  0
   18.8570  -18.6592  -18.2296 C   0  0  0  0  0  0  0  0  0  0  0  0
   19.3894  -18.2624  -16.8847 C   0  0  2  0  0  0  0  0  0  0  0  0
   19.6385  -16.7653  -16.8138 C   0  0  0  0  0  0  0  0  0  0  0  0
   20.7128  -18.9548  -16.6540 C   0  0  0  0  0  0  0  0  0  0  0  0
   20.8806  -19.2633  -15.1638 C   0  0  2  0  0  0  0  0  0  0  0  0
   22.1402  -19.9386  -14.9602 N   0  0  0  0  0  0  0  0  0  0  0  0
   19.7538  -20.1545  -14.7680 C   0  0  0  0  0  0  0  0  0  0  0  0
   19.8150  -21.4049  -14.9032 O   0  0  0  0  0  0  0  0  0  0  0  0
   18.6180  -19.5708  -14.2394 O   0  0  0  0  0  0  0  0  0  0  0  0
  2  1  1  0
  3  2  1  0
  3  4  1  6
  5  3  1  0
  5  6  2  0
  7  8  1  0
  8 10  1  0
  9  8  2  0
 10 11  1  0
 12 11  1  1
 12 13  1  0
 13  5  1  0
 14 12  1  0
 15 14  2  0
 17 19  1  0
 17 16  1  6
 17 18  1  0
 20 19  1  6
 20 22  1  0
 20 21  1  0
 21 14  1  0
 22 24  1  0
 23 22  2  0
M  END
$$$$
