SQL.pdb
     RDKit          3D

 24 23  0  0  1  0  0  0  0  0999 V2000
   15.1486  -13.7260  -14.8276 O   0  0  0  0  0  0  0  0  0  0  0  0
   16.1194  -12.8205  -15.2541 C   0  0  0  0  0  0  0  0  0  0  0  0
   15.5297  -11.9836  -16.3708 C   0  0  2  0  0  0  0  0  0  0  0  0
   15.4046  -12.7109  -17.5975 N   0  0  0  0  0  0  0  0  0  0  0  0
   16.4174  -10.8245  -16.5847 C   0  0  0  0  0  0  0  0  0  0  0  0
   17.3852  -10.9315  -17.3711 O   0  0  0  0  0  0  0  0  0  0  0  0
   14.2490   -5.8397  -15.0018 N   0  0  0  0  0  0  0  0  0  0  0  0
   14.0326   -6.4307  -16.2638 C   0  0  0  0  0  0  0  0  0  0  0  0
   12.9214   -6.3294  -16.8172 O   0  0  0  0  0  0  0  0  0  0  0  0
   15.1323   -7.1653  -16.9151 C   0  0  0  0  0  0  0  0  0  0  0  0
   16.3657   -7.1603  -16.0668 C   0  0  0  0  0  0  0  0  0  0  0  0
   17.0880   -8.4831  -16.2180 C   0  0  2  0  0  0  0  0  0  0  0  0
   16.2148   -9.5894  -15.9307 N   0  0  0  0  0  0  0  0  0  0  0  0
   18.2430   -8.5395  -15.2625 C   0  0  0  0  0  0  0  0  0  0  0  0
   18.0762   -8.8819  -14.0680 O   0  0  0  0  0  0  0  0  0  0  0  0
   23.7626  -10.4443  -14.8398 C   0  0  0  0  0  0  0  0  0  0  0  0
   22.7644   -9.4642  -14.2990 C   0  0  2  0  0  0  0  0  0  0  0  0
   22.2444   -9.9044  -12.9409 C   0  0  0  0  0  0  0  0  0  0  0  0
   21.5820   -9.3953  -15.2378 C   0  0  0  0  0  0  0  0  0  0  0  0
   20.6683   -8.2358  -14.8320 C   0  0  2  0  0  0  0  0  0  0  0  0
   19.5254   -8.2043  -15.7135 N   0  0  0  0  0  0  0  0  0  0  0  0
   21.4582   -6.9804  -14.9753 C   0  0  0  0  0  0  0  0  0  0  0  0
   21.4798   -6.3267  -16.0513 O   0  0  0  0  0  0  0  0  0  0  0  0
   22.1808   -6.5388  -13.8832 O   0  0  0  0  0  0  0  0  0  0  0  0
  2  1  1  0
  3  2  1  0
  3  4  1  6
  5  3  1  0
  5  6  2  0
  7  8  1  0
  8 10  1  0
  9  8  2  0
 10 11  1  0
 12 11  1  1
 12 13  1  0
 13  5  1  0
 14 12  1  0
 15 14  2  0
 17 19  1  0
 17 16  1  6
 17 18  1  0
 20 19  1  6
 20 22  1  0
 20 21  1  0
 21 14  1  0
 22 24  1  0
 23 22  2  0
M  END
$$$$
