SQL.pdb
     RDKit          3D

 24 23  0  0  1  0  0  0  0  0999 V2000
   27.6654   -9.1881  -17.5696 O   0  0  0  0  0  0  0  0  0  0  0  0
   27.4615   -9.4326  -16.2121 C   0  0  0  0  0  0  0  0  0  0  0  0
   26.5830  -10.6595  -16.0776 C   0  0  2  0  0  0  0  0  0  0  0  0
   27.1466  -11.8130  -16.7111 N   0  0  0  0  0  0  0  0  0  0  0  0
   25.2806  -10.3541  -16.7004 C   0  0  0  0  0  0  0  0  0  0  0  0
   24.7625  -11.1883  -17.4762 O   0  0  0  0  0  0  0  0  0  0  0  0
   20.4165  -11.7908  -15.7160 N   0  0  0  0  0  0  0  0  0  0  0  0
   19.9750  -10.7497  -16.5586 C   0  0  0  0  0  0  0  0  0  0  0  0
   18.7798  -10.6923  -16.9045 O   0  0  0  0  0  0  0  0  0  0  0  0
   20.9408   -9.7367  -17.0214 C   0  0  0  0  0  0  0  0  0  0  0  0
   22.2998   -9.9775  -16.4415 C   0  0  0  0  0  0  0  0  0  0  0  0
   23.2732   -8.9580  -16.9958 C   0  0  2  0  0  0  0  0  0  0  0  0
   24.5914   -9.1468  -16.4522 N   0  0  0  0  0  0  0  0  0  0  0  0
   22.8141   -7.5754  -16.6379 C   0  0  0  0  0  0  0  0  0  0  0  0
   22.9986   -7.1118  -15.4878 O   0  0  0  0  0  0  0  0  0  0  0  0
   23.2444   -3.4807  -18.7692 C   0  0  0  0  0  0  0  0  0  0  0  0
   22.3684   -4.4710  -19.4772 C   0  0  2  0  0  0  0  0  0  0  0  0
   21.8180   -3.8906  -20.7690 C   0  0  0  0  0  0  0  0  0  0  0  0
   21.1905   -4.8088  -18.5927 C   0  0  0  0  0  0  0  0  0  0  0  0
   21.6864   -5.4669  -17.3024 C   0  0  2  0  0  0  0  0  0  0  0  0
   22.1703   -6.7930  -17.6042 N   0  0  0  0  0  0  0  0  0  0  0  0
   20.5243   -5.5469  -16.3730 C   0  0  0  0  0  0  0  0  0  0  0  0
   19.8221   -6.5872  -16.2733 O   0  0  0  0  0  0  0  0  0  0  0  0
   20.2263   -4.4354  -15.6076 O   0  0  0  0  0  0  0  0  0  0  0  0
  2  1  1  0
  3  2  1  0
  3  4  1  6
  5  3  1  0
  5  6  2  0
  7  8  1  0
  8 10  1  0
  9  8  2  0
 10 11  1  0
 12 11  1  1
 12 13  1  0
 13  5  1  0
 14 12  1  0
 15 14  2  0
 17 19  1  0
 17 16  1  1
 17 18  1  0
 20 19  1  6
 20 22  1  0
 20 21  1  0
 21 14  1  0
 22 24  1  0
 23 22  2  0
M  END
$$$$
