SQL.pdb
     RDKit          3D

 24 23  0  0  1  0  0  0  0  0999 V2000
   23.7025  -12.9527  -18.7719 O   0  0  0  0  0  0  0  0  0  0  0  0
   22.4741  -12.2952  -18.8264 C   0  0  0  0  0  0  0  0  0  0  0  0
   21.3823  -13.3045  -18.5358 C   0  0  2  0  0  0  0  0  0  0  0  0
   21.2044  -14.2456  -19.5998 N   0  0  0  0  0  0  0  0  0  0  0  0
   20.1232  -12.5628  -18.3311 C   0  0  0  0  0  0  0  0  0  0  0  0
   19.4176  -12.2694  -19.3223 O   0  0  0  0  0  0  0  0  0  0  0  0
   15.8065  -13.0761  -14.0290 N   0  0  0  0  0  0  0  0  0  0  0  0
   15.3669  -11.9541  -14.7617 C   0  0  0  0  0  0  0  0  0  0  0  0
   14.2388  -11.4721  -14.5463 O   0  0  0  0  0  0  0  0  0  0  0  0
   16.2547  -11.3633  -15.7794 C   0  0  0  0  0  0  0  0  0  0  0  0
   17.5292  -12.1388  -15.9041 C   0  0  0  0  0  0  0  0  0  0  0  0
   18.4336  -11.4647  -16.9150 C   0  0  2  0  0  0  0  0  0  0  0  0
   19.6807  -12.1686  -17.0494 N   0  0  0  0  0  0  0  0  0  0  0  0
   18.7335  -10.0642  -16.4688 C   0  0  0  0  0  0  0  0  0  0  0  0
   19.5195   -9.8446  -15.5171 O   0  0  0  0  0  0  0  0  0  0  0  0
   17.1208   -4.3318  -18.1667 C   0  0  0  0  0  0  0  0  0  0  0  0
   17.8189   -5.2498  -17.2079 C   0  0  2  0  0  0  0  0  0  0  0  0
   19.3177   -5.0006  -17.2030 C   0  0  0  0  0  0  0  0  0  0  0  0
   17.5975   -6.6798  -17.6439 C   0  0  0  0  0  0  0  0  0  0  0  0
   18.2821   -7.6312  -16.6590 C   0  0  2  0  0  0  0  0  0  0  0  0
   18.1255   -8.9880  -17.1265 N   0  0  0  0  0  0  0  0  0  0  0  0
   17.6060   -7.4641  -15.3416 C   0  0  0  0  0  0  0  0  0  0  0  0
   17.9423   -6.5616  -14.5306 O   0  0  0  0  0  0  0  0  0  0  0  0
   16.5826   -8.3358  -15.0209 O   0  0  0  0  0  0  0  0  0  0  0  0
  2  1  1  0
  3  2  1  0
  3  4  1  6
  5  3  1  0
  5  6  2  0
  7  8  1  0
  8 10  1  0
  9  8  2  0
 10 11  1  0
 12 11  1  1
 12 13  1  0
 13  5  1  0
 14 12  1  0
 15 14  2  0
 17 19  1  0
 17 16  1  6
 17 18  1  0
 20 19  1  6
 20 22  1  0
 20 21  1  0
 21 14  1  0
 22 24  1  0
 23 22  2  0
M  END
$$$$
