SQL.pdb
     RDKit          3D

 24 23  0  0  1  0  0  0  0  0999 V2000
   27.7280  -26.7057  -19.5397 O   0  0  0  0  0  0  0  0  0  0  0  0
   27.8993  -25.7795  -18.5115 C   0  0  0  0  0  0  0  0  0  0  0  0
   27.0611  -26.2219  -17.3297 C   0  0  2  0  0  0  0  0  0  0  0  0
   27.0588  -25.2636  -16.2662 N   0  0  0  0  0  0  0  0  0  0  0  0
   27.6169  -27.4949  -16.8319 C   0  0  0  0  0  0  0  0  0  0  0  0
   28.4552  -27.4751  -15.9028 O   0  0  0  0  0  0  0  0  0  0  0  0
   25.0426  -33.0563  -16.0946 N   0  0  0  0  0  0  0  0  0  0  0  0
   26.3378  -33.1863  -15.5520 C   0  0  0  0  0  0  0  0  0  0  0  0
   26.6218  -34.1728  -14.8466 O   0  0  0  0  0  0  0  0  0  0  0  0
   27.3445  -32.1457  -15.8290 C   0  0  0  0  0  0  0  0  0  0  0  0
   26.7478  -31.0015  -16.5879 C   0  0  0  0  0  0  0  0  0  0  0  0
   27.8100  -29.9503  -16.8343 C   0  0  2  0  0  0  0  0  0  0  0  0
   27.2360  -28.7444  -17.3682 N   0  0  0  0  0  0  0  0  0  0  0  0
   28.8125  -30.4679  -17.8230 C   0  0  0  0  0  0  0  0  0  0  0  0
   28.8756  -29.9983  -18.9837 O   0  0  0  0  0  0  0  0  0  0  0  0
   32.2005  -30.3094  -20.2612 C   0  0  0  0  0  0  0  0  0  0  0  0
   32.1203  -29.9356  -18.8109 C   0  0  2  0  0  0  0  0  0  0  0  0
   33.3636  -29.1819  -18.3697 C   0  0  0  0  0  0  0  0  0  0  0  0
   32.0340  -31.1954  -17.9806 C   0  0  0  0  0  0  0  0  0  0  0  0
   30.7432  -31.9471  -18.3165 C   0  0  2  0  0  0  0  0  0  0  0  0
   29.6895  -31.4906  -17.4417 N   0  0  0  0  0  0  0  0  0  0  0  0
   31.0043  -33.3962  -18.0881 C   0  0  0  0  0  0  0  0  0  0  0  0
   30.6807  -33.9698  -17.0149 O   0  0  0  0  0  0  0  0  0  0  0  0
   31.6205  -34.1127  -19.0966 O   0  0  0  0  0  0  0  0  0  0  0  0
  2  1  1  0
  3  2  1  0
  3  4  1  1
  5  3  1  0
  5  6  2  0
  7  8  1  0
  8 10  1  0
  9  8  2  0
 10 11  1  0
 12 11  1  6
 12 13  1  0
 13  5  1  0
 14 12  1  0
 15 14  2  0
 17 19  1  0
 17 16  1  6
 17 18  1  0
 20 19  1  1
 20 22  1  0
 20 21  1  0
 21 14  1  0
 22 24  1  0
 23 22  2  0
M  END
$$$$
