SQL.pdb
     RDKit          3D

 24 23  0  0  1  0  0  0  0  0999 V2000
   19.0067  -22.6613   -9.5670 O   0  0  0  0  0  0  0  0  0  0  0  0
   18.0761  -23.2916   -8.7417 C   0  0  0  0  0  0  0  0  0  0  0  0
   18.5517  -24.7067   -8.4844 C   0  0  2  0  0  0  0  0  0  0  0  0
   18.4366  -25.5452   -9.6390 N   0  0  0  0  0  0  0  0  0  0  0  0
   17.7305  -25.2691   -7.3950 C   0  0  0  0  0  0  0  0  0  0  0  0
   16.6000  -25.7365   -7.6594 O   0  0  0  0  0  0  0  0  0  0  0  0
   16.9842  -26.8280   -0.6103 N   0  0  0  0  0  0  0  0  0  0  0  0
   17.7597  -27.3371   -1.6725 C   0  0  0  0  0  0  0  0  0  0  0  0
   18.8874  -27.8155   -1.4474 O   0  0  0  0  0  0  0  0  0  0  0  0
   17.2211  -27.2957   -3.0442 C   0  0  0  0  0  0  0  0  0  0  0  0
   18.1395  -26.5551   -3.9658 C   0  0  0  0  0  0  0  0  0  0  0  0
   17.3262  -25.8613   -5.0387 C   0  0  2  0  0  0  0  0  0  0  0  0
   18.1753  -25.3002   -6.0552 N   0  0  0  0  0  0  0  0  0  0  0  0
   16.5306  -24.7463   -4.4270 C   0  0  0  0  0  0  0  0  0  0  0  0
   17.0455  -23.6210   -4.2262 O   0  0  0  0  0  0  0  0  0  0  0  0
   13.3993  -22.2560   -5.6122 C   0  0  0  0  0  0  0  0  0  0  0  0
   12.9378  -23.6727   -5.4409 C   0  0  2  0  0  0  0  0  0  0  0  0
   11.5092  -23.8464   -5.9281 C   0  0  0  0  0  0  0  0  0  0  0  0
   12.9629  -24.0256   -3.9716 C   0  0  0  0  0  0  0  0  0  0  0  0
   14.3981  -23.9414   -3.4453 C   0  0  2  0  0  0  0  0  0  0  0  0
   15.1935  -24.9679   -4.0760 N   0  0  0  0  0  0  0  0  0  0  0  0
   14.3427  -24.1705   -1.9739 C   0  0  0  0  0  0  0  0  0  0  0  0
   14.5773  -25.2988   -1.4667 O   0  0  0  0  0  0  0  0  0  0  0  0
   14.0228  -23.0997   -1.1609 O   0  0  0  0  0  0  0  0  0  0  0  0
  2  1  1  0
  3  2  1  0
  3  4  1  6
  5  3  1  0
  5  6  2  0
  7  8  1  0
  8 10  1  0
  9  8  2  0
 10 11  1  0
 12 11  1  1
 12 13  1  0
 13  5  1  0
 14 12  1  0
 15 14  2  0
 17 19  1  0
 17 16  1  1
 17 18  1  0
 20 19  1  6
 20 22  1  0
 20 21  1  0
 21 14  1  0
 22 24  1  0
 23 22  2  0
M  END
$$$$
