SQL.pdb
     RDKit          3D

 24 23  0  0  1  0  0  0  0  0999 V2000
   25.1383  -32.3411   -8.6006 O   0  0  0  0  0  0  0  0  0  0  0  0
   26.3402  -33.0255   -8.7772 C   0  0  0  0  0  0  0  0  0  0  0  0
   26.0232  -34.4876   -9.0156 C   0  0  2  0  0  0  0  0  0  0  0  0
   24.9358  -34.6741   -9.9279 N   0  0  0  0  0  0  0  0  0  0  0  0
   25.6728  -35.0925   -7.7161 C   0  0  0  0  0  0  0  0  0  0  0  0
   24.4711  -35.1480   -7.3709 O   0  0  0  0  0  0  0  0  0  0  0  0
   29.2370  -38.6011   -3.7658 N   0  0  0  0  0  0  0  0  0  0  0  0
   27.9351  -39.1406   -3.8196 C   0  0  0  0  0  0  0  0  0  0  0  0
   27.6994  -40.2518   -3.3087 O   0  0  0  0  0  0  0  0  0  0  0  0
   26.8638  -38.3766   -4.4843 C   0  0  0  0  0  0  0  0  0  0  0  0
   27.3819  -37.0869   -5.0407 C   0  0  0  0  0  0  0  0  0  0  0  0
   26.2367  -36.3019   -5.6460 C   0  0  2  0  0  0  0  0  0  0  0  0
   26.6496  -35.6150   -6.8404 N   0  0  0  0  0  0  0  0  0  0  0  0
   25.7514  -35.2782   -4.6627 C   0  0  0  0  0  0  0  0  0  0  0  0
   26.3736  -34.2035   -4.4901 O   0  0  0  0  0  0  0  0  0  0  0  0
   20.5388  -33.8904   -1.8636 C   0  0  0  0  0  0  0  0  0  0  0  0
   21.9559  -33.5088   -2.1726 C   0  0  2  0  0  0  0  0  0  0  0  0
   22.0254  -32.1345   -2.8170 C   0  0  0  0  0  0  0  0  0  0  0  0
   22.5310  -34.5015   -3.1564 C   0  0  0  0  0  0  0  0  0  0  0  0
   24.0532  -34.5573   -3.0027 C   0  0  2  0  0  0  0  0  0  0  0  0
   24.5861  -35.5287   -3.9281 N   0  0  0  0  0  0  0  0  0  0  0  0
   24.3402  -34.9760   -1.6017 C   0  0  0  0  0  0  0  0  0  0  0  0
   24.2194  -36.1718   -1.2263 O   0  0  0  0  0  0  0  0  0  0  0  0
   24.7495  -34.0076   -0.7046 O   0  0  0  0  0  0  0  0  0  0  0  0
  2  1  1  0
  3  2  1  0
  3  4  1  6
  5  3  1  0
  5  6  2  0
  7  8  1  0
  8 10  1  0
  9  8  2  0
 10 11  1  0
 12 11  1  1
 12 13  1  0
 13  5  1  0
 14 12  1  0
 15 14  2  0
 17 19  1  0
 17 16  1  6
 17 18  1  0
 20 19  1  1
 20 22  1  0
 20 21  1  0
 21 14  1  0
 22 24  1  0
 23 22  2  0
M  END
$$$$
