SQL.pdb
     RDKit          3D

 24 23  0  0  1  0  0  0  0  0999 V2000
   23.4934  -21.6334   -9.4341 O   0  0  0  0  0  0  0  0  0  0  0  0
   23.6440  -20.7476  -10.5003 C   0  0  0  0  0  0  0  0  0  0  0  0
   24.7721  -21.2492  -11.3783 C   0  0  2  0  0  0  0  0  0  0  0  0
   26.0452  -21.1922  -10.7260 N   0  0  0  0  0  0  0  0  0  0  0  0
   24.8116  -20.4073  -12.5895 C   0  0  0  0  0  0  0  0  0  0  0  0
   25.4463  -19.3289  -12.5649 O   0  0  0  0  0  0  0  0  0  0  0  0
   28.6842  -21.4318  -15.1191 N   0  0  0  0  0  0  0  0  0  0  0  0
   27.2907  -21.5640  -15.2912 C   0  0  0  0  0  0  0  0  0  0  0  0
   26.7009  -22.5688  -14.8508 O   0  0  0  0  0  0  0  0  0  0  0  0
   26.5463  -20.5039  -15.9949 C   0  0  0  0  0  0  0  0  0  0  0  0
   25.0810  -20.8075  -16.0392 C   0  0  0  0  0  0  0  0  0  0  0  0
   24.3656  -19.9988  -14.9770 C   0  0  2  0  0  0  0  0  0  0  0  0
   24.1553  -20.7750  -13.7845 N   0  0  0  0  0  0  0  0  0  0  0  0
   23.0261  -19.5621  -15.4922 C   0  0  0  0  0  0  0  0  0  0  0  0
   22.0267  -20.3148  -15.4106 O   0  0  0  0  0  0  0  0  0  0  0  0
   20.7097  -14.7832  -18.5922 C   0  0  0  0  0  0  0  0  0  0  0  0
   20.4591  -15.8866  -17.6077 C   0  0  2  0  0  0  0  0  0  0  0  0
   19.6592  -15.3870  -16.4164 C   0  0  0  0  0  0  0  0  0  0  0  0
   21.7840  -16.3924  -17.0856 C   0  0  0  0  0  0  0  0  0  0  0  0
   21.6329  -17.8406  -16.6124 C   0  0  2  0  0  0  0  0  0  0  0  0
   22.8923  -18.2948  -16.0722 N   0  0  0  0  0  0  0  0  0  0  0  0
   21.2636  -18.6575  -17.8026 C   0  0  0  0  0  0  0  0  0  0  0  0
   22.1250  -19.0546  -18.6307 O   0  0  0  0  0  0  0  0  0  0  0  0
   19.9313  -18.9773  -17.9837 O   0  0  0  0  0  0  0  0  0  0  0  0
  2  1  1  0
  3  2  1  0
  3  4  1  1
  5  3  1  0
  5  6  2  0
  7  8  1  0
  8 10  1  0
  9  8  2  0
 10 11  1  0
 12 11  1  6
 12 13  1  0
 13  5  1  0
 14 12  1  0
 15 14  2  0
 17 19  1  0
 17 16  1  6
 17 18  1  0
 20 19  1  6
 20 22  1  0
 20 21  1  0
 21 14  1  0
 22 24  1  0
 23 22  2  0
M  END
$$$$
