SQL.pdb
     RDKit          3D

 24 23  0  0  1  0  0  0  0  0999 V2000
   15.9978  -13.7423  -14.7538 O   0  0  0  0  0  0  0  0  0  0  0  0
   15.1494  -12.6375  -14.8154 C   0  0  0  0  0  0  0  0  0  0  0  0
   14.9951  -12.2381  -16.2685 C   0  0  2  0  0  0  0  0  0  0  0  0
   14.8785  -13.3670  -17.1410 N   0  0  0  0  0  0  0  0  0  0  0  0
   16.1845  -11.4528  -16.6507 C   0  0  0  0  0  0  0  0  0  0  0  0
   16.9797  -11.9190  -17.4972 O   0  0  0  0  0  0  0  0  0  0  0  0
   16.5539   -5.3824  -17.4774 N   0  0  0  0  0  0  0  0  0  0  0  0
   17.8417   -5.8320  -17.8356 C   0  0  0  0  0  0  0  0  0  0  0  0
   18.6344   -5.0603  -18.4079 O   0  0  0  0  0  0  0  0  0  0  0  0
   18.2344   -7.2187  -17.5257 C   0  0  0  0  0  0  0  0  0  0  0  0
   17.0972   -7.9830  -16.9227 C   0  0  0  0  0  0  0  0  0  0  0  0
   17.5435   -9.3989  -16.6223 C   0  0  2  0  0  0  0  0  0  0  0  0
   16.4615  -10.1853  -16.0933 N   0  0  0  0  0  0  0  0  0  0  0  0
   18.6450   -9.3755  -15.6041 C   0  0  0  0  0  0  0  0  0  0  0  0
   18.3924   -9.2436  -14.3832 O   0  0  0  0  0  0  0  0  0  0  0  0
   24.6882  -10.5612  -15.3919 C   0  0  0  0  0  0  0  0  0  0  0  0
   23.4644   -9.9917  -14.7382 C   0  0  2  0  0  0  0  0  0  0  0  0
   23.1071  -10.7621  -13.4783 C   0  0  0  0  0  0  0  0  0  0  0  0
   22.2962  -10.1100  -15.6897 C   0  0  0  0  0  0  0  0  0  0  0  0
   21.0741   -9.4041  -15.0963 C   0  0  2  0  0  0  0  0  0  0  0  0
   19.9740   -9.5030  -16.0258 N   0  0  0  0  0  0  0  0  0  0  0  0
   21.4448   -7.9750  -14.8944 C   0  0  0  0  0  0  0  0  0  0  0  0
   21.8037   -7.5327  -13.7715 O   0  0  0  0  0  0  0  0  0  0  0  0
   21.3860   -7.1278  -15.9847 O   0  0  0  0  0  0  0  0  0  0  0  0
  2  1  1  0
  3  2  1  0
  3  4  1  6
  5  3  1  0
  5  6  2  0
  7  8  1  0
  8 10  1  0
  9  8  2  0
 10 11  1  0
 12 11  1  1
 12 13  1  0
 13  5  1  0
 14 12  1  0
 15 14  2  0
 17 19  1  0
 17 16  1  6
 17 18  1  0
 20 19  1  6
 20 22  1  0
 20 21  1  0
 21 14  1  0
 22 24  1  0
 23 22  2  0
M  END
$$$$
