SQL.pdb
     RDKit          3D

 24 23  0  0  1  0  0  0  0  0999 V2000
   28.6334  -21.2975  -15.3769 O   0  0  0  0  0  0  0  0  0  0  0  0
   28.1009  -21.3753  -14.0906 C   0  0  0  0  0  0  0  0  0  0  0  0
   26.6458  -20.9585  -14.1533 C   0  0  2  0  0  0  0  0  0  0  0  0
   26.3486  -20.1669  -15.3085 N   0  0  0  0  0  0  0  0  0  0  0  0
   26.3471  -20.1738  -12.9399 C   0  0  0  0  0  0  0  0  0  0  0  0
   26.1818  -18.9369  -13.0361 O   0  0  0  0  0  0  0  0  0  0  0  0
   21.5697  -19.9113  -10.6188 N   0  0  0  0  0  0  0  0  0  0  0  0
   22.2171  -21.0212  -11.2000 C   0  0  0  0  0  0  0  0  0  0  0  0
   21.5455  -21.9352  -11.7148 O   0  0  0  0  0  0  0  0  0  0  0  0
   23.6898  -21.0847  -11.1903 C   0  0  0  0  0  0  0  0  0  0  0  0
   24.2804  -19.8860  -10.5153 C   0  0  0  0  0  0  0  0  0  0  0  0
   25.7916  -19.9815  -10.5481 C   0  0  2  0  0  0  0  0  0  0  0  0
   26.2399  -20.7701  -11.6644 N   0  0  0  0  0  0  0  0  0  0  0  0
   26.2836  -20.6321   -9.2892 C   0  0  0  0  0  0  0  0  0  0  0  0
   26.2045  -21.8733   -9.1308 O   0  0  0  0  0  0  0  0  0  0  0  0
   29.0240  -18.8108   -4.0655 C   0  0  0  0  0  0  0  0  0  0  0  0
   28.5882  -19.9334   -4.9595 C   0  0  2  0  0  0  0  0  0  0  0  0
   29.7397  -20.8811   -5.2502 C   0  0  0  0  0  0  0  0  0  0  0  0
   28.1258  -19.3617   -6.2798 C   0  0  0  0  0  0  0  0  0  0  0  0
   27.3238  -20.4169   -7.0461 C   0  0  2  0  0  0  0  0  0  0  0  0
   26.8391  -19.8396   -8.2774 N   0  0  0  0  0  0  0  0  0  0  0  0
   26.1765  -20.8128   -6.1817 C   0  0  0  0  0  0  0  0  0  0  0  0
   25.0470  -20.2654   -6.2824 O   0  0  0  0  0  0  0  0  0  0  0  0
   26.3798  -21.8121   -5.2489 O   0  0  0  0  0  0  0  0  0  0  0  0
  2  1  1  0
  3  2  1  0
  3  4  1  6
  5  3  1  0
  5  6  2  0
  7  8  1  0
  8 10  1  0
  9  8  2  0
 10 11  1  0
 12 11  1  1
 12 13  1  0
 13  5  1  0
 14 12  1  0
 15 14  2  0
 17 19  1  0
 17 16  1  1
 17 18  1  0
 20 19  1  1
 20 22  1  0
 20 21  1  0
 21 14  1  0
 22 24  1  0
 23 22  2  0
M  END
$$$$
