FKW.pdb
     RDKit          3D

 35 37  0  0  1  0  0  0  0  0999 V2000
    5.6360  -17.9374   24.7954 N   0  0  0  0  0  0  0  0  0  0  0  0
    5.9173  -16.5345   24.6910 C   0  0  1  0  0  0  0  0  0  0  0  0
    5.9514  -15.9133   26.0570 C   0  0  0  0  0  0  0  0  0  0  0  0
    5.9150  -14.4441   26.0380 C   0  0  0  0  0  0  0  0  0  0  0  0
    7.0491  -13.6929   26.2293 C   0  0  0  0  0  0  0  0  0  0  0  0
    6.9836  -12.2985   26.2031 C   0  0  0  0  0  0  0  0  0  0  0  0
    5.7901  -11.6447   25.9865 C   0  0  0  0  0  0  0  0  0  0  0  0
    4.6579  -12.3953   25.7956 C   0  0  0  0  0  0  0  0  0  0  0  0
    4.7389  -13.7654   25.8242 C   0  0  0  0  0  0  0  0  0  0  0  0
    7.2014  -16.3455   23.9524 C   0  0  0  0  0  0  0  0  0  0  0  0
    8.1188  -17.2177   23.9986 O   0  0  0  0  0  0  0  0  0  0  0  0
    7.4354  -15.1839   23.1757 N   0  0  0  0  0  0  0  0  0  0  0  0
    8.6176  -15.1209   22.2765 C   0  0  1  0  0  0  0  0  0  0  0  0
    8.5032  -13.8724   21.4542 C   0  0  0  0  0  0  0  0  0  0  0  0
    7.7701  -14.0511   20.1643 C   0  0  0  0  0  0  0  0  0  0  0  0
    8.6424  -13.5990   18.9844 C   0  0  0  0  0  0  0  0  0  0  0  0
    7.8555  -13.8323   17.7082 C   0  0  0  0  0  0  0  0  0  0  0  0
    8.6441  -13.4463   16.5583 N   0  0  0  0  0  0  0  0  0  0  0  0
    9.8046  -15.2234   23.1276 C   0  0  0  0  0  0  0  0  0  0  0  0
   10.1153  -14.2139   23.8493 O   0  0  0  0  0  0  0  0  0  0  0  0
   10.5921  -16.3900   23.1709 N   0  0  0  0  0  0  0  0  0  0  0  0
   11.9378  -16.3024   23.7543 C   0  0  1  0  0  0  0  0  0  0  0  0
   11.9545  -17.2523   24.9144 C   0  0  0  0  0  0  0  0  0  0  0  0
   11.2372  -16.8321   26.1251 C   0  0  0  0  0  0  0  0  0  0  0  0
   10.0381  -17.3917   26.5990 C   0  0  0  0  0  0  0  0  0  0  0  0
    9.6565  -16.7527   27.6892 N   0  0  0  0  0  0  0  0  0  0  0  0
   10.5226  -15.7689   28.0146 C   0  0  0  0  0  0  0  0  0  0  0  0
   10.5393  -14.8691   29.0604 C   0  0  0  0  0  0  0  0  0  0  0  0
   11.5868  -13.9775   29.1409 C   0  0  0  0  0  0  0  0  0  0  0  0
   12.5747  -14.0258   28.1681 C   0  0  0  0  0  0  0  0  0  0  0  0
   12.5471  -14.9272   27.1292 C   0  0  0  0  0  0  0  0  0  0  0  0
   11.5090  -15.8193   27.0379 C   0  0  0  0  0  0  0  0  0  0  0  0
   12.9078  -16.6207   22.7071 C   0  0  0  0  0  0  0  0  0  0  0  0
   14.1473  -16.5593   22.9724 O   0  0  0  0  0  0  0  0  0  0  0  0
   12.5908  -17.0012   21.4088 O   0  0  0  0  0  0  0  0  0  0  0  0
  2  1  1  1
  2  3  1  0
  3  4  1  0
  4  5  2  0
  5  6  1  0
  7  6  2  0
  8  7  1  0
  9  8  2  0
  9  4  1  0
 10  2  1  0
 11 10  2  0
 12 10  1  0
 13 19  1  0
 13 12  1  0
 13 14  1  1
 15 14  1  0
 16 17  1  0
 16 15  1  0
 18 17  1  0
 19 21  1  0
 20 19  2  0
 21 22  1  0
 22 23  1  1
 22 33  1  0
 24 23  1  0
 25 24  2  0
 26 27  1  0
 26 25  1  0
 27 32  2  0
 28 29  2  0
 28 27  1  0
 29 30  1  0
 30 31  2  0
 32 24  1  0
 32 31  1  0
 33 34  2  0
 33 35  1  0
M  END
$$$$
