FKW.pdb
     RDKit          3D

 35 37  0  0  1  0  0  0  0  0999 V2000
    6.0825  -18.1253   25.1930 N   0  0  0  0  0  0  0  0  0  0  0  0
    6.3718  -16.7315   25.0147 C   0  0  1  0  0  0  0  0  0  0  0  0
    6.8961  -16.1470   26.2938 C   0  0  0  0  0  0  0  0  0  0  0  0
    6.8396  -14.6789   26.3383 C   0  0  0  0  0  0  0  0  0  0  0  0
    5.6850  -14.0121   26.6689 C   0  0  0  0  0  0  0  0  0  0  0  0
    5.6629  -12.6165   26.7053 C   0  0  0  0  0  0  0  0  0  0  0  0
    6.7887  -11.8777   26.4132 C   0  0  0  0  0  0  0  0  0  0  0  0
    7.9414  -12.5441   26.0830 C   0  0  0  0  0  0  0  0  0  0  0  0
    7.9469  -13.9164   26.0517 C   0  0  0  0  0  0  0  0  0  0  0  0
    7.3343  -16.5712   23.8842 C   0  0  0  0  0  0  0  0  0  0  0  0
    8.2477  -17.4235   23.6749 O   0  0  0  0  0  0  0  0  0  0  0  0
    7.2572  -15.4600   23.0087 N   0  0  0  0  0  0  0  0  0  0  0  0
    8.2354  -15.3244   21.8974 C   0  0  1  0  0  0  0  0  0  0  0  0
    7.7778  -14.2000   21.0173 C   0  0  0  0  0  0  0  0  0  0  0  0
    8.6325  -13.9758   19.8122 C   0  0  0  0  0  0  0  0  0  0  0  0
    7.8564  -14.3192   18.5327 C   0  0  0  0  0  0  0  0  0  0  0  0
    8.7759  -14.0735   17.3509 C   0  0  0  0  0  0  0  0  0  0  0  0
    8.0412  -14.2041   16.1115 N   0  0  0  0  0  0  0  0  0  0  0  0
    9.5553  -15.1644   22.5105 C   0  0  0  0  0  0  0  0  0  0  0  0
    9.9084  -13.9912   22.8787 O   0  0  0  0  0  0  0  0  0  0  0  0
   10.4243  -16.2554   22.7041 N   0  0  0  0  0  0  0  0  0  0  0  0
   11.8290  -15.9787   23.0345 C   0  0  1  0  0  0  0  0  0  0  0  0
   11.8090  -15.1074   24.2547 C   0  0  0  0  0  0  0  0  0  0  0  0
   11.3953  -15.7401   25.5138 C   0  0  0  0  0  0  0  0  0  0  0  0
   11.4818  -17.1126   25.8044 C   0  0  0  0  0  0  0  0  0  0  0  0
   10.9919  -17.3376   27.0094 N   0  0  0  0  0  0  0  0  0  0  0  0
   10.5628  -16.1962   27.5899 C   0  0  0  0  0  0  0  0  0  0  0  0
   10.0027  -15.9492   28.8263 C   0  0  0  0  0  0  0  0  0  0  0  0
    9.6791  -14.6498   29.1513 C   0  0  0  0  0  0  0  0  0  0  0  0
    9.9311  -13.6515   28.2215 C   0  0  0  0  0  0  0  0  0  0  0  0
   10.4895  -13.9099   26.9910 C   0  0  0  0  0  0  0  0  0  0  0  0
   10.8153  -15.1995   26.6558 C   0  0  0  0  0  0  0  0  0  0  0  0
   12.5108  -17.2584   23.2251 C   0  0  0  0  0  0  0  0  0  0  0  0
   13.7608  -17.2672   23.4442 O   0  0  0  0  0  0  0  0  0  0  0  0
   11.8991  -18.5058   23.1932 O   0  0  0  0  0  0  0  0  0  0  0  0
  2  1  1  1
  2  3  1  0
  3  4  1  0
  4  5  2  0
  5  6  1  0
  7  6  2  0
  8  7  1  0
  9  8  2  0
  9  4  1  0
 10  2  1  0
 11 10  2  0
 12 10  1  0
 13 19  1  0
 13 12  1  0
 13 14  1  1
 15 14  1  0
 16 17  1  0
 16 15  1  0
 18 17  1  0
 19 21  1  0
 20 19  2  0
 21 22  1  0
 22 23  1  1
 22 33  1  0
 24 23  1  0
 25 24  2  0
 26 27  1  0
 26 25  1  0
 27 32  2  0
 28 29  2  0
 28 27  1  0
 29 30  1  0
 30 31  2  0
 32 24  1  0
 32 31  1  0
 33 34  2  0
 33 35  1  0
M  END
$$$$
