FKW.pdb
     RDKit          3D

 35 37  0  0  1  0  0  0  0  0999 V2000
    6.5915  -20.4872   23.2145 N   0  0  0  0  0  0  0  0  0  0  0  0
    6.3422  -19.1011   23.4877 C   0  0  1  0  0  0  0  0  0  0  0  0
    6.7174  -18.7803   24.9052 C   0  0  0  0  0  0  0  0  0  0  0  0
    6.5054  -19.8960   25.8384 C   0  0  0  0  0  0  0  0  0  0  0  0
    5.2575  -20.4288   26.0526 C   0  0  0  0  0  0  0  0  0  0  0  0
    5.0879  -21.4904   26.9435 C   0  0  0  0  0  0  0  0  0  0  0  0
    6.1584  -22.0270   27.6253 C   0  0  0  0  0  0  0  0  0  0  0  0
    7.4043  -21.4946   27.4110 C   0  0  0  0  0  0  0  0  0  0  0  0
    7.5545  -20.4510   26.5320 C   0  0  0  0  0  0  0  0  0  0  0  0
    7.0904  -18.2647   22.5025 C   0  0  0  0  0  0  0  0  0  0  0  0
    8.0898  -18.7263   21.8758 O   0  0  0  0  0  0  0  0  0  0  0  0
    6.7066  -16.9271   22.2365 N   0  0  0  0  0  0  0  0  0  0  0  0
    7.6015  -16.0446   21.4423 C   0  0  1  0  0  0  0  0  0  0  0  0
    6.8018  -14.8545   21.0038 C   0  0  0  0  0  0  0  0  0  0  0  0
    7.5891  -13.8254   20.2593 C   0  0  0  0  0  0  0  0  0  0  0  0
    7.7236  -14.2187   18.7813 C   0  0  0  0  0  0  0  0  0  0  0  0
    8.6709  -13.2335   18.1222 C   0  0  0  0  0  0  0  0  0  0  0  0
    8.8096  -13.5398   16.7151 N   0  0  0  0  0  0  0  0  0  0  0  0
    8.7697  -15.7614   22.2782 C   0  0  0  0  0  0  0  0  0  0  0  0
    9.7787  -15.1982   21.7294 O   0  0  0  0  0  0  0  0  0  0  0  0
    8.8018  -16.0851   23.6483 N   0  0  0  0  0  0  0  0  0  0  0  0
   10.0070  -15.7463   24.4174 C   0  0  1  0  0  0  0  0  0  0  0  0
    9.6760  -14.5043   25.1898 C   0  0  0  0  0  0  0  0  0  0  0  0
    8.2817  -14.3455   25.6231 C   0  0  0  0  0  0  0  0  0  0  0  0
    7.3171  -15.3672   25.6596 C   0  0  0  0  0  0  0  0  0  0  0  0
    6.1647  -14.8681   26.0665 N   0  0  0  0  0  0  0  0  0  0  0  0
    6.2611  -13.5454   26.3216 C   0  0  0  0  0  0  0  0  0  0  0  0
    5.3354  -12.6277   26.7736 C   0  0  0  0  0  0  0  0  0  0  0  0
    5.7423  -11.3246   26.9613 C   0  0  0  0  0  0  0  0  0  0  0  0
    7.0621  -10.9963   26.6873 C   0  0  0  0  0  0  0  0  0  0  0  0
    7.9762  -11.9200   26.2361 C   0  0  0  0  0  0  0  0  0  0  0  0
    7.5829  -13.2201   26.0448 C   0  0  0  0  0  0  0  0  0  0  0  0
   10.3501  -16.8962   25.2533 C   0  0  0  0  0  0  0  0  0  0  0  0
   11.4052  -16.8569   25.9573 O   0  0  0  0  0  0  0  0  0  0  0  0
    9.6035  -18.0637   25.3570 O   0  0  0  0  0  0  0  0  0  0  0  0
  2  1  1  6
  2  3  1  0
  3  4  1  0
  4  5  2  0
  5  6  1  0
  7  6  2  0
  8  7  1  0
  9  8  2  0
  9  4  1  0
 10  2  1  0
 11 10  2  0
 12 10  1  0
 13 19  1  0
 13 12  1  0
 13 14  1  1
 15 14  1  0
 16 17  1  0
 16 15  1  0
 18 17  1  0
 19 21  1  0
 20 19  2  0
 21 22  1  0
 22 23  1  1
 22 33  1  0
 24 23  1  0
 25 24  2  0
 26 27  1  0
 26 25  1  0
 27 32  2  0
 28 29  2  0
 28 27  1  0
 29 30  1  0
 30 31  2  0
 32 24  1  0
 32 31  1  0
 33 34  2  0
 33 35  1  0
M  END
$$$$
