FKW.pdb
     RDKit          3D

 35 37  0  0  1  0  0  0  0  0999 V2000
    5.8611  -18.1389   25.1711 N   0  0  0  0  0  0  0  0  0  0  0  0
    6.3945  -16.8363   24.8946 C   0  0  1  0  0  0  0  0  0  0  0  0
    7.1288  -16.3152   26.0954 C   0  0  0  0  0  0  0  0  0  0  0  0
    7.3243  -14.8585   26.0812 C   0  0  0  0  0  0  0  0  0  0  0  0
    8.3688  -14.2784   25.4034 C   0  0  0  0  0  0  0  0  0  0  0  0
    8.5270  -12.8912   25.4060 C   0  0  0  0  0  0  0  0  0  0  0  0
    7.6472  -12.0745   26.0825 C   0  0  0  0  0  0  0  0  0  0  0  0
    6.6043  -12.6543   26.7592 C   0  0  0  0  0  0  0  0  0  0  0  0
    6.4625  -14.0196   26.7470 C   0  0  0  0  0  0  0  0  0  0  0  0
    7.2689  -16.9107   23.6863 C   0  0  0  0  0  0  0  0  0  0  0  0
    7.9516  -17.9474   23.4339 O   0  0  0  0  0  0  0  0  0  0  0  0
    7.3634  -15.8237   22.7825 N   0  0  0  0  0  0  0  0  0  0  0  0
    8.1218  -15.9805   21.5134 C   0  0  1  0  0  0  0  0  0  0  0  0
    7.6579  -14.9144   20.5665 C   0  0  0  0  0  0  0  0  0  0  0  0
    8.2770  -14.9871   19.2083 C   0  0  0  0  0  0  0  0  0  0  0  0
    7.8005  -13.8152   18.3383 C   0  0  0  0  0  0  0  0  0  0  0  0
    8.3834  -13.9999   16.9496 C   0  0  0  0  0  0  0  0  0  0  0  0
    7.8068  -13.0390   16.0346 N   0  0  0  0  0  0  0  0  0  0  0  0
    9.5435  -15.9558   21.8624 C   0  0  0  0  0  0  0  0  0  0  0  0
   10.3961  -16.0965   20.9192 O   0  0  0  0  0  0  0  0  0  0  0  0
    9.9823  -15.7783   23.1887 N   0  0  0  0  0  0  0  0  0  0  0  0
   11.4081  -15.5109   23.4222 C   0  0  1  0  0  0  0  0  0  0  0  0
   11.4824  -14.7048   24.6844 C   0  0  0  0  0  0  0  0  0  0  0  0
   11.2045  -15.4137   25.9403 C   0  0  0  0  0  0  0  0  0  0  0  0
   11.4349  -16.7803   26.1744 C   0  0  0  0  0  0  0  0  0  0  0  0
   11.0402  -17.0889   27.3957 N   0  0  0  0  0  0  0  0  0  0  0  0
   10.5422  -16.0123   28.0414 C   0  0  0  0  0  0  0  0  0  0  0  0
   10.0358  -15.8590   29.3155 C   0  0  0  0  0  0  0  0  0  0  0  0
    9.6128  -14.6071   29.7062 C   0  0  0  0  0  0  0  0  0  0  0  0
    9.7156  -13.5603   28.8015 C   0  0  0  0  0  0  0  0  0  0  0  0
   10.2217  -13.7254   27.5330 C   0  0  0  0  0  0  0  0  0  0  0  0
   10.6454  -14.9671   27.1323 C   0  0  0  0  0  0  0  0  0  0  0  0
   12.1051  -16.7947   23.4911 C   0  0  0  0  0  0  0  0  0  0  0  0
   13.3674  -16.8212   23.3631 O   0  0  0  0  0  0  0  0  0  0  0  0
   11.4973  -18.0276   23.6950 O   0  0  0  0  0  0  0  0  0  0  0  0
  2  1  1  1
  2  3  1  0
  3  4  1  0
  4  5  2  0
  5  6  1  0
  7  6  2  0
  8  7  1  0
  9  8  2  0
  9  4  1  0
 10  2  1  0
 11 10  2  0
 12 10  1  0
 13 19  1  0
 13 12  1  0
 13 14  1  6
 15 14  1  0
 16 17  1  0
 16 15  1  0
 18 17  1  0
 19 21  1  0
 20 19  2  0
 21 22  1  0
 22 23  1  1
 22 33  1  0
 24 23  1  0
 25 24  2  0
 26 27  1  0
 26 25  1  0
 27 32  2  0
 28 29  2  0
 28 27  1  0
 29 30  1  0
 30 31  2  0
 32 24  1  0
 32 31  1  0
 33 34  2  0
 33 35  1  0
M  END
$$$$
