FKW.pdb
     RDKit          3D

 35 37  0  0  1  0  0  0  0  0999 V2000
    6.7217  -17.7494   25.8756 N   0  0  0  0  0  0  0  0  0  0  0  0
    6.9281  -16.8624   24.7672 C   0  0  1  0  0  0  0  0  0  0  0  0
    7.9390  -15.8135   25.1286 C   0  0  0  0  0  0  0  0  0  0  0  0
    7.4111  -14.7655   26.0138 C   0  0  0  0  0  0  0  0  0  0  0  0
    6.0830  -14.4148   26.0027 C   0  0  0  0  0  0  0  0  0  0  0  0
    5.6104  -13.4171   26.8574 C   0  0  0  0  0  0  0  0  0  0  0  0
    6.4563  -12.7636   27.7270 C   0  0  0  0  0  0  0  0  0  0  0  0
    7.7825  -13.1142   27.7376 C   0  0  0  0  0  0  0  0  0  0  0  0
    8.2315  -14.0971   26.8911 C   0  0  0  0  0  0  0  0  0  0  0  0
    7.3418  -17.6579   23.5730 C   0  0  0  0  0  0  0  0  0  0  0  0
    7.8402  -18.8157   23.6971 O   0  0  0  0  0  0  0  0  0  0  0  0
    7.1903  -17.1431   22.2617 N   0  0  0  0  0  0  0  0  0  0  0  0
    7.9503  -17.7488   21.1367 C   0  0  1  0  0  0  0  0  0  0  0  0
    7.2205  -17.4316   19.8659 C   0  0  0  0  0  0  0  0  0  0  0  0
    7.7998  -18.0745   18.6476 C   0  0  0  0  0  0  0  0  0  0  0  0
    7.0868  -17.5704   17.3847 C   0  0  0  0  0  0  0  0  0  0  0  0
    7.7720  -18.1947   16.1833 C   0  0  0  0  0  0  0  0  0  0  0  0
    7.0329  -17.8956   14.9762 N   0  0  0  0  0  0  0  0  0  0  0  0
    9.3225  -17.2470   21.2323 C   0  0  0  0  0  0  0  0  0  0  0  0
    9.9287  -16.9454   20.1470 O   0  0  0  0  0  0  0  0  0  0  0  0
    9.9731  -17.0877   22.4709 N   0  0  0  0  0  0  0  0  0  0  0  0
   11.4080  -16.7714   22.4699 C   0  0  1  0  0  0  0  0  0  0  0  0
   11.5327  -15.3912   21.8973 C   0  0  0  0  0  0  0  0  0  0  0  0
   10.3123  -14.5747   21.8649 C   0  0  0  0  0  0  0  0  0  0  0  0
    9.5354  -14.2235   22.9823 C   0  0  0  0  0  0  0  0  0  0  0  0
    8.4943  -13.5144   22.5874 N   0  0  0  0  0  0  0  0  0  0  0  0
    8.4919  -13.3432   21.2478 C   0  0  0  0  0  0  0  0  0  0  0  0
    7.6262  -12.6713   20.4095 C   0  0  0  0  0  0  0  0  0  0  0  0
    7.9020  -12.6547   19.0596 C   0  0  0  0  0  0  0  0  0  0  0  0
    9.0358  -13.3135   18.6064 C   0  0  0  0  0  0  0  0  0  0  0  0
    9.8915  -13.9810   19.4518 C   0  0  0  0  0  0  0  0  0  0  0  0
    9.6272  -14.0051   20.7977 C   0  0  0  0  0  0  0  0  0  0  0  0
   11.9011  -16.8964   23.8411 C   0  0  0  0  0  0  0  0  0  0  0  0
   13.1404  -16.7464   24.0692 O   0  0  0  0  0  0  0  0  0  0  0  0
   11.1151  -17.1675   24.9546 O   0  0  0  0  0  0  0  0  0  0  0  0
  2  1  1  1
  2  3  1  0
  3  4  1  0
  4  5  2  0
  5  6  1  0
  7  6  2  0
  8  7  1  0
  9  8  2  0
  9  4  1  0
 10  2  1  0
 11 10  2  0
 12 10  1  0
 13 19  1  0
 13 12  1  0
 13 14  1  6
 15 14  1  0
 16 17  1  0
 16 15  1  0
 18 17  1  0
 19 21  1  0
 20 19  2  0
 21 22  1  0
 22 23  1  1
 22 33  1  0
 24 23  1  0
 25 24  2  0
 26 27  1  0
 26 25  1  0
 27 32  2  0
 28 29  2  0
 28 27  1  0
 29 30  1  0
 30 31  2  0
 32 24  1  0
 32 31  1  0
 33 34  2  0
 33 35  1  0
M  END
$$$$
