FKW.pdb
     RDKit          3D

 35 37  0  0  1  0  0  0  0  0999 V2000
    7.2275  -17.6976   20.7594 N   0  0  0  0  0  0  0  0  0  0  0  0
    8.0634  -16.6715   21.3130 C   0  0  1  0  0  0  0  0  0  0  0  0
    7.2178  -15.5629   21.8687 C   0  0  0  0  0  0  0  0  0  0  0  0
    7.2801  -14.3226   21.0825 C   0  0  0  0  0  0  0  0  0  0  0  0
    6.2936  -13.9867   20.1874 C   0  0  0  0  0  0  0  0  0  0  0  0
    6.3793  -12.8000   19.4567 C   0  0  0  0  0  0  0  0  0  0  0  0
    7.4462  -11.9421   19.6127 C   0  0  0  0  0  0  0  0  0  0  0  0
    8.4310  -12.2780   20.5065 C   0  0  0  0  0  0  0  0  0  0  0  0
    8.3322  -13.4482   21.2174 C   0  0  0  0  0  0  0  0  0  0  0  0
    8.9577  -17.2723   22.3471 C   0  0  0  0  0  0  0  0  0  0  0  0
    8.5074  -18.0762   23.2163 O   0  0  0  0  0  0  0  0  0  0  0  0
   10.3396  -16.9624   22.3897 N   0  0  0  0  0  0  0  0  0  0  0  0
   11.1968  -17.5486   23.4536 C   0  0  1  0  0  0  0  0  0  0  0  0
   12.6131  -17.5352   22.9616 C   0  0  0  0  0  0  0  0  0  0  0  0
   13.5775  -18.2580   23.8451 C   0  0  0  0  0  0  0  0  0  0  0  0
   14.9659  -18.3131   23.1918 C   0  0  0  0  0  0  0  0  0  0  0  0
   15.9008  -19.0322   24.1463 C   0  0  0  0  0  0  0  0  0  0  0  0
   15.4733  -20.4027   24.3256 N   0  0  0  0  0  0  0  0  0  0  0  0
   10.9342  -16.7889   24.6773 C   0  0  0  0  0  0  0  0  0  0  0  0
   11.3068  -15.5658   24.7166 O   0  0  0  0  0  0  0  0  0  0  0  0
   10.2875  -17.3649   25.7877 N   0  0  0  0  0  0  0  0  0  0  0  0
   10.4014  -16.6913   27.0886 C   0  0  1  0  0  0  0  0  0  0  0  0
    9.0068  -16.5854   27.6294 C   0  0  0  0  0  0  0  0  0  0  0  0
    8.0564  -15.7752   26.8565 C   0  0  0  0  0  0  0  0  0  0  0  0
    6.9812  -16.2764   26.1026 C   0  0  0  0  0  0  0  0  0  0  0  0
    6.3558  -15.2755   25.5113 N   0  0  0  0  0  0  0  0  0  0  0  0
    6.9304  -14.0896   25.8068 C   0  0  0  0  0  0  0  0  0  0  0  0
    6.6155  -12.7987   25.4351 C   0  0  0  0  0  0  0  0  0  0  0  0
    7.3909  -11.7690   25.9222 C   0  0  0  0  0  0  0  0  0  0  0  0
    8.4508  -12.0775   26.7625 C   0  0  0  0  0  0  0  0  0  0  0  0
    8.7558  -13.3689   27.1257 C   0  0  0  0  0  0  0  0  0  0  0  0
    7.9916  -14.4024   26.6467 C   0  0  0  0  0  0  0  0  0  0  0  0
   11.3096  -17.4734   27.9265 C   0  0  0  0  0  0  0  0  0  0  0  0
   11.6887  -18.6171   27.5283 O   0  0  0  0  0  0  0  0  0  0  0  0
   11.8174  -17.0677   29.1548 O   0  0  0  0  0  0  0  0  0  0  0  0
  2  1  1  1
  2  3  1  0
  3  4  1  0
  4  5  2  0
  5  6  1  0
  7  6  2  0
  8  7  1  0
  9  8  2  0
  9  4  1  0
 10  2  1  0
 11 10  2  0
 12 10  1  0
 13 19  1  0
 13 12  1  0
 13 14  1  6
 15 14  1  0
 16 17  1  0
 16 15  1  0
 18 17  1  0
 19 21  1  0
 20 19  2  0
 21 22  1  0
 22 23  1  1
 22 33  1  0
 24 23  1  0
 25 24  2  0
 26 27  1  0
 26 25  1  0
 27 32  2  0
 28 29  2  0
 28 27  1  0
 29 30  1  0
 30 31  2  0
 32 24  1  0
 32 31  1  0
 33 34  2  0
 33 35  1  0
M  END
$$$$
