FKW.pdb
     RDKit          3D

 35 37  0  0  1  0  0  0  0  0999 V2000
    5.6607  -18.5029   21.5890 N   0  0  0  0  0  0  0  0  0  0  0  0
    6.4912  -17.3533   21.3728 C   0  0  1  0  0  0  0  0  0  0  0  0
    5.7813  -16.1122   21.8297 C   0  0  0  0  0  0  0  0  0  0  0  0
    6.5010  -14.8704   21.5128 C   0  0  0  0  0  0  0  0  0  0  0  0
    6.9106  -14.0040   22.4969 C   0  0  0  0  0  0  0  0  0  0  0  0
    7.5948  -12.8330   22.1651 C   0  0  0  0  0  0  0  0  0  0  0  0
    7.8749  -12.5184   20.8531 C   0  0  0  0  0  0  0  0  0  0  0  0
    7.4655  -13.3839   19.8707 C   0  0  0  0  0  0  0  0  0  0  0  0
    6.7939  -14.5310   20.2133 C   0  0  0  0  0  0  0  0  0  0  0  0
    7.7938  -17.5501   22.0760 C   0  0  0  0  0  0  0  0  0  0  0  0
    7.8517  -18.1372   23.1969 O   0  0  0  0  0  0  0  0  0  0  0  0
    9.0080  -17.0861   21.5121 N   0  0  0  0  0  0  0  0  0  0  0  0
   10.3031  -17.4394   22.1510 C   0  0  1  0  0  0  0  0  0  0  0  0
   11.3846  -17.2558   21.1288 C   0  0  0  0  0  0  0  0  0  0  0  0
   12.7315  -17.7323   21.5668 C   0  0  0  0  0  0  0  0  0  0  0  0
   13.7564  -17.5559   20.4373 C   0  0  0  0  0  0  0  0  0  0  0  0
   15.0899  -18.0838   20.9327 C   0  0  0  0  0  0  0  0  0  0  0  0
   16.0920  -17.9586   19.8968 N   0  0  0  0  0  0  0  0  0  0  0  0
   10.4167  -16.6225   23.3607 C   0  0  0  0  0  0  0  0  0  0  0  0
   10.5591  -15.3589   23.2211 O   0  0  0  0  0  0  0  0  0  0  0  0
   10.3676  -17.1883   24.6493 N   0  0  0  0  0  0  0  0  0  0  0  0
   10.7471  -16.3497   25.7946 C   0  0  1  0  0  0  0  0  0  0  0  0
    9.5683  -16.3473   26.7214 C   0  0  0  0  0  0  0  0  0  0  0  0
    8.3745  -15.6188   26.2727 C   0  0  0  0  0  0  0  0  0  0  0  0
    7.2450  -16.1967   25.6680 C   0  0  0  0  0  0  0  0  0  0  0  0
    6.3776  -15.2494   25.3631 N   0  0  0  0  0  0  0  0  0  0  0  0
    6.8321  -14.0290   25.7206 C   0  0  0  0  0  0  0  0  0  0  0  0
    6.2713  -12.7729   25.6141 C   0  0  0  0  0  0  0  0  0  0  0  0
    6.9818  -11.6951   26.0961 C   0  0  0  0  0  0  0  0  0  0  0  0
    8.2264  -11.9226   26.6653 C   0  0  0  0  0  0  0  0  0  0  0  0
    8.7759  -13.1798   26.7654 C   0  0  0  0  0  0  0  0  0  0  0  0
    8.0785  -14.2605   26.2885 C   0  0  0  0  0  0  0  0  0  0  0  0
   11.9664  -16.9061   26.3800 C   0  0  0  0  0  0  0  0  0  0  0  0
   12.3954  -18.0268   25.9673 O   0  0  0  0  0  0  0  0  0  0  0  0
   12.7271  -16.3020   27.3738 O   0  0  0  0  0  0  0  0  0  0  0  0
  2  1  1  1
  2  3  1  0
  3  4  1  0
  4  5  2  0
  5  6  1  0
  7  6  2  0
  8  7  1  0
  9  8  2  0
  9  4  1  0
 10  2  1  0
 11 10  2  0
 12 10  1  0
 13 19  1  0
 13 12  1  0
 13 14  1  6
 15 14  1  0
 16 17  1  0
 16 15  1  0
 18 17  1  0
 19 21  1  0
 20 19  2  0
 21 22  1  0
 22 23  1  1
 22 33  1  0
 24 23  1  0
 25 24  2  0
 26 27  1  0
 26 25  1  0
 27 32  2  0
 28 29  2  0
 28 27  1  0
 29 30  1  0
 30 31  2  0
 32 24  1  0
 32 31  1  0
 33 34  2  0
 33 35  1  0
M  END
$$$$
