FKW.pdb
     RDKit          3D

 35 37  0  0  1  0  0  0  0  0999 V2000
    5.5681  -18.3187   19.7297 N   0  0  0  0  0  0  0  0  0  0  0  0
    6.5460  -17.3069   20.0091 C   0  0  1  0  0  0  0  0  0  0  0  0
    5.9036  -16.1533   20.7229 C   0  0  0  0  0  0  0  0  0  0  0  0
    6.7015  -14.9194   20.6874 C   0  0  0  0  0  0  0  0  0  0  0  0
    7.1747  -14.4013   19.5065 C   0  0  0  0  0  0  0  0  0  0  0  0
    7.9279  -13.2256   19.5043 C   0  0  0  0  0  0  0  0  0  0  0  0
    8.2139  -12.5599   20.6764 C   0  0  0  0  0  0  0  0  0  0  0  0
    7.7411  -13.0779   21.8554 C   0  0  0  0  0  0  0  0  0  0  0  0
    7.0020  -14.2345   21.8408 C   0  0  0  0  0  0  0  0  0  0  0  0
    7.6623  -17.9082   20.7979 C   0  0  0  0  0  0  0  0  0  0  0  0
    7.4482  -18.4740   21.9107 O   0  0  0  0  0  0  0  0  0  0  0  0
    8.9979  -17.8654   20.3270 N   0  0  0  0  0  0  0  0  0  0  0  0
   10.0995  -18.3875   21.1779 C   0  0  1  0  0  0  0  0  0  0  0  0
   11.2491  -18.7338   20.2797 C   0  0  0  0  0  0  0  0  0  0  0  0
   11.0081  -19.9194   19.4026 C   0  0  0  0  0  0  0  0  0  0  0  0
   10.6236  -21.1424   20.2474 C   0  0  0  0  0  0  0  0  0  0  0  0
   10.4832  -22.3286   19.3116 C   0  0  0  0  0  0  0  0  0  0  0  0
   11.5334  -23.2909   19.5649 N   0  0  0  0  0  0  0  0  0  0  0  0
   10.3650  -17.3724   22.1992 C   0  0  0  0  0  0  0  0  0  0  0  0
   10.5759  -16.1715   21.8120 O   0  0  0  0  0  0  0  0  0  0  0  0
   10.3867  -17.6845   23.5722 N   0  0  0  0  0  0  0  0  0  0  0  0
   10.5115  -16.5829   24.5364 C   0  0  1  0  0  0  0  0  0  0  0  0
    9.2570  -16.6003   25.3577 C   0  0  0  0  0  0  0  0  0  0  0  0
    8.9636  -15.3954   26.1446 C   0  0  0  0  0  0  0  0  0  0  0  0
    8.0412  -14.3951   25.7922 C   0  0  0  0  0  0  0  0  0  0  0  0
    8.0554  -13.4434   26.7069 N   0  0  0  0  0  0  0  0  0  0  0  0
    8.9391  -13.7163   27.6910 C   0  0  0  0  0  0  0  0  0  0  0  0
    9.2760  -13.0293   28.8390 C   0  0  0  0  0  0  0  0  0  0  0  0
   10.2195  -13.5798   29.6790 C   0  0  0  0  0  0  0  0  0  0  0  0
   10.7863  -14.7976   29.3318 C   0  0  0  0  0  0  0  0  0  0  0  0
   10.4430  -15.4732   28.1836 C   0  0  0  0  0  0  0  0  0  0  0  0
    9.5054  -14.9350   27.3393 C   0  0  0  0  0  0  0  0  0  0  0  0
   11.7350  -16.7930   25.3095 C   0  0  0  0  0  0  0  0  0  0  0  0
   12.1223  -17.9783   25.5449 O   0  0  0  0  0  0  0  0  0  0  0  0
   12.5425  -15.7854   25.8230 O   0  0  0  0  0  0  0  0  0  0  0  0
  2  1  1  1
  2  3  1  0
  3  4  1  0
  4  5  2  0
  5  6  1  0
  7  6  2  0
  8  7  1  0
  9  8  2  0
  9  4  1  0
 10  2  1  0
 11 10  2  0
 12 10  1  0
 13 19  1  0
 13 12  1  0
 13 14  1  6
 15 14  1  0
 16 17  1  0
 16 15  1  0
 18 17  1  0
 19 21  1  0
 20 19  2  0
 21 22  1  0
 22 23  1  1
 22 33  1  0
 24 23  1  0
 25 24  2  0
 26 27  1  0
 26 25  1  0
 27 32  2  0
 28 29  2  0
 28 27  1  0
 29 30  1  0
 30 31  2  0
 32 24  1  0
 32 31  1  0
 33 34  2  0
 33 35  1  0
M  END
$$$$
