FKW.pdb
     RDKit          3D

 35 37  0  0  1  0  0  0  0  0999 V2000
    7.3580  -17.8017   18.6143 N   0  0  0  0  0  0  0  0  0  0  0  0
    7.8336  -16.6290   19.2900 C   0  0  1  0  0  0  0  0  0  0  0  0
    6.6814  -15.7319   19.6370 C   0  0  0  0  0  0  0  0  0  0  0  0
    7.0680  -14.5533   20.4255 C   0  0  0  0  0  0  0  0  0  0  0  0
    7.5499  -13.4137   19.8287 C   0  0  0  0  0  0  0  0  0  0  0  0
    7.9066  -12.3088   20.6042 C   0  0  0  0  0  0  0  0  0  0  0  0
    7.7856  -12.3321   21.9766 C   0  0  0  0  0  0  0  0  0  0  0  0
    7.3044  -13.4703   22.5721 C   0  0  0  0  0  0  0  0  0  0  0  0
    6.9581  -14.5481   21.7957 C   0  0  0  0  0  0  0  0  0  0  0  0
    8.6125  -17.0400   20.4960 C   0  0  0  0  0  0  0  0  0  0  0  0
    8.1624  -17.9060   21.3035 O   0  0  0  0  0  0  0  0  0  0  0  0
    9.8809  -16.4744   20.7765 N   0  0  0  0  0  0  0  0  0  0  0  0
   10.7655  -17.1074   21.7899 C   0  0  1  0  0  0  0  0  0  0  0  0
   12.1783  -16.9961   21.3000 C   0  0  0  0  0  0  0  0  0  0  0  0
   13.1678  -17.7871   22.0927 C   0  0  0  0  0  0  0  0  0  0  0  0
   14.5762  -17.6306   21.5020 C   0  0  0  0  0  0  0  0  0  0  0  0
   15.4159  -18.7981   21.9859 C   0  0  0  0  0  0  0  0  0  0  0  0
   16.7586  -18.7006   21.4559 N   0  0  0  0  0  0  0  0  0  0  0  0
   10.4763  -16.4591   23.0705 C   0  0  0  0  0  0  0  0  0  0  0  0
   10.5822  -15.1860   23.1366 O   0  0  0  0  0  0  0  0  0  0  0  0
   10.0864  -17.1941   24.2066 N   0  0  0  0  0  0  0  0  0  0  0  0
    9.8904  -16.4722   25.4713 C   0  0  1  0  0  0  0  0  0  0  0  0
    8.5700  -16.9298   26.0150 C   0  0  0  0  0  0  0  0  0  0  0  0
    7.5020  -15.9246   26.0940 C   0  0  0  0  0  0  0  0  0  0  0  0
    6.1275  -16.1814   25.9515 C   0  0  0  0  0  0  0  0  0  0  0  0
    5.4574  -15.0478   26.0452 N   0  0  0  0  0  0  0  0  0  0  0  0
    6.2846  -13.9996   26.2476 C   0  0  0  0  0  0  0  0  0  0  0  0
    6.0359  -12.6533   26.4176 C   0  0  0  0  0  0  0  0  0  0  0  0
    7.1057  -11.8110   26.6297 C   0  0  0  0  0  0  0  0  0  0  0  0
    8.3815  -12.3551   26.6623 C   0  0  0  0  0  0  0  0  0  0  0  0
    8.6174  -13.6996   26.4906 C   0  0  0  0  0  0  0  0  0  0  0  0
    7.5606  -14.5479   26.2781 C   0  0  0  0  0  0  0  0  0  0  0  0
   11.0288  -16.7647   26.3416 C   0  0  0  0  0  0  0  0  0  0  0  0
   11.0691  -16.2511   27.5014 O   0  0  0  0  0  0  0  0  0  0  0  0
   12.1026  -17.5820   26.0104 O   0  0  0  0  0  0  0  0  0  0  0  0
  2  1  1  1
  2  3  1  0
  3  4  1  0
  4  5  2  0
  5  6  1  0
  7  6  2  0
  8  7  1  0
  9  8  2  0
  9  4  1  0
 10  2  1  0
 11 10  2  0
 12 10  1  0
 13 19  1  0
 13 12  1  0
 13 14  1  6
 15 14  1  0
 16 17  1  0
 16 15  1  0
 18 17  1  0
 19 21  1  0
 20 19  2  0
 21 22  1  0
 22 23  1  1
 22 33  1  0
 24 23  1  0
 25 24  2  0
 26 27  1  0
 26 25  1  0
 27 32  2  0
 28 29  2  0
 28 27  1  0
 29 30  1  0
 30 31  2  0
 32 24  1  0
 32 31  1  0
 33 34  2  0
 33 35  1  0
M  END
$$$$
