FKW.pdb
     RDKit          3D

 35 37  0  0  1  0  0  0  0  0999 V2000
    5.4323  -17.9545   21.0054 N   0  0  0  0  0  0  0  0  0  0  0  0
    6.3823  -16.8827   20.9236 C   0  0  1  0  0  0  0  0  0  0  0  0
    5.8038  -15.6351   21.5251 C   0  0  0  0  0  0  0  0  0  0  0  0
    6.6692  -14.4556   21.3832 C   0  0  0  0  0  0  0  0  0  0  0  0
    7.1559  -13.7833   22.4779 C   0  0  0  0  0  0  0  0  0  0  0  0
    7.9782  -12.6673   22.3114 C   0  0  0  0  0  0  0  0  0  0  0  0
    8.3204  -12.2148   21.0556 C   0  0  0  0  0  0  0  0  0  0  0  0
    7.8341  -12.8865   19.9628 C   0  0  0  0  0  0  0  0  0  0  0  0
    7.0268  -13.9820   20.1433 C   0  0  0  0  0  0  0  0  0  0  0  0
    7.6497  -17.2983   21.5953 C   0  0  0  0  0  0  0  0  0  0  0  0
    7.6329  -17.9711   22.6683 O   0  0  0  0  0  0  0  0  0  0  0  0
    8.9127  -16.9532   21.0540 N   0  0  0  0  0  0  0  0  0  0  0  0
   10.1565  -17.3970   21.7368 C   0  0  1  0  0  0  0  0  0  0  0  0
   11.2877  -17.2660   20.7613 C   0  0  0  0  0  0  0  0  0  0  0  0
   11.1681  -18.1463   19.5597 C   0  0  0  0  0  0  0  0  0  0  0  0
   12.3535  -17.9217   18.6101 C   0  0  0  0  0  0  0  0  0  0  0  0
   12.2235  -18.9064   17.4629 C   0  0  0  0  0  0  0  0  0  0  0  0
   13.1502  -18.5657   16.4055 N   0  0  0  0  0  0  0  0  0  0  0  0
   10.2719  -16.6077   22.9645 C   0  0  0  0  0  0  0  0  0  0  0  0
   10.3533  -15.3357   22.8555 O   0  0  0  0  0  0  0  0  0  0  0  0
   10.2891  -17.2086   24.2379 N   0  0  0  0  0  0  0  0  0  0  0  0
   10.6933  -16.3911   25.3900 C   0  0  1  0  0  0  0  0  0  0  0  0
    9.5594  -16.4566   26.3691 C   0  0  0  0  0  0  0  0  0  0  0  0
    8.3542  -15.6848   26.0395 C   0  0  0  0  0  0  0  0  0  0  0  0
    7.1269  -16.2271   25.6207 C   0  0  0  0  0  0  0  0  0  0  0  0
    6.2747  -15.2485   25.3785 N   0  0  0  0  0  0  0  0  0  0  0  0
    6.8327  -14.0395   25.6043 C   0  0  0  0  0  0  0  0  0  0  0  0
    6.3256  -12.7606   25.5011 C   0  0  0  0  0  0  0  0  0  0  0  0
    7.1464  -11.7022   25.8249 C   0  0  0  0  0  0  0  0  0  0  0  0
    8.4429  -11.9713   26.2390 C   0  0  0  0  0  0  0  0  0  0  0  0
    8.9379  -13.2511   26.3373 C   0  0  0  0  0  0  0  0  0  0  0  0
    8.1305  -14.3128   26.0171 C   0  0  0  0  0  0  0  0  0  0  0  0
   11.9563  -16.9216   25.9019 C   0  0  0  0  0  0  0  0  0  0  0  0
   12.4133  -18.0036   25.4213 O   0  0  0  0  0  0  0  0  0  0  0  0
   12.7313  -16.3315   26.8930 O   0  0  0  0  0  0  0  0  0  0  0  0
  2  1  1  1
  2  3  1  0
  3  4  1  0
  4  5  2  0
  5  6  1  0
  7  6  2  0
  8  7  1  0
  9  8  2  0
  9  4  1  0
 10  2  1  0
 11 10  2  0
 12 10  1  0
 13 19  1  0
 13 12  1  0
 13 14  1  6
 15 14  1  0
 16 17  1  0
 16 15  1  0
 18 17  1  0
 19 21  1  0
 20 19  2  0
 21 22  1  0
 22 23  1  1
 22 33  1  0
 24 23  1  0
 25 24  2  0
 26 27  1  0
 26 25  1  0
 27 32  2  0
 28 29  2  0
 28 27  1  0
 29 30  1  0
 30 31  2  0
 32 24  1  0
 32 31  1  0
 33 34  2  0
 33 35  1  0
M  END
$$$$
