FKW.pdb
     RDKit          3D

 35 37  0  0  1  0  0  0  0  0999 V2000
    5.8613  -17.9572   22.1548 N   0  0  0  0  0  0  0  0  0  0  0  0
    6.8673  -16.9511   21.9705 C   0  0  1  0  0  0  0  0  0  0  0  0
    6.3896  -15.6388   22.5205 C   0  0  0  0  0  0  0  0  0  0  0  0
    6.9151  -14.4707   21.7995 C   0  0  0  0  0  0  0  0  0  0  0  0
    7.2663  -13.3166   22.4567 C   0  0  0  0  0  0  0  0  0  0  0  0
    7.7653  -12.2241   21.7447 C   0  0  0  0  0  0  0  0  0  0  0  0
    7.9174  -12.2743   20.3762 C   0  0  0  0  0  0  0  0  0  0  0  0
    7.5665  -13.4269   19.7204 C   0  0  0  0  0  0  0  0  0  0  0  0
    7.0775  -14.4923   20.4347 C   0  0  0  0  0  0  0  0  0  0  0  0
    8.1372  -17.4040   22.6126 C   0  0  0  0  0  0  0  0  0  0  0  0
    8.1312  -18.2632   23.5433 O   0  0  0  0  0  0  0  0  0  0  0  0
    9.3907  -16.8869   22.2016 N   0  0  0  0  0  0  0  0  0  0  0  0
   10.6370  -17.3549   22.8635 C   0  0  1  0  0  0  0  0  0  0  0  0
   11.7771  -17.1103   21.9209 C   0  0  0  0  0  0  0  0  0  0  0  0
   13.0559  -17.7740   22.3179 C   0  0  0  0  0  0  0  0  0  0  0  0
   14.1273  -17.5629   21.2387 C   0  0  0  0  0  0  0  0  0  0  0  0
   15.3777  -18.3045   21.6734 C   0  0  0  0  0  0  0  0  0  0  0  0
   16.4034  -18.1904   20.6595 N   0  0  0  0  0  0  0  0  0  0  0  0
   10.7138  -16.6715   24.1561 C   0  0  0  0  0  0  0  0  0  0  0  0
   10.9892  -15.4223   24.1598 O   0  0  0  0  0  0  0  0  0  0  0  0
   10.4895  -17.3476   25.3709 N   0  0  0  0  0  0  0  0  0  0  0  0
   10.6788  -16.6081   26.6264 C   0  0  1  0  0  0  0  0  0  0  0  0
    9.3546  -16.6302   27.3297 C   0  0  0  0  0  0  0  0  0  0  0  0
    8.2546  -15.8933   26.6941 C   0  0  0  0  0  0  0  0  0  0  0  0
    7.1450  -16.4736   26.0558 C   0  0  0  0  0  0  0  0  0  0  0  0
    6.3717  -15.5213   25.5682 N   0  0  0  0  0  0  0  0  0  0  0  0
    6.8740  -14.2949   25.8280 C   0  0  0  0  0  0  0  0  0  0  0  0
    6.4090  -13.0304   25.5307 C   0  0  0  0  0  0  0  0  0  0  0  0
    7.1457  -11.9452   25.9531 C   0  0  0  0  0  0  0  0  0  0  0  0
    8.3193  -12.1741   26.6568 C   0  0  0  0  0  0  0  0  0  0  0  0
    8.7735  -13.4398   26.9468 C   0  0  0  0  0  0  0  0  0  0  0  0
    8.0492  -14.5280   26.5309 C   0  0  0  0  0  0  0  0  0  0  0  0
   11.7620  -17.2487   27.3714 C   0  0  0  0  0  0  0  0  0  0  0  0
   12.1314  -16.7496   28.4781 O   0  0  0  0  0  0  0  0  0  0  0  0
   12.4437  -18.3918   26.9719 O   0  0  0  0  0  0  0  0  0  0  0  0
  2  1  1  1
  2  3  1  0
  3  4  1  0
  4  5  2  0
  5  6  1  0
  7  6  2  0
  8  7  1  0
  9  8  2  0
  9  4  1  0
 10  2  1  0
 11 10  2  0
 12 10  1  0
 13 19  1  0
 13 12  1  0
 13 14  1  6
 15 14  1  0
 16 17  1  0
 16 15  1  0
 18 17  1  0
 19 21  1  0
 20 19  2  0
 21 22  1  0
 22 23  1  1
 22 33  1  0
 24 23  1  0
 25 24  2  0
 26 27  1  0
 26 25  1  0
 27 32  2  0
 28 29  2  0
 28 27  1  0
 29 30  1  0
 30 31  2  0
 32 24  1  0
 32 31  1  0
 33 34  2  0
 33 35  1  0
M  END
$$$$
