ART.pdb
     RDKit          3D

 24 23  0  0  1  0  0  0  0  0999 V2000
   12.2172  -11.2877  -10.3484 C   0  0  0  0  0  0  0  0  0  0  0  0
   13.5712  -11.2572  -11.0102 C   0  0  2  0  0  0  0  0  0  0  0  0
   14.2258  -12.5322  -10.9565 N   0  0  0  0  0  0  0  0  0  0  0  0
   14.4317  -10.1593  -10.4341 C   0  0  0  0  0  0  0  0  0  0  0  0
   14.0565   -9.6758   -9.3674 O   0  0  0  0  0  0  0  0  0  0  0  0
   21.9043   -6.4201  -13.9153 N   0  0  0  0  0  0  0  0  0  0  0  0
   21.3337   -5.8548  -12.7333 C   0  0  0  0  0  0  0  0  0  0  0  0
   21.1844   -4.5699  -12.6540 N   0  0  0  0  0  0  0  0  0  0  0  0
   20.9224   -6.6426  -11.6376 N   0  0  0  0  0  0  0  0  0  0  0  0
   19.9707   -7.6811  -11.7865 C   0  0  0  0  0  0  0  0  0  0  0  0
   18.6715   -7.4851  -11.0337 C   0  0  0  0  0  0  0  0  0  0  0  0
   17.8658   -8.7491  -11.2974 C   0  0  0  0  0  0  0  0  0  0  0  0
   16.4781   -8.7019  -10.6902 C   0  0  2  0  0  0  0  0  0  0  0  0
   15.5919   -9.7292  -11.0968 N   0  0  0  0  0  0  0  0  0  0  0  0
   15.9739   -7.3364  -10.7185 C   0  0  0  0  0  0  0  0  0  0  0  0
   15.6395   -6.8648  -11.8395 O   0  0  0  0  0  0  0  0  0  0  0  0
   20.7605   -4.0972  -11.8469 C   0  0  0  0  0  0  0  0  0  0  0  0
   14.1765   -3.4035   -8.1783 C   0  0  2  0  0  0  0  0  0  0  0  0
   14.7772   -4.7797   -8.2154 O   0  0  0  0  0  0  0  0  0  0  0  0
   13.7842   -5.6798   -7.8167 C   0  0  1  0  0  0  0  0  0  0  0  0
   15.2414   -5.2065   -9.5842 N   0  0  0  0  0  0  0  0  0  0  0  0
   15.8346   -6.5184   -9.5989 C   0  0  0  0  0  0  0  0  0  0  0  0
   16.2476   -4.2288  -10.0401 O   0  0  0  0  0  0  0  0  0  0  0  0
   17.4801   -4.3345   -9.7934 O   0  0  0  0  0  0  0  0  0  0  0  0
  2  3  1  0
  2  1  1  1
  4  2  1  0
  5  4  2  0
  6  7  1  0
  7  9  1  0
  8  7  2  0
 10  9  1  0
 10 11  1  0
 11 12  1  0
 13 12  1  6
 13 14  1  0
 14  4  1  0
 15 13  1  0
 15 21  1  0
 16 15  2  0
 18 17  1  1
 19 18  1  0
 20 18  1  0
 20 21  1  1
 20 22  1  0
 22 24  1  0
 23 22  2  0
M  END
$$$$
