ART.pdb
     RDKit          3D

 24 23  0  0  1  0  0  0  0  0999 V2000
   27.1911  -20.5647  -19.0273 C   0  0  0  0  0  0  0  0  0  0  0  0
   27.6717  -21.4184  -17.8817 C   0  0  2  0  0  0  0  0  0  0  0  0
   28.1734  -22.6857  -18.3278 N   0  0  0  0  0  0  0  0  0  0  0  0
   26.5960  -21.5769  -16.8351 C   0  0  0  0  0  0  0  0  0  0  0  0
   25.5390  -22.0802  -17.2119 O   0  0  0  0  0  0  0  0  0  0  0  0
   23.4158  -20.6736   -8.6674 N   0  0  0  0  0  0  0  0  0  0  0  0
   24.8343  -20.6698   -8.8404 C   0  0  0  0  0  0  0  0  0  0  0  0
   25.5239  -19.6663   -8.3965 N   0  0  0  0  0  0  0  0  0  0  0  0
   25.5236  -21.7212   -9.4805 N   0  0  0  0  0  0  0  0  0  0  0  0
   26.2785  -21.5039  -10.6592 C   0  0  0  0  0  0  0  0  0  0  0  0
   25.4802  -21.4704  -11.9455 C   0  0  0  0  0  0  0  0  0  0  0  0
   26.5110  -21.2684  -13.0469 C   0  0  0  0  0  0  0  0  0  0  0  0
   25.8968  -21.2396  -14.4320 C   0  0  2  0  0  0  0  0  0  0  0  0
   26.8117  -21.1650  -15.5107 N   0  0  0  0  0  0  0  0  0  0  0  0
   24.7668  -20.3218  -14.4512 C   0  0  0  0  0  0  0  0  0  0  0  0
   25.0030  -19.1063  -14.2112 O   0  0  0  0  0  0  0  0  0  0  0  0
   26.5351  -19.5640   -8.5437 C   0  0  0  0  0  0  0  0  0  0  0  0
   22.6732  -18.8086  -17.0552 C   0  0  2  0  0  0  0  0  0  0  0  0
   21.7733  -19.6045  -16.1536 O   0  0  0  0  0  0  0  0  0  0  0  0
   21.6292  -20.8738  -16.7220 C   0  0  2  0  0  0  0  0  0  0  0  0
   22.3196  -19.7988  -14.7626 N   0  0  0  0  0  0  0  0  0  0  0  0
   23.4493  -20.6904  -14.7160 C   0  0  0  0  0  0  0  0  0  0  0  0
   21.2387  -20.3635  -13.9326 O   0  0  0  0  0  0  0  0  0  0  0  0
   21.2713  -21.5275  -13.4478 O   0  0  0  0  0  0  0  0  0  0  0  0
  2  3  1  0
  2  1  1  6
  4  2  1  0
  5  4  2  0
  6  7  1  0
  7  9  1  0
  8  7  2  0
 10  9  1  0
 10 11  1  0
 11 12  1  0
 13 12  1  1
 13 14  1  0
 14  4  1  0
 15 13  1  0
 15 21  1  0
 16 15  2  0
 18 17  1  6
 19 18  1  0
 20 18  1  0
 20 21  1  1
 20 22  1  0
 22 24  1  0
 23 22  2  0
M  END
$$$$
