ART.pdb
     RDKit          3D

 24 23  0  0  1  0  0  0  0  0999 V2000
   25.0662  -21.8872  -17.0418 C   0  0  0  0  0  0  0  0  0  0  0  0
   24.6540  -20.5806  -16.4131 C   0  0  2  0  0  0  0  0  0  0  0  0
   25.6702  -20.0548  -15.5483 N   0  0  0  0  0  0  0  0  0  0  0  0
   23.3278  -20.7141  -15.7053 C   0  0  0  0  0  0  0  0  0  0  0  0
   22.4908  -21.4339  -16.2472 O   0  0  0  0  0  0  0  0  0  0  0  0
   18.6346  -21.2504   -9.6727 N   0  0  0  0  0  0  0  0  0  0  0  0
   19.8888  -21.4644   -9.0220 C   0  0  0  0  0  0  0  0  0  0  0  0
   20.0121  -22.4536   -8.1937 N   0  0  0  0  0  0  0  0  0  0  0  0
   21.0097  -20.6368   -9.2436 N   0  0  0  0  0  0  0  0  0  0  0  0
   20.9502  -19.5272  -10.1220 C   0  0  0  0  0  0  0  0  0  0  0  0
   20.6422  -19.8580  -11.5672 C   0  0  0  0  0  0  0  0  0  0  0  0
   21.9848  -19.8013  -12.2819 C   0  0  0  0  0  0  0  0  0  0  0  0
   21.8635  -19.9849  -13.7813 C   0  0  2  0  0  0  0  0  0  0  0  0
   23.0849  -20.0440  -14.4961 N   0  0  0  0  0  0  0  0  0  0  0  0
   20.8271  -19.1057  -14.3033 C   0  0  0  0  0  0  0  0  0  0  0  0
   21.0146  -17.8628  -14.1993 O   0  0  0  0  0  0  0  0  0  0  0  0
   20.8820  -22.6674   -7.6917 C   0  0  0  0  0  0  0  0  0  0  0  0
   18.9790  -19.4937  -17.9453 C   0  0  2  0  0  0  0  0  0  0  0  0
   18.0526  -19.3533  -16.7714 O   0  0  0  0  0  0  0  0  0  0  0  0
   17.6680  -20.6413  -16.3863 C   0  0  2  0  0  0  0  0  0  0  0  0
   18.6846  -18.6993  -15.5697 N   0  0  0  0  0  0  0  0  0  0  0  0
   19.6489  -19.5393  -14.9080 C   0  0  0  0  0  0  0  0  0  0  0  0
   17.6057  -18.3785  -14.6162 O   0  0  0  0  0  0  0  0  0  0  0  0
   17.4517  -18.9746  -13.5153 O   0  0  0  0  0  0  0  0  0  0  0  0
  2  3  1  0
  2  1  1  1
  4  2  1  0
  5  4  2  0
  6  7  1  0
  7  9  1  0
  8  7  2  0
 10  9  1  0
 10 11  1  0
 11 12  1  0
 13 12  1  1
 13 14  1  0
 14  4  1  0
 15 13  1  0
 15 21  1  0
 16 15  2  0
 18 17  1  6
 19 18  1  0
 20 18  1  0
 20 21  1  1
 20 22  1  0
 22 24  1  0
 23 22  2  0
M  END
$$$$
