ART.pdb
     RDKit          3D

 24 23  0  0  1  0  0  0  0  0999 V2000
   28.1753  -21.1233  -18.3265 C   0  0  0  0  0  0  0  0  0  0  0  0
   28.4657  -21.7579  -16.9903 C   0  0  2  0  0  0  0  0  0  0  0  0
   29.1789  -22.9948  -17.1252 N   0  0  0  0  0  0  0  0  0  0  0  0
   27.2017  -21.9234  -16.1825 C   0  0  0  0  0  0  0  0  0  0  0  0
   26.4493  -22.8327  -16.5281 O   0  0  0  0  0  0  0  0  0  0  0  0
   23.8609  -20.1655  -10.3543 N   0  0  0  0  0  0  0  0  0  0  0  0
   24.7061  -20.7789   -9.3789 C   0  0  0  0  0  0  0  0  0  0  0  0
   24.1851  -21.2222   -8.2781 N   0  0  0  0  0  0  0  0  0  0  0  0
   26.0972  -20.9237   -9.5635 N   0  0  0  0  0  0  0  0  0  0  0  0
   26.7567  -20.3756  -10.6910 C   0  0  0  0  0  0  0  0  0  0  0  0
   26.7057  -21.2188  -11.9476 C   0  0  0  0  0  0  0  0  0  0  0  0
   25.8933  -20.4010  -12.9413 C   0  0  0  0  0  0  0  0  0  0  0  0
   25.7584  -21.0767  -14.2911 C   0  0  2  0  0  0  0  0  0  0  0  0
   26.9206  -21.0744  -15.1007 N   0  0  0  0  0  0  0  0  0  0  0  0
   24.5072  -20.6775  -14.9194 C   0  0  0  0  0  0  0  0  0  0  0  0
   24.4867  -19.5666  -15.5163 O   0  0  0  0  0  0  0  0  0  0  0  0
   24.7231  -21.7114   -7.5530 C   0  0  0  0  0  0  0  0  0  0  0  0
   20.0429  -21.9438  -16.7344 C   0  0  2  0  0  0  0  0  0  0  0  0
   21.4078  -22.2604  -16.1933 O   0  0  0  0  0  0  0  0  0  0  0  0
   22.1978  -22.6757  -17.2696 C   0  0  1  0  0  0  0  0  0  0  0  0
   22.1020  -21.0821  -15.5601 N   0  0  0  0  0  0  0  0  0  0  0  0
   23.3368  -21.4338  -14.9084 C   0  0  0  0  0  0  0  0  0  0  0  0
   21.1853  -20.5098  -14.5559 O   0  0  0  0  0  0  0  0  0  0  0  0
   21.3184  -20.6857  -13.3140 O   0  0  0  0  0  0  0  0  0  0  0  0
  2  3  1  0
  2  1  1  6
  4  2  1  0
  5  4  2  0
  6  7  1  0
  7  9  1  0
  8  7  2  0
 10  9  1  0
 10 11  1  0
 11 12  1  0
 13 12  1  1
 13 14  1  0
 14  4  1  0
 15 13  1  0
 15 21  1  0
 16 15  2  0
 18 17  1  1
 19 18  1  0
 20 18  1  0
 20 21  1  1
 20 22  1  0
 22 24  1  0
 23 22  2  0
M  END
$$$$
