ART.pdb
     RDKit          3D

 24 23  0  0  1  0  0  0  0  0999 V2000
   17.1444  -10.9411  -16.5332 C   0  0  0  0  0  0  0  0  0  0  0  0
   18.2601  -10.6485  -15.5626 C   0  0  2  0  0  0  0  0  0  0  0  0
   18.5039  -11.7483  -14.6748 N   0  0  0  0  0  0  0  0  0  0  0  0
   18.0019   -9.3659  -14.8104 C   0  0  0  0  0  0  0  0  0  0  0  0
   17.8790   -8.3497  -15.4919 O   0  0  0  0  0  0  0  0  0  0  0  0
   13.6850   -8.2477   -7.2230 N   0  0  0  0  0  0  0  0  0  0  0  0
   14.1564   -6.9417   -7.5612 C   0  0  0  0  0  0  0  0  0  0  0  0
   13.6399   -5.9094   -6.9718 N   0  0  0  0  0  0  0  0  0  0  0  0
   15.1694   -6.7249   -8.5189 N   0  0  0  0  0  0  0  0  0  0  0  0
   15.4987   -7.7068   -9.4853 C   0  0  0  0  0  0  0  0  0  0  0  0
   16.5473   -7.2965  -10.4976 C   0  0  0  0  0  0  0  0  0  0  0  0
   16.7382   -8.5164  -11.3875 C   0  0  0  0  0  0  0  0  0  0  0  0
   17.6362   -8.2442  -12.5775 C   0  0  2  0  0  0  0  0  0  0  0  0
   17.9114   -9.3568  -13.4097 N   0  0  0  0  0  0  0  0  0  0  0  0
   18.7664   -7.4244  -12.1649 C   0  0  0  0  0  0  0  0  0  0  0  0
   19.3633   -7.7519  -11.1032 O   0  0  0  0  0  0  0  0  0  0  0  0
   13.9220   -4.9425   -7.1717 C   0  0  0  0  0  0  0  0  0  0  0  0
   21.4139   -6.3218  -14.8760 C   0  0  2  0  0  0  0  0  0  0  0  0
   21.6347   -6.2565  -13.3918 O   0  0  0  0  0  0  0  0  0  0  0  0
   22.7561   -5.4510  -13.1713 C   0  0  1  0  0  0  0  0  0  0  0  0
   20.4884   -5.6419  -12.6304 N   0  0  0  0  0  0  0  0  0  0  0  0
   19.2331   -6.3093  -12.8582 C   0  0  0  0  0  0  0  0  0  0  0  0
   20.3626   -4.2387  -13.0677 O   0  0  0  0  0  0  0  0  0  0  0  0
   19.3609   -3.7927  -13.6913 O   0  0  0  0  0  0  0  0  0  0  0  0
  2  3  1  0
  2  1  1  1
  4  2  1  0
  5  4  2  0
  6  7  1  0
  7  9  1  0
  8  7  2  0
 10  9  1  0
 10 11  1  0
 11 12  1  0
 13 12  1  1
 13 14  1  0
 14  4  1  0
 15 13  1  0
 15 21  1  0
 16 15  2  0
 18 17  1  6
 19 18  1  0
 20 18  1  0
 20 21  1  1
 20 22  1  0
 22 24  1  0
 23 22  2  0
M  END
$$$$
