ART.pdb
     RDKit          3D

 24 23  0  0  1  0  0  0  0  0999 V2000
   26.9800  -18.6094  -18.9242 C   0  0  0  0  0  0  0  0  0  0  0  0
   27.5702  -19.8487  -18.3012 C   0  0  2  0  0  0  0  0  0  0  0  0
   27.8763  -20.8505  -19.2809 N   0  0  0  0  0  0  0  0  0  0  0  0
   26.6766  -20.3850  -17.2096 C   0  0  0  0  0  0  0  0  0  0  0  0
   25.6084  -20.8752  -17.5714 O   0  0  0  0  0  0  0  0  0  0  0  0
   25.5518  -19.2520   -9.3228 N   0  0  0  0  0  0  0  0  0  0  0  0
   25.6770  -20.6437   -9.0232 C   0  0  0  0  0  0  0  0  0  0  0  0
   25.0763  -21.1236   -7.9799 N   0  0  0  0  0  0  0  0  0  0  0  0
   26.4342  -21.5267   -9.8214 N   0  0  0  0  0  0  0  0  0  0  0  0
   27.0365  -21.1017  -11.0310 C   0  0  0  0  0  0  0  0  0  0  0  0
   26.1244  -21.0824  -12.2396 C   0  0  0  0  0  0  0  0  0  0  0  0
   27.0237  -20.7089  -13.4092 C   0  0  0  0  0  0  0  0  0  0  0  0
   26.2822  -20.6535  -14.7297 C   0  0  2  0  0  0  0  0  0  0  0  0
   27.0636  -20.3170  -15.8621 N   0  0  0  0  0  0  0  0  0  0  0  0
   25.0201  -19.9486  -14.5571 C   0  0  0  0  0  0  0  0  0  0  0  0
   25.0752  -18.7369  -14.2112 O   0  0  0  0  0  0  0  0  0  0  0  0
   25.1583  -22.1018   -7.6785 C   0  0  0  0  0  0  0  0  0  0  0  0
   22.3761  -18.7464  -16.9040 C   0  0  2  0  0  0  0  0  0  0  0  0
   21.7609  -19.7166  -15.9365 O   0  0  0  0  0  0  0  0  0  0  0  0
   21.7891  -20.9793  -16.5363 C   0  0  2  0  0  0  0  0  0  0  0  0
   22.5022  -19.8281  -14.6291 N   0  0  0  0  0  0  0  0  0  0  0  0
   23.7616  -20.5159  -14.7476 C   0  0  0  0  0  0  0  0  0  0  0  0
   21.6435  -20.5749  -13.6905 O   0  0  0  0  0  0  0  0  0  0  0  0
   21.9321  -21.7195  -13.2458 O   0  0  0  0  0  0  0  0  0  0  0  0
  2  3  1  0
  2  1  1  6
  4  2  1  0
  5  4  2  0
  6  7  1  0
  7  9  1  0
  8  7  2  0
 10  9  1  0
 10 11  1  0
 11 12  1  0
 13 12  1  1
 13 14  1  0
 14  4  1  0
 15 13  1  0
 15 21  1  0
 16 15  2  0
 18 17  1  6
 19 18  1  0
 20 18  1  0
 20 21  1  1
 20 22  1  0
 22 24  1  0
 23 22  2  0
M  END
$$$$
