ART.pdb
     RDKit          3D

 24 23  0  0  1  0  0  0  0  0999 V2000
   20.6770  -23.2121  -12.9130 C   0  0  0  0  0  0  0  0  0  0  0  0
   19.9704  -21.9353  -13.2910 C   0  0  2  0  0  0  0  0  0  0  0  0
   18.6020  -22.1643  -13.6542 N   0  0  0  0  0  0  0  0  0  0  0  0
   20.7229  -21.1988  -14.3722 C   0  0  0  0  0  0  0  0  0  0  0  0
   20.5848  -21.6232  -15.5181 O   0  0  0  0  0  0  0  0  0  0  0  0
   22.4147  -14.0838  -18.6968 N   0  0  0  0  0  0  0  0  0  0  0  0
   21.2408  -14.8420  -18.3979 C   0  0  0  0  0  0  0  0  0  0  0  0
   20.2030  -14.7321  -19.1663 N   0  0  0  0  0  0  0  0  0  0  0  0
   21.1614  -15.7131  -17.2910 N   0  0  0  0  0  0  0  0  0  0  0  0
   22.2232  -15.8285  -16.3605 C   0  0  0  0  0  0  0  0  0  0  0  0
   22.8162  -17.2147  -16.2194 C   0  0  0  0  0  0  0  0  0  0  0  0
   21.9383  -17.9193  -15.1951 C   0  0  0  0  0  0  0  0  0  0  0  0
   22.3504  -19.3576  -14.9544 C   0  0  2  0  0  0  0  0  0  0  0  0
   21.5307  -20.0931  -14.0637 N   0  0  0  0  0  0  0  0  0  0  0  0
   23.7900  -19.4303  -14.7499 C   0  0  0  0  0  0  0  0  0  0  0  0
   24.2362  -19.0580  -13.6305 O   0  0  0  0  0  0  0  0  0  0  0  0
   19.3366  -15.2660  -19.0286 C   0  0  0  0  0  0  0  0  0  0  0  0
   26.1059  -22.2579  -14.3043 C   0  0  2  0  0  0  0  0  0  0  0  0
   26.5699  -21.4738  -15.4985 O   0  0  0  0  0  0  0  0  0  0  0  0
   26.0184  -22.0760  -16.6336 C   0  0  2  0  0  0  0  0  0  0  0  0
   26.1219  -20.0349  -15.4958 N   0  0  0  0  0  0  0  0  0  0  0  0
   24.7048  -19.8813  -15.6995 C   0  0  0  0  0  0  0  0  0  0  0  0
   26.8329  -19.3432  -16.5875 O   0  0  0  0  0  0  0  0  0  0  0  0
   26.2458  -18.7806  -17.5519 O   0  0  0  0  0  0  0  0  0  0  0  0
  2  3  1  0
  2  1  1  6
  4  2  1  0
  5  4  2  0
  6  7  1  0
  7  9  1  0
  8  7  2  0
 10  9  1  0
 10 11  1  0
 11 12  1  0
 13 12  1  1
 13 14  1  0
 14  4  1  0
 15 13  1  0
 15 21  1  0
 16 15  2  0
 18 17  1  6
 19 18  1  0
 20 18  1  0
 20 21  1  1
 20 22  1  0
 22 24  1  0
 23 22  2  0
M  END
$$$$
