ART.pdb
     RDKit          3D

 24 23  0  0  1  0  0  0  0  0999 V2000
   26.4030  -19.5236  -17.7458 C   0  0  0  0  0  0  0  0  0  0  0  0
   27.0446  -20.5810  -16.8840 C   0  0  2  0  0  0  0  0  0  0  0  0
   27.5173  -21.6925  -17.6574 N   0  0  0  0  0  0  0  0  0  0  0  0
   26.1131  -21.0199  -15.7807 C   0  0  0  0  0  0  0  0  0  0  0  0
   25.3049  -21.9012  -16.0682 O   0  0  0  0  0  0  0  0  0  0  0  0
   27.4912  -19.7873   -7.3422 N   0  0  0  0  0  0  0  0  0  0  0  0
   27.8865  -20.7117   -8.3578 C   0  0  0  0  0  0  0  0  0  0  0  0
   29.0523  -21.2732   -8.2843 N   0  0  0  0  0  0  0  0  0  0  0  0
   27.0549  -21.0424   -9.4483 N   0  0  0  0  0  0  0  0  0  0  0  0
   25.7880  -20.4341   -9.6261 C   0  0  0  0  0  0  0  0  0  0  0  0
   25.0436  -20.8376  -10.8815 C   0  0  0  0  0  0  0  0  0  0  0  0
   25.9496  -20.4206  -12.0311 C   0  0  0  0  0  0  0  0  0  0  0  0
   25.3522  -20.7192  -13.3915 C   0  0  2  0  0  0  0  0  0  0  0  0
   26.1828  -20.4400  -14.5044 N   0  0  0  0  0  0  0  0  0  0  0  0
   23.9805  -20.2343  -13.4448 C   0  0  0  0  0  0  0  0  0  0  0  0
   23.8020  -18.9888  -13.3577 O   0  0  0  0  0  0  0  0  0  0  0  0
   29.4214  -21.9091   -9.0012 C   0  0  0  0  0  0  0  0  0  0  0  0
   21.4093  -20.1408  -16.1231 C   0  0  2  0  0  0  0  0  0  0  0  0
   20.8213  -20.8867  -14.9595 O   0  0  0  0  0  0  0  0  0  0  0  0
   20.9888  -22.2519  -15.2107 C   0  0  2  0  0  0  0  0  0  0  0  0
   21.4919  -20.5907  -13.6427 N   0  0  0  0  0  0  0  0  0  0  0  0
   22.8566  -21.0461  -13.5858 C   0  0  0  0  0  0  0  0  0  0  0  0
   20.7224  -21.2737  -12.5856 O   0  0  0  0  0  0  0  0  0  0  0  0
   21.1792  -22.2303  -11.9021 O   0  0  0  0  0  0  0  0  0  0  0  0
  2  3  1  0
  2  1  1  6
  4  2  1  0
  5  4  2  0
  6  7  1  0
  7  9  1  0
  8  7  2  0
 10  9  1  0
 10 11  1  0
 11 12  1  0
 13 12  1  1
 13 14  1  0
 14  4  1  0
 15 13  1  0
 15 21  1  0
 16 15  2  0
 18 17  1  6
 19 18  1  0
 20 18  1  0
 20 21  1  1
 20 22  1  0
 22 24  1  0
 23 22  2  0
M  END
$$$$
