HKA.pdb
     RDKit          3D

 25 25  0  0  1  0  0  0  0  0999 V2000
   25.0776  -13.7366  -18.4556 N   0  0  0  0  0  0  0  0  0  0  0  0
   24.9428  -12.6482  -17.5345 C   0  0  1  0  0  0  0  0  0  0  0  0
   26.2394  -11.9005  -17.3208 C   0  0  0  0  0  0  0  0  0  0  0  0
   27.2681  -12.7312  -16.6730 C   0  0  0  0  0  0  0  0  0  0  0  0
   27.1823  -14.0342  -16.2664 C   0  0  0  0  0  0  0  0  0  0  0  0
   28.3757  -14.3446  -15.7342 N   0  0  0  0  0  0  0  0  0  0  0  0
   29.1909  -13.2788  -15.7997 C   0  0  0  0  0  0  0  0  0  0  0  0
   28.5006  -12.2938  -16.3779 N   0  0  0  0  0  0  0  0  0  0  0  0
   23.9688  -11.6801  -18.0886 C   0  0  0  0  0  0  0  0  0  0  0  0
   23.9043  -11.5212  -19.3193 O   0  0  0  0  0  0  0  0  0  0  0  0
   23.1140  -10.9344  -17.2688 N   0  0  0  0  0  0  0  0  0  0  0  0
   22.0369  -10.0835  -17.5973 C   0  0  1  0  0  0  0  0  0  0  0  0
   20.6949  -10.6594  -17.8440 C   0  0  0  0  0  0  0  0  0  0  0  0
   19.5942   -9.7101  -18.1799 C   0  0  0  0  0  0  0  0  0  0  0  0
   18.2793  -10.4334  -18.5242 C   0  0  0  0  0  0  0  0  0  0  0  0
   17.2305   -9.3612  -18.7551 C   0  0  0  0  0  0  0  0  0  0  0  0
   16.0445  -10.0092  -19.2555 N   0  0  0  0  0  0  0  0  0  0  0  0
   21.9890   -8.8756  -16.7550 C   0  0  0  0  0  0  0  0  0  0  0  0
   21.9231   -9.0300  -15.4802 O   0  0  0  0  0  0  0  0  0  0  0  0
   22.2456   -5.1952  -17.1236 C   0  0  0  0  0  0  0  0  0  0  0  0
   22.0351   -6.4574  -16.2768 C   0  0  2  0  0  0  0  0  0  0  0  0
   22.0107   -7.5618  -17.2415 N   0  0  0  0  0  0  0  0  0  0  0  0
   20.6863   -6.3395  -15.6829 C   0  0  0  0  0  0  0  0  0  0  0  0
   20.4392   -5.6632  -14.4965 O   0  0  0  0  0  0  0  0  0  0  0  0
   19.7124   -6.8660  -16.2607 O   0  0  0  0  0  0  0  0  0  0  0  0
  2  1  1  6
  2  9  1  0
  3  2  1  0
  4  3  1  0
  5  4  2  0
  6  5  1  0
  7  6  1  0
  7  8  2  0
  8  4  1  0
  9 11  1  0
  9 10  2  0
 11 12  1  0
 12 18  1  0
 12 13  1  1
 13 14  1  0
 14 15  1  0
 16 17  1  0
 16 15  1  0
 18 19  2  0
 21 20  1  6
 21 23  1  0
 22 21  1  0
 22 18  1  0
 23 24  1  0
 25 23  2  0
M  END
$$$$
