HKA.pdb
     RDKit          3D

 25 25  0  0  1  0  0  0  0  0999 V2000
   21.6655  -12.6516  -16.2374 N   0  0  0  0  0  0  0  0  0  0  0  0
   20.9073  -11.5128  -16.6609 C   0  0  1  0  0  0  0  0  0  0  0  0
   19.5638  -11.4179  -15.9740 C   0  0  0  0  0  0  0  0  0  0  0  0
   18.6596  -12.5169  -16.3516 C   0  0  0  0  0  0  0  0  0  0  0  0
   17.8811  -12.6366  -17.4697 C   0  0  0  0  0  0  0  0  0  0  0  0
   17.2387  -13.8110  -17.3604 N   0  0  0  0  0  0  0  0  0  0  0  0
   17.5951  -14.4164  -16.2152 C   0  0  0  0  0  0  0  0  0  0  0  0
   18.4679  -13.6131  -15.6037 N   0  0  0  0  0  0  0  0  0  0  0  0
   21.6622  -10.2878  -16.3110 C   0  0  0  0  0  0  0  0  0  0  0  0
   22.1429  -10.1763  -15.1706 O   0  0  0  0  0  0  0  0  0  0  0  0
   21.8535   -9.2461  -17.2260 N   0  0  0  0  0  0  0  0  0  0  0  0
   22.5901   -8.0476  -17.1129 C   0  0  1  0  0  0  0  0  0  0  0  0
   23.2359   -7.4665  -18.3124 C   0  0  0  0  0  0  0  0  0  0  0  0
   23.9640   -6.1759  -18.1400 C   0  0  0  0  0  0  0  0  0  0  0  0
   24.5227   -5.6345  -19.4687 C   0  0  0  0  0  0  0  0  0  0  0  0
   25.3211   -4.3868  -19.1388 C   0  0  0  0  0  0  0  0  0  0  0  0
   25.7819   -3.8206  -20.3813 N   0  0  0  0  0  0  0  0  0  0  0  0
   21.9050   -7.0343  -16.2915 C   0  0  0  0  0  0  0  0  0  0  0  0
   20.7878   -6.5635  -16.7199 O   0  0  0  0  0  0  0  0  0  0  0  0
   21.7797   -5.8632  -12.8679 C   0  0  0  0  0  0  0  0  0  0  0  0
   21.5797   -5.5431  -14.3551 C   0  0  2  0  0  0  0  0  0  0  0  0
   22.3818   -6.5419  -15.0693 N   0  0  0  0  0  0  0  0  0  0  0  0
   22.1937   -4.2173  -14.5813 C   0  0  0  0  0  0  0  0  0  0  0  0
   21.5711   -3.0267  -14.2339 O   0  0  0  0  0  0  0  0  0  0  0  0
   23.3238   -4.1453  -15.1080 O   0  0  0  0  0  0  0  0  0  0  0  0
  2  1  1  1
  2  9  1  0
  3  2  1  0
  4  3  1  0
  5  4  2  0
  6  5  1  0
  7  6  1  0
  7  8  2  0
  8  4  1  0
  9 11  1  0
  9 10  2  0
 11 12  1  0
 12 18  1  0
 12 13  1  6
 13 14  1  0
 14 15  1  0
 16 17  1  0
 16 15  1  0
 18 19  2  0
 21 20  1  1
 21 23  1  0
 22 21  1  0
 22 18  1  0
 23 24  1  0
 25 23  2  0
M  END
$$$$
