HKA.pdb
     RDKit          3D

 25 25  0  0  1  0  0  0  0  0999 V2000
   17.7892   -9.0801  -13.5063 N   0  0  0  0  0  0  0  0  0  0  0  0
   18.2541   -8.5405  -12.2637 C   0  0  1  0  0  0  0  0  0  0  0  0
   19.4798   -7.6705  -12.4274 C   0  0  0  0  0  0  0  0  0  0  0  0
   20.6412   -8.4230  -12.9301 C   0  0  0  0  0  0  0  0  0  0  0  0
   20.7369   -9.7577  -13.2128 C   0  0  0  0  0  0  0  0  0  0  0  0
   21.9927   -9.9653  -13.6414 N   0  0  0  0  0  0  0  0  0  0  0  0
   22.6711   -8.8059  -13.6319 C   0  0  0  0  0  0  0  0  0  0  0  0
   21.8318   -7.8655  -13.1934 N   0  0  0  0  0  0  0  0  0  0  0  0
   17.1876   -7.6865  -11.6927 C   0  0  0  0  0  0  0  0  0  0  0  0
   16.4765   -7.0118  -12.4564 O   0  0  0  0  0  0  0  0  0  0  0  0
   16.9523   -7.6132  -10.3150 N   0  0  0  0  0  0  0  0  0  0  0  0
   15.9766   -6.8999   -9.5862 C   0  0  1  0  0  0  0  0  0  0  0  0
   15.0080   -7.6353   -8.7410 C   0  0  0  0  0  0  0  0  0  0  0  0
   14.0245   -8.5161   -9.4355 C   0  0  0  0  0  0  0  0  0  0  0  0
   13.0908   -9.2445   -8.4515 C   0  0  0  0  0  0  0  0  0  0  0  0
   12.1544  -10.1033   -9.2814 C   0  0  0  0  0  0  0  0  0  0  0  0
   11.2284  -10.7396   -8.3790 N   0  0  0  0  0  0  0  0  0  0  0  0
   16.5263   -5.7099   -8.9135 C   0  0  0  0  0  0  0  0  0  0  0  0
   17.3953   -5.8891   -7.9828 O   0  0  0  0  0  0  0  0  0  0  0  0
   17.6049   -2.4992   -9.4358 C   0  0  0  0  0  0  0  0  0  0  0  0
   16.7737   -3.3052   -8.4289 C   0  0  2  0  0  0  0  0  0  0  0  0
   16.1720   -4.3879   -9.2140 N   0  0  0  0  0  0  0  0  0  0  0  0
   15.6871   -2.4106   -7.9762 C   0  0  0  0  0  0  0  0  0  0  0  0
   15.8929   -1.3554   -7.0985 O   0  0  0  0  0  0  0  0  0  0  0  0
   14.5244   -2.5973   -8.3917 O   0  0  0  0  0  0  0  0  0  0  0  0
  2  1  1  6
  2  9  1  0
  3  2  1  0
  4  3  1  0
  5  4  2  0
  6  5  1  0
  7  6  1  0
  7  8  2  0
  8  4  1  0
  9 11  1  0
  9 10  2  0
 11 12  1  0
 12 18  1  0
 12 13  1  1
 13 14  1  0
 14 15  1  0
 16 17  1  0
 16 15  1  0
 18 19  2  0
 21 20  1  6
 21 23  1  0
 22 21  1  0
 22 18  1  0
 23 24  1  0
 25 23  2  0
M  END
$$$$
