HKA.pdb
     RDKit          3D

 25 25  0  0  1  0  0  0  0  0999 V2000
   18.8897  -12.9807  -16.8115 N   0  0  0  0  0  0  0  0  0  0  0  0
   19.1926  -11.6454  -17.2315 C   0  0  1  0  0  0  0  0  0  0  0  0
   17.9622  -10.7728  -17.3345 C   0  0  0  0  0  0  0  0  0  0  0  0
   17.0374  -11.2256  -18.3869 C   0  0  0  0  0  0  0  0  0  0  0  0
   16.8159  -10.6806  -19.6217 C   0  0  0  0  0  0  0  0  0  0  0  0
   15.8852  -11.4474  -20.2130 N   0  0  0  0  0  0  0  0  0  0  0  0
   15.5276  -12.4434  -19.3854 C   0  0  0  0  0  0  0  0  0  0  0  0
   16.2412  -12.2976  -18.2671 N   0  0  0  0  0  0  0  0  0  0  0  0
   20.0826  -11.0251  -16.2235 C   0  0  0  0  0  0  0  0  0  0  0  0
   19.7086  -10.9628  -15.0401 O   0  0  0  0  0  0  0  0  0  0  0  0
   21.3371  -10.5040  -16.5603 N   0  0  0  0  0  0  0  0  0  0  0  0
   22.3256   -9.8965  -15.7567 C   0  0  1  0  0  0  0  0  0  0  0  0
   23.7506  -10.2486  -15.9536 C   0  0  0  0  0  0  0  0  0  0  0  0
   24.0874  -11.6972  -16.0719 C   0  0  0  0  0  0  0  0  0  0  0  0
   25.6047  -11.9419  -16.1640 C   0  0  0  0  0  0  0  0  0  0  0  0
   25.8032  -13.4358  -16.3422 C   0  0  0  0  0  0  0  0  0  0  0  0
   27.2105  -13.6694  -16.5459 N   0  0  0  0  0  0  0  0  0  0  0  0
   22.1171   -8.4467  -15.5973 C   0  0  0  0  0  0  0  0  0  0  0  0
   22.8631   -7.8173  -14.7602 O   0  0  0  0  0  0  0  0  0  0  0  0
   20.3003   -5.6689  -17.1993 C   0  0  0  0  0  0  0  0  0  0  0  0
   21.0358   -6.2665  -15.9926 C   0  0  2  0  0  0  0  0  0  0  0  0
   21.1611   -7.6961  -16.2946 N   0  0  0  0  0  0  0  0  0  0  0  0
   20.1249   -6.1217  -14.8370 C   0  0  0  0  0  0  0  0  0  0  0  0
   19.9415   -4.9215  -14.1648 O   0  0  0  0  0  0  0  0  0  0  0  0
   19.4827   -7.1136  -14.4329 O   0  0  0  0  0  0  0  0  0  0  0  0
  2  1  1  1
  2  9  1  0
  3  2  1  0
  4  3  1  0
  5  4  2  0
  6  5  1  0
  7  6  1  0
  7  8  2  0
  8  4  1  0
  9 11  1  0
  9 10  2  0
 11 12  1  0
 12 18  1  0
 12 13  1  6
 13 14  1  0
 14 15  1  0
 16 17  1  0
 16 15  1  0
 18 19  2  0
 21 20  1  6
 21 23  1  0
 22 21  1  0
 22 18  1  0
 23 24  1  0
 25 23  2  0
M  END
$$$$
