HKA.pdb
     RDKit          3D

 25 25  0  0  1  0  0  0  0  0999 V2000
   21.8297  -10.3223  -20.5357 N   0  0  0  0  0  0  0  0  0  0  0  0
   22.7341   -9.6831  -19.6276 C   0  0  1  0  0  0  0  0  0  0  0  0
   23.6233   -8.6670  -20.3080 C   0  0  0  0  0  0  0  0  0  0  0  0
   24.5864   -9.2902  -21.2310 C   0  0  0  0  0  0  0  0  0  0  0  0
   25.9385   -9.4353  -21.0846 C   0  0  0  0  0  0  0  0  0  0  0  0
   26.3738  -10.0644  -22.1884 N   0  0  0  0  0  0  0  0  0  0  0  0
   25.3374  -10.3105  -23.0070 C   0  0  0  0  0  0  0  0  0  0  0  0
   24.2449   -9.8310  -22.4093 N   0  0  0  0  0  0  0  0  0  0  0  0
   21.9429   -8.9558  -18.6088 C   0  0  0  0  0  0  0  0  0  0  0  0
   20.8943   -8.3831  -18.9500 O   0  0  0  0  0  0  0  0  0  0  0  0
   22.3384   -8.8913  -17.2678 N   0  0  0  0  0  0  0  0  0  0  0  0
   21.7000   -8.3159  -16.1483 C   0  0  1  0  0  0  0  0  0  0  0  0
   21.6724   -9.0488  -14.8616 C   0  0  0  0  0  0  0  0  0  0  0  0
   21.0558   -8.3563  -13.6929 C   0  0  0  0  0  0  0  0  0  0  0  0
   19.6219   -8.8415  -13.4119 C   0  0  0  0  0  0  0  0  0  0  0  0
   19.0581   -7.9512  -12.3199 C   0  0  0  0  0  0  0  0  0  0  0  0
   17.6589   -8.2653  -12.1775 N   0  0  0  0  0  0  0  0  0  0  0  0
   22.0237   -6.8884  -15.9804 C   0  0  0  0  0  0  0  0  0  0  0  0
   23.2347   -6.5741  -15.6836 O   0  0  0  0  0  0  0  0  0  0  0  0
   20.3684   -3.5784  -16.2375 C   0  0  0  0  0  0  0  0  0  0  0  0
   21.5619   -4.4691  -15.8681 C   0  0  2  0  0  0  0  0  0  0  0  0
   21.1053   -5.8396  -16.1215 N   0  0  0  0  0  0  0  0  0  0  0  0
   21.7599   -4.3156  -14.4110 C   0  0  0  0  0  0  0  0  0  0  0  0
   22.5949   -3.3544  -13.8587 O   0  0  0  0  0  0  0  0  0  0  0  0
   21.1568   -5.0764  -13.6254 O   0  0  0  0  0  0  0  0  0  0  0  0
  2  1  1  6
  2  9  1  0
  3  2  1  0
  4  3  1  0
  5  4  2  0
  6  5  1  0
  7  6  1  0
  7  8  2  0
  8  4  1  0
  9 11  1  0
  9 10  2  0
 11 12  1  0
 12 18  1  0
 12 13  1  1
 13 14  1  0
 14 15  1  0
 16 17  1  0
 16 15  1  0
 18 19  2  0
 21 20  1  1
 21 23  1  0
 22 21  1  0
 22 18  1  0
 23 24  1  0
 25 23  2  0
M  END
$$$$
