HKA.pdb
     RDKit          3D

 25 25  0  0  1  0  0  0  0  0999 V2000
   23.6302  -10.6602  -18.4674 N   0  0  0  0  0  0  0  0  0  0  0  0
   23.2692   -9.9747  -17.2628 C   0  0  1  0  0  0  0  0  0  0  0  0
   24.3890   -9.1141  -16.7231 C   0  0  0  0  0  0  0  0  0  0  0  0
   25.5482   -9.9088  -16.2841 C   0  0  0  0  0  0  0  0  0  0  0  0
   25.7145  -11.2660  -16.3152 C   0  0  0  0  0  0  0  0  0  0  0  0
   26.9341  -11.5102  -15.8085 N   0  0  0  0  0  0  0  0  0  0  0  0
   27.5223  -10.3515  -15.4676 C   0  0  0  0  0  0  0  0  0  0  0  0
   26.6626   -9.3747  -15.7639 N   0  0  0  0  0  0  0  0  0  0  0  0
   22.1312   -9.0738  -17.5566 C   0  0  0  0  0  0  0  0  0  0  0  0
   22.0698   -8.5156  -18.6651 O   0  0  0  0  0  0  0  0  0  0  0  0
   21.1175   -8.8286  -16.6233 N   0  0  0  0  0  0  0  0  0  0  0  0
   19.9056   -8.1163  -16.7489 C   0  0  1  0  0  0  0  0  0  0  0  0
   18.6220   -8.7928  -16.4519 C   0  0  0  0  0  0  0  0  0  0  0  0
   17.3707   -8.0072  -16.6586 C   0  0  0  0  0  0  0  0  0  0  0  0
   16.1098   -8.7942  -16.2568 C   0  0  0  0  0  0  0  0  0  0  0  0
   14.9152   -7.9233  -16.5995 C   0  0  0  0  0  0  0  0  0  0  0  0
   14.5763   -7.1625  -15.4235 N   0  0  0  0  0  0  0  0  0  0  0  0
   19.9792   -6.7625  -16.1723 C   0  0  0  0  0  0  0  0  0  0  0  0
   20.1864   -6.6545  -14.9078 O   0  0  0  0  0  0  0  0  0  0  0  0
   20.2855   -3.2684  -17.2919 C   0  0  0  0  0  0  0  0  0  0  0  0
   19.9765   -4.2971  -16.1962 C   0  0  2  0  0  0  0  0  0  0  0  0
   19.8404   -5.5749  -16.9029 N   0  0  0  0  0  0  0  0  0  0  0  0
   18.6521   -3.9351  -15.6476 C   0  0  0  0  0  0  0  0  0  0  0  0
   18.4782   -2.9652  -14.6702 O   0  0  0  0  0  0  0  0  0  0  0  0
   17.6317   -4.5177  -16.0705 O   0  0  0  0  0  0  0  0  0  0  0  0
  2  1  1  6
  2  9  1  0
  3  2  1  0
  4  3  1  0
  5  4  2  0
  6  5  1  0
  7  6  1  0
  7  8  2  0
  8  4  1  0
  9 11  1  0
  9 10  2  0
 11 12  1  0
 12 18  1  0
 12 13  1  1
 13 14  1  0
 14 15  1  0
 16 17  1  0
 16 15  1  0
 18 19  2  0
 21 20  1  6
 21 23  1  0
 22 21  1  0
 22 18  1  0
 23 24  1  0
 25 23  2  0
M  END
$$$$
