HKA.pdb
     RDKit          3D

 25 25  0  0  1  0  0  0  0  0999 V2000
   25.6675  -18.6650  -11.2453 N   0  0  0  0  0  0  0  0  0  0  0  0
   25.3231  -19.4726  -12.3768 C   0  0  1  0  0  0  0  0  0  0  0  0
   23.9141  -20.0155  -12.2991 C   0  0  0  0  0  0  0  0  0  0  0  0
   23.6558  -20.7325  -11.0393 C   0  0  0  0  0  0  0  0  0  0  0  0
   24.1542  -21.9365  -10.6241 C   0  0  0  0  0  0  0  0  0  0  0  0
   23.6274  -22.1666   -9.4103 N   0  0  0  0  0  0  0  0  0  0  0  0
   22.8236  -21.1468   -9.0657 C   0  0  0  0  0  0  0  0  0  0  0  0
   22.8484  -20.2719  -10.0731 N   0  0  0  0  0  0  0  0  0  0  0  0
   25.3995  -18.6338  -13.5948 C   0  0  0  0  0  0  0  0  0  0  0  0
   24.7871  -17.5531  -13.6267 O   0  0  0  0  0  0  0  0  0  0  0  0
   26.1419  -19.0191  -14.7170 N   0  0  0  0  0  0  0  0  0  0  0  0
   26.4718  -18.3062  -15.8894 C   0  0  1  0  0  0  0  0  0  0  0  0
   27.8307  -18.4287  -16.4655 C   0  0  0  0  0  0  0  0  0  0  0  0
   28.1020  -17.7012  -17.7394 C   0  0  0  0  0  0  0  0  0  0  0  0
   29.5038  -18.0023  -18.3007 C   0  0  0  0  0  0  0  0  0  0  0  0
   29.6854  -17.1321  -19.5307 C   0  0  0  0  0  0  0  0  0  0  0  0
   31.0030  -17.3863  -20.0562 N   0  0  0  0  0  0  0  0  0  0  0  0
   25.4144  -18.3743  -16.9131 C   0  0  0  0  0  0  0  0  0  0  0  0
   25.0254  -19.5359  -17.3040 O   0  0  0  0  0  0  0  0  0  0  0  0
   23.0874  -16.1028  -18.6848 C   0  0  0  0  0  0  0  0  0  0  0  0
   23.7135  -17.4857  -18.4611 C   0  0  2  0  0  0  0  0  0  0  0  0
   24.7952  -17.2609  -17.4966 N   0  0  0  0  0  0  0  0  0  0  0  0
   24.3241  -17.8790  -19.7489 C   0  0  0  0  0  0  0  0  0  0  0  0
   23.7903  -18.8628  -20.5694 O   0  0  0  0  0  0  0  0  0  0  0  0
   25.3680  -17.3112  -20.1327 O   0  0  0  0  0  0  0  0  0  0  0  0
  2  1  1  1
  2  9  1  0
  3  2  1  0
  4  3  1  0
  5  4  2  0
  6  5  1  0
  7  6  1  0
  7  8  2  0
  8  4  1  0
  9 11  1  0
  9 10  2  0
 11 12  1  0
 12 18  1  0
 12 13  1  6
 13 14  1  0
 14 15  1  0
 16 17  1  0
 16 15  1  0
 18 19  2  0
 21 20  1  6
 21 23  1  0
 22 21  1  0
 22 18  1  0
 23 24  1  0
 25 23  2  0
M  END
$$$$
