HKA.pdb
     RDKit          3D

 25 25  0  0  1  0  0  0  0  0999 V2000
   28.8360  -23.5614  -17.6430 N   0  0  0  0  0  0  0  0  0  0  0  0
   27.6708  -23.6732  -16.8178 C   0  0  1  0  0  0  0  0  0  0  0  0
   27.6047  -24.9894  -16.0766 C   0  0  0  0  0  0  0  0  0  0  0  0
   27.2002  -26.1059  -16.9471 C   0  0  0  0  0  0  0  0  0  0  0  0
   26.0055  -26.7706  -16.9840 C   0  0  0  0  0  0  0  0  0  0  0  0
   26.1211  -27.7051  -17.9417 N   0  0  0  0  0  0  0  0  0  0  0  0
   27.3440  -27.6377  -18.4938 C   0  0  0  0  0  0  0  0  0  0  0  0
   27.9982  -26.6524  -17.8756 N   0  0  0  0  0  0  0  0  0  0  0  0
   27.7118  -22.6009  -15.7972 C   0  0  0  0  0  0  0  0  0  0  0  0
   28.8048  -22.2727  -15.3056 O   0  0  0  0  0  0  0  0  0  0  0  0
   26.5553  -21.9415  -15.3654 N   0  0  0  0  0  0  0  0  0  0  0  0
   26.3922  -20.8671  -14.4650 C   0  0  1  0  0  0  0  0  0  0  0  0
   26.0207  -19.5285  -14.9785 C   0  0  0  0  0  0  0  0  0  0  0  0
   26.9306  -18.9040  -15.9823 C   0  0  0  0  0  0  0  0  0  0  0  0
   26.3569  -17.5985  -16.5631 C   0  0  0  0  0  0  0  0  0  0  0  0
   27.3568  -17.0907  -17.5856 C   0  0  0  0  0  0  0  0  0  0  0  0
   26.8081  -15.8982  -18.1801 N   0  0  0  0  0  0  0  0  0  0  0  0
   25.6299  -21.2439  -13.2618 C   0  0  0  0  0  0  0  0  0  0  0  0
   24.5722  -21.9589  -13.4158 O   0  0  0  0  0  0  0  0  0  0  0  0
   25.7802  -20.7858   -9.5815 C   0  0  0  0  0  0  0  0  0  0  0  0
   25.1221  -21.3418  -10.8512 C   0  0  2  0  0  0  0  0  0  0  0  0
   25.9731  -20.8804  -11.9528 N   0  0  0  0  0  0  0  0  0  0  0  0
   23.8128  -20.6656  -10.9711 C   0  0  0  0  0  0  0  0  0  0  0  0
   23.5653  -19.6547  -11.8892 O   0  0  0  0  0  0  0  0  0  0  0  0
   22.8744  -21.0059  -10.2206 O   0  0  0  0  0  0  0  0  0  0  0  0
  2  1  1  1
  2  9  1  0
  3  2  1  0
  4  3  1  0
  5  4  2  0
  6  5  1  0
  7  6  1  0
  7  8  2  0
  8  4  1  0
  9 11  1  0
  9 10  2  0
 11 12  1  0
 12 18  1  0
 12 13  1  6
 13 14  1  0
 14 15  1  0
 16 17  1  0
 16 15  1  0
 18 19  2  0
 21 20  1  1
 21 23  1  0
 22 21  1  0
 22 18  1  0
 23 24  1  0
 25 23  2  0
M  END
$$$$
