RSY.pdb
     RDKit          3D

 30 30  0  0  1  0  0  0  0  0999 V2000
   25.0636  -21.8653  -16.4567 N   0  0  0  0  0  0  0  0  0  0  0  0
   26.1642  -22.6861  -16.0930 C   0  0  0  0  0  0  0  0  0  0  0  0
   26.0480  -23.9606  -16.0312 N   0  0  0  0  0  0  0  0  0  0  0  0
   27.4107  -22.0934  -15.7929 N   0  0  0  0  0  0  0  0  0  0  0  0
   27.7810  -20.7939  -16.4056 C   0  0  0  0  0  0  0  0  0  0  0  0
   28.3899  -21.0791  -17.7298 C   0  0  0  0  0  0  0  0  0  0  0  0
   27.7950  -20.2680  -18.8179 C   0  0  0  0  0  0  0  0  0  0  0  0
   28.1973  -18.8461  -18.9107 C   0  0  2  0  0  0  0  0  0  0  0  0
   29.4054  -18.4806  -18.2398 N   0  0  0  0  0  0  0  0  0  0  0  0
   27.0365  -18.0169  -18.4372 C   0  0  0  0  0  0  0  0  0  0  0  0
   27.1530  -17.2049  -17.4903 O   0  0  0  0  0  0  0  0  0  0  0  0
   26.7804  -24.6075  -15.6825 O   0  0  0  0  0  0  0  0  0  0  0  0
   23.5316  -18.2511  -20.4145 C   0  0  0  0  0  0  0  0  0  0  0  0
   23.9230  -16.9825  -19.9763 C   0  0  1  0  0  0  0  0  0  0  0  0
   24.7284  -17.2003  -18.6958 N   0  0  0  0  0  0  0  0  0  0  0  0
   25.7839  -18.1521  -19.0712 C   0  0  0  0  0  0  0  0  0  0  0  0
   23.8795  -17.8275  -17.6575 O   0  0  0  0  0  0  0  0  0  0  0  0
   24.3000  -18.8292  -17.0319 O   0  0  0  0  0  0  0  0  0  0  0  0
   19.5616  -19.3316  -10.4734 C   0  0  0  0  0  0  0  0  0  0  0  0
   20.3044  -18.9394  -11.5981 C   0  0  0  0  0  0  0  0  0  0  0  0
   21.1755  -19.8095  -12.2244 C   0  0  0  0  0  0  0  0  0  0  0  0
   21.8859  -19.4140  -13.3110 C   0  0  0  0  0  0  0  0  0  0  0  0
   21.7494  -18.1353  -13.8079 C   0  0  0  0  0  0  0  0  0  0  0  0
   22.5115  -17.6668  -14.9831 C   0  0  1  0  0  0  0  0  0  0  0  0
   21.7984  -17.9632  -16.3011 N   0  0  0  0  0  0  0  0  0  0  0  0
   22.5945  -17.3414  -17.3325 C   0  0  0  0  0  0  0  0  0  0  0  0
   20.4210  -17.4360  -16.3172 O   0  0  0  0  0  0  0  0  0  0  0  0
   19.3853  -18.2521  -15.9024 C   0  0  0  0  0  0  0  0  0  0  0  0
   20.8917  -17.2643  -13.1981 C   0  0  0  0  0  0  0  0  0  0  0  0
   20.1744  -17.6737  -12.0960 O   0  0  0  0  0  0  0  0  0  0  0  0
  1  2  1  0
  2  3  2  0
  4  2  1  0
  5  4  1  0
  5  6  1  0
  7  6  1  0
  7  8  1  0
  8  9  1  1
 10 15  1  0
 10  8  1  0
 11 10  2  0
 12 13  1  0
 14 13  1  6
 14 16  1  0
 14 15  1  0
 16 17  2  0
 18 19  1  0
 19 29  2  0
 19 20  1  0
 20 21  2  0
 21 22  1  0
 22 23  1  0
 24 23  1  6
 25 24  1  0
 25 16  1  0
 26 27  1  0
 26 24  1  0
 28 22  2  0
 29 28  1  0
 30 26  2  0
M  END
$$$$
