RSY.pdb
     RDKit          3D

 30 30  0  0  1  0  0  0  0  0999 V2000
   17.4907  -14.9695  -18.4341 N   0  0  0  0  0  0  0  0  0  0  0  0
   18.6787  -14.6661  -19.1510 C   0  0  0  0  0  0  0  0  0  0  0  0
   18.7052  -14.6960  -20.4317 N   0  0  0  0  0  0  0  0  0  0  0  0
   19.8542  -14.3251  -18.4461 N   0  0  0  0  0  0  0  0  0  0  0  0
   19.9242  -13.0482  -17.6939 C   0  0  0  0  0  0  0  0  0  0  0  0
   18.5314  -12.5955  -17.4470 C   0  0  0  0  0  0  0  0  0  0  0  0
   18.4649  -11.4159  -16.5527 C   0  0  0  0  0  0  0  0  0  0  0  0
   19.7059  -10.6318  -16.3598 C   0  0  2  0  0  0  0  0  0  0  0  0
   20.8093  -11.3208  -15.7674 N   0  0  0  0  0  0  0  0  0  0  0  0
   19.3450   -9.4012  -15.5758 C   0  0  0  0  0  0  0  0  0  0  0  0
   18.1524   -9.1039  -15.3333 O   0  0  0  0  0  0  0  0  0  0  0  0
   19.5433  -14.5058  -21.0130 O   0  0  0  0  0  0  0  0  0  0  0  0
   20.8498   -8.1942  -12.2878 C   0  0  0  0  0  0  0  0  0  0  0  0
   19.6293   -7.9487  -12.9238 C   0  0  1  0  0  0  0  0  0  0  0  0
   19.9696   -7.3878  -14.3041 N   0  0  0  0  0  0  0  0  0  0  0  0
   20.3699   -8.5580  -15.0987 C   0  0  0  0  0  0  0  0  0  0  0  0
   21.1249   -6.4666  -14.2117 O   0  0  0  0  0  0  0  0  0  0  0  0
   22.2906   -6.9279  -14.2225 O   0  0  0  0  0  0  0  0  0  0  0  0
   19.8997   -2.2391  -19.8407 C   0  0  0  0  0  0  0  0  0  0  0  0
   20.6237   -2.7651  -18.7592 C   0  0  0  0  0  0  0  0  0  0  0  0
   21.4446   -1.9668  -17.9866 C   0  0  0  0  0  0  0  0  0  0  0  0
   22.1375   -2.4915  -16.9443 C   0  0  0  0  0  0  0  0  0  0  0  0
   22.0331   -3.8319  -16.6395 C   0  0  0  0  0  0  0  0  0  0  0  0
   22.7777   -4.4400  -15.5183 C   0  0  1  0  0  0  0  0  0  0  0  0
   22.1143   -4.1845  -14.1662 N   0  0  0  0  0  0  0  0  0  0  0  0
   20.9730   -5.0667  -14.1102 C   0  0  0  0  0  0  0  0  0  0  0  0
   21.6945   -2.7790  -14.0113 O   0  0  0  0  0  0  0  0  0  0  0  0
   22.6574   -1.7873  -14.0112 C   0  0  0  0  0  0  0  0  0  0  0  0
   21.2251   -4.6331  -17.3955 C   0  0  0  0  0  0  0  0  0  0  0  0
   20.5253   -4.0926  -18.4514 O   0  0  0  0  0  0  0  0  0  0  0  0
  1  2  1  0
  2  3  2  0
  4  2  1  0
  5  4  1  0
  5  6  1  0
  7  6  1  0
  7  8  1  0
  8  9  1  1
 10 15  1  0
 10  8  1  0
 11 10  2  0
 12 13  1  0
 14 13  1  6
 14 16  1  0
 14 15  1  0
 16 17  2  0
 18 19  1  0
 19 29  2  0
 19 20  1  0
 20 21  2  0
 21 22  1  0
 22 23  1  0
 24 23  1  1
 25 24  1  0
 25 16  1  0
 26 27  1  0
 26 24  1  0
 28 22  2  0
 29 28  1  0
 30 26  2  0
M  END
$$$$
