RSY.pdb
     RDKit          3D

 30 30  0  0  1  0  0  0  0  0999 V2000
   18.7807  -18.6673  -15.0419 N   0  0  0  0  0  0  0  0  0  0  0  0
   17.7011  -18.8035  -15.9547 C   0  0  0  0  0  0  0  0  0  0  0  0
   17.2786  -19.9589  -16.3129 N   0  0  0  0  0  0  0  0  0  0  0  0
   17.0785  -17.6497  -16.4803 N   0  0  0  0  0  0  0  0  0  0  0  0
   17.5235  -16.3030  -16.0448 C   0  0  0  0  0  0  0  0  0  0  0  0
   16.7452  -15.3014  -16.8172 C   0  0  0  0  0  0  0  0  0  0  0  0
   17.0305  -13.9094  -16.3967 C   0  0  0  0  0  0  0  0  0  0  0  0
   16.1877  -12.8348  -16.9686 C   0  0  2  0  0  0  0  0  0  0  0  0
   15.4430  -13.1660  -18.1430 N   0  0  0  0  0  0  0  0  0  0  0  0
   17.0728  -11.6423  -17.2006 C   0  0  0  0  0  0  0  0  0  0  0  0
   17.6490  -11.4562  -18.2974 O   0  0  0  0  0  0  0  0  0  0  0  0
   16.4381  -20.1291  -16.8971 O   0  0  0  0  0  0  0  0  0  0  0  0
   16.2160   -8.4760  -15.5305 C   0  0  0  0  0  0  0  0  0  0  0  0
   17.1031   -8.3775  -16.6066 C   0  0  1  0  0  0  0  0  0  0  0  0
   18.0942   -9.5307  -16.4529 N   0  0  0  0  0  0  0  0  0  0  0  0
   17.2620  -10.7071  -16.1620 C   0  0  0  0  0  0  0  0  0  0  0  0
   18.9851   -9.2892  -15.2954 O   0  0  0  0  0  0  0  0  0  0  0  0
   18.6203   -9.6348  -14.1469 O   0  0  0  0  0  0  0  0  0  0  0  0
   23.6724  -13.5794  -17.1510 C   0  0  0  0  0  0  0  0  0  0  0  0
   23.3970  -12.3422  -16.5477 C   0  0  0  0  0  0  0  0  0  0  0  0
   23.4818  -12.1740  -15.1793 C   0  0  0  0  0  0  0  0  0  0  0  0
   23.2123  -10.9709  -14.6123 C   0  0  0  0  0  0  0  0  0  0  0  0
   22.8488   -9.8953  -15.3943 C   0  0  0  0  0  0  0  0  0  0  0  0
   22.5404   -8.5733  -14.8126 C   0  0  2  0  0  0  0  0  0  0  0  0
   21.1104   -8.4844  -14.2831 N   0  0  0  0  0  0  0  0  0  0  0  0
   20.2503   -8.6765  -15.4265 C   0  0  0  0  0  0  0  0  0  0  0  0
   20.8375   -7.1862  -13.6382 O   0  0  0  0  0  0  0  0  0  0  0  0
   21.3101   -6.9599  -12.3591 C   0  0  0  0  0  0  0  0  0  0  0  0
   22.7607  -10.0474  -16.7491 C   0  0  0  0  0  0  0  0  0  0  0  0
   23.0361  -11.2718  -17.3164 O   0  0  0  0  0  0  0  0  0  0  0  0
  1  2  1  0
  2  3  2  0
  4  2  1  0
  5  4  1  0
  5  6  1  0
  7  6  1  0
  7  8  1  0
  8  9  1  6
 10 15  1  0
 10  8  1  0
 11 10  2  0
 12 13  1  0
 14 13  1  6
 14 16  1  0
 14 15  1  0
 16 17  2  0
 18 19  1  0
 19 29  2  0
 19 20  1  0
 20 21  2  0
 21 22  1  0
 22 23  1  0
 24 23  1  1
 25 24  1  0
 25 16  1  0
 26 27  1  0
 26 24  1  0
 28 22  2  0
 29 28  1  0
 30 26  2  0
M  END
$$$$
