RSY.pdb
     RDKit          3D

 30 30  0  0  1  0  0  0  0  0999 V2000
   27.8129  -15.4486  -17.4536 N   0  0  0  0  0  0  0  0  0  0  0  0
   26.4125  -15.4793  -17.2185 C   0  0  0  0  0  0  0  0  0  0  0  0
   25.5765  -15.3744  -18.1838 N   0  0  0  0  0  0  0  0  0  0  0  0
   25.9268  -15.6277  -15.9005 N   0  0  0  0  0  0  0  0  0  0  0  0
   26.8782  -15.7525  -14.7689 C   0  0  0  0  0  0  0  0  0  0  0  0
   27.5914  -17.0461  -14.9224 C   0  0  0  0  0  0  0  0  0  0  0  0
   26.8102  -18.1935  -14.4038 C   0  0  0  0  0  0  0  0  0  0  0  0
   27.4156  -19.5402  -14.5144 C   0  0  2  0  0  0  0  0  0  0  0  0
   27.7772  -19.9703  -15.8287 N   0  0  0  0  0  0  0  0  0  0  0  0
   26.4748  -20.5129  -13.8602 C   0  0  0  0  0  0  0  0  0  0  0  0
   25.6891  -21.2197  -14.5331 O   0  0  0  0  0  0  0  0  0  0  0  0
   24.5444  -15.4002  -18.0811 O   0  0  0  0  0  0  0  0  0  0  0  0
   26.0645  -20.3977   -9.8328 C   0  0  0  0  0  0  0  0  0  0  0  0
   25.8119  -21.6469  -10.4074 C   0  0  1  0  0  0  0  0  0  0  0  0
   25.3598  -21.3760  -11.8420 N   0  0  0  0  0  0  0  0  0  0  0  0
   26.4731  -20.6374  -12.4553 C   0  0  0  0  0  0  0  0  0  0  0  0
   24.1618  -20.5060  -11.8456 O   0  0  0  0  0  0  0  0  0  0  0  0
   24.2976  -19.2608  -11.8967 O   0  0  0  0  0  0  0  0  0  0  0  0
   18.4225  -18.4276  -17.6081 C   0  0  0  0  0  0  0  0  0  0  0  0
   19.3692  -18.9699  -16.7248 C   0  0  0  0  0  0  0  0  0  0  0  0
   19.4597  -20.3321  -16.5145 C   0  0  0  0  0  0  0  0  0  0  0  0
   20.3810  -20.8397  -15.6571 C   0  0  0  0  0  0  0  0  0  0  0  0
   21.2428  -20.0026  -14.9810 C   0  0  0  0  0  0  0  0  0  0  0  0
   22.2527  -20.5177  -14.0344 C   0  0  1  0  0  0  0  0  0  0  0  0
   21.7862  -20.4450  -12.5817 N   0  0  0  0  0  0  0  0  0  0  0  0
   22.8489  -21.0225  -11.7934 C   0  0  0  0  0  0  0  0  0  0  0  0
   20.5229  -21.1757  -12.3678 O   0  0  0  0  0  0  0  0  0  0  0  0
   19.3679  -20.4593  -12.1157 C   0  0  0  0  0  0  0  0  0  0  0  0
   21.1642  -18.6532  -15.1794 C   0  0  0  0  0  0  0  0  0  0  0  0
   20.2264  -18.1463  -16.0514 O   0  0  0  0  0  0  0  0  0  0  0  0
  1  2  1  0
  2  3  2  0
  4  2  1  0
  5  4  1  0
  5  6  1  0
  7  6  1  0
  7  8  1  0
  8  9  1  6
 10 15  1  0
 10  8  1  0
 11 10  2  0
 12 13  1  0
 14 13  1  6
 14 16  1  0
 14 15  1  0
 16 17  2  0
 18 19  1  0
 19 29  2  0
 19 20  1  0
 20 21  2  0
 21 22  1  0
 22 23  1  0
 24 23  1  1
 25 24  1  0
 25 16  1  0
 26 27  1  0
 26 24  1  0
 28 22  2  0
 29 28  1  0
 30 26  2  0
M  END
$$$$
