RSY.pdb
     RDKit          3D

 30 30  0  0  1  0  0  0  0  0999 V2000
   23.8447  -34.7517   -8.0981 N   0  0  0  0  0  0  0  0  0  0  0  0
   24.9781  -33.9070   -8.2373 C   0  0  0  0  0  0  0  0  0  0  0  0
   26.1372  -34.3906   -8.4910 N   0  0  0  0  0  0  0  0  0  0  0  0
   24.8317  -32.5095   -8.0947 N   0  0  0  0  0  0  0  0  0  0  0  0
   23.4778  -31.9027   -8.0828 C   0  0  0  0  0  0  0  0  0  0  0  0
   23.3074  -31.1600   -9.3576 C   0  0  0  0  0  0  0  0  0  0  0  0
   21.9654  -30.5446   -9.4844 C   0  0  0  0  0  0  0  0  0  0  0  0
   21.0099  -31.1728  -10.4250 C   0  0  2  0  0  0  0  0  0  0  0  0
   21.5712  -32.0079  -11.4403 N   0  0  0  0  0  0  0  0  0  0  0  0
   20.1746  -30.0743  -11.0205 C   0  0  0  0  0  0  0  0  0  0  0  0
   20.4998  -29.5088  -12.0901 O   0  0  0  0  0  0  0  0  0  0  0  0
   27.0017  -33.8294   -8.6108 O   0  0  0  0  0  0  0  0  0  0  0  0
   17.0576  -28.7158   -8.9778 C   0  0  0  0  0  0  0  0  0  0  0  0
   16.7799  -28.8046  -10.3451 C   0  0  1  0  0  0  0  0  0  0  0  0
   18.1255  -28.7101  -11.0635 N   0  0  0  0  0  0  0  0  0  0  0  0
   18.9949  -29.6669  -10.3635 C   0  0  0  0  0  0  0  0  0  0  0  0
   18.6972  -27.3538  -10.9035 O   0  0  0  0  0  0  0  0  0  0  0  0
   19.3410  -27.0686   -9.8664 O   0  0  0  0  0  0  0  0  0  0  0  0
   17.2806  -24.3343  -17.7773 C   0  0  0  0  0  0  0  0  0  0  0  0
   17.9919  -24.5030  -16.5790 C   0  0  0  0  0  0  0  0  0  0  0  0
   18.4741  -25.7396  -16.1963 C   0  0  0  0  0  0  0  0  0  0  0  0
   19.1600  -25.8850  -15.0344 C   0  0  0  0  0  0  0  0  0  0  0  0
   19.3869  -24.7991  -14.2159 C   0  0  0  0  0  0  0  0  0  0  0  0
   20.1220  -24.9202  -12.9407 C   0  0  1  0  0  0  0  0  0  0  0  0
   19.1911  -25.0628  -11.7380 N   0  0  0  0  0  0  0  0  0  0  0  0
   18.5487  -26.3475  -11.8826 C   0  0  0  0  0  0  0  0  0  0  0  0
   18.1886  -23.9824  -11.6815 O   0  0  0  0  0  0  0  0  0  0  0  0
   18.6110  -22.6864  -11.4523 C   0  0  0  0  0  0  0  0  0  0  0  0
   18.9154  -23.5703  -14.5820 C   0  0  0  0  0  0  0  0  0  0  0  0
   18.2204  -23.4314  -15.7628 O   0  0  0  0  0  0  0  0  0  0  0  0
  1  2  1  0
  2  3  2  0
  4  2  1  0
  5  4  1  0
  5  6  1  0
  7  6  1  0
  7  8  1  0
  8  9  1  6
 10 15  1  0
 10  8  1  0
 11 10  2  0
 12 13  1  0
 14 13  1  6
 14 16  1  0
 14 15  1  0
 16 17  2  0
 18 19  1  0
 19 29  2  0
 19 20  1  0
 20 21  2  0
 21 22  1  0
 22 23  1  0
 24 23  1  1
 25 24  1  0
 25 16  1  0
 26 27  1  0
 26 24  1  0
 28 22  2  0
 29 28  1  0
 30 26  2  0
M  END
$$$$
