RSY.pdb
     RDKit          3D

 30 30  0  0  1  0  0  0  0  0999 V2000
   29.5613  -20.8930  -12.6999 N   0  0  0  0  0  0  0  0  0  0  0  0
   29.4533  -21.4812  -11.4116 C   0  0  0  0  0  0  0  0  0  0  0  0
   30.4539  -21.5123  -10.6118 N   0  0  0  0  0  0  0  0  0  0  0  0
   28.2249  -22.0433  -10.9991 N   0  0  0  0  0  0  0  0  0  0  0  0
   27.0088  -21.8586  -11.8287 C   0  0  0  0  0  0  0  0  0  0  0  0
   26.5295  -20.4685  -11.6198 C   0  0  0  0  0  0  0  0  0  0  0  0
   25.2367  -20.2034  -12.2937 C   0  0  0  0  0  0  0  0  0  0  0  0
   25.1813  -20.3799  -13.7628 C   0  0  2  0  0  0  0  0  0  0  0  0
   26.1591  -19.6706  -14.5270 N   0  0  0  0  0  0  0  0  0  0  0  0
   23.7866  -20.0369  -14.2061 C   0  0  0  0  0  0  0  0  0  0  0  0
   23.0706  -19.2371  -13.5602 O   0  0  0  0  0  0  0  0  0  0  0  0
   30.4724  -22.0123   -9.7029 O   0  0  0  0  0  0  0  0  0  0  0  0
   22.4869  -21.7938  -17.4523 C   0  0  0  0  0  0  0  0  0  0  0  0
   21.6546  -20.7204  -17.1212 C   0  0  1  0  0  0  0  0  0  0  0  0
   21.8230  -20.4940  -15.6192 N   0  0  0  0  0  0  0  0  0  0  0  0
   23.2670  -20.6266  -15.3772 C   0  0  0  0  0  0  0  0  0  0  0  0
   21.1214  -21.5537  -14.8598 O   0  0  0  0  0  0  0  0  0  0  0  0
   21.7772  -22.3330  -14.1287 O   0  0  0  0  0  0  0  0  0  0  0  0
   16.5274  -25.9998   -9.2798 C   0  0  0  0  0  0  0  0  0  0  0  0
   17.2242  -25.1307  -10.1339 C   0  0  0  0  0  0  0  0  0  0  0  0
   18.5148  -25.4050  -10.5429 C   0  0  0  0  0  0  0  0  0  0  0  0
   19.1740  -24.5538  -11.3690 C   0  0  0  0  0  0  0  0  0  0  0  0
   18.5653  -23.3997  -11.8141 C   0  0  0  0  0  0  0  0  0  0  0  0
   19.2538  -22.4459  -12.7071 C   0  0  1  0  0  0  0  0  0  0  0  0
   19.0694  -22.7875  -14.1845 N   0  0  0  0  0  0  0  0  0  0  0  0
   19.7222  -21.7315  -14.9214 C   0  0  0  0  0  0  0  0  0  0  0  0
   17.6457  -22.8805  -14.5587 O   0  0  0  0  0  0  0  0  0  0  0  0
   17.0159  -24.1097  -14.5014 C   0  0  0  0  0  0  0  0  0  0  0  0
   17.2893  -23.1158  -11.4173 C   0  0  0  0  0  0  0  0  0  0  0  0
   16.6273  -23.9850  -10.5788 O   0  0  0  0  0  0  0  0  0  0  0  0
  1  2  1  0
  2  3  2  0
  4  2  1  0
  5  4  1  0
  5  6  1  0
  7  6  1  0
  7  8  1  0
  8  9  1  6
 10 15  1  0
 10  8  1  0
 11 10  2  0
 12 13  1  0
 14 13  1  6
 14 16  1  0
 14 15  1  0
 16 17  2  0
 18 19  1  0
 19 29  2  0
 19 20  1  0
 20 21  2  0
 21 22  1  0
 22 23  1  0
 24 23  1  1
 25 24  1  0
 25 16  1  0
 26 27  1  0
 26 24  1  0
 28 22  2  0
 29 28  1  0
 30 26  2  0
M  END
$$$$
