RSY.pdb
     RDKit          3D

 30 30  0  0  1  0  0  0  0  0999 V2000
   26.8029  -29.9005  -16.0658 N   0  0  0  0  0  0  0  0  0  0  0  0
   27.9152  -30.6659  -16.5066 C   0  0  0  0  0  0  0  0  0  0  0  0
   28.3270  -31.6800  -15.8404 N   0  0  0  0  0  0  0  0  0  0  0  0
   28.5831  -30.3083  -17.6987 N   0  0  0  0  0  0  0  0  0  0  0  0
   28.3340  -28.9842  -18.3200 C   0  0  0  0  0  0  0  0  0  0  0  0
   28.9328  -27.9530  -17.4348 C   0  0  0  0  0  0  0  0  0  0  0  0
   28.2843  -26.6287  -17.5814 C   0  0  0  0  0  0  0  0  0  0  0  0
   29.1088  -25.5168  -18.1069 C   0  0  2  0  0  0  0  0  0  0  0  0
   30.5205  -25.6210  -17.9079 N   0  0  0  0  0  0  0  0  0  0  0  0
   28.5676  -24.2403  -17.5264 C   0  0  0  0  0  0  0  0  0  0  0  0
   29.0823  -23.7091  -16.5152 O   0  0  0  0  0  0  0  0  0  0  0  0
   29.0898  -32.3169  -16.1390 O   0  0  0  0  0  0  0  0  0  0  0  0
   24.9472  -22.6998  -18.6579 C   0  0  0  0  0  0  0  0  0  0  0  0
   26.0059  -21.7902  -18.5787 C   0  0  1  0  0  0  0  0  0  0  0  0
   26.9825  -22.3566  -17.5486 N   0  0  0  0  0  0  0  0  0  0  0  0
   27.4540  -23.6212  -18.1313 C   0  0  0  0  0  0  0  0  0  0  0  0
   26.2745  -22.6587  -16.2839 O   0  0  0  0  0  0  0  0  0  0  0  0
   26.7114  -23.5563  -15.5256 O   0  0  0  0  0  0  0  0  0  0  0  0
   24.3768  -20.5369   -8.2943 C   0  0  0  0  0  0  0  0  0  0  0  0
   24.7308  -20.7365   -9.6379 C   0  0  0  0  0  0  0  0  0  0  0  0
   25.5181  -21.8040  -10.0237 C   0  0  0  0  0  0  0  0  0  0  0  0
   25.8510  -21.9822  -11.3272 C   0  0  0  0  0  0  0  0  0  0  0  0
   25.4081  -21.0993  -12.2889 C   0  0  0  0  0  0  0  0  0  0  0  0
   25.7564  -21.2562  -13.7156 C   0  0  1  0  0  0  0  0  0  0  0  0
   24.6694  -21.9791  -14.5088 N   0  0  0  0  0  0  0  0  0  0  0  0
   25.1084  -21.9705  -15.8841 C   0  0  0  0  0  0  0  0  0  0  0  0
   23.3561  -21.3207  -14.3771 O   0  0  0  0  0  0  0  0  0  0  0  0
   22.4773  -21.7647  -13.4069 C   0  0  0  0  0  0  0  0  0  0  0  0
   24.6290  -20.0390  -11.9214 C   0  0  0  0  0  0  0  0  0  0  0  0
   24.2957  -19.8655  -10.5964 O   0  0  0  0  0  0  0  0  0  0  0  0
  1  2  1  0
  2  3  2  0
  4  2  1  0
  5  4  1  0
  5  6  1  0
  7  6  1  0
  7  8  1  0
  8  9  1  1
 10 15  1  0
 10  8  1  0
 11 10  2  0
 12 13  1  0
 14 13  1  6
 14 16  1  0
 14 15  1  0
 16 17  2  0
 18 19  1  0
 19 29  2  0
 19 20  1  0
 20 21  2  0
 21 22  1  0
 22 23  1  0
 24 23  1  1
 25 24  1  0
 25 16  1  0
 26 27  1  0
 26 24  1  0
 28 22  2  0
 29 28  1  0
 30 26  2  0
M  END
$$$$
