RSI.pdb
     RDKit          3D

 26 25  0  0  1  0  0  0  0  0999 V2000
    7.0761  -13.6924   14.5427 N   0  0  0  0  0  0  0  0  0  0  0  0
    8.3176  -14.2321   14.9612 C   0  0  0  0  0  0  0  0  0  0  0  0
    8.9578  -15.0924   14.2106 N   0  0  0  0  0  0  0  0  0  0  0  0
    8.9020  -13.8520   16.2087 N   0  0  0  0  0  0  0  0  0  0  0  0
    8.5340  -14.4995   17.4455 C   0  0  0  0  0  0  0  0  0  0  0  0
    7.3064  -13.8330   18.0259 C   0  0  0  0  0  0  0  0  0  0  0  0
    7.2167  -14.1747   19.5037 C   0  0  0  0  0  0  0  0  0  0  0  0
    7.6033  -15.6315   19.6555 C   0  0  2  0  0  0  0  0  0  0  0  0
    6.6427  -16.4536   18.9043 N   0  0  0  0  0  0  0  0  0  0  0  0
    7.4954  -15.9536   21.0978 C   0  0  0  0  0  0  0  0  0  0  0  0
    6.3873  -15.8739   21.6717 O   0  0  0  0  0  0  0  0  0  0  0  0
    9.8563  -15.4978   14.5550 O   0  0  0  0  0  0  0  0  0  0  0  0
   10.1751  -17.8070   24.5590 C   0  0  0  0  0  0  0  0  0  0  0  0
    9.2970  -18.0832   23.4833 C   0  0  1  0  0  0  0  0  0  0  0  0
    8.5426  -16.7990   23.2392 N   0  0  0  0  0  0  0  0  0  0  0  0
    8.6201  -16.3545   21.8619 C   0  0  0  0  0  0  0  0  0  0  0  0
    9.0903  -15.7674   24.1642 O   0  0  0  0  0  0  0  0  0  0  0  0
   10.0985  -15.0960   23.8261 C   0  0  0  0  0  0  0  0  0  0  0  0
    6.1219  -12.1218   26.4250 C   0  0  0  0  0  0  0  0  0  0  0  0
    7.3315  -12.8726   25.9048 C   0  0  2  0  0  0  0  0  0  0  0  0
    7.9970  -13.6753   26.9657 C   0  0  0  0  0  0  0  0  0  0  0  0
    8.5152  -12.7453   28.0471 C   0  0  2  0  0  0  0  0  0  0  0  0
    9.0943  -14.5227   26.3837 N   0  0  0  0  0  0  0  0  0  0  0  0
    8.5298  -15.4947   25.4288 C   0  0  0  0  0  0  0  0  0  0  0  0
    9.8372  -15.3269   27.3699 O   0  0  0  0  0  0  0  0  0  0  0  0
   10.9313  -14.8054   28.0150 O   0  0  0  0  0  0  0  0  0  0  0  0
  2  1  1  0
  3  2  2  0
  4  2  1  0
  5  6  1  0
  5  4  1  0
  6  7  1  0
  7  8  1  0
  8  9  1  6
 10  8  1  0
 11 10  2  0
 12 13  1  0
 14 13  1  6
 14 16  1  0
 14 15  1  0
 15 10  1  0
 16 17  2  0
 19 18  1  0
 19 20  1  0
 20 21  1  1
 22 20  1  0
 22 23  1  6
 23 16  1  0
 24 25  1  0
 24 22  1  0
 26 24  2  0
M  END
$$$$
