RSI.pdb
     RDKit          3D

 26 25  0  0  1  0  0  0  0  0999 V2000
    9.8796  -15.3009   15.6403 N   0  0  0  0  0  0  0  0  0  0  0  0
    8.9071  -14.6490   14.8422 C   0  0  0  0  0  0  0  0  0  0  0  0
    9.0972  -14.4892   13.5570 N   0  0  0  0  0  0  0  0  0  0  0  0
    7.6970  -14.1514   15.4170 N   0  0  0  0  0  0  0  0  0  0  0  0
    7.1942  -14.6524   16.6743 C   0  0  0  0  0  0  0  0  0  0  0  0
    7.3669  -13.6020   17.7489 C   0  0  0  0  0  0  0  0  0  0  0  0
    6.9019  -14.1784   19.0756 C   0  0  0  0  0  0  0  0  0  0  0  0
    8.0774  -14.9130   19.6866 C   0  0  2  0  0  0  0  0  0  0  0  0
    8.2361  -16.2022   18.9968 N   0  0  0  0  0  0  0  0  0  0  0  0
    7.7345  -15.1606   21.1067 C   0  0  0  0  0  0  0  0  0  0  0  0
    7.4752  -14.1976   21.8610 O   0  0  0  0  0  0  0  0  0  0  0  0
    8.3636  -14.0083   12.9905 O   0  0  0  0  0  0  0  0  0  0  0  0
    8.7927  -18.4862   23.5841 C   0  0  0  0  0  0  0  0  0  0  0  0
    7.4195  -18.2320   23.3510 C   0  0  1  0  0  0  0  0  0  0  0  0
    7.3320  -16.7615   23.0231 N   0  0  0  0  0  0  0  0  0  0  0  0
    7.6897  -16.4696   21.6492 C   0  0  0  0  0  0  0  0  0  0  0  0
    8.2187  -16.0309   23.9717 O   0  0  0  0  0  0  0  0  0  0  0  0
    9.4136  -15.7969   23.6572 C   0  0  0  0  0  0  0  0  0  0  0  0
    7.3611  -11.0199   27.0732 C   0  0  0  0  0  0  0  0  0  0  0  0
    8.1867  -12.2897   27.0156 C   0  0  2  0  0  0  0  0  0  0  0  0
    7.5324  -13.3523   26.2062 C   0  0  0  0  0  0  0  0  0  0  0  0
    6.2413  -13.7744   26.8828 C   0  0  2  0  0  0  0  0  0  0  0  0
    8.4628  -14.5155   26.0014 N   0  0  0  0  0  0  0  0  0  0  0  0
    7.7843  -15.5764   25.2337 C   0  0  0  0  0  0  0  0  0  0  0  0
    8.9206  -15.1614   27.2442 O   0  0  0  0  0  0  0  0  0  0  0  0
    9.8489  -14.5488   28.0492 O   0  0  0  0  0  0  0  0  0  0  0  0
  2  1  1  0
  3  2  2  0
  4  2  1  0
  5  6  1  0
  5  4  1  0
  6  7  1  0
  7  8  1  0
  8  9  1  6
 10  8  1  0
 11 10  2  0
 12 13  1  0
 14 13  1  6
 14 16  1  0
 14 15  1  0
 15 10  1  0
 16 17  2  0
 19 18  1  0
 19 20  1  0
 20 21  1  6
 22 20  1  0
 22 23  1  1
 23 16  1  0
 24 25  1  0
 24 22  1  0
 26 24  2  0
M  END
$$$$
