RSI.pdb
     RDKit          3D

 26 25  0  0  1  0  0  0  0  0999 V2000
    7.6044  -15.5642   16.1337 N   0  0  0  0  0  0  0  0  0  0  0  0
    8.0040  -14.2870   15.6680 C   0  0  0  0  0  0  0  0  0  0  0  0
    7.6036  -13.8469   14.5020 N   0  0  0  0  0  0  0  0  0  0  0  0
    8.8509  -13.4483   16.4564 N   0  0  0  0  0  0  0  0  0  0  0  0
    8.6746  -13.3222   17.8838 C   0  0  0  0  0  0  0  0  0  0  0  0
    7.6511  -14.3275   18.3633 C   0  0  0  0  0  0  0  0  0  0  0  0
    7.4582  -14.1532   19.8602 C   0  0  0  0  0  0  0  0  0  0  0  0
    8.8043  -14.3752   20.5187 C   0  0  2  0  0  0  0  0  0  0  0  0
    9.5443  -15.3852   19.7472 N   0  0  0  0  0  0  0  0  0  0  0  0
    8.5333  -14.9032   21.8765 C   0  0  0  0  0  0  0  0  0  0  0  0
    7.7146  -14.3186   22.6192 O   0  0  0  0  0  0  0  0  0  0  0  0
    8.0181  -12.9675   14.1209 O   0  0  0  0  0  0  0  0  0  0  0  0
   10.8637  -17.8944   23.4944 C   0  0  0  0  0  0  0  0  0  0  0  0
    9.4937  -18.0296   23.8251 C   0  0  1  0  0  0  0  0  0  0  0  0
    8.9033  -16.6496   23.6683 N   0  0  0  0  0  0  0  0  0  0  0  0
    9.1788  -16.0643   22.3712 C   0  0  0  0  0  0  0  0  0  0  0  0
    9.4439  -15.7968   24.7639 O   0  0  0  0  0  0  0  0  0  0  0  0
   10.5060  -15.1477   24.5852 C   0  0  0  0  0  0  0  0  0  0  0  0
    6.9040  -11.9622   26.7119 C   0  0  0  0  0  0  0  0  0  0  0  0
    8.0537  -12.9009   26.4047 C   0  0  2  0  0  0  0  0  0  0  0  0
    8.3511  -13.8187   27.5368 C   0  0  0  0  0  0  0  0  0  0  0  0
    8.8311  -13.0081   28.7265 C   0  0  2  0  0  0  0  0  0  0  0  0
    9.3549  -14.8610   27.1286 N   0  0  0  0  0  0  0  0  0  0  0  0
    8.8178  -15.6737   26.0211 C   0  0  0  0  0  0  0  0  0  0  0  0
    9.7057  -15.8234   28.1879 O   0  0  0  0  0  0  0  0  0  0  0  0
   10.6566  -15.5120   29.1280 O   0  0  0  0  0  0  0  0  0  0  0  0
  2  1  1  0
  3  2  2  0
  4  2  1  0
  5  6  1  0
  5  4  1  0
  6  7  1  0
  7  8  1  0
  8  9  1  6
 10  8  1  0
 11 10  2  0
 12 13  1  0
 14 13  1  6
 14 16  1  0
 14 15  1  0
 15 10  1  0
 16 17  2  0
 19 18  1  0
 19 20  1  0
 20 21  1  1
 22 20  1  0
 22 23  1  6
 23 16  1  0
 24 25  1  0
 24 22  1  0
 26 24  2  0
M  END
$$$$
