RSI.pdb
     RDKit          3D

 26 25  0  0  1  0  0  0  0  0999 V2000
    7.9811  -13.4302   15.8051 N   0  0  0  0  0  0  0  0  0  0  0  0
    8.6090  -14.6204   16.2488 C   0  0  0  0  0  0  0  0  0  0  0  0
    8.6428  -15.6818   15.4835 N   0  0  0  0  0  0  0  0  0  0  0  0
    9.2206  -14.6929   17.5383 N   0  0  0  0  0  0  0  0  0  0  0  0
    9.0821  -13.6275   18.5028 C   0  0  0  0  0  0  0  0  0  0  0  0
    7.6169  -13.3850   18.7898 C   0  0  0  0  0  0  0  0  0  0  0  0
    7.3320  -13.7633   20.2335 C   0  0  0  0  0  0  0  0  0  0  0  0
    7.9284  -15.1359   20.4677 C   0  0  2  0  0  0  0  0  0  0  0  0
    7.1019  -16.1329   19.7706 N   0  0  0  0  0  0  0  0  0  0  0  0
    7.8642  -15.3859   21.9269 C   0  0  0  0  0  0  0  0  0  0  0  0
    7.3865  -14.5151   22.6866 O   0  0  0  0  0  0  0  0  0  0  0  0
    9.1437  -16.5345   15.8187 O   0  0  0  0  0  0  0  0  0  0  0  0
    9.4225  -18.7517   23.1503 C   0  0  0  0  0  0  0  0  0  0  0  0
    8.5366  -18.3784   24.1896 C   0  0  1  0  0  0  0  0  0  0  0  0
    8.1472  -16.9506   23.8937 N   0  0  0  0  0  0  0  0  0  0  0  0
    8.3324  -16.5945   22.5010 C   0  0  0  0  0  0  0  0  0  0  0  0
    8.9530  -16.0665   24.7819 O   0  0  0  0  0  0  0  0  0  0  0  0
   10.0634  -15.6277   24.3871 C   0  0  0  0  0  0  0  0  0  0  0  0
    6.5084  -12.1350   27.0975 C   0  0  0  0  0  0  0  0  0  0  0  0
    7.5980  -13.0118   26.5131 C   0  0  2  0  0  0  0  0  0  0  0  0
    8.3428  -13.7603   27.5607 C   0  0  0  0  0  0  0  0  0  0  0  0
    9.0748  -12.7766   28.4549 C   0  0  2  0  0  0  0  0  0  0  0  0
    9.2818  -14.7562   26.9385 N   0  0  0  0  0  0  0  0  0  0  0  0
    8.5319  -15.6851   26.0723 C   0  0  0  0  0  0  0  0  0  0  0  0
    9.9981  -15.6098   27.9026 O   0  0  0  0  0  0  0  0  0  0  0  0
   11.2191  -15.2282   28.4012 O   0  0  0  0  0  0  0  0  0  0  0  0
  2  1  1  0
  3  2  2  0
  4  2  1  0
  5  6  1  0
  5  4  1  0
  6  7  1  0
  7  8  1  0
  8  9  1  6
 10  8  1  0
 11 10  2  0
 12 13  1  0
 14 13  1  6
 14 16  1  0
 14 15  1  0
 15 10  1  0
 16 17  2  0
 19 18  1  0
 19 20  1  0
 20 21  1  1
 22 20  1  0
 22 23  1  6
 23 16  1  0
 24 25  1  0
 24 22  1  0
 26 24  2  0
M  END
$$$$
