RSI.pdb
     RDKit          3D

 26 25  0  0  1  0  0  0  0  0999 V2000
    8.3699  -13.3309   15.9026 N   0  0  0  0  0  0  0  0  0  0  0  0
    7.9658  -13.3784   17.2598 C   0  0  0  0  0  0  0  0  0  0  0  0
    6.8791  -12.7643   17.6540 N   0  0  0  0  0  0  0  0  0  0  0  0
    8.7306  -14.0961   18.2304 N   0  0  0  0  0  0  0  0  0  0  0  0
    9.3727  -15.3495   17.9123 C   0  0  0  0  0  0  0  0  0  0  0  0
    8.5217  -16.4992   18.4042 C   0  0  0  0  0  0  0  0  0  0  0  0
    8.5134  -16.4866   19.9235 C   0  0  0  0  0  0  0  0  0  0  0  0
    7.7188  -17.6922   20.3815 C   0  0  2  0  0  0  0  0  0  0  0  0
    6.5146  -17.8071   19.5450 N   0  0  0  0  0  0  0  0  0  0  0  0
    7.3140  -17.4294   21.7826 C   0  0  0  0  0  0  0  0  0  0  0  0
    6.5243  -16.4939   22.0367 O   0  0  0  0  0  0  0  0  0  0  0  0
    6.5673  -12.8686   18.6451 O   0  0  0  0  0  0  0  0  0  0  0  0
    7.3383  -18.7734   26.4253 C   0  0  0  0  0  0  0  0  0  0  0  0
    7.9305  -19.0601   25.1717 C   0  0  2  0  0  0  0  0  0  0  0  0
    7.4839  -17.9501   24.2518 N   0  0  0  0  0  0  0  0  0  0  0  0
    7.7976  -18.2119   22.8612 C   0  0  0  0  0  0  0  0  0  0  0  0
    8.1277  -16.6890   24.7155 O   0  0  0  0  0  0  0  0  0  0  0  0
    9.2394  -16.3428   24.2404 C   0  0  0  0  0  0  0  0  0  0  0  0
    6.9016  -11.1086   26.0267 C   0  0  0  0  0  0  0  0  0  0  0  0
    7.5150  -12.2536   26.8077 C   0  0  2  0  0  0  0  0  0  0  0  0
    6.9780  -13.5754   26.3872 C   0  0  0  0  0  0  0  0  0  0  0  0
    6.0844  -14.1253   27.4836 C   0  0  2  0  0  0  0  0  0  0  0  0
    8.0961  -14.5222   26.0495 N   0  0  0  0  0  0  0  0  0  0  0  0
    7.5480  -15.8410   25.6812 C   0  0  0  0  0  0  0  0  0  0  0  0
    9.0353  -14.7819   27.1548 O   0  0  0  0  0  0  0  0  0  0  0  0
    9.1440  -16.0377   27.6990 O   0  0  0  0  0  0  0  0  0  0  0  0
  2  1  1  0
  3  2  2  0
  4  2  1  0
  5  6  1  0
  5  4  1  0
  6  7  1  0
  7  8  1  0
  8  9  1  6
 10  8  1  0
 11 10  2  0
 12 13  1  0
 14 13  1  6
 14 16  1  0
 14 15  1  0
 15 10  1  0
 16 17  2  0
 19 18  1  0
 19 20  1  0
 20 21  1  6
 22 20  1  0
 22 23  1  1
 23 16  1  0
 24 25  1  0
 24 22  1  0
 26 24  2  0
M  END
$$$$
