RSI.pdb
     RDKit          3D

 26 25  0  0  1  0  0  0  0  0999 V2000
    7.5501  -13.1821   16.2718 N   0  0  0  0  0  0  0  0  0  0  0  0
    8.1370  -14.2013   15.4815 C   0  0  0  0  0  0  0  0  0  0  0  0
    7.6852  -14.4570   14.2799 N   0  0  0  0  0  0  0  0  0  0  0  0
    9.2343  -14.9734   15.9732 N   0  0  0  0  0  0  0  0  0  0  0  0
    9.5120  -15.0802   17.3860 C   0  0  0  0  0  0  0  0  0  0  0  0
    8.2943  -15.6137   18.1075 C   0  0  0  0  0  0  0  0  0  0  0  0
    8.6104  -15.7178   19.5899 C   0  0  0  0  0  0  0  0  0  0  0  0
    8.1212  -17.0712   20.0629 C   0  0  2  0  0  0  0  0  0  0  0  0
    7.2954  -17.6693   19.0031 N   0  0  0  0  0  0  0  0  0  0  0  0
    7.2780  -16.8269   21.2566 C   0  0  0  0  0  0  0  0  0  0  0  0
    6.0415  -17.0006   21.1907 O   0  0  0  0  0  0  0  0  0  0  0  0
    8.0877  -15.2585   13.7453 O   0  0  0  0  0  0  0  0  0  0  0  0
    6.4843  -18.3458   25.2594 C   0  0  0  0  0  0  0  0  0  0  0  0
    7.0816  -18.2079   23.9832 C   0  0  2  0  0  0  0  0  0  0  0  0
    7.2679  -16.7236   23.7838 N   0  0  0  0  0  0  0  0  0  0  0  0
    7.8311  -16.3966   22.4890 C   0  0  0  0  0  0  0  0  0  0  0  0
    8.1371  -16.2227   24.8853 O   0  0  0  0  0  0  0  0  0  0  0  0
    9.3574  -16.5257   24.9063 C   0  0  0  0  0  0  0  0  0  0  0  0
    6.0205  -11.7509   27.1783 C   0  0  0  0  0  0  0  0  0  0  0  0
    6.9820  -12.7171   26.5155 C   0  0  2  0  0  0  0  0  0  0  0  0
    7.7230  -13.5442   27.5051 C   0  0  0  0  0  0  0  0  0  0  0  0
    8.5947  -12.6424   28.3594 C   0  0  2  0  0  0  0  0  0  0  0  0
    8.5285  -14.6088   26.8135 N   0  0  0  0  0  0  0  0  0  0  0  0
    7.6577  -15.4090   25.9322 C   0  0  0  0  0  0  0  0  0  0  0  0
    9.1691  -15.5790   27.7188 O   0  0  0  0  0  0  0  0  0  0  0  0
   10.4192  -15.3361   28.2319 O   0  0  0  0  0  0  0  0  0  0  0  0
  2  1  1  0
  3  2  2  0
  4  2  1  0
  5  6  1  0
  5  4  1  0
  6  7  1  0
  7  8  1  0
  8  9  1  6
 10  8  1  0
 11 10  2  0
 12 13  1  0
 14 13  1  6
 14 16  1  0
 14 15  1  0
 15 10  1  0
 16 17  2  0
 19 18  1  0
 19 20  1  0
 20 21  1  1
 22 20  1  0
 22 23  1  6
 23 16  1  0
 24 25  1  0
 24 22  1  0
 26 24  2  0
M  END
$$$$
