RSI.pdb
     RDKit          3D

 26 25  0  0  1  0  0  0  0  0999 V2000
    8.2411  -12.7856   15.9946 N   0  0  0  0  0  0  0  0  0  0  0  0
    8.0523  -14.1693   15.7551 C   0  0  0  0  0  0  0  0  0  0  0  0
    7.8919  -14.6195   14.5365 N   0  0  0  0  0  0  0  0  0  0  0  0
    8.0333  -15.1067   16.8337 N   0  0  0  0  0  0  0  0  0  0  0  0
    7.1217  -14.9646   17.9442 C   0  0  0  0  0  0  0  0  0  0  0  0
    7.6866  -13.9830   18.9469 C   0  0  0  0  0  0  0  0  0  0  0  0
    7.2605  -14.4087   20.3417 C   0  0  0  0  0  0  0  0  0  0  0  0
    8.4316  -15.1352   20.9706 C   0  0  2  0  0  0  0  0  0  0  0  0
    8.5661  -16.4526   20.3309 N   0  0  0  0  0  0  0  0  0  0  0  0
    8.0989  -15.3219   22.4025 C   0  0  0  0  0  0  0  0  0  0  0  0
    7.9382  -14.3242   23.1389 O   0  0  0  0  0  0  0  0  0  0  0  0
    7.8681  -15.6507   14.3745 O   0  0  0  0  0  0  0  0  0  0  0  0
    8.1867  -19.0902   24.2094 C   0  0  0  0  0  0  0  0  0  0  0  0
    7.1247  -18.2487   24.6199 C   0  0  1  0  0  0  0  0  0  0  0  0
    7.6040  -16.8408   24.3634 N   0  0  0  0  0  0  0  0  0  0  0  0
    7.9546  -16.6102   22.9761 C   0  0  0  0  0  0  0  0  0  0  0  0
    8.7690  -16.5875   25.2571 O   0  0  0  0  0  0  0  0  0  0  0  0
    9.9374  -16.6622   24.7981 C   0  0  0  0  0  0  0  0  0  0  0  0
    8.7145  -12.3577   28.2498 C   0  0  0  0  0  0  0  0  0  0  0  0
    9.1216  -13.5826   27.4553 C   0  0  2  0  0  0  0  0  0  0  0  0
    9.4697  -14.7335   28.3309 C   0  0  0  0  0  0  0  0  0  0  0  0
   10.6369  -14.3505   29.2219 C   0  0  2  0  0  0  0  0  0  0  0  0
    9.7708  -15.9564   27.5095 N   0  0  0  0  0  0  0  0  0  0  0  0
    8.6330  -16.2620   26.6221 C   0  0  0  0  0  0  0  0  0  0  0  0
    9.9970  -17.1826   28.2946 O   0  0  0  0  0  0  0  0  0  0  0  0
   11.2619  -17.5287   28.7011 O   0  0  0  0  0  0  0  0  0  0  0  0
  2  1  1  0
  3  2  2  0
  4  2  1  0
  5  6  1  0
  5  4  1  0
  6  7  1  0
  7  8  1  0
  8  9  1  6
 10  8  1  0
 11 10  2  0
 12 13  1  0
 14 13  1  6
 14 16  1  0
 14 15  1  0
 15 10  1  0
 16 17  2  0
 19 18  1  0
 19 20  1  0
 20 21  1  1
 22 20  1  0
 22 23  1  6
 23 16  1  0
 24 25  1  0
 24 22  1  0
 26 24  2  0
M  END
$$$$
