RSI.pdb
     RDKit          3D

 26 25  0  0  1  0  0  0  0  0999 V2000
    9.9006  -14.0119   18.0762 N   0  0  0  0  0  0  0  0  0  0  0  0
    9.2579  -12.8677   18.6105 C   0  0  0  0  0  0  0  0  0  0  0  0
    9.9585  -11.8499   19.0426 N   0  0  0  0  0  0  0  0  0  0  0  0
    7.8330  -12.7945   18.6906 N   0  0  0  0  0  0  0  0  0  0  0  0
    7.0578  -13.8214   19.3455 C   0  0  0  0  0  0  0  0  0  0  0  0
    7.6374  -15.1815   19.0259 C   0  0  0  0  0  0  0  0  0  0  0  0
    8.7698  -15.4711   19.9966 C   0  0  0  0  0  0  0  0  0  0  0  0
    8.6931  -16.9407   20.3558 C   0  0  2  0  0  0  0  0  0  0  0  0
    7.6186  -17.5620   19.5670 N   0  0  0  0  0  0  0  0  0  0  0  0
    8.3433  -17.0109   21.7940 C   0  0  0  0  0  0  0  0  0  0  0  0
    7.1737  -16.7662   22.1622 O   0  0  0  0  0  0  0  0  0  0  0  0
    9.4607  -10.9939   19.3735 O   0  0  0  0  0  0  0  0  0  0  0  0
   11.0544  -18.4901   24.5307 C   0  0  0  0  0  0  0  0  0  0  0  0
    9.6842  -18.6069   24.8677 C   0  0  1  0  0  0  0  0  0  0  0  0
    9.0035  -17.4383   24.1979 N   0  0  0  0  0  0  0  0  0  0  0  0
    9.3015  -17.3501   22.7822 C   0  0  0  0  0  0  0  0  0  0  0  0
    9.4240  -16.1986   24.9095 O   0  0  0  0  0  0  0  0  0  0  0  0
   10.4108  -15.5410   24.4908 C   0  0  0  0  0  0  0  0  0  0  0  0
    5.9776  -12.5330   26.3760 C   0  0  0  0  0  0  0  0  0  0  0  0
    7.2732  -13.2312   26.0135 C   0  0  2  0  0  0  0  0  0  0  0  0
    8.0201  -13.6939   27.2137 C   0  0  0  0  0  0  0  0  0  0  0  0
    8.4271  -12.4915   28.0452 C   0  0  2  0  0  0  0  0  0  0  0  0
    9.2075  -14.5257   26.8148 N   0  0  0  0  0  0  0  0  0  0  0  0
    8.7632  -15.7090   26.0546 C   0  0  0  0  0  0  0  0  0  0  0  0
    9.9925  -15.0558   27.9435 O   0  0  0  0  0  0  0  0  0  0  0  0
    9.8851  -16.3743   28.3111 O   0  0  0  0  0  0  0  0  0  0  0  0
  2  1  1  0
  3  2  2  0
  4  2  1  0
  5  6  1  0
  5  4  1  0
  6  7  1  0
  7  8  1  0
  8  9  1  6
 10  8  1  0
 11 10  2  0
 12 13  1  0
 14 13  1  6
 14 16  1  0
 14 15  1  0
 15 10  1  0
 16 17  2  0
 19 18  1  0
 19 20  1  0
 20 21  1  1
 22 20  1  0
 22 23  1  6
 23 16  1  0
 24 25  1  0
 24 22  1  0
 26 24  2  0
M  END
$$$$
