RSI.pdb
     RDKit          3D

 26 25  0  0  1  0  0  0  0  0999 V2000
    8.4250  -15.5401   15.7662 N   0  0  0  0  0  0  0  0  0  0  0  0
    8.2212  -14.3153   15.0835 C   0  0  0  0  0  0  0  0  0  0  0  0
    8.3977  -14.2359   13.7890 N   0  0  0  0  0  0  0  0  0  0  0  0
    7.8179  -13.1389   15.7876 N   0  0  0  0  0  0  0  0  0  0  0  0
    7.4440  -13.1816   17.1814 C   0  0  0  0  0  0  0  0  0  0  0  0
    8.2956  -14.1987   17.9082 C   0  0  0  0  0  0  0  0  0  0  0  0
    7.8050  -14.3127   19.3417 C   0  0  0  0  0  0  0  0  0  0  0  0
    8.6445  -15.3730   20.0242 C   0  0  2  0  0  0  0  0  0  0  0  0
    8.3826  -16.6680   19.3782 N   0  0  0  0  0  0  0  0  0  0  0  0
    8.1926  -15.4329   21.4341 C   0  0  0  0  0  0  0  0  0  0  0  0
    7.8310  -14.3871   22.0164 O   0  0  0  0  0  0  0  0  0  0  0  0
    8.2408  -13.3217   13.3096 O   0  0  0  0  0  0  0  0  0  0  0  0
    9.0198  -18.4751   24.2677 C   0  0  0  0  0  0  0  0  0  0  0  0
    7.6555  -18.1958   24.0125 C   0  0  1  0  0  0  0  0  0  0  0  0
    7.6238  -16.7766   23.5001 N   0  0  0  0  0  0  0  0  0  0  0  0
    8.1554  -16.6515   22.1576 C   0  0  0  0  0  0  0  0  0  0  0  0
    8.3896  -15.9305   24.4580 O   0  0  0  0  0  0  0  0  0  0  0  0
    9.6410  -15.8523   24.3614 C   0  0  0  0  0  0  0  0  0  0  0  0
    5.9527  -11.5094   26.8229 C   0  0  0  0  0  0  0  0  0  0  0  0
    6.5182  -12.9137   26.7483 C   0  0  2  0  0  0  0  0  0  0  0  0
    7.9561  -12.9238   26.3678 C   0  0  0  0  0  0  0  0  0  0  0  0
    8.1143  -12.3080   24.9899 C   0  0  1  0  0  0  0  0  0  0  0  0
    8.5126  -14.3195   26.4239 N   0  0  0  0  0  0  0  0  0  0  0  0
    7.7765  -15.1950   25.4928 C   0  0  0  0  0  0  0  0  0  0  0  0
    8.4064  -14.9700   27.7418 O   0  0  0  0  0  0  0  0  0  0  0  0
    7.6401  -16.0974   27.9049 O   0  0  0  0  0  0  0  0  0  0  0  0
  2  1  1  0
  3  2  2  0
  4  2  1  0
  5  6  1  0
  5  4  1  0
  6  7  1  0
  7  8  1  0
  8  9  1  6
 10  8  1  0
 11 10  2  0
 12 13  1  0
 14 13  1  6
 14 16  1  0
 14 15  1  0
 15 10  1  0
 16 17  2  0
 19 18  1  0
 19 20  1  0
 20 21  1  1
 22 20  1  0
 22 23  1  6
 23 16  1  0
 24 25  1  0
 24 22  1  0
 26 24  2  0
M  END
$$$$
