RSI.pdb
     RDKit          3D

 26 25  0  0  1  0  0  0  0  0999 V2000
   10.0133  -14.1001   17.2336 N   0  0  0  0  0  0  0  0  0  0  0  0
    8.7246  -13.8852   16.6851 C   0  0  0  0  0  0  0  0  0  0  0  0
    8.3974  -12.7194   16.1878 N   0  0  0  0  0  0  0  0  0  0  0  0
    7.7521  -14.9319   16.6594 N   0  0  0  0  0  0  0  0  0  0  0  0
    6.9539  -15.2523   17.8191 C   0  0  0  0  0  0  0  0  0  0  0  0
    7.8204  -15.2279   19.0587 C   0  0  0  0  0  0  0  0  0  0  0  0
    6.9630  -15.5817   20.2620 C   0  0  0  0  0  0  0  0  0  0  0  0
    7.3159  -16.9977   20.6683 C   0  0  2  0  0  0  0  0  0  0  0  0
    6.4032  -17.9250   19.9826 N   0  0  0  0  0  0  0  0  0  0  0  0
    7.0942  -17.0900   22.1306 C   0  0  0  0  0  0  0  0  0  0  0  0
    5.9667  -16.8328   22.6061 O   0  0  0  0  0  0  0  0  0  0  0  0
    7.4425  -12.5879   15.7863 O   0  0  0  0  0  0  0  0  0  0  0  0
    9.8916  -18.7713   24.6360 C   0  0  0  0  0  0  0  0  0  0  0  0
    8.5793  -18.6298   25.1479 C   0  0  1  0  0  0  0  0  0  0  0  0
    8.0103  -17.4094   24.4663 N   0  0  0  0  0  0  0  0  0  0  0  0
    8.1301  -17.4644   23.0230 C   0  0  0  0  0  0  0  0  0  0  0  0
    8.7115  -16.2145   25.0145 O   0  0  0  0  0  0  0  0  0  0  0  0
    9.7488  -15.7836   24.4490 C   0  0  0  0  0  0  0  0  0  0  0  0
    5.8947  -12.1514   26.4623 C   0  0  0  0  0  0  0  0  0  0  0  0
    7.1796  -12.8283   26.0285 C   0  0  2  0  0  0  0  0  0  0  0  0
    7.9729  -13.3268   27.1837 C   0  0  0  0  0  0  0  0  0  0  0  0
    8.6459  -12.1543   27.8730 C   0  0  2  0  0  0  0  0  0  0  0  0
    8.9694  -14.3614   26.7394 N   0  0  0  0  0  0  0  0  0  0  0  0
    8.2682  -15.5225   26.1602 C   0  0  0  0  0  0  0  0  0  0  0  0
    9.8092  -14.9084   27.8196 O   0  0  0  0  0  0  0  0  0  0  0  0
    9.4805  -16.0946   28.4277 O   0  0  0  0  0  0  0  0  0  0  0  0
  2  1  1  0
  3  2  2  0
  4  2  1  0
  5  6  1  0
  5  4  1  0
  6  7  1  0
  7  8  1  0
  8  9  1  6
 10  8  1  0
 11 10  2  0
 12 13  1  0
 14 13  1  6
 14 16  1  0
 14 15  1  0
 15 10  1  0
 16 17  2  0
 19 18  1  0
 19 20  1  0
 20 21  1  1
 22 20  1  0
 22 23  1  6
 23 16  1  0
 24 25  1  0
 24 22  1  0
 26 24  2  0
M  END
$$$$
