RSI.pdb
     RDKit          3D

 26 25  0  0  1  0  0  0  0  0999 V2000
    7.8578  -13.2592   15.5938 N   0  0  0  0  0  0  0  0  0  0  0  0
    8.3568  -14.5235   15.9944 C   0  0  0  0  0  0  0  0  0  0  0  0
    8.3549  -15.5350   15.1636 N   0  0  0  0  0  0  0  0  0  0  0  0
    8.8745  -14.7265   17.3108 N   0  0  0  0  0  0  0  0  0  0  0  0
    8.7424  -13.7221   18.3395 C   0  0  0  0  0  0  0  0  0  0  0  0
    7.3778  -13.8265   18.9837 C   0  0  0  0  0  0  0  0  0  0  0  0
    7.5534  -13.9116   20.4905 C   0  0  0  0  0  0  0  0  0  0  0  0
    8.1153  -15.2831   20.8037 C   0  0  2  0  0  0  0  0  0  0  0  0
    7.3238  -16.2914   20.0827 N   0  0  0  0  0  0  0  0  0  0  0  0
    7.9516  -15.4884   22.2621 C   0  0  0  0  0  0  0  0  0  0  0  0
    7.6025  -14.5331   22.9894 O   0  0  0  0  0  0  0  0  0  0  0  0
    8.7450  -16.4513   15.4774 O   0  0  0  0  0  0  0  0  0  0  0  0
    8.5898  -19.2357   23.9838 C   0  0  0  0  0  0  0  0  0  0  0  0
    7.6043  -18.4190   24.5891 C   0  0  1  0  0  0  0  0  0  0  0  0
    8.0183  -16.9990   24.2896 N   0  0  0  0  0  0  0  0  0  0  0  0
    8.1804  -16.7478   22.8714 C   0  0  0  0  0  0  0  0  0  0  0  0
    9.2846  -16.7297   25.0271 O   0  0  0  0  0  0  0  0  0  0  0  0
   10.3838  -16.7672   24.4173 C   0  0  0  0  0  0  0  0  0  0  0  0
    9.2522  -13.4399   29.5708 C   0  0  0  0  0  0  0  0  0  0  0  0
    9.3694  -14.7630   28.8405 C   0  0  2  0  0  0  0  0  0  0  0  0
   10.4106  -14.7315   27.7788 C   0  0  0  0  0  0  0  0  0  0  0  0
   10.0612  -13.6572   26.7657 C   0  0  1  0  0  0  0  0  0  0  0  0
   10.5558  -16.0821   27.1343 N   0  0  0  0  0  0  0  0  0  0  0  0
    9.3222  -16.4289   26.4040 C   0  0  0  0  0  0  0  0  0  0  0  0
   10.7788  -17.1917   28.0780 O   0  0  0  0  0  0  0  0  0  0  0  0
   11.9441  -17.2719   28.7995 O   0  0  0  0  0  0  0  0  0  0  0  0
  2  1  1  0
  3  2  2  0
  4  2  1  0
  5  6  1  0
  5  4  1  0
  6  7  1  0
  7  8  1  0
  8  9  1  6
 10  8  1  0
 11 10  2  0
 12 13  1  0
 14 13  1  6
 14 16  1  0
 14 15  1  0
 15 10  1  0
 16 17  2  0
 19 18  1  0
 19 20  1  0
 20 21  1  1
 22 20  1  0
 22 23  1  6
 23 16  1  0
 24 25  1  0
 24 22  1  0
 26 24  2  0
M  END
$$$$
