DAG.pdb
     RDKit          3D

 18 17  0  0  1  0  0  0  0  0999 V2000
    8.5014  -15.4438   21.8859 N   0  0  0  0  0  0  0  0  0  0  0  0
    8.0876  -15.7544   23.2397 C   0  0  1  0  0  0  0  0  0  0  0  0
    8.9911  -16.8420   23.7784 C   0  0  0  0  0  0  0  0  0  0  0  0
    8.9659  -18.0576   22.9712 C   0  0  0  0  0  0  0  0  0  0  0  0
    7.8699  -18.5851   22.6700 O   0  0  0  0  0  0  0  0  0  0  0  0
    8.3225  -14.5428   24.0960 C   0  0  0  0  0  0  0  0  0  0  0  0
    9.3896  -13.8804   23.9736 O   0  0  0  0  0  0  0  0  0  0  0  0
   10.1345  -18.6434   22.5287 O   0  0  0  0  0  0  0  0  0  0  0  0
    6.1738  -12.3219   26.1902 C   0  0  0  0  0  0  0  0  0  0  0  0
    7.5470  -12.8317   25.7733 C   0  0  2  0  0  0  0  0  0  0  0  0
    7.3907  -14.0928   25.0552 N   0  0  0  0  0  0  0  0  0  0  0  0
    8.4060  -13.0935   26.9507 C   0  0  0  0  0  0  0  0  0  0  0  0
    8.6904  -12.1765   27.7951 O   0  0  0  0  0  0  0  0  0  0  0  0
    8.9708  -14.3681   27.2257 N   0  0  0  0  0  0  0  0  0  0  0  0
    9.7991  -14.5815   28.4190 C   0  0  0  0  0  0  0  0  0  0  0  0
   10.3030  -15.9648   28.4723 C   0  0  0  0  0  0  0  0  0  0  0  0
   10.9985  -16.4991   29.5499 O   0  0  0  0  0  0  0  0  0  0  0  0
   10.0940  -16.7061   27.4899 O   0  0  0  0  0  0  0  0  0  0  0  0
  2  1  1  6
  2  3  1  0
  3  4  1  0
  4  8  1  0
  5  4  2  0
  6  2  1  0
  7  6  2  0
 10  9  1  1
 10 11  1  0
 11  6  1  0
 12 10  1  0
 12 14  1  0
 13 12  2  0
 15 14  1  0
 16 15  1  0
 17 16  1  0
 18 16  2  0
M  END
$$$$
