DAG.pdb
     RDKit          3D

 18 17  0  0  1  0  0  0  0  0999 V2000
    8.3091  -15.9566   15.5923 N   0  0  0  0  0  0  0  0  0  0  0  0
    9.2431  -16.0845   16.6931 C   0  0  1  0  0  0  0  0  0  0  0  0
   10.6125  -16.3883   16.1256 C   0  0  0  0  0  0  0  0  0  0  0  0
   10.6545  -17.6377   15.3725 C   0  0  0  0  0  0  0  0  0  0  0  0
   10.1734  -18.6829   15.8688 O   0  0  0  0  0  0  0  0  0  0  0  0
    9.3522  -14.7522   17.3782 C   0  0  0  0  0  0  0  0  0  0  0  0
   10.3004  -13.9705   17.0914 O   0  0  0  0  0  0  0  0  0  0  0  0
   11.2180  -17.6924   14.1140 O   0  0  0  0  0  0  0  0  0  0  0  0
    7.2205  -12.6762   19.6777 C   0  0  0  0  0  0  0  0  0  0  0  0
    8.5556  -13.0342   19.0386 C   0  0  2  0  0  0  0  0  0  0  0  0
    8.4280  -14.3152   18.3507 N   0  0  0  0  0  0  0  0  0  0  0  0
    9.6201  -13.1803   20.0575 C   0  0  0  0  0  0  0  0  0  0  0  0
    9.9798  -12.2046   20.8015 O   0  0  0  0  0  0  0  0  0  0  0  0
   10.3121  -14.4011   20.2810 N   0  0  0  0  0  0  0  0  0  0  0  0
   11.1777  -14.5704   21.4547 C   0  0  0  0  0  0  0  0  0  0  0  0
   10.8416  -15.8044   22.1859 C   0  0  0  0  0  0  0  0  0  0  0  0
   11.7337  -16.8466   22.4057 O   0  0  0  0  0  0  0  0  0  0  0  0
    9.6841  -15.9246   22.6376 O   0  0  0  0  0  0  0  0  0  0  0  0
  2  1  1  6
  2  3  1  0
  3  4  1  0
  4  8  1  0
  5  4  2  0
  6  2  1  0
  7  6  2  0
 10  9  1  1
 10 11  1  0
 11  6  1  0
 12 10  1  0
 12 14  1  0
 13 12  2  0
 15 14  1  0
 16 15  1  0
 17 16  1  0
 18 16  2  0
M  END
$$$$
