DAG.pdb
     RDKit          3D

 18 17  0  0  1  0  0  0  0  0999 V2000
    4.9808  -17.9735   23.5991 N   0  0  0  0  0  0  0  0  0  0  0  0
    5.5467  -18.2169   22.2873 C   0  0  1  0  0  0  0  0  0  0  0  0
    4.4555  -18.0361   21.2547 C   0  0  0  0  0  0  0  0  0  0  0  0
    3.4216  -19.0633   21.3302 C   0  0  0  0  0  0  0  0  0  0  0  0
    3.4928  -19.9584   22.2043 O   0  0  0  0  0  0  0  0  0  0  0  0
    6.5741  -17.1564   22.0111 C   0  0  0  0  0  0  0  0  0  0  0  0
    7.2314  -17.1794   20.9341 O   0  0  0  0  0  0  0  0  0  0  0  0
    2.3576  -19.0693   20.4514 O   0  0  0  0  0  0  0  0  0  0  0  0
    7.1873  -13.7020   22.8616 C   0  0  0  0  0  0  0  0  0  0  0  0
    7.8302  -15.0629   22.6293 C   0  0  2  0  0  0  0  0  0  0  0  0
    6.8520  -16.1083   22.9138 N   0  0  0  0  0  0  0  0  0  0  0  0
    8.9844  -15.2759   23.5321 C   0  0  0  0  0  0  0  0  0  0  0  0
   10.0057  -14.5068   23.5138 O   0  0  0  0  0  0  0  0  0  0  0  0
    9.0415  -16.3382   24.4742 N   0  0  0  0  0  0  0  0  0  0  0  0
   10.2005  -16.4941   25.3618 C   0  0  0  0  0  0  0  0  0  0  0  0
   11.2123  -17.3795   24.7596 C   0  0  0  0  0  0  0  0  0  0  0  0
   11.8570  -17.1200   23.5566 O   0  0  0  0  0  0  0  0  0  0  0  0
   11.5117  -18.4293   25.3652 O   0  0  0  0  0  0  0  0  0  0  0  0
  2  1  1  1
  2  3  1  0
  3  4  1  0
  4  8  1  0
  5  4  2  0
  6  2  1  0
  7  6  2  0
 10  9  1  1
 10 11  1  0
 11  6  1  0
 12 10  1  0
 12 14  1  0
 13 12  2  0
 15 14  1  0
 16 15  1  0
 17 16  1  0
 18 16  2  0
M  END
$$$$
