DAG.pdb
     RDKit          3D

 18 17  0  0  1  0  0  0  0  0999 V2000
    8.7528  -15.2204   14.2817 N   0  0  0  0  0  0  0  0  0  0  0  0
    8.1670  -15.5861   15.5559 C   0  0  1  0  0  0  0  0  0  0  0  0
    8.4013  -17.0635   15.7836 C   0  0  0  0  0  0  0  0  0  0  0  0
    7.6152  -17.9106   14.8923 C   0  0  0  0  0  0  0  0  0  0  0  0
    6.3972  -17.6730   14.7175 O   0  0  0  0  0  0  0  0  0  0  0  0
    8.9112  -14.8646   16.6432 C   0  0  0  0  0  0  0  0  0  0  0  0
   10.1729  -14.8779   16.6607 O   0  0  0  0  0  0  0  0  0  0  0  0
    8.1903  -18.9772   14.2321 O   0  0  0  0  0  0  0  0  0  0  0  0
    7.9895  -12.5505   19.4792 C   0  0  0  0  0  0  0  0  0  0  0  0
    8.9841  -13.3744   18.6722 C   0  0  2  0  0  0  0  0  0  0  0  0
    8.2595  -14.1539   17.6732 N   0  0  0  0  0  0  0  0  0  0  0  0
    9.7195  -14.3283   19.5335 C   0  0  0  0  0  0  0  0  0  0  0  0
    9.1419  -15.3336   20.0725 O   0  0  0  0  0  0  0  0  0  0  0  0
   11.1050  -14.1983   19.8211 N   0  0  0  0  0  0  0  0  0  0  0  0
   11.7876  -15.1695   20.6850 C   0  0  0  0  0  0  0  0  0  0  0  0
   13.2173  -14.8419   20.8221 C   0  0  0  0  0  0  0  0  0  0  0  0
   14.0063  -15.2336   21.8965 O   0  0  0  0  0  0  0  0  0  0  0  0
   13.7571  -14.1707   19.9185 O   0  0  0  0  0  0  0  0  0  0  0  0
  2  1  1  6
  2  3  1  0
  3  4  1  0
  4  8  1  0
  5  4  2  0
  6  2  1  0
  7  6  2  0
 10  9  1  1
 10 11  1  0
 11  6  1  0
 12 10  1  0
 12 14  1  0
 13 12  2  0
 15 14  1  0
 16 15  1  0
 17 16  1  0
 18 16  2  0
M  END
$$$$
