DAG.pdb
     RDKit          3D

 18 17  0  0  1  0  0  0  0  0999 V2000
    7.7118  -13.5419   16.4432 N   0  0  0  0  0  0  0  0  0  0  0  0
    8.1297  -14.6125   17.3260 C   0  0  1  0  0  0  0  0  0  0  0  0
    9.4759  -15.1206   16.8578 C   0  0  0  0  0  0  0  0  0  0  0  0
    9.4253  -15.7389   15.5368 C   0  0  0  0  0  0  0  0  0  0  0  0
    8.4667  -16.4868   15.2333 O   0  0  0  0  0  0  0  0  0  0  0  0
    8.3450  -14.0381   18.6973 C   0  0  0  0  0  0  0  0  0  0  0  0
    8.9880  -12.9614   18.8370 O   0  0  0  0  0  0  0  0  0  0  0  0
   10.4199  -15.5152   14.6068 O   0  0  0  0  0  0  0  0  0  0  0  0
    6.7872  -14.4275   22.0402 C   0  0  0  0  0  0  0  0  0  0  0  0
    7.9940  -14.0510   21.1912 C   0  0  2  0  0  0  0  0  0  0  0  0
    7.8544  -14.6529   19.8687 N   0  0  0  0  0  0  0  0  0  0  0  0
    9.2512  -14.5631   21.7827 C   0  0  0  0  0  0  0  0  0  0  0  0
    9.6265  -14.2323   22.9594 O   0  0  0  0  0  0  0  0  0  0  0  0
   10.1230  -15.4493   21.0944 N   0  0  0  0  0  0  0  0  0  0  0  0
   11.2882  -16.0332   21.7703 C   0  0  0  0  0  0  0  0  0  0  0  0
   10.9333  -17.2969   22.4390 C   0  0  0  0  0  0  0  0  0  0  0  0
   11.5239  -18.5216   22.1533 O   0  0  0  0  0  0  0  0  0  0  0  0
   10.0470  -17.2696   23.3178 O   0  0  0  0  0  0  0  0  0  0  0  0
  2  1  1  6
  2  3  1  0
  3  4  1  0
  4  8  1  0
  5  4  2  0
  6  2  1  0
  7  6  2  0
 10  9  1  1
 10 11  1  0
 11  6  1  0
 12 10  1  0
 12 14  1  0
 13 12  2  0
 15 14  1  0
 16 15  1  0
 17 16  1  0
 18 16  2  0
M  END
$$$$
