DAG.pdb
     RDKit          3D

 18 17  0  0  1  0  0  0  0  0999 V2000
    7.3367  -16.6268   16.5928 N   0  0  0  0  0  0  0  0  0  0  0  0
    8.7797  -16.6367   16.7277 C   0  0  1  0  0  0  0  0  0  0  0  0
    9.3859  -16.1925   15.4145 C   0  0  0  0  0  0  0  0  0  0  0  0
    9.2185  -17.1735   14.3470 C   0  0  0  0  0  0  0  0  0  0  0  0
    9.5247  -16.8740   13.1694 O   0  0  0  0  0  0  0  0  0  0  0  0
    9.1667  -15.6029   17.7466 C   0  0  0  0  0  0  0  0  0  0  0  0
   10.3745  -15.4749   18.0887 O   0  0  0  0  0  0  0  0  0  0  0  0
    8.7255  -18.4354   14.6100 O   0  0  0  0  0  0  0  0  0  0  0  0
    7.4474  -12.9031   19.7382 C   0  0  0  0  0  0  0  0  0  0  0  0
    8.5510  -13.9309   19.5265 C   0  0  2  0  0  0  0  0  0  0  0  0
    8.2288  -14.7444   18.3581 N   0  0  0  0  0  0  0  0  0  0  0  0
    8.6678  -14.8443   20.6862 C   0  0  0  0  0  0  0  0  0  0  0  0
    7.6765  -15.5369   21.1016 O   0  0  0  0  0  0  0  0  0  0  0  0
    9.8759  -15.0164   21.4142 N   0  0  0  0  0  0  0  0  0  0  0  0
    9.9284  -15.9007   22.5851 C   0  0  0  0  0  0  0  0  0  0  0  0
   11.2876  -15.9482   23.1513 C   0  0  0  0  0  0  0  0  0  0  0  0
   11.6134  -16.5867   24.3414 O   0  0  0  0  0  0  0  0  0  0  0  0
   12.2065  -15.3805   22.5255 O   0  0  0  0  0  0  0  0  0  0  0  0
  2  1  1  6
  2  3  1  0
  3  4  1  0
  4  8  1  0
  5  4  2  0
  6  2  1  0
  7  6  2  0
 10  9  1  1
 10 11  1  0
 11  6  1  0
 12 10  1  0
 12 14  1  0
 13 12  2  0
 15 14  1  0
 16 15  1  0
 17 16  1  0
 18 16  2  0
M  END
$$$$
