DAG.pdb
     RDKit          3D

 18 17  0  0  1  0  0  0  0  0999 V2000
    8.5827  -17.1416   17.3795 N   0  0  0  0  0  0  0  0  0  0  0  0
    8.7011  -17.4096   18.7989 C   0  0  1  0  0  0  0  0  0  0  0  0
    9.9744  -18.1927   19.0333 C   0  0  0  0  0  0  0  0  0  0  0  0
    9.9724  -19.4962   18.3770 C   0  0  0  0  0  0  0  0  0  0  0  0
   11.0420  -19.9728   17.9307 O   0  0  0  0  0  0  0  0  0  0  0  0
    8.8688  -16.0999   19.5152 C   0  0  0  0  0  0  0  0  0  0  0  0
   10.0122  -15.5749   19.6117 O   0  0  0  0  0  0  0  0  0  0  0  0
    8.8067  -20.2214   18.2366 O   0  0  0  0  0  0  0  0  0  0  0  0
    6.5724  -13.4475   20.8690 C   0  0  0  0  0  0  0  0  0  0  0  0
    7.9426  -14.0975   20.7298 C   0  0  2  0  0  0  0  0  0  0  0  0
    7.7892  -15.4061   20.1016 N   0  0  0  0  0  0  0  0  0  0  0  0
    8.5762  -14.3097   22.0512 C   0  0  0  0  0  0  0  0  0  0  0  0
    8.8842  -13.3324   22.8160 O   0  0  0  0  0  0  0  0  0  0  0  0
    8.8849  -15.5997   22.5607 N   0  0  0  0  0  0  0  0  0  0  0  0
    9.2928  -15.7775   23.9598 C   0  0  0  0  0  0  0  0  0  0  0  0
   10.7596  -15.7417   24.0916 C   0  0  0  0  0  0  0  0  0  0  0  0
   11.4339  -15.7971   25.3051 O   0  0  0  0  0  0  0  0  0  0  0  0
   11.4426  -15.6562   23.0502 O   0  0  0  0  0  0  0  0  0  0  0  0
  2  1  1  6
  2  3  1  0
  3  4  1  0
  4  8  1  0
  5  4  2  0
  6  2  1  0
  7  6  2  0
 10  9  1  1
 10 11  1  0
 11  6  1  0
 12 10  1  0
 12 14  1  0
 13 12  2  0
 15 14  1  0
 16 15  1  0
 17 16  1  0
 18 16  2  0
M  END
$$$$
