KPN.pdb
     RDKit          3D

 25 25  0  0  1  0  0  0  0  0999 V2000
    8.1193  -14.3112   21.2137 N   0  0  0  0  0  0  0  0  0  0  0  0
    7.2164  -14.1802   22.3523 C   0  0  1  0  0  0  0  0  0  0  0  0
    6.2960  -15.3933   22.4088 C   0  0  0  0  0  0  0  0  0  0  0  0
    7.0090  -16.6827   22.2674 C   0  0  0  0  0  0  0  0  0  0  0  0
    6.2278  -17.9319   22.3443 C   0  0  0  0  0  0  0  0  0  0  0  0
    6.9705  -19.2107   22.1936 C   0  0  0  0  0  0  0  0  0  0  0  0
    5.9991  -20.3065   22.3218 N   0  0  0  0  0  0  0  0  0  0  0  0
    8.0571  -14.1338   23.5784 C   0  0  0  0  0  0  0  0  0  0  0  0
    9.0915  -14.8885   23.5725 O   0  0  0  0  0  0  0  0  0  0  0  0
    7.7778  -13.3259   24.7060 N   0  0  0  0  0  0  0  0  0  0  0  0
    7.0338  -12.0583   24.5665 C   0  0  0  0  0  0  0  0  0  0  0  0
    6.1498  -11.9943   25.7682 C   0  0  0  0  0  0  0  0  0  0  0  0
    6.8046  -12.8883   26.7630 C   0  0  0  0  0  0  0  0  0  0  0  0
    8.0859  -13.3857   26.0849 C   0  0  1  0  0  0  0  0  0  0  0  0
    8.3429  -14.7100   26.6633 C   0  0  0  0  0  0  0  0  0  0  0  0
    7.5650  -15.6616   26.7789 O   0  0  0  0  0  0  0  0  0  0  0  0
   11.7768  -19.1465   26.7590 N   0  0  0  0  0  0  0  0  0  0  0  0
   11.8770  -17.9184   27.4647 C   0  0  0  0  0  0  0  0  0  0  0  0
   12.4877  -17.9181   28.5575 O   0  0  0  0  0  0  0  0  0  0  0  0
   11.2944  -16.6820   26.9527 C   0  0  0  0  0  0  0  0  0  0  0  0
   10.1068  -16.1839   27.7269 C   0  0  2  0  0  0  0  0  0  0  0  0
    9.6736  -14.9289   27.1603 N   0  0  0  0  0  0  0  0  0  0  0  0
   10.4855  -16.0807   29.1338 C   0  0  0  0  0  0  0  0  0  0  0  0
   10.5255  -17.0969   29.8540 O   0  0  0  0  0  0  0  0  0  0  0  0
   10.8031  -14.8593   29.6823 O   0  0  0  0  0  0  0  0  0  0  0  0
  2  1  1  6
  3  2  1  0
  4  3  1  0
  4  5  1  0
  6  5  1  0
  6  7  1  0
  8  2  1  0
  9  8  2  0
 10  8  1  0
 10 14  1  0
 11 10  1  0
 12 11  1  0
 12 13  1  0
 13 14  1  0
 15 22  1  0
 14 15  1  1
 16 15  2  0
 18 17  1  0
 18 19  2  0
 20 18  1  0
 21 22  1  0
 21 20  1  6
 23 21  1  0
 24 23  2  0
 25 23  1  0
M  END
$$$$
