KPN.pdb
     RDKit          3D

 25 25  0  0  1  0  0  0  0  0999 V2000
    9.6321  -14.9588   14.8295 N   0  0  0  0  0  0  0  0  0  0  0  0
    8.6880  -14.9676   15.9418 C   0  0  1  0  0  0  0  0  0  0  0  0
    8.0909  -16.3621   16.0860 C   0  0  0  0  0  0  0  0  0  0  0  0
    8.8391  -17.4041   15.3476 C   0  0  0  0  0  0  0  0  0  0  0  0
    9.1699  -18.6616   16.0451 C   0  0  0  0  0  0  0  0  0  0  0  0
    9.8549  -19.7188   15.2560 C   0  0  0  0  0  0  0  0  0  0  0  0
   10.1527  -20.8319   16.1688 N   0  0  0  0  0  0  0  0  0  0  0  0
    9.4514  -14.6218   17.1706 C   0  0  0  0  0  0  0  0  0  0  0  0
   10.6636  -15.0329   17.2066 O   0  0  0  0  0  0  0  0  0  0  0  0
    8.9211  -13.8882   18.2582 N   0  0  0  0  0  0  0  0  0  0  0  0
    7.8693  -12.8735   18.0489 C   0  0  0  0  0  0  0  0  0  0  0  0
    6.9545  -13.0171   19.2202 C   0  0  0  0  0  0  0  0  0  0  0  0
    7.7865  -13.6725   20.2671 C   0  0  0  0  0  0  0  0  0  0  0  0
    9.1798  -13.8237   19.6470 C   0  0  1  0  0  0  0  0  0  0  0  0
    9.7612  -15.0125   20.2821 C   0  0  0  0  0  0  0  0  0  0  0  0
    9.4406  -16.1956   20.1358 O   0  0  0  0  0  0  0  0  0  0  0  0
   13.2821  -17.6003   23.2689 N   0  0  0  0  0  0  0  0  0  0  0  0
   13.8092  -16.3747   22.7828 C   0  0  0  0  0  0  0  0  0  0  0  0
   15.0273  -16.1481   22.9617 O   0  0  0  0  0  0  0  0  0  0  0  0
   12.9769  -15.3939   22.0931 C   0  0  0  0  0  0  0  0  0  0  0  0
   11.5538  -15.8249   21.8763 C   0  0  2  0  0  0  0  0  0  0  0  0
   10.8454  -14.7687   21.1936 N   0  0  0  0  0  0  0  0  0  0  0  0
   10.9732  -16.1636   23.1730 C   0  0  0  0  0  0  0  0  0  0  0  0
   10.1029  -15.4341   23.6861 O   0  0  0  0  0  0  0  0  0  0  0  0
   11.3801  -17.2934   23.8452 O   0  0  0  0  0  0  0  0  0  0  0  0
  2  1  1  6
  3  2  1  0
  4  3  1  0
  4  5  1  0
  6  5  1  0
  6  7  1  0
  8  2  1  0
  9  8  2  0
 10  8  1  0
 10 14  1  0
 11 10  1  0
 12 11  1  0
 12 13  1  0
 13 14  1  0
 15 22  1  0
 14 15  1  1
 16 15  2  0
 18 17  1  0
 18 19  2  0
 20 18  1  0
 21 22  1  0
 21 20  1  1
 23 21  1  0
 24 23  2  0
 25 23  1  0
M  END
$$$$
