KPN.pdb
     RDKit          3D

 25 25  0  0  1  0  0  0  0  0999 V2000
    9.0231  -15.3210   19.9112 N   0  0  0  0  0  0  0  0  0  0  0  0
    7.9893  -15.6318   20.8928 C   0  0  1  0  0  0  0  0  0  0  0  0
    7.3953  -17.0007   20.5842 C   0  0  0  0  0  0  0  0  0  0  0  0
    6.3913  -17.4460   21.5764 C   0  0  0  0  0  0  0  0  0  0  0  0
    5.7479  -18.7602   21.3865 C   0  0  0  0  0  0  0  0  0  0  0  0
    4.7018  -19.1548   22.3660 C   0  0  0  0  0  0  0  0  0  0  0  0
    4.1642  -20.4556   21.9421 N   0  0  0  0  0  0  0  0  0  0  0  0
    8.6441  -15.6611   22.2281 C   0  0  0  0  0  0  0  0  0  0  0  0
    9.5740  -16.5295   22.3726 O   0  0  0  0  0  0  0  0  0  0  0  0
    8.3006  -14.8074   23.3029 N   0  0  0  0  0  0  0  0  0  0  0  0
    7.6967  -13.4827   23.0575 C   0  0  0  0  0  0  0  0  0  0  0  0
    6.6796  -13.3150   24.1377 C   0  0  0  0  0  0  0  0  0  0  0  0
    7.1227  -14.2412   25.2164 C   0  0  0  0  0  0  0  0  0  0  0  0
    8.4283  -14.8639   24.7102 C   0  0  1  0  0  0  0  0  0  0  0  0
    8.4913  -16.1928   25.3303 C   0  0  0  0  0  0  0  0  0  0  0  0
    7.6227  -17.0696   25.3573 O   0  0  0  0  0  0  0  0  0  0  0  0
   10.9202  -20.2325   27.7267 N   0  0  0  0  0  0  0  0  0  0  0  0
   11.5378  -19.7233   26.5538 C   0  0  0  0  0  0  0  0  0  0  0  0
   12.4535  -20.3993   26.0325 O   0  0  0  0  0  0  0  0  0  0  0  0
   11.1350  -18.4542   25.9560 C   0  0  0  0  0  0  0  0  0  0  0  0
    9.9671  -17.7900   26.6288 C   0  0  2  0  0  0  0  0  0  0  0  0
    9.7248  -16.5169   25.9930 N   0  0  0  0  0  0  0  0  0  0  0  0
   10.2621  -17.6751   28.0547 C   0  0  0  0  0  0  0  0  0  0  0  0
   10.4253  -18.6958   28.7509 O   0  0  0  0  0  0  0  0  0  0  0  0
   10.3637  -16.4376   28.6479 O   0  0  0  0  0  0  0  0  0  0  0  0
  2  1  1  6
  3  2  1  0
  4  3  1  0
  4  5  1  0
  6  5  1  0
  6  7  1  0
  8  2  1  0
  9  8  2  0
 10  8  1  0
 10 14  1  0
 11 10  1  0
 12 11  1  0
 12 13  1  0
 13 14  1  0
 15 22  1  0
 14 15  1  1
 16 15  2  0
 18 17  1  0
 18 19  2  0
 20 18  1  0
 21 22  1  0
 21 20  1  6
 23 21  1  0
 24 23  2  0
 25 23  1  0
M  END
$$$$
