KPN.pdb
     RDKit          3D

 25 25  0  0  1  0  0  0  0  0999 V2000
   10.1408  -15.0729   15.4476 N   0  0  0  0  0  0  0  0  0  0  0  0
    8.9988  -15.1223   16.3543 C   0  0  1  0  0  0  0  0  0  0  0  0
    8.3661  -16.5073   16.2944 C   0  0  0  0  0  0  0  0  0  0  0  0
    9.2482  -17.5818   16.8025 C   0  0  0  0  0  0  0  0  0  0  0  0
    8.7153  -18.9558   16.8743 C   0  0  0  0  0  0  0  0  0  0  0  0
    9.6512  -20.0285   17.3022 C   0  0  0  0  0  0  0  0  0  0  0  0
    8.8849  -21.2802   17.3839 N   0  0  0  0  0  0  0  0  0  0  0  0
    9.5139  -14.8676   17.7262 C   0  0  0  0  0  0  0  0  0  0  0  0
   10.6192  -15.4430   18.0211 O   0  0  0  0  0  0  0  0  0  0  0  0
    8.8650  -14.0509   18.6822 N   0  0  0  0  0  0  0  0  0  0  0  0
    7.9790  -12.9472   18.2619 C   0  0  0  0  0  0  0  0  0  0  0  0
    6.8503  -12.9634   19.2394 C   0  0  0  0  0  0  0  0  0  0  0  0
    7.4002  -13.6607   20.4348 C   0  0  0  0  0  0  0  0  0  0  0  0
    8.8629  -13.9656   20.0938 C   0  0  1  0  0  0  0  0  0  0  0  0
    9.1916  -15.1830   20.8450 C   0  0  0  0  0  0  0  0  0  0  0  0
    8.6743  -16.3007   20.7605 O   0  0  0  0  0  0  0  0  0  0  0  0
   13.6450  -17.6600   23.5759 N   0  0  0  0  0  0  0  0  0  0  0  0
   12.6314  -16.8046   24.0831 C   0  0  0  0  0  0  0  0  0  0  0  0
   12.2666  -16.9669   25.2696 O   0  0  0  0  0  0  0  0  0  0  0  0
   12.0189  -15.7616   23.2662 C   0  0  0  0  0  0  0  0  0  0  0  0
   10.7398  -16.1683   22.5906 C   0  0  2  0  0  0  0  0  0  0  0  0
   10.2545  -15.0592   21.8045 N   0  0  0  0  0  0  0  0  0  0  0  0
    9.7961  -16.6039   23.6168 C   0  0  0  0  0  0  0  0  0  0  0  0
    8.9748  -15.8019   24.1019 O   0  0  0  0  0  0  0  0  0  0  0  0
    9.8018  -17.9062   24.0613 O   0  0  0  0  0  0  0  0  0  0  0  0
  2  1  1  6
  3  2  1  0
  4  3  1  0
  4  5  1  0
  6  5  1  0
  6  7  1  0
  8  2  1  0
  9  8  2  0
 10  8  1  0
 10 14  1  0
 11 10  1  0
 12 11  1  0
 12 13  1  0
 13 14  1  0
 15 22  1  0
 14 15  1  1
 16 15  2  0
 18 17  1  0
 18 19  2  0
 20 18  1  0
 21 22  1  0
 21 20  1  1
 23 21  1  0
 24 23  2  0
 25 23  1  0
M  END
$$$$
