KPN.pdb
     RDKit          3D

 25 25  0  0  1  0  0  0  0  0999 V2000
    9.4167  -14.7681   14.9053 N   0  0  0  0  0  0  0  0  0  0  0  0
    8.5891  -14.9218   16.0970 C   0  0  1  0  0  0  0  0  0  0  0  0
    8.1248  -16.3690   16.2060 C   0  0  0  0  0  0  0  0  0  0  0  0
    9.2021  -17.3547   15.9638 C   0  0  0  0  0  0  0  0  0  0  0  0
    8.8832  -18.7903   16.0825 C   0  0  0  0  0  0  0  0  0  0  0  0
    9.9878  -19.7560   15.8435 C   0  0  0  0  0  0  0  0  0  0  0  0
    9.4369  -21.1095   16.0021 N   0  0  0  0  0  0  0  0  0  0  0  0
    9.4377  -14.5800   17.2699 C   0  0  0  0  0  0  0  0  0  0  0  0
   10.6499  -14.9894   17.2176 O   0  0  0  0  0  0  0  0  0  0  0  0
    8.9852  -13.8520   18.3957 N   0  0  0  0  0  0  0  0  0  0  0  0
    7.8854  -12.8744   18.2759 C   0  0  0  0  0  0  0  0  0  0  0  0
    7.0873  -13.0346   19.5277 C   0  0  0  0  0  0  0  0  0  0  0  0
    8.0334  -13.6508   20.4988 C   0  0  0  0  0  0  0  0  0  0  0  0
    9.3681  -13.7636   19.7541 C   0  0  1  0  0  0  0  0  0  0  0  0
   10.0448  -14.9256   20.3427 C   0  0  0  0  0  0  0  0  0  0  0  0
    9.7136  -16.1138   20.2926 O   0  0  0  0  0  0  0  0  0  0  0  0
   15.5043  -15.6358   23.3166 N   0  0  0  0  0  0  0  0  0  0  0  0
   14.3042  -16.0499   22.6805 C   0  0  0  0  0  0  0  0  0  0  0  0
   14.0512  -17.2755   22.6465 O   0  0  0  0  0  0  0  0  0  0  0  0
   13.3789  -15.0955   22.0778 C   0  0  0  0  0  0  0  0  0  0  0  0
   12.0369  -15.6684   21.7192 C   0  0  2  0  0  0  0  0  0  0  0  0
   11.2505  -14.6449   21.0729 N   0  0  0  0  0  0  0  0  0  0  0  0
   11.4185  -16.1877   22.9362 C   0  0  0  0  0  0  0  0  0  0  0  0
   11.4099  -17.4121   23.1684 O   0  0  0  0  0  0  0  0  0  0  0  0
   10.8369  -15.3311   23.8427 O   0  0  0  0  0  0  0  0  0  0  0  0
  2  1  1  6
  3  2  1  0
  4  3  1  0
  4  5  1  0
  6  5  1  0
  6  7  1  0
  8  2  1  0
  9  8  2  0
 10  8  1  0
 10 14  1  0
 11 10  1  0
 12 11  1  0
 12 13  1  0
 13 14  1  0
 15 22  1  0
 14 15  1  1
 16 15  2  0
 18 17  1  0
 18 19  2  0
 20 18  1  0
 21 22  1  0
 21 20  1  1
 23 21  1  0
 24 23  2  0
 25 23  1  0
M  END
$$$$
