KPN.pdb
     RDKit          3D

 25 25  0  0  1  0  0  0  0  0999 V2000
    9.9328  -15.0518   15.2173 N   0  0  0  0  0  0  0  0  0  0  0  0
    8.9065  -15.0186   16.2537 C   0  0  1  0  0  0  0  0  0  0  0  0
    8.2196  -16.3768   16.3277 C   0  0  0  0  0  0  0  0  0  0  0  0
    7.5177  -16.7523   15.0799 C   0  0  0  0  0  0  0  0  0  0  0  0
    7.2751  -18.1827   14.8111 C   0  0  0  0  0  0  0  0  0  0  0  0
    6.5296  -18.5265   13.5719 C   0  0  0  0  0  0  0  0  0  0  0  0
    6.5162  -19.9916   13.4534 N   0  0  0  0  0  0  0  0  0  0  0  0
    9.5913  -14.7345   17.5432 C   0  0  0  0  0  0  0  0  0  0  0  0
   10.7502  -15.2603   17.6852 O   0  0  0  0  0  0  0  0  0  0  0  0
    9.0432  -13.9412   18.5787 N   0  0  0  0  0  0  0  0  0  0  0  0
    8.1375  -12.8156   18.2746 C   0  0  0  0  0  0  0  0  0  0  0  0
    7.1025  -12.8504   19.3504 C   0  0  0  0  0  0  0  0  0  0  0  0
    7.7496  -13.5905   20.4690 C   0  0  0  0  0  0  0  0  0  0  0  0
    9.1709  -13.9001   19.9865 C   0  0  1  0  0  0  0  0  0  0  0  0
    9.5504  -15.1438   20.6674 C   0  0  0  0  0  0  0  0  0  0  0  0
    9.0388  -16.2626   20.5644 O   0  0  0  0  0  0  0  0  0  0  0  0
   14.3057  -17.7136   23.0012 N   0  0  0  0  0  0  0  0  0  0  0  0
   13.2403  -16.9212   23.5043 C   0  0  0  0  0  0  0  0  0  0  0  0
   12.8487  -17.1388   24.6733 O   0  0  0  0  0  0  0  0  0  0  0  0
   12.6054  -15.8795   22.7029 C   0  0  0  0  0  0  0  0  0  0  0  0
   11.1912  -16.1809   22.2944 C   0  0  2  0  0  0  0  0  0  0  0  0
   10.6626  -15.0480   21.5726 N   0  0  0  0  0  0  0  0  0  0  0  0
   10.4256  -16.5076   23.4946 C   0  0  0  0  0  0  0  0  0  0  0  0
   10.4750  -17.6526   23.9840 O   0  0  0  0  0  0  0  0  0  0  0  0
    9.6394  -15.5546   24.1007 O   0  0  0  0  0  0  0  0  0  0  0  0
  2  1  1  6
  3  2  1  0
  4  3  1  0
  4  5  1  0
  6  5  1  0
  6  7  1  0
  8  2  1  0
  9  8  2  0
 10  8  1  0
 10 14  1  0
 11 10  1  0
 12 11  1  0
 12 13  1  0
 13 14  1  0
 15 22  1  0
 14 15  1  1
 16 15  2  0
 18 17  1  0
 18 19  2  0
 20 18  1  0
 21 22  1  0
 21 20  1  1
 23 21  1  0
 24 23  2  0
 25 23  1  0
M  END
$$$$
