KPN.pdb
     RDKit          3D

 25 25  0  0  1  0  0  0  0  0999 V2000
    8.7910  -15.8254   15.8817 N   0  0  0  0  0  0  0  0  0  0  0  0
    7.9632  -16.1240   17.0455 C   0  0  1  0  0  0  0  0  0  0  0  0
    7.5992  -17.6037   17.0398 C   0  0  0  0  0  0  0  0  0  0  0  0
    6.7891  -18.0170   18.2076 C   0  0  0  0  0  0  0  0  0  0  0  0
    6.3867  -19.4320   18.3206 C   0  0  0  0  0  0  0  0  0  0  0  0
    5.6244  -19.8291   19.5334 C   0  0  0  0  0  0  0  0  0  0  0  0
    5.3178  -21.2619   19.4162 N   0  0  0  0  0  0  0  0  0  0  0  0
    8.7733  -15.8137   18.2538 C   0  0  0  0  0  0  0  0  0  0  0  0
    9.8089  -16.5455   18.4322 O   0  0  0  0  0  0  0  0  0  0  0  0
    8.4648  -14.7878   19.1781 N   0  0  0  0  0  0  0  0  0  0  0  0
    7.6362  -13.6321   18.7813 C   0  0  0  0  0  0  0  0  0  0  0  0
    6.7751  -13.3480   19.9676 C   0  0  0  0  0  0  0  0  0  0  0  0
    7.5079  -13.9507   21.1154 C   0  0  0  0  0  0  0  0  0  0  0  0
    8.8048  -14.5127   20.5230 C   0  0  1  0  0  0  0  0  0  0  0  0
    9.1605  -15.6523   21.3770 C   0  0  0  0  0  0  0  0  0  0  0  0
    8.5642  -16.7245   21.5145 O   0  0  0  0  0  0  0  0  0  0  0  0
   12.5503  -18.8923   23.8563 N   0  0  0  0  0  0  0  0  0  0  0  0
   13.0150  -17.5529   23.7766 C   0  0  0  0  0  0  0  0  0  0  0  0
   14.0121  -17.2362   24.4641 O   0  0  0  0  0  0  0  0  0  0  0  0
   12.3670  -16.5584   22.9272 C   0  0  0  0  0  0  0  0  0  0  0  0
   10.8679  -16.5335   23.0271 C   0  0  2  0  0  0  0  0  0  0  0  0
   10.3594  -15.5016   22.1552 N   0  0  0  0  0  0  0  0  0  0  0  0
   10.5036  -16.3357   24.4277 C   0  0  0  0  0  0  0  0  0  0  0  0
   10.0939  -15.2275   24.8240 O   0  0  0  0  0  0  0  0  0  0  0  0
   10.6082  -17.3711   25.3280 O   0  0  0  0  0  0  0  0  0  0  0  0
  2  1  1  6
  3  2  1  0
  4  3  1  0
  4  5  1  0
  6  5  1  0
  6  7  1  0
  8  2  1  0
  9  8  2  0
 10  8  1  0
 10 14  1  0
 11 10  1  0
 12 11  1  0
 12 13  1  0
 13 14  1  0
 15 22  1  0
 14 15  1  1
 16 15  2  0
 18 17  1  0
 18 19  2  0
 20 18  1  0
 21 22  1  0
 21 20  1  1
 23 21  1  0
 24 23  2  0
 25 23  1  0
M  END
$$$$
