KPN.pdb
     RDKit          3D

 25 25  0  0  1  0  0  0  0  0999 V2000
    8.6586  -17.1624   17.8700 N   0  0  0  0  0  0  0  0  0  0  0  0
    7.8631  -17.0037   19.0827 C   0  0  1  0  0  0  0  0  0  0  0  0
    7.2619  -18.3487   19.4719 C   0  0  0  0  0  0  0  0  0  0  0  0
    7.0459  -19.2541   18.3210 C   0  0  0  0  0  0  0  0  0  0  0  0
    6.5039  -20.6023   18.5773 C   0  0  0  0  0  0  0  0  0  0  0  0
    6.2250  -21.4607   17.3961 C   0  0  0  0  0  0  0  0  0  0  0  0
    5.8493  -22.7920   17.8931 N   0  0  0  0  0  0  0  0  0  0  0  0
    8.7827  -16.5387   20.1553 C   0  0  0  0  0  0  0  0  0  0  0  0
    9.8866  -17.1795   20.2580 O   0  0  0  0  0  0  0  0  0  0  0  0
    8.5052  -15.4635   21.0322 N   0  0  0  0  0  0  0  0  0  0  0  0
    7.6379  -14.3451   20.6118 C   0  0  0  0  0  0  0  0  0  0  0  0
    6.8345  -14.0022   21.8229 C   0  0  0  0  0  0  0  0  0  0  0  0
    7.6358  -14.5248   22.9642 C   0  0  0  0  0  0  0  0  0  0  0  0
    8.9096  -15.1035   22.3387 C   0  0  1  0  0  0  0  0  0  0  0  0
    9.3281  -16.1847   23.2387 C   0  0  0  0  0  0  0  0  0  0  0  0
    8.7274  -17.2261   23.5193 O   0  0  0  0  0  0  0  0  0  0  0  0
   14.2977  -15.3100   23.6298 N   0  0  0  0  0  0  0  0  0  0  0  0
   13.4162  -16.4154   23.7616 C   0  0  0  0  0  0  0  0  0  0  0  0
   13.3185  -17.2060   22.7959 O   0  0  0  0  0  0  0  0  0  0  0  0
   12.6376  -16.6438   24.9748 C   0  0  0  0  0  0  0  0  0  0  0  0
   11.1994  -17.0066   24.7347 C   0  0  2  0  0  0  0  0  0  0  0  0
   10.6037  -16.0096   23.8774 N   0  0  0  0  0  0  0  0  0  0  0  0
   10.5330  -17.1262   26.0289 C   0  0  0  0  0  0  0  0  0  0  0  0
    9.7238  -16.2568   26.4062 O   0  0  0  0  0  0  0  0  0  0  0  0
   10.7905  -18.2010   26.8488 O   0  0  0  0  0  0  0  0  0  0  0  0
  2  1  1  6
  3  2  1  0
  4  3  1  0
  4  5  1  0
  6  5  1  0
  6  7  1  0
  8  2  1  0
  9  8  2  0
 10  8  1  0
 10 14  1  0
 11 10  1  0
 12 11  1  0
 12 13  1  0
 13 14  1  0
 15 22  1  0
 14 15  1  1
 16 15  2  0
 18 17  1  0
 18 19  2  0
 20 18  1  0
 21 22  1  0
 21 20  1  1
 23 21  1  0
 24 23  2  0
 25 23  1  0
M  END
$$$$
