NVY.pdb
     RDKit          3D

 28 28  0  0  1  0  0  0  0  0999 V2000
    9.5186  -21.1206   19.1599 N   0  0  0  0  0  0  0  0  0  0  0  0
    9.4034  -20.5895   20.4673 C   0  0  0  0  0  0  0  0  0  0  0  0
    9.3570  -21.4545   21.4093 O   0  0  0  0  0  0  0  0  0  0  0  0
    9.3331  -19.1867   20.8463 C   0  0  0  0  0  0  0  0  0  0  0  0
    9.3669  -18.1965   19.7371 C   0  0  2  0  0  0  0  0  0  0  0  0
   10.2879  -18.5199   18.6681 N   0  0  0  0  0  0  0  0  0  0  0  0
    9.5408  -16.8138   20.2483 C   0  0  0  0  0  0  0  0  0  0  0  0
   10.7040  -16.2858   20.2392 O   0  0  0  0  0  0  0  0  0  0  0  0
    7.7150  -12.4634   21.6341 C   0  0  0  0  0  0  0  0  0  0  0  0
    7.5206  -13.8195   21.0017 C   0  0  1  0  0  0  0  0  0  0  0  0
    7.2196  -13.6601   19.5272 C   0  0  0  0  0  0  0  0  0  0  0  0
    8.7259  -14.6556   21.2573 C   0  0  2  0  0  0  0  0  0  0  0  0
    8.5054  -16.0057   20.7624 N   0  0  0  0  0  0  0  0  0  0  0  0
    9.0400  -14.6967   22.7171 C   0  0  0  0  0  0  0  0  0  0  0  0
    9.0851  -13.6219   23.3512 O   0  0  0  0  0  0  0  0  0  0  0  0
    6.1593  -10.7823   26.7092 O   0  0  0  0  0  0  0  0  0  0  0  0
    6.5817  -12.0630   26.3791 C   0  0  0  0  0  0  0  0  0  0  0  0
    5.8345  -12.9063   25.5682 C   0  0  0  0  0  0  0  0  0  0  0  0
    6.2435  -14.1693   25.2379 C   0  0  0  0  0  0  0  0  0  0  0  0
    7.4400  -14.6629   25.7089 C   0  0  0  0  0  0  0  0  0  0  0  0
    7.9249  -16.0222   25.3944 C   0  0  0  0  0  0  0  0  0  0  0  0
    9.3049  -15.9803   24.8144 C   0  0  2  0  0  0  0  0  0  0  0  0
    9.2801  -15.9226   23.3639 N   0  0  0  0  0  0  0  0  0  0  0  0
   10.2075  -17.0450   25.2397 C   0  0  0  0  0  0  0  0  0  0  0  0
   10.5552  -17.1651   26.5906 O   0  0  0  0  0  0  0  0  0  0  0  0
    8.2023  -13.8397   26.5197 C   0  0  0  0  0  0  0  0  0  0  0  0
    7.7802  -12.5699   26.8452 C   0  0  0  0  0  0  0  0  0  0  0  0
   10.7236  -17.8994   24.4791 O   0  0  0  0  0  0  0  0  0  0  0  0
  1  2  1  0
  2  3  2  0
  4  2  1  0
  5  4  1  0
  5  6  1  6
  7  5  1  0
  7  8  2  0
 10 12  1  0
 10  9  1  6
 11 10  1  0
 12 13  1  1
 13  7  1  0
 14 15  2  0
 14 12  1  0
 16 17  1  0
 17 18  2  0
 18 19  1  0
 20 21  1  0
 20 19  2  0
 22 21  1  6
 22 23  1  0
 23 14  1  0
 24 22  1  0
 25 24  1  0
 26 20  1  0
 27 26  2  0
 27 17  1  0
 28 24  2  0
M  END
$$$$
