NVY.pdb
     RDKit          3D

 28 28  0  0  1  0  0  0  0  0999 V2000
   15.3284  -17.8573   19.9644 N   0  0  0  0  0  0  0  0  0  0  0  0
   14.0080  -18.1847   20.3567 C   0  0  0  0  0  0  0  0  0  0  0  0
   13.6043  -19.3482   20.0092 O   0  0  0  0  0  0  0  0  0  0  0  0
   13.0769  -17.3508   21.1010 C   0  0  0  0  0  0  0  0  0  0  0  0
   11.7046  -17.2251   20.5417 C   0  0  2  0  0  0  0  0  0  0  0  0
   11.6552  -16.9607   19.1194 N   0  0  0  0  0  0  0  0  0  0  0  0
   10.8803  -16.2771   21.3325 C   0  0  0  0  0  0  0  0  0  0  0  0
   11.3801  -15.7333   22.3747 O   0  0  0  0  0  0  0  0  0  0  0  0
    6.7665  -13.6217   21.9920 C   0  0  0  0  0  0  0  0  0  0  0  0
    7.6410  -14.4459   21.0795 C   0  0  1  0  0  0  0  0  0  0  0  0
    8.1182  -13.5972   19.9210 C   0  0  0  0  0  0  0  0  0  0  0  0
    8.7619  -15.0264   21.8693 C   0  0  2  0  0  0  0  0  0  0  0  0
    9.5516  -15.9135   21.0293 N   0  0  0  0  0  0  0  0  0  0  0  0
    8.2414  -15.7783   23.0505 C   0  0  0  0  0  0  0  0  0  0  0  0
    8.0964  -17.0151   22.9576 O   0  0  0  0  0  0  0  0  0  0  0  0
   12.2148  -14.6700   29.4243 O   0  0  0  0  0  0  0  0  0  0  0  0
   11.0116  -14.7622   28.7375 C   0  0  0  0  0  0  0  0  0  0  0  0
   10.4433  -15.9812   28.3940 C   0  0  0  0  0  0  0  0  0  0  0  0
    9.2583  -16.0808   27.7177 C   0  0  0  0  0  0  0  0  0  0  0  0
    8.5688  -14.9486   27.3436 C   0  0  0  0  0  0  0  0  0  0  0  0
    7.2923  -14.9967   26.6020 C   0  0  0  0  0  0  0  0  0  0  0  0
    7.4123  -15.8531   25.3794 C   0  0  2  0  0  0  0  0  0  0  0  0
    7.9212  -15.1054   24.2437 N   0  0  0  0  0  0  0  0  0  0  0  0
    6.2053  -16.5707   24.9831 C   0  0  0  0  0  0  0  0  0  0  0  0
    5.8593  -17.7626   25.6311 O   0  0  0  0  0  0  0  0  0  0  0  0
    9.1166  -13.7214   27.6754 C   0  0  0  0  0  0  0  0  0  0  0  0
   10.3103  -13.6337   28.3565 C   0  0  0  0  0  0  0  0  0  0  0  0
    5.4142  -16.2071   24.0792 O   0  0  0  0  0  0  0  0  0  0  0  0
  1  2  1  0
  2  3  2  0
  4  2  1  0
  5  4  1  0
  5  6  1  6
  7  5  1  0
  7  8  2  0
 10 12  1  0
 10  9  1  1
 11 10  1  0
 12 13  1  6
 13  7  1  0
 14 15  2  0
 14 12  1  0
 16 17  1  0
 17 18  2  0
 18 19  1  0
 20 21  1  0
 20 19  2  0
 22 21  1  1
 22 23  1  0
 23 14  1  0
 24 22  1  0
 25 24  1  0
 26 20  1  0
 27 26  2  0
 27 17  1  0
 28 24  2  0
M  END
$$$$
