NVY.pdb
     RDKit          3D

 28 28  0  0  1  0  0  0  0  0999 V2000
   12.9350  -16.8718   15.9143 N   0  0  0  0  0  0  0  0  0  0  0  0
   12.8217  -17.4096   17.2191 C   0  0  0  0  0  0  0  0  0  0  0  0
   13.1255  -18.6476   17.3311 O   0  0  0  0  0  0  0  0  0  0  0  0
   12.4027  -16.7141   18.4263 C   0  0  0  0  0  0  0  0  0  0  0  0
   11.1770  -17.2252   19.0958 C   0  0  2  0  0  0  0  0  0  0  0  0
   10.2004  -17.8093   18.2011 N   0  0  0  0  0  0  0  0  0  0  0  0
   10.5901  -16.2085   20.0043 C   0  0  0  0  0  0  0  0  0  0  0  0
   11.3313  -15.6556   20.8855 O   0  0  0  0  0  0  0  0  0  0  0  0
    6.9200  -13.2126   21.3677 C   0  0  0  0  0  0  0  0  0  0  0  0
    7.5133  -14.1496   20.3447 C   0  0  1  0  0  0  0  0  0  0  0  0
    7.8432  -13.3869   19.0800 C   0  0  0  0  0  0  0  0  0  0  0  0
    8.6998  -14.8294   20.9342 C   0  0  2  0  0  0  0  0  0  0  0  0
    9.2442  -15.7868   19.9839 N   0  0  0  0  0  0  0  0  0  0  0  0
    8.3318  -15.5282   22.2022 C   0  0  0  0  0  0  0  0  0  0  0  0
    8.3055  -16.7766   22.2130 O   0  0  0  0  0  0  0  0  0  0  0  0
   10.6539  -15.5502   30.6301 O   0  0  0  0  0  0  0  0  0  0  0  0
   10.3195  -15.1750   29.3359 C   0  0  0  0  0  0  0  0  0  0  0  0
    9.7669  -13.9363   29.0404 C   0  0  0  0  0  0  0  0  0  0  0  0
    9.4348  -13.5587   27.7681 C   0  0  0  0  0  0  0  0  0  0  0  0
    9.6411  -14.4137   26.7080 C   0  0  0  0  0  0  0  0  0  0  0  0
    9.2905  -14.0633   25.3167 C   0  0  0  0  0  0  0  0  0  0  0  0
    8.5787  -15.1940   24.6402 C   0  0  2  0  0  0  0  0  0  0  0  0
    8.0213  -14.7934   23.3609 N   0  0  0  0  0  0  0  0  0  0  0  0
    7.5475  -15.8605   25.4285 C   0  0  0  0  0  0  0  0  0  0  0  0
    6.2205  -15.4208   25.3535 O   0  0  0  0  0  0  0  0  0  0  0  0
   10.1911  -15.6548   26.9788 C   0  0  0  0  0  0  0  0  0  0  0  0
   10.5215  -16.0237   28.2638 C   0  0  0  0  0  0  0  0  0  0  0  0
    7.7441  -16.8309   26.1997 O   0  0  0  0  0  0  0  0  0  0  0  0
  1  2  1  0
  2  3  2  0
  4  2  1  0
  5  4  1  0
  5  6  1  6
  7  5  1  0
  7  8  2  0
 10 12  1  0
 10  9  1  1
 11 10  1  0
 12 13  1  6
 13  7  1  0
 14 15  2  0
 14 12  1  0
 16 17  1  0
 17 18  2  0
 18 19  1  0
 20 21  1  0
 20 19  2  0
 22 21  1  1
 22 23  1  0
 23 14  1  0
 24 22  1  0
 25 24  1  0
 26 20  1  0
 27 26  2  0
 27 17  1  0
 28 24  2  0
M  END
$$$$
