NVY.pdb
     RDKit          3D

 28 28  0  0  1  0  0  0  0  0999 V2000
   10.0188  -21.4869   22.5012 N   0  0  0  0  0  0  0  0  0  0  0  0
    9.2935  -20.4773   21.8235 C   0  0  0  0  0  0  0  0  0  0  0  0
    8.6491  -20.8650   20.7881 O   0  0  0  0  0  0  0  0  0  0  0  0
    9.2055  -19.0682   22.1746 C   0  0  0  0  0  0  0  0  0  0  0  0
    9.6720  -18.0977   21.1488 C   0  0  2  0  0  0  0  0  0  0  0  0
   11.0030  -18.3519   20.6396 N   0  0  0  0  0  0  0  0  0  0  0  0
    9.4870  -16.6965   21.6026 C   0  0  0  0  0  0  0  0  0  0  0  0
   10.3291  -16.1871   22.4170 O   0  0  0  0  0  0  0  0  0  0  0  0
    7.2284  -12.3239   21.4395 C   0  0  0  0  0  0  0  0  0  0  0  0
    7.5428  -13.6494   20.7906 C   0  0  1  0  0  0  0  0  0  0  0  0
    8.3810  -13.4279   19.5502 C   0  0  0  0  0  0  0  0  0  0  0  0
    8.2080  -14.5354   21.7855 C   0  0  2  0  0  0  0  0  0  0  0  0
    8.4302  -15.8509   21.2057 N   0  0  0  0  0  0  0  0  0  0  0  0
    7.3766  -14.6602   23.0202 C   0  0  0  0  0  0  0  0  0  0  0  0
    6.6755  -15.6826   23.1702 O   0  0  0  0  0  0  0  0  0  0  0  0
   11.5552  -14.6463   28.9991 O   0  0  0  0  0  0  0  0  0  0  0  0
   10.3996  -14.7597   28.2379 C   0  0  0  0  0  0  0  0  0  0  0  0
   10.2337  -15.7525   27.2820 C   0  0  0  0  0  0  0  0  0  0  0  0
    9.0983  -15.8715   26.5280 C   0  0  0  0  0  0  0  0  0  0  0  0
    8.0530  -14.9899   26.6932 C   0  0  0  0  0  0  0  0  0  0  0  0
    6.8100  -15.0639   25.8990 C   0  0  0  0  0  0  0  0  0  0  0  0
    6.5543  -13.7761   25.1786 C   0  0  2  0  0  0  0  0  0  0  0  0
    7.3838  -13.6453   23.9944 N   0  0  0  0  0  0  0  0  0  0  0  0
    6.6657  -12.5634   25.9823 C   0  0  0  0  0  0  0  0  0  0  0  0
    5.7570  -12.3307   27.0216 O   0  0  0  0  0  0  0  0  0  0  0  0
    8.1961  -13.9912   27.6410 C   0  0  0  0  0  0  0  0  0  0  0  0
    9.3437  -13.8814   28.3941 C   0  0  0  0  0  0  0  0  0  0  0  0
    7.5343  -11.6713   25.8249 O   0  0  0  0  0  0  0  0  0  0  0  0
  1  2  1  0
  2  3  2  0
  4  2  1  0
  5  4  1  0
  5  6  1  1
  7  5  1  0
  7  8  2  0
 10 12  1  0
 10  9  1  1
 11 10  1  0
 12 13  1  6
 13  7  1  0
 14 15  2  0
 14 12  1  0
 16 17  1  0
 17 18  2  0
 18 19  1  0
 20 21  1  0
 20 19  2  0
 22 21  1  1
 22 23  1  0
 23 14  1  0
 24 22  1  0
 25 24  1  0
 26 20  1  0
 27 26  2  0
 27 17  1  0
 28 24  2  0
M  END
$$$$
