NVY.pdb
     RDKit          3D

 28 28  0  0  1  0  0  0  0  0999 V2000
   13.7495  -17.7428   16.4826 N   0  0  0  0  0  0  0  0  0  0  0  0
   12.4389  -17.2076   16.4988 C   0  0  0  0  0  0  0  0  0  0  0  0
   11.7540  -17.3997   15.4350 O   0  0  0  0  0  0  0  0  0  0  0  0
   11.7992  -16.4738   17.5800 C   0  0  0  0  0  0  0  0  0  0  0  0
   10.8819  -17.2489   18.4572 C   0  0  2  0  0  0  0  0  0  0  0  0
    9.6977  -17.7535   17.7951 N   0  0  0  0  0  0  0  0  0  0  0  0
   10.5722  -16.5104   19.7071 C   0  0  0  0  0  0  0  0  0  0  0  0
   11.5206  -16.2174   20.5112 O   0  0  0  0  0  0  0  0  0  0  0  0
    7.3807  -14.1804   22.6831 C   0  0  0  0  0  0  0  0  0  0  0  0
    7.6598  -14.8189   21.3448 C   0  0  1  0  0  0  0  0  0  0  0  0
    7.4885  -13.7966   20.2423 C   0  0  0  0  0  0  0  0  0  0  0  0
    9.0209  -15.4225   21.3653 C   0  0  2  0  0  0  0  0  0  0  0  0
    9.2840  -16.0924   20.1011 N   0  0  0  0  0  0  0  0  0  0  0  0
    9.1494  -16.3965   22.4905 C   0  0  0  0  0  0  0  0  0  0  0  0
    8.6648  -17.5391   22.3530 O   0  0  0  0  0  0  0  0  0  0  0  0
    9.1148  -13.2225   29.7029 O   0  0  0  0  0  0  0  0  0  0  0  0
    9.6160  -14.0605   28.7159 C   0  0  0  0  0  0  0  0  0  0  0  0
   10.2442  -15.2628   29.0102 C   0  0  0  0  0  0  0  0  0  0  0  0
   10.7406  -16.0944   28.0438 C   0  0  0  0  0  0  0  0  0  0  0  0
   10.6331  -15.7616   26.7116 C   0  0  0  0  0  0  0  0  0  0  0  0
   11.1612  -16.6149   25.6278 C   0  0  0  0  0  0  0  0  0  0  0  0
   10.0686  -17.0379   24.6952 C   0  0  2  0  0  0  0  0  0  0  0  0
    9.8040  -16.0329   23.6815 N   0  0  0  0  0  0  0  0  0  0  0  0
    8.8120  -17.4326   25.3231 C   0  0  0  0  0  0  0  0  0  0  0  0
    8.7881  -18.5106   26.2160 O   0  0  0  0  0  0  0  0  0  0  0  0
   10.0104  -14.5667   26.3941 C   0  0  0  0  0  0  0  0  0  0  0  0
    9.5145  -13.7378   27.3756 C   0  0  0  0  0  0  0  0  0  0  0  0
    7.7040  -16.8752   25.1317 O   0  0  0  0  0  0  0  0  0  0  0  0
  1  2  1  0
  2  3  2  0
  4  2  1  0
  5  4  1  0
  5  6  1  6
  7  5  1  0
  7  8  2  0
 10 12  1  0
 10  9  1  1
 11 10  1  0
 12 13  1  6
 13  7  1  0
 14 15  2  0
 14 12  1  0
 16 17  1  0
 17 18  2  0
 18 19  1  0
 20 21  1  0
 20 19  2  0
 22 21  1  1
 22 23  1  0
 23 14  1  0
 24 22  1  0
 25 24  1  0
 26 20  1  0
 27 26  2  0
 27 17  1  0
 28 24  2  0
M  END
$$$$
