NVY.pdb
     RDKit          3D

 28 28  0  0  1  0  0  0  0  0999 V2000
   12.6078  -20.4638   17.9145 N   0  0  0  0  0  0  0  0  0  0  0  0
   11.4168  -19.8457   18.3661 C   0  0  0  0  0  0  0  0  0  0  0  0
   10.3352  -20.4741   18.0957 O   0  0  0  0  0  0  0  0  0  0  0  0
   11.2950  -18.5915   19.0932 C   0  0  0  0  0  0  0  0  0  0  0  0
   10.2927  -17.6204   18.5792 C   0  0  2  0  0  0  0  0  0  0  0  0
   10.5466  -17.1463   17.2353 N   0  0  0  0  0  0  0  0  0  0  0  0
   10.0604  -16.5171   19.5448 C   0  0  0  0  0  0  0  0  0  0  0  0
   11.0520  -15.8195   19.9470 O   0  0  0  0  0  0  0  0  0  0  0  0
    7.0674  -13.3626   21.8351 C   0  0  0  0  0  0  0  0  0  0  0  0
    7.2963  -14.4166   20.7798 C   0  0  1  0  0  0  0  0  0  0  0  0
    7.1688  -13.8011   19.4032 C   0  0  0  0  0  0  0  0  0  0  0  0
    8.6227  -15.0547   21.0056 C   0  0  2  0  0  0  0  0  0  0  0  0
    8.8042  -16.1601   20.0776 N   0  0  0  0  0  0  0  0  0  0  0  0
    8.7383  -15.5490   22.4105 C   0  0  0  0  0  0  0  0  0  0  0  0
    8.2549  -16.6645   22.6954 O   0  0  0  0  0  0  0  0  0  0  0  0
   10.5902  -16.2199   30.9843 O   0  0  0  0  0  0  0  0  0  0  0  0
   10.5079  -15.7704   29.6733 C   0  0  0  0  0  0  0  0  0  0  0  0
   10.9060  -16.5482   28.5946 C   0  0  0  0  0  0  0  0  0  0  0  0
   10.8280  -16.1131   27.2998 C   0  0  0  0  0  0  0  0  0  0  0  0
   10.3402  -14.8577   27.0117 C   0  0  0  0  0  0  0  0  0  0  0  0
   10.2449  -14.3322   25.6346 C   0  0  0  0  0  0  0  0  0  0  0  0
    9.4616  -15.2597   24.7578 C   0  0  2  0  0  0  0  0  0  0  0  0
    9.3793  -14.7723   23.3927 N   0  0  0  0  0  0  0  0  0  0  0  0
    8.1243  -15.6044   25.2286 C   0  0  0  0  0  0  0  0  0  0  0  0
    7.9154  -16.8084   25.9119 O   0  0  0  0  0  0  0  0  0  0  0  0
    9.9372  -14.0640   28.0718 C   0  0  0  0  0  0  0  0  0  0  0  0
   10.0204  -14.5128   29.3710 C   0  0  0  0  0  0  0  0  0  0  0  0
    7.1003  -14.8956   25.0736 O   0  0  0  0  0  0  0  0  0  0  0  0
  1  2  1  0
  2  3  2  0
  4  2  1  0
  5  4  1  0
  5  6  1  6
  7  5  1  0
  7  8  2  0
 10 12  1  0
 10  9  1  1
 11 10  1  0
 12 13  1  6
 13  7  1  0
 14 15  2  0
 14 12  1  0
 16 17  1  0
 17 18  2  0
 18 19  1  0
 20 21  1  0
 20 19  2  0
 22 21  1  1
 22 23  1  0
 23 14  1  0
 24 22  1  0
 25 24  1  0
 26 20  1  0
 27 26  2  0
 27 17  1  0
 28 24  2  0
M  END
$$$$
