NVY.pdb
     RDKit          3D

 28 28  0  0  1  0  0  0  0  0999 V2000
    6.1823  -21.1646   19.7687 N   0  0  0  0  0  0  0  0  0  0  0  0
    5.8523  -20.3541   20.8817 C   0  0  0  0  0  0  0  0  0  0  0  0
    5.1517  -20.9245   21.7880 O   0  0  0  0  0  0  0  0  0  0  0  0
    6.2197  -18.9634   21.0997 C   0  0  0  0  0  0  0  0  0  0  0  0
    6.8169  -18.2450   19.9426 C   0  0  2  0  0  0  0  0  0  0  0  0
    7.4682  -19.1000   18.9729 N   0  0  0  0  0  0  0  0  0  0  0  0
    7.6766  -17.1194   20.3869 C   0  0  0  0  0  0  0  0  0  0  0  0
    8.8907  -17.3501   20.7102 O   0  0  0  0  0  0  0  0  0  0  0  0
    8.5349  -12.2926   20.9218 C   0  0  0  0  0  0  0  0  0  0  0  0
    7.5766  -13.3872   20.5218 C   0  0  1  0  0  0  0  0  0  0  0  0
    7.2900  -13.3022   19.0384 C   0  0  0  0  0  0  0  0  0  0  0  0
    8.1425  -14.7042   20.9253 C   0  0  2  0  0  0  0  0  0  0  0  0
    7.2599  -15.7758   20.4908 N   0  0  0  0  0  0  0  0  0  0  0  0
    8.3257  -14.7685   22.4064 C   0  0  0  0  0  0  0  0  0  0  0  0
    7.4333  -14.2976   23.1420 O   0  0  0  0  0  0  0  0  0  0  0  0
    5.6371  -11.3001   27.2859 O   0  0  0  0  0  0  0  0  0  0  0  0
    6.3282  -12.3836   26.7605 C   0  0  0  0  0  0  0  0  0  0  0  0
    7.6920  -12.3421   26.5049 C   0  0  0  0  0  0  0  0  0  0  0  0
    8.3806  -13.4051   25.9876 C   0  0  0  0  0  0  0  0  0  0  0  0
    7.7310  -14.5837   25.6943 C   0  0  0  0  0  0  0  0  0  0  0  0
    8.4215  -15.7581   25.1237 C   0  0  0  0  0  0  0  0  0  0  0  0
    9.6679  -15.3506   24.4005 C   0  0  2  0  0  0  0  0  0  0  0  0
    9.4812  -15.3485   22.9607 N   0  0  0  0  0  0  0  0  0  0  0  0
   10.8718  -16.1062   24.7300 C   0  0  0  0  0  0  0  0  0  0  0  0
   11.5771  -15.8152   25.9039 O   0  0  0  0  0  0  0  0  0  0  0  0
    6.3704  -14.6483   25.9409 C   0  0  0  0  0  0  0  0  0  0  0  0
    5.6879  -13.5716   26.4619 C   0  0  0  0  0  0  0  0  0  0  0  0
   11.3561  -17.0307   24.0332 O   0  0  0  0  0  0  0  0  0  0  0  0
  1  2  1  0
  2  3  2  0
  4  2  1  0
  5  4  1  0
  5  6  1  1
  7  5  1  0
  7  8  2  0
 10 12  1  0
 10  9  1  6
 11 10  1  0
 12 13  1  1
 13  7  1  0
 14 15  2  0
 14 12  1  0
 16 17  1  0
 17 18  2  0
 18 19  1  0
 20 21  1  0
 20 19  2  0
 22 21  1  1
 22 23  1  0
 23 14  1  0
 24 22  1  0
 25 24  1  0
 26 20  1  0
 27 26  2  0
 27 17  1  0
 28 24  2  0
M  END
$$$$
