NVY.pdb
     RDKit          3D

 28 28  0  0  1  0  0  0  0  0999 V2000
   12.7871  -20.2135   17.9280 N   0  0  0  0  0  0  0  0  0  0  0  0
   11.5606  -19.6531   18.3594 C   0  0  0  0  0  0  0  0  0  0  0  0
   10.5114  -20.3062   18.0274 O   0  0  0  0  0  0  0  0  0  0  0  0
   11.3706  -18.4323   19.1276 C   0  0  0  0  0  0  0  0  0  0  0  0
   10.3726  -17.4641   18.6001 C   0  0  2  0  0  0  0  0  0  0  0  0
   10.6492  -16.9810   17.2639 N   0  0  0  0  0  0  0  0  0  0  0  0
   10.1158  -16.3675   19.5671 C   0  0  0  0  0  0  0  0  0  0  0  0
   11.1026  -15.7125   20.0458 O   0  0  0  0  0  0  0  0  0  0  0  0
    7.0184  -13.2940   21.8689 C   0  0  0  0  0  0  0  0  0  0  0  0
    7.2966  -14.2746   20.7564 C   0  0  1  0  0  0  0  0  0  0  0  0
    7.1725  -13.5808   19.4173 C   0  0  0  0  0  0  0  0  0  0  0  0
    8.6380  -14.8857   20.9672 C   0  0  2  0  0  0  0  0  0  0  0  0
    8.8404  -15.9729   20.0220 N   0  0  0  0  0  0  0  0  0  0  0  0
    8.7710  -15.3981   22.3640 C   0  0  0  0  0  0  0  0  0  0  0  0
    8.2621  -16.5023   22.6487 O   0  0  0  0  0  0  0  0  0  0  0  0
   11.0489  -16.3882   30.7940 O   0  0  0  0  0  0  0  0  0  0  0  0
   10.8951  -15.8825   29.5101 C   0  0  0  0  0  0  0  0  0  0  0  0
   11.3692  -16.5473   28.3876 C   0  0  0  0  0  0  0  0  0  0  0  0
   11.2216  -16.0562   27.1192 C   0  0  0  0  0  0  0  0  0  0  0  0
   10.5821  -14.8555   26.9038 C   0  0  0  0  0  0  0  0  0  0  0  0
   10.4052  -14.2724   25.5584 C   0  0  0  0  0  0  0  0  0  0  0  0
    9.5569  -15.1556   24.6965 C   0  0  2  0  0  0  0  0  0  0  0  0
    9.4563  -14.6506   23.3390 N   0  0  0  0  0  0  0  0  0  0  0  0
    8.2202  -15.4469   25.2034 C   0  0  0  0  0  0  0  0  0  0  0  0
    7.1686  -14.5595   24.9449 O   0  0  0  0  0  0  0  0  0  0  0  0
   10.1009  -14.1744   28.0088 C   0  0  0  0  0  0  0  0  0  0  0  0
   10.2553  -14.6788   29.2808 C   0  0  0  0  0  0  0  0  0  0  0  0
    7.9092  -16.4591   25.8772 O   0  0  0  0  0  0  0  0  0  0  0  0
  1  2  1  0
  2  3  2  0
  4  2  1  0
  5  4  1  0
  5  6  1  6
  7  5  1  0
  7  8  2  0
 10 12  1  0
 10  9  1  1
 11 10  1  0
 12 13  1  6
 13  7  1  0
 14 15  2  0
 14 12  1  0
 16 17  1  0
 17 18  2  0
 18 19  1  0
 20 21  1  0
 20 19  2  0
 22 21  1  1
 22 23  1  0
 23 14  1  0
 24 22  1  0
 25 24  1  0
 26 20  1  0
 27 26  2  0
 27 17  1  0
 28 24  2  0
M  END
$$$$
