NVY.pdb
     RDKit          3D

 28 28  0  0  1  0  0  0  0  0999 V2000
   10.0820  -20.5401   17.9011 N   0  0  0  0  0  0  0  0  0  0  0  0
   11.1853  -19.7787   18.3566 C   0  0  0  0  0  0  0  0  0  0  0  0
   12.3369  -20.2279   18.0254 O   0  0  0  0  0  0  0  0  0  0  0  0
   11.1481  -18.5593   19.1492 C   0  0  0  0  0  0  0  0  0  0  0  0
    9.8244  -18.1661   19.7014 C   0  0  2  0  0  0  0  0  0  0  0  0
    8.6943  -18.5227   18.8700 N   0  0  0  0  0  0  0  0  0  0  0  0
    9.8092  -16.7398   20.1126 C   0  0  0  0  0  0  0  0  0  0  0  0
   10.8815  -16.0516   20.0213 O   0  0  0  0  0  0  0  0  0  0  0  0
    7.3527  -12.6766   21.4513 C   0  0  0  0  0  0  0  0  0  0  0  0
    7.3738  -14.0410   20.8073 C   0  0  1  0  0  0  0  0  0  0  0  0
    6.9902  -13.9261   19.3480 C   0  0  0  0  0  0  0  0  0  0  0  0
    8.7165  -14.6539   21.0042 C   0  0  2  0  0  0  0  0  0  0  0  0
    8.6827  -16.0550   20.6140 N   0  0  0  0  0  0  0  0  0  0  0  0
    9.1467  -14.5358   22.4298 C   0  0  0  0  0  0  0  0  0  0  0  0
    8.9446  -13.4596   23.0300 O   0  0  0  0  0  0  0  0  0  0  0  0
   10.5778  -14.8359   30.8042 O   0  0  0  0  0  0  0  0  0  0  0  0
   10.1963  -14.8934   29.4705 C   0  0  0  0  0  0  0  0  0  0  0  0
   10.0116  -13.7534   28.7004 C   0  0  0  0  0  0  0  0  0  0  0  0
    9.6361  -13.8013   27.3857 C   0  0  0  0  0  0  0  0  0  0  0  0
    9.4223  -15.0110   26.7626 C   0  0  0  0  0  0  0  0  0  0  0  0
    9.0045  -15.1216   25.3503 C   0  0  0  0  0  0  0  0  0  0  0  0
   10.1621  -15.4884   24.4739 C   0  0  2  0  0  0  0  0  0  0  0  0
    9.7674  -15.6164   23.0826 N   0  0  0  0  0  0  0  0  0  0  0  0
   10.9134  -16.6736   24.8734 C   0  0  0  0  0  0  0  0  0  0  0  0
   10.4880  -17.9409   24.4573 O   0  0  0  0  0  0  0  0  0  0  0  0
    9.6004  -16.1617   27.5112 C   0  0  0  0  0  0  0  0  0  0  0  0
    9.9787  -16.1009   28.8339 C   0  0  0  0  0  0  0  0  0  0  0  0
   11.9478  -16.6660   25.5841 O   0  0  0  0  0  0  0  0  0  0  0  0
  1  2  1  0
  2  3  2  0
  4  2  1  0
  5  4  1  0
  5  6  1  6
  7  5  1  0
  7  8  2  0
 10 12  1  0
 10  9  1  6
 11 10  1  0
 12 13  1  1
 13  7  1  0
 14 15  2  0
 14 12  1  0
 16 17  1  0
 17 18  2  0
 18 19  1  0
 20 21  1  0
 20 19  2  0
 22 21  1  1
 22 23  1  0
 23 14  1  0
 24 22  1  0
 25 24  1  0
 26 20  1  0
 27 26  2  0
 27 17  1  0
 28 24  2  0
M  END
$$$$
