NVY.pdb
     RDKit          3D

 28 28  0  0  1  0  0  0  0  0999 V2000
   10.5310  -17.7531   14.8776 N   0  0  0  0  0  0  0  0  0  0  0  0
   11.1188  -17.7793   16.1653 C   0  0  0  0  0  0  0  0  0  0  0  0
   12.0543  -18.6378   16.3247 O   0  0  0  0  0  0  0  0  0  0  0  0
   10.7765  -16.9466   17.3081 C   0  0  0  0  0  0  0  0  0  0  0  0
   10.2890  -17.6532   18.5226 C   0  0  2  0  0  0  0  0  0  0  0  0
    9.1393  -18.5052   18.3036 N   0  0  0  0  0  0  0  0  0  0  0  0
   10.1031  -16.7160   19.6586 C   0  0  0  0  0  0  0  0  0  0  0  0
   11.1019  -16.0418   20.0824 O   0  0  0  0  0  0  0  0  0  0  0  0
    7.2171  -14.2992   22.8505 C   0  0  0  0  0  0  0  0  0  0  0  0
    7.3459  -15.1565   21.6154 C   0  0  1  0  0  0  0  0  0  0  0  0
    6.8436  -14.3956   20.4075 C   0  0  0  0  0  0  0  0  0  0  0  0
    8.7608  -15.5977   21.4717 C   0  0  2  0  0  0  0  0  0  0  0  0
    8.8852  -16.4981   20.3360 N   0  0  0  0  0  0  0  0  0  0  0  0
    9.2289  -16.2823   22.7141 C   0  0  0  0  0  0  0  0  0  0  0  0
    9.0290  -17.5090   22.8345 O   0  0  0  0  0  0  0  0  0  0  0  0
    9.8311  -15.0532   31.0121 O   0  0  0  0  0  0  0  0  0  0  0  0
   10.2299  -15.1193   29.6838 C   0  0  0  0  0  0  0  0  0  0  0  0
   10.1206  -14.0380   28.8202 C   0  0  0  0  0  0  0  0  0  0  0  0
   10.5113  -14.0947   27.5104 C   0  0  0  0  0  0  0  0  0  0  0  0
   11.0401  -15.2541   26.9874 C   0  0  0  0  0  0  0  0  0  0  0  0
   11.4670  -15.3754   25.5786 C   0  0  0  0  0  0  0  0  0  0  0  0
   10.5408  -16.2670   24.8107 C   0  0  2  0  0  0  0  0  0  0  0  0
    9.8823  -15.5584   23.7281 N   0  0  0  0  0  0  0  0  0  0  0  0
    9.5411  -16.9788   25.6001 C   0  0  0  0  0  0  0  0  0  0  0  0
    9.8768  -18.1867   26.2233 O   0  0  0  0  0  0  0  0  0  0  0  0
   11.1586  -16.3458   27.8303 C   0  0  0  0  0  0  0  0  0  0  0  0
   10.7619  -16.2767   29.1472 C   0  0  0  0  0  0  0  0  0  0  0  0
    8.3597  -16.5963   25.7817 O   0  0  0  0  0  0  0  0  0  0  0  0
  1  2  1  0
  2  3  2  0
  4  2  1  0
  5  4  1  0
  5  6  1  6
  7  5  1  0
  7  8  2  0
 10 12  1  0
 10  9  1  1
 11 10  1  0
 12 13  1  6
 13  7  1  0
 14 15  2  0
 14 12  1  0
 16 17  1  0
 17 18  2  0
 18 19  1  0
 20 21  1  0
 20 19  2  0
 22 21  1  1
 22 23  1  0
 23 14  1  0
 24 22  1  0
 25 24  1  0
 26 20  1  0
 27 26  2  0
 27 17  1  0
 28 24  2  0
M  END
$$$$
