DFG.pdb
     RDKit          3D

 24 24  0  0  1  0  0  0  0  0999 V2000
    9.7175  -17.9511   21.6107 N   0  0  0  0  0  0  0  0  0  0  0  0
   10.9525  -17.2898   21.9850 C   0  0  1  0  0  0  0  0  0  0  0  0
   11.6312  -16.7099   20.7606 C   0  0  0  0  0  0  0  0  0  0  0  0
   11.8494  -17.7199   19.7143 C   0  0  0  0  0  0  0  0  0  0  0  0
   11.9641  -18.9436   19.9555 O   0  0  0  0  0  0  0  0  0  0  0  0
   10.6752  -16.2229   22.9916 C   0  0  0  0  0  0  0  0  0  0  0  0
   11.5452  -15.4314   23.4067 O   0  0  0  0  0  0  0  0  0  0  0  0
   11.9305  -17.2851   18.4001 O   0  0  0  0  0  0  0  0  0  0  0  0
    9.3784  -16.0689   23.5245 N   0  0  0  0  0  0  0  0  0  0  0  0
    9.0973  -14.9990   24.4814 C   0  0  1  0  0  0  0  0  0  0  0  0
    7.6905  -14.4988   24.3031 C   0  0  0  0  0  0  0  0  0  0  0  0
    7.2355  -13.4668   25.2286 C   0  0  0  0  0  0  0  0  0  0  0  0
    6.1660  -13.6762   26.0944 C   0  0  0  0  0  0  0  0  0  0  0  0
    5.7361  -12.7100   26.9647 C   0  0  0  0  0  0  0  0  0  0  0  0
    6.3568  -11.4742   27.0163 C   0  0  0  0  0  0  0  0  0  0  0  0
    7.4123  -11.2496   26.1708 C   0  0  0  0  0  0  0  0  0  0  0  0
    7.8337  -12.2269   25.3027 C   0  0  0  0  0  0  0  0  0  0  0  0
    9.2648  -15.6101   25.8171 C   0  0  0  0  0  0  0  0  0  0  0  0
    9.0255  -14.9675   26.8999 O   0  0  0  0  0  0  0  0  0  0  0  0
    9.6951  -16.9470   26.0205 N   0  0  0  0  0  0  0  0  0  0  0  0
    9.7943  -17.5288   27.3693 C   0  0  0  0  0  0  0  0  0  0  0  0
   10.5256  -18.8072   27.2779 C   0  0  0  0  0  0  0  0  0  0  0  0
   11.1370  -19.2514   28.2768 O   0  0  0  0  0  0  0  0  0  0  0  0
   10.5521  -19.5306   26.1072 O   0  0  0  0  0  0  0  0  0  0  0  0
  2  1  1  6
  2  3  1  0
  3  4  1  0
  4  8  1  0
  5  4  2  0
  6  9  1  0
  6  2  1  0
  7  6  2  0
 10  9  1  0
 10 18  1  0
 10 11  1  1
 11 12  1  0
 12 17  2  0
 12 13  1  0
 13 14  2  0
 14 15  1  0
 16 15  2  0
 17 16  1  0
 18 20  1  0
 19 18  2  0
 20 21  1  0
 21 22  1  0
 22 23  2  0
 22 24  1  0
M  END
$$$$
