DFG.pdb
     RDKit          3D

 24 24  0  0  1  0  0  0  0  0999 V2000
    7.6266  -17.0110   21.1713 N   0  0  0  0  0  0  0  0  0  0  0  0
    8.7071  -16.0525   21.0434 C   0  0  1  0  0  0  0  0  0  0  0  0
    8.3309  -14.9632   20.0597 C   0  0  0  0  0  0  0  0  0  0  0  0
    8.3405  -15.4413   18.6691 C   0  0  0  0  0  0  0  0  0  0  0  0
    8.6453  -16.6132   18.3488 O   0  0  0  0  0  0  0  0  0  0  0  0
    9.0334  -15.4703   22.3787 C   0  0  0  0  0  0  0  0  0  0  0  0
    9.8540  -14.5448   22.5393 O   0  0  0  0  0  0  0  0  0  0  0  0
    7.9936  -14.5424   17.6719 O   0  0  0  0  0  0  0  0  0  0  0  0
    8.4046  -15.9629   23.5412 N   0  0  0  0  0  0  0  0  0  0  0  0
    8.7203  -15.3891   24.8490 C   0  0  1  0  0  0  0  0  0  0  0  0
    7.4598  -15.1754   25.6406 C   0  0  0  0  0  0  0  0  0  0  0  0
    7.1906  -13.8161   26.0970 C   0  0  0  0  0  0  0  0  0  0  0  0
    5.9242  -13.2465   26.0020 C   0  0  0  0  0  0  0  0  0  0  0  0
    5.6674  -11.9709   26.4295 C   0  0  0  0  0  0  0  0  0  0  0  0
    6.6701  -11.1911   26.9789 C   0  0  0  0  0  0  0  0  0  0  0  0
    7.9243  -11.7354   27.0807 C   0  0  0  0  0  0  0  0  0  0  0  0
    8.1686  -13.0158   26.6482 C   0  0  0  0  0  0  0  0  0  0  0  0
    9.5893  -16.3819   25.5161 C   0  0  0  0  0  0  0  0  0  0  0  0
    9.9452  -16.2674   26.7420 O   0  0  0  0  0  0  0  0  0  0  0  0
   10.0982  -17.5390   24.8713 N   0  0  0  0  0  0  0  0  0  0  0  0
   10.8728  -18.5534   25.6051 C   0  0  0  0  0  0  0  0  0  0  0  0
   11.2144  -19.6478   24.6760 C   0  0  0  0  0  0  0  0  0  0  0  0
   10.9114  -19.5574   23.4640 O   0  0  0  0  0  0  0  0  0  0  0  0
   11.8651  -20.7783   25.1155 O   0  0  0  0  0  0  0  0  0  0  0  0
  2  1  1  1
  2  3  1  0
  3  4  1  0
  4  8  1  0
  5  4  2  0
  6  9  1  0
  6  2  1  0
  7  6  2  0
 10  9  1  0
 10 18  1  0
 10 11  1  1
 11 12  1  0
 12 17  2  0
 12 13  1  0
 13 14  2  0
 14 15  1  0
 16 15  2  0
 17 16  1  0
 18 20  1  0
 19 18  2  0
 20 21  1  0
 21 22  1  0
 22 23  2  0
 22 24  1  0
M  END
$$$$
