DFG.pdb
     RDKit          3D

 24 24  0  0  1  0  0  0  0  0999 V2000
    9.5863  -18.3104   21.3911 N   0  0  0  0  0  0  0  0  0  0  0  0
   10.7082  -17.3919   21.3769 C   0  0  1  0  0  0  0  0  0  0  0  0
   11.0355  -16.9825   19.9552 C   0  0  0  0  0  0  0  0  0  0  0  0
    9.9314  -17.2657   19.0262 C   0  0  0  0  0  0  0  0  0  0  0  0
    9.1101  -18.1952   19.1999 O   0  0  0  0  0  0  0  0  0  0  0  0
   10.3987  -16.1954   22.2143 C   0  0  0  0  0  0  0  0  0  0  0  0
   11.0986  -15.1630   22.2172 O   0  0  0  0  0  0  0  0  0  0  0  0
    9.8028  -16.4579   17.9064 O   0  0  0  0  0  0  0  0  0  0  0  0
    9.2680  -16.1919   23.0576 N   0  0  0  0  0  0  0  0  0  0  0  0
    9.0867  -15.1257   24.0423 C   0  0  1  0  0  0  0  0  0  0  0  0
    7.6633  -14.6413   24.0274 C   0  0  0  0  0  0  0  0  0  0  0  0
    7.2947  -13.6475   25.0299 C   0  0  0  0  0  0  0  0  0  0  0  0
    7.8879  -12.3890   25.0697 C   0  0  0  0  0  0  0  0  0  0  0  0
    7.5445  -11.4533   26.0090 C   0  0  0  0  0  0  0  0  0  0  0  0
    6.5828  -11.7278   26.9656 C   0  0  0  0  0  0  0  0  0  0  0  0
    5.9874  -12.9625   26.9422 C   0  0  0  0  0  0  0  0  0  0  0  0
    6.3408  -13.8919   25.9949 C   0  0  0  0  0  0  0  0  0  0  0  0
    9.4130  -15.7358   25.3489 C   0  0  0  0  0  0  0  0  0  0  0  0
    9.8718  -15.0504   26.3299 O   0  0  0  0  0  0  0  0  0  0  0  0
    9.2461  -17.1156   25.6348 N   0  0  0  0  0  0  0  0  0  0  0  0
   10.3345  -17.9209   26.2131 C   0  0  0  0  0  0  0  0  0  0  0  0
   10.0453  -18.1459   27.6425 C   0  0  0  0  0  0  0  0  0  0  0  0
    8.9732  -17.7282   28.1375 O   0  0  0  0  0  0  0  0  0  0  0  0
   10.9366  -18.8110   28.4536 O   0  0  0  0  0  0  0  0  0  0  0  0
  2  1  1  6
  2  3  1  0
  3  4  1  0
  4  8  1  0
  5  4  2  0
  6  9  1  0
  6  2  1  0
  7  6  2  0
 10  9  1  0
 10 18  1  0
 10 11  1  1
 11 12  1  0
 12 17  2  0
 12 13  1  0
 13 14  2  0
 14 15  1  0
 16 15  2  0
 17 16  1  0
 18 20  1  0
 19 18  2  0
 20 21  1  0
 21 22  1  0
 22 23  2  0
 22 24  1  0
M  END
$$$$
