DFG.pdb
     RDKit          3D

 24 24  0  0  1  0  0  0  0  0999 V2000
    6.4261  -16.5231   19.4816 N   0  0  0  0  0  0  0  0  0  0  0  0
    7.2276  -17.0625   20.5628 C   0  0  1  0  0  0  0  0  0  0  0  0
    8.4096  -17.8320   20.0087 C   0  0  0  0  0  0  0  0  0  0  0  0
    7.9944  -18.9143   19.1038 C   0  0  0  0  0  0  0  0  0  0  0  0
    6.8667  -19.4569   19.1555 O   0  0  0  0  0  0  0  0  0  0  0  0
    7.6868  -15.9591   21.4572 C   0  0  0  0  0  0  0  0  0  0  0  0
    8.2394  -14.9229   21.0368 O   0  0  0  0  0  0  0  0  0  0  0  0
    8.9038  -19.3473   18.1508 O   0  0  0  0  0  0  0  0  0  0  0  0
    7.5053  -16.0538   22.8528 N   0  0  0  0  0  0  0  0  0  0  0  0
    7.8063  -14.9108   23.7142 C   0  0  1  0  0  0  0  0  0  0  0  0
    6.7198  -14.7314   24.7380 C   0  0  0  0  0  0  0  0  0  0  0  0
    6.8566  -13.6039   25.6538 C   0  0  0  0  0  0  0  0  0  0  0  0
    7.9769  -12.7780   25.6401 C   0  0  0  0  0  0  0  0  0  0  0  0
    8.1089  -11.7186   26.4979 C   0  0  0  0  0  0  0  0  0  0  0  0
    7.1209  -11.4261   27.4218 C   0  0  0  0  0  0  0  0  0  0  0  0
    6.0099  -12.2287   27.4502 C   0  0  0  0  0  0  0  0  0  0  0  0
    5.8897  -13.2880   26.5844 C   0  0  0  0  0  0  0  0  0  0  0  0
    9.0892  -15.2392   24.3716 C   0  0  0  0  0  0  0  0  0  0  0  0
    9.7046  -14.4072   25.1278 O   0  0  0  0  0  0  0  0  0  0  0  0
    9.7455  -16.4896   24.2321 N   0  0  0  0  0  0  0  0  0  0  0  0
   11.0170  -16.7742   24.9176 C   0  0  0  0  0  0  0  0  0  0  0  0
   10.7192  -17.3879   26.2261 C   0  0  0  0  0  0  0  0  0  0  0  0
   11.6551  -17.7710   26.9652 O   0  0  0  0  0  0  0  0  0  0  0  0
    9.4225  -17.5512   26.6578 O   0  0  0  0  0  0  0  0  0  0  0  0
  2  1  1  6
  2  3  1  0
  3  4  1  0
  4  8  1  0
  5  4  2  0
  6  9  1  0
  6  2  1  0
  7  6  2  0
 10  9  1  0
 10 18  1  0
 10 11  1  1
 11 12  1  0
 12 17  2  0
 12 13  1  0
 13 14  2  0
 14 15  1  0
 16 15  2  0
 17 16  1  0
 18 20  1  0
 19 18  2  0
 20 21  1  0
 21 22  1  0
 22 23  2  0
 22 24  1  0
M  END
$$$$
