DFG.pdb
     RDKit          3D

 24 24  0  0  1  0  0  0  0  0999 V2000
   10.6815  -16.1873   19.7656 N   0  0  0  0  0  0  0  0  0  0  0  0
    9.5507  -16.6964   20.5171 C   0  0  1  0  0  0  0  0  0  0  0  0
    9.6207  -18.2069   20.6150 C   0  0  0  0  0  0  0  0  0  0  0  0
    9.4027  -18.8597   19.3155 C   0  0  0  0  0  0  0  0  0  0  0  0
    8.5050  -18.5108   18.5147 O   0  0  0  0  0  0  0  0  0  0  0  0
    9.5213  -16.0786   21.8757 C   0  0  0  0  0  0  0  0  0  0  0  0
   10.5370  -15.9397   22.5861 O   0  0  0  0  0  0  0  0  0  0  0  0
   10.2374  -19.9116   18.9701 O   0  0  0  0  0  0  0  0  0  0  0  0
    8.3047  -15.6163   22.4196 N   0  0  0  0  0  0  0  0  0  0  0  0
    8.2787  -14.9932   23.7425 C   0  0  1  0  0  0  0  0  0  0  0  0
    7.2845  -13.8654   23.7662 C   0  0  0  0  0  0  0  0  0  0  0  0
    7.1416  -13.1389   25.0233 C   0  0  0  0  0  0  0  0  0  0  0  0
    6.0324  -13.3072   25.8471 C   0  0  0  0  0  0  0  0  0  0  0  0
    5.8947  -12.6272   27.0280 C   0  0  0  0  0  0  0  0  0  0  0  0
    6.8654  -11.7363   27.4513 C   0  0  0  0  0  0  0  0  0  0  0  0
    7.9654  -11.5574   26.6529 C   0  0  0  0  0  0  0  0  0  0  0  0
    8.0914  -12.2454   25.4709 C   0  0  0  0  0  0  0  0  0  0  0  0
    7.8695  -16.0647   24.6754 C   0  0  0  0  0  0  0  0  0  0  0  0
    6.6480  -16.4304   24.8059 O   0  0  0  0  0  0  0  0  0  0  0  0
    8.7788  -16.7802   25.4969 N   0  0  0  0  0  0  0  0  0  0  0  0
    8.3212  -17.8311   26.4208 C   0  0  0  0  0  0  0  0  0  0  0  0
    9.1241  -17.7538   27.6564 C   0  0  0  0  0  0  0  0  0  0  0  0
    9.6638  -18.7858   28.1178 O   0  0  0  0  0  0  0  0  0  0  0  0
    9.2953  -16.5608   28.3214 O   0  0  0  0  0  0  0  0  0  0  0  0
  2  1  1  1
  2  3  1  0
  3  4  1  0
  4  8  1  0
  5  4  2  0
  6  9  1  0
  6  2  1  0
  7  6  2  0
 10  9  1  0
 10 18  1  0
 10 11  1  6
 11 12  1  0
 12 17  2  0
 12 13  1  0
 13 14  2  0
 14 15  1  0
 16 15  2  0
 17 16  1  0
 18 20  1  0
 19 18  2  0
 20 21  1  0
 21 22  1  0
 22 23  2  0
 22 24  1  0
M  END
$$$$
