DFG.pdb
     RDKit          3D

 24 24  0  0  1  0  0  0  0  0999 V2000
    6.7054  -14.8427   21.2062 N   0  0  0  0  0  0  0  0  0  0  0  0
    7.8978  -15.6543   21.3539 C   0  0  1  0  0  0  0  0  0  0  0  0
    8.8809  -15.3530   20.2408 C   0  0  0  0  0  0  0  0  0  0  0  0
    8.5328  -16.0418   18.9891 C   0  0  0  0  0  0  0  0  0  0  0  0
    7.4581  -16.6638   18.8244 O   0  0  0  0  0  0  0  0  0  0  0  0
    8.5190  -15.4102   22.6892 C   0  0  0  0  0  0  0  0  0  0  0  0
    9.3698  -14.5219   22.8957 O   0  0  0  0  0  0  0  0  0  0  0  0
    9.4462  -15.9940   17.9470 O   0  0  0  0  0  0  0  0  0  0  0  0
    8.1531  -16.2014   23.7981 N   0  0  0  0  0  0  0  0  0  0  0  0
    8.8226  -16.0198   25.0857 C   0  0  1  0  0  0  0  0  0  0  0  0
    7.8288  -15.6014   26.1336 C   0  0  0  0  0  0  0  0  0  0  0  0
    7.4526  -14.1920   26.1600 C   0  0  0  0  0  0  0  0  0  0  0  0
    6.2043  -13.7566   25.7247 C   0  0  0  0  0  0  0  0  0  0  0  0
    5.8474  -12.4345   25.7481 C   0  0  0  0  0  0  0  0  0  0  0  0
    6.7255  -11.4704   26.2113 C   0  0  0  0  0  0  0  0  0  0  0  0
    7.9599  -11.8805   26.6443 C   0  0  0  0  0  0  0  0  0  0  0  0
    8.3056  -13.2094   26.6156 C   0  0  0  0  0  0  0  0  0  0  0  0
    9.4026  -17.3385   25.4183 C   0  0  0  0  0  0  0  0  0  0  0  0
    8.7302  -18.4258   25.3267 O   0  0  0  0  0  0  0  0  0  0  0  0
   10.7394  -17.5198   25.8585 N   0  0  0  0  0  0  0  0  0  0  0  0
   11.1417  -17.2277   27.2442 C   0  0  0  0  0  0  0  0  0  0  0  0
   10.9710  -18.4508   28.0518 C   0  0  0  0  0  0  0  0  0  0  0  0
    9.8849  -19.0742   28.0219 O   0  0  0  0  0  0  0  0  0  0  0  0
   11.9887  -18.9277   28.8464 O   0  0  0  0  0  0  0  0  0  0  0  0
  2  1  1  6
  2  3  1  0
  3  4  1  0
  4  8  1  0
  5  4  2  0
  6  9  1  0
  6  2  1  0
  7  6  2  0
 10  9  1  0
 10 18  1  0
 10 11  1  1
 11 12  1  0
 12 17  2  0
 12 13  1  0
 13 14  2  0
 14 15  1  0
 16 15  2  0
 17 16  1  0
 18 20  1  0
 19 18  2  0
 20 21  1  0
 21 22  1  0
 22 23  2  0
 22 24  1  0
M  END
$$$$
