DFG.pdb
     RDKit          3D

 24 24  0  0  1  0  0  0  0  0999 V2000
    9.5459  -17.4038   17.9930 N   0  0  0  0  0  0  0  0  0  0  0  0
   10.7545  -17.7182   18.7298 C   0  0  1  0  0  0  0  0  0  0  0  0
   11.9395  -17.7962   17.7887 C   0  0  0  0  0  0  0  0  0  0  0  0
   11.7815  -18.8556   16.7813 C   0  0  0  0  0  0  0  0  0  0  0  0
   11.3454  -18.6442   15.6262 O   0  0  0  0  0  0  0  0  0  0  0  0
   10.9869  -16.6932   19.7899 C   0  0  0  0  0  0  0  0  0  0  0  0
   11.7434  -15.7130   19.6394 O   0  0  0  0  0  0  0  0  0  0  0  0
   12.1357  -20.1478   17.1381 O   0  0  0  0  0  0  0  0  0  0  0  0
   10.3382  -16.8020   21.0376 N   0  0  0  0  0  0  0  0  0  0  0  0
   10.5529  -15.7890   22.0705 C   0  0  1  0  0  0  0  0  0  0  0  0
    9.2337  -15.3037   22.6046 C   0  0  0  0  0  0  0  0  0  0  0  0
    8.4030  -14.5200   21.6967 C   0  0  0  0  0  0  0  0  0  0  0  0
    8.7701  -13.2429   21.2826 C   0  0  0  0  0  0  0  0  0  0  0  0
    7.9932  -12.5041   20.4303 C   0  0  0  0  0  0  0  0  0  0  0  0
    6.7992  -13.0064   19.9430 C   0  0  0  0  0  0  0  0  0  0  0  0
    6.4211  -14.2629   20.3398 C   0  0  0  0  0  0  0  0  0  0  0  0
    7.2093  -14.9934   21.1950 C   0  0  0  0  0  0  0  0  0  0  0  0
   11.3249  -16.4669   23.1336 C   0  0  0  0  0  0  0  0  0  0  0  0
   10.8210  -17.3934   23.8619 O   0  0  0  0  0  0  0  0  0  0  0  0
   12.6770  -16.1622   23.4380 N   0  0  0  0  0  0  0  0  0  0  0  0
   13.4063  -16.8697   24.5034 C   0  0  0  0  0  0  0  0  0  0  0  0
   14.8106  -16.4166   24.4934 C   0  0  0  0  0  0  0  0  0  0  0  0
   15.2146  -15.6501   23.5889 O   0  0  0  0  0  0  0  0  0  0  0  0
   15.6968  -16.8217   25.4657 O   0  0  0  0  0  0  0  0  0  0  0  0
  2  1  1  6
  2  3  1  0
  3  4  1  0
  4  8  1  0
  5  4  2  0
  6  9  1  0
  6  2  1  0
  7  6  2  0
 10  9  1  0
 10 18  1  0
 10 11  1  1
 11 12  1  0
 12 17  2  0
 12 13  1  0
 13 14  2  0
 14 15  1  0
 16 15  2  0
 17 16  1  0
 18 20  1  0
 19 18  2  0
 20 21  1  0
 21 22  1  0
 22 23  2  0
 22 24  1  0
M  END
$$$$
