ICN.pdb
     RDKit          3D

 23 22  0  0  1  0  0  0  0  0999 V2000
    7.8978  -15.3067   16.6281 C   0  0  0  0  0  0  0  0  0  0  0  0
    7.7382  -14.1884   17.6001 C   0  0  0  0  0  0  0  0  0  0  0  0
    8.2293  -14.5366   19.0042 C   0  0  2  0  0  0  0  0  0  0  0  0
    7.4219  -15.7429   19.4208 C   0  0  0  0  0  0  0  0  0  0  0  0
    7.9260  -13.3879   19.9525 C   0  0  2  0  0  0  0  0  0  0  0  0
    8.6847  -12.2209   19.5005 N   0  0  0  0  0  0  0  0  0  0  0  0
    8.3089  -13.7080   21.3260 C   0  0  0  0  0  0  0  0  0  0  0  0
    9.5666  -13.8650   21.5623 O   0  0  0  0  0  0  0  0  0  0  0  0
    7.4331  -13.8591   22.4225 N   0  0  0  0  0  0  0  0  0  0  0  0
    7.9584  -14.2423   23.7352 C   0  0  1  0  0  0  0  0  0  0  0  0
    6.9421  -13.8830   24.8004 C   0  0  0  0  0  0  0  0  0  0  0  0
    6.9104  -12.1085   25.0874 S   0  0  0  0  0  0  0  0  0  0  0  0
    8.2305  -15.6937   23.7346 C   0  0  0  0  0  0  0  0  0  0  0  0
    7.5905  -16.4272   22.9045 O   0  0  0  0  0  0  0  0  0  0  0  0
   13.2826  -16.8284   22.1178 N   0  0  0  0  0  0  0  0  0  0  0  0
   12.0167  -17.4284   22.4568 C   0  0  0  0  0  0  0  0  0  0  0  0
   11.8940  -18.6501   22.2606 O   0  0  0  0  0  0  0  0  0  0  0  0
   10.9622  -16.5800   23.0045 C   0  0  0  0  0  0  0  0  0  0  0  0
   10.1685  -17.2714   24.0578 C   0  0  2  0  0  0  0  0  0  0  0  0
    9.1385  -16.3633   24.5655 N   0  0  0  0  0  0  0  0  0  0  0  0
   10.9777  -17.7515   25.1691 C   0  0  0  0  0  0  0  0  0  0  0  0
   11.1679  -19.0182   25.3400 O   0  0  0  0  0  0  0  0  0  0  0  0
   11.5887  -16.9447   26.0982 O   0  0  0  0  0  0  0  0  0  0  0  0
  1  2  1  0
  2  3  1  0
  3  4  1  1
  5  3  1  0
  5  7  1  0
  5  6  1  6
  7  9  1  0
  8  7  2  0
  9 10  1  0
 10 11  1  1
 10 13  1  0
 11 12  1  0
 13 14  2  0
 13 20  1  0
 15 16  1  0
 16 18  1  0
 17 16  2  0
 19 18  1  6
 19 21  1  0
 20 19  1  0
 21 22  2  0
 21 23  1  0
M  END
$$$$
