ICN.pdb
     RDKit          3D

 23 22  0  0  1  0  0  0  0  0999 V2000
    6.6604  -11.6822   27.1635 C   0  0  0  0  0  0  0  0  0  0  0  0
    6.1426  -12.9532   26.5829 C   0  0  0  0  0  0  0  0  0  0  0  0
    7.2252  -13.7891   25.9022 C   0  0  2  0  0  0  0  0  0  0  0  0
    7.7702  -12.9130   24.7994 C   0  0  0  0  0  0  0  0  0  0  0  0
    6.6014  -15.0301   25.2844 C   0  0  2  0  0  0  0  0  0  0  0  0
    6.0492  -15.8421   26.3695 N   0  0  0  0  0  0  0  0  0  0  0  0
    7.5870  -15.8182   24.5476 C   0  0  0  0  0  0  0  0  0  0  0  0
    8.3797  -16.5619   25.2410 O   0  0  0  0  0  0  0  0  0  0  0  0
    7.7535  -15.8467   23.1462 N   0  0  0  0  0  0  0  0  0  0  0  0
    8.6393  -16.8382   22.5314 C   0  0  1  0  0  0  0  0  0  0  0  0
    8.2884  -16.9744   21.0634 C   0  0  0  0  0  0  0  0  0  0  0  0
    6.7180  -17.8239   20.8532 S   0  0  0  0  0  0  0  0  0  0  0  0
   10.0385  -16.3969   22.7000 C   0  0  0  0  0  0  0  0  0  0  0  0
   10.5779  -15.7266   21.7532 O   0  0  0  0  0  0  0  0  0  0  0  0
   14.1730  -16.1898   21.9512 N   0  0  0  0  0  0  0  0  0  0  0  0
   14.1285  -15.4993   23.2156 C   0  0  0  0  0  0  0  0  0  0  0  0
   14.9722  -14.6064   23.4077 O   0  0  0  0  0  0  0  0  0  0  0  0
   13.1087  -15.8812   24.1883 C   0  0  0  0  0  0  0  0  0  0  0  0
   12.2641  -17.0103   23.7100 C   0  0  2  0  0  0  0  0  0  0  0  0
   10.8517  -16.6398   23.8149 N   0  0  0  0  0  0  0  0  0  0  0  0
   12.4920  -18.2510   24.4375 C   0  0  0  0  0  0  0  0  0  0  0  0
   13.2993  -19.1446   23.9691 O   0  0  0  0  0  0  0  0  0  0  0  0
   11.9009  -18.5762   25.6342 O   0  0  0  0  0  0  0  0  0  0  0  0
  1  2  1  0
  2  3  1  0
  3  4  1  6
  5  3  1  0
  5  7  1  0
  5  6  1  1
  7  9  1  0
  8  7  2  0
  9 10  1  0
 10 11  1  6
 10 13  1  0
 11 12  1  0
 13 14  2  0
 13 20  1  0
 15 16  1  0
 16 18  1  0
 17 16  2  0
 19 18  1  1
 19 21  1  0
 20 19  1  0
 21 22  2  0
 21 23  1  0
M  END
$$$$
