ICN.pdb
     RDKit          3D

 23 22  0  0  1  0  0  0  0  0999 V2000
    7.1522  -15.4711   17.4446 C   0  0  0  0  0  0  0  0  0  0  0  0
    7.1828  -14.2759   18.3341 C   0  0  0  0  0  0  0  0  0  0  0  0
    7.7010  -14.5834   19.7380 C   0  0  2  0  0  0  0  0  0  0  0  0
    6.7316  -15.5910   20.3085 C   0  0  0  0  0  0  0  0  0  0  0  0
    7.6598  -13.3230   20.5868 C   0  0  2  0  0  0  0  0  0  0  0  0
    8.5036  -12.3181   19.9387 N   0  0  0  0  0  0  0  0  0  0  0  0
    8.1564  -13.5681   21.9391 C   0  0  0  0  0  0  0  0  0  0  0  0
    9.4038  -13.8708   22.0595 O   0  0  0  0  0  0  0  0  0  0  0  0
    7.4012  -13.5021   23.1297 N   0  0  0  0  0  0  0  0  0  0  0  0
    8.0098  -13.8788   24.4078 C   0  0  1  0  0  0  0  0  0  0  0  0
    7.2775  -13.1751   25.5326 C   0  0  0  0  0  0  0  0  0  0  0  0
    5.5653  -12.8568   25.0859 S   0  0  0  0  0  0  0  0  0  0  0  0
    7.9268  -15.3453   24.5614 C   0  0  0  0  0  0  0  0  0  0  0  0
    7.1540  -15.9917   23.7730 O   0  0  0  0  0  0  0  0  0  0  0  0
   12.5903  -16.9588   22.7373 N   0  0  0  0  0  0  0  0  0  0  0  0
   11.6432  -17.3939   23.7330 C   0  0  0  0  0  0  0  0  0  0  0  0
   11.7955  -18.5341   24.2050 O   0  0  0  0  0  0  0  0  0  0  0  0
   10.5715  -16.4841   24.1272 C   0  0  0  0  0  0  0  0  0  0  0  0
    9.6525  -17.0915   25.1291 C   0  0  2  0  0  0  0  0  0  0  0  0
    8.6244  -16.1174   25.4997 N   0  0  0  0  0  0  0  0  0  0  0  0
   10.3324  -17.5550   26.3305 C   0  0  0  0  0  0  0  0  0  0  0  0
   10.0456  -18.7070   26.8407 O   0  0  0  0  0  0  0  0  0  0  0  0
   11.2982  -16.8481   27.0050 O   0  0  0  0  0  0  0  0  0  0  0  0
  1  2  1  0
  2  3  1  0
  3  4  1  1
  5  3  1  0
  5  7  1  0
  5  6  1  6
  7  9  1  0
  8  7  2  0
  9 10  1  0
 10 11  1  1
 10 13  1  0
 11 12  1  0
 13 14  2  0
 13 20  1  0
 15 16  1  0
 16 18  1  0
 17 16  2  0
 19 18  1  6
 19 21  1  0
 20 19  1  0
 21 22  2  0
 21 23  1  0
M  END
$$$$
