ICN.pdb
     RDKit          3D

 23 22  0  0  1  0  0  0  0  0999 V2000
    6.8439  -11.6091   27.1506 C   0  0  0  0  0  0  0  0  0  0  0  0
    6.2220  -12.8340   26.5730 C   0  0  0  0  0  0  0  0  0  0  0  0
    7.2166  -13.7165   25.8205 C   0  0  2  0  0  0  0  0  0  0  0  0
    7.7224  -12.8642   24.6810 C   0  0  0  0  0  0  0  0  0  0  0  0
    6.4969  -14.9276   25.2496 C   0  0  2  0  0  0  0  0  0  0  0  0
    6.0060  -15.7280   26.3722 N   0  0  0  0  0  0  0  0  0  0  0  0
    7.3872  -15.7456   24.4288 C   0  0  0  0  0  0  0  0  0  0  0  0
    8.1584  -16.5735   25.0470 O   0  0  0  0  0  0  0  0  0  0  0  0
    7.4825  -15.7193   23.0208 N   0  0  0  0  0  0  0  0  0  0  0  0
    8.3148  -16.7017   22.3222 C   0  0  1  0  0  0  0  0  0  0  0  0
    7.8331  -16.8318   20.8912 C   0  0  0  0  0  0  0  0  0  0  0  0
    6.1861  -17.5500   20.8292 S   0  0  0  0  0  0  0  0  0  0  0  0
    9.7209  -16.2525   22.3661 C   0  0  0  0  0  0  0  0  0  0  0  0
    9.9524  -14.9943   22.3698 O   0  0  0  0  0  0  0  0  0  0  0  0
   14.4021  -14.5078   23.2822 N   0  0  0  0  0  0  0  0  0  0  0  0
   13.7852  -15.5336   24.0852 C   0  0  0  0  0  0  0  0  0  0  0  0
   14.4836  -16.0656   24.9657 O   0  0  0  0  0  0  0  0  0  0  0  0
   12.3927  -15.8867   23.8241 C   0  0  0  0  0  0  0  0  0  0  0  0
   12.2171  -16.5652   22.5103 C   0  0  2  0  0  0  0  0  0  0  0  0
   10.8506  -17.0804   22.4077 N   0  0  0  0  0  0  0  0  0  0  0  0
   13.1598  -17.6531   22.2913 C   0  0  0  0  0  0  0  0  0  0  0  0
   12.8514  -18.8627   22.6252 O   0  0  0  0  0  0  0  0  0  0  0  0
   14.4075  -17.5072   21.7349 O   0  0  0  0  0  0  0  0  0  0  0  0
  1  2  1  0
  2  3  1  0
  3  4  1  6
  5  3  1  0
  5  7  1  0
  5  6  1  1
  7  9  1  0
  8  7  2  0
  9 10  1  0
 10 11  1  6
 10 13  1  0
 11 12  1  0
 13 14  2  0
 13 20  1  0
 15 16  1  0
 16 18  1  0
 17 16  2  0
 19 18  1  1
 19 21  1  0
 20 19  1  0
 21 22  2  0
 21 23  1  0
M  END
$$$$
