ICN.pdb
     RDKit          3D

 23 22  0  0  1  0  0  0  0  0999 V2000
    5.8440  -11.0495   26.2400 C   0  0  0  0  0  0  0  0  0  0  0  0
    6.3718  -12.0842   27.1735 C   0  0  0  0  0  0  0  0  0  0  0  0
    7.2458  -13.1292   26.4820 C   0  0  2  0  0  0  0  0  0  0  0  0
    8.1458  -12.3461   25.5560 C   0  0  0  0  0  0  0  0  0  0  0  0
    6.3741  -14.0592   25.6537 C   0  0  2  0  0  0  0  0  0  0  0  0
    5.5934  -14.8832   26.5774 N   0  0  0  0  0  0  0  0  0  0  0  0
    7.1770  -14.9277   24.7956 C   0  0  0  0  0  0  0  0  0  0  0  0
    7.7016  -15.9702   25.3436 O   0  0  0  0  0  0  0  0  0  0  0  0
    7.4318  -14.7371   23.4205 N   0  0  0  0  0  0  0  0  0  0  0  0
    8.1619  -15.7545   22.6604 C   0  0  1  0  0  0  0  0  0  0  0  0
    8.0570  -15.4394   21.1818 C   0  0  0  0  0  0  0  0  0  0  0  0
    6.3591  -15.5907   20.6105 S   0  0  0  0  0  0  0  0  0  0  0  0
    9.5718  -15.7573   23.0998 C   0  0  0  0  0  0  0  0  0  0  0  0
   10.1471  -14.6303   23.2887 O   0  0  0  0  0  0  0  0  0  0  0  0
   10.8527  -19.4122   26.1230 N   0  0  0  0  0  0  0  0  0  0  0  0
   11.5443  -18.1973   25.7722 C   0  0  0  0  0  0  0  0  0  0  0  0
   11.5966  -17.3019   26.6333 O   0  0  0  0  0  0  0  0  0  0  0  0
   12.1376  -18.0863   24.4427 C   0  0  0  0  0  0  0  0  0  0  0  0
   11.7602  -16.8191   23.7578 C   0  0  2  0  0  0  0  0  0  0  0  0
   10.3594  -16.8913   23.3385 N   0  0  0  0  0  0  0  0  0  0  0  0
   12.5938  -16.5161   22.6029 C   0  0  0  0  0  0  0  0  0  0  0  0
   12.0998  -16.5627   21.4098 O   0  0  0  0  0  0  0  0  0  0  0  0
   13.9212  -16.1675   22.6659 O   0  0  0  0  0  0  0  0  0  0  0  0
  1  2  1  0
  2  3  1  0
  3  4  1  6
  5  3  1  0
  5  7  1  0
  5  6  1  1
  7  9  1  0
  8  7  2  0
  9 10  1  0
 10 11  1  6
 10 13  1  0
 11 12  1  0
 13 14  2  0
 13 20  1  0
 15 16  1  0
 16 18  1  0
 17 16  2  0
 19 18  1  6
 19 21  1  0
 20 19  1  0
 21 22  2  0
 21 23  1  0
M  END
$$$$
