ICN.pdb
     RDKit          3D

 23 22  0  0  1  0  0  0  0  0999 V2000
    7.9921  -15.9663   16.8596 C   0  0  0  0  0  0  0  0  0  0  0  0
    7.3451  -15.0986   17.8839 C   0  0  0  0  0  0  0  0  0  0  0  0
    8.1775  -14.9454   19.1558 C   0  0  2  0  0  0  0  0  0  0  0  0
    8.2048  -16.3195   19.7818 C   0  0  0  0  0  0  0  0  0  0  0  0
    7.4861  -13.9827   20.1076 C   0  0  2  0  0  0  0  0  0  0  0  0
    7.4825  -12.6594   19.4828 N   0  0  0  0  0  0  0  0  0  0  0  0
    8.1780  -13.9060   21.3925 C   0  0  0  0  0  0  0  0  0  0  0  0
    9.3205  -13.3088   21.4082 O   0  0  0  0  0  0  0  0  0  0  0  0
    7.7137  -14.4210   22.6220 N   0  0  0  0  0  0  0  0  0  0  0  0
    8.5491  -14.3245   23.8214 C   0  0  1  0  0  0  0  0  0  0  0  0
    7.7126  -13.7908   24.9669 C   0  0  0  0  0  0  0  0  0  0  0  0
    6.0720  -14.5263   24.9630 S   0  0  0  0  0  0  0  0  0  0  0  0
    9.0838  -15.6639   24.1389 C   0  0  0  0  0  0  0  0  0  0  0  0
    8.3250  -16.6766   23.9510 O   0  0  0  0  0  0  0  0  0  0  0  0
   11.7723  -17.8547   22.1068 N   0  0  0  0  0  0  0  0  0  0  0  0
   12.3980  -17.0878   23.1546 C   0  0  0  0  0  0  0  0  0  0  0  0
   13.0776  -16.1042   22.8133 O   0  0  0  0  0  0  0  0  0  0  0  0
   12.2018  -17.5027   24.5407 C   0  0  0  0  0  0  0  0  0  0  0  0
   10.8018  -17.2926   25.0023 C   0  0  2  0  0  0  0  0  0  0  0  0
   10.3646  -15.9453   24.6325 N   0  0  0  0  0  0  0  0  0  0  0  0
   10.6325  -17.4773   26.4368 C   0  0  0  0  0  0  0  0  0  0  0  0
   10.9065  -18.6143   26.9863 O   0  0  0  0  0  0  0  0  0  0  0  0
   10.1877  -16.5085   27.3033 O   0  0  0  0  0  0  0  0  0  0  0  0
  1  2  1  0
  2  3  1  0
  3  4  1  1
  5  3  1  0
  5  7  1  0
  5  6  1  6
  7  9  1  0
  8  7  2  0
  9 10  1  0
 10 11  1  1
 10 13  1  0
 11 12  1  0
 13 14  2  0
 13 20  1  0
 15 16  1  0
 16 18  1  0
 17 16  2  0
 19 18  1  1
 19 21  1  0
 20 19  1  0
 21 22  2  0
 21 23  1  0
M  END
$$$$
