ICN.pdb
     RDKit          3D

 23 22  0  0  1  0  0  0  0  0999 V2000
    6.6325  -11.5160   27.5169 C   0  0  0  0  0  0  0  0  0  0  0  0
    5.9824  -12.6003   26.7280 C   0  0  0  0  0  0  0  0  0  0  0  0
    6.9832  -13.5331   26.0481 C   0  0  2  0  0  0  0  0  0  0  0  0
    7.7641  -12.6557   25.0989 C   0  0  0  0  0  0  0  0  0  0  0  0
    6.2377  -14.5874   25.2461 C   0  0  2  0  0  0  0  0  0  0  0  0
    5.6435  -15.5332   26.1917 N   0  0  0  0  0  0  0  0  0  0  0  0
    7.1316  -15.3084   24.3424 C   0  0  0  0  0  0  0  0  0  0  0  0
    7.7337  -16.3449   24.8172 O   0  0  0  0  0  0  0  0  0  0  0  0
    7.3979  -14.9809   22.9955 N   0  0  0  0  0  0  0  0  0  0  0  0
    8.2907  -15.8242   22.1969 C   0  0  1  0  0  0  0  0  0  0  0  0
    8.2802  -15.3377   20.7617 C   0  0  0  0  0  0  0  0  0  0  0  0
    9.3226  -16.3717   19.7241 S   0  0  0  0  0  0  0  0  0  0  0  0
    9.6508  -15.7527   22.7676 C   0  0  0  0  0  0  0  0  0  0  0  0
   10.1185  -14.6009   23.0698 O   0  0  0  0  0  0  0  0  0  0  0  0
   10.6122  -19.3013   25.5168 N   0  0  0  0  0  0  0  0  0  0  0  0
   11.4903  -18.1600   25.4543 C   0  0  0  0  0  0  0  0  0  0  0  0
   11.5378  -17.4217   26.4536 O   0  0  0  0  0  0  0  0  0  0  0  0
   12.2655  -17.9366   24.2373 C   0  0  0  0  0  0  0  0  0  0  0  0
   11.8622  -16.6902   23.5294 C   0  0  2  0  0  0  0  0  0  0  0  0
   10.4980  -16.8399   23.0197 N   0  0  0  0  0  0  0  0  0  0  0  0
   12.7506  -16.3361   22.4314 C   0  0  0  0  0  0  0  0  0  0  0  0
   12.4803  -16.7111   21.2248 O   0  0  0  0  0  0  0  0  0  0  0  0
   13.9056  -15.6041   22.5644 O   0  0  0  0  0  0  0  0  0  0  0  0
  1  2  1  0
  2  3  1  0
  3  4  1  6
  5  3  1  0
  5  7  1  0
  5  6  1  1
  7  9  1  0
  8  7  2  0
  9 10  1  0
 10 11  1  6
 10 13  1  0
 11 12  1  0
 13 14  2  0
 13 20  1  0
 15 16  1  0
 16 18  1  0
 17 16  2  0
 19 18  1  6
 19 21  1  0
 20 19  1  0
 21 22  2  0
 21 23  1  0
M  END
$$$$
