GVI.pdb
     RDKit          3D

 20 19  0  0  1  0  0  0  0  0999 V2000
   11.8229  -17.9461   19.5574 N   0  0  0  0  0  0  0  0  0  0  0  0
   10.6572  -17.9420   20.3943 C   0  0  0  0  0  0  0  0  0  0  0  0
   10.2886  -16.5316   20.7278 C   0  0  0  0  0  0  0  0  0  0  0  0
   11.1755  -15.6580   20.9131 O   0  0  0  0  0  0  0  0  0  0  0  0
    7.0366  -12.9008   20.9297 C   0  0  0  0  0  0  0  0  0  0  0  0
    7.3966  -14.3241   20.6044 C   0  0  1  0  0  0  0  0  0  0  0  0
    7.7939  -14.3385   19.1210 C   0  0  0  0  0  0  0  0  0  0  0  0
    8.5954  -14.8431   21.3571 C   0  0  2  0  0  0  0  0  0  0  0  0
    8.9396  -16.1563   20.8404 N   0  0  0  0  0  0  0  0  0  0  0  0
    8.4331  -14.9499   22.8068 C   0  0  0  0  0  0  0  0  0  0  0  0
    9.0244  -15.9316   23.3794 O   0  0  0  0  0  0  0  0  0  0  0  0
    6.9661  -11.4907   27.8172 C   0  0  0  0  0  0  0  0  0  0  0  0
    7.6081  -12.6953   27.1875 C   0  0  0  0  0  0  0  0  0  0  0  0
    7.2862  -12.8607   25.7300 C   0  0  2  0  0  0  0  0  0  0  0  0
    5.7764  -13.0025   25.6183 C   0  0  0  0  0  0  0  0  0  0  0  0
    7.9964  -14.0363   25.0917 C   0  0  2  0  0  0  0  0  0  0  0  0
    7.7081  -14.1091   23.6661 N   0  0  0  0  0  0  0  0  0  0  0  0
    7.6938  -15.3076   25.7722 C   0  0  0  0  0  0  0  0  0  0  0  0
    6.7275  -16.0424   25.4544 O   0  0  0  0  0  0  0  0  0  0  0  0
    8.4833  -15.7822   26.8371 O   0  0  0  0  0  0  0  0  0  0  0  0
  1  2  1  0
  3  4  2  0
  3  2  1  0
  6  5  1  1
  6  8  1  0
  7  6  1  0
  8  9  1  6
  9  3  1  0
 10  8  1  0
 10 11  2  0
 13 12  1  0
 14 13  1  0
 14 15  1  1
 16 17  1  6
 16 14  1  0
 17 10  1  0
 18 16  1  0
 19 18  2  0
 20 18  1  0
M  END
$$$$
