GVI.pdb
     RDKit          3D

 20 19  0  0  1  0  0  0  0  0999 V2000
   12.4851  -13.4472   19.7888 N   0  0  0  0  0  0  0  0  0  0  0  0
   11.9026  -14.6634   20.2796 C   0  0  0  0  0  0  0  0  0  0  0  0
   10.5465  -14.3752   20.8402 C   0  0  0  0  0  0  0  0  0  0  0  0
   10.1967  -13.1975   21.1136 O   0  0  0  0  0  0  0  0  0  0  0  0
    5.9653  -15.9715   21.7467 C   0  0  0  0  0  0  0  0  0  0  0  0
    7.3160  -16.0610   21.0919 C   0  0  1  0  0  0  0  0  0  0  0  0
    7.1206  -15.6028   19.6392 C   0  0  0  0  0  0  0  0  0  0  0  0
    8.3483  -15.1335   21.6811 C   0  0  2  0  0  0  0  0  0  0  0  0
    9.6358  -15.4193   21.0724 N   0  0  0  0  0  0  0  0  0  0  0  0
    8.5036  -15.2028   23.1339 C   0  0  0  0  0  0  0  0  0  0  0  0
    9.4932  -15.8876   23.5730 O   0  0  0  0  0  0  0  0  0  0  0  0
    5.9045  -11.5225   26.2117 C   0  0  0  0  0  0  0  0  0  0  0  0
    7.0564  -12.3200   25.6671 C   0  0  0  0  0  0  0  0  0  0  0  0
    7.2353  -13.6557   26.3299 C   0  0  2  0  0  0  0  0  0  0  0  0
    7.8342  -13.3973   27.7035 C   0  0  0  0  0  0  0  0  0  0  0  0
    8.0948  -14.6099   25.5272 C   0  0  2  0  0  0  0  0  0  0  0  0
    7.7041  -14.6104   24.1242 N   0  0  0  0  0  0  0  0  0  0  0  0
    8.0939  -15.9711   26.0913 C   0  0  0  0  0  0  0  0  0  0  0  0
    8.9036  -16.3487   26.9724 O   0  0  0  0  0  0  0  0  0  0  0  0
    7.1697  -16.9456   25.6688 O   0  0  0  0  0  0  0  0  0  0  0  0
  1  2  1  0
  3  4  2  0
  3  2  1  0
  6  5  1  1
  6  8  1  0
  7  6  1  0
  8  9  1  6
  9  3  1  0
 10  8  1  0
 10 11  2  0
 13 12  1  0
 14 13  1  0
 14 15  1  1
 16 17  1  6
 16 14  1  0
 17 10  1  0
 18 16  1  0
 19 18  2  0
 20 18  1  0
M  END
$$$$
