GVI.pdb
     RDKit          3D

 20 19  0  0  1  0  0  0  0  0999 V2000
   11.9760  -17.5446   19.2417 N   0  0  0  0  0  0  0  0  0  0  0  0
   10.9883  -17.8635   20.2326 C   0  0  0  0  0  0  0  0  0  0  0  0
   10.2402  -16.6239   20.6070 C   0  0  0  0  0  0  0  0  0  0  0  0
   10.7529  -15.4858   20.4462 O   0  0  0  0  0  0  0  0  0  0  0  0
    6.8743  -15.5179   19.4747 C   0  0  0  0  0  0  0  0  0  0  0  0
    6.8846  -15.4787   20.9778 C   0  0  1  0  0  0  0  0  0  0  0  0
    6.1968  -16.7695   21.4460 C   0  0  0  0  0  0  0  0  0  0  0  0
    8.2645  -15.5037   21.5847 C   0  0  2  0  0  0  0  0  0  0  0  0
    8.9462  -16.7094   21.1470 N   0  0  0  0  0  0  0  0  0  0  0  0
    8.3128  -15.4556   23.0458 C   0  0  0  0  0  0  0  0  0  0  0  0
    9.0460  -16.3321   23.6247 O   0  0  0  0  0  0  0  0  0  0  0  0
    7.3776  -11.6951   27.9476 C   0  0  0  0  0  0  0  0  0  0  0  0
    7.9052  -12.9646   27.3396 C   0  0  0  0  0  0  0  0  0  0  0  0
    7.4370  -13.2025   25.9326 C   0  0  2  0  0  0  0  0  0  0  0  0
    5.9174  -13.2434   25.9674 C   0  0  0  0  0  0  0  0  0  0  0  0
    8.0061  -14.4652   25.3199 C   0  0  2  0  0  0  0  0  0  0  0  0
    7.6560  -14.5650   23.9098 N   0  0  0  0  0  0  0  0  0  0  0  0
    7.6107  -15.6739   26.0641 C   0  0  0  0  0  0  0  0  0  0  0  0
    6.5955  -16.3537   25.7782 O   0  0  0  0  0  0  0  0  0  0  0  0
    8.3603  -16.1464   27.1583 O   0  0  0  0  0  0  0  0  0  0  0  0
  1  2  1  0
  3  4  2  0
  3  2  1  0
  6  5  1  6
  6  8  1  0
  7  6  1  0
  8  9  1  1
  9  3  1  0
 10  8  1  0
 10 11  2  0
 13 12  1  0
 14 13  1  0
 14 15  1  1
 16 17  1  6
 16 14  1  0
 17 10  1  0
 18 16  1  0
 19 18  2  0
 20 18  1  0
M  END
$$$$
