GVI.pdb
     RDKit          3D

 20 19  0  0  1  0  0  0  0  0999 V2000
    5.7692  -18.8132   20.4411 N   0  0  0  0  0  0  0  0  0  0  0  0
    5.5806  -17.5039   20.9973 C   0  0  0  0  0  0  0  0  0  0  0  0
    6.8904  -16.7832   21.0298 C   0  0  0  0  0  0  0  0  0  0  0  0
    7.9678  -17.3888   20.7918 O   0  0  0  0  0  0  0  0  0  0  0  0
    7.4095  -13.5928   19.2682 C   0  0  0  0  0  0  0  0  0  0  0  0
    8.1174  -13.4468   20.5868 C   0  0  1  0  0  0  0  0  0  0  0  0
    7.2546  -12.5016   21.4354 C   0  0  0  0  0  0  0  0  0  0  0  0
    8.2217  -14.7282   21.3744 C   0  0  2  0  0  0  0  0  0  0  0  0
    6.9407  -15.4113   21.3280 N   0  0  0  0  0  0  0  0  0  0  0  0
    8.6094  -14.5776   22.7768 C   0  0  0  0  0  0  0  0  0  0  0  0
    9.8092  -14.1890   23.0016 O   0  0  0  0  0  0  0  0  0  0  0  0
    5.7667  -11.8030   26.0892 C   0  0  0  0  0  0  0  0  0  0  0  0
    6.8122  -12.5677   25.3263 C   0  0  0  0  0  0  0  0  0  0  0  0
    7.3788  -13.7361   26.0808 C   0  0  2  0  0  0  0  0  0  0  0  0
    8.0421  -13.1821   27.3318 C   0  0  0  0  0  0  0  0  0  0  0  0
    8.3516  -14.5595   25.2626 C   0  0  2  0  0  0  0  0  0  0  0  0
    7.8324  -14.8033   23.9240 N   0  0  0  0  0  0  0  0  0  0  0  0
    8.7247  -15.8153   25.9371 C   0  0  0  0  0  0  0  0  0  0  0  0
    8.1275  -16.9017   25.7426 O   0  0  0  0  0  0  0  0  0  0  0  0
    9.7907  -15.8728   26.8550 O   0  0  0  0  0  0  0  0  0  0  0  0
  1  2  1  0
  3  4  2  0
  3  2  1  0
  6  5  1  6
  6  8  1  0
  7  6  1  0
  8  9  1  1
  9  3  1  0
 10  8  1  0
 10 11  2  0
 13 12  1  0
 14 13  1  0
 14 15  1  1
 16 17  1  6
 16 14  1  0
 17 10  1  0
 18 16  1  0
 19 18  2  0
 20 18  1  0
M  END
$$$$
