GVI.pdb
     RDKit          3D

 20 19  0  0  1  0  0  0  0  0999 V2000
    6.3410  -20.0132   23.1947 N   0  0  0  0  0  0  0  0  0  0  0  0
    6.0594  -18.6280   23.4416 C   0  0  0  0  0  0  0  0  0  0  0  0
    7.2157  -17.7960   22.9867 C   0  0  0  0  0  0  0  0  0  0  0  0
    8.3853  -18.2608   22.9839 O   0  0  0  0  0  0  0  0  0  0  0  0
    7.1137  -15.3028   19.9314 C   0  0  0  0  0  0  0  0  0  0  0  0
    7.7396  -14.6654   21.1410 C   0  0  1  0  0  0  0  0  0  0  0  0
    6.6499  -13.7910   21.7783 C   0  0  0  0  0  0  0  0  0  0  0  0
    8.1567  -15.6463   22.2072 C   0  0  2  0  0  0  0  0  0  0  0  0
    7.0149  -16.4751   22.5528 N   0  0  0  0  0  0  0  0  0  0  0  0
    8.6826  -15.0558   23.4377 C   0  0  0  0  0  0  0  0  0  0  0  0
    9.3545  -13.9723   23.3124 O   0  0  0  0  0  0  0  0  0  0  0  0
    6.9076  -11.5443   27.2339 C   0  0  0  0  0  0  0  0  0  0  0  0
    7.9606  -12.6109   27.1192 C   0  0  0  0  0  0  0  0  0  0  0  0
    7.7313  -13.5689   25.9855 C   0  0  2  0  0  0  0  0  0  0  0  0
    6.3409  -14.1561   26.1698 C   0  0  0  0  0  0  0  0  0  0  0  0
    8.7805  -14.6580   25.9031 C   0  0  2  0  0  0  0  0  0  0  0  0
    8.5467  -15.5225   24.7547 N   0  0  0  0  0  0  0  0  0  0  0  0
    8.8813  -15.4315   27.1531 C   0  0  0  0  0  0  0  0  0  0  0  0
    9.1263  -14.9068   28.2663 O   0  0  0  0  0  0  0  0  0  0  0  0
    8.7060  -16.8284   27.1740 O   0  0  0  0  0  0  0  0  0  0  0  0
  1  2  1  0
  3  4  2  0
  3  2  1  0
  6  5  1  6
  6  8  1  0
  7  6  1  0
  8  9  1  1
  9  3  1  0
 10  8  1  0
 10 11  2  0
 13 12  1  0
 14 13  1  0
 14 15  1  1
 16 17  1  6
 16 14  1  0
 17 10  1  0
 18 16  1  0
 19 18  2  0
 20 18  1  0
M  END
$$$$
