GVI.pdb
     RDKit          3D

 20 19  0  0  1  0  0  0  0  0999 V2000
   10.8728  -14.8692   18.7227 N   0  0  0  0  0  0  0  0  0  0  0  0
   11.0986  -15.5930   19.9410 C   0  0  0  0  0  0  0  0  0  0  0  0
    9.8399  -15.6141   20.7482 C   0  0  0  0  0  0  0  0  0  0  0  0
    9.0430  -14.6401   20.7291 O   0  0  0  0  0  0  0  0  0  0  0  0
    6.5416  -18.2368   23.2980 C   0  0  0  0  0  0  0  0  0  0  0  0
    7.7440  -18.0995   22.4055 C   0  0  1  0  0  0  0  0  0  0  0  0
    7.2548  -18.3868   20.9784 C   0  0  0  0  0  0  0  0  0  0  0  0
    8.3279  -16.7100   22.3690 C   0  0  2  0  0  0  0  0  0  0  0  0
    9.5243  -16.7268   21.5454 N   0  0  0  0  0  0  0  0  0  0  0  0
    8.6753  -16.1367   23.6690 C   0  0  0  0  0  0  0  0  0  0  0  0
    9.8446  -16.4031   24.1194 O   0  0  0  0  0  0  0  0  0  0  0  0
    5.9611  -11.8644   25.7792 C   0  0  0  0  0  0  0  0  0  0  0  0
    7.0430  -12.8010   25.3190 C   0  0  0  0  0  0  0  0  0  0  0  0
    7.4725  -13.7904   26.3640 C   0  0  2  0  0  0  0  0  0  0  0  0
    8.1905  -13.0085   27.4527 C   0  0  0  0  0  0  0  0  0  0  0  0
    8.3488  -14.8965   25.8142 C   0  0  2  0  0  0  0  0  0  0  0  0
    7.8894  -15.3217   24.4992 N   0  0  0  0  0  0  0  0  0  0  0  0
    8.4607  -16.0341   26.7439 C   0  0  0  0  0  0  0  0  0  0  0  0
    7.6099  -16.9542   26.8072 O   0  0  0  0  0  0  0  0  0  0  0  0
    9.5465  -16.1591   27.6315 O   0  0  0  0  0  0  0  0  0  0  0  0
  1  2  1  0
  3  4  2  0
  3  2  1  0
  6  5  1  1
  6  8  1  0
  7  6  1  0
  8  9  1  6
  9  3  1  0
 10  8  1  0
 10 11  2  0
 13 12  1  0
 14 13  1  0
 14 15  1  1
 16 17  1  6
 16 14  1  0
 17 10  1  0
 18 16  1  0
 19 18  2  0
 20 18  1  0
M  END
$$$$
