GVI.pdb
     RDKit          3D

 20 19  0  0  1  0  0  0  0  0999 V2000
    5.3918  -19.1689   21.8371 N   0  0  0  0  0  0  0  0  0  0  0  0
    5.3179  -17.7744   22.1677 C   0  0  0  0  0  0  0  0  0  0  0  0
    6.6641  -17.1483   21.9890 C   0  0  0  0  0  0  0  0  0  0  0  0
    7.6951  -17.8581   21.8570 O   0  0  0  0  0  0  0  0  0  0  0  0
    7.1924  -14.2953   19.6212 C   0  0  0  0  0  0  0  0  0  0  0  0
    8.0179  -14.0026   20.8435 C   0  0  1  0  0  0  0  0  0  0  0  0
    7.2854  -12.8842   21.5990 C   0  0  0  0  0  0  0  0  0  0  0  0
    8.1174  -15.1558   21.8095 C   0  0  2  0  0  0  0  0  0  0  0  0
    6.8013  -15.7504   21.9653 N   0  0  0  0  0  0  0  0  0  0  0  0
    8.6297  -14.8238   23.1387 C   0  0  0  0  0  0  0  0  0  0  0  0
    9.8341  -14.3914   23.1977 O   0  0  0  0  0  0  0  0  0  0  0  0
    6.1771  -11.5749   26.2647 C   0  0  0  0  0  0  0  0  0  0  0  0
    7.1559  -12.4564   25.5403 C   0  0  0  0  0  0  0  0  0  0  0  0
    7.7327  -13.5496   26.3931 C   0  0  2  0  0  0  0  0  0  0  0  0
    8.5084  -12.8794   27.5161 C   0  0  0  0  0  0  0  0  0  0  0  0
    8.6096  -14.5111   25.6183 C   0  0  2  0  0  0  0  0  0  0  0  0
    7.9692  -14.9150   24.3742 N   0  0  0  0  0  0  0  0  0  0  0  0
    9.0094  -15.6767   26.4262 C   0  0  0  0  0  0  0  0  0  0  0  0
    9.8363  -15.6073   27.3674 O   0  0  0  0  0  0  0  0  0  0  0  0
    8.4791  -16.9588   26.1868 O   0  0  0  0  0  0  0  0  0  0  0  0
  1  2  1  0
  3  4  2  0
  3  2  1  0
  6  5  1  6
  6  8  1  0
  7  6  1  0
  8  9  1  1
  9  3  1  0
 10  8  1  0
 10 11  2  0
 13 12  1  0
 14 13  1  0
 14 15  1  1
 16 17  1  6
 16 14  1  0
 17 10  1  0
 18 16  1  0
 19 18  2  0
 20 18  1  0
M  END
$$$$
