GVI.pdb
     RDKit          3D

 20 19  0  0  1  0  0  0  0  0999 V2000
    2.4734  -18.7312   21.2407 N   0  0  0  0  0  0  0  0  0  0  0  0
    3.3381  -17.5990   21.4131 C   0  0  0  0  0  0  0  0  0  0  0  0
    4.3270  -17.8881   22.4970 C   0  0  0  0  0  0  0  0  0  0  0  0
    3.9573  -18.3781   23.5958 O   0  0  0  0  0  0  0  0  0  0  0  0
    8.7153  -19.2370   23.8828 C   0  0  0  0  0  0  0  0  0  0  0  0
    7.6515  -18.8917   22.8778 C   0  0  1  0  0  0  0  0  0  0  0  0
    6.8678  -20.1869   22.6195 C   0  0  0  0  0  0  0  0  0  0  0  0
    6.6395  -17.8896   23.3724 C   0  0  2  0  0  0  0  0  0  0  0  0
    5.6919  -17.6163   22.3060 N   0  0  0  0  0  0  0  0  0  0  0  0
    7.1874  -16.6148   23.8354 C   0  0  0  0  0  0  0  0  0  0  0  0
    7.6763  -15.8412   22.9390 O   0  0  0  0  0  0  0  0  0  0  0  0
    5.3129  -12.3902   26.2596 C   0  0  0  0  0  0  0  0  0  0  0  0
    6.1848  -13.3252   25.4688 C   0  0  0  0  0  0  0  0  0  0  0  0
    7.2935  -13.9435   26.2712 C   0  0  2  0  0  0  0  0  0  0  0  0
    8.1879  -12.8097   26.7472 C   0  0  0  0  0  0  0  0  0  0  0  0
    8.0841  -14.9785   25.4982 C   0  0  2  0  0  0  0  0  0  0  0  0
    7.2486  -16.1186   25.1473 N   0  0  0  0  0  0  0  0  0  0  0  0
    9.3025  -15.3980   26.2125 C   0  0  0  0  0  0  0  0  0  0  0  0
    9.3059  -16.2850   27.1001 O   0  0  0  0  0  0  0  0  0  0  0  0
   10.5565  -14.8196   25.9379 O   0  0  0  0  0  0  0  0  0  0  0  0
  1  2  1  0
  3  4  2  0
  3  2  1  0
  6  5  1  1
  6  8  1  0
  7  6  1  0
  8  9  1  6
  9  3  1  0
 10  8  1  0
 10 11  2  0
 13 12  1  0
 14 13  1  0
 14 15  1  6
 16 17  1  1
 16 14  1  0
 17 10  1  0
 18 16  1  0
 19 18  2  0
 20 18  1  0
M  END
$$$$
