KGL.pdb
     RDKit          3D

 22 21  0  0  1  0  0  0  0  0999 V2000
    7.8537  -16.0914   18.9302 N   0  0  0  0  0  0  0  0  0  0  0  0
    7.8303  -14.8461   19.6417 C   0  0  1  0  0  0  0  0  0  0  0  0
    7.0238  -13.8252   18.9399 C   0  0  0  0  0  0  0  0  0  0  0  0
    7.2578  -13.7812   17.4760 C   0  0  0  0  0  0  0  0  0  0  0  0
    8.6715  -13.9389   17.0064 C   0  0  0  0  0  0  0  0  0  0  0  0
    8.7571  -13.7572   15.4878 C   0  0  0  0  0  0  0  0  0  0  0  0
   10.1275  -13.8817   15.0388 N   0  0  0  0  0  0  0  0  0  0  0  0
    7.4407  -15.0222   21.0683 C   0  0  0  0  0  0  0  0  0  0  0  0
    7.3300  -13.9957   21.7782 O   0  0  0  0  0  0  0  0  0  0  0  0
    7.1925  -16.2946   21.6495 N   0  0  0  0  0  0  0  0  0  0  0  0
    6.9327  -16.4918   23.0498 C   0  0  0  0  0  0  0  0  0  0  0  0
    7.9601  -15.8454   23.9172 C   0  0  0  0  0  0  0  0  0  0  0  0
    9.1617  -15.8360   23.5447 O   0  0  0  0  0  0  0  0  0  0  0  0
    6.0579  -11.6563   26.8103 C   0  0  0  0  0  0  0  0  0  0  0  0
    6.8094  -12.6561   26.0012 C   0  0  1  0  0  0  0  0  0  0  0  0
    7.4959  -11.8749   24.8698 C   0  0  0  0  0  0  0  0  0  0  0  0
    7.8598  -13.4251   26.6991 C   0  0  0  0  0  0  0  0  0  0  0  0
    8.4335  -14.6044   25.9997 C   0  0  2  0  0  0  0  0  0  0  0  0
    7.5127  -15.2719   25.1281 N   0  0  0  0  0  0  0  0  0  0  0  0
    9.1071  -15.5847   26.8919 C   0  0  0  0  0  0  0  0  0  0  0  0
   10.2565  -15.2961   27.6104 O   0  0  0  0  0  0  0  0  0  0  0  0
    8.6471  -16.7622   27.0383 O   0  0  0  0  0  0  0  0  0  0  0  0
  2  1  1  6
  2  3  1  0
  4  3  1  0
  5  4  1  0
  6  5  1  0
  7  6  1  0
  8  9  2  0
  8  2  1  0
 10  8  1  0
 11 12  1  0
 11 10  1  0
 12 19  1  0
 13 12  2  0
 15 14  1  1
 15 16  1  0
 17 15  1  0
 18 17  1  1
 18 20  1  0
 19 18  1  0
 20 22  2  0
 20 21  1  0
M  END
$$$$
