KGL.pdb
     RDKit          3D

 22 21  0  0  1  0  0  0  0  0999 V2000
   10.4774  -18.3302   19.9442 N   0  0  0  0  0  0  0  0  0  0  0  0
    9.2732  -17.5844   19.7180 C   0  0  1  0  0  0  0  0  0  0  0  0
    8.3658  -18.2745   18.7768 C   0  0  0  0  0  0  0  0  0  0  0  0
    9.0624  -18.9067   17.6301 C   0  0  0  0  0  0  0  0  0  0  0  0
    8.2946  -19.0305   16.3499 C   0  0  0  0  0  0  0  0  0  0  0  0
    9.1109  -19.7978   15.3053 C   0  0  0  0  0  0  0  0  0  0  0  0
    8.3571  -19.9409   14.0780 N   0  0  0  0  0  0  0  0  0  0  0  0
    8.6088  -17.1918   20.9917 C   0  0  0  0  0  0  0  0  0  0  0  0
    8.7178  -17.9629   21.9733 O   0  0  0  0  0  0  0  0  0  0  0  0
    7.8643  -15.9904   21.1358 N   0  0  0  0  0  0  0  0  0  0  0  0
    7.1704  -15.6251   22.3409 C   0  0  0  0  0  0  0  0  0  0  0  0
    8.1017  -15.2451   23.4428 C   0  0  0  0  0  0  0  0  0  0  0  0
    9.3428  -15.2870   23.2409 O   0  0  0  0  0  0  0  0  0  0  0  0
    5.8134  -11.6974   27.0212 C   0  0  0  0  0  0  0  0  0  0  0  0
    6.6415  -12.4862   26.0668 C   0  0  1  0  0  0  0  0  0  0  0  0
    7.4244  -11.4678   25.2233 C   0  0  0  0  0  0  0  0  0  0  0  0
    7.6279  -13.4174   26.6514 C   0  0  0  0  0  0  0  0  0  0  0  0
    8.3401  -14.3394   25.7283 C   0  0  2  0  0  0  0  0  0  0  0  0
    7.5223  -14.8536   24.6701 N   0  0  0  0  0  0  0  0  0  0  0  0
    9.0725  -15.4442   26.4018 C   0  0  0  0  0  0  0  0  0  0  0  0
   10.1488  -15.2383   27.2503 O   0  0  0  0  0  0  0  0  0  0  0  0
    8.7358  -16.6585   26.2238 O   0  0  0  0  0  0  0  0  0  0  0  0
  2  1  1  1
  2  3  1  0
  4  3  1  0
  5  4  1  0
  6  5  1  0
  7  6  1  0
  8  9  2  0
  8  2  1  0
 10  8  1  0
 11 12  1  0
 11 10  1  0
 12 19  1  0
 13 12  2  0
 15 14  1  1
 15 16  1  0
 17 15  1  0
 18 17  1  1
 18 20  1  0
 19 18  1  0
 20 22  2  0
 20 21  1  0
M  END
$$$$
