KGL.pdb
     RDKit          3D

 22 21  0  0  1  0  0  0  0  0999 V2000
    6.9102  -15.2286   20.3775 N   0  0  0  0  0  0  0  0  0  0  0  0
    8.1505  -15.1076   19.6671 C   0  0  1  0  0  0  0  0  0  0  0  0
    8.2025  -13.8737   18.8546 C   0  0  0  0  0  0  0  0  0  0  0  0
    7.7461  -14.0595   17.4557 C   0  0  0  0  0  0  0  0  0  0  0  0
    8.6995  -13.6660   16.3694 C   0  0  0  0  0  0  0  0  0  0  0  0
    8.0488  -13.8405   14.9937 C   0  0  0  0  0  0  0  0  0  0  0  0
    8.8757  -13.2494   13.9632 N   0  0  0  0  0  0  0  0  0  0  0  0
    9.3286  -15.2695   20.5635 C   0  0  0  0  0  0  0  0  0  0  0  0
   10.4592  -15.3781   20.0343 O   0  0  0  0  0  0  0  0  0  0  0  0
    9.2221  -15.3053   21.9798 N   0  0  0  0  0  0  0  0  0  0  0  0
   10.3517  -15.4428   22.8585 C   0  0  0  0  0  0  0  0  0  0  0  0
    9.9679  -15.3630   24.2980 C   0  0  0  0  0  0  0  0  0  0  0  0
   10.8677  -15.3901   25.1769 O   0  0  0  0  0  0  0  0  0  0  0  0
    5.6139  -12.3869   25.7358 C   0  0  0  0  0  0  0  0  0  0  0  0
    6.9120  -13.1151   25.6769 C   0  0  1  0  0  0  0  0  0  0  0  0
    7.9142  -12.2877   26.4970 C   0  0  0  0  0  0  0  0  0  0  0  0
    6.9319  -14.4879   26.2218 C   0  0  0  0  0  0  0  0  0  0  0  0
    8.1307  -15.3230   25.9486 C   0  0  2  0  0  0  0  0  0  0  0  0
    8.5902  -15.2598   24.5929 N   0  0  0  0  0  0  0  0  0  0  0  0
    8.0124  -16.7376   26.3909 C   0  0  0  0  0  0  0  0  0  0  0  0
    8.1573  -17.8178   25.5350 O   0  0  0  0  0  0  0  0  0  0  0  0
    7.7656  -17.0264   27.6055 O   0  0  0  0  0  0  0  0  0  0  0  0
  2  1  1  1
  2  3  1  0
  4  3  1  0
  5  4  1  0
  6  5  1  0
  7  6  1  0
  8  9  2  0
  8  2  1  0
 10  8  1  0
 11 12  1  0
 11 10  1  0
 12 19  1  0
 13 12  2  0
 15 14  1  1
 15 16  1  0
 17 15  1  0
 18 17  1  6
 18 20  1  0
 19 18  1  0
 20 22  2  0
 20 21  1  0
M  END
$$$$
