KGL.pdb
     RDKit          3D

 22 21  0  0  1  0  0  0  0  0999 V2000
    6.7678  -16.8716   22.4567 N   0  0  0  0  0  0  0  0  0  0  0  0
    7.7318  -17.1325   21.4270 C   0  0  1  0  0  0  0  0  0  0  0  0
    7.3932  -16.4391   20.1661 C   0  0  0  0  0  0  0  0  0  0  0  0
    7.5901  -14.9701   20.2204 C   0  0  0  0  0  0  0  0  0  0  0  0
    7.8413  -14.2672   18.9217 C   0  0  0  0  0  0  0  0  0  0  0  0
    8.1144  -12.7789   19.1598 C   0  0  0  0  0  0  0  0  0  0  0  0
    8.4050  -12.1104   17.9093 N   0  0  0  0  0  0  0  0  0  0  0  0
    9.1251  -16.8719   21.8838 C   0  0  0  0  0  0  0  0  0  0  0  0
   10.0152  -16.7436   21.0112 O   0  0  0  0  0  0  0  0  0  0  0  0
    9.4807  -16.7641   23.2550 N   0  0  0  0  0  0  0  0  0  0  0  0
   10.7595  -16.2896   23.7095 C   0  0  0  0  0  0  0  0  0  0  0  0
   10.6758  -15.5992   25.0294 C   0  0  0  0  0  0  0  0  0  0  0  0
   11.6954  -15.0215   25.4871 O   0  0  0  0  0  0  0  0  0  0  0  0
    6.0127  -13.1474   26.5229 C   0  0  0  0  0  0  0  0  0  0  0  0
    7.4024  -13.6285   26.2858 C   0  0  1  0  0  0  0  0  0  0  0  0
    8.2876  -12.3759   26.1905 C   0  0  0  0  0  0  0  0  0  0  0  0
    7.9921  -14.5007   27.3218 C   0  0  0  0  0  0  0  0  0  0  0  0
    9.3089  -15.1260   27.0316 C   0  0  2  0  0  0  0  0  0  0  0  0
    9.4323  -15.6366   25.6985 N   0  0  0  0  0  0  0  0  0  0  0  0
    9.7386  -16.1494   28.0211 C   0  0  0  0  0  0  0  0  0  0  0  0
   10.0549  -15.8508   29.3369 O   0  0  0  0  0  0  0  0  0  0  0  0
    9.8382  -17.3755   27.6952 O   0  0  0  0  0  0  0  0  0  0  0  0
  2  1  1  1
  2  3  1  0
  4  3  1  0
  5  4  1  0
  6  5  1  0
  7  6  1  0
  8  9  2  0
  8  2  1  0
 10  8  1  0
 11 12  1  0
 11 10  1  0
 12 19  1  0
 13 12  2  0
 15 14  1  1
 15 16  1  0
 17 15  1  0
 18 17  1  1
 18 20  1  0
 19 18  1  0
 20 22  2  0
 20 21  1  0
M  END
$$$$
