KGL.pdb
     RDKit          3D

 22 21  0  0  1  0  0  0  0  0999 V2000
    9.0322  -15.8102   19.2803 N   0  0  0  0  0  0  0  0  0  0  0  0
    8.5659  -14.6484   19.9805 C   0  0  1  0  0  0  0  0  0  0  0  0
    7.4572  -13.9815   19.2652 C   0  0  0  0  0  0  0  0  0  0  0  0
    7.8532  -13.3976   17.9606 C   0  0  0  0  0  0  0  0  0  0  0  0
    7.6763  -14.2573   16.7468 C   0  0  0  0  0  0  0  0  0  0  0  0
    8.1233  -13.5084   15.4876 C   0  0  0  0  0  0  0  0  0  0  0  0
    7.9065  -14.3218   14.3101 N   0  0  0  0  0  0  0  0  0  0  0  0
    8.2517  -14.9411   21.4065 C   0  0  0  0  0  0  0  0  0  0  0  0
    7.7442  -14.0263   22.0961 O   0  0  0  0  0  0  0  0  0  0  0  0
    8.5021  -16.2031   22.0090 N   0  0  0  0  0  0  0  0  0  0  0  0
    8.0008  -16.5796   23.3028 C   0  0  0  0  0  0  0  0  0  0  0  0
    8.6633  -15.8321   24.4111 C   0  0  0  0  0  0  0  0  0  0  0  0
    9.9018  -15.6186   24.3546 O   0  0  0  0  0  0  0  0  0  0  0  0
    5.6558  -11.8630   26.6773 C   0  0  0  0  0  0  0  0  0  0  0  0
    6.6601  -12.8078   26.1137 C   0  0  1  0  0  0  0  0  0  0  0  0
    7.6469  -11.9595   25.2964 C   0  0  0  0  0  0  0  0  0  0  0  0
    7.4560  -13.5904   27.0812 C   0  0  0  0  0  0  0  0  0  0  0  0
    8.3909  -14.6121   26.5414 C   0  0  2  0  0  0  0  0  0  0  0  0
    7.8437  -15.4008   25.4777 N   0  0  0  0  0  0  0  0  0  0  0  0
    9.0108  -15.4877   27.5708 C   0  0  0  0  0  0  0  0  0  0  0  0
    8.9926  -16.8719   27.5043 O   0  0  0  0  0  0  0  0  0  0  0  0
    9.5996  -14.9927   28.5846 O   0  0  0  0  0  0  0  0  0  0  0  0
  2  1  1  6
  2  3  1  0
  4  3  1  0
  5  4  1  0
  6  5  1  0
  7  6  1  0
  8  9  2  0
  8  2  1  0
 10  8  1  0
 11 12  1  0
 11 10  1  0
 12 19  1  0
 13 12  2  0
 15 14  1  1
 15 16  1  0
 17 15  1  0
 18 17  1  1
 18 20  1  0
 19 18  1  0
 20 22  2  0
 20 21  1  0
M  END
$$$$
