KGL.pdb
     RDKit          3D

 22 21  0  0  1  0  0  0  0  0999 V2000
    7.4381  -16.0352   20.2643 N   0  0  0  0  0  0  0  0  0  0  0  0
    8.5426  -15.1337   20.1060 C   0  0  1  0  0  0  0  0  0  0  0  0
    8.0922  -13.7533   19.8291 C   0  0  0  0  0  0  0  0  0  0  0  0
    7.3605  -13.6091   18.5470 C   0  0  0  0  0  0  0  0  0  0  0  0
    8.1823  -13.5442   17.2963 C   0  0  0  0  0  0  0  0  0  0  0  0
    7.2885  -13.2930   16.0780 C   0  0  0  0  0  0  0  0  0  0  0  0
    8.0822  -13.2432   14.8686 N   0  0  0  0  0  0  0  0  0  0  0  0
    9.5046  -15.2204   21.2395 C   0  0  0  0  0  0  0  0  0  0  0  0
   10.3886  -14.3369   21.3288 O   0  0  0  0  0  0  0  0  0  0  0  0
    9.4598  -16.2543   22.2128 N   0  0  0  0  0  0  0  0  0  0  0  0
   10.5297  -16.5252   23.1344 C   0  0  0  0  0  0  0  0  0  0  0  0
   10.1845  -16.1486   24.5361 C   0  0  0  0  0  0  0  0  0  0  0  0
   11.0682  -16.2236   25.4284 O   0  0  0  0  0  0  0  0  0  0  0  0
    5.9041  -12.5777   25.6803 C   0  0  0  0  0  0  0  0  0  0  0  0
    7.1894  -13.3306   25.6789 C   0  0  1  0  0  0  0  0  0  0  0  0
    8.1682  -12.5252   26.5477 C   0  0  0  0  0  0  0  0  0  0  0  0
    7.1577  -14.7052   26.2188 C   0  0  0  0  0  0  0  0  0  0  0  0
    8.4005  -15.5147   26.1225 C   0  0  2  0  0  0  0  0  0  0  0  0
    8.8602  -15.7223   24.7814 N   0  0  0  0  0  0  0  0  0  0  0  0
    8.3570  -16.8041   26.8616 C   0  0  0  0  0  0  0  0  0  0  0  0
    8.7959  -16.9481   28.1683 O   0  0  0  0  0  0  0  0  0  0  0  0
    7.9042  -17.8594   26.3131 O   0  0  0  0  0  0  0  0  0  0  0  0
  2  1  1  1
  2  3  1  0
  4  3  1  0
  5  4  1  0
  6  5  1  0
  7  6  1  0
  8  9  2  0
  8  2  1  0
 10  8  1  0
 11 12  1  0
 11 10  1  0
 12 19  1  0
 13 12  2  0
 15 14  1  1
 15 16  1  0
 17 15  1  0
 18 17  1  6
 18 20  1  0
 19 18  1  0
 20 22  2  0
 20 21  1  0
M  END
$$$$
