KGL.pdb
     RDKit          3D

 22 21  0  0  1  0  0  0  0  0999 V2000
    6.2094  -18.4904   22.5243 N   0  0  0  0  0  0  0  0  0  0  0  0
    6.8342  -18.3917   21.2369 C   0  0  1  0  0  0  0  0  0  0  0  0
    5.8455  -18.1771   20.1591 C   0  0  0  0  0  0  0  0  0  0  0  0
    4.8367  -19.2588   20.0495 C   0  0  0  0  0  0  0  0  0  0  0  0
    3.8164  -19.1320   18.9601 C   0  0  0  0  0  0  0  0  0  0  0  0
    2.8198  -20.2937   19.0188 C   0  0  0  0  0  0  0  0  0  0  0  0
    1.9036  -20.2327   17.8999 N   0  0  0  0  0  0  0  0  0  0  0  0
    7.9403  -17.3945   21.2251 C   0  0  0  0  0  0  0  0  0  0  0  0
    8.5704  -17.2285   20.1548 O   0  0  0  0  0  0  0  0  0  0  0  0
    8.3051  -16.6324   22.3672 N   0  0  0  0  0  0  0  0  0  0  0  0
    9.2772  -15.5735   22.3388 C   0  0  0  0  0  0  0  0  0  0  0  0
    9.5427  -15.0061   23.6928 C   0  0  0  0  0  0  0  0  0  0  0  0
   10.3976  -14.0919   23.8197 O   0  0  0  0  0  0  0  0  0  0  0  0
    5.9080  -12.7356   26.3584 C   0  0  0  0  0  0  0  0  0  0  0  0
    7.2291  -13.2486   25.8996 C   0  0  1  0  0  0  0  0  0  0  0  0
    8.2075  -12.0662   25.9777 C   0  0  0  0  0  0  0  0  0  0  0  0
    7.8212  -14.3560   26.6774 C   0  0  0  0  0  0  0  0  0  0  0  0
    9.0037  -15.0495   26.1029 C   0  0  2  0  0  0  0  0  0  0  0  0
    8.8036  -15.5402   24.7717 N   0  0  0  0  0  0  0  0  0  0  0  0
    9.5760  -16.1148   26.9680 C   0  0  0  0  0  0  0  0  0  0  0  0
    9.8369  -17.4004   26.5212 O   0  0  0  0  0  0  0  0  0  0  0  0
    9.8579  -15.8878   28.1881 O   0  0  0  0  0  0  0  0  0  0  0  0
  2  1  1  1
  2  3  1  0
  4  3  1  0
  5  4  1  0
  6  5  1  0
  7  6  1  0
  8  9  2  0
  8  2  1  0
 10  8  1  0
 11 12  1  0
 11 10  1  0
 12 19  1  0
 13 12  2  0
 15 14  1  1
 15 16  1  0
 17 15  1  0
 18 17  1  1
 18 20  1  0
 19 18  1  0
 20 22  2  0
 20 21  1  0
M  END
$$$$
