KGL.pdb
     RDKit          3D

 22 21  0  0  1  0  0  0  0  0999 V2000
    6.1304  -18.2545   22.2451 N   0  0  0  0  0  0  0  0  0  0  0  0
    6.7841  -18.1452   20.9730 C   0  0  1  0  0  0  0  0  0  0  0  0
    5.8652  -18.4421   19.8536 C   0  0  0  0  0  0  0  0  0  0  0  0
    5.5346  -19.8815   19.7176 C   0  0  0  0  0  0  0  0  0  0  0  0
    4.0843  -20.2546   19.7543 C   0  0  0  0  0  0  0  0  0  0  0  0
    3.9109  -21.7610   19.5378 C   0  0  0  0  0  0  0  0  0  0  0  0
    2.5149  -22.1302   19.6377 N   0  0  0  0  0  0  0  0  0  0  0  0
    7.4966  -16.8467   20.8181 C   0  0  0  0  0  0  0  0  0  0  0  0
    8.2260  -16.6932   19.8108 O   0  0  0  0  0  0  0  0  0  0  0  0
    7.3830  -15.7868   21.7572 N   0  0  0  0  0  0  0  0  0  0  0  0
    8.2647  -14.6514   21.7847 C   0  0  0  0  0  0  0  0  0  0  0  0
    8.7756  -14.3588   23.1556 C   0  0  0  0  0  0  0  0  0  0  0  0
    9.6379  -13.4559   23.3107 O   0  0  0  0  0  0  0  0  0  0  0  0
    5.7205  -12.5102   26.5861 C   0  0  0  0  0  0  0  0  0  0  0  0
    6.9248  -13.0049   25.8623 C   0  0  1  0  0  0  0  0  0  0  0  0
    7.9697  -11.8804   25.9339 C   0  0  0  0  0  0  0  0  0  0  0  0
    7.5642  -14.2277   26.3893 C   0  0  0  0  0  0  0  0  0  0  0  0
    8.6335  -14.8566   25.5707 C   0  0  2  0  0  0  0  0  0  0  0  0
    8.2499  -15.1282   24.2172 N   0  0  0  0  0  0  0  0  0  0  0  0
    9.2554  -16.0594   26.1850 C   0  0  0  0  0  0  0  0  0  0  0  0
    9.8515  -16.0536   27.4362 O   0  0  0  0  0  0  0  0  0  0  0  0
    9.2690  -17.1754   25.5735 O   0  0  0  0  0  0  0  0  0  0  0  0
  2  1  1  1
  2  3  1  0
  4  3  1  0
  5  4  1  0
  6  5  1  0
  7  6  1  0
  8  9  2  0
  8  2  1  0
 10  8  1  0
 11 12  1  0
 11 10  1  0
 12 19  1  0
 13 12  2  0
 15 14  1  1
 15 16  1  0
 17 15  1  0
 18 17  1  1
 18 20  1  0
 19 18  1  0
 20 22  2  0
 20 21  1  0
M  END
$$$$
