KGL.pdb
     RDKit          3D

 22 21  0  0  1  0  0  0  0  0999 V2000
    9.3504  -16.2013   19.1879 N   0  0  0  0  0  0  0  0  0  0  0  0
    9.0203  -14.9239   19.7509 C   0  0  1  0  0  0  0  0  0  0  0  0
    8.1783  -14.1206   18.8393 C   0  0  0  0  0  0  0  0  0  0  0  0
    8.3439  -14.4715   17.4078 C   0  0  0  0  0  0  0  0  0  0  0  0
    7.8597  -13.4741   16.4006 C   0  0  0  0  0  0  0  0  0  0  0  0
    8.0303  -14.0189   14.9792 C   0  0  0  0  0  0  0  0  0  0  0  0
    7.5574  -13.0564   14.0072 N   0  0  0  0  0  0  0  0  0  0  0  0
    8.4503  -15.0452   21.1214 C   0  0  0  0  0  0  0  0  0  0  0  0
    8.1225  -13.9924   21.7167 O   0  0  0  0  0  0  0  0  0  0  0  0
    8.2658  -16.2939   21.7732 N   0  0  0  0  0  0  0  0  0  0  0  0
    7.6443  -16.4335   23.0621 C   0  0  0  0  0  0  0  0  0  0  0  0
    8.4015  -15.7326   24.1396 C   0  0  0  0  0  0  0  0  0  0  0  0
    9.6518  -15.6294   24.0453 O   0  0  0  0  0  0  0  0  0  0  0  0
    5.6475  -11.7190   26.6473 C   0  0  0  0  0  0  0  0  0  0  0  0
    6.6114  -12.6512   25.9987 C   0  0  1  0  0  0  0  0  0  0  0  0
    7.5249  -11.7886   25.1139 C   0  0  0  0  0  0  0  0  0  0  0  0
    7.4864  -13.4352   26.8940 C   0  0  0  0  0  0  0  0  0  0  0  0
    8.3073  -14.5153   26.2868 C   0  0  2  0  0  0  0  0  0  0  0  0
    7.6542  -15.2170   25.2219 N   0  0  0  0  0  0  0  0  0  0  0  0
    8.8849  -15.4759   27.2637 C   0  0  0  0  0  0  0  0  0  0  0  0
    9.7955  -15.1114   28.2429 O   0  0  0  0  0  0  0  0  0  0  0  0
    8.5615  -16.7066   27.2430 O   0  0  0  0  0  0  0  0  0  0  0  0
  2  1  1  6
  2  3  1  0
  4  3  1  0
  5  4  1  0
  6  5  1  0
  7  6  1  0
  8  9  2  0
  8  2  1  0
 10  8  1  0
 11 12  1  0
 11 10  1  0
 12 19  1  0
 13 12  2  0
 15 14  1  1
 15 16  1  0
 17 15  1  0
 18 17  1  1
 18 20  1  0
 19 18  1  0
 20 22  2  0
 20 21  1  0
M  END
$$$$
