KGL.pdb
     RDKit          3D

 22 21  0  0  1  0  0  0  0  0999 V2000
    7.1405  -18.1507   19.4752 N   0  0  0  0  0  0  0  0  0  0  0  0
    8.3566  -17.7054   20.0919 C   0  0  1  0  0  0  0  0  0  0  0  0
    8.8660  -16.4633   19.4729 C   0  0  0  0  0  0  0  0  0  0  0  0
    7.9569  -15.8879   18.4520 C   0  0  0  0  0  0  0  0  0  0  0  0
    8.4176  -14.6473   17.7503 C   0  0  0  0  0  0  0  0  0  0  0  0
    7.3124  -14.1021   16.8406 C   0  0  0  0  0  0  0  0  0  0  0  0
    7.7789  -12.9381   16.1177 N   0  0  0  0  0  0  0  0  0  0  0  0
    8.2341  -17.6148   21.5733 C   0  0  0  0  0  0  0  0  0  0  0  0
    9.2644  -17.3426   22.2325 O   0  0  0  0  0  0  0  0  0  0  0  0
    7.0084  -17.8227   22.2608 N   0  0  0  0  0  0  0  0  0  0  0  0
    6.8641  -17.6920   23.6853 C   0  0  0  0  0  0  0  0  0  0  0  0
    7.5711  -16.4933   24.2229 C   0  0  0  0  0  0  0  0  0  0  0  0
    8.7019  -16.1888   23.7633 O   0  0  0  0  0  0  0  0  0  0  0  0
    8.1217  -11.5245   26.1581 C   0  0  0  0  0  0  0  0  0  0  0  0
    7.1677  -12.3671   26.9320 C   0  0  1  0  0  0  0  0  0  0  0  0
    5.9868  -11.4578   27.3063 C   0  0  0  0  0  0  0  0  0  0  0  0
    6.6074  -13.5463   26.2411 C   0  0  0  0  0  0  0  0  0  0  0  0
    7.5493  -14.6220   25.8350 C   0  0  2  0  0  0  0  0  0  0  0  0
    6.9151  -15.7583   25.2353 N   0  0  0  0  0  0  0  0  0  0  0  0
    8.4895  -15.0556   26.9022 C   0  0  0  0  0  0  0  0  0  0  0  0
    8.6979  -16.3834   27.2401 O   0  0  0  0  0  0  0  0  0  0  0  0
    9.1606  -14.2053   27.5700 O   0  0  0  0  0  0  0  0  0  0  0  0
  2  1  1  6
  2  3  1  0
  4  3  1  0
  5  4  1  0
  6  5  1  0
  7  6  1  0
  8  9  2  0
  8  2  1  0
 10  8  1  0
 11 12  1  0
 11 10  1  0
 12 19  1  0
 13 12  2  0
 15 14  1  6
 15 16  1  0
 17 15  1  0
 18 17  1  1
 18 20  1  0
 19 18  1  0
 20 22  2  0
 20 21  1  0
M  END
$$$$
