ANQ.pdb
     RDKit          3D

 23 22  0  0  1  0  0  0  0  0999 V2000
   36.3597   -6.9432  -21.6752 C   0  0  0  0  0  0  0  0  0  0  0  0
   35.2944   -6.3053  -20.7806 C   0  0  2  0  0  0  0  0  0  0  0  0
   35.9661   -5.4101  -19.8471 N   0  0  0  0  0  0  0  0  0  0  0  0
   34.5390   -7.3393  -20.0332 C   0  0  0  0  0  0  0  0  0  0  0  0
   33.8827   -8.2205  -20.6884 O   0  0  0  0  0  0  0  0  0  0  0  0
   35.3968  -10.4874  -17.8790 N   0  0  0  0  0  0  0  0  0  0  0  0
   35.2805   -9.7635  -16.6725 C   0  0  0  0  0  0  0  0  0  0  0  0
   36.0155  -10.0338  -15.6829 O   0  0  0  0  0  0  0  0  0  0  0  0
   34.2869   -8.6661  -16.5463 C   0  0  0  0  0  0  0  0  0  0  0  0
   33.7086   -8.3777  -17.9275 C   0  0  2  0  0  0  0  0  0  0  0  0
   34.5119   -7.3948  -18.6259 N   0  0  0  0  0  0  0  0  0  0  0  0
   32.2893   -7.9840  -17.8039 C   0  0  0  0  0  0  0  0  0  0  0  0
   32.0494   -6.8485  -17.3323 O   0  0  0  0  0  0  0  0  0  0  0  0
   28.6995   -5.3720  -20.2053 N   0  0  0  0  0  0  0  0  0  0  0  0
   27.6107   -6.1874  -19.8508 C   0  0  0  0  0  0  0  0  0  0  0  0
   26.4517   -5.7409  -19.9240 O   0  0  0  0  0  0  0  0  0  0  0  0
   27.8171   -7.5823  -19.3874 C   0  0  0  0  0  0  0  0  0  0  0  0
   29.2855   -7.8872  -19.3969 C   0  0  0  0  0  0  0  0  0  0  0  0
   29.8016   -8.3930  -18.1036 C   0  0  2  0  0  0  0  0  0  0  0  0
   31.1953   -8.7949  -18.1792 N   0  0  0  0  0  0  0  0  0  0  0  0
   29.0212   -9.5473  -17.6236 C   0  0  0  0  0  0  0  0  0  0  0  0
   29.3948  -10.7317  -17.9433 O   0  0  0  0  0  0  0  0  0  0  0  0
   27.8938   -9.4949  -16.8382 O   0  0  0  0  0  0  0  0  0  0  0  0
  2  1  1  6
  2  4  1  0
  3  2  1  0
  4  5  2  0
  6  7  1  0
  7  9  1  0
  8  7  2  0
 10  9  1  1
 10 12  1  0
 11 10  1  0
 11  4  1  0
 12 13  2  0
 12 20  1  0
 15 17  1  0
 15 14  1  0
 16 15  2  0
 19 18  1  6
 18 17  1  0
 19 21  1  0
 20 19  1  0
 21 22  2  0
 21 23  1  0
M  END
$$$$
