ANQ.pdb
     RDKit          3D

 23 22  0  0  1  0  0  0  0  0999 V2000
   19.0423  -13.9710  -17.6721 C   0  0  0  0  0  0  0  0  0  0  0  0
   19.2854  -13.0345  -16.4863 C   0  0  2  0  0  0  0  0  0  0  0  0
   18.7688  -13.6817  -15.2870 N   0  0  0  0  0  0  0  0  0  0  0  0
   18.6061  -11.7323  -16.6893 C   0  0  0  0  0  0  0  0  0  0  0  0
   18.9255  -11.0194  -17.7024 O   0  0  0  0  0  0  0  0  0  0  0  0
   14.5611   -9.8655  -18.1600 N   0  0  0  0  0  0  0  0  0  0  0  0
   14.9491  -10.6373  -17.0434 C   0  0  0  0  0  0  0  0  0  0  0  0
   14.8182  -11.8926  -17.0480 O   0  0  0  0  0  0  0  0  0  0  0  0
   15.5208   -9.9828  -15.8383 C   0  0  0  0  0  0  0  0  0  0  0  0
   17.0369   -9.9284  -15.9924 C   0  0  2  0  0  0  0  0  0  0  0  0
   17.6194  -11.2427  -15.8113 N   0  0  0  0  0  0  0  0  0  0  0  0
   17.5976   -8.9147  -15.0744 C   0  0  0  0  0  0  0  0  0  0  0  0
   17.6938   -9.2284  -13.8654 O   0  0  0  0  0  0  0  0  0  0  0  0
   22.8102   -6.4660  -15.2347 N   0  0  0  0  0  0  0  0  0  0  0  0
   22.2848   -5.5906  -14.2684 C   0  0  0  0  0  0  0  0  0  0  0  0
   23.0425   -4.8188  -13.6534 O   0  0  0  0  0  0  0  0  0  0  0  0
   20.8322   -5.5677  -13.9645 C   0  0  0  0  0  0  0  0  0  0  0  0
   20.1372   -6.5782  -14.8276 C   0  0  0  0  0  0  0  0  0  0  0  0
   18.6779   -6.6691  -14.5886 C   0  0  2  0  0  0  0  0  0  0  0  0
   18.0289   -7.6278  -15.4657 N   0  0  0  0  0  0  0  0  0  0  0  0
   18.0170   -5.3649  -14.7726 C   0  0  0  0  0  0  0  0  0  0  0  0
   17.3364   -5.1531  -15.8387 O   0  0  0  0  0  0  0  0  0  0  0  0
   18.0476   -4.3081  -13.8934 O   0  0  0  0  0  0  0  0  0  0  0  0
  2  1  1  6
  2  4  1  0
  3  2  1  0
  4  5  2  0
  6  7  1  0
  7  9  1  0
  8  7  2  0
 10  9  1  1
 10 12  1  0
 11 10  1  0
 11  4  1  0
 12 13  2  0
 12 20  1  0
 15 17  1  0
 15 14  1  0
 16 15  2  0
 19 18  1  6
 18 17  1  0
 19 21  1  0
 20 19  1  0
 21 22  2  0
 21 23  1  0
M  END
$$$$
