ANQ.pdb
     RDKit          3D

 23 22  0  0  1  0  0  0  0  0999 V2000
   17.9253  -13.8620  -14.8076 C   0  0  0  0  0  0  0  0  0  0  0  0
   16.7288  -13.0912  -15.3702 C   0  0  2  0  0  0  0  0  0  0  0  0
   16.2852  -13.7686  -16.5820 N   0  0  0  0  0  0  0  0  0  0  0  0
   17.0984  -11.6896  -15.6821 C   0  0  0  0  0  0  0  0  0  0  0  0
   17.7396  -11.4445  -16.7616 O   0  0  0  0  0  0  0  0  0  0  0  0
   15.9193   -6.4422  -16.3422 N   0  0  0  0  0  0  0  0  0  0  0  0
   16.4360   -6.9044  -15.1123 C   0  0  0  0  0  0  0  0  0  0  0  0
   17.1879   -6.1726  -14.4109 O   0  0  0  0  0  0  0  0  0  0  0  0
   16.1023   -8.2659  -14.6199 C   0  0  0  0  0  0  0  0  0  0  0  0
   17.1192   -9.2482  -15.1913 C   0  0  2  0  0  0  0  0  0  0  0  0
   16.7728  -10.6099  -14.8379 N   0  0  0  0  0  0  0  0  0  0  0  0
   18.4807   -8.8664  -14.7611 C   0  0  0  0  0  0  0  0  0  0  0  0
   18.8600   -9.2697  -13.6373 O   0  0  0  0  0  0  0  0  0  0  0  0
   23.0232  -10.8173  -16.7912 N   0  0  0  0  0  0  0  0  0  0  0  0
   23.7593   -9.7560  -16.2365 C   0  0  0  0  0  0  0  0  0  0  0  0
   24.9657   -9.9090  -15.9729 O   0  0  0  0  0  0  0  0  0  0  0  0
   23.1217   -8.4452  -15.9567 C   0  0  0  0  0  0  0  0  0  0  0  0
   21.6564   -8.5405  -16.2614 C   0  0  0  0  0  0  0  0  0  0  0  0
   20.7883   -7.9192  -15.2342 C   0  0  2  0  0  0  0  0  0  0  0  0
   19.3750   -8.0847  -15.5256 N   0  0  0  0  0  0  0  0  0  0  0  0
   21.0582   -6.4769  -15.0980 C   0  0  0  0  0  0  0  0  0  0  0  0
   20.4554   -5.6515  -15.8726 O   0  0  0  0  0  0  0  0  0  0  0  0
   21.9164   -5.8932  -14.1959 O   0  0  0  0  0  0  0  0  0  0  0  0
  2  1  1  6
  2  4  1  0
  3  2  1  0
  4  5  2  0
  6  7  1  0
  7  9  1  0
  8  7  2  0
 10  9  1  1
 10 12  1  0
 11 10  1  0
 11  4  1  0
 12 13  2  0
 12 20  1  0
 15 17  1  0
 15 14  1  0
 16 15  2  0
 19 18  1  6
 18 17  1  0
 19 21  1  0
 20 19  1  0
 21 22  2  0
 21 23  1  0
M  END
$$$$
