ANQ.pdb
     RDKit          3D

 23 22  0  0  1  0  0  0  0  0999 V2000
   20.5108  -13.1304  -18.4921 C   0  0  0  0  0  0  0  0  0  0  0  0
   19.9916  -12.1552  -17.4331 C   0  0  2  0  0  0  0  0  0  0  0  0
   18.6101  -11.8265  -17.7612 N   0  0  0  0  0  0  0  0  0  0  0  0
   20.8103  -10.9195  -17.4012 C   0  0  0  0  0  0  0  0  0  0  0  0
   21.8603  -10.8918  -16.6709 O   0  0  0  0  0  0  0  0  0  0  0  0
   23.5930   -8.1321  -20.3831 N   0  0  0  0  0  0  0  0  0  0  0  0
   22.2583   -8.5589  -20.2110 C   0  0  0  0  0  0  0  0  0  0  0  0
   21.8266   -9.5866  -20.8027 O   0  0  0  0  0  0  0  0  0  0  0  0
   21.3346   -7.8025  -19.3266 C   0  0  0  0  0  0  0  0  0  0  0  0
   21.2319   -8.5379  -17.9946 C   0  0  2  0  0  0  0  0  0  0  0  0
   20.4815   -9.7683  -18.1435 N   0  0  0  0  0  0  0  0  0  0  0  0
   20.6690   -7.6367  -16.9671 C   0  0  0  0  0  0  0  0  0  0  0  0
   19.4233   -7.5073  -16.9398 O   0  0  0  0  0  0  0  0  0  0  0  0
   19.0194   -9.0985  -12.3236 N   0  0  0  0  0  0  0  0  0  0  0  0
   18.9958   -7.7601  -11.8944 C   0  0  0  0  0  0  0  0  0  0  0  0
   18.4484   -7.4639  -10.8170 O   0  0  0  0  0  0  0  0  0  0  0  0
   19.6162   -6.6839  -12.7068 C   0  0  0  0  0  0  0  0  0  0  0  0
   20.2326   -7.2912  -13.9317 C   0  0  0  0  0  0  0  0  0  0  0  0
   20.9030   -6.3092  -14.8156 C   0  0  2  0  0  0  0  0  0  0  0  0
   21.4349   -6.9186  -16.0221 N   0  0  0  0  0  0  0  0  0  0  0  0
   22.0115   -5.6272  -14.1244 C   0  0  0  0  0  0  0  0  0  0  0  0
   23.2110   -5.7990  -14.5443 O   0  0  0  0  0  0  0  0  0  0  0  0
   21.8993   -4.7922  -13.0377 O   0  0  0  0  0  0  0  0  0  0  0  0
  2  1  1  6
  2  4  1  0
  3  2  1  0
  4  5  2  0
  6  7  1  0
  7  9  1  0
  8  7  2  0
 10  9  1  6
 10 12  1  0
 11 10  1  0
 11  4  1  0
 12 13  2  0
 12 20  1  0
 15 17  1  0
 15 14  1  0
 16 15  2  0
 19 18  1  1
 18 17  1  0
 19 21  1  0
 20 19  1  0
 21 22  2  0
 21 23  1  0
M  END
$$$$
