CII.pdb
     RDKit          3D

 23 22  0  0  1  0  0  0  0  0999 V2000
   28.6697  -21.7394  -16.3512 N   0  0  0  0  0  0  0  0  0  0  0  0
   28.1177  -20.6773  -15.5644 C   0  0  1  0  0  0  0  0  0  0  0  0
   27.5894  -19.5340  -16.3890 C   0  0  0  0  0  0  0  0  0  0  0  0
   28.8684  -18.7369  -17.3806 S   0  0  0  0  0  0  0  0  0  0  0  0
   27.0415  -21.1254  -14.6580 C   0  0  0  0  0  0  0  0  0  0  0  0
   26.3178  -22.0815  -15.0390 O   0  0  0  0  0  0  0  0  0  0  0  0
   25.2417  -21.0900   -8.7888 C   0  0  0  0  0  0  0  0  0  0  0  0
   24.8903  -21.4151  -10.2297 C   0  0  0  0  0  0  0  0  0  0  0  0
   25.9733  -20.8392  -11.0945 C   0  0  2  0  0  0  0  0  0  0  0  0
   26.0477  -19.3526  -10.8731 C   0  0  0  0  0  0  0  0  0  0  0  0
   25.7257  -21.0689  -12.5692 C   0  0  2  0  0  0  0  0  0  0  0  0
   26.7708  -20.5537  -13.3951 N   0  0  0  0  0  0  0  0  0  0  0  0
   24.3963  -20.5601  -12.9910 C   0  0  0  0  0  0  0  0  0  0  0  0
   24.2019  -19.3269  -13.1075 O   0  0  0  0  0  0  0  0  0  0  0  0
   22.2473  -22.5571  -17.2891 C   0  0  0  0  0  0  0  0  0  0  0  0
   22.6091  -21.6306  -16.1385 C   0  0  0  0  0  0  0  0  0  0  0  0
   21.7348  -21.8259  -14.9596 C   0  0  2  0  0  0  0  0  0  0  0  0
   20.2612  -21.6503  -15.2675 C   0  0  0  0  0  0  0  0  0  0  0  0
   22.0296  -20.9797  -13.7546 C   0  0  2  0  0  0  0  0  0  0  0  0
   23.3283  -21.4401  -13.2689 N   0  0  0  0  0  0  0  0  0  0  0  0
   20.9904  -21.0949  -12.7397 C   0  0  0  0  0  0  0  0  0  0  0  0
   20.9950  -22.1245  -11.8357 O   0  0  0  0  0  0  0  0  0  0  0  0
   20.0377  -20.2648  -12.6381 O   0  0  0  0  0  0  0  0  0  0  0  0
  2  1  1  6
  3  2  1  0
  3  4  1  0
  5  6  2  0
  5  2  1  0
  8  7  1  0
  8  9  1  0
  9 11  1  0
  9 10  1  6
 11 13  1  0
 11 12  1  6
 12  5  1  0
 13 20  1  0
 14 13  2  0
 15 16  1  0
 17 19  1  0
 17 16  1  0
 17 18  1  6
 19 21  1  0
 19 20  1  1
 21 23  2  0
 21 22  1  0
M  END
$$$$
