CII.pdb
     RDKit          3D

 23 22  0  0  1  0  0  0  0  0999 V2000
   24.0367  -13.5628  -17.7438 N   0  0  0  0  0  0  0  0  0  0  0  0
   23.7416  -12.9544  -16.4810 C   0  0  1  0  0  0  0  0  0  0  0  0
   24.9680  -12.5059  -15.7319 C   0  0  0  0  0  0  0  0  0  0  0  0
   26.1032  -13.8611  -15.3727 S   0  0  0  0  0  0  0  0  0  0  0  0
   22.8244  -11.8024  -16.5919 C   0  0  0  0  0  0  0  0  0  0  0  0
   22.8257  -11.1572  -17.6721 O   0  0  0  0  0  0  0  0  0  0  0  0
   17.6159  -11.9924  -15.6403 C   0  0  0  0  0  0  0  0  0  0  0  0
   19.0042  -11.7280  -16.1957 C   0  0  0  0  0  0  0  0  0  0  0  0
   19.6188  -10.6410  -15.3633 C   0  0  2  0  0  0  0  0  0  0  0  0
   18.7952   -9.3885  -15.4954 C   0  0  0  0  0  0  0  0  0  0  0  0
   21.0305  -10.3060  -15.7920 C   0  0  2  0  0  0  0  0  0  0  0  0
   21.9480  -11.3775  -15.5690 N   0  0  0  0  0  0  0  0  0  0  0  0
   21.5082   -9.0419  -15.1771 C   0  0  0  0  0  0  0  0  0  0  0  0
   21.5910   -8.9401  -13.9301 O   0  0  0  0  0  0  0  0  0  0  0  0
   25.0889   -4.4840  -17.0514 C   0  0  0  0  0  0  0  0  0  0  0  0
   24.0690   -4.9065  -16.0053 C   0  0  0  0  0  0  0  0  0  0  0  0
   23.4487   -6.2143  -16.3169 C   0  0  2  0  0  0  0  0  0  0  0  0
   22.9022   -6.3002  -17.7280 C   0  0  0  0  0  0  0  0  0  0  0  0
   22.3536   -6.6763  -15.3992 C   0  0  2  0  0  0  0  0  0  0  0  0
   21.8776   -7.9342  -15.9699 N   0  0  0  0  0  0  0  0  0  0  0  0
   21.2888   -5.6887  -15.2801 C   0  0  0  0  0  0  0  0  0  0  0  0
   21.3609   -4.6777  -14.3582 O   0  0  0  0  0  0  0  0  0  0  0  0
   20.2515   -5.7093  -16.0085 O   0  0  0  0  0  0  0  0  0  0  0  0
  2  1  1  6
  3  2  1  0
  3  4  1  0
  5  6  2  0
  5  2  1  0
  8  7  1  0
  8  9  1  0
  9 11  1  0
  9 10  1  6
 11 13  1  0
 11 12  1  1
 12  5  1  0
 13 20  1  0
 14 13  2  0
 15 16  1  0
 17 19  1  0
 17 16  1  0
 17 18  1  6
 19 21  1  0
 19 20  1  6
 21 23  2  0
 21 22  1  0
M  END
$$$$
