CII.pdb
     RDKit          3D

 23 22  0  0  1  0  0  0  0  0999 V2000
   27.1820  -20.3052  -16.1858 N   0  0  0  0  0  0  0  0  0  0  0  0
   27.3781  -21.0916  -15.0047 C   0  0  1  0  0  0  0  0  0  0  0  0
   28.8282  -21.2947  -14.6551 C   0  0  0  0  0  0  0  0  0  0  0  0
   29.6028  -22.6085  -15.6186 S   0  0  0  0  0  0  0  0  0  0  0  0
   26.6931  -20.5389  -13.8190 C   0  0  0  0  0  0  0  0  0  0  0  0
   26.8204  -19.3078  -13.5924 O   0  0  0  0  0  0  0  0  0  0  0  0
   23.3146  -20.3153  -14.3594 C   0  0  0  0  0  0  0  0  0  0  0  0
   23.2414  -19.6688  -12.9874 C   0  0  0  0  0  0  0  0  0  0  0  0
   23.7257  -20.6806  -11.9903 C   0  0  2  0  0  0  0  0  0  0  0  0
   23.1275  -20.3762  -10.6435 C   0  0  0  0  0  0  0  0  0  0  0  0
   25.2304  -20.6710  -11.8339 C   0  0  2  0  0  0  0  0  0  0  0  0
   25.9066  -21.2980  -12.9245 N   0  0  0  0  0  0  0  0  0  0  0  0
   25.6529  -21.2412  -10.5298 C   0  0  0  0  0  0  0  0  0  0  0  0
   25.6181  -22.4806  -10.3435 O   0  0  0  0  0  0  0  0  0  0  0  0
   29.0017  -19.2071   -5.7984 C   0  0  0  0  0  0  0  0  0  0  0  0
   28.0238  -20.2695   -6.2761 C   0  0  0  0  0  0  0  0  0  0  0  0
   27.4419  -19.9478   -7.5991 C   0  0  2  0  0  0  0  0  0  0  0  0
   26.7762  -18.5871   -7.6490 C   0  0  0  0  0  0  0  0  0  0  0  0
   26.4569  -20.9330   -8.1594 C   0  0  2  0  0  0  0  0  0  0  0  0
   26.0997  -20.4136   -9.4774 N   0  0  0  0  0  0  0  0  0  0  0  0
   25.2931  -21.0914   -7.2969 C   0  0  0  0  0  0  0  0  0  0  0  0
   25.3168  -21.9455   -6.2259 O   0  0  0  0  0  0  0  0  0  0  0  0
   24.2099  -20.4606   -7.4861 O   0  0  0  0  0  0  0  0  0  0  0  0
  2  1  1  6
  3  2  1  0
  3  4  1  0
  5  6  2  0
  5  2  1  0
  8  7  1  0
  8  9  1  0
  9 11  1  0
  9 10  1  1
 11 13  1  0
 11 12  1  6
 12  5  1  0
 13 20  1  0
 14 13  2  0
 15 16  1  0
 17 19  1  0
 17 16  1  0
 17 18  1  1
 19 21  1  0
 19 20  1  6
 21 23  2  0
 21 22  1  0
M  END
$$$$
