CII.pdb
     RDKit          3D

 23 22  0  0  1  0  0  0  0  0999 V2000
   28.7635  -20.9185  -15.4285 N   0  0  0  0  0  0  0  0  0  0  0  0
   28.0378  -19.9826  -14.6228 C   0  0  1  0  0  0  0  0  0  0  0  0
   27.4598  -18.8371  -15.4103 C   0  0  0  0  0  0  0  0  0  0  0  0
   28.7239  -17.7249  -16.0578 S   0  0  0  0  0  0  0  0  0  0  0  0
   26.9447  -20.6067  -13.8506 C   0  0  0  0  0  0  0  0  0  0  0  0
   26.3578  -21.5945  -14.3635 O   0  0  0  0  0  0  0  0  0  0  0  0
   26.5062  -20.5836   -8.3194 C   0  0  0  0  0  0  0  0  0  0  0  0
   26.5514  -21.0770   -9.7547 C   0  0  0  0  0  0  0  0  0  0  0  0
   25.3431  -20.5269  -10.4545 C   0  0  2  0  0  0  0  0  0  0  0  0
   24.1090  -21.2001   -9.9178 C   0  0  0  0  0  0  0  0  0  0  0  0
   25.3776  -20.7615  -11.9486 C   0  0  2  0  0  0  0  0  0  0  0  0
   26.5150  -20.1700  -12.5780 N   0  0  0  0  0  0  0  0  0  0  0  0
   24.1125  -20.3410  -12.6021 C   0  0  0  0  0  0  0  0  0  0  0  0
   23.7782  -19.1326  -12.6083 O   0  0  0  0  0  0  0  0  0  0  0  0
   20.9474  -22.2847  -17.3546 C   0  0  0  0  0  0  0  0  0  0  0  0
   20.8379  -21.4879  -16.0637 C   0  0  0  0  0  0  0  0  0  0  0  0
   22.0290  -21.6472  -15.1987 C   0  0  2  0  0  0  0  0  0  0  0  0
   22.3450  -23.0926  -14.8698 C   0  0  0  0  0  0  0  0  0  0  0  0
   22.0215  -20.8983  -13.8973 C   0  0  2  0  0  0  0  0  0  0  0  0
   23.2623  -21.2789  -13.2265 N   0  0  0  0  0  0  0  0  0  0  0  0
   20.8451  -21.2095  -13.0956 C   0  0  0  0  0  0  0  0  0  0  0  0
   20.8600  -22.2326  -12.1844 O   0  0  0  0  0  0  0  0  0  0  0  0
   19.7586  -20.5642  -13.1952 O   0  0  0  0  0  0  0  0  0  0  0  0
  2  1  1  6
  3  2  1  0
  3  4  1  0
  5  6  2  0
  5  2  1  0
  8  7  1  0
  8  9  1  0
  9 11  1  0
  9 10  1  1
 11 13  1  0
 11 12  1  6
 12  5  1  0
 13 20  1  0
 14 13  2  0
 15 16  1  0
 17 19  1  0
 17 16  1  0
 17 18  1  1
 19 21  1  0
 19 20  1  1
 21 23  2  0
 21 22  1  0
M  END
$$$$
