CII.pdb
     RDKit          3D

 23 22  0  0  1  0  0  0  0  0999 V2000
   22.0553  -20.3768  -14.5561 N   0  0  0  0  0  0  0  0  0  0  0  0
   21.4918  -19.7583  -13.3935 C   0  0  1  0  0  0  0  0  0  0  0  0
   20.0358  -19.4086  -13.5481 C   0  0  0  0  0  0  0  0  0  0  0  0
   19.7538  -18.1098  -14.7680 S   0  0  0  0  0  0  0  0  0  0  0  0
   21.6407  -20.5744  -12.1719 C   0  0  0  0  0  0  0  0  0  0  0  0
   21.3367  -21.7933  -12.2436 O   0  0  0  0  0  0  0  0  0  0  0  0
   25.7511  -20.0548   -8.6361 C   0  0  0  0  0  0  0  0  0  0  0  0
   24.7115  -20.5878   -9.6059 C   0  0  0  0  0  0  0  0  0  0  0  0
   23.3870  -20.5603   -8.9007 C   0  0  2  0  0  0  0  0  0  0  0  0
   23.4130  -21.5377   -7.7569 C   0  0  0  0  0  0  0  0  0  0  0  0
   22.2371  -20.9466   -9.8048 C   0  0  2  0  0  0  0  0  0  0  0  0
   22.1005  -20.0796  -10.9315 N   0  0  0  0  0  0  0  0  0  0  0  0
   20.9624  -21.0696   -9.0536 C   0  0  0  0  0  0  0  0  0  0  0  0
   20.2310  -20.0653   -8.8854 O   0  0  0  0  0  0  0  0  0  0  0  0
   16.0956  -23.8375   -9.6424 C   0  0  0  0  0  0  0  0  0  0  0  0
   16.9362  -23.2826   -8.5029 C   0  0  0  0  0  0  0  0  0  0  0  0
   18.3282  -22.9934   -8.9165 C   0  0  2  0  0  0  0  0  0  0  0  0
   19.0192  -24.1733   -9.5704 C   0  0  0  0  0  0  0  0  0  0  0  0
   19.2556  -22.4841   -7.8509 C   0  0  2  0  0  0  0  0  0  0  0  0
   20.5446  -22.3056   -8.5151 N   0  0  0  0  0  0  0  0  0  0  0  0
   19.3417  -23.3988   -6.7199 C   0  0  0  0  0  0  0  0  0  0  0  0
   18.4153  -23.3663   -5.7110 O   0  0  0  0  0  0  0  0  0  0  0  0
   20.2642  -24.2608   -6.6054 O   0  0  0  0  0  0  0  0  0  0  0  0
  2  1  1  6
  3  2  1  0
  3  4  1  0
  5  6  2  0
  5  2  1  0
  8  7  1  0
  8  9  1  0
  9 11  1  0
  9 10  1  1
 11 13  1  0
 11 12  1  6
 12  5  1  0
 13 20  1  0
 14 13  2  0
 15 16  1  0
 17 19  1  0
 17 16  1  0
 17 18  1  1
 19 21  1  0
 19 20  1  6
 21 23  2  0
 21 22  1  0
M  END
$$$$
