CQF.pdb
     RDKit          3D

 27 27  0  0  1  0  0  0  0  0999 V2000
    7.1881  -19.0401   21.3544 N   0  0  0  0  0  0  0  0  0  0  0  0
    8.4410  -19.1940   20.6533 C   0  0  1  0  0  0  0  0  0  0  0  0
    8.0914  -19.6071   19.2303 C   0  0  0  0  0  0  0  0  0  0  0  0
    6.6228  -20.6412   19.2283 S   0  0  0  0  0  0  0  0  0  0  0  0
    9.2029  -17.9084   20.6146 C   0  0  0  0  0  0  0  0  0  0  0  0
   10.3303  -17.8516   20.0590 O   0  0  0  0  0  0  0  0  0  0  0  0
    8.0359  -12.3131   18.7140 N   0  0  0  0  0  0  0  0  0  0  0  0
    7.9969  -13.6182   18.1666 C   0  0  0  0  0  0  0  0  0  0  0  0
    7.5998  -13.7709   16.9972 O   0  0  0  0  0  0  0  0  0  0  0  0
    8.4281  -14.7711   18.9976 C   0  0  0  0  0  0  0  0  0  0  0  0
    8.8304  -14.4081   20.3971 C   0  0  0  0  0  0  0  0  0  0  0  0
    9.4847  -15.4935   21.1777 C   0  0  2  0  0  0  0  0  0  0  0  0
    8.6995  -16.7165   21.1912 N   0  0  0  0  0  0  0  0  0  0  0  0
    9.8348  -15.0933   22.5846 C   0  0  0  0  0  0  0  0  0  0  0  0
   10.1902  -13.9260   22.8720 O   0  0  0  0  0  0  0  0  0  0  0  0
    9.7716  -16.0422   23.6448 N   0  0  0  0  0  0  0  0  0  0  0  0
    9.2262  -15.5973   24.9322 C   0  0  1  0  0  0  0  0  0  0  0  0
    7.8857  -14.9679   24.6269 C   0  0  0  0  0  0  0  0  0  0  0  0
    7.5573  -13.8674   25.5553 C   0  0  0  0  0  0  0  0  0  0  0  0
    8.5381  -13.1236   26.1587 C   0  0  0  0  0  0  0  0  0  0  0  0
    8.1868  -12.1082   27.0161 C   0  0  0  0  0  0  0  0  0  0  0  0
    6.8738  -11.8072   27.2943 C   0  0  0  0  0  0  0  0  0  0  0  0
    5.8895  -12.5588   26.6845 C   0  0  0  0  0  0  0  0  0  0  0  0
    6.2381  -13.5736   25.8276 C   0  0  0  0  0  0  0  0  0  0  0  0
    9.1519  -16.6998   25.8939 C   0  0  0  0  0  0  0  0  0  0  0  0
    8.7958  -17.8746   25.5753 O   0  0  0  0  0  0  0  0  0  0  0  0
    9.4716  -16.5248   27.2305 O   0  0  0  0  0  0  0  0  0  0  0  0
  2  1  1  1
  3  2  1  0
  4  3  1  0
  5  2  1  0
  5  6  2  0
  8  7  1  0
  8 10  1  0
  9  8  2  0
 12 11  1  1
 11 10  1  0
 12 13  1  0
 13  5  1  0
 14 12  1  0
 15 14  2  0
 16 14  1  0
 17 16  1  0
 17 25  1  0
 17 18  1  6
 19 24  2  0
 19 18  1  0
 20 19  1  0
 21 22  1  0
 21 20  2  0
 22 23  2  0
 23 24  1  0
 25 27  1  0
 26 25  2  0
M  END
$$$$
