CQF.pdb
     RDKit          3D

 27 27  0  0  1  0  0  0  0  0999 V2000
    7.9262  -14.3589   18.0094 N   0  0  0  0  0  0  0  0  0  0  0  0
    8.5564  -14.0225   19.2643 C   0  0  1  0  0  0  0  0  0  0  0  0
    7.9196  -12.7209   19.7318 C   0  0  0  0  0  0  0  0  0  0  0  0
    8.5900  -12.2412   21.3276 S   0  0  0  0  0  0  0  0  0  0  0  0
    8.3161  -15.0800   20.2932 C   0  0  0  0  0  0  0  0  0  0  0  0
    7.2092  -15.6755   20.3494 O   0  0  0  0  0  0  0  0  0  0  0  0
   11.0673  -20.1342   21.1071 N   0  0  0  0  0  0  0  0  0  0  0  0
   11.1254  -19.0588   20.1881 C   0  0  0  0  0  0  0  0  0  0  0  0
   11.7529  -19.2072   19.1238 O   0  0  0  0  0  0  0  0  0  0  0  0
   10.4397  -17.7824   20.5144 C   0  0  0  0  0  0  0  0  0  0  0  0
    9.7028  -17.7933   21.8217 C   0  0  0  0  0  0  0  0  0  0  0  0
    9.0530  -16.5092   22.2017 C   0  0  2  0  0  0  0  0  0  0  0  0
    9.3058  -15.4534   21.2353 N   0  0  0  0  0  0  0  0  0  0  0  0
    9.4175  -16.0382   23.5828 C   0  0  0  0  0  0  0  0  0  0  0  0
   10.4277  -15.3269   23.7949 O   0  0  0  0  0  0  0  0  0  0  0  0
    8.6140  -16.3920   24.7044 N   0  0  0  0  0  0  0  0  0  0  0  0
    9.0207  -15.8952   26.0237 C   0  0  1  0  0  0  0  0  0  0  0  0
    7.7477  -15.4919   26.7328 C   0  0  0  0  0  0  0  0  0  0  0  0
    7.3289  -14.1163   26.3967 C   0  0  0  0  0  0  0  0  0  0  0  0
    8.1371  -13.0393   26.6541 C   0  0  0  0  0  0  0  0  0  0  0  0
    7.7069  -11.7760   26.3245 C   0  0  0  0  0  0  0  0  0  0  0  0
    6.4827  -11.5495   25.7398 C   0  0  0  0  0  0  0  0  0  0  0  0
    5.6721  -12.6370   25.4825 C   0  0  0  0  0  0  0  0  0  0  0  0
    6.0998  -13.8999   25.8108 C   0  0  0  0  0  0  0  0  0  0  0  0
    9.8090  -16.8913   26.7533 C   0  0  0  0  0  0  0  0  0  0  0  0
    9.8197  -18.1231   26.4514 O   0  0  0  0  0  0  0  0  0  0  0  0
   10.6039  -16.5442   27.8335 O   0  0  0  0  0  0  0  0  0  0  0  0
  2  1  1  6
  3  2  1  0
  4  3  1  0
  5  2  1  0
  5  6  2  0
  8  7  1  0
  8 10  1  0
  9  8  2  0
 12 11  1  6
 11 10  1  0
 12 13  1  0
 13  5  1  0
 14 12  1  0
 15 14  2  0
 16 14  1  0
 17 16  1  0
 17 25  1  0
 17 18  1  1
 19 24  2  0
 19 18  1  0
 20 19  1  0
 21 22  1  0
 21 20  2  0
 22 23  2  0
 23 24  1  0
 25 27  1  0
 26 25  2  0
M  END
$$$$
