CQF.pdb
     RDKit          3D

 27 27  0  0  1  0  0  0  0  0999 V2000
    7.6523  -14.4359   18.2095 N   0  0  0  0  0  0  0  0  0  0  0  0
    8.2648  -14.1723   19.4903 C   0  0  1  0  0  0  0  0  0  0  0  0
    7.7319  -12.8236   19.9541 C   0  0  0  0  0  0  0  0  0  0  0  0
    8.6029  -11.4929   19.1194 S   0  0  0  0  0  0  0  0  0  0  0  0
    7.8930  -15.2151   20.4948 C   0  0  0  0  0  0  0  0  0  0  0  0
    6.6912  -15.5556   20.6456 O   0  0  0  0  0  0  0  0  0  0  0  0
   10.8955  -20.1687   22.2506 N   0  0  0  0  0  0  0  0  0  0  0  0
   11.0081  -19.3515   21.1000 C   0  0  0  0  0  0  0  0  0  0  0  0
   11.9538  -19.5422   20.3140 O   0  0  0  0  0  0  0  0  0  0  0  0
    9.9994  -18.2884   20.8587 C   0  0  0  0  0  0  0  0  0  0  0  0
    8.9038  -18.2320   21.8827 C   0  0  0  0  0  0  0  0  0  0  0  0
    8.4652  -16.8653   22.2772 C   0  0  2  0  0  0  0  0  0  0  0  0
    8.8592  -15.8561   21.3083 N   0  0  0  0  0  0  0  0  0  0  0  0
    8.9223  -16.4622   23.6522 C   0  0  0  0  0  0  0  0  0  0  0  0
   10.0250  -15.8979   23.8447 O   0  0  0  0  0  0  0  0  0  0  0  0
    8.1038  -16.7137   24.7905 N   0  0  0  0  0  0  0  0  0  0  0  0
    8.6388  -16.3638   26.1111 C   0  0  1  0  0  0  0  0  0  0  0  0
    7.4903  -15.7543   26.8829 C   0  0  0  0  0  0  0  0  0  0  0  0
    7.2970  -14.3248   26.5671 C   0  0  0  0  0  0  0  0  0  0  0  0
    6.1875  -13.8847   25.8929 C   0  0  0  0  0  0  0  0  0  0  0  0
    6.0483  -12.5446   25.6200 C   0  0  0  0  0  0  0  0  0  0  0  0
    6.9909  -11.6186   26.0023 C   0  0  0  0  0  0  0  0  0  0  0  0
    8.1066  -12.0663   26.6810 C   0  0  0  0  0  0  0  0  0  0  0  0
    8.2476  -13.4045   26.9547 C   0  0  0  0  0  0  0  0  0  0  0  0
    9.2399  -17.5247   26.7720 C   0  0  0  0  0  0  0  0  0  0  0  0
    9.8429  -17.4532   27.8854 O   0  0  0  0  0  0  0  0  0  0  0  0
    9.1853  -18.7915   26.2136 O   0  0  0  0  0  0  0  0  0  0  0  0
  2  1  1  6
  3  2  1  0
  4  3  1  0
  5  2  1  0
  5  6  2  0
  8  7  1  0
  8 10  1  0
  9  8  2  0
 12 11  1  6
 11 10  1  0
 12 13  1  0
 13  5  1  0
 14 12  1  0
 15 14  2  0
 16 14  1  0
 17 16  1  0
 17 25  1  0
 17 18  1  1
 19 24  2  0
 19 18  1  0
 20 19  1  0
 21 22  1  0
 21 20  2  0
 22 23  2  0
 23 24  1  0
 25 27  1  0
 26 25  2  0
M  END
$$$$
