CQF.pdb
     RDKit          3D

 27 27  0  0  1  0  0  0  0  0999 V2000
    4.6236  -22.1489   21.8094 N   0  0  0  0  0  0  0  0  0  0  0  0
    5.7973  -21.3156   21.9239 C   0  0  1  0  0  0  0  0  0  0  0  0
    6.1465  -20.8654   20.5120 C   0  0  0  0  0  0  0  0  0  0  0  0
    7.5683  -19.7684   20.5451 S   0  0  0  0  0  0  0  0  0  0  0  0
    5.5278  -20.1110   22.7671 C   0  0  0  0  0  0  0  0  0  0  0  0
    4.4997  -19.4127   22.5716 O   0  0  0  0  0  0  0  0  0  0  0  0
    6.8856  -19.1073   28.7566 N   0  0  0  0  0  0  0  0  0  0  0  0
    8.0110  -19.0460   27.8998 C   0  0  0  0  0  0  0  0  0  0  0  0
    9.1488  -19.1741   28.3871 O   0  0  0  0  0  0  0  0  0  0  0  0
    7.8089  -18.8297   26.4444 C   0  0  0  0  0  0  0  0  0  0  0  0
    6.3717  -18.6985   26.0327 C   0  0  0  0  0  0  0  0  0  0  0  0
    6.1378  -18.5033   24.5757 C   0  0  2  0  0  0  0  0  0  0  0  0
    6.4018  -19.7077   23.8063 N   0  0  0  0  0  0  0  0  0  0  0  0
    6.9028  -17.3458   23.9951 C   0  0  0  0  0  0  0  0  0  0  0  0
    6.6186  -16.8591   22.8754 O   0  0  0  0  0  0  0  0  0  0  0  0
    7.9869  -16.7618   24.7110 N   0  0  0  0  0  0  0  0  0  0  0  0
    8.6604  -15.6043   24.1118 C   0  0  1  0  0  0  0  0  0  0  0  0
    7.5922  -14.5537   23.9089 C   0  0  0  0  0  0  0  0  0  0  0  0
    7.2635  -13.8380   25.1581 C   0  0  0  0  0  0  0  0  0  0  0  0
    6.1279  -13.0783   25.2699 C   0  0  0  0  0  0  0  0  0  0  0  0
    5.8611  -12.4292   26.4518 C   0  0  0  0  0  0  0  0  0  0  0  0
    6.7001  -12.5143   27.5385 C   0  0  0  0  0  0  0  0  0  0  0  0
    7.8425  -13.2805   27.4215 C   0  0  0  0  0  0  0  0  0  0  0  0
    8.1109  -13.9298   26.2417 C   0  0  0  0  0  0  0  0  0  0  0  0
    9.7824  -15.1493   24.9365 C   0  0  0  0  0  0  0  0  0  0  0  0
    9.8945  -15.4279   26.1687 O   0  0  0  0  0  0  0  0  0  0  0  0
   10.8059  -14.3759   24.4135 O   0  0  0  0  0  0  0  0  0  0  0  0
  2  1  1  6
  3  2  1  0
  4  3  1  0
  5  2  1  0
  5  6  2  0
  8  7  1  0
  8 10  1  0
  9  8  2  0
 12 11  1  1
 11 10  1  0
 12 13  1  0
 13  5  1  0
 14 12  1  0
 15 14  2  0
 16 14  1  0
 17 16  1  0
 17 25  1  0
 17 18  1  1
 19 24  2  0
 19 18  1  0
 20 19  1  0
 21 22  1  0
 21 20  2  0
 22 23  2  0
 23 24  1  0
 25 27  1  0
 26 25  2  0
M  END
$$$$
