CQF.pdb
     RDKit          3D

 27 27  0  0  1  0  0  0  0  0999 V2000
    6.2373  -18.7369   18.9373 N   0  0  0  0  0  0  0  0  0  0  0  0
    7.3523  -18.0637   19.5607 C   0  0  1  0  0  0  0  0  0  0  0  0
    7.5712  -16.7761   18.7783 C   0  0  0  0  0  0  0  0  0  0  0  0
    8.2577  -17.1436   17.1597 S   0  0  0  0  0  0  0  0  0  0  0  0
    7.0536  -17.7238   20.9855 C   0  0  0  0  0  0  0  0  0  0  0  0
    5.8676  -17.7216   21.4055 O   0  0  0  0  0  0  0  0  0  0  0  0
    7.6057  -21.6601   25.1599 N   0  0  0  0  0  0  0  0  0  0  0  0
    6.7573  -20.5702   25.4711 C   0  0  0  0  0  0  0  0  0  0  0  0
    5.6559  -20.7954   26.0048 O   0  0  0  0  0  0  0  0  0  0  0  0
    7.1987  -19.1881   25.1535 C   0  0  0  0  0  0  0  0  0  0  0  0
    7.3337  -18.9042   23.6861 C   0  0  0  0  0  0  0  0  0  0  0  0
    7.8628  -17.5566   23.3402 C   0  0  2  0  0  0  0  0  0  0  0  0
    8.0737  -17.3945   21.9114 N   0  0  0  0  0  0  0  0  0  0  0  0
    9.1165  -17.1944   24.0880 C   0  0  0  0  0  0  0  0  0  0  0  0
    9.7377  -18.0317   24.7841 O   0  0  0  0  0  0  0  0  0  0  0  0
    9.6408  -15.8716   24.0256 N   0  0  0  0  0  0  0  0  0  0  0  0
    9.2929  -14.9439   25.1077 C   0  0  1  0  0  0  0  0  0  0  0  0
    7.9596  -14.3384   24.7312 C   0  0  0  0  0  0  0  0  0  0  0  0
    7.4677  -13.3866   25.7476 C   0  0  0  0  0  0  0  0  0  0  0  0
    8.3264  -12.7454   26.6023 C   0  0  0  0  0  0  0  0  0  0  0  0
    7.8248  -11.8671   27.5332 C   0  0  0  0  0  0  0  0  0  0  0  0
    6.4788  -11.6047   27.6404 C   0  0  0  0  0  0  0  0  0  0  0  0
    5.6177  -12.2527   26.7776 C   0  0  0  0  0  0  0  0  0  0  0  0
    6.1166  -13.1305   25.8468 C   0  0  0  0  0  0  0  0  0  0  0  0
    9.2862  -15.6154   26.4096 C   0  0  0  0  0  0  0  0  0  0  0  0
    9.9402  -15.1929   27.4108 O   0  0  0  0  0  0  0  0  0  0  0  0
    8.5535  -16.7701   26.6312 O   0  0  0  0  0  0  0  0  0  0  0  0
  2  1  1  6
  3  2  1  0
  4  3  1  0
  5  2  1  0
  5  6  2  0
  8  7  1  0
  8 10  1  0
  9  8  2  0
 12 11  1  6
 11 10  1  0
 12 13  1  0
 13  5  1  0
 14 12  1  0
 15 14  2  0
 16 14  1  0
 17 16  1  0
 17 25  1  0
 17 18  1  6
 19 24  2  0
 19 18  1  0
 20 19  1  0
 21 22  1  0
 21 20  2  0
 22 23  2  0
 23 24  1  0
 25 27  1  0
 26 25  2  0
M  END
$$$$
