CQF.pdb
     RDKit          3D

 27 27  0  0  1  0  0  0  0  0999 V2000
    7.5517  -13.9855   18.3987 N   0  0  0  0  0  0  0  0  0  0  0  0
    8.3319  -13.8972   19.6106 C   0  0  1  0  0  0  0  0  0  0  0  0
    8.0133  -12.5440   20.2314 C   0  0  0  0  0  0  0  0  0  0  0  0
    8.8810  -12.3589   21.7931 S   0  0  0  0  0  0  0  0  0  0  0  0
    7.9594  -14.9762   20.5759 C   0  0  0  0  0  0  0  0  0  0  0  0
    6.9332  -15.6781   20.3830 O   0  0  0  0  0  0  0  0  0  0  0  0
   12.2122  -18.7077   19.7918 N   0  0  0  0  0  0  0  0  0  0  0  0
   11.6525  -19.0760   21.0390 C   0  0  0  0  0  0  0  0  0  0  0  0
   12.3593  -19.6866   21.8613 O   0  0  0  0  0  0  0  0  0  0  0  0
   10.2396  -18.7278   21.3360 C   0  0  0  0  0  0  0  0  0  0  0  0
    9.8816  -17.2991   21.0485 C   0  0  0  0  0  0  0  0  0  0  0  0
    9.0661  -16.6203   22.0925 C   0  0  2  0  0  0  0  0  0  0  0  0
    8.7309  -15.2530   21.7312 N   0  0  0  0  0  0  0  0  0  0  0  0
    9.6950  -16.6503   23.4584 C   0  0  0  0  0  0  0  0  0  0  0  0
   10.0507  -17.7233   24.0003 O   0  0  0  0  0  0  0  0  0  0  0  0
    9.9072  -15.4438   24.1850 N   0  0  0  0  0  0  0  0  0  0  0  0
    9.3206  -15.3380   25.5257 C   0  0  1  0  0  0  0  0  0  0  0  0
    7.8394  -15.1135   25.3210 C   0  0  0  0  0  0  0  0  0  0  0  0
    7.4158  -13.7573   25.7236 C   0  0  0  0  0  0  0  0  0  0  0  0
    6.0903  -13.4219   25.8234 C   0  0  0  0  0  0  0  0  0  0  0  0
    5.7411  -12.1473   26.2019 C   0  0  0  0  0  0  0  0  0  0  0  0
    6.6820  -11.1854   26.4873 C   0  0  0  0  0  0  0  0  0  0  0  0
    8.0156  -11.5276   26.3854 C   0  0  0  0  0  0  0  0  0  0  0  0
    8.3667  -12.8002   26.0076 C   0  0  0  0  0  0  0  0  0  0  0  0
    9.6288  -16.5151   26.3413 C   0  0  0  0  0  0  0  0  0  0  0  0
    9.7157  -16.4785   27.6061 O   0  0  0  0  0  0  0  0  0  0  0  0
    9.8469  -17.7597   25.7731 O   0  0  0  0  0  0  0  0  0  0  0  0
  2  1  1  6
  3  2  1  0
  4  3  1  0
  5  2  1  0
  5  6  2  0
  8  7  1  0
  8 10  1  0
  9  8  2  0
 12 11  1  6
 11 10  1  0
 12 13  1  0
 13  5  1  0
 14 12  1  0
 15 14  2  0
 16 14  1  0
 17 16  1  0
 17 25  1  0
 17 18  1  6
 19 24  2  0
 19 18  1  0
 20 19  1  0
 21 22  1  0
 21 20  2  0
 22 23  2  0
 23 24  1  0
 25 27  1  0
 26 25  2  0
M  END
$$$$
