RYF.pdb
     RDKit          3D

 35 36  0  0  1  0  0  0  0  0999 V2000
   30.2361  -19.0808  -21.9479 N   0  0  0  0  0  0  0  0  0  0  0  0
   30.0030  -20.4750  -21.9040 C   0  0  0  0  0  0  0  0  0  0  0  0
   30.8518  -21.3153  -22.3386 N   0  0  0  0  0  0  0  0  0  0  0  0
   28.7762  -20.9847  -21.3557 N   0  0  0  0  0  0  0  0  0  0  0  0
   27.7834  -20.0559  -20.8701 C   0  0  0  0  0  0  0  0  0  0  0  0
   28.1992  -19.5693  -19.5071 C   0  0  0  0  0  0  0  0  0  0  0  0
   27.3336  -20.0995  -18.4134 C   0  0  0  0  0  0  0  0  0  0  0  0
   28.1684  -20.8368  -17.4192 C   0  0  2  0  0  0  0  0  0  0  0  0
   28.5981  -22.0898  -18.0291 N   0  0  0  0  0  0  0  0  0  0  0  0
   27.3845  -21.1522  -16.1735 C   0  0  0  0  0  0  0  0  0  0  0  0
   26.5493  -22.0935  -16.1542 O   0  0  0  0  0  0  0  0  0  0  0  0
   30.6854  -22.3379  -22.3614 O   0  0  0  0  0  0  0  0  0  0  0  0
   24.6907  -20.5037   -7.6420 C   0  0  0  0  0  0  0  0  0  0  0  0
   25.3586  -20.3937   -8.8435 C   0  0  0  0  0  0  0  0  0  0  0  0
   25.7096  -19.2062   -9.4041 C   0  0  0  0  0  0  0  0  0  0  0  0
   26.3816  -19.1231  -10.6147 C   0  0  0  0  0  0  0  0  0  0  0  0
   26.7234  -20.2672  -11.3043 C   0  0  0  0  0  0  0  0  0  0  0  0
   27.4318  -20.1837  -12.5754 C   0  0  1  0  0  0  0  0  0  0  0  0
   26.7192  -20.6741  -13.7991 N   0  0  0  0  0  0  0  0  0  0  0  0
   27.5515  -20.4110  -14.9828 C   0  0  0  0  0  0  0  0  0  0  0  0
   25.3633  -20.1535  -14.0013 O   0  0  0  0  0  0  0  0  0  0  0  0
   25.2480  -19.0473  -14.6599 C   0  0  0  0  0  0  0  0  0  0  0  0
   26.3567  -21.4804  -10.7169 C   0  0  0  0  0  0  0  0  0  0  0  0
   25.6911  -21.5520   -9.5172 N   0  0  0  0  0  0  0  0  0  0  0  0
   24.1381  -20.6954  -13.5820 C   0  0  2  0  0  0  0  0  0  0  0  0
   22.8542  -20.1010  -13.9307 C   0  0  0  0  0  0  0  0  0  0  0  0
   22.7376  -20.2022  -15.4307 C   0  0  0  0  0  0  0  0  0  0  0  0
   21.4819  -19.6482  -15.9594 C   0  0  0  0  0  0  0  0  0  0  0  0
   21.4680  -18.3124  -16.3072 C   0  0  0  0  0  0  0  0  0  0  0  0
   20.3064  -17.7387  -16.8124 C   0  0  0  0  0  0  0  0  0  0  0  0
   19.1770  -18.4838  -16.9684 C   0  0  0  0  0  0  0  0  0  0  0  0
   19.1547  -19.8038  -16.6358 C   0  0  0  0  0  0  0  0  0  0  0  0
   20.3262  -20.3651  -16.1308 C   0  0  0  0  0  0  0  0  0  0  0  0
   21.7554  -20.8702  -13.3575 O   0  0  0  0  0  0  0  0  0  0  0  0
   20.7696  -20.2110  -12.8802 O   0  0  0  0  0  0  0  0  0  0  0  0
  2  3  2  0
  2  1  1  0
  4  2  1  0
  5  4  1  0
  6  7  1  0
  6  5  1  0
  7  8  1  0
  8 10  1  0
  8  9  1  6
 10 19  1  0
 10 11  2  0
 12 13  1  0
 13 14  2  0
 14 15  1  0
 16 17  1  0
 16 15  2  0
 18 17  1  1
 18 20  1  0
 19 18  1  0
 20 21  2  0
 22 16  1  0
 23 22  2  0
 23 13  1  0
 24 20  1  0
 24 25  1  0
 25 33  1  0
 25 26  1  6
 27 26  1  0
 27 32  1  0
 28 27  2  0
 29 28  1  0
 29 30  2  0
 30 31  1  0
 31 32  2  0
 33 35  1  0
 34 33  2  0
M  END
$$$$
