RYF.pdb
     RDKit          3D

 35 36  0  0  1  0  0  0  0  0999 V2000
   29.2617  -26.3385  -16.9772 N   0  0  0  0  0  0  0  0  0  0  0  0
   28.3787  -27.3927  -16.6470 C   0  0  0  0  0  0  0  0  0  0  0  0
   28.7584  -28.4088  -15.9846 N   0  0  0  0  0  0  0  0  0  0  0  0
   27.0035  -27.3386  -17.0608 N   0  0  0  0  0  0  0  0  0  0  0  0
   26.3000  -26.0794  -17.0011 C   0  0  0  0  0  0  0  0  0  0  0  0
   25.9518  -25.7854  -15.5660 C   0  0  0  0  0  0  0  0  0  0  0  0
   25.2297  -24.4903  -15.3983 C   0  0  0  0  0  0  0  0  0  0  0  0
   24.2466  -24.3113  -16.5075 C   0  0  2  0  0  0  0  0  0  0  0  0
   24.9137  -23.6037  -17.5942 N   0  0  0  0  0  0  0  0  0  0  0  0
   23.0605  -23.4990  -16.0612 C   0  0  0  0  0  0  0  0  0  0  0  0
   23.1796  -22.2778  -15.7812 O   0  0  0  0  0  0  0  0  0  0  0  0
   28.1394  -29.2081  -15.7568 O   0  0  0  0  0  0  0  0  0  0  0  0
   21.4017  -19.5520  -20.7825 C   0  0  0  0  0  0  0  0  0  0  0  0
   20.9696  -20.3844  -19.7715 C   0  0  0  0  0  0  0  0  0  0  0  0
   20.0871  -20.0058  -18.8095 C   0  0  0  0  0  0  0  0  0  0  0  0
   19.6682  -20.8633  -17.8028 C   0  0  0  0  0  0  0  0  0  0  0  0
   20.1435  -22.1563  -17.7435 C   0  0  0  0  0  0  0  0  0  0  0  0
   19.7037  -23.0608  -16.6886 C   0  0  2  0  0  0  0  0  0  0  0  0
   20.6197  -23.2586  -15.5192 N   0  0  0  0  0  0  0  0  0  0  0  0
   21.7736  -24.0682  -15.9388 C   0  0  0  0  0  0  0  0  0  0  0  0
   20.0060  -23.8282  -14.3153 O   0  0  0  0  0  0  0  0  0  0  0  0
   20.2738  -25.0634  -14.0443 C   0  0  0  0  0  0  0  0  0  0  0  0
   21.0497  -22.5322  -18.7381 C   0  0  0  0  0  0  0  0  0  0  0  0
   21.4583  -21.6751  -19.7310 N   0  0  0  0  0  0  0  0  0  0  0  0
   19.1542  -23.2140  -13.3838 C   0  0  1  0  0  0  0  0  0  0  0  0
   18.5202  -23.9461  -12.2950 C   0  0  0  0  0  0  0  0  0  0  0  0
   19.6360  -24.4006  -11.3882 C   0  0  0  0  0  0  0  0  0  0  0  0
   19.1648  -25.1178  -10.1937 C   0  0  0  0  0  0  0  0  0  0  0  0
   19.0103  -26.4863  -10.2883 C   0  0  0  0  0  0  0  0  0  0  0  0
   18.5678  -27.2125   -9.1881 C   0  0  0  0  0  0  0  0  0  0  0  0
   18.2838  -26.5855   -8.0128 C   0  0  0  0  0  0  0  0  0  0  0  0
   18.4247  -25.2375   -7.8838 C   0  0  0  0  0  0  0  0  0  0  0  0
   18.8691  -24.5227   -8.9948 C   0  0  0  0  0  0  0  0  0  0  0  0
   17.6576  -23.0667  -11.5139 O   0  0  0  0  0  0  0  0  0  0  0  0
   17.9142  -21.8149  -11.5519 O   0  0  0  0  0  0  0  0  0  0  0  0
  2  3  2  0
  2  1  1  0
  4  2  1  0
  5  4  1  0
  6  7  1  0
  6  5  1  0
  7  8  1  0
  8 10  1  0
  8  9  1  6
 10 19  1  0
 10 11  2  0
 12 13  1  0
 13 14  2  0
 14 15  1  0
 16 17  1  0
 16 15  2  0
 18 17  1  6
 18 20  1  0
 19 18  1  0
 20 21  2  0
 22 16  1  0
 23 22  2  0
 23 13  1  0
 24 20  1  0
 24 25  1  0
 25 33  1  0
 25 26  1  6
 27 26  1  0
 27 32  1  0
 28 27  2  0
 29 28  1  0
 29 30  2  0
 30 31  1  0
 31 32  2  0
 33 35  1  0
 34 33  2  0
M  END
$$$$
