RYF.pdb
     RDKit          3D

 35 36  0  0  1  0  0  0  0  0999 V2000
   46.5900  -14.2720   -7.1485 N   0  0  0  0  0  0  0  0  0  0  0  0
   47.7837  -13.5399   -6.9508 C   0  0  0  0  0  0  0  0  0  0  0  0
   48.8237  -14.0681   -6.4459 N   0  0  0  0  0  0  0  0  0  0  0  0
   47.8503  -12.1537   -7.3239 N   0  0  0  0  0  0  0  0  0  0  0  0
   46.6400  -11.4722   -7.7172 C   0  0  0  0  0  0  0  0  0  0  0  0
   45.5303  -11.8751   -6.7825 C   0  0  0  0  0  0  0  0  0  0  0  0
   44.2025  -11.3294   -7.1897 C   0  0  0  0  0  0  0  0  0  0  0  0
   44.0328   -9.9502   -6.6441 C   0  0  2  0  0  0  0  0  0  0  0  0
   44.3849   -9.9763   -5.2292 N   0  0  0  0  0  0  0  0  0  0  0  0
   42.6087   -9.4809   -6.7767 C   0  0  0  0  0  0  0  0  0  0  0  0
   41.6664  -10.1047   -6.2226 O   0  0  0  0  0  0  0  0  0  0  0  0
   49.6578  -13.5261   -6.1553 O   0  0  0  0  0  0  0  0  0  0  0  0
   35.7405   -4.1904   -8.9935 C   0  0  0  0  0  0  0  0  0  0  0  0
   36.9605   -4.7417   -8.6629 C   0  0  0  0  0  0  0  0  0  0  0  0
   38.0804   -4.6016   -9.4202 C   0  0  0  0  0  0  0  0  0  0  0  0
   39.2963   -5.1669   -9.0647 C   0  0  0  0  0  0  0  0  0  0  0  0
   39.4114   -5.9054   -7.9061 C   0  0  0  0  0  0  0  0  0  0  0  0
   40.6880   -6.4987   -7.5282 C   0  0  1  0  0  0  0  0  0  0  0  0
   40.8685   -7.9666   -7.7704 N   0  0  0  0  0  0  0  0  0  0  0  0
   42.2720   -8.3297   -7.5227 C   0  0  0  0  0  0  0  0  0  0  0  0
   40.4380   -8.4556   -9.0841 O   0  0  0  0  0  0  0  0  0  0  0  0
   41.2178   -8.2176  -10.0871 C   0  0  0  0  0  0  0  0  0  0  0  0
   38.2529   -6.0414   -7.1373 C   0  0  0  0  0  0  0  0  0  0  0  0
   37.0533   -5.4776   -7.4983 N   0  0  0  0  0  0  0  0  0  0  0  0
   39.2779   -9.1696   -9.4234 C   0  0  2  0  0  0  0  0  0  0  0  0
   38.9151   -9.4722  -10.8018 C   0  0  0  0  0  0  0  0  0  0  0  0
   37.9048  -10.5896  -10.7352 C   0  0  0  0  0  0  0  0  0  0  0  0
   37.3763  -10.9808  -12.0508 C   0  0  0  0  0  0  0  0  0  0  0  0
   38.1378  -11.8408  -12.8164 C   0  0  0  0  0  0  0  0  0  0  0  0
   37.6840  -12.2424  -14.0679 C   0  0  0  0  0  0  0  0  0  0  0  0
   36.4911  -11.7945  -14.5490 C   0  0  0  0  0  0  0  0  0  0  0  0
   35.7144  -10.9456  -13.8212 C   0  0  0  0  0  0  0  0  0  0  0  0
   36.1819  -10.5517  -12.5687 C   0  0  0  0  0  0  0  0  0  0  0  0
   38.2574   -8.3296  -11.4261 O   0  0  0  0  0  0  0  0  0  0  0  0
   38.6422   -8.0067  -12.6016 O   0  0  0  0  0  0  0  0  0  0  0  0
  2  3  2  0
  2  1  1  0
  4  2  1  0
  5  4  1  0
  6  7  1  0
  6  5  1  0
  7  8  1  0
  8 10  1  0
  8  9  1  1
 10 19  1  0
 10 11  2  0
 12 13  1  0
 13 14  2  0
 14 15  1  0
 16 17  1  0
 16 15  2  0
 18 17  1  1
 18 20  1  0
 19 18  1  0
 20 21  2  0
 22 16  1  0
 23 22  2  0
 23 13  1  0
 24 20  1  0
 24 25  1  0
 25 33  1  0
 25 26  1  1
 27 26  1  0
 27 32  1  0
 28 27  2  0
 29 28  1  0
 29 30  2  0
 30 31  1  0
 31 32  2  0
 33 35  1  0
 34 33  2  0
M  END
$$$$
