RYF.pdb
     RDKit          3D

 35 36  0  0  1  0  0  0  0  0999 V2000
   28.9979  -28.6358  -18.5095 N   0  0  0  0  0  0  0  0  0  0  0  0
   28.3232  -29.0756  -17.3470 C   0  0  0  0  0  0  0  0  0  0  0  0
   28.3539  -30.2880  -16.9667 N   0  0  0  0  0  0  0  0  0  0  0  0
   27.5721  -28.1432  -16.5521 N   0  0  0  0  0  0  0  0  0  0  0  0
   27.4879  -26.7657  -16.9759 C   0  0  0  0  0  0  0  0  0  0  0  0
   26.0566  -26.3108  -16.8667 C   0  0  0  0  0  0  0  0  0  0  0  0
   25.9328  -24.8597  -16.5418 C   0  0  0  0  0  0  0  0  0  0  0  0
   27.0107  -24.0922  -17.2330 C   0  0  2  0  0  0  0  0  0  0  0  0
   28.1382  -23.9692  -16.3163 N   0  0  0  0  0  0  0  0  0  0  0  0
   26.5439  -22.7114  -17.6091 C   0  0  0  0  0  0  0  0  0  0  0  0
   25.8666  -22.0156  -16.8084 O   0  0  0  0  0  0  0  0  0  0  0  0
   27.7758  -30.6598  -16.1912 O   0  0  0  0  0  0  0  0  0  0  0  0
   27.1685  -14.7392  -21.5172 C   0  0  0  0  0  0  0  0  0  0  0  0
   27.3105  -16.0279  -21.0472 C   0  0  0  0  0  0  0  0  0  0  0  0
   27.4825  -17.1088  -21.8531 C   0  0  0  0  0  0  0  0  0  0  0  0
   27.6231  -18.3956  -21.3545 C   0  0  0  0  0  0  0  0  0  0  0  0
   27.5924  -18.6256  -19.9954 C   0  0  0  0  0  0  0  0  0  0  0  0
   27.7423  -19.9761  -19.4679 C   0  0  1  0  0  0  0  0  0  0  0  0
   26.4917  -20.7481  -19.1749 N   0  0  0  0  0  0  0  0  0  0  0  0
   26.8438  -22.1424  -18.8666 C   0  0  0  0  0  0  0  0  0  0  0  0
   25.4532  -20.6996  -20.2090 O   0  0  0  0  0  0  0  0  0  0  0  0
   25.6302  -21.4336  -21.2581 C   0  0  0  0  0  0  0  0  0  0  0  0
   27.4151  -17.5061  -19.1789 C   0  0  0  0  0  0  0  0  0  0  0  0
   27.2767  -16.2355  -19.6827 N   0  0  0  0  0  0  0  0  0  0  0  0
   24.2594  -19.9612  -20.2271 C   0  0  2  0  0  0  0  0  0  0  0  0
   23.3515  -19.9610  -21.3669 C   0  0  0  0  0  0  0  0  0  0  0  0
   21.9571  -19.9923  -20.7938 C   0  0  0  0  0  0  0  0  0  0  0  0
   21.5092  -18.6925  -20.2711 C   0  0  0  0  0  0  0  0  0  0  0  0
   21.6868  -18.4488  -18.9241 C   0  0  0  0  0  0  0  0  0  0  0  0
   21.2812  -17.2356  -18.3789 C   0  0  0  0  0  0  0  0  0  0  0  0
   20.7078  -16.2808  -19.1630 C   0  0  0  0  0  0  0  0  0  0  0  0
   20.5173  -16.4872  -20.4952 C   0  0  0  0  0  0  0  0  0  0  0  0
   20.9288  -17.7078  -21.0276 C   0  0  0  0  0  0  0  0  0  0  0  0
   23.4792  -18.7242  -22.1295 O   0  0  0  0  0  0  0  0  0  0  0  0
   22.9604  -18.7039  -23.2977 O   0  0  0  0  0  0  0  0  0  0  0  0
  2  3  2  0
  2  1  1  0
  4  2  1  0
  5  4  1  0
  6  7  1  0
  6  5  1  0
  7  8  1  0
  8 10  1  0
  8  9  1  1
 10 19  1  0
 10 11  2  0
 12 13  1  0
 13 14  2  0
 14 15  1  0
 16 17  1  0
 16 15  2  0
 18 17  1  1
 18 20  1  0
 19 18  1  0
 20 21  2  0
 22 16  1  0
 23 22  2  0
 23 13  1  0
 24 20  1  0
 24 25  1  0
 25 33  1  0
 25 26  1  1
 27 26  1  0
 27 32  1  0
 28 27  2  0
 29 28  1  0
 29 30  2  0
 30 31  1  0
 31 32  2  0
 33 35  1  0
 34 33  2  0
M  END
$$$$
