RYF.pdb
     RDKit          3D

 35 36  0  0  1  0  0  0  0  0999 V2000
   31.8920  -24.5850  -15.7334 N   0  0  0  0  0  0  0  0  0  0  0  0
   31.8908  -25.0789  -17.0586 C   0  0  0  0  0  0  0  0  0  0  0  0
   32.5987  -26.0750  -17.4083 N   0  0  0  0  0  0  0  0  0  0  0  0
   31.0726  -24.4538  -18.0611 N   0  0  0  0  0  0  0  0  0  0  0  0
   30.1021  -23.4633  -17.6596 C   0  0  0  0  0  0  0  0  0  0  0  0
   28.9402  -24.1604  -17.0028 C   0  0  0  0  0  0  0  0  0  0  0  0
   27.6183  -23.6582  -17.4795 C   0  0  0  0  0  0  0  0  0  0  0  0
   27.3950  -22.2686  -16.9817 C   0  0  2  0  0  0  0  0  0  0  0  0
   28.6977  -21.6460  -16.7767 N   0  0  0  0  0  0  0  0  0  0  0  0
   26.6511  -22.2693  -15.6730 C   0  0  0  0  0  0  0  0  0  0  0  0
   25.6192  -22.9722  -15.5145 O   0  0  0  0  0  0  0  0  0  0  0  0
   32.6432  -26.4331  -18.3798 O   0  0  0  0  0  0  0  0  0  0  0  0
   24.5925  -20.0112   -7.2436 C   0  0  0  0  0  0  0  0  0  0  0  0
   25.2067  -20.1906   -8.4652 C   0  0  0  0  0  0  0  0  0  0  0  0
   25.6163  -19.1668   -9.2599 C   0  0  0  0  0  0  0  0  0  0  0  0
   26.2323  -19.3747  -10.4852 C   0  0  0  0  0  0  0  0  0  0  0  0
   26.4544  -20.6546  -10.9476 C   0  0  0  0  0  0  0  0  0  0  0  0
   27.1035  -20.8768  -12.2335 C   0  0  1  0  0  0  0  0  0  0  0  0
   26.2497  -21.3602  -13.3663 N   0  0  0  0  0  0  0  0  0  0  0  0
   27.0761  -21.4875  -14.5761 C   0  0  0  0  0  0  0  0  0  0  0  0
   25.0503  -20.5648  -13.6476 O   0  0  0  0  0  0  0  0  0  0  0  0
   25.2285  -19.3762  -14.1232 C   0  0  0  0  0  0  0  0  0  0  0  0
   26.0285  -21.6972  -10.1210 C   0  0  0  0  0  0  0  0  0  0  0  0
   25.4192  -21.4807   -8.9089 N   0  0  0  0  0  0  0  0  0  0  0  0
   23.7007  -20.9134  -13.4805 C   0  0  1  0  0  0  0  0  0  0  0  0
   22.6437  -19.9209  -13.3358 C   0  0  0  0  0  0  0  0  0  0  0  0
   22.5149  -19.2452  -14.6776 C   0  0  0  0  0  0  0  0  0  0  0  0
   22.2109  -20.1758  -15.7753 C   0  0  0  0  0  0  0  0  0  0  0  0
   20.8944  -20.5533  -15.9482 C   0  0  0  0  0  0  0  0  0  0  0  0
   20.5527  -21.4308  -16.9713 C   0  0  0  0  0  0  0  0  0  0  0  0
   21.5070  -21.9243  -17.8085 C   0  0  0  0  0  0  0  0  0  0  0  0
   22.8148  -21.5735  -17.6672 C   0  0  0  0  0  0  0  0  0  0  0  0
   23.1425  -20.6932  -16.6375 C   0  0  0  0  0  0  0  0  0  0  0  0
   21.3662  -20.5640  -13.0496 O   0  0  0  0  0  0  0  0  0  0  0  0
   20.3368  -19.8092  -12.9795 O   0  0  0  0  0  0  0  0  0  0  0  0
  2  3  2  0
  2  1  1  0
  4  2  1  0
  5  4  1  0
  6  7  1  0
  6  5  1  0
  7  8  1  0
  8 10  1  0
  8  9  1  1
 10 19  1  0
 10 11  2  0
 12 13  1  0
 13 14  2  0
 14 15  1  0
 16 17  1  0
 16 15  2  0
 18 17  1  1
 18 20  1  0
 19 18  1  0
 20 21  2  0
 22 16  1  0
 23 22  2  0
 23 13  1  0
 24 20  1  0
 24 25  1  0
 25 33  1  0
 25 26  1  1
 27 26  1  0
 27 32  1  0
 28 27  2  0
 29 28  1  0
 29 30  2  0
 30 31  1  0
 31 32  2  0
 33 35  1  0
 34 33  2  0
M  END
$$$$
