RYF.pdb
     RDKit          3D

 35 36  0  0  1  0  0  0  0  0999 V2000
   31.9303  -25.7247  -18.5439 N   0  0  0  0  0  0  0  0  0  0  0  0
   32.0525  -25.8867  -17.1444 C   0  0  0  0  0  0  0  0  0  0  0  0
   33.0772  -26.4193  -16.6135 N   0  0  0  0  0  0  0  0  0  0  0  0
   30.9998  -25.4440  -16.2719 N   0  0  0  0  0  0  0  0  0  0  0  0
   29.8927  -24.7015  -16.8259 C   0  0  0  0  0  0  0  0  0  0  0  0
   30.3551  -23.3038  -17.1421 C   0  0  0  0  0  0  0  0  0  0  0  0
   29.4046  -22.2570  -16.6655 C   0  0  0  0  0  0  0  0  0  0  0  0
   27.9994  -22.7124  -16.8820 C   0  0  2  0  0  0  0  0  0  0  0  0
   27.6852  -22.5547  -18.2973 N   0  0  0  0  0  0  0  0  0  0  0  0
   27.0279  -21.8894  -16.0790 C   0  0  0  0  0  0  0  0  0  0  0  0
   27.1244  -20.6355  -16.0323 O   0  0  0  0  0  0  0  0  0  0  0  0
   33.2293  -26.4731  -15.5898 O   0  0  0  0  0  0  0  0  0  0  0  0
   19.7684  -19.4393  -11.5701 C   0  0  0  0  0  0  0  0  0  0  0  0
   20.7231  -20.0493  -12.3564 C   0  0  0  0  0  0  0  0  0  0  0  0
   21.2478  -19.4865  -13.4769 C   0  0  0  0  0  0  0  0  0  0  0  0
   22.2078  -20.1218  -14.2507 C   0  0  0  0  0  0  0  0  0  0  0  0
   22.6717  -21.3723  -13.9013 C   0  0  0  0  0  0  0  0  0  0  0  0
   23.6821  -22.0418  -14.7108 C   0  0  1  0  0  0  0  0  0  0  0  0
   25.1164  -21.6857  -14.4623 N   0  0  0  0  0  0  0  0  0  0  0  0
   25.9749  -22.4848  -15.3497 C   0  0  0  0  0  0  0  0  0  0  0  0
   25.5718  -21.7982  -13.0730 O   0  0  0  0  0  0  0  0  0  0  0  0
   25.9293  -22.9704  -12.6621 C   0  0  0  0  0  0  0  0  0  0  0  0
   22.1240  -21.9390  -12.7479 C   0  0  0  0  0  0  0  0  0  0  0  0
   21.1734  -21.3015  -11.9882 N   0  0  0  0  0  0  0  0  0  0  0  0
   25.6880  -20.7946  -12.0982 C   0  0  2  0  0  0  0  0  0  0  0  0
   26.1617  -21.0618  -10.7464 C   0  0  0  0  0  0  0  0  0  0  0  0
   27.1888  -20.0002  -10.4432 C   0  0  0  0  0  0  0  0  0  0  0  0
   27.6663  -20.0273   -9.0523 C   0  0  0  0  0  0  0  0  0  0  0  0
   28.7765  -20.7983   -8.7718 C   0  0  0  0  0  0  0  0  0  0  0  0
   29.2694  -20.8585   -7.4729 C   0  0  0  0  0  0  0  0  0  0  0  0
   28.6660  -20.1622   -6.4699 C   0  0  0  0  0  0  0  0  0  0  0  0
   27.5694  -19.3920   -6.7104 C   0  0  0  0  0  0  0  0  0  0  0  0
   27.0867  -19.3412   -8.0170 C   0  0  0  0  0  0  0  0  0  0  0  0
   25.0803  -20.9077   -9.7796 O   0  0  0  0  0  0  0  0  0  0  0  0
   24.1651  -20.0602  -10.0594 O   0  0  0  0  0  0  0  0  0  0  0  0
  2  3  2  0
  2  1  1  0
  4  2  1  0
  5  4  1  0
  6  7  1  0
  6  5  1  0
  7  8  1  0
  8 10  1  0
  8  9  1  6
 10 19  1  0
 10 11  2  0
 12 13  1  0
 13 14  2  0
 14 15  1  0
 16 17  1  0
 16 15  2  0
 18 17  1  6
 18 20  1  0
 19 18  1  0
 20 21  2  0
 22 16  1  0
 23 22  2  0
 23 13  1  0
 24 20  1  0
 24 25  1  0
 25 33  1  0
 25 26  1  6
 27 26  1  0
 27 32  1  0
 28 27  2  0
 29 28  1  0
 29 30  2  0
 30 31  1  0
 31 32  2  0
 33 35  1  0
 34 33  2  0
M  END
$$$$
