RYF.pdb
     RDKit          3D

 35 36  0  0  1  0  0  0  0  0999 V2000
   16.1079  -22.1373  -11.7882 N   0  0  0  0  0  0  0  0  0  0  0  0
   17.1448  -22.5045  -10.8994 C   0  0  0  0  0  0  0  0  0  0  0  0
   16.9773  -23.3774   -9.9907 N   0  0  0  0  0  0  0  0  0  0  0  0
   18.4383  -21.8873  -11.0048 N   0  0  0  0  0  0  0  0  0  0  0  0
   18.6281  -20.8081  -11.9448 C   0  0  0  0  0  0  0  0  0  0  0  0
   18.8958  -21.3920  -13.3067 C   0  0  0  0  0  0  0  0  0  0  0  0
   20.1076  -22.2623  -13.3363 C   0  0  0  0  0  0  0  0  0  0  0  0
   21.0760  -21.7478  -14.3493 C   0  0  2  0  0  0  0  0  0  0  0  0
   20.7642  -22.3698  -15.6309 N   0  0  0  0  0  0  0  0  0  0  0  0
   22.4926  -22.0958  -13.9778 C   0  0  0  0  0  0  0  0  0  0  0  0
   22.8285  -23.2867  -13.7481 O   0  0  0  0  0  0  0  0  0  0  0  0
   17.7065  -23.6321   -9.2998 O   0  0  0  0  0  0  0  0  0  0  0  0
   26.4137  -15.5876  -15.7419 C   0  0  0  0  0  0  0  0  0  0  0  0
   26.2419  -16.9281  -15.4672 C   0  0  0  0  0  0  0  0  0  0  0  0
   25.1952  -17.6631  -15.9271 C   0  0  0  0  0  0  0  0  0  0  0  0
   25.0458  -19.0111  -15.6359 C   0  0  0  0  0  0  0  0  0  0  0  0
   25.9745  -19.6641  -14.8534 C   0  0  0  0  0  0  0  0  0  0  0  0
   25.8220  -21.0810  -14.5474 C   0  0  1  0  0  0  0  0  0  0  0  0
   24.8647  -21.4551  -13.4568 N   0  0  0  0  0  0  0  0  0  0  0  0
   23.4972  -21.1085  -13.8722 C   0  0  0  0  0  0  0  0  0  0  0  0
   25.1541  -20.8960  -12.1324 O   0  0  0  0  0  0  0  0  0  0  0  0
   24.5576  -19.7946  -11.8135 C   0  0  0  0  0  0  0  0  0  0  0  0
   27.0449  -18.8969  -14.3875 C   0  0  0  0  0  0  0  0  0  0  0  0
   27.1838  -17.5622  -14.6816 N   0  0  0  0  0  0  0  0  0  0  0  0
   25.9990  -21.3957  -11.1288 C   0  0  1  0  0  0  0  0  0  0  0  0
   26.6796  -20.5331  -10.1717 C   0  0  0  0  0  0  0  0  0  0  0  0
   26.7663  -21.3171   -8.8865 C   0  0  0  0  0  0  0  0  0  0  0  0
   27.3563  -20.5561   -7.7747 C   0  0  0  0  0  0  0  0  0  0  0  0
   28.6475  -20.8687   -7.3994 C   0  0  0  0  0  0  0  0  0  0  0  0
   29.2526  -20.1792   -6.3544 C   0  0  0  0  0  0  0  0  0  0  0  0
   28.5823  -19.1945   -5.6940 C   0  0  0  0  0  0  0  0  0  0  0  0
   27.3080  -18.8600   -6.0373 C   0  0  0  0  0  0  0  0  0  0  0  0
   26.7144  -19.5595   -7.0866 C   0  0  0  0  0  0  0  0  0  0  0  0
   28.0451  -20.2570  -10.6042 O   0  0  0  0  0  0  0  0  0  0  0  0
   28.6885  -21.2171  -11.1505 O   0  0  0  0  0  0  0  0  0  0  0  0
  2  3  2  0
  2  1  1  0
  4  2  1  0
  5  4  1  0
  6  7  1  0
  6  5  1  0
  7  8  1  0
  8 10  1  0
  8  9  1  6
 10 19  1  0
 10 11  2  0
 12 13  1  0
 13 14  2  0
 14 15  1  0
 16 17  1  0
 16 15  2  0
 18 17  1  6
 18 20  1  0
 19 18  1  0
 20 21  2  0
 22 16  1  0
 23 22  2  0
 23 13  1  0
 24 20  1  0
 24 25  1  0
 25 33  1  0
 25 26  1  6
 27 26  1  0
 27 32  1  0
 28 27  2  0
 29 28  1  0
 29 30  2  0
 30 31  1  0
 31 32  2  0
 33 35  1  0
 34 33  2  0
M  END
$$$$
