RYF.pdb
     RDKit          3D

 35 36  0  0  1  0  0  0  0  0999 V2000
   17.3413  -24.1519   -8.3938 N   0  0  0  0  0  0  0  0  0  0  0  0
   18.6910  -24.0085   -7.9967 C   0  0  0  0  0  0  0  0  0  0  0  0
   19.1245  -24.4767   -6.8974 N   0  0  0  0  0  0  0  0  0  0  0  0
   19.6230  -23.3164   -8.8438 N   0  0  0  0  0  0  0  0  0  0  0  0
   19.1470  -22.7077  -10.0632 C   0  0  0  0  0  0  0  0  0  0  0  0
   19.0504  -23.7670  -11.1290 C   0  0  0  0  0  0  0  0  0  0  0  0
   20.0515  -23.5843  -12.2204 C   0  0  0  0  0  0  0  0  0  0  0  0
   19.5688  -22.5498  -13.1825 C   0  0  2  0  0  0  0  0  0  0  0  0
   18.6973  -23.2039  -14.1515 N   0  0  0  0  0  0  0  0  0  0  0  0
   20.7153  -21.9119  -13.9204 C   0  0  0  0  0  0  0  0  0  0  0  0
   21.3001  -22.5166  -14.8566 O   0  0  0  0  0  0  0  0  0  0  0  0
   20.0868  -24.3178   -6.5469 O   0  0  0  0  0  0  0  0  0  0  0  0
   22.3436  -17.0937  -20.1605 C   0  0  0  0  0  0  0  0  0  0  0  0
   22.1946  -17.4635  -18.8404 C   0  0  0  0  0  0  0  0  0  0  0  0
   21.0097  -17.8438  -18.2938 C   0  0  0  0  0  0  0  0  0  0  0  0
   20.8868  -18.2114  -16.9619 C   0  0  0  0  0  0  0  0  0  0  0  0
   21.9867  -18.2030  -16.1304 C   0  0  0  0  0  0  0  0  0  0  0  0
   21.8618  -18.5910  -14.7310 C   0  0  2  0  0  0  0  0  0  0  0  0
   22.2660  -19.9855  -14.3599 N   0  0  0  0  0  0  0  0  0  0  0  0
   21.1799  -20.6180  -13.5963 C   0  0  0  0  0  0  0  0  0  0  0  0
   23.5379  -20.1128  -13.6413 O   0  0  0  0  0  0  0  0  0  0  0  0
   23.7196  -19.3396  -12.6215 C   0  0  0  0  0  0  0  0  0  0  0  0
   23.1979  -17.8102  -16.7049 C   0  0  0  0  0  0  0  0  0  0  0  0
   23.3090  -17.4478  -18.0254 N   0  0  0  0  0  0  0  0  0  0  0  0
   24.6137  -20.9776  -13.8973 C   0  0  1  0  0  0  0  0  0  0  0  0
   25.9505  -20.7499  -13.3639 C   0  0  0  0  0  0  0  0  0  0  0  0
   26.1800  -21.8248  -12.3316 C   0  0  0  0  0  0  0  0  0  0  0  0
   25.6930  -21.4636  -10.9916 C   0  0  0  0  0  0  0  0  0  0  0  0
   24.3977  -21.8125  -10.6659 C   0  0  0  0  0  0  0  0  0  0  0  0
   23.8879  -21.4949   -9.4118 C   0  0  0  0  0  0  0  0  0  0  0  0
   24.6560  -20.8404   -8.4970 C   0  0  0  0  0  0  0  0  0  0  0  0
   25.9374  -20.4811   -8.7842 C   0  0  0  0  0  0  0  0  0  0  0  0
   26.4349  -20.8060  -10.0450 C   0  0  0  0  0  0  0  0  0  0  0  0
   26.9587  -20.9246  -14.4034 O   0  0  0  0  0  0  0  0  0  0  0  0
   26.5421  -21.2197  -15.5754 O   0  0  0  0  0  0  0  0  0  0  0  0
  2  3  2  0
  2  1  1  0
  4  2  1  0
  5  4  1  0
  6  7  1  0
  6  5  1  0
  7  8  1  0
  8 10  1  0
  8  9  1  6
 10 19  1  0
 10 11  2  0
 12 13  1  0
 13 14  2  0
 14 15  1  0
 16 17  1  0
 16 15  2  0
 18 17  1  6
 18 20  1  0
 19 18  1  0
 20 21  2  0
 22 16  1  0
 23 22  2  0
 23 13  1  0
 24 20  1  0
 24 25  1  0
 25 33  1  0
 25 26  1  6
 27 26  1  0
 27 32  1  0
 28 27  2  0
 29 28  1  0
 29 30  2  0
 30 31  1  0
 31 32  2  0
 33 35  1  0
 34 33  2  0
M  END
$$$$
