ETC.pdb
     RDKit          3D

 23 22  0  0  1  0  0  0  0  0999 V2000
   12.4436  -17.9025   19.4090 N   0  0  0  0  0  0  0  0  0  0  0  0
   12.8062  -17.8403   20.8181 C   0  0  1  0  0  0  0  0  0  0  0  0
   14.2141  -17.3568   20.9320 C   0  0  0  0  0  0  0  0  0  0  0  0
   15.1332  -18.4425   20.4122 C   0  0  0  0  0  0  0  0  0  0  0  0
   16.5631  -18.0988   20.5891 C   0  0  0  0  0  0  0  0  0  0  0  0
   17.2572  -18.5861   21.5168 O   0  0  0  0  0  0  0  0  0  0  0  0
   11.8739  -16.9204   21.5489 C   0  0  0  0  0  0  0  0  0  0  0  0
   11.5544  -15.7998   21.0975 O   0  0  0  0  0  0  0  0  0  0  0  0
   17.1429  -17.2059   19.6904 O   0  0  0  0  0  0  0  0  0  0  0  0
    8.4979  -17.1619   22.0476 C   0  0  0  0  0  0  0  0  0  0  0  0
    9.0447  -17.1663   23.4585 C   0  0  1  0  0  0  0  0  0  0  0  0
    9.1562  -18.5239   23.8439 O   0  0  0  0  0  0  0  0  0  0  0  0
   10.3866  -16.5220   23.5378 C   0  0  2  0  0  0  0  0  0  0  0  0
   11.3340  -17.3271   22.7923 N   0  0  0  0  0  0  0  0  0  0  0  0
   10.8424  -16.2373   24.9030 C   0  0  0  0  0  0  0  0  0  0  0  0
   11.8035  -16.8823   25.3815 O   0  0  0  0  0  0  0  0  0  0  0  0
   10.2353  -15.2502   25.7213 N   0  0  0  0  0  0  0  0  0  0  0  0
   10.6829  -15.0161   27.0802 C   0  0  1  0  0  0  0  0  0  0  0  0
    9.9390  -13.8273   27.6267 C   0  0  0  0  0  0  0  0  0  0  0  0
   10.4195  -13.4174   29.3071 S   0  0  0  0  0  0  0  0  0  0  0  0
   10.2974  -16.2279   27.8867 C   0  0  0  0  0  0  0  0  0  0  0  0
   11.1130  -16.7356   28.8891 O   0  0  0  0  0  0  0  0  0  0  0  0
    9.2104  -16.8296   27.6784 O   0  0  0  0  0  0  0  0  0  0  0  0
  2  1  1  6
  2  3  1  0
  4  3  1  0
  5  4  1  0
  6  5  2  0
  7  2  1  0
  7  8  2  0
  9  5  1  0
 11 10  1  6
 11 12  1  0
 11 13  1  0
 13 14  1  1
 14  7  1  0
 15 13  1  0
 16 15  2  0
 17 15  1  0
 18 17  1  0
 18 21  1  0
 19 20  1  0
 18 19  1  1
 21 22  1  0
 23 21  2  0
M  END
$$$$
