ETC.pdb
     RDKit          3D

 23 22  0  0  1  0  0  0  0  0999 V2000
   12.5809  -18.2007   20.0491 N   0  0  0  0  0  0  0  0  0  0  0  0
   12.9509  -18.0979   21.4539 C   0  0  1  0  0  0  0  0  0  0  0  0
   14.3745  -17.6578   21.5459 C   0  0  0  0  0  0  0  0  0  0  0  0
   15.1031  -18.1437   20.3103 C   0  0  0  0  0  0  0  0  0  0  0  0
   16.5156  -17.6987   20.2811 C   0  0  0  0  0  0  0  0  0  0  0  0
   17.4067  -18.2594   20.9678 O   0  0  0  0  0  0  0  0  0  0  0  0
   12.0526  -17.1207   22.1521 C   0  0  0  0  0  0  0  0  0  0  0  0
   11.8553  -15.9671   21.7143 O   0  0  0  0  0  0  0  0  0  0  0  0
   16.8517  -16.6235   19.4612 O   0  0  0  0  0  0  0  0  0  0  0  0
    8.0812  -16.4513   24.7272 C   0  0  0  0  0  0  0  0  0  0  0  0
    9.1044  -17.2456   23.9450 C   0  0  1  0  0  0  0  0  0  0  0  0
    8.6866  -17.2207   22.5926 O   0  0  0  0  0  0  0  0  0  0  0  0
   10.4679  -16.6520   24.0483 C   0  0  2  0  0  0  0  0  0  0  0  0
   11.4031  -17.5099   23.3479 N   0  0  0  0  0  0  0  0  0  0  0  0
   10.8967  -16.3538   25.4194 C   0  0  0  0  0  0  0  0  0  0  0  0
   11.8683  -16.9718   25.9120 O   0  0  0  0  0  0  0  0  0  0  0  0
   10.2515  -15.3830   26.2280 N   0  0  0  0  0  0  0  0  0  0  0  0
   10.6694  -15.1403   27.5949 C   0  0  1  0  0  0  0  0  0  0  0  0
    9.9655  -13.9072   28.0944 C   0  0  0  0  0  0  0  0  0  0  0  0
   10.1586  -12.5015   26.9948 S   0  0  0  0  0  0  0  0  0  0  0  0
   10.2049  -16.3154   28.4137 C   0  0  0  0  0  0  0  0  0  0  0  0
   10.6278  -16.5157   29.7209 O   0  0  0  0  0  0  0  0  0  0  0  0
    9.4080  -17.1667   27.9369 O   0  0  0  0  0  0  0  0  0  0  0  0
  2  1  1  6
  2  3  1  0
  4  3  1  0
  5  4  1  0
  6  5  2  0
  7  2  1  0
  7  8  2  0
  9  5  1  0
 11 10  1  1
 11 12  1  0
 11 13  1  0
 13 14  1  1
 14  7  1  0
 15 13  1  0
 16 15  2  0
 17 15  1  0
 18 17  1  0
 18 21  1  0
 19 20  1  0
 18 19  1  1
 21 22  1  0
 23 21  2  0
M  END
$$$$
