ETC.pdb
     RDKit          3D

 23 22  0  0  1  0  0  0  0  0999 V2000
   10.9861  -15.4107   18.5253 N   0  0  0  0  0  0  0  0  0  0  0  0
   11.7595  -15.4970   19.7564 C   0  0  1  0  0  0  0  0  0  0  0  0
   12.8759  -14.5079   19.6939 C   0  0  0  0  0  0  0  0  0  0  0  0
   14.1443  -15.2456   19.3184 C   0  0  0  0  0  0  0  0  0  0  0  0
   15.3343  -14.3641   19.3452 C   0  0  0  0  0  0  0  0  0  0  0  0
   15.9550  -14.1123   20.4088 O   0  0  0  0  0  0  0  0  0  0  0  0
   10.8780  -15.2207   20.9379 C   0  0  0  0  0  0  0  0  0  0  0  0
   10.0355  -14.2978   20.9388 O   0  0  0  0  0  0  0  0  0  0  0  0
   15.7676  -13.8041   18.1453 O   0  0  0  0  0  0  0  0  0  0  0  0
    8.2671  -16.9131   21.9284 C   0  0  0  0  0  0  0  0  0  0  0  0
    9.0992  -16.9773   23.1905 C   0  0  1  0  0  0  0  0  0  0  0  0
    9.7535  -18.2327   23.1790 O   0  0  0  0  0  0  0  0  0  0  0  0
   10.1203  -15.8924   23.2403 C   0  0  2  0  0  0  0  0  0  0  0  0
   10.9984  -16.0270   22.0948 N   0  0  0  0  0  0  0  0  0  0  0  0
   10.8566  -15.8108   24.5067 C   0  0  0  0  0  0  0  0  0  0  0  0
   11.9448  -15.1923   24.5509 O   0  0  0  0  0  0  0  0  0  0  0  0
   10.3873  -16.4102   25.7038 N   0  0  0  0  0  0  0  0  0  0  0  0
   10.7564  -15.8881   27.0049 C   0  0  1  0  0  0  0  0  0  0  0  0
   10.1666  -14.5108   27.1482 C   0  0  0  0  0  0  0  0  0  0  0  0
   10.5080  -13.7701   28.7474 S   0  0  0  0  0  0  0  0  0  0  0  0
   10.1231  -16.7843   28.0359 C   0  0  0  0  0  0  0  0  0  0  0  0
   10.7294  -17.0454   29.2574 O   0  0  0  0  0  0  0  0  0  0  0  0
    9.0095  -17.3342   27.8247 O   0  0  0  0  0  0  0  0  0  0  0  0
  2  1  1  6
  2  3  1  0
  4  3  1  0
  5  4  1  0
  6  5  2  0
  7  2  1  0
  7  8  2  0
  9  5  1  0
 11 10  1  6
 11 12  1  0
 11 13  1  0
 13 14  1  6
 14  7  1  0
 15 13  1  0
 16 15  2  0
 17 15  1  0
 18 17  1  0
 18 21  1  0
 19 20  1  0
 18 19  1  1
 21 22  1  0
 23 21  2  0
M  END
$$$$
