ETC.pdb
     RDKit          3D

 23 22  0  0  1  0  0  0  0  0999 V2000
   11.5643  -15.5423   18.5395 N   0  0  0  0  0  0  0  0  0  0  0  0
   12.2243  -15.5922   19.8368 C   0  0  1  0  0  0  0  0  0  0  0  0
   13.3706  -14.6358   19.8308 C   0  0  0  0  0  0  0  0  0  0  0  0
   14.6509  -15.4291   19.6725 C   0  0  0  0  0  0  0  0  0  0  0  0
   15.8557  -14.5712   19.7541 C   0  0  0  0  0  0  0  0  0  0  0  0
   16.2798  -14.1176   20.8470 O   0  0  0  0  0  0  0  0  0  0  0  0
   11.2515  -15.2399   20.9226 C   0  0  0  0  0  0  0  0  0  0  0  0
   10.4993  -14.2450   20.8457 O   0  0  0  0  0  0  0  0  0  0  0  0
   16.5297  -14.2665   18.5733 O   0  0  0  0  0  0  0  0  0  0  0  0
    8.4280  -16.8702   21.5739 C   0  0  0  0  0  0  0  0  0  0  0  0
    9.1329  -16.9723   22.9089 C   0  0  1  0  0  0  0  0  0  0  0  0
    9.7797  -18.2314   22.9285 O   0  0  0  0  0  0  0  0  0  0  0  0
   10.1490  -15.8960   23.0860 C   0  0  2  0  0  0  0  0  0  0  0  0
   11.1769  -16.0560   22.0765 N   0  0  0  0  0  0  0  0  0  0  0  0
   10.7021  -15.8019   24.4417 C   0  0  0  0  0  0  0  0  0  0  0  0
   11.8269  -16.2951   24.6865 O   0  0  0  0  0  0  0  0  0  0  0  0
   10.0112  -15.1689   25.5068 N   0  0  0  0  0  0  0  0  0  0  0  0
   10.5829  -15.0903   26.8367 C   0  0  1  0  0  0  0  0  0  0  0  0
    9.7397  -14.1552   27.6613 C   0  0  0  0  0  0  0  0  0  0  0  0
   10.2983  -14.0309   29.3628 S   0  0  0  0  0  0  0  0  0  0  0  0
   10.4904  -16.4673   27.4390 C   0  0  0  0  0  0  0  0  0  0  0  0
   11.4732  -16.9709   28.2806 O   0  0  0  0  0  0  0  0  0  0  0  0
    9.5081  -17.2185   27.1982 O   0  0  0  0  0  0  0  0  0  0  0  0
  2  1  1  6
  2  3  1  0
  4  3  1  0
  5  4  1  0
  6  5  2  0
  7  2  1  0
  7  8  2  0
  9  5  1  0
 11 10  1  6
 11 12  1  0
 11 13  1  0
 13 14  1  6
 14  7  1  0
 15 13  1  0
 16 15  2  0
 17 15  1  0
 18 17  1  0
 18 21  1  0
 19 20  1  0
 18 19  1  1
 21 22  1  0
 23 21  2  0
M  END
$$$$
