ETC.pdb
     RDKit          3D

 23 22  0  0  1  0  0  0  0  0999 V2000
   11.0150  -18.1169   21.6115 N   0  0  0  0  0  0  0  0  0  0  0  0
   11.3409  -16.8350   21.0019 C   0  0  1  0  0  0  0  0  0  0  0  0
   11.4213  -17.0122   19.5218 C   0  0  0  0  0  0  0  0  0  0  0  0
   12.3318  -18.1874   19.2324 C   0  0  0  0  0  0  0  0  0  0  0  0
   12.4930  -18.4273   17.7796 C   0  0  0  0  0  0  0  0  0  0  0  0
   11.6653  -19.1042   17.1187 O   0  0  0  0  0  0  0  0  0  0  0  0
   10.2961  -15.8180   21.3535 C   0  0  0  0  0  0  0  0  0  0  0  0
   10.1668  -14.7493   20.7188 O   0  0  0  0  0  0  0  0  0  0  0  0
   13.6021  -17.8784   17.1394 O   0  0  0  0  0  0  0  0  0  0  0  0
    6.7264  -15.9352   21.3717 C   0  0  0  0  0  0  0  0  0  0  0  0
    7.1004  -15.6513   22.8102 C   0  0  1  0  0  0  0  0  0  0  0  0
    7.0451  -16.8899   23.4934 O   0  0  0  0  0  0  0  0  0  0  0  0
    8.4753  -15.0873   22.9273 C   0  0  2  0  0  0  0  0  0  0  0  0
    9.4239  -16.0688   22.4394 N   0  0  0  0  0  0  0  0  0  0  0  0
    8.8156  -14.5934   24.2663 C   0  0  0  0  0  0  0  0  0  0  0  0
    9.7779  -15.1009   24.8868 O   0  0  0  0  0  0  0  0  0  0  0  0
    8.0937  -13.5513   24.9030 N   0  0  0  0  0  0  0  0  0  0  0  0
    8.4372  -13.1005   26.2373 C   0  0  1  0  0  0  0  0  0  0  0  0
    7.4722  -12.0161   26.6350 C   0  0  0  0  0  0  0  0  0  0  0  0
    5.7571  -12.5338   26.5205 S   0  0  0  0  0  0  0  0  0  0  0  0
    8.2413  -14.2719   27.1630 C   0  0  0  0  0  0  0  0  0  0  0  0
    8.7180  -14.2681   28.4670 O   0  0  0  0  0  0  0  0  0  0  0  0
    7.6317  -15.3068   26.7832 O   0  0  0  0  0  0  0  0  0  0  0  0
  2  1  1  1
  2  3  1  0
  4  3  1  0
  5  4  1  0
  6  5  2  0
  7  2  1  0
  7  8  2  0
  9  5  1  0
 11 10  1  6
 11 12  1  0
 11 13  1  0
 13 14  1  1
 14  7  1  0
 15 13  1  0
 16 15  2  0
 17 15  1  0
 18 17  1  0
 18 21  1  0
 19 20  1  0
 18 19  1  1
 21 22  1  0
 23 21  2  0
M  END
$$$$
