ETC.pdb
     RDKit          3D

 23 22  0  0  1  0  0  0  0  0999 V2000
    8.8976  -14.7056   14.5187 N   0  0  0  0  0  0  0  0  0  0  0  0
    8.7743  -15.6402   15.6288 C   0  0  1  0  0  0  0  0  0  0  0  0
    9.3899  -16.9415   15.2334 C   0  0  0  0  0  0  0  0  0  0  0  0
   10.8414  -16.6929   14.8799 C   0  0  0  0  0  0  0  0  0  0  0  0
   11.5597  -17.9447   14.5467 C   0  0  0  0  0  0  0  0  0  0  0  0
   12.2344  -18.0674   13.4933 O   0  0  0  0  0  0  0  0  0  0  0  0
    9.4536  -15.0857   16.8456 C   0  0  0  0  0  0  0  0  0  0  0  0
   10.5176  -14.4342   16.7756 O   0  0  0  0  0  0  0  0  0  0  0  0
   11.4754  -19.0111   15.4394 O   0  0  0  0  0  0  0  0  0  0  0  0
    7.7293  -12.7978   19.0275 C   0  0  0  0  0  0  0  0  0  0  0  0
    8.2391  -13.8922   19.9395 C   0  0  1  0  0  0  0  0  0  0  0  0
    7.1504  -14.7683   20.1662 O   0  0  0  0  0  0  0  0  0  0  0  0
    9.3616  -14.6542   19.3218 C   0  0  2  0  0  0  0  0  0  0  0  0
    8.8772  -15.3035   18.1197 N   0  0  0  0  0  0  0  0  0  0  0  0
   10.0343  -15.5872   20.2327 C   0  0  0  0  0  0  0  0  0  0  0  0
   10.8177  -16.4475   19.7695 O   0  0  0  0  0  0  0  0  0  0  0  0
    9.8353  -15.5616   21.6371 N   0  0  0  0  0  0  0  0  0  0  0  0
   10.7071  -16.2912   22.5368 C   0  0  1  0  0  0  0  0  0  0  0  0
   12.0700  -15.6537   22.4977 C   0  0  0  0  0  0  0  0  0  0  0  0
   13.2146  -16.3847   23.6717 S   0  0  0  0  0  0  0  0  0  0  0  0
   10.1467  -16.1264   23.9246 C   0  0  0  0  0  0  0  0  0  0  0  0
   10.3105  -17.0957   24.9051 O   0  0  0  0  0  0  0  0  0  0  0  0
    9.5032  -15.0929   24.2484 O   0  0  0  0  0  0  0  0  0  0  0  0
  2  1  1  6
  2  3  1  0
  4  3  1  0
  5  4  1  0
  6  5  2  0
  7  2  1  0
  7  8  2  0
  9  5  1  0
 11 10  1  6
 11 12  1  0
 11 13  1  0
 13 14  1  6
 14  7  1  0
 15 13  1  0
 16 15  2  0
 17 15  1  0
 18 17  1  0
 18 21  1  0
 19 20  1  0
 18 19  1  1
 21 22  1  0
 23 21  2  0
M  END
$$$$
