IWK.pdb
     RDKit          3D

 32 33  0  0  1  0  0  0  0  0999 V2000
    6.6616  -12.4523   18.8974 C   0  0  0  0  0  0  0  0  0  0  0  0
    6.9326  -13.8652   19.3038 C   0  0  0  0  0  0  0  0  0  0  0  0
    7.8685  -13.9554   20.4918 C   0  0  2  0  0  0  0  0  0  0  0  0
    9.0933  -13.1576   20.2008 C   0  0  0  0  0  0  0  0  0  0  0  0
    8.1672  -15.4124   20.7778 C   0  0  2  0  0  0  0  0  0  0  0  0
    6.8913  -16.0897   20.8753 N   0  0  0  0  0  0  0  0  0  0  0  0
    8.9203  -15.5781   22.0488 C   0  0  0  0  0  0  0  0  0  0  0  0
   10.0640  -15.0608   22.2030 O   0  0  0  0  0  0  0  0  0  0  0  0
    8.4162  -16.3159   23.1572 N   0  0  0  0  0  0  0  0  0  0  0  0
    9.1778  -16.4968   24.3720 C   0  0  1  0  0  0  0  0  0  0  0  0
    8.2666  -16.6205   25.5658 C   0  0  0  0  0  0  0  0  0  0  0  0
    7.3021  -15.5232   25.7367 C   0  0  0  0  0  0  0  0  0  0  0  0
    5.9506  -15.5931   25.4469 C   0  0  0  0  0  0  0  0  0  0  0  0
    5.3784  -14.3979   25.7027 N   0  0  0  0  0  0  0  0  0  0  0  0
    6.3059  -13.5370   26.1535 C   0  0  0  0  0  0  0  0  0  0  0  0
    6.2315  -12.2258   26.5538 C   0  0  0  0  0  0  0  0  0  0  0  0
    7.3608  -11.5547   26.9971 C   0  0  0  0  0  0  0  0  0  0  0  0
    8.5477  -12.2718   27.0124 C   0  0  0  0  0  0  0  0  0  0  0  0
    8.6175  -13.5719   26.6143 C   0  0  0  0  0  0  0  0  0  0  0  0
    7.5150  -14.2313   26.1794 C   0  0  0  0  0  0  0  0  0  0  0  0
   10.1899  -17.5477   24.2605 C   0  0  0  0  0  0  0  0  0  0  0  0
    9.8709  -18.6961   23.8234 O   0  0  0  0  0  0  0  0  0  0  0  0
   11.5524  -17.3633   24.6177 N   0  0  0  0  0  0  0  0  0  0  0  0
   12.5509  -18.3997   24.4383 C   0  0  1  0  0  0  0  0  0  0  0  0
   13.5864  -17.9409   23.4822 C   0  0  0  0  0  0  0  0  0  0  0  0
   13.7758  -18.6767   22.2189 C   0  0  0  0  0  0  0  0  0  0  0  0
   14.8231  -18.1821   21.2781 C   0  0  0  0  0  0  0  0  0  0  0  0
   14.8667  -19.0658   20.0202 C   0  0  0  0  0  0  0  0  0  0  0  0
   15.8669  -18.6067   19.1028 N   0  0  0  0  0  0  0  0  0  0  0  0
   13.1030  -18.7741   25.7431 C   0  0  0  0  0  0  0  0  0  0  0  0
   14.0046  -19.8397   25.9450 O   0  0  0  0  0  0  0  0  0  0  0  0
   12.7525  -18.0947   26.7684 O   0  0  0  0  0  0  0  0  0  0  0  0
  1  2  1  0
  2  3  1  0
  3  5  1  0
  3  4  1  6
  5  6  1  1
  7  5  1  0
  8  7  2  0
  9  7  1  0
 10  9  1  0
 11 12  1  0
 10 11  1  1
 12 20  1  0
 12 13  2  0
 13 14  1  0
 15 14  1  0
 15 16  2  0
 17 16  1  0
 18 17  2  0
 19 20  2  0
 19 18  1  0
 20 15  1  0
 21 22  2  0
 21 10  1  0
 23 21  1  0
 24 23  1  0
 24 25  1  6
 26 25  1  0
 27 26  1  0
 27 28  1  0
 29 28  1  0
 30 24  1  0
 31 30  1  0
 32 30  2  0
M  END
$$$$
