IWK.pdb
     RDKit          3D

 32 33  0  0  1  0  0  0  0  0999 V2000
    6.5624  -12.3802   19.0048 C   0  0  0  0  0  0  0  0  0  0  0  0
    6.9619  -13.7881   19.3104 C   0  0  0  0  0  0  0  0  0  0  0  0
    7.9448  -13.8732   20.4601 C   0  0  2  0  0  0  0  0  0  0  0  0
    9.1447  -13.0538   20.1289 C   0  0  0  0  0  0  0  0  0  0  0  0
    8.2769  -15.3276   20.7213 C   0  0  2  0  0  0  0  0  0  0  0  0
    7.0182  -16.0159   20.9161 N   0  0  0  0  0  0  0  0  0  0  0  0
    9.1269  -15.4870   21.9306 C   0  0  0  0  0  0  0  0  0  0  0  0
   10.3149  -15.0543   21.9560 O   0  0  0  0  0  0  0  0  0  0  0  0
    8.6711  -16.1250   23.1189 N   0  0  0  0  0  0  0  0  0  0  0  0
    9.4900  -16.2160   24.3064 C   0  0  1  0  0  0  0  0  0  0  0  0
    8.6424  -16.4632   25.5276 C   0  0  0  0  0  0  0  0  0  0  0  0
    7.5397  -15.5110   25.7306 C   0  0  0  0  0  0  0  0  0  0  0  0
    6.1979  -15.7861   25.5320 C   0  0  0  0  0  0  0  0  0  0  0  0
    5.4735  -14.6774   25.7912 N   0  0  0  0  0  0  0  0  0  0  0  0
    6.2905  -13.6754   26.1560 C   0  0  0  0  0  0  0  0  0  0  0  0
    6.0493  -12.3747   26.5235 C   0  0  0  0  0  0  0  0  0  0  0  0
    7.0929  -11.5315   26.8729 C   0  0  0  0  0  0  0  0  0  0  0  0
    8.3708  -12.0686   26.8305 C   0  0  0  0  0  0  0  0  0  0  0  0
    8.6059  -13.3589   26.4651 C   0  0  0  0  0  0  0  0  0  0  0  0
    7.5876  -14.1864   26.1220 C   0  0  0  0  0  0  0  0  0  0  0  0
   10.6230  -17.1287   24.1503 C   0  0  0  0  0  0  0  0  0  0  0  0
   10.4433  -18.2929   23.6771 O   0  0  0  0  0  0  0  0  0  0  0  0
   11.9566  -16.7881   24.5017 N   0  0  0  0  0  0  0  0  0  0  0  0
   13.0624  -17.7139   24.3478 C   0  0  1  0  0  0  0  0  0  0  0  0
   14.1741  -17.0539   23.6230 C   0  0  0  0  0  0  0  0  0  0  0  0
   15.4036  -17.8173   23.3426 C   0  0  0  0  0  0  0  0  0  0  0  0
   16.5227  -17.1042   22.6601 C   0  0  0  0  0  0  0  0  0  0  0  0
   17.6955  -18.0685   22.4152 C   0  0  0  0  0  0  0  0  0  0  0  0
   18.8498  -17.3651   21.9403 N   0  0  0  0  0  0  0  0  0  0  0  0
   13.4591  -18.2206   25.6644 C   0  0  0  0  0  0  0  0  0  0  0  0
   12.9349  -17.7480   26.8854 O   0  0  0  0  0  0  0  0  0  0  0  0
   14.3334  -19.1524   25.7182 O   0  0  0  0  0  0  0  0  0  0  0  0
  1  2  1  0
  2  3  1  0
  3  5  1  0
  3  4  1  6
  5  6  1  1
  7  5  1  0
  8  7  2  0
  9  7  1  0
 10  9  1  0
 11 12  1  0
 10 11  1  1
 12 20  1  0
 12 13  2  0
 13 14  1  0
 15 14  1  0
 15 16  2  0
 17 16  1  0
 18 17  2  0
 19 20  2  0
 19 18  1  0
 20 15  1  0
 21 22  2  0
 21 10  1  0
 23 21  1  0
 24 23  1  0
 24 25  1  1
 26 25  1  0
 27 26  1  0
 27 28  1  0
 29 28  1  0
 30 24  1  0
 31 30  1  0
 32 30  2  0
M  END
$$$$
