IWK.pdb
     RDKit          3D

 32 33  0  0  1  0  0  0  0  0999 V2000
    7.4798  -17.8522   17.4650 C   0  0  0  0  0  0  0  0  0  0  0  0
    6.9222  -17.0000   18.5595 C   0  0  0  0  0  0  0  0  0  0  0  0
    7.8543  -16.9056   19.7501 C   0  0  2  0  0  0  0  0  0  0  0  0
    8.2980  -18.2785   20.1236 C   0  0  0  0  0  0  0  0  0  0  0  0
    7.1450  -16.1870   20.8789 C   0  0  2  0  0  0  0  0  0  0  0  0
    6.7343  -14.8985   20.3619 N   0  0  0  0  0  0  0  0  0  0  0  0
    8.0374  -15.9942   22.0522 C   0  0  0  0  0  0  0  0  0  0  0  0
    8.9889  -15.1617   22.0199 O   0  0  0  0  0  0  0  0  0  0  0  0
    7.8854  -16.7191   23.2681 N   0  0  0  0  0  0  0  0  0  0  0  0
    8.8134  -16.5815   24.3675 C   0  0  1  0  0  0  0  0  0  0  0  0
    8.0810  -16.3723   25.6677 C   0  0  0  0  0  0  0  0  0  0  0  0
    7.2337  -15.1712   25.7257 C   0  0  0  0  0  0  0  0  0  0  0  0
    5.8698  -15.1420   25.4928 C   0  0  0  0  0  0  0  0  0  0  0  0
    5.4258  -13.8729   25.6089 N   0  0  0  0  0  0  0  0  0  0  0  0
    6.4505  -13.0587   25.9119 C   0  0  0  0  0  0  0  0  0  0  0  0
    6.5192  -11.7064   26.1394 C   0  0  0  0  0  0  0  0  0  0  0  0
    7.7262  -11.1007   26.4530 C   0  0  0  0  0  0  0  0  0  0  0  0
    8.8393  -11.9250   26.5224 C   0  0  0  0  0  0  0  0  0  0  0  0
    8.7672  -13.2656   26.2958 C   0  0  0  0  0  0  0  0  0  0  0  0
    7.5883  -13.8614   25.9880 C   0  0  0  0  0  0  0  0  0  0  0  0
    9.8258  -17.6376   24.3960 C   0  0  0  0  0  0  0  0  0  0  0  0
    9.4900  -18.8477   24.2105 O   0  0  0  0  0  0  0  0  0  0  0  0
   11.2066  -17.3923   24.6222 N   0  0  0  0  0  0  0  0  0  0  0  0
   12.2003  -18.4482   24.5878 C   0  0  1  0  0  0  0  0  0  0  0  0
   13.4473  -17.9456   23.9638 C   0  0  0  0  0  0  0  0  0  0  0  0
   14.6082  -18.8468   23.8491 C   0  0  0  0  0  0  0  0  0  0  0  0
   15.8483  -18.3043   23.2211 C   0  0  0  0  0  0  0  0  0  0  0  0
   16.8918  -19.4219   23.0552 C   0  0  0  0  0  0  0  0  0  0  0  0
   18.1247  -18.9031   22.5418 N   0  0  0  0  0  0  0  0  0  0  0  0
   12.4072  -18.9655   25.9431 C   0  0  0  0  0  0  0  0  0  0  0  0
   13.0165  -20.2039   26.2334 O   0  0  0  0  0  0  0  0  0  0  0  0
   12.0160  -18.2538   26.9311 O   0  0  0  0  0  0  0  0  0  0  0  0
  1  2  1  0
  2  3  1  0
  3  5  1  0
  3  4  1  1
  5  6  1  6
  7  5  1  0
  8  7  2  0
  9  7  1  0
 10  9  1  0
 11 12  1  0
 10 11  1  1
 12 20  1  0
 12 13  2  0
 13 14  1  0
 15 14  1  0
 15 16  2  0
 17 16  1  0
 18 17  2  0
 19 20  2  0
 19 18  1  0
 20 15  1  0
 21 22  2  0
 21 10  1  0
 23 21  1  0
 24 23  1  0
 24 25  1  1
 26 25  1  0
 27 26  1  0
 27 28  1  0
 29 28  1  0
 30 24  1  0
 31 30  1  0
 32 30  2  0
M  END
$$$$
