IWK.pdb
     RDKit          3D

 32 33  0  0  1  0  0  0  0  0999 V2000
    9.7589  -20.0953   17.1278 C   0  0  0  0  0  0  0  0  0  0  0  0
    8.8682  -18.9523   17.4954 C   0  0  0  0  0  0  0  0  0  0  0  0
    9.1955  -18.3802   18.8595 C   0  0  2  0  0  0  0  0  0  0  0  0
    9.1860  -19.4852   19.8594 C   0  0  0  0  0  0  0  0  0  0  0  0
    8.2068  -17.2803   19.1858 C   0  0  2  0  0  0  0  0  0  0  0  0
    8.2648  -16.3288   18.0962 N   0  0  0  0  0  0  0  0  0  0  0  0
    8.5460  -16.5998   20.4633 C   0  0  0  0  0  0  0  0  0  0  0  0
    9.5944  -15.9012   20.5733 O   0  0  0  0  0  0  0  0  0  0  0  0
    7.7304  -16.6862   21.6270 N   0  0  0  0  0  0  0  0  0  0  0  0
    8.1097  -16.0737   22.8800 C   0  0  1  0  0  0  0  0  0  0  0  0
    6.9058  -15.8582   23.7603 C   0  0  0  0  0  0  0  0  0  0  0  0
    7.1843  -15.2402   25.0658 C   0  0  0  0  0  0  0  0  0  0  0  0
    7.6857  -15.9012   26.1736 C   0  0  0  0  0  0  0  0  0  0  0  0
    7.7938  -15.0311   27.1995 N   0  0  0  0  0  0  0  0  0  0  0  0
    7.3812  -13.8139   26.8087 C   0  0  0  0  0  0  0  0  0  0  0  0
    7.3047  -12.6102   27.4649 C   0  0  0  0  0  0  0  0  0  0  0  0
    6.8429  -11.4763   26.8144 C   0  0  0  0  0  0  0  0  0  0  0  0
    6.4698  -11.6260   25.4871 C   0  0  0  0  0  0  0  0  0  0  0  0
    6.5468  -12.8214   24.8401 C   0  0  0  0  0  0  0  0  0  0  0  0
    6.9973  -13.9329   25.4734 C   0  0  0  0  0  0  0  0  0  0  0  0
    9.2324  -16.7507   23.5299 C   0  0  0  0  0  0  0  0  0  0  0  0
    9.2147  -18.0108   23.6831 O   0  0  0  0  0  0  0  0  0  0  0  0
   10.3814  -16.0709   24.0153 N   0  0  0  0  0  0  0  0  0  0  0  0
   11.5833  -16.7706   24.4268 C   0  0  1  0  0  0  0  0  0  0  0  0
   12.7642  -16.1829   23.7506 C   0  0  0  0  0  0  0  0  0  0  0  0
   14.0952  -16.7705   23.9873 C   0  0  0  0  0  0  0  0  0  0  0  0
   15.2526  -16.1874   23.2477 C   0  0  0  0  0  0  0  0  0  0  0  0
   16.5470  -16.9322   23.6153 C   0  0  0  0  0  0  0  0  0  0  0  0
   17.6797  -16.3516   22.9575 N   0  0  0  0  0  0  0  0  0  0  0  0
   11.6873  -16.7403   25.8882 C   0  0  0  0  0  0  0  0  0  0  0  0
   10.7974  -16.0426   26.7310 O   0  0  0  0  0  0  0  0  0  0  0  0
   12.6410  -17.3875   26.4427 O   0  0  0  0  0  0  0  0  0  0  0  0
  1  2  1  0
  2  3  1  0
  3  5  1  0
  3  4  1  1
  5  6  1  6
  7  5  1  0
  8  7  2  0
  9  7  1  0
 10  9  1  0
 11 12  1  0
 10 11  1  1
 12 20  1  0
 12 13  2  0
 13 14  1  0
 15 14  1  0
 15 16  2  0
 17 16  1  0
 18 17  2  0
 19 20  2  0
 19 18  1  0
 20 15  1  0
 21 22  2  0
 21 10  1  0
 23 21  1  0
 24 23  1  0
 24 25  1  6
 26 25  1  0
 27 26  1  0
 27 28  1  0
 29 28  1  0
 30 24  1  0
 31 30  1  0
 32 30  2  0
M  END
$$$$
