IWK.pdb
     RDKit          3D

 32 33  0  0  1  0  0  0  0  0999 V2000
    7.9170  -20.7081   18.0255 C   0  0  0  0  0  0  0  0  0  0  0  0
    7.9363  -19.2154   18.1054 C   0  0  0  0  0  0  0  0  0  0  0  0
    8.3161  -18.7154   19.4842 C   0  0  2  0  0  0  0  0  0  0  0  0
    7.4005  -19.3290   20.4874 C   0  0  0  0  0  0  0  0  0  0  0  0
    8.2711  -17.2016   19.4921 C   0  0  2  0  0  0  0  0  0  0  0  0
    9.1438  -16.7515   18.4282 N   0  0  0  0  0  0  0  0  0  0  0  0
    8.7368  -16.6463   20.7901 C   0  0  0  0  0  0  0  0  0  0  0  0
    9.9224  -16.8278   21.1910 O   0  0  0  0  0  0  0  0  0  0  0  0
    7.8969  -15.8875   21.6537 N   0  0  0  0  0  0  0  0  0  0  0  0
    8.3408  -15.4266   22.9496 C   0  0  1  0  0  0  0  0  0  0  0  0
    7.4076  -14.3777   23.4970 C   0  0  0  0  0  0  0  0  0  0  0  0
    7.6478  -13.9911   24.8958 C   0  0  0  0  0  0  0  0  0  0  0  0
    8.4863  -14.6522   25.7762 C   0  0  0  0  0  0  0  0  0  0  0  0
    8.4460  -14.0362   26.9763 N   0  0  0  0  0  0  0  0  0  0  0  0
    7.6086  -12.9873   26.9210 C   0  0  0  0  0  0  0  0  0  0  0  0
    7.2354  -12.0535   27.8560 C   0  0  0  0  0  0  0  0  0  0  0  0
    6.3432  -11.0431   27.5318 C   0  0  0  0  0  0  0  0  0  0  0  0
    5.8587  -11.0308   26.2324 C   0  0  0  0  0  0  0  0  0  0  0  0
    6.2308  -11.9588   25.3083 C   0  0  0  0  0  0  0  0  0  0  0  0
    7.1029  -12.9490   25.6220 C   0  0  0  0  0  0  0  0  0  0  0  0
    8.6433  -16.5213   23.8723 C   0  0  0  0  0  0  0  0  0  0  0  0
    7.7748  -17.4175   24.1047 O   0  0  0  0  0  0  0  0  0  0  0  0
    9.8863  -16.6555   24.5468 N   0  0  0  0  0  0  0  0  0  0  0  0
   10.2574  -17.8618   25.2615 C   0  0  1  0  0  0  0  0  0  0  0  0
   11.1742  -18.6774   24.4302 C   0  0  0  0  0  0  0  0  0  0  0  0
   11.7093  -19.9384   24.9749 C   0  0  0  0  0  0  0  0  0  0  0  0
   12.6947  -20.6903   24.1441 C   0  0  0  0  0  0  0  0  0  0  0  0
   13.1135  -21.9856   24.8597 C   0  0  0  0  0  0  0  0  0  0  0  0
   13.9937  -22.7648   24.0408 N   0  0  0  0  0  0  0  0  0  0  0  0
   10.8320  -17.5001   26.5601 C   0  0  0  0  0  0  0  0  0  0  0  0
   10.5494  -18.1741   27.7663 O   0  0  0  0  0  0  0  0  0  0  0  0
   11.6446  -16.5137   26.6111 O   0  0  0  0  0  0  0  0  0  0  0  0
  1  2  1  0
  2  3  1  0
  3  5  1  0
  3  4  1  1
  5  6  1  6
  7  5  1  0
  8  7  2  0
  9  7  1  0
 10  9  1  0
 11 12  1  0
 10 11  1  1
 12 20  1  0
 12 13  2  0
 13 14  1  0
 15 14  1  0
 15 16  2  0
 17 16  1  0
 18 17  2  0
 19 20  2  0
 19 18  1  0
 20 15  1  0
 21 22  2  0
 21 10  1  0
 23 21  1  0
 24 23  1  0
 24 25  1  6
 26 25  1  0
 27 26  1  0
 27 28  1  0
 29 28  1  0
 30 24  1  0
 31 30  1  0
 32 30  2  0
M  END
$$$$
