IWK.pdb
     RDKit          3D

 32 33  0  0  1  0  0  0  0  0999 V2000
    7.2085  -12.3998   19.2474 C   0  0  0  0  0  0  0  0  0  0  0  0
    7.4642  -13.8337   19.5841 C   0  0  0  0  0  0  0  0  0  0  0  0
    8.2626  -13.9938   20.8617 C   0  0  2  0  0  0  0  0  0  0  0  0
    9.5334  -13.2259   20.7342 C   0  0  0  0  0  0  0  0  0  0  0  0
    8.4877  -15.4684   21.1238 C   0  0  2  0  0  0  0  0  0  0  0  0
    7.2175  -16.1299   20.9111 N   0  0  0  0  0  0  0  0  0  0  0  0
    8.9528  -15.7131   22.5145 C   0  0  0  0  0  0  0  0  0  0  0  0
   10.0584  -15.2556   22.9238 O   0  0  0  0  0  0  0  0  0  0  0  0
    8.2007  -16.4642   23.4617 N   0  0  0  0  0  0  0  0  0  0  0  0
    8.6878  -16.7275   24.7967 C   0  0  1  0  0  0  0  0  0  0  0  0
    7.5825  -16.5859   25.8111 C   0  0  0  0  0  0  0  0  0  0  0  0
    7.0265  -15.2311   25.9499 C   0  0  0  0  0  0  0  0  0  0  0  0
    5.7226  -14.8678   25.6615 C   0  0  0  0  0  0  0  0  0  0  0  0
    5.5702  -13.5452   25.8825 N   0  0  0  0  0  0  0  0  0  0  0  0
    6.7303  -13.0188   26.3087 C   0  0  0  0  0  0  0  0  0  0  0  0
    7.0877  -11.7436   26.6710 C   0  0  0  0  0  0  0  0  0  0  0  0
    8.3773  -11.4623   27.0953 C   0  0  0  0  0  0  0  0  0  0  0  0
    9.2685  -12.5242   27.1318 C   0  0  0  0  0  0  0  0  0  0  0  0
    8.9103  -13.7873   26.7714 C   0  0  0  0  0  0  0  0  0  0  0  0
    7.6499  -14.0661   26.3551 C   0  0  0  0  0  0  0  0  0  0  0  0
    9.4520  -17.9718   24.8908 C   0  0  0  0  0  0  0  0  0  0  0  0
    8.9666  -19.0538   24.4376 O   0  0  0  0  0  0  0  0  0  0  0  0
   10.7455  -18.0539   25.4722 N   0  0  0  0  0  0  0  0  0  0  0  0
   11.4875  -19.2978   25.5467 C   0  0  1  0  0  0  0  0  0  0  0  0
   12.7616  -19.1693   24.8003 C   0  0  0  0  0  0  0  0  0  0  0  0
   13.7130  -20.2954   24.8017 C   0  0  0  0  0  0  0  0  0  0  0  0
   14.9724  -20.1406   24.0166 C   0  0  0  0  0  0  0  0  0  0  0  0
   15.8183  -21.4215   24.1123 C   0  0  0  0  0  0  0  0  0  0  0  0
   17.1118  -21.2293   23.5272 N   0  0  0  0  0  0  0  0  0  0  0  0
   11.6826  -19.6641   26.9521 C   0  0  0  0  0  0  0  0  0  0  0  0
   11.3542  -18.8297   28.0407 O   0  0  0  0  0  0  0  0  0  0  0  0
   12.1789  -20.8127   27.2171 O   0  0  0  0  0  0  0  0  0  0  0  0
  1  2  1  0
  2  3  1  0
  3  5  1  0
  3  4  1  6
  5  6  1  1
  7  5  1  0
  8  7  2  0
  9  7  1  0
 10  9  1  0
 11 12  1  0
 10 11  1  1
 12 20  1  0
 12 13  2  0
 13 14  1  0
 15 14  1  0
 15 16  2  0
 17 16  1  0
 18 17  2  0
 19 20  2  0
 19 18  1  0
 20 15  1  0
 21 22  2  0
 21 10  1  0
 23 21  1  0
 24 23  1  0
 24 25  1  1
 26 25  1  0
 27 26  1  0
 27 28  1  0
 29 28  1  0
 30 24  1  0
 31 30  1  0
 32 30  2  0
M  END
$$$$
