DPV.pdb
     RDKit          3D

 23 23  0  0  1  0  0  0  0  0999 V2000
   11.7506  -16.2262   20.2761 N   0  0  0  0  0  0  0  0  0  0  0  0
   11.0847  -17.2212   21.1562 C   0  0  1  0  0  0  0  0  0  0  0  0
   12.2379  -18.0560   21.6665 C   0  0  0  0  0  0  0  0  0  0  0  0
   12.9656  -18.7558   20.6098 C   0  0  0  0  0  0  0  0  0  0  0  0
   12.4174  -19.4019   19.7171 O   0  0  0  0  0  0  0  0  0  0  0  0
   10.4474  -16.4964   22.2870 C   0  0  0  0  0  0  0  0  0  0  0  0
   10.8942  -15.3316   22.5012 O   0  0  0  0  0  0  0  0  0  0  0  0
   14.3835  -18.6910   20.6069 O   0  0  0  0  0  0  0  0  0  0  0  0
    9.4250  -16.9713   23.1075 N   0  0  0  0  0  0  0  0  0  0  0  0
    8.7981  -18.2639   23.0823 C   0  0  0  0  0  0  0  0  0  0  0  0
    7.3331  -17.9315   23.3151 C   0  0  0  0  0  0  0  0  0  0  0  0
    7.2893  -16.5016   23.8000 C   0  0  0  0  0  0  0  0  0  0  0  0
    8.7435  -16.2323   24.1391 C   0  0  1  0  0  0  0  0  0  0  0  0
    9.0976  -16.7317   25.4995 C   0  0  0  0  0  0  0  0  0  0  0  0
    9.5568  -17.8812   25.7139 O   0  0  0  0  0  0  0  0  0  0  0  0
   10.1014  -13.2084   27.5413 C   0  0  0  0  0  0  0  0  0  0  0  0
    9.7677  -14.4320   28.3610 C   0  0  2  0  0  0  0  0  0  0  0  0
   10.6128  -14.4234   29.6186 C   0  0  0  0  0  0  0  0  0  0  0  0
    9.9898  -15.7023   27.5706 C   0  0  2  0  0  0  0  0  0  0  0  0
    8.9163  -15.8896   26.6137 N   0  0  0  0  0  0  0  0  0  0  0  0
    9.9479  -16.8413   28.5084 C   0  0  0  0  0  0  0  0  0  0  0  0
    8.8638  -17.6878   28.5938 O   0  0  0  0  0  0  0  0  0  0  0  0
   10.9287  -17.0499   29.2541 O   0  0  0  0  0  0  0  0  0  0  0  0
  2  1  1  6
  2  3  1  0
  3  4  1  0
  4  5  2  0
  4  8  1  0
  6  9  1  0
  6  2  1  0
  7  6  2  0
  9 13  1  0
 10  9  1  0
 10 11  1  0
 11 12  1  0
 12 13  1  0
 13 14  1  1
 14 15  2  0
 17 16  1  6
 17 18  1  0
 19 17  1  0
 19 21  1  0
 20 14  1  0
 19 20  1  6
 21 22  1  0
 23 21  2  0
M  END
$$$$
