DPV.pdb
     RDKit          3D

 23 23  0  0  1  0  0  0  0  0999 V2000
   11.6401  -17.9160   20.7215 N   0  0  0  0  0  0  0  0  0  0  0  0
   10.1712  -17.8863   20.9444 C   0  0  1  0  0  0  0  0  0  0  0  0
    9.9487  -19.0169   21.9239 C   0  0  0  0  0  0  0  0  0  0  0  0
   10.1643  -20.3419   21.3463 C   0  0  0  0  0  0  0  0  0  0  0  0
    9.5651  -20.7597   20.3556 O   0  0  0  0  0  0  0  0  0  0  0  0
    9.8186  -16.5901   21.5813 C   0  0  0  0  0  0  0  0  0  0  0  0
   10.7966  -15.9328   22.0437 O   0  0  0  0  0  0  0  0  0  0  0  0
   11.1161  -21.1999   21.9566 O   0  0  0  0  0  0  0  0  0  0  0  0
    8.5408  -16.0466   21.7069 N   0  0  0  0  0  0  0  0  0  0  0  0
    7.2939  -16.6046   21.2614 C   0  0  0  0  0  0  0  0  0  0  0  0
    6.5584  -15.3911   20.7160 C   0  0  0  0  0  0  0  0  0  0  0  0
    7.3086  -14.1767   21.2104 C   0  0  0  0  0  0  0  0  0  0  0  0
    8.2081  -14.7677   22.2798 C   0  0  1  0  0  0  0  0  0  0  0  0
    7.4971  -14.9163   23.5828 C   0  0  0  0  0  0  0  0  0  0  0  0
    7.1394  -16.0261   24.0503 O   0  0  0  0  0  0  0  0  0  0  0  0
    7.6606  -12.2618   27.7668 C   0  0  0  0  0  0  0  0  0  0  0  0
    7.1952  -12.3765   26.3348 C   0  0  2  0  0  0  0  0  0  0  0  0
    5.6812  -12.4325   26.3158 C   0  0  0  0  0  0  0  0  0  0  0  0
    7.7885  -13.5921   25.6581 C   0  0  2  0  0  0  0  0  0  0  0  0
    7.2015  -13.7687   24.3438 N   0  0  0  0  0  0  0  0  0  0  0  0
    7.4397  -14.7814   26.4598 C   0  0  0  0  0  0  0  0  0  0  0  0
    6.4599  -15.6704   26.0740 O   0  0  0  0  0  0  0  0  0  0  0  0
    8.0523  -14.9944   27.5279 O   0  0  0  0  0  0  0  0  0  0  0  0
  2  1  1  1
  2  3  1  0
  3  4  1  0
  4  5  2  0
  4  8  1  0
  6  9  1  0
  6  2  1  0
  7  6  2  0
  9 13  1  0
 10  9  1  0
 10 11  1  0
 11 12  1  0
 12 13  1  0
 13 14  1  1
 14 15  2  0
 17 16  1  1
 17 18  1  0
 19 17  1  0
 19 21  1  0
 20 14  1  0
 19 20  1  6
 21 22  1  0
 23 21  2  0
M  END
$$$$
