DPV.pdb
     RDKit          3D

 23 23  0  0  1  0  0  0  0  0999 V2000
   12.1980  -16.5501   20.4140 N   0  0  0  0  0  0  0  0  0  0  0  0
   10.9056  -17.0574   20.9435 C   0  0  1  0  0  0  0  0  0  0  0  0
   11.3305  -18.1434   21.9064 C   0  0  0  0  0  0  0  0  0  0  0  0
   11.9588  -19.2903   21.2541 C   0  0  0  0  0  0  0  0  0  0  0  0
   12.9595  -19.8590   21.6903 O   0  0  0  0  0  0  0  0  0  0  0  0
   10.2377  -15.9568   21.6869 C   0  0  0  0  0  0  0  0  0  0  0  0
   11.0099  -15.0514   22.1186 O   0  0  0  0  0  0  0  0  0  0  0  0
   11.3888  -19.7808   20.0504 O   0  0  0  0  0  0  0  0  0  0  0  0
    8.8721  -15.8342   21.9399 N   0  0  0  0  0  0  0  0  0  0  0  0
    7.8241  -16.7603   21.6103 C   0  0  0  0  0  0  0  0  0  0  0  0
    6.7000  -15.8462   21.1503 C   0  0  0  0  0  0  0  0  0  0  0  0
    7.0787  -14.4493   21.5829 C   0  0  0  0  0  0  0  0  0  0  0  0
    8.2140  -14.7104   22.5551 C   0  0  1  0  0  0  0  0  0  0  0  0
    7.7104  -15.0461   23.9186 C   0  0  0  0  0  0  0  0  0  0  0  0
    7.5917  -16.2239   24.3390 O   0  0  0  0  0  0  0  0  0  0  0  0
    5.7314  -12.6160   26.6715 C   0  0  0  0  0  0  0  0  0  0  0  0
    7.2025  -12.8443   26.9242 C   0  0  2  0  0  0  0  0  0  0  0  0
    7.9701  -11.6122   26.4901 C   0  0  0  0  0  0  0  0  0  0  0  0
    7.7020  -14.0742   26.1991 C   0  0  2  0  0  0  0  0  0  0  0  0
    7.3439  -14.0066   24.7954 N   0  0  0  0  0  0  0  0  0  0  0  0
    7.0228  -15.2533   26.7709 C   0  0  0  0  0  0  0  0  0  0  0  0
    7.4215  -15.8324   27.9562 O   0  0  0  0  0  0  0  0  0  0  0  0
    6.0504  -15.7483   26.1618 O   0  0  0  0  0  0  0  0  0  0  0  0
  2  1  1  1
  2  3  1  0
  3  4  1  0
  4  5  2  0
  4  8  1  0
  6  9  1  0
  6  2  1  0
  7  6  2  0
  9 13  1  0
 10  9  1  0
 10 11  1  0
 11 12  1  0
 12 13  1  0
 13 14  1  1
 14 15  2  0
 17 16  1  6
 17 18  1  0
 19 17  1  0
 19 21  1  0
 20 14  1  0
 19 20  1  6
 21 22  1  0
 23 21  2  0
M  END
$$$$
