DPV.pdb
     RDKit          3D

 23 23  0  0  1  0  0  0  0  0999 V2000
   12.4010  -15.9446   20.2430 N   0  0  0  0  0  0  0  0  0  0  0  0
   11.3836  -16.6847   21.0337 C   0  0  1  0  0  0  0  0  0  0  0  0
   12.2077  -17.3673   22.1023 C   0  0  0  0  0  0  0  0  0  0  0  0
   13.1481  -18.3537   21.5746 C   0  0  0  0  0  0  0  0  0  0  0  0
   12.8138  -19.3049   20.8686 O   0  0  0  0  0  0  0  0  0  0  0  0
   10.4647  -15.6974   21.6589 C   0  0  0  0  0  0  0  0  0  0  0  0
   10.9814  -14.5728   21.9245 O   0  0  0  0  0  0  0  0  0  0  0  0
   14.5249  -18.2131   21.8898 O   0  0  0  0  0  0  0  0  0  0  0  0
    9.1189  -15.8934   21.9659 N   0  0  0  0  0  0  0  0  0  0  0  0
    8.3318  -17.0806   21.7775 C   0  0  0  0  0  0  0  0  0  0  0  0
    7.0024  -16.5286   21.2888 C   0  0  0  0  0  0  0  0  0  0  0  0
    7.0256  -15.0442   21.5679 C   0  0  0  0  0  0  0  0  0  0  0  0
    8.2127  -14.9114   22.5035 C   0  0  1  0  0  0  0  0  0  0  0  0
    7.8429  -15.2182   23.9158 C   0  0  0  0  0  0  0  0  0  0  0  0
    7.9728  -16.3567   24.4306 O   0  0  0  0  0  0  0  0  0  0  0  0
    5.5905  -12.8974   26.7459 C   0  0  0  0  0  0  0  0  0  0  0  0
    7.1004  -12.8746   26.7582 C   0  0  2  0  0  0  0  0  0  0  0  0
    7.5766  -11.6380   26.0233 C   0  0  0  0  0  0  0  0  0  0  0  0
    7.6758  -14.1271   26.1355 C   0  0  2  0  0  0  0  0  0  0  0  0
    7.3202  -14.1958   24.7312 N   0  0  0  0  0  0  0  0  0  0  0  0
    7.0660  -15.2945   26.8020 C   0  0  0  0  0  0  0  0  0  0  0  0
    7.5168  -15.7716   28.0137 O   0  0  0  0  0  0  0  0  0  0  0  0
    6.1059  -15.8747   26.2515 O   0  0  0  0  0  0  0  0  0  0  0  0
  2  1  1  6
  2  3  1  0
  3  4  1  0
  4  5  2  0
  4  8  1  0
  6  9  1  0
  6  2  1  0
  7  6  2  0
  9 13  1  0
 10  9  1  0
 10 11  1  0
 11 12  1  0
 12 13  1  0
 13 14  1  1
 14 15  2  0
 17 16  1  6
 17 18  1  0
 19 17  1  0
 19 21  1  0
 20 14  1  0
 19 20  1  6
 21 22  1  0
 23 21  2  0
M  END
$$$$
