DPV.pdb
     RDKit          3D

 23 23  0  0  1  0  0  0  0  0999 V2000
    9.6427  -15.8641   20.5203 N   0  0  0  0  0  0  0  0  0  0  0  0
    8.4976  -15.7900   21.4643 C   0  0  1  0  0  0  0  0  0  0  0  0
    8.1619  -17.2434   21.7133 C   0  0  0  0  0  0  0  0  0  0  0  0
    7.6765  -17.9432   20.5257 C   0  0  0  0  0  0  0  0  0  0  0  0
    7.5446  -17.4079   19.4251 O   0  0  0  0  0  0  0  0  0  0  0  0
    8.9678  -15.1576   22.7249 C   0  0  0  0  0  0  0  0  0  0  0  0
   10.2029  -14.8831   22.7624 O   0  0  0  0  0  0  0  0  0  0  0  0
    7.3364  -19.3164   20.6405 O   0  0  0  0  0  0  0  0  0  0  0  0
    8.1888  -14.8440   23.8379 N   0  0  0  0  0  0  0  0  0  0  0  0
    6.7799  -15.0583   24.0211 C   0  0  0  0  0  0  0  0  0  0  0  0
    6.3357  -13.7877   24.7276 C   0  0  0  0  0  0  0  0  0  0  0  0
    7.5934  -13.0979   25.2010 C   0  0  0  0  0  0  0  0  0  0  0  0
    8.6380  -14.1863   25.0381 C   0  0  1  0  0  0  0  0  0  0  0  0
    8.6549  -15.1179   26.2031 C   0  0  0  0  0  0  0  0  0  0  0  0
    8.1945  -16.2859   26.1585 O   0  0  0  0  0  0  0  0  0  0  0  0
    9.6817  -14.7878   30.3227 C   0  0  0  0  0  0  0  0  0  0  0  0
   10.7740  -14.7137   29.2827 C   0  0  2  0  0  0  0  0  0  0  0  0
   11.1300  -13.2593   29.0504 C   0  0  0  0  0  0  0  0  0  0  0  0
   10.3517  -15.3785   27.9914 C   0  0  2  0  0  0  0  0  0  0  0  0
    9.2097  -14.6878   27.4240 N   0  0  0  0  0  0  0  0  0  0  0  0
    9.9236  -16.7566   28.3016 C   0  0  0  0  0  0  0  0  0  0  0  0
   10.8037  -17.7218   28.7410 O   0  0  0  0  0  0  0  0  0  0  0  0
    8.7206  -17.0643   28.1623 O   0  0  0  0  0  0  0  0  0  0  0  0
  2  1  1  6
  2  3  1  0
  3  4  1  0
  4  5  2  0
  4  8  1  0
  6  9  1  0
  6  2  1  0
  7  6  2  0
  9 13  1  0
 10  9  1  0
 10 11  1  0
 11 12  1  0
 12 13  1  0
 13 14  1  1
 14 15  2  0
 17 16  1  1
 17 18  1  0
 19 17  1  0
 19 21  1  0
 20 14  1  0
 19 20  1  1
 21 22  1  0
 23 21  2  0
M  END
$$$$
