DPV.pdb
     RDKit          3D

 23 23  0  0  1  0  0  0  0  0999 V2000
   11.5810  -17.8663   20.6509 N   0  0  0  0  0  0  0  0  0  0  0  0
   10.1152  -17.6243   20.6809 C   0  0  1  0  0  0  0  0  0  0  0  0
    9.5764  -18.8590   21.3683 C   0  0  0  0  0  0  0  0  0  0  0  0
    9.9030  -20.1035   20.6753 C   0  0  0  0  0  0  0  0  0  0  0  0
   10.3234  -21.1108   21.2444 O   0  0  0  0  0  0  0  0  0  0  0  0
    9.8538  -16.4252   21.5199 C   0  0  0  0  0  0  0  0  0  0  0  0
   10.8766  -15.9131   22.0621 O   0  0  0  0  0  0  0  0  0  0  0  0
    9.7280  -20.1609   19.2680 O   0  0  0  0  0  0  0  0  0  0  0  0
    8.6157  -15.8277   21.7523 N   0  0  0  0  0  0  0  0  0  0  0  0
    7.3258  -16.2528   21.2836 C   0  0  0  0  0  0  0  0  0  0  0  0
    6.6531  -14.9406   20.9139 C   0  0  0  0  0  0  0  0  0  0  0  0
    7.4894  -13.8422   21.5271 C   0  0  0  0  0  0  0  0  0  0  0  0
    8.3775  -14.6118   22.4869 C   0  0  1  0  0  0  0  0  0  0  0  0
    7.6920  -14.8780   23.7848 C   0  0  0  0  0  0  0  0  0  0  0  0
    7.2052  -15.9949   24.0909 O   0  0  0  0  0  0  0  0  0  0  0  0
    5.7821  -12.5617   26.5600 C   0  0  0  0  0  0  0  0  0  0  0  0
    7.1873  -12.9479   26.9558 C   0  0  2  0  0  0  0  0  0  0  0  0
    8.0936  -11.7472   26.7749 C   0  0  0  0  0  0  0  0  0  0  0  0
    7.6839  -14.1253   26.1467 C   0  0  2  0  0  0  0  0  0  0  0  0
    7.5728  -13.8400   24.7292 N   0  0  0  0  0  0  0  0  0  0  0  0
    6.8120  -15.2814   26.4331 C   0  0  0  0  0  0  0  0  0  0  0  0
    6.9773  -16.0719   27.5498 O   0  0  0  0  0  0  0  0  0  0  0  0
    5.8891  -15.5574   25.6372 O   0  0  0  0  0  0  0  0  0  0  0  0
  2  1  1  1
  2  3  1  0
  3  4  1  0
  4  5  2  0
  4  8  1  0
  6  9  1  0
  6  2  1  0
  7  6  2  0
  9 13  1  0
 10  9  1  0
 10 11  1  0
 11 12  1  0
 12 13  1  0
 13 14  1  1
 14 15  2  0
 17 16  1  6
 17 18  1  0
 19 17  1  0
 19 21  1  0
 20 14  1  0
 19 20  1  6
 21 22  1  0
 23 21  2  0
M  END
$$$$
