SGK.pdb
     RDKit          3D

 20 19  0  0  1  0  0  0  0  0999 V2000
    7.5416  -13.2660   15.3781 O   0  0  0  0  0  0  0  0  0  0  0  0
    7.5191  -13.1613   16.7670 C   0  0  0  0  0  0  0  0  0  0  0  0
    8.4718  -14.1443   17.4131 C   0  0  2  0  0  0  0  0  0  0  0  0
    8.4459  -15.4297   16.7913 N   0  0  0  0  0  0  0  0  0  0  0  0
    8.1559  -14.1887   18.8712 C   0  0  0  0  0  0  0  0  0  0  0  0
    8.3053  -13.1076   19.5032 O   0  0  0  0  0  0  0  0  0  0  0  0
    7.7137  -15.3572   19.5342 N   0  0  0  0  0  0  0  0  0  0  0  0
    7.2375  -15.3541   20.8814 C   0  0  0  0  0  0  0  0  0  0  0  0
    8.3278  -15.3935   21.8845 C   0  0  0  0  0  0  0  0  0  0  0  0
    9.4803  -15.7540   21.5411 O   0  0  0  0  0  0  0  0  0  0  0  0
    8.1543  -15.0421   23.2449 N   0  0  0  0  0  0  0  0  0  0  0  0
    9.2329  -15.1399   24.2428 C   0  0  1  0  0  0  0  0  0  0  0  0
    8.7580  -14.7160   25.5831 C   0  0  0  0  0  0  0  0  0  0  0  0
    9.8467  -14.8158   26.6082 C   0  0  0  0  0  0  0  0  0  0  0  0
    9.3616  -14.3766   27.9884 C   0  0  0  0  0  0  0  0  0  0  0  0
   10.5545  -14.4473   28.9248 C   0  0  0  0  0  0  0  0  0  0  0  0
   10.1907  -14.1050   30.2753 N   0  0  0  0  0  0  0  0  0  0  0  0
    9.7852  -16.4948   24.2770 C   0  0  0  0  0  0  0  0  0  0  0  0
    9.1199  -17.5382   24.2799 O   0  0  0  0  0  0  0  0  0  0  0  0
   11.1851  -16.6322   24.3093 O   0  0  0  0  0  0  0  0  0  0  0  0
  2  1  1  0
  3  2  1  0
  3  4  1  6
  5  6  2  0
  5  3  1  0
  7  5  1  0
  8  7  1  0
  9  8  1  0
 10  9  2  0
 11  9  1  0
 12 13  1  1
 12 11  1  0
 13 14  1  0
 14 15  1  0
 15 16  1  0
 16 17  1  0
 18 12  1  0
 19 18  2  0
 20 18  1  0
M  END
$$$$
