SGK.pdb
     RDKit          3D

 20 19  0  0  1  0  0  0  0  0999 V2000
    7.9288  -13.3326   15.3878 O   0  0  0  0  0  0  0  0  0  0  0  0
    7.9125  -13.5227   16.7676 C   0  0  0  0  0  0  0  0  0  0  0  0
    8.5782  -14.8255   17.1561 C   0  0  2  0  0  0  0  0  0  0  0  0
    8.5712  -15.7866   16.0999 N   0  0  0  0  0  0  0  0  0  0  0  0
    7.9200  -15.3156   18.4029 C   0  0  0  0  0  0  0  0  0  0  0  0
    6.8005  -15.8768   18.2541 O   0  0  0  0  0  0  0  0  0  0  0  0
    8.4913  -15.1744   19.6891 N   0  0  0  0  0  0  0  0  0  0  0  0
    7.8437  -15.6223   20.8814 C   0  0  0  0  0  0  0  0  0  0  0  0
    8.6148  -15.3219   22.1110 C   0  0  0  0  0  0  0  0  0  0  0  0
    9.7735  -14.8471   22.0216 O   0  0  0  0  0  0  0  0  0  0  0  0
    8.1200  -15.5402   23.4193 N   0  0  0  0  0  0  0  0  0  0  0  0
    8.8390  -15.1117   24.6310 C   0  0  1  0  0  0  0  0  0  0  0  0
    7.8922  -14.6539   25.6778 C   0  0  0  0  0  0  0  0  0  0  0  0
    7.4752  -13.2314   25.4567 C   0  0  0  0  0  0  0  0  0  0  0  0
    6.5548  -12.7357   26.5703 C   0  0  0  0  0  0  0  0  0  0  0  0
    6.1221  -11.3286   26.1992 C   0  0  0  0  0  0  0  0  0  0  0  0
    5.2555  -10.7585   27.1979 N   0  0  0  0  0  0  0  0  0  0  0  0
    9.7035  -16.1837   25.1262 C   0  0  0  0  0  0  0  0  0  0  0  0
    9.5431  -17.3908   24.9062 O   0  0  0  0  0  0  0  0  0  0  0  0
   10.8093  -15.8223   25.9175 O   0  0  0  0  0  0  0  0  0  0  0  0
  2  1  1  0
  3  2  1  0
  3  4  1  6
  5  6  2  0
  5  3  1  0
  7  5  1  0
  8  7  1  0
  9  8  1  0
 10  9  2  0
 11  9  1  0
 12 13  1  1
 12 11  1  0
 13 14  1  0
 14 15  1  0
 15 16  1  0
 16 17  1  0
 18 12  1  0
 19 18  2  0
 20 18  1  0
M  END
$$$$
