SGK.pdb
     RDKit          3D

 20 19  0  0  1  0  0  0  0  0999 V2000
   12.1800  -21.4711   16.6975 O   0  0  0  0  0  0  0  0  0  0  0  0
   11.9004  -22.7649   17.1312 C   0  0  0  0  0  0  0  0  0  0  0  0
   11.1239  -22.7590   18.4305 C   0  0  2  0  0  0  0  0  0  0  0  0
   10.4728  -21.5127   18.6800 N   0  0  0  0  0  0  0  0  0  0  0  0
   12.0613  -23.1624   19.5197 C   0  0  0  0  0  0  0  0  0  0  0  0
   12.3391  -24.3909   19.5843 O   0  0  0  0  0  0  0  0  0  0  0  0
   12.6216  -22.2463   20.4402 N   0  0  0  0  0  0  0  0  0  0  0  0
   13.5216  -22.6388   21.4782 C   0  0  0  0  0  0  0  0  0  0  0  0
   13.2262  -21.9940   22.7797 C   0  0  0  0  0  0  0  0  0  0  0  0
   12.8989  -20.7826   22.8170 O   0  0  0  0  0  0  0  0  0  0  0  0
   13.2896  -22.6705   24.0218 N   0  0  0  0  0  0  0  0  0  0  0  0
   13.0148  -22.0111   25.3096 C   0  0  1  0  0  0  0  0  0  0  0  0
   12.7728  -23.0112   26.3786 C   0  0  0  0  0  0  0  0  0  0  0  0
   12.4113  -22.3521   27.6753 C   0  0  0  0  0  0  0  0  0  0  0  0
   12.2041  -23.3772   28.7885 C   0  0  0  0  0  0  0  0  0  0  0  0
   11.8647  -22.6041   30.0503 C   0  0  0  0  0  0  0  0  0  0  0  0
   11.5633  -23.4855   31.1484 N   0  0  0  0  0  0  0  0  0  0  0  0
   14.1034  -21.1009   25.6677 C   0  0  0  0  0  0  0  0  0  0  0  0
   13.9972  -20.1159   26.4092 O   0  0  0  0  0  0  0  0  0  0  0  0
   15.3779  -21.3585   25.1301 O   0  0  0  0  0  0  0  0  0  0  0  0
  2  1  1  0
  3  2  1  0
  3  4  1  1
  5  6  2  0
  5  3  1  0
  7  5  1  0
  8  7  1  0
  9  8  1  0
 10  9  2  0
 11  9  1  0
 12 13  1  1
 12 11  1  0
 13 14  1  0
 14 15  1  0
 15 16  1  0
 16 17  1  0
 18 12  1  0
 19 18  2  0
 20 18  1  0
M  END
$$$$
