SGK.pdb
     RDKit          3D

 20 19  0  0  1  0  0  0  0  0999 V2000
   13.6788  -18.7645   18.8015 O   0  0  0  0  0  0  0  0  0  0  0  0
   12.9453  -19.7847   18.2003 C   0  0  0  0  0  0  0  0  0  0  0  0
   11.6236  -19.2767   17.6652 C   0  0  2  0  0  0  0  0  0  0  0  0
   11.7745  -18.1597   16.7883 N   0  0  0  0  0  0  0  0  0  0  0  0
   10.7412  -18.9923   18.8350 C   0  0  0  0  0  0  0  0  0  0  0  0
   10.2800  -19.9992   19.4383 O   0  0  0  0  0  0  0  0  0  0  0  0
   10.4222  -17.6836   19.2664 N   0  0  0  0  0  0  0  0  0  0  0  0
    9.5350  -17.4178   20.3544 C   0  0  0  0  0  0  0  0  0  0  0  0
   10.2409  -17.0563   21.6065 C   0  0  0  0  0  0  0  0  0  0  0  0
   11.4769  -17.2518   21.7059 O   0  0  0  0  0  0  0  0  0  0  0  0
    9.5979  -16.4883   22.7328 N   0  0  0  0  0  0  0  0  0  0  0  0
   10.3258  -16.0471   23.9345 C   0  0  1  0  0  0  0  0  0  0  0  0
    9.4284  -15.3133   24.8607 C   0  0  0  0  0  0  0  0  0  0  0  0
   10.1705  -14.8138   26.0633 C   0  0  0  0  0  0  0  0  0  0  0  0
    9.2486  -14.0600   27.0198 C   0  0  0  0  0  0  0  0  0  0  0  0
   10.1153  -13.5203   28.1435 C   0  0  0  0  0  0  0  0  0  0  0  0
    9.3368  -12.7939   29.1128 N   0  0  0  0  0  0  0  0  0  0  0  0
   10.9640  -17.1839   24.5996 C   0  0  0  0  0  0  0  0  0  0  0  0
   10.4573  -18.3033   24.7459 O   0  0  0  0  0  0  0  0  0  0  0  0
   12.2589  -16.9985   25.1179 O   0  0  0  0  0  0  0  0  0  0  0  0
  2  1  1  0
  3  2  1  0
  3  4  1  1
  5  6  2  0
  5  3  1  0
  7  5  1  0
  8  7  1  0
  9  8  1  0
 10  9  2  0
 11  9  1  0
 12 13  1  1
 12 11  1  0
 13 14  1  0
 14 15  1  0
 15 16  1  0
 16 17  1  0
 18 12  1  0
 19 18  2  0
 20 18  1  0
M  END
$$$$
