SGK.pdb
     RDKit          3D

 20 19  0  0  1  0  0  0  0  0999 V2000
    0.6104  -19.9080   20.5785 O   0  0  0  0  0  0  0  0  0  0  0  0
    1.8637  -19.7018   21.1503 C   0  0  0  0  0  0  0  0  0  0  0  0
    2.8501  -19.1528   20.1420 C   0  0  2  0  0  0  0  0  0  0  0  0
    2.9158  -19.9359   18.9496 N   0  0  0  0  0  0  0  0  0  0  0  0
    4.1681  -19.0130   20.8283 C   0  0  0  0  0  0  0  0  0  0  0  0
    4.9355  -20.0117   20.7621 O   0  0  0  0  0  0  0  0  0  0  0  0
    4.5629  -17.8441   21.5200 N   0  0  0  0  0  0  0  0  0  0  0  0
    5.8377  -17.7065   22.1505 C   0  0  0  0  0  0  0  0  0  0  0  0
    5.9508  -18.4793   23.4102 C   0  0  0  0  0  0  0  0  0  0  0  0
    5.3610  -18.0794   24.4438 O   0  0  0  0  0  0  0  0  0  0  0  0
    6.7009  -19.6738   23.5323 N   0  0  0  0  0  0  0  0  0  0  0  0
    6.8472  -20.4031   24.8033 C   0  0  1  0  0  0  0  0  0  0  0  0
    6.7334  -21.8674   24.5928 C   0  0  0  0  0  0  0  0  0  0  0  0
    6.8166  -22.6164   25.8883 C   0  0  0  0  0  0  0  0  0  0  0  0
    6.7239  -24.1256   25.6723 C   0  0  0  0  0  0  0  0  0  0  0  0
    6.7740  -24.7771   27.0427 C   0  0  0  0  0  0  0  0  0  0  0  0
    6.7350  -26.2135   26.9497 N   0  0  0  0  0  0  0  0  0  0  0  0
    8.1092  -20.0550   25.4575 C   0  0  0  0  0  0  0  0  0  0  0  0
    9.1510  -19.7301   24.8742 O   0  0  0  0  0  0  0  0  0  0  0  0
    8.1510  -20.0899   26.8634 O   0  0  0  0  0  0  0  0  0  0  0  0
  2  1  1  0
  3  2  1  0
  3  4  1  6
  5  6  2  0
  5  3  1  0
  7  5  1  0
  8  7  1  0
  9  8  1  0
 10  9  2  0
 11  9  1  0
 12 13  1  6
 12 11  1  0
 13 14  1  0
 14 15  1  0
 15 16  1  0
 16 17  1  0
 18 12  1  0
 19 18  2  0
 20 18  1  0
M  END
$$$$
