SGK.pdb
     RDKit          3D

 20 19  0  0  1  0  0  0  0  0999 V2000
    7.9220  -13.6696   17.4995 O   0  0  0  0  0  0  0  0  0  0  0  0
    8.1739  -12.6805   18.4474 C   0  0  0  0  0  0  0  0  0  0  0  0
    9.4075  -12.9972   19.2655 C   0  0  2  0  0  0  0  0  0  0  0  0
   10.5249  -13.3717   18.4589 N   0  0  0  0  0  0  0  0  0  0  0  0
    9.0306  -14.0360   20.2687 C   0  0  0  0  0  0  0  0  0  0  0  0
    8.1064  -13.7241   21.0682 O   0  0  0  0  0  0  0  0  0  0  0  0
    9.6531  -15.3038   20.3444 N   0  0  0  0  0  0  0  0  0  0  0  0
    9.2670  -16.3049   21.2880 C   0  0  0  0  0  0  0  0  0  0  0  0
    9.6280  -15.9600   22.6835 C   0  0  0  0  0  0  0  0  0  0  0  0
   10.8126  -15.6549   22.9655 O   0  0  0  0  0  0  0  0  0  0  0  0
    8.7007  -15.9504   23.7533 N   0  0  0  0  0  0  0  0  0  0  0  0
    9.0645  -15.5642   25.1271 C   0  0  1  0  0  0  0  0  0  0  0  0
    7.8722  -15.1143   25.8869 C   0  0  0  0  0  0  0  0  0  0  0  0
    7.6010  -13.6563   25.6701 C   0  0  0  0  0  0  0  0  0  0  0  0
    6.3705  -13.1916   26.4466 C   0  0  0  0  0  0  0  0  0  0  0  0
    6.2332  -11.6976   26.2140 C   0  0  0  0  0  0  0  0  0  0  0  0
    5.1315  -11.1433   26.9573 N   0  0  0  0  0  0  0  0  0  0  0  0
    9.7481  -16.6635   25.8099 C   0  0  0  0  0  0  0  0  0  0  0  0
   10.3215  -16.5796   26.9033 O   0  0  0  0  0  0  0  0  0  0  0  0
    9.7596  -17.9214   25.1798 O   0  0  0  0  0  0  0  0  0  0  0  0
  2  1  1  0
  3  2  1  0
  3  4  1  6
  5  6  2  0
  5  3  1  0
  7  5  1  0
  8  7  1  0
  9  8  1  0
 10  9  2  0
 11  9  1  0
 12 13  1  1
 12 11  1  0
 13 14  1  0
 14 15  1  0
 15 16  1  0
 16 17  1  0
 18 12  1  0
 19 18  2  0
 20 18  1  0
M  END
$$$$
