SGK.pdb
     RDKit          3D

 20 19  0  0  1  0  0  0  0  0999 V2000
   10.7981  -13.7081   19.0500 O   0  0  0  0  0  0  0  0  0  0  0  0
    9.9620  -14.5933   18.3735 C   0  0  0  0  0  0  0  0  0  0  0  0
    8.5254  -14.1165   18.3826 C   0  0  2  0  0  0  0  0  0  0  0  0
    8.3899  -12.7608   17.9546 N   0  0  0  0  0  0  0  0  0  0  0  0
    7.9763  -14.3606   19.7489 C   0  0  0  0  0  0  0  0  0  0  0  0
    7.8812  -13.3490   20.4961 O   0  0  0  0  0  0  0  0  0  0  0  0
    7.5775  -15.6374   20.2084 N   0  0  0  0  0  0  0  0  0  0  0  0
    7.0549  -15.8643   21.5187 C   0  0  0  0  0  0  0  0  0  0  0  0
    8.0271  -15.5574   22.5946 C   0  0  0  0  0  0  0  0  0  0  0  0
    9.2436  -15.4198   22.3170 O   0  0  0  0  0  0  0  0  0  0  0  0
    7.6677  -15.4039   23.9553 N   0  0  0  0  0  0  0  0  0  0  0  0
    8.6242  -14.9915   24.9963 C   0  0  1  0  0  0  0  0  0  0  0  0
    7.9188  -14.4317   26.1756 C   0  0  0  0  0  0  0  0  0  0  0  0
    7.4008  -13.0522   25.9017 C   0  0  0  0  0  0  0  0  0  0  0  0
    6.3962  -12.6078   26.9630 C   0  0  0  0  0  0  0  0  0  0  0  0
    5.9794  -11.1894   26.6176 C   0  0  0  0  0  0  0  0  0  0  0  0
    5.0681  -10.6509   27.5938 N   0  0  0  0  0  0  0  0  0  0  0  0
    9.4913  -16.1082   25.3744 C   0  0  0  0  0  0  0  0  0  0  0  0
    9.2984  -17.2945   25.0801 O   0  0  0  0  0  0  0  0  0  0  0  0
   10.6397  -15.8193   26.1341 O   0  0  0  0  0  0  0  0  0  0  0  0
  2  1  1  0
  3  2  1  0
  3  4  1  1
  5  6  2  0
  5  3  1  0
  7  5  1  0
  8  7  1  0
  9  8  1  0
 10  9  2  0
 11  9  1  0
 12 13  1  1
 12 11  1  0
 13 14  1  0
 14 15  1  0
 15 16  1  0
 16 17  1  0
 18 12  1  0
 19 18  2  0
 20 18  1  0
M  END
$$$$
