SGK.pdb
     RDKit          3D

 20 19  0  0  1  0  0  0  0  0999 V2000
    8.5784  -18.9220   16.6094 O   0  0  0  0  0  0  0  0  0  0  0  0
    8.4744  -17.7737   17.3910 C   0  0  0  0  0  0  0  0  0  0  0  0
    9.6142  -17.6718   18.3818 C   0  0  2  0  0  0  0  0  0  0  0  0
   10.2645  -18.9231   18.6074 N   0  0  0  0  0  0  0  0  0  0  0  0
    9.0753  -17.0546   19.6294 C   0  0  0  0  0  0  0  0  0  0  0  0
    8.6657  -15.8662   19.5270 O   0  0  0  0  0  0  0  0  0  0  0  0
    9.0139  -17.7350   20.8680 N   0  0  0  0  0  0  0  0  0  0  0  0
    8.4509  -17.1557   22.0466 C   0  0  0  0  0  0  0  0  0  0  0  0
    9.4684  -16.8018   23.0646 C   0  0  0  0  0  0  0  0  0  0  0  0
   10.3235  -17.6514   23.4152 O   0  0  0  0  0  0  0  0  0  0  0  0
    9.5449  -15.5330   23.6881 N   0  0  0  0  0  0  0  0  0  0  0  0
   10.4612  -15.2409   24.8033 C   0  0  1  0  0  0  0  0  0  0  0  0
    9.7107  -15.0097   26.0622 C   0  0  0  0  0  0  0  0  0  0  0  0
   10.6345  -14.8685   27.2340 C   0  0  0  0  0  0  0  0  0  0  0  0
    9.8644  -14.6312   28.5316 C   0  0  0  0  0  0  0  0  0  0  0  0
   10.8892  -14.5292   29.6471 C   0  0  0  0  0  0  0  0  0  0  0  0
   10.2686  -14.2401   30.9138 N   0  0  0  0  0  0  0  0  0  0  0  0
   11.4455  -16.3128   24.9587 C   0  0  0  0  0  0  0  0  0  0  0  0
   12.6433  -16.2326   24.6584 O   0  0  0  0  0  0  0  0  0  0  0  0
   11.0035  -17.5374   25.4922 O   0  0  0  0  0  0  0  0  0  0  0  0
  2  1  1  0
  3  2  1  0
  3  4  1  1
  5  6  2  0
  5  3  1  0
  7  5  1  0
  8  7  1  0
  9  8  1  0
 10  9  2  0
 11  9  1  0
 12 13  1  1
 12 11  1  0
 13 14  1  0
 14 15  1  0
 15 16  1  0
 16 17  1  0
 18 12  1  0
 19 18  2  0
 20 18  1  0
M  END
$$$$
