MHM.pdb
     RDKit          3D

 27 27  0  0  1  0  0  0  0  0999 V2000
   21.3838  -18.4330  -11.2125 C   0  0  0  0  0  0  0  0  0  0  0  0
   20.0220  -18.3530  -12.4245 S   0  0  0  0  0  0  0  0  0  0  0  0
   20.6654  -18.3768  -14.1050 C   0  0  0  0  0  0  0  0  0  0  0  0
   21.5364  -17.2096  -14.4244 C   0  0  0  0  0  0  0  0  0  0  0  0
   22.0392  -17.3062  -15.8348 C   0  0  2  0  0  0  0  0  0  0  0  0
   21.0906  -17.8810  -16.7348 N   0  0  0  0  0  0  0  0  0  0  0  0
   23.3244  -18.0303  -15.8034 C   0  0  0  0  0  0  0  0  0  0  0  0
   23.3200  -19.2853  -15.9453 O   0  0  0  0  0  0  0  0  0  0  0  0
   24.5364  -17.3595  -15.6191 N   0  0  0  0  0  0  0  0  0  0  0  0
   25.7984  -18.0839  -15.7701 C   0  0  1  0  0  0  0  0  0  0  0  0
   26.8280  -17.2552  -16.4485 C   0  0  0  0  0  0  0  0  0  0  0  0
   26.5916  -17.1749  -17.9007 C   0  0  0  0  0  0  0  0  0  0  0  0
   27.0849  -18.0403  -18.8648 C   0  0  0  0  0  0  0  0  0  0  0  0
   26.6889  -17.6320  -20.0653 N   0  0  0  0  0  0  0  0  0  0  0  0
   25.9584  -16.5270  -19.8635 C   0  0  0  0  0  0  0  0  0  0  0  0
   25.8871  -16.2351  -18.5761 N   0  0  0  0  0  0  0  0  0  0  0  0
   26.2564  -18.4404  -14.4060 C   0  0  0  0  0  0  0  0  0  0  0  0
   26.3096  -17.5661  -13.4868 O   0  0  0  0  0  0  0  0  0  0  0  0
   25.0557  -21.0557   -7.6839 C   0  0  0  0  0  0  0  0  0  0  0  0
   24.6961  -20.6970   -9.3967 S   0  0  0  0  0  0  0  0  0  0  0  0
   26.0562  -20.5421  -10.4750 C   0  0  0  0  0  0  0  0  0  0  0  0
   26.0050  -20.1575  -11.8772 C   0  0  0  0  0  0  0  0  0  0  0  0
   27.1243  -20.1544  -12.8092 C   0  0  2  0  0  0  0  0  0  0  0  0
   26.6333  -19.7823  -14.1566 N   0  0  0  0  0  0  0  0  0  0  0  0
   27.9563  -21.3447  -12.9608 C   0  0  0  0  0  0  0  0  0  0  0  0
   27.9923  -22.1265  -13.9122 O   0  0  0  0  0  0  0  0  0  0  0  0
   28.8378  -21.6521  -11.8880 O   0  0  0  0  0  0  0  0  0  0  0  0
  2  1  1  0
  3  2  1  0
  4  3  1  0
  4  5  1  0
  5  6  1  6
  7  5  1  0
  7  8  2  0
  9  7  1  0
 10  9  1  0
 10 11  1  1
 11 12  1  0
 12 13  2  0
 13 14  1  0
 15 14  1  0
 16 12  1  0
 16 15  2  0
 17 10  1  0
 18 17  2  0
 20 19  1  0
 21 20  1  0
 21 22  1  0
 23 22  1  1
 23 25  1  0
 23 24  1  0
 24 17  1  0
 25 27  1  0
 26 25  2  0
M  END
$$$$
