MHM.pdb
     RDKit          3D

 27 27  0  0  1  0  0  0  0  0999 V2000
   30.6588  -16.3976  -17.3900 C   0  0  0  0  0  0  0  0  0  0  0  0
   29.0035  -16.9096  -16.8175 S   0  0  0  0  0  0  0  0  0  0  0  0
   27.7501  -15.7456  -17.3766 C   0  0  0  0  0  0  0  0  0  0  0  0
   26.3834  -16.0534  -16.8664 C   0  0  0  0  0  0  0  0  0  0  0  0
   26.0058  -17.4645  -17.2087 C   0  0  2  0  0  0  0  0  0  0  0  0
   26.1522  -17.7678  -18.5969 N   0  0  0  0  0  0  0  0  0  0  0  0
   24.6393  -17.6976  -16.7031 C   0  0  0  0  0  0  0  0  0  0  0  0
   23.8269  -16.7310  -16.6760 O   0  0  0  0  0  0  0  0  0  0  0  0
   24.2310  -18.9570  -16.2556 N   0  0  0  0  0  0  0  0  0  0  0  0
   22.8613  -19.1503  -15.7796 C   0  0  1  0  0  0  0  0  0  0  0  0
   22.0161  -19.8214  -16.8005 C   0  0  0  0  0  0  0  0  0  0  0  0
   20.6263  -19.9802  -16.3374 C   0  0  0  0  0  0  0  0  0  0  0  0
   19.7372  -18.9606  -16.0348 C   0  0  0  0  0  0  0  0  0  0  0  0
   18.5903  -19.4869  -15.6195 N   0  0  0  0  0  0  0  0  0  0  0  0
   18.7521  -20.8165  -15.6583 C   0  0  0  0  0  0  0  0  0  0  0  0
   19.9625  -21.1339  -16.0846 N   0  0  0  0  0  0  0  0  0  0  0  0
   22.9431  -19.9906  -14.5611 C   0  0  0  0  0  0  0  0  0  0  0  0
   23.6945  -21.0135  -14.5237 O   0  0  0  0  0  0  0  0  0  0  0  0
   25.7101  -21.4406   -8.5385 C   0  0  0  0  0  0  0  0  0  0  0  0
   24.8247  -21.1352  -10.0598 S   0  0  0  0  0  0  0  0  0  0  0  0
   23.4537  -20.0629   -9.9756 C   0  0  0  0  0  0  0  0  0  0  0  0
   22.6237  -19.6359  -11.0917 C   0  0  0  0  0  0  0  0  0  0  0  0
   22.2095  -20.4592  -12.2195 C   0  0  2  0  0  0  0  0  0  0  0  0
   22.1603  -19.6213  -13.4404 N   0  0  0  0  0  0  0  0  0  0  0  0
   20.9613  -21.2143  -12.1574 C   0  0  0  0  0  0  0  0  0  0  0  0
   20.8124  -22.4101  -11.9013 O   0  0  0  0  0  0  0  0  0  0  0  0
   19.7630  -20.4957  -12.4222 O   0  0  0  0  0  0  0  0  0  0  0  0
  2  1  1  0
  3  2  1  0
  4  3  1  0
  4  5  1  0
  5  6  1  6
  7  5  1  0
  7  8  2  0
  9  7  1  0
 10  9  1  0
 10 11  1  6
 11 12  1  0
 12 13  2  0
 13 14  1  0
 15 14  1  0
 16 12  1  0
 16 15  2  0
 17 10  1  0
 18 17  2  0
 20 19  1  0
 21 20  1  0
 21 22  1  0
 23 22  1  1
 23 25  1  0
 23 24  1  0
 24 17  1  0
 25 27  1  0
 26 25  2  0
M  END
$$$$
