MHM.pdb
     RDKit          3D

 27 27  0  0  1  0  0  0  0  0999 V2000
   25.6567  -20.7370   -7.6318 C   0  0  0  0  0  0  0  0  0  0  0  0
   25.0096  -20.7053   -9.3377 S   0  0  0  0  0  0  0  0  0  0  0  0
   26.2130  -21.3923  -10.4860 C   0  0  0  0  0  0  0  0  0  0  0  0
   25.9701  -21.0031  -11.9046 C   0  0  0  0  0  0  0  0  0  0  0  0
   24.5870  -21.4048  -12.3249 C   0  0  2  0  0  0  0  0  0  0  0  0
   24.3926  -22.8197  -12.3501 N   0  0  0  0  0  0  0  0  0  0  0  0
   24.3062  -20.7558  -13.6200 C   0  0  0  0  0  0  0  0  0  0  0  0
   24.5467  -21.3914  -14.6845 O   0  0  0  0  0  0  0  0  0  0  0  0
   23.7853  -19.4609  -13.6903 N   0  0  0  0  0  0  0  0  0  0  0  0
   23.4166  -18.8953  -14.9881 C   0  0  1  0  0  0  0  0  0  0  0  0
   22.2400  -17.9949  -14.8789 C   0  0  0  0  0  0  0  0  0  0  0  0
   21.1337  -18.6320  -14.1430 C   0  0  0  0  0  0  0  0  0  0  0  0
   20.3568  -19.6934  -14.5804 C   0  0  0  0  0  0  0  0  0  0  0  0
   19.4380  -19.9727  -13.6623 N   0  0  0  0  0  0  0  0  0  0  0  0
   19.6307  -19.1020  -12.6622 C   0  0  0  0  0  0  0  0  0  0  0  0
   20.6397  -18.2906  -12.9285 N   0  0  0  0  0  0  0  0  0  0  0  0
   24.5912  -18.1335  -15.4755 C   0  0  0  0  0  0  0  0  0  0  0  0
   24.7759  -16.9266  -15.1269 O   0  0  0  0  0  0  0  0  0  0  0  0
   30.8321  -20.2087  -12.7511 C   0  0  0  0  0  0  0  0  0  0  0  0
   29.3967  -20.2700  -13.8129 S   0  0  0  0  0  0  0  0  0  0  0  0
   28.4849  -18.7964  -13.9964 C   0  0  0  0  0  0  0  0  0  0  0  0
   27.1938  -18.6578  -14.6526 C   0  0  0  0  0  0  0  0  0  0  0  0
   26.9553  -18.6576  -16.0895 C   0  0  2  0  0  0  0  0  0  0  0  0
   25.5010  -18.7885  -16.3405 N   0  0  0  0  0  0  0  0  0  0  0  0
   27.6352  -19.6251  -16.9462 C   0  0  0  0  0  0  0  0  0  0  0  0
   27.2365  -20.7368  -17.2967 O   0  0  0  0  0  0  0  0  0  0  0  0
   28.9139  -19.2531  -17.4448 O   0  0  0  0  0  0  0  0  0  0  0  0
  2  1  1  0
  3  2  1  0
  4  3  1  0
  4  5  1  0
  5  6  1  6
  7  5  1  0
  7  8  2  0
  9  7  1  0
 10  9  1  0
 10 11  1  1
 11 12  1  0
 12 13  2  0
 13 14  1  0
 15 14  1  0
 16 12  1  0
 16 15  2  0
 17 10  1  0
 18 17  2  0
 20 19  1  0
 21 20  1  0
 21 22  1  0
 23 22  1  1
 23 25  1  0
 23 24  1  0
 24 17  1  0
 25 27  1  0
 26 25  2  0
M  END
$$$$
