MHM.pdb
     RDKit          3D

 27 27  0  0  1  0  0  0  0  0999 V2000
   26.5222  -33.8995  -13.2929 C   0  0  0  0  0  0  0  0  0  0  0  0
   27.6933  -32.9693  -14.3385 S   0  0  0  0  0  0  0  0  0  0  0  0
   27.4212  -33.3375  -16.0788 C   0  0  0  0  0  0  0  0  0  0  0  0
   28.4505  -32.7442  -16.9797 C   0  0  0  0  0  0  0  0  0  0  0  0
   28.2354  -31.2653  -17.1125 C   0  0  2  0  0  0  0  0  0  0  0  0
   26.9877  -30.9281  -17.7207 N   0  0  0  0  0  0  0  0  0  0  0  0
   29.4001  -30.7055  -17.8248 C   0  0  0  0  0  0  0  0  0  0  0  0
   29.2531  -30.3085  -19.0147 O   0  0  0  0  0  0  0  0  0  0  0  0
   30.6530  -30.6091  -17.2134 N   0  0  0  0  0  0  0  0  0  0  0  0
   31.7785  -30.0334  -17.9494 C   0  0  1  0  0  0  0  0  0  0  0  0
   32.8286  -29.5212  -17.0317 C   0  0  0  0  0  0  0  0  0  0  0  0
   33.8994  -28.8237  -17.7654 C   0  0  0  0  0  0  0  0  0  0  0  0
   34.0526  -28.7665  -19.1419 C   0  0  0  0  0  0  0  0  0  0  0  0
   35.1501  -28.0769  -19.4333 N   0  0  0  0  0  0  0  0  0  0  0  0
   35.6817  -27.7052  -18.2608 C   0  0  0  0  0  0  0  0  0  0  0  0
   34.9501  -28.1412  -17.2498 N   0  0  0  0  0  0  0  0  0  0  0  0
   32.3346  -31.1128  -18.7998 C   0  0  0  0  0  0  0  0  0  0  0  0
   32.5262  -32.2777  -18.3324 O   0  0  0  0  0  0  0  0  0  0  0  0
   31.9557  -36.6640  -23.3909 C   0  0  0  0  0  0  0  0  0  0  0  0
   31.7637  -35.4826  -22.0646 S   0  0  0  0  0  0  0  0  0  0  0  0
   32.1741  -33.8258  -22.4153 C   0  0  0  0  0  0  0  0  0  0  0  0
   32.0746  -32.7005  -21.4985 C   0  0  0  0  0  0  0  0  0  0  0  0
   33.1791  -31.8791  -21.0225 C   0  0  2  0  0  0  0  0  0  0  0  0
   32.6465  -30.8089  -20.1472 N   0  0  0  0  0  0  0  0  0  0  0  0
   34.0902  -31.2511  -21.9752 C   0  0  0  0  0  0  0  0  0  0  0  0
   33.9928  -30.1380  -22.4941 O   0  0  0  0  0  0  0  0  0  0  0  0
   35.2340  -32.0032  -22.3603 O   0  0  0  0  0  0  0  0  0  0  0  0
  2  1  1  0
  3  2  1  0
  4  3  1  0
  4  5  1  0
  5  6  1  6
  7  5  1  0
  7  8  2  0
  9  7  1  0
 10  9  1  0
 10 11  1  1
 11 12  1  0
 12 13  2  0
 13 14  1  0
 15 14  1  0
 16 12  1  0
 16 15  2  0
 17 10  1  0
 18 17  2  0
 20 19  1  0
 21 20  1  0
 21 22  1  0
 23 22  1  6
 23 25  1  0
 23 24  1  0
 24 17  1  0
 25 27  1  0
 26 25  2  0
M  END
$$$$
