MHM.pdb
     RDKit          3D

 27 27  0  0  1  0  0  0  0  0999 V2000
   31.0739  -21.6529  -10.5386 C   0  0  0  0  0  0  0  0  0  0  0  0
   29.3056  -21.3024  -10.8218 S   0  0  0  0  0  0  0  0  0  0  0  0
   29.0555  -20.5714  -12.4471 C   0  0  0  0  0  0  0  0  0  0  0  0
   27.6291  -20.2537  -12.7427 C   0  0  0  0  0  0  0  0  0  0  0  0
   27.4794  -19.8111  -14.1685 C   0  0  2  0  0  0  0  0  0  0  0  0
   28.3580  -18.7423  -14.5236 N   0  0  0  0  0  0  0  0  0  0  0  0
   26.0560  -19.4925  -14.3913 C   0  0  0  0  0  0  0  0  0  0  0  0
   25.5910  -18.4180  -13.9178 O   0  0  0  0  0  0  0  0  0  0  0  0
   25.2190  -20.3513  -15.1088 N   0  0  0  0  0  0  0  0  0  0  0  0
   23.8223  -19.9813  -15.3380 C   0  0  1  0  0  0  0  0  0  0  0  0
   23.3783  -20.3410  -16.7094 C   0  0  0  0  0  0  0  0  0  0  0  0
   22.0165  -19.8511  -16.9865 C   0  0  0  0  0  0  0  0  0  0  0  0
   21.1602  -19.2423  -16.0822 C   0  0  0  0  0  0  0  0  0  0  0  0
   20.0083  -18.9681  -16.6845 N   0  0  0  0  0  0  0  0  0  0  0  0
   20.1342  -19.3971  -17.9476 C   0  0  0  0  0  0  0  0  0  0  0  0
   21.3274  -19.9288  -18.1503 N   0  0  0  0  0  0  0  0  0  0  0  0
   23.0122  -20.7155  -14.3369 C   0  0  0  0  0  0  0  0  0  0  0  0
   23.1395  -21.9701  -14.1884 O   0  0  0  0  0  0  0  0  0  0  0  0
   20.6934  -21.1277   -7.0134 C   0  0  0  0  0  0  0  0  0  0  0  0
   21.4994  -20.2902   -8.3701 S   0  0  0  0  0  0  0  0  0  0  0  0
   21.0535  -20.7829   -9.9810 C   0  0  0  0  0  0  0  0  0  0  0  0
   21.6475  -20.3106  -11.2223 C   0  0  0  0  0  0  0  0  0  0  0  0
   21.2478  -20.6975  -12.5684 C   0  0  2  0  0  0  0  0  0  0  0  0
   22.0926  -19.9793  -13.5511 N   0  0  0  0  0  0  0  0  0  0  0  0
   19.8590  -20.5465  -12.9934 C   0  0  0  0  0  0  0  0  0  0  0  0
   19.3023  -19.5307  -13.4127 O   0  0  0  0  0  0  0  0  0  0  0  0
   19.0365  -21.7042  -12.9205 O   0  0  0  0  0  0  0  0  0  0  0  0
  2  1  1  0
  3  2  1  0
  4  3  1  0
  4  5  1  0
  5  6  1  1
  7  5  1  0
  7  8  2  0
  9  7  1  0
 10  9  1  0
 10 11  1  6
 11 12  1  0
 12 13  2  0
 13 14  1  0
 15 14  1  0
 16 12  1  0
 16 15  2  0
 17 10  1  0
 18 17  2  0
 20 19  1  0
 21 20  1  0
 21 22  1  0
 23 22  1  1
 23 25  1  0
 23 24  1  0
 24 17  1  0
 25 27  1  0
 26 25  2  0
M  END
$$$$
