MHM.pdb
     RDKit          3D

 27 27  0  0  1  0  0  0  0  0999 V2000
   17.1694   -8.1655  -22.3323 C   0  0  0  0  0  0  0  0  0  0  0  0
   17.6554   -9.9237  -22.2822 S   0  0  0  0  0  0  0  0  0  0  0  0
   17.1046  -10.6913  -20.7505 C   0  0  0  0  0  0  0  0  0  0  0  0
   17.4044  -12.1499  -20.6754 C   0  0  0  0  0  0  0  0  0  0  0  0
   16.8074  -12.7404  -19.4320 C   0  0  2  0  0  0  0  0  0  0  0  0
   16.7069  -11.8073  -18.3552 N   0  0  0  0  0  0  0  0  0  0  0  0
   17.5888  -13.9439  -19.0881 C   0  0  0  0  0  0  0  0  0  0  0  0
   17.7732  -14.8242  -19.9747 O   0  0  0  0  0  0  0  0  0  0  0  0
   18.1227  -14.1275  -17.8098 N   0  0  0  0  0  0  0  0  0  0  0  0
   18.8418  -15.3614  -17.4928 C   0  0  1  0  0  0  0  0  0  0  0  0
   20.1133  -15.0856  -16.7756 C   0  0  0  0  0  0  0  0  0  0  0  0
   21.2048  -14.7578  -17.7096 C   0  0  0  0  0  0  0  0  0  0  0  0
   21.1452  -14.8006  -19.0939 C   0  0  0  0  0  0  0  0  0  0  0  0
   22.3307  -14.4710  -19.5948 N   0  0  0  0  0  0  0  0  0  0  0  0
   23.1260  -14.2248  -18.5449 C   0  0  0  0  0  0  0  0  0  0  0  0
   22.4734  -14.3903  -17.4073 N   0  0  0  0  0  0  0  0  0  0  0  0
   17.9457  -16.1744  -16.6362 C   0  0  0  0  0  0  0  0  0  0  0  0
   17.2336  -15.6305  -15.7365 O   0  0  0  0  0  0  0  0  0  0  0  0
   14.6248  -21.1834  -19.3667 C   0  0  0  0  0  0  0  0  0  0  0  0
   14.6625  -21.5894  -17.6273 S   0  0  0  0  0  0  0  0  0  0  0  0
   15.4159  -20.4348  -16.5616 C   0  0  0  0  0  0  0  0  0  0  0  0
   16.4234  -19.4517  -16.9296 C   0  0  0  0  0  0  0  0  0  0  0  0
   16.9439  -18.3931  -16.0753 C   0  0  2  0  0  0  0  0  0  0  0  0
   17.9060  -17.5738  -16.8487 N   0  0  0  0  0  0  0  0  0  0  0  0
   17.5764  -18.7227  -14.8011 C   0  0  0  0  0  0  0  0  0  0  0  0
   17.0405  -18.8374  -13.6978 O   0  0  0  0  0  0  0  0  0  0  0  0
   18.9814  -18.9411  -14.8199 O   0  0  0  0  0  0  0  0  0  0  0  0
  2  1  1  0
  3  2  1  0
  4  3  1  0
  4  5  1  0
  5  6  1  1
  7  5  1  0
  7  8  2  0
  9  7  1  0
 10  9  1  0
 10 11  1  1
 11 12  1  0
 12 13  2  0
 13 14  1  0
 15 14  1  0
 16 12  1  0
 16 15  2  0
 17 10  1  0
 18 17  2  0
 20 19  1  0
 21 20  1  0
 21 22  1  0
 23 22  1  6
 23 25  1  0
 23 24  1  0
 24 17  1  0
 25 27  1  0
 26 25  2  0
M  END
$$$$
