MHM.pdb
     RDKit          3D

 27 27  0  0  1  0  0  0  0  0999 V2000
   17.3373  -22.5806  -10.9630 C   0  0  0  0  0  0  0  0  0  0  0  0
   16.3033  -23.1243  -12.3649 S   0  0  0  0  0  0  0  0  0  0  0  0
   17.3233  -23.4919  -13.8011 C   0  0  0  0  0  0  0  0  0  0  0  0
   18.7756  -23.6087  -13.4844 C   0  0  0  0  0  0  0  0  0  0  0  0
   19.4526  -22.2800  -13.6496 C   0  0  2  0  0  0  0  0  0  0  0  0
   18.9580  -21.5277  -14.7585 N   0  0  0  0  0  0  0  0  0  0  0  0
   20.9066  -22.5231  -13.7134 C   0  0  0  0  0  0  0  0  0  0  0  0
   21.4194  -23.3610  -12.9197 O   0  0  0  0  0  0  0  0  0  0  0  0
   21.7206  -21.8477  -14.6267 N   0  0  0  0  0  0  0  0  0  0  0  0
   23.1514  -22.1473  -14.6850 C   0  0  1  0  0  0  0  0  0  0  0  0
   23.7353  -21.7774  -16.0001 C   0  0  0  0  0  0  0  0  0  0  0  0
   25.1920  -21.9976  -16.0299 C   0  0  0  0  0  0  0  0  0  0  0  0
   25.8391  -23.2225  -16.0810 C   0  0  0  0  0  0  0  0  0  0  0  0
   27.1528  -23.0262  -16.0610 N   0  0  0  0  0  0  0  0  0  0  0  0
   27.3329  -21.6999  -15.9976 C   0  0  0  0  0  0  0  0  0  0  0  0
   26.1735  -21.0651  -15.9779 N   0  0  0  0  0  0  0  0  0  0  0  0
   23.8000  -21.3634  -13.6068 C   0  0  0  0  0  0  0  0  0  0  0  0
   23.4952  -20.1463  -13.4118 O   0  0  0  0  0  0  0  0  0  0  0  0
   26.8655  -20.0853   -6.8497 C   0  0  0  0  0  0  0  0  0  0  0  0
   26.0760  -20.1851   -8.4492 S   0  0  0  0  0  0  0  0  0  0  0  0
   26.5896  -21.4718   -9.5060 C   0  0  0  0  0  0  0  0  0  0  0  0
   25.8830  -21.9548  -10.6826 C   0  0  0  0  0  0  0  0  0  0  0  0
   25.6113  -21.1943  -11.8947 C   0  0  2  0  0  0  0  0  0  0  0  0
   24.7687  -22.0092  -12.8008 N   0  0  0  0  0  0  0  0  0  0  0  0
   26.7143  -20.6589  -12.6878 C   0  0  0  0  0  0  0  0  0  0  0  0
   27.4782  -21.2739  -13.4334 O   0  0  0  0  0  0  0  0  0  0  0  0
   26.9475  -19.2589  -12.5996 O   0  0  0  0  0  0  0  0  0  0  0  0
  2  1  1  0
  3  2  1  0
  4  3  1  0
  4  5  1  0
  5  6  1  6
  7  5  1  0
  7  8  2  0
  9  7  1  0
 10  9  1  0
 10 11  1  6
 11 12  1  0
 12 13  2  0
 13 14  1  0
 15 14  1  0
 16 12  1  0
 16 15  2  0
 17 10  1  0
 18 17  2  0
 20 19  1  0
 21 20  1  0
 21 22  1  0
 23 22  1  1
 23 25  1  0
 23 24  1  0
 24 17  1  0
 25 27  1  0
 26 25  2  0
M  END
$$$$
