PRT.pdb
     RDKit          3D

 26 26  0  0  1  0  0  0  0  0999 V2000
    8.5351  -13.1231   19.0062 N   0  0  0  0  0  0  0  0  0  0  0  0
    7.8857  -12.3330   17.9488 C   0  0  0  0  0  0  0  0  0  0  0  0
    7.4397  -13.3657   16.9210 C   0  0  0  0  0  0  0  0  0  0  0  0
    7.5380  -14.6926   17.6450 C   0  0  0  0  0  0  0  0  0  0  0  0
    7.6515  -14.2588   19.0818 C   0  0  1  0  0  0  0  0  0  0  0  0
    8.2002  -15.3306   19.9624 C   0  0  0  0  0  0  0  0  0  0  0  0
    7.5716  -16.3863   20.0648 O   0  0  0  0  0  0  0  0  0  0  0  0
   14.9375  -14.3490   18.1389 N   0  0  0  0  0  0  0  0  0  0  0  0
   15.1838  -14.8054   19.4599 C   0  0  0  0  0  0  0  0  0  0  0  0
   16.1767  -14.3254   20.1263 N   0  0  0  0  0  0  0  0  0  0  0  0
   14.3530  -15.7828   20.0594 N   0  0  0  0  0  0  0  0  0  0  0  0
   13.2641  -16.3901   19.3209 C   0  0  0  0  0  0  0  0  0  0  0  0
   11.9271  -15.7890   19.7199 C   0  0  0  0  0  0  0  0  0  0  0  0
   11.4927  -16.4425   21.0043 C   0  0  0  0  0  0  0  0  0  0  0  0
   10.1437  -15.9851   21.4913 C   0  0  2  0  0  0  0  0  0  0  0  0
    9.3914  -15.1381   20.6487 N   0  0  0  0  0  0  0  0  0  0  0  0
   10.1697  -15.6562   22.9113 C   0  0  0  0  0  0  0  0  0  0  0  0
   11.1799  -15.0169   23.3993 O   0  0  0  0  0  0  0  0  0  0  0  0
   16.3386  -14.6096   21.1145 C   0  0  0  0  0  0  0  0  0  0  0  0
    7.9356  -13.5475   25.1252 C   0  0  2  0  0  0  0  0  0  0  0  0
    8.0310  -14.9360   25.6863 O   0  0  0  0  0  0  0  0  0  0  0  0
    6.9462  -15.6951   25.2156 C   0  0  2  0  0  0  0  0  0  0  0  0
    9.3106  -15.6103   25.2401 N   0  0  0  0  0  0  0  0  0  0  0  0
    9.1596  -15.9817   23.8281 C   0  0  0  0  0  0  0  0  0  0  0  0
    9.5446  -16.8569   25.9951 O   0  0  0  0  0  0  0  0  0  0  0  0
    9.8856  -16.7099   27.3425 O   0  0  0  0  0  0  0  0  0  0  0  0
  2  1  1  0
  3  2  1  0
  4  3  1  0
  4  5  1  0
  5  6  1  1
  5  1  1  0
  6  7  2  0
  9  8  1  0
 10  9  2  0
 11  9  1  0
 12 11  1  0
 13 12  1  0
 13 14  1  0
 15 14  1  6
 16 15  1  0
 16  6  1  0
 17 15  1  0
 18 17  2  0
 20 19  1  1
 20 22  1  0
 21 20  1  0
 22 24  1  0
 22 23  1  1
 23 17  1  0
 24 25  1  0
 26 24  2  0
M  END
$$$$
