PRT.pdb
     RDKit          3D

 26 26  0  0  1  0  0  0  0  0999 V2000
    8.7272  -15.0082   19.3406 N   0  0  0  0  0  0  0  0  0  0  0  0
    8.6846  -14.4765   17.9696 C   0  0  0  0  0  0  0  0  0  0  0  0
    7.5588  -13.4500   17.9938 C   0  0  0  0  0  0  0  0  0  0  0  0
    7.2936  -13.2082   19.4655 C   0  0  0  0  0  0  0  0  0  0  0  0
    8.5164  -13.8066   20.1074 C   0  0  1  0  0  0  0  0  0  0  0  0
    8.3172  -14.1011   21.5562 C   0  0  0  0  0  0  0  0  0  0  0  0
    7.9645  -13.1829   22.2995 O   0  0  0  0  0  0  0  0  0  0  0  0
   12.2792  -17.8753   21.3744 N   0  0  0  0  0  0  0  0  0  0  0  0
   12.2146  -19.2584   21.6856 C   0  0  0  0  0  0  0  0  0  0  0  0
   13.3017  -19.9449   21.7710 N   0  0  0  0  0  0  0  0  0  0  0  0
   10.9705  -19.8982   21.9047 N   0  0  0  0  0  0  0  0  0  0  0  0
   10.0026  -19.3482   22.8324 C   0  0  0  0  0  0  0  0  0  0  0  0
    9.8595  -17.8466   22.6510 C   0  0  0  0  0  0  0  0  0  0  0  0
    8.7337  -17.3807   23.5347 C   0  0  0  0  0  0  0  0  0  0  0  0
    8.3701  -15.9328   23.3408 C   0  0  2  0  0  0  0  0  0  0  0  0
    8.5258  -15.3814   22.0505 N   0  0  0  0  0  0  0  0  0  0  0  0
    8.8023  -15.1160   24.4685 C   0  0  0  0  0  0  0  0  0  0  0  0
   10.0309  -14.7248   24.5385 O   0  0  0  0  0  0  0  0  0  0  0  0
   13.2717  -20.9576   22.0096 C   0  0  0  0  0  0  0  0  0  0  0  0
    7.4701  -11.7143   25.7724 C   0  0  2  0  0  0  0  0  0  0  0  0
    7.4799  -12.7526   26.8558 O   0  0  0  0  0  0  0  0  0  0  0  0
    6.2162  -13.3644   26.9146 C   0  0  2  0  0  0  0  0  0  0  0  0
    8.5115  -13.8221   26.5672 N   0  0  0  0  0  0  0  0  0  0  0  0
    7.9742  -14.7007   25.5213 C   0  0  0  0  0  0  0  0  0  0  0  0
    8.7536  -14.6607   27.7575 O   0  0  0  0  0  0  0  0  0  0  0  0
    9.2656  -14.0069   28.8816 O   0  0  0  0  0  0  0  0  0  0  0  0
  2  1  1  0
  3  2  1  0
  4  3  1  0
  4  5  1  0
  5  6  1  1
  5  1  1  0
  6  7  2  0
  9  8  1  0
 10  9  2  0
 11  9  1  0
 12 11  1  0
 13 12  1  0
 13 14  1  0
 15 14  1  6
 16 15  1  0
 16  6  1  0
 17 15  1  0
 18 17  2  0
 20 19  1  1
 20 22  1  0
 21 20  1  0
 22 24  1  0
 22 23  1  1
 23 17  1  0
 24 25  1  0
 26 24  2  0
M  END
$$$$
