PRT.pdb
     RDKit          3D

 26 26  0  0  1  0  0  0  0  0999 V2000
    8.6947  -14.8818   19.3353 N   0  0  0  0  0  0  0  0  0  0  0  0
    8.6693  -14.3131   17.9788 C   0  0  0  0  0  0  0  0  0  0  0  0
    7.5207  -13.3123   18.0066 C   0  0  0  0  0  0  0  0  0  0  0  0
    7.2191  -13.1175   19.4782 C   0  0  0  0  0  0  0  0  0  0  0  0
    8.4410  -13.7069   20.1299 C   0  0  1  0  0  0  0  0  0  0  0  0
    8.2178  -14.0460   21.5654 C   0  0  0  0  0  0  0  0  0  0  0  0
    7.7447  -13.1819   22.3067 O   0  0  0  0  0  0  0  0  0  0  0  0
    6.6844  -20.2281   21.3994 N   0  0  0  0  0  0  0  0  0  0  0  0
    7.8842  -20.7048   20.8102 C   0  0  0  0  0  0  0  0  0  0  0  0
    7.8284  -21.4352   19.7501 N   0  0  0  0  0  0  0  0  0  0  0  0
    9.1459  -20.3895   21.3703 N   0  0  0  0  0  0  0  0  0  0  0  0
    9.2520  -19.5292   22.5316 C   0  0  0  0  0  0  0  0  0  0  0  0
    8.6715  -18.1535   22.2510 C   0  0  0  0  0  0  0  0  0  0  0  0
    8.8307  -17.3232   23.4963 C   0  0  0  0  0  0  0  0  0  0  0  0
    8.4016  -15.8901   23.3284 C   0  0  2  0  0  0  0  0  0  0  0  0
    8.5374  -15.3070   22.0499 N   0  0  0  0  0  0  0  0  0  0  0  0
    8.7903  -15.0765   24.4740 C   0  0  0  0  0  0  0  0  0  0  0  0
   10.0179  -14.6957   24.5983 O   0  0  0  0  0  0  0  0  0  0  0  0
    8.6960  -21.8309   19.3328 C   0  0  0  0  0  0  0  0  0  0  0  0
    7.0216  -11.7917   25.7054 C   0  0  2  0  0  0  0  0  0  0  0  0
    7.2505  -12.7614   26.8275 O   0  0  0  0  0  0  0  0  0  0  0  0
    6.0876  -13.5279   27.0142 C   0  0  2  0  0  0  0  0  0  0  0  0
    8.3912  -13.7018   26.5023 N   0  0  0  0  0  0  0  0  0  0  0  0
    7.9200  -14.6535   25.4891 C   0  0  0  0  0  0  0  0  0  0  0  0
    8.7849  -14.4881   27.6878 O   0  0  0  0  0  0  0  0  0  0  0  0
    9.3549  -13.7722   28.7441 O   0  0  0  0  0  0  0  0  0  0  0  0
  2  1  1  0
  3  2  1  0
  4  3  1  0
  4  5  1  0
  5  6  1  1
  5  1  1  0
  6  7  2  0
  9  8  1  0
 10  9  2  0
 11  9  1  0
 12 11  1  0
 13 12  1  0
 13 14  1  0
 15 14  1  6
 16 15  1  0
 16  6  1  0
 17 15  1  0
 18 17  2  0
 20 19  1  1
 20 22  1  0
 21 20  1  0
 22 24  1  0
 22 23  1  1
 23 17  1  0
 24 25  1  0
 26 24  2  0
M  END
$$$$
