PRT.pdb
     RDKit          3D

 26 26  0  0  1  0  0  0  0  0999 V2000
    8.1476  -15.4812   19.5359 N   0  0  0  0  0  0  0  0  0  0  0  0
    8.3984  -15.1369   18.1278 C   0  0  0  0  0  0  0  0  0  0  0  0
    7.7378  -13.7761   17.9448 C   0  0  0  0  0  0  0  0  0  0  0  0
    7.4840  -13.2819   19.3541 C   0  0  0  0  0  0  0  0  0  0  0  0
    8.3494  -14.2036   20.1707 C   0  0  1  0  0  0  0  0  0  0  0  0
    7.9581  -14.2315   21.6100 C   0  0  0  0  0  0  0  0  0  0  0  0
    8.0131  -13.1819   22.2546 O   0  0  0  0  0  0  0  0  0  0  0  0
    9.2609  -21.0850   26.5726 N   0  0  0  0  0  0  0  0  0  0  0  0
    8.0033  -20.4274   26.5595 C   0  0  0  0  0  0  0  0  0  0  0  0
    7.1981  -20.5701   27.5553 N   0  0  0  0  0  0  0  0  0  0  0  0
    7.6182  -19.6142   25.4663 N   0  0  0  0  0  0  0  0  0  0  0  0
    6.3457  -18.9209   25.4648 C   0  0  0  0  0  0  0  0  0  0  0  0
    6.5357  -17.4243   25.2855 C   0  0  0  0  0  0  0  0  0  0  0  0
    7.0721  -17.1905   23.8987 C   0  0  0  0  0  0  0  0  0  0  0  0
    7.2071  -15.7352   23.5382 C   0  0  2  0  0  0  0  0  0  0  0  0
    7.5426  -15.4151   22.2047 N   0  0  0  0  0  0  0  0  0  0  0  0
    7.8783  -14.9822   24.5908 C   0  0  0  0  0  0  0  0  0  0  0  0
    9.1671  -15.0043   24.6678 O   0  0  0  0  0  0  0  0  0  0  0  0
    6.2746  -20.0898   27.5632 C   0  0  0  0  0  0  0  0  0  0  0  0
    6.8245  -11.2524   25.9879 C   0  0  2  0  0  0  0  0  0  0  0  0
    7.1082  -12.2956   27.0286 O   0  0  0  0  0  0  0  0  0  0  0  0
    5.8981  -12.8955   27.4167 C   0  0  2  0  0  0  0  0  0  0  0  0
    8.0163  -13.3736   26.4767 N   0  0  0  0  0  0  0  0  0  0  0  0
    7.2274  -14.2070   25.5615 C   0  0  0  0  0  0  0  0  0  0  0  0
    8.5080  -14.2555   27.5534 O   0  0  0  0  0  0  0  0  0  0  0  0
    9.2546  -13.6424   28.5633 O   0  0  0  0  0  0  0  0  0  0  0  0
  2  1  1  0
  3  2  1  0
  4  3  1  0
  4  5  1  0
  5  6  1  1
  5  1  1  0
  6  7  2  0
  9  8  1  0
 10  9  2  0
 11  9  1  0
 12 11  1  0
 13 12  1  0
 13 14  1  0
 15 14  1  1
 16 15  1  0
 16  6  1  0
 17 15  1  0
 18 17  2  0
 20 19  1  1
 20 22  1  0
 21 20  1  0
 22 24  1  0
 22 23  1  1
 23 17  1  0
 24 25  1  0
 26 24  2  0
M  END
$$$$
