PRT.pdb
     RDKit          3D

 26 26  0  0  1  0  0  0  0  0999 V2000
    8.3094  -15.2962   19.3241 N   0  0  0  0  0  0  0  0  0  0  0  0
    8.4566  -14.8749   17.9223 C   0  0  0  0  0  0  0  0  0  0  0  0
    7.5971  -13.6219   17.8088 C   0  0  0  0  0  0  0  0  0  0  0  0
    7.3237  -13.2147   19.2420 C   0  0  0  0  0  0  0  0  0  0  0  0
    8.3436  -14.0230   19.9981 C   0  0  1  0  0  0  0  0  0  0  0  0
    8.0122  -14.1533   21.4467 C   0  0  0  0  0  0  0  0  0  0  0  0
    8.0064  -13.1354   22.1422 O   0  0  0  0  0  0  0  0  0  0  0  0
    6.5108  -21.8729   25.8552 N   0  0  0  0  0  0  0  0  0  0  0  0
    6.4776  -20.8647   26.8535 C   0  0  0  0  0  0  0  0  0  0  0  0
    6.2355  -21.1862   28.0775 N   0  0  0  0  0  0  0  0  0  0  0  0
    6.7072  -19.5067   26.5248 N   0  0  0  0  0  0  0  0  0  0  0  0
    7.0004  -19.1087   25.1626 C   0  0  0  0  0  0  0  0  0  0  0  0
    7.2172  -17.6083   25.0633 C   0  0  0  0  0  0  0  0  0  0  0  0
    7.4967  -17.2772   23.6219 C   0  0  0  0  0  0  0  0  0  0  0  0
    7.4475  -15.8037   23.3176 C   0  0  2  0  0  0  0  0  0  0  0  0
    7.7180  -15.3949   21.9937 N   0  0  0  0  0  0  0  0  0  0  0  0
    8.0407  -15.0148   24.3905 C   0  0  0  0  0  0  0  0  0  0  0  0
    9.3234  -15.0018   24.5380 O   0  0  0  0  0  0  0  0  0  0  0  0
    6.3106  -20.4778   28.8364 C   0  0  0  0  0  0  0  0  0  0  0  0
    7.2254  -11.2293   25.6106 C   0  0  2  0  0  0  0  0  0  0  0  0
    7.1793  -12.2680   26.6925 O   0  0  0  0  0  0  0  0  0  0  0  0
    5.8535  -12.7066   26.8495 C   0  0  2  0  0  0  0  0  0  0  0  0
    8.0341  -13.4630   26.3284 N   0  0  0  0  0  0  0  0  0  0  0  0
    7.3182  -14.2396   25.3092 C   0  0  0  0  0  0  0  0  0  0  0  0
    8.2303  -14.3494   27.4923 O   0  0  0  0  0  0  0  0  0  0  0  0
    8.9290  -13.8057   28.5737 O   0  0  0  0  0  0  0  0  0  0  0  0
  2  1  1  0
  3  2  1  0
  4  3  1  0
  4  5  1  0
  5  6  1  1
  5  1  1  0
  6  7  2  0
  9  8  1  0
 10  9  2  0
 11  9  1  0
 12 11  1  0
 13 12  1  0
 13 14  1  0
 15 14  1  6
 16 15  1  0
 16  6  1  0
 17 15  1  0
 18 17  2  0
 20 19  1  1
 20 22  1  0
 21 20  1  0
 22 24  1  0
 22 23  1  1
 23 17  1  0
 24 25  1  0
 26 24  2  0
M  END
$$$$
