PRT.pdb
     RDKit          3D

 26 26  0  0  1  0  0  0  0  0999 V2000
    8.6964  -14.6873   19.2387 N   0  0  0  0  0  0  0  0  0  0  0  0
    8.7261  -14.0606   17.9081 C   0  0  0  0  0  0  0  0  0  0  0  0
    7.5647  -13.0744   17.9254 C   0  0  0  0  0  0  0  0  0  0  0  0
    7.1934  -12.9469   19.3884 C   0  0  0  0  0  0  0  0  0  0  0  0
    8.3916  -13.5509   20.0703 C   0  0  1  0  0  0  0  0  0  0  0  0
    8.1069  -13.9543   21.4780 C   0  0  0  0  0  0  0  0  0  0  0  0
    7.5229  -13.1543   22.2121 O   0  0  0  0  0  0  0  0  0  0  0  0
   10.0642  -18.9304   19.6110 N   0  0  0  0  0  0  0  0  0  0  0  0
    9.1597  -20.0016   19.8307 C   0  0  0  0  0  0  0  0  0  0  0  0
    8.7189  -20.6806   18.8283 N   0  0  0  0  0  0  0  0  0  0  0  0
    8.7327  -20.3375   21.1383 N   0  0  0  0  0  0  0  0  0  0  0  0
    9.0302  -19.4752   22.2642 C   0  0  0  0  0  0  0  0  0  0  0  0
    8.4561  -18.0839   22.0574 C   0  0  0  0  0  0  0  0  0  0  0  0
    8.7189  -17.2863   23.3064 C   0  0  0  0  0  0  0  0  0  0  0  0
    8.3245  -15.8378   23.1951 C   0  0  2  0  0  0  0  0  0  0  0  0
    8.4933  -15.2031   21.9453 N   0  0  0  0  0  0  0  0  0  0  0  0
    8.7134  -15.0837   24.3806 C   0  0  0  0  0  0  0  0  0  0  0  0
    9.9540  -14.7740   24.5607 O   0  0  0  0  0  0  0  0  0  0  0  0
    8.0741  -21.4845   18.9750 C   0  0  0  0  0  0  0  0  0  0  0  0
    7.1775  -11.7241   25.7873 C   0  0  2  0  0  0  0  0  0  0  0  0
    7.2527  -12.8051   26.8254 O   0  0  0  0  0  0  0  0  0  0  0  0
    6.0199  -13.4778   26.8755 C   0  0  2  0  0  0  0  0  0  0  0  0
    8.3283  -13.8117   26.4776 N   0  0  0  0  0  0  0  0  0  0  0  0
    7.8299  -14.6473   25.3785 C   0  0  0  0  0  0  0  0  0  0  0  0
    8.6029  -14.7097   27.6165 O   0  0  0  0  0  0  0  0  0  0  0  0
    9.1746  -14.1189   28.7467 O   0  0  0  0  0  0  0  0  0  0  0  0
  2  1  1  0
  3  2  1  0
  4  3  1  0
  4  5  1  0
  5  6  1  1
  5  1  1  0
  6  7  2  0
  9  8  1  0
 10  9  2  0
 11  9  1  0
 12 11  1  0
 13 12  1  0
 13 14  1  0
 15 14  1  6
 16 15  1  0
 16  6  1  0
 17 15  1  0
 18 17  2  0
 20 19  1  1
 20 22  1  0
 21 20  1  0
 22 24  1  0
 22 23  1  1
 23 17  1  0
 24 25  1  0
 26 24  2  0
M  END
$$$$
