PRT.pdb
     RDKit          3D

 26 26  0  0  1  0  0  0  0  0999 V2000
    8.3693  -14.7509   19.1574 N   0  0  0  0  0  0  0  0  0  0  0  0
    8.4250  -14.1684   17.8077 C   0  0  0  0  0  0  0  0  0  0  0  0
    7.4727  -12.9804   17.8657 C   0  0  0  0  0  0  0  0  0  0  0  0
    7.2325  -12.7550   19.3443 C   0  0  0  0  0  0  0  0  0  0  0  0
    8.3400  -13.5605   19.9687 C   0  0  1  0  0  0  0  0  0  0  0  0
    8.0817  -13.8739   21.4042 C   0  0  0  0  0  0  0  0  0  0  0  0
    8.0057  -12.9398   22.2053 O   0  0  0  0  0  0  0  0  0  0  0  0
   12.1484  -18.2040   22.1857 N   0  0  0  0  0  0  0  0  0  0  0  0
   11.2831  -19.2662   21.8154 C   0  0  0  0  0  0  0  0  0  0  0  0
   11.2841  -19.6964   20.6008 N   0  0  0  0  0  0  0  0  0  0  0  0
   10.4159  -19.8629   22.7625 N   0  0  0  0  0  0  0  0  0  0  0  0
    9.1233  -19.2798   23.0609 C   0  0  0  0  0  0  0  0  0  0  0  0
    9.1503  -17.7699   22.8951 C   0  0  0  0  0  0  0  0  0  0  0  0
    7.7817  -17.2441   23.2357 C   0  0  0  0  0  0  0  0  0  0  0  0
    7.6510  -15.7519   23.0866 C   0  0  2  0  0  0  0  0  0  0  0  0
    7.9312  -15.1890   21.8226 N   0  0  0  0  0  0  0  0  0  0  0  0
    8.1664  -15.0492   24.2554 C   0  0  0  0  0  0  0  0  0  0  0  0
    9.4274  -14.7824   24.3341 O   0  0  0  0  0  0  0  0  0  0  0  0
   10.6267  -20.4468   20.3037 C   0  0  0  0  0  0  0  0  0  0  0  0
    6.7633  -11.7341   25.8380 C   0  0  2  0  0  0  0  0  0  0  0  0
    6.9748  -12.8018   26.8709 O   0  0  0  0  0  0  0  0  0  0  0  0
    5.7611  -13.4764   27.0867 C   0  0  2  0  0  0  0  0  0  0  0  0
    8.0008  -13.8104   26.4004 N   0  0  0  0  0  0  0  0  0  0  0  0
    7.3884  -14.6202   25.3404 C   0  0  0  0  0  0  0  0  0  0  0  0
    8.3766  -14.7326   27.4899 O   0  0  0  0  0  0  0  0  0  0  0  0
    9.1022  -14.1780   28.5478 O   0  0  0  0  0  0  0  0  0  0  0  0
  2  1  1  0
  3  2  1  0
  4  3  1  0
  4  5  1  0
  5  6  1  1
  5  1  1  0
  6  7  2  0
  9  8  1  0
 10  9  2  0
 11  9  1  0
 12 11  1  0
 13 12  1  0
 13 14  1  0
 15 14  1  6
 16 15  1  0
 16  6  1  0
 17 15  1  0
 18 17  2  0
 20 19  1  1
 20 22  1  0
 21 20  1  0
 22 24  1  0
 22 23  1  1
 23 17  1  0
 24 25  1  0
 26 24  2  0
M  END
$$$$
