PRT.pdb
     RDKit          3D

 26 26  0  0  1  0  0  0  0  0999 V2000
    8.3418  -14.7618   19.0019 N   0  0  0  0  0  0  0  0  0  0  0  0
    8.5346  -14.2187   17.6484 C   0  0  0  0  0  0  0  0  0  0  0  0
    7.7284  -12.9258   17.6381 C   0  0  0  0  0  0  0  0  0  0  0  0
    7.4419  -12.6424   19.0984 C   0  0  0  0  0  0  0  0  0  0  0  0
    8.4130  -13.5593   19.7925 C   0  0  1  0  0  0  0  0  0  0  0  0
    8.0467  -13.8097   21.2168 C   0  0  0  0  0  0  0  0  0  0  0  0
    8.0525  -12.8584   22.0012 O   0  0  0  0  0  0  0  0  0  0  0  0
    7.8948  -21.0346   20.5919 N   0  0  0  0  0  0  0  0  0  0  0  0
    8.7736  -21.1086   21.7038 C   0  0  0  0  0  0  0  0  0  0  0  0
    9.8194  -21.8587   21.6420 N   0  0  0  0  0  0  0  0  0  0  0  0
    8.5188  -20.3686   22.8839 N   0  0  0  0  0  0  0  0  0  0  0  0
    7.4515  -19.3897   22.9341 C   0  0  0  0  0  0  0  0  0  0  0  0
    8.0031  -17.9742   22.9160 C   0  0  0  0  0  0  0  0  0  0  0  0
    6.8364  -17.0242   22.9585 C   0  0  0  0  0  0  0  0  0  0  0  0
    7.2323  -15.5739   22.8803 C   0  0  2  0  0  0  0  0  0  0  0  0
    7.7081  -15.0865   21.6437 N   0  0  0  0  0  0  0  0  0  0  0  0
    7.9422  -15.1467   24.0799 C   0  0  0  0  0  0  0  0  0  0  0  0
    9.2187  -15.3237   24.1623 O   0  0  0  0  0  0  0  0  0  0  0  0
   10.4639  -21.9376   22.4556 C   0  0  0  0  0  0  0  0  0  0  0  0
    7.2901  -11.7200   26.1728 C   0  0  2  0  0  0  0  0  0  0  0  0
    7.4044  -12.9575   27.0138 O   0  0  0  0  0  0  0  0  0  0  0  0
    6.1156  -13.4498   27.2808 C   0  0  2  0  0  0  0  0  0  0  0  0
    8.1815  -14.0334   26.2859 N   0  0  0  0  0  0  0  0  0  0  0  0
    7.3429  -14.5377   25.1919 C   0  0  0  0  0  0  0  0  0  0  0  0
    8.4678  -15.1754   27.1762 O   0  0  0  0  0  0  0  0  0  0  0  0
    9.3147  -14.9197   28.2582 O   0  0  0  0  0  0  0  0  0  0  0  0
  2  1  1  0
  3  2  1  0
  4  3  1  0
  4  5  1  0
  5  6  1  1
  5  1  1  0
  6  7  2  0
  9  8  1  0
 10  9  2  0
 11  9  1  0
 12 11  1  0
 13 12  1  0
 13 14  1  0
 15 14  1  6
 16 15  1  0
 16  6  1  0
 17 15  1  0
 18 17  2  0
 20 19  1  1
 20 22  1  0
 21 20  1  0
 22 24  1  0
 22 23  1  1
 23 17  1  0
 24 25  1  0
 26 24  2  0
M  END
$$$$
