PRT.pdb
     RDKit          3D

 26 26  0  0  1  0  0  0  0  0999 V2000
    8.2194  -14.9292   19.2589 N   0  0  0  0  0  0  0  0  0  0  0  0
    8.2271  -14.3961   17.8878 C   0  0  0  0  0  0  0  0  0  0  0  0
    7.3101  -13.1808   17.9463 C   0  0  0  0  0  0  0  0  0  0  0  0
    7.1453  -12.8971   19.4252 C   0  0  0  0  0  0  0  0  0  0  0  0
    8.2594  -13.7107   20.0270 C   0  0  1  0  0  0  0  0  0  0  0  0
    8.0604  -13.9663   21.4832 C   0  0  0  0  0  0  0  0  0  0  0  0
    7.9390  -12.9994   22.2385 O   0  0  0  0  0  0  0  0  0  0  0  0
    5.9021  -21.3537   25.5071 N   0  0  0  0  0  0  0  0  0  0  0  0
    6.6125  -20.7085   26.5526 C   0  0  0  0  0  0  0  0  0  0  0  0
    6.3661  -21.0198   27.7785 N   0  0  0  0  0  0  0  0  0  0  0  0
    7.5911  -19.7252   26.2694 N   0  0  0  0  0  0  0  0  0  0  0  0
    7.7750  -19.2227   24.9227 C   0  0  0  0  0  0  0  0  0  0  0  0
    7.6215  -17.7120   24.8743 C   0  0  0  0  0  0  0  0  0  0  0  0
    7.8767  -17.2677   23.4590 C   0  0  0  0  0  0  0  0  0  0  0  0
    7.7398  -15.7824   23.2558 C   0  0  2  0  0  0  0  0  0  0  0  0
    8.0139  -15.2652   21.9711 N   0  0  0  0  0  0  0  0  0  0  0  0
    8.2563  -15.0355   24.3963 C   0  0  0  0  0  0  0  0  0  0  0  0
    9.5320  -14.9075   24.5498 O   0  0  0  0  0  0  0  0  0  0  0  0
    6.8292  -20.5092   28.5584 C   0  0  0  0  0  0  0  0  0  0  0  0
    6.7888  -11.5375   25.9565 C   0  0  2  0  0  0  0  0  0  0  0  0
    7.0586  -12.6331   26.9457 O   0  0  0  0  0  0  0  0  0  0  0  0
    5.8704  -13.3486   27.1714 C   0  0  2  0  0  0  0  0  0  0  0  0
    8.0979  -13.5959   26.4128 N   0  0  0  0  0  0  0  0  0  0  0  0
    7.4643  -14.4199   25.3764 C   0  0  0  0  0  0  0  0  0  0  0  0
    8.5649  -14.5122   27.4716 O   0  0  0  0  0  0  0  0  0  0  0  0
    9.1770  -13.9181   28.5787 O   0  0  0  0  0  0  0  0  0  0  0  0
  2  1  1  0
  3  2  1  0
  4  3  1  0
  4  5  1  0
  5  6  1  1
  5  1  1  0
  6  7  2  0
  9  8  1  0
 10  9  2  0
 11  9  1  0
 12 11  1  0
 13 12  1  0
 13 14  1  0
 15 14  1  6
 16 15  1  0
 16  6  1  0
 17 15  1  0
 18 17  2  0
 20 19  1  1
 20 22  1  0
 21 20  1  0
 22 24  1  0
 22 23  1  1
 23 17  1  0
 24 25  1  0
 26 24  2  0
M  END
$$$$
