EAR.pdb
     RDKit          3D

 26 25  0  0  1  0  0  0  0  0999 V2000
    9.5786  -14.9556   16.3953 N   0  0  0  0  0  0  0  0  0  0  0  0
    9.4042  -15.9685   17.4183 C   0  0  1  0  0  0  0  0  0  0  0  0
   10.6202  -16.8052   17.6529 C   0  0  0  0  0  0  0  0  0  0  0  0
   11.1369  -17.5469   16.4711 C   0  0  0  0  0  0  0  0  0  0  0  0
   11.9047  -18.7617   16.7756 C   0  0  0  0  0  0  0  0  0  0  0  0
   13.1563  -18.7131   16.8485 O   0  0  0  0  0  0  0  0  0  0  0  0
    9.0006  -15.3635   18.7158 C   0  0  0  0  0  0  0  0  0  0  0  0
    9.8312  -14.6296   19.3020 O   0  0  0  0  0  0  0  0  0  0  0  0
   11.3003  -20.0140   16.9969 O   0  0  0  0  0  0  0  0  0  0  0  0
    5.8346  -15.1405   20.8055 C   0  0  0  0  0  0  0  0  0  0  0  0
    7.2889  -14.9535   20.5341 C   0  0  2  0  0  0  0  0  0  0  0  0
    7.7523  -15.5647   19.3182 N   0  0  0  0  0  0  0  0  0  0  0  0
    8.0789  -15.5379   21.6718 C   0  0  0  0  0  0  0  0  0  0  0  0
    8.6489  -16.6642   21.5485 O   0  0  0  0  0  0  0  0  0  0  0  0
    9.0660  -16.2779   30.1728 N   0  0  0  0  0  0  0  0  0  0  0  0
   10.0816  -15.3121   29.8391 C   0  0  0  0  0  0  0  0  0  0  0  0
   10.6977  -14.6821   30.7727 N   0  0  0  0  0  0  0  0  0  0  0  0
   10.4282  -15.0307   28.5000 N   0  0  0  0  0  0  0  0  0  0  0  0
    9.4491  -15.1722   27.4219 C   0  0  0  0  0  0  0  0  0  0  0  0
   10.1405  -14.7420   26.1574 C   0  0  0  0  0  0  0  0  0  0  0  0
    9.1736  -14.4510   25.0915 C   0  0  0  0  0  0  0  0  0  0  0  0
    8.9067  -15.4568   24.0485 C   0  0  2  0  0  0  0  0  0  0  0  0
    8.2273  -14.8808   22.9137 N   0  0  0  0  0  0  0  0  0  0  0  0
    8.3255  -16.7390   24.4753 C   0  0  0  0  0  0  0  0  0  0  0  0
    9.1224  -17.7307   25.0283 O   0  0  0  0  0  0  0  0  0  0  0  0
    7.0960  -17.0200   24.3717 O   0  0  0  0  0  0  0  0  0  0  0  0
  2  1  1  6
  3  2  1  0
  4  3  1  0
  5  4  1  0
  5  6  2  0
  7  8  2  0
  7  2  1  0
  9  5  1  0
 11 10  1  1
 11 12  1  0
 12  7  1  0
 13 11  1  0
 14 13  2  0
 16 15  1  0
 16 18  1  0
 17 16  2  0
 19 18  1  0
 19 20  1  0
 20 21  1  0
 22 21  1  1
 22 23  1  0
 23 13  1  0
 24 22  1  0
 24 25  1  0
 26 24  2  0
M  END
$$$$
