EAR.pdb
     RDKit          3D

 26 25  0  0  1  0  0  0  0  0999 V2000
   12.7607  -18.6111   16.7573 N   0  0  0  0  0  0  0  0  0  0  0  0
   13.2529  -18.9522   18.0781 C   0  0  1  0  0  0  0  0  0  0  0  0
   14.4520  -18.1648   18.4974 C   0  0  0  0  0  0  0  0  0  0  0  0
   14.6627  -16.8740   17.7881 C   0  0  0  0  0  0  0  0  0  0  0  0
   15.8938  -16.1544   18.1410 C   0  0  0  0  0  0  0  0  0  0  0  0
   16.1493  -15.0468   17.6099 O   0  0  0  0  0  0  0  0  0  0  0  0
   12.1976  -18.7749   19.1113 C   0  0  0  0  0  0  0  0  0  0  0  0
   11.3264  -17.8956   18.9121 O   0  0  0  0  0  0  0  0  0  0  0  0
   16.8311  -16.6496   19.0677 O   0  0  0  0  0  0  0  0  0  0  0  0
   11.0534  -20.6341   22.2150 C   0  0  0  0  0  0  0  0  0  0  0  0
   11.0495  -19.5000   21.2468 C   0  0  2  0  0  0  0  0  0  0  0  0
   12.1206  -19.5300   20.2885 N   0  0  0  0  0  0  0  0  0  0  0  0
   11.1492  -18.2066   22.0066 C   0  0  0  0  0  0  0  0  0  0  0  0
   12.2763  -17.7714   22.3922 O   0  0  0  0  0  0  0  0  0  0  0  0
    7.8785  -13.6234   17.2141 N   0  0  0  0  0  0  0  0  0  0  0  0
    8.1706  -13.2636   18.5782 C   0  0  0  0  0  0  0  0  0  0  0  0
    8.8940  -12.2328   18.8278 N   0  0  0  0  0  0  0  0  0  0  0  0
    7.6807  -14.0170   19.6667 N   0  0  0  0  0  0  0  0  0  0  0  0
    8.0300  -13.6670   21.0440 C   0  0  0  0  0  0  0  0  0  0  0  0
    9.2529  -14.4704   21.3920 C   0  0  0  0  0  0  0  0  0  0  0  0
    9.0591  -15.2288   22.6341 C   0  0  0  0  0  0  0  0  0  0  0  0
   10.0854  -16.1897   23.0747 C   0  0  2  0  0  0  0  0  0  0  0  0
   10.0191  -17.4213   22.3265 N   0  0  0  0  0  0  0  0  0  0  0  0
   10.2366  -16.4047   24.5221 C   0  0  0  0  0  0  0  0  0  0  0  0
   11.1961  -15.7126   25.2463 O   0  0  0  0  0  0  0  0  0  0  0  0
    9.5246  -17.2111   25.1888 O   0  0  0  0  0  0  0  0  0  0  0  0
  2  1  1  6
  3  2  1  0
  4  3  1  0
  5  4  1  0
  5  6  2  0
  7  8  2  0
  7  2  1  0
  9  5  1  0
 11 10  1  1
 11 12  1  0
 12  7  1  0
 13 11  1  0
 14 13  2  0
 16 15  1  0
 16 18  1  0
 17 16  2  0
 19 18  1  0
 19 20  1  0
 20 21  1  0
 22 21  1  1
 22 23  1  0
 23 13  1  0
 24 22  1  0
 24 25  1  0
 26 24  2  0
M  END
$$$$
