EAR.pdb
     RDKit          3D

 26 25  0  0  1  0  0  0  0  0999 V2000
   10.0674  -18.8581   16.3527 N   0  0  0  0  0  0  0  0  0  0  0  0
   10.5739  -19.6974   17.4214 C   0  0  1  0  0  0  0  0  0  0  0  0
   12.0472  -19.5730   17.6401 C   0  0  0  0  0  0  0  0  0  0  0  0
   12.5493  -18.2007   17.9202 C   0  0  0  0  0  0  0  0  0  0  0  0
   13.9970  -18.0927   18.1440 C   0  0  0  0  0  0  0  0  0  0  0  0
   14.4335  -17.6101   19.2168 O   0  0  0  0  0  0  0  0  0  0  0  0
    9.8882  -19.4066   18.7089 C   0  0  0  0  0  0  0  0  0  0  0  0
    9.2365  -18.3390   18.7961 O   0  0  0  0  0  0  0  0  0  0  0  0
   14.9515  -18.5113   17.1973 O   0  0  0  0  0  0  0  0  0  0  0  0
    9.1783  -21.2971   21.9263 C   0  0  0  0  0  0  0  0  0  0  0  0
    9.1503  -20.1090   21.0255 C   0  0  2  0  0  0  0  0  0  0  0  0
    9.9276  -20.2524   19.8247 N   0  0  0  0  0  0  0  0  0  0  0  0
    9.6755  -18.9150   21.7727 C   0  0  0  0  0  0  0  0  0  0  0  0
   10.9112  -18.6302   21.7449 O   0  0  0  0  0  0  0  0  0  0  0  0
    5.1172  -12.3478   25.9310 N   0  0  0  0  0  0  0  0  0  0  0  0
    6.4620  -12.3586   26.4477 C   0  0  0  0  0  0  0  0  0  0  0  0
    6.8017  -11.5289   27.3665 N   0  0  0  0  0  0  0  0  0  0  0  0
    7.4339  -13.2647   25.9713 N   0  0  0  0  0  0  0  0  0  0  0  0
    7.1084  -14.2422   24.9322 C   0  0  0  0  0  0  0  0  0  0  0  0
    8.3917  -14.9503   24.5946 C   0  0  0  0  0  0  0  0  0  0  0  0
    8.1754  -15.9999   23.5911 C   0  0  0  0  0  0  0  0  0  0  0  0
    9.3002  -16.8513   23.1657 C   0  0  2  0  0  0  0  0  0  0  0  0
    8.8417  -18.0625   22.5305 N   0  0  0  0  0  0  0  0  0  0  0  0
   10.3790  -17.0858   24.1379 C   0  0  0  0  0  0  0  0  0  0  0  0
   10.4605  -18.2836   24.8328 O   0  0  0  0  0  0  0  0  0  0  0  0
   11.2811  -16.2384   24.4016 O   0  0  0  0  0  0  0  0  0  0  0  0
  2  1  1  6
  3  2  1  0
  4  3  1  0
  5  4  1  0
  5  6  2  0
  7  8  2  0
  7  2  1  0
  9  5  1  0
 11 10  1  1
 11 12  1  0
 12  7  1  0
 13 11  1  0
 14 13  2  0
 16 15  1  0
 16 18  1  0
 17 16  2  0
 19 18  1  0
 19 20  1  0
 20 21  1  0
 22 21  1  1
 22 23  1  0
 23 13  1  0
 24 22  1  0
 24 25  1  0
 26 24  2  0
M  END
$$$$
