EAR.pdb
     RDKit          3D

 26 25  0  0  1  0  0  0  0  0999 V2000
   10.7867  -18.7795   17.1683 N   0  0  0  0  0  0  0  0  0  0  0  0
   11.5532  -19.1007   18.3568 C   0  0  1  0  0  0  0  0  0  0  0  0
   12.8077  -18.3010   18.5004 C   0  0  0  0  0  0  0  0  0  0  0  0
   13.4169  -17.8141   17.2334 C   0  0  0  0  0  0  0  0  0  0  0  0
   14.6826  -17.0836   17.3825 C   0  0  0  0  0  0  0  0  0  0  0  0
   15.7303  -17.5256   16.8522 O   0  0  0  0  0  0  0  0  0  0  0  0
   10.7423  -18.9162   19.5900 C   0  0  0  0  0  0  0  0  0  0  0  0
    9.9048  -17.9832   19.6047 O   0  0  0  0  0  0  0  0  0  0  0  0
   14.7919  -15.8813   18.1071 O   0  0  0  0  0  0  0  0  0  0  0  0
   10.1230  -20.8603   22.7871 C   0  0  0  0  0  0  0  0  0  0  0  0
   10.0142  -19.6720   21.8928 C   0  0  2  0  0  0  0  0  0  0  0  0
   10.8589  -19.7206   20.7306 N   0  0  0  0  0  0  0  0  0  0  0  0
   10.3750  -18.4379   22.6715 C   0  0  0  0  0  0  0  0  0  0  0  0
   11.5801  -18.0481   22.7387 O   0  0  0  0  0  0  0  0  0  0  0  0
    6.9803  -14.1905   19.4580 N   0  0  0  0  0  0  0  0  0  0  0  0
    8.1028  -13.3005   19.6107 C   0  0  0  0  0  0  0  0  0  0  0  0
    8.6347  -12.7573   18.5762 N   0  0  0  0  0  0  0  0  0  0  0  0
    8.6460  -13.0002   20.8785 N   0  0  0  0  0  0  0  0  0  0  0  0
    8.1764  -13.6873   22.0820 C   0  0  0  0  0  0  0  0  0  0  0  0
    9.3058  -14.5693   22.5388 C   0  0  0  0  0  0  0  0  0  0  0  0
    8.9402  -15.3262   23.7425 C   0  0  0  0  0  0  0  0  0  0  0  0
    9.7399  -16.4967   24.1442 C   0  0  2  0  0  0  0  0  0  0  0  0
    9.4144  -17.6606   23.3566 N   0  0  0  0  0  0  0  0  0  0  0  0
    9.8421  -16.7871   25.5826 C   0  0  0  0  0  0  0  0  0  0  0  0
    8.9390  -17.6395   26.2008 O   0  0  0  0  0  0  0  0  0  0  0  0
   10.7330  -16.2957   26.3351 O   0  0  0  0  0  0  0  0  0  0  0  0
  2  1  1  6
  3  2  1  0
  4  3  1  0
  5  4  1  0
  5  6  2  0
  7  8  2  0
  7  2  1  0
  9  5  1  0
 11 10  1  1
 11 12  1  0
 12  7  1  0
 13 11  1  0
 14 13  2  0
 16 15  1  0
 16 18  1  0
 17 16  2  0
 19 18  1  0
 19 20  1  0
 20 21  1  0
 22 21  1  1
 22 23  1  0
 23 13  1  0
 24 22  1  0
 24 25  1  0
 26 24  2  0
M  END
$$$$
