EAR.pdb
     RDKit          3D

 26 25  0  0  1  0  0  0  0  0999 V2000
    8.6949  -17.5115   16.8376 N   0  0  0  0  0  0  0  0  0  0  0  0
    7.8294  -17.1407   17.9406 C   0  0  1  0  0  0  0  0  0  0  0  0
    7.5392  -18.2630   18.8840 C   0  0  0  0  0  0  0  0  0  0  0  0
    6.3860  -19.1320   18.5252 C   0  0  0  0  0  0  0  0  0  0  0  0
    5.4935  -19.4858   19.6370 C   0  0  0  0  0  0  0  0  0  0  0  0
    5.7427  -19.0794   20.7976 O   0  0  0  0  0  0  0  0  0  0  0  0
    8.4034  -16.0138   18.7237 C   0  0  0  0  0  0  0  0  0  0  0  0
    9.6222  -16.0646   19.0135 O   0  0  0  0  0  0  0  0  0  0  0  0
    4.3410  -20.2776   19.4714 O   0  0  0  0  0  0  0  0  0  0  0  0
    7.2024  -12.6922   20.1353 C   0  0  0  0  0  0  0  0  0  0  0  0
    8.1463  -13.8373   19.9888 C   0  0  2  0  0  0  0  0  0  0  0  0
    7.6651  -14.9042   19.1541 N   0  0  0  0  0  0  0  0  0  0  0  0
    8.4344  -14.4117   21.3478 C   0  0  0  0  0  0  0  0  0  0  0  0
    7.4869  -14.6875   22.1446 O   0  0  0  0  0  0  0  0  0  0  0  0
    7.4606  -21.4109   25.0343 N   0  0  0  0  0  0  0  0  0  0  0  0
    7.4525  -20.2134   25.8352 C   0  0  0  0  0  0  0  0  0  0  0  0
    6.6651  -20.1238   26.8452 N   0  0  0  0  0  0  0  0  0  0  0  0
    8.2941  -19.1184   25.5433 N   0  0  0  0  0  0  0  0  0  0  0  0
    8.6142  -18.7609   24.1610 C   0  0  0  0  0  0  0  0  0  0  0  0
    9.5253  -17.5661   24.2286 C   0  0  0  0  0  0  0  0  0  0  0  0
    9.2777  -16.6409   23.1159 C   0  0  0  0  0  0  0  0  0  0  0  0
   10.0451  -15.3868   23.0197 C   0  0  2  0  0  0  0  0  0  0  0  0
    9.7465  -14.6709   21.8036 N   0  0  0  0  0  0  0  0  0  0  0  0
   11.4858  -15.4492   23.3101 C   0  0  0  0  0  0  0  0  0  0  0  0
   11.9421  -15.8544   24.5559 O   0  0  0  0  0  0  0  0  0  0  0  0
   12.3835  -15.1472   22.4708 O   0  0  0  0  0  0  0  0  0  0  0  0
  2  1  1  6
  3  2  1  0
  4  3  1  0
  5  4  1  0
  5  6  2  0
  7  8  2  0
  7  2  1  0
  9  5  1  0
 11 10  1  1
 11 12  1  0
 12  7  1  0
 13 11  1  0
 14 13  2  0
 16 15  1  0
 16 18  1  0
 17 16  2  0
 19 18  1  0
 19 20  1  0
 20 21  1  0
 22 21  1  6
 22 23  1  0
 23 13  1  0
 24 22  1  0
 24 25  1  0
 26 24  2  0
M  END
$$$$
