EAR.pdb
     RDKit          3D

 26 25  0  0  1  0  0  0  0  0999 V2000
   11.7492  -18.2665   17.6670 N   0  0  0  0  0  0  0  0  0  0  0  0
   10.7105  -18.6360   18.6091 C   0  0  1  0  0  0  0  0  0  0  0  0
   11.0334  -19.8508   19.4179 C   0  0  0  0  0  0  0  0  0  0  0  0
   12.4804  -20.1279   19.6253 C   0  0  0  0  0  0  0  0  0  0  0  0
   12.8419  -20.6256   20.9593 C   0  0  0  0  0  0  0  0  0  0  0  0
   12.0473  -21.3614   21.5929 O   0  0  0  0  0  0  0  0  0  0  0  0
   10.4093  -17.5216   19.5471 C   0  0  0  0  0  0  0  0  0  0  0  0
   11.3708  -16.8353   19.9674 O   0  0  0  0  0  0  0  0  0  0  0  0
   14.0638  -20.3161   21.5867 O   0  0  0  0  0  0  0  0  0  0  0  0
    7.3018  -15.8142   20.9114 C   0  0  0  0  0  0  0  0  0  0  0  0
    8.7658  -16.0842   20.8266 C   0  0  2  0  0  0  0  0  0  0  0  0
    9.1199  -17.1953   19.9859 N   0  0  0  0  0  0  0  0  0  0  0  0
    9.2929  -16.3658   22.2060 C   0  0  0  0  0  0  0  0  0  0  0  0
    9.2290  -17.5350   22.6936 O   0  0  0  0  0  0  0  0  0  0  0  0
    6.8279  -10.6424   27.5510 N   0  0  0  0  0  0  0  0  0  0  0  0
    5.9886  -11.6913   27.0306 C   0  0  0  0  0  0  0  0  0  0  0  0
    4.7149  -11.5341   26.9950 N   0  0  0  0  0  0  0  0  0  0  0  0
    6.5269  -12.9046   26.5504 N   0  0  0  0  0  0  0  0  0  0  0  0
    7.8993  -13.2993   26.8697 C   0  0  0  0  0  0  0  0  0  0  0  0
    8.1009  -14.6652   26.2732 C   0  0  0  0  0  0  0  0  0  0  0  0
    8.5611  -14.5786   24.8816 C   0  0  0  0  0  0  0  0  0  0  0  0
    9.7536  -15.3314   24.4550 C   0  0  2  0  0  0  0  0  0  0  0  0
    9.8757  -15.3673   23.0181 N   0  0  0  0  0  0  0  0  0  0  0  0
    9.9909  -16.6398   25.0842 C   0  0  0  0  0  0  0  0  0  0  0  0
    9.1280  -17.7025   24.8598 O   0  0  0  0  0  0  0  0  0  0  0  0
   10.9682  -16.8817   25.8508 O   0  0  0  0  0  0  0  0  0  0  0  0
  2  1  1  1
  3  2  1  0
  4  3  1  0
  5  4  1  0
  5  6  2  0
  7  8  2  0
  7  2  1  0
  9  5  1  0
 11 10  1  1
 11 12  1  0
 12  7  1  0
 13 11  1  0
 14 13  2  0
 16 15  1  0
 16 18  1  0
 17 16  2  0
 19 18  1  0
 19 20  1  0
 20 21  1  0
 22 21  1  6
 22 23  1  0
 23 13  1  0
 24 22  1  0
 24 25  1  0
 26 24  2  0
M  END
$$$$
