EAR.pdb
     RDKit          3D

 26 25  0  0  1  0  0  0  0  0999 V2000
    8.5207  -18.5450   18.8839 N   0  0  0  0  0  0  0  0  0  0  0  0
    9.8041  -18.4684   19.5548 C   0  0  1  0  0  0  0  0  0  0  0  0
   10.6337  -17.2967   19.1390 C   0  0  0  0  0  0  0  0  0  0  0  0
   11.2049  -17.3590   17.7665 C   0  0  0  0  0  0  0  0  0  0  0  0
   12.3433  -18.2720   17.5984 C   0  0  0  0  0  0  0  0  0  0  0  0
   13.2810  -18.2685   18.4321 O   0  0  0  0  0  0  0  0  0  0  0  0
    9.6403  -18.4190   21.0324 C   0  0  0  0  0  0  0  0  0  0  0  0
    8.6978  -17.7325   21.4934 O   0  0  0  0  0  0  0  0  0  0  0  0
   12.4468  -19.1772   16.5249 O   0  0  0  0  0  0  0  0  0  0  0  0
   11.1973  -20.1297   24.0488 C   0  0  0  0  0  0  0  0  0  0  0  0
   10.3065  -19.1512   23.3614 C   0  0  2  0  0  0  0  0  0  0  0  0
   10.4736  -19.0921   21.9348 N   0  0  0  0  0  0  0  0  0  0  0  0
   10.5703  -17.7775   23.9120 C   0  0  0  0  0  0  0  0  0  0  0  0
   10.8781  -16.8214   23.1375 O   0  0  0  0  0  0  0  0  0  0  0  0
    5.2677  -13.3021   26.9183 N   0  0  0  0  0  0  0  0  0  0  0  0
    6.1306  -12.2240   26.5077 C   0  0  0  0  0  0  0  0  0  0  0  0
    6.0131  -11.0671   27.0515 N   0  0  0  0  0  0  0  0  0  0  0  0
    7.1165  -12.3990   25.5127 N   0  0  0  0  0  0  0  0  0  0  0  0
    7.4281  -13.7279   24.9854 C   0  0  0  0  0  0  0  0  0  0  0  0
    8.6528  -14.2022   25.7183 C   0  0  0  0  0  0  0  0  0  0  0  0
    9.0881  -15.5190   25.2364 C   0  0  0  0  0  0  0  0  0  0  0  0
   10.2863  -16.1524   25.8143 C   0  0  2  0  0  0  0  0  0  0  0  0
   10.4920  -17.4809   25.2912 N   0  0  0  0  0  0  0  0  0  0  0  0
   10.4565  -16.0772   27.2735 C   0  0  0  0  0  0  0  0  0  0  0  0
   11.0401  -14.9660   27.8640 O   0  0  0  0  0  0  0  0  0  0  0  0
   10.0941  -16.9921   28.0692 O   0  0  0  0  0  0  0  0  0  0  0  0
  2  1  1  6
  3  2  1  0
  4  3  1  0
  5  4  1  0
  5  6  2  0
  7  8  2  0
  7  2  1  0
  9  5  1  0
 11 10  1  1
 11 12  1  0
 12  7  1  0
 13 11  1  0
 14 13  2  0
 16 15  1  0
 16 18  1  0
 17 16  2  0
 19 18  1  0
 19 20  1  0
 20 21  1  0
 22 21  1  1
 22 23  1  0
 23 13  1  0
 24 22  1  0
 24 25  1  0
 26 24  2  0
M  END
$$$$
