EAR.pdb
     RDKit          3D

 26 25  0  0  1  0  0  0  0  0999 V2000
    7.0238  -22.9242   24.9407 N   0  0  0  0  0  0  0  0  0  0  0  0
    6.0947  -22.0785   24.2164 C   0  0  1  0  0  0  0  0  0  0  0  0
    4.6776  -22.5499   24.2750 C   0  0  0  0  0  0  0  0  0  0  0  0
    4.3796  -23.5880   25.2983 C   0  0  0  0  0  0  0  0  0  0  0  0
    3.6069  -24.7419   24.8193 C   0  0  0  0  0  0  0  0  0  0  0  0
    2.3529  -24.7021   24.8170 O   0  0  0  0  0  0  0  0  0  0  0  0
    6.1379  -20.6773   24.7134 C   0  0  0  0  0  0  0  0  0  0  0  0
    5.3937  -19.8362   24.1561 O   0  0  0  0  0  0  0  0  0  0  0  0
    4.2091  -25.9245   24.3488 O   0  0  0  0  0  0  0  0  0  0  0  0
    7.6933  -18.7676   27.5929 C   0  0  0  0  0  0  0  0  0  0  0  0
    7.0888  -18.8931   26.2355 C   0  0  2  0  0  0  0  0  0  0  0  0
    6.9577  -20.2446   25.7635 N   0  0  0  0  0  0  0  0  0  0  0  0
    7.9393  -18.1426   25.2490 C   0  0  0  0  0  0  0  0  0  0  0  0
    8.9281  -18.7073   24.6904 O   0  0  0  0  0  0  0  0  0  0  0  0
    7.3862  -11.7745   20.0220 N   0  0  0  0  0  0  0  0  0  0  0  0
    8.2067  -12.7566   19.3603 C   0  0  0  0  0  0  0  0  0  0  0  0
    8.2525  -12.7937   18.0779 N   0  0  0  0  0  0  0  0  0  0  0  0
    8.9743  -13.6937   20.0850 N   0  0  0  0  0  0  0  0  0  0  0  0
    8.3355  -14.6690   20.9692 C   0  0  0  0  0  0  0  0  0  0  0  0
    8.3694  -14.0786   22.3521 C   0  0  0  0  0  0  0  0  0  0  0  0
    7.7213  -14.9638   23.3277 C   0  0  0  0  0  0  0  0  0  0  0  0
    8.4889  -16.0565   23.9503 C   0  0  2  0  0  0  0  0  0  0  0  0
    7.6908  -16.7971   24.8965 N   0  0  0  0  0  0  0  0  0  0  0  0
    9.8325  -15.7383   24.4576 C   0  0  0  0  0  0  0  0  0  0  0  0
   10.9187  -15.6710   23.5974 O   0  0  0  0  0  0  0  0  0  0  0  0
   10.0855  -15.5104   25.6764 O   0  0  0  0  0  0  0  0  0  0  0  0
  2  1  1  1
  3  2  1  0
  4  3  1  0
  5  4  1  0
  5  6  2  0
  7  8  2  0
  7  2  1  0
  9  5  1  0
 11 10  1  1
 11 12  1  0
 12  7  1  0
 13 11  1  0
 14 13  2  0
 16 15  1  0
 16 18  1  0
 17 16  2  0
 19 18  1  0
 19 20  1  0
 20 21  1  0
 22 21  1  1
 22 23  1  0
 23 13  1  0
 24 22  1  0
 24 25  1  0
 26 24  2  0
M  END
$$$$
