EAR.pdb
     RDKit          3D

 26 25  0  0  1  0  0  0  0  0999 V2000
    6.1908  -25.1942   25.0669 N   0  0  0  0  0  0  0  0  0  0  0  0
    5.8632  -23.8055   25.3261 C   0  0  1  0  0  0  0  0  0  0  0  0
    5.5920  -23.5076   26.7654 C   0  0  0  0  0  0  0  0  0  0  0  0
    6.0721  -24.5232   27.7410 C   0  0  0  0  0  0  0  0  0  0  0  0
    5.7541  -24.2453   29.1480 C   0  0  0  0  0  0  0  0  0  0  0  0
    5.1430  -23.1946   29.4592 O   0  0  0  0  0  0  0  0  0  0  0  0
    6.9462  -22.8982   24.8612 C   0  0  0  0  0  0  0  0  0  0  0  0
    8.1318  -23.2758   25.0158 O   0  0  0  0  0  0  0  0  0  0  0  0
    6.1054  -25.1146   30.1985 O   0  0  0  0  0  0  0  0  0  0  0  0
    7.1865  -19.5357   23.0913 C   0  0  0  0  0  0  0  0  0  0  0  0
    7.7223  -20.7808   23.7128 C   0  0  2  0  0  0  0  0  0  0  0  0
    6.7199  -21.6521   24.2630 N   0  0  0  0  0  0  0  0  0  0  0  0
    8.6658  -20.4079   24.8222 C   0  0  0  0  0  0  0  0  0  0  0  0
    8.2219  -19.9494   25.9183 O   0  0  0  0  0  0  0  0  0  0  0  0
    9.7122  -23.2725   30.7949 N   0  0  0  0  0  0  0  0  0  0  0  0
   10.9626  -22.5758   30.9578 C   0  0  0  0  0  0  0  0  0  0  0  0
   11.3021  -22.1311   32.1133 N   0  0  0  0  0  0  0  0  0  0  0  0
   11.8413  -22.3625   29.8739 N   0  0  0  0  0  0  0  0  0  0  0  0
   11.4502  -22.7083   28.5069 C   0  0  0  0  0  0  0  0  0  0  0  0
   10.9147  -21.4484   27.8840 C   0  0  0  0  0  0  0  0  0  0  0  0
   11.4747  -21.2343   26.5438 C   0  0  0  0  0  0  0  0  0  0  0  0
   10.9988  -20.1086   25.7210 C   0  0  2  0  0  0  0  0  0  0  0  0
   10.0675  -20.5441   24.7090 N   0  0  0  0  0  0  0  0  0  0  0  0
   12.0080  -19.1700   25.2067 C   0  0  0  0  0  0  0  0  0  0  0  0
   12.0247  -18.8090   23.8674 O   0  0  0  0  0  0  0  0  0  0  0  0
   12.9047  -18.6415   25.9265 O   0  0  0  0  0  0  0  0  0  0  0  0
  2  1  1  1
  3  2  1  0
  4  3  1  0
  5  4  1  0
  5  6  2  0
  7  8  2  0
  7  2  1  0
  9  5  1  0
 11 10  1  1
 11 12  1  0
 12  7  1  0
 13 11  1  0
 14 13  2  0
 16 15  1  0
 16 18  1  0
 17 16  2  0
 19 18  1  0
 19 20  1  0
 20 21  1  0
 22 21  1  6
 22 23  1  0
 23 13  1  0
 24 22  1  0
 24 25  1  0
 26 24  2  0
M  END
$$$$
