NGP.pdb
     RDKit          3D

 20 20  0  0  1  0  0  0  0  0999 V2000
   23.4882  -17.9494  -20.8988 N   0  0  0  0  0  0  0  0  0  0  0  0
   22.7821  -18.5555  -19.8002 C   0  0  0  0  0  0  0  0  0  0  0  0
   21.6531  -19.0191  -20.0333 O   0  0  0  0  0  0  0  0  0  0  0  0
   23.4576  -18.5730  -18.5002 C   0  0  0  0  0  0  0  0  0  0  0  0
   22.6377  -19.2440  -17.4244 C   0  0  2  0  0  0  0  0  0  0  0  0
   21.6236  -18.2813  -16.9490 N   0  0  0  0  0  0  0  0  0  0  0  0
   23.4989  -19.5062  -16.2502 C   0  0  0  0  0  0  0  0  0  0  0  0
   24.3863  -20.4049  -16.3003 O   0  0  0  0  0  0  0  0  0  0  0  0
   23.3248  -18.7438  -15.0674 N   0  0  0  0  0  0  0  0  0  0  0  0
   24.2157  -18.9639  -13.9451 C   0  0  0  0  0  0  0  0  0  0  0  0
   23.6296  -19.9667  -13.0141 C   0  0  0  0  0  0  0  0  0  0  0  0
   22.5697  -20.5810  -13.3252 O   0  0  0  0  0  0  0  0  0  0  0  0
   24.2579  -20.2401  -11.7689 N   0  0  0  0  0  0  0  0  0  0  0  0
   25.5862  -19.7164  -11.4056 C   0  0  0  0  0  0  0  0  0  0  0  0
   26.0362  -20.7011  -10.3093 C   0  0  0  0  0  0  0  0  0  0  0  0
   24.7219  -20.8617   -9.5828 C   0  0  0  0  0  0  0  0  0  0  0  0
   23.7351  -21.0550  -10.6971 C   0  0  1  0  0  0  0  0  0  0  0  0
   22.3666  -20.6590  -10.3072 C   0  0  0  0  0  0  0  0  0  0  0  0
   21.9702  -19.5057  -10.5811 O   0  0  0  0  0  0  0  0  0  0  0  0
   21.5031  -21.5153   -9.6493 O   0  0  0  0  0  0  0  0  0  0  0  0
  2  1  1  0
  3  2  2  0
  4  5  1  0
  4  2  1  0
  5  6  1  1
  7  5  1  0
  7  8  2  0
  9  7  1  0
 10  9  1  0
 11 10  1  0
 12 11  2  0
 13 17  1  0
 13 11  1  0
 14 13  1  0
 15 14  1  0
 15 16  1  0
 16 17  1  0
 17 18  1  1
 18 19  2  0
 18 20  1  0
M  END
$$$$
