NGP.pdb
     RDKit          3D

 20 20  0  0  1  0  0  0  0  0999 V2000
   26.0806  -22.6133  -11.3439 N   0  0  0  0  0  0  0  0  0  0  0  0
   25.3056  -21.6166  -10.6518 C   0  0  0  0  0  0  0  0  0  0  0  0
   25.2756  -21.6766   -9.4111 O   0  0  0  0  0  0  0  0  0  0  0  0
   24.6184  -20.6161  -11.4725 C   0  0  0  0  0  0  0  0  0  0  0  0
   24.9386  -20.7458  -12.9423 C   0  0  2  0  0  0  0  0  0  0  0  0
   26.2518  -21.4090  -13.0719 N   0  0  0  0  0  0  0  0  0  0  0  0
   25.1310  -19.3965  -13.5182 C   0  0  0  0  0  0  0  0  0  0  0  0
   24.1352  -18.6468  -13.7283 O   0  0  0  0  0  0  0  0  0  0  0  0
   26.4385  -18.9473  -13.8331 N   0  0  0  0  0  0  0  0  0  0  0  0
   26.6218  -17.6036  -14.3452 C   0  0  0  0  0  0  0  0  0  0  0  0
   26.4196  -17.5848  -15.8199 C   0  0  0  0  0  0  0  0  0  0  0  0
   26.0963  -18.6425  -16.4316 O   0  0  0  0  0  0  0  0  0  0  0  0
   26.5890  -16.3772  -16.5501 N   0  0  0  0  0  0  0  0  0  0  0  0
   26.8095  -15.0710  -15.9053 C   0  0  0  0  0  0  0  0  0  0  0  0
   26.3670  -14.0860  -17.0043 C   0  0  0  0  0  0  0  0  0  0  0  0
   26.9538  -14.7919  -18.2036 C   0  0  0  0  0  0  0  0  0  0  0  0
   26.5598  -16.2237  -17.9860 C   0  0  1  0  0  0  0  0  0  0  0  0
   27.4705  -17.1645  -18.6695 C   0  0  0  0  0  0  0  0  0  0  0  0
   28.4525  -17.6177  -18.0431 O   0  0  0  0  0  0  0  0  0  0  0  0
   27.2802  -17.5656  -19.9790 O   0  0  0  0  0  0  0  0  0  0  0  0
  2  1  1  0
  3  2  2  0
  4  5  1  0
  4  2  1  0
  5  6  1  1
  7  5  1  0
  7  8  2  0
  9  7  1  0
 10  9  1  0
 11 10  1  0
 12 11  2  0
 13 17  1  0
 13 11  1  0
 14 13  1  0
 15 14  1  0
 15 16  1  0
 16 17  1  0
 17 18  1  6
 18 19  2  0
 18 20  1  0
M  END
$$$$
