NGP.pdb
     RDKit          3D

 20 20  0  0  1  0  0  0  0  0999 V2000
   17.4359  -23.3504  -13.3155 N   0  0  0  0  0  0  0  0  0  0  0  0
   18.3166  -22.2259  -13.1341 C   0  0  0  0  0  0  0  0  0  0  0  0
   17.7944  -21.1043  -13.0197 O   0  0  0  0  0  0  0  0  0  0  0  0
   19.7550  -22.5025  -13.1002 C   0  0  0  0  0  0  0  0  0  0  0  0
   20.5794  -21.3844  -13.6918 C   0  0  2  0  0  0  0  0  0  0  0  0
   20.4112  -21.4133  -15.1588 N   0  0  0  0  0  0  0  0  0  0  0  0
   22.0140  -21.6660  -13.4639 C   0  0  0  0  0  0  0  0  0  0  0  0
   22.6097  -22.5364  -14.1605 O   0  0  0  0  0  0  0  0  0  0  0  0
   22.7185  -20.9542  -12.4602 N   0  0  0  0  0  0  0  0  0  0  0  0
   24.1453  -21.1636  -12.3124 C   0  0  0  0  0  0  0  0  0  0  0  0
   24.8940  -20.2542  -13.2225 C   0  0  0  0  0  0  0  0  0  0  0  0
   24.2718  -19.4365  -13.9585 O   0  0  0  0  0  0  0  0  0  0  0  0
   26.3138  -20.2994  -13.2702 N   0  0  0  0  0  0  0  0  0  0  0  0
   27.1209  -21.1709  -12.3986 C   0  0  0  0  0  0  0  0  0  0  0  0
   28.4929  -20.4699  -12.4170 C   0  0  0  0  0  0  0  0  0  0  0  0
   28.5425  -20.0875  -13.8773 C   0  0  0  0  0  0  0  0  0  0  0  0
   27.1752  -19.5227  -14.1308 C   0  0  1  0  0  0  0  0  0  0  0  0
   26.7845  -19.6204  -15.5519 C   0  0  0  0  0  0  0  0  0  0  0  0
   26.3050  -20.6947  -15.9742 O   0  0  0  0  0  0  0  0  0  0  0  0
   26.9281  -18.5681  -16.4373 O   0  0  0  0  0  0  0  0  0  0  0  0
  2  1  1  0
  3  2  2  0
  4  5  1  0
  4  2  1  0
  5  6  1  6
  7  5  1  0
  7  8  2  0
  9  7  1  0
 10  9  1  0
 11 10  1  0
 12 11  2  0
 13 17  1  0
 13 11  1  0
 14 13  1  0
 15 14  1  0
 15 16  1  0
 16 17  1  0
 17 18  1  6
 18 19  2  0
 18 20  1  0
M  END
$$$$
