NGP.pdb
     RDKit          3D

 20 20  0  0  1  0  0  0  0  0999 V2000
   29.1574  -17.0241  -19.4284 N   0  0  0  0  0  0  0  0  0  0  0  0
   28.8459  -18.2725  -18.7823 C   0  0  0  0  0  0  0  0  0  0  0  0
   28.8747  -19.2997  -19.4808 O   0  0  0  0  0  0  0  0  0  0  0  0
   28.5214  -18.2229  -17.3544 C   0  0  0  0  0  0  0  0  0  0  0  0
   27.2481  -18.9617  -17.0184 C   0  0  2  0  0  0  0  0  0  0  0  0
   26.1051  -18.1271  -17.4403 N   0  0  0  0  0  0  0  0  0  0  0  0
   27.1231  -19.0696  -15.5480 C   0  0  0  0  0  0  0  0  0  0  0  0
   27.9350  -19.7818  -14.8913 O   0  0  0  0  0  0  0  0  0  0  0  0
   26.0880  -18.3694  -14.8780 N   0  0  0  0  0  0  0  0  0  0  0  0
   25.9667  -18.4914  -13.4386 C   0  0  0  0  0  0  0  0  0  0  0  0
   25.1200  -19.6659  -13.0930 C   0  0  0  0  0  0  0  0  0  0  0  0
   24.4885  -20.2834  -13.9971 O   0  0  0  0  0  0  0  0  0  0  0  0
   25.0158  -20.1007  -11.7438 N   0  0  0  0  0  0  0  0  0  0  0  0
   25.8541  -19.5633  -10.6581 C   0  0  0  0  0  0  0  0  0  0  0  0
   25.7814  -20.6849   -9.6042 C   0  0  0  0  0  0  0  0  0  0  0  0
   24.3205  -21.0428   -9.7415 C   0  0  0  0  0  0  0  0  0  0  0  0
   24.1219  -21.1110  -11.2276 C   0  0  1  0  0  0  0  0  0  0  0  0
   22.7175  -20.8690  -11.6158 C   0  0  0  0  0  0  0  0  0  0  0  0
   22.3708  -19.7127  -11.9400 O   0  0  0  0  0  0  0  0  0  0  0  0
   21.7672  -21.8732  -11.6352 O   0  0  0  0  0  0  0  0  0  0  0  0
  2  1  1  0
  3  2  2  0
  4  5  1  0
  4  2  1  0
  5  6  1  1
  7  5  1  0
  7  8  2  0
  9  7  1  0
 10  9  1  0
 11 10  1  0
 12 11  2  0
 13 17  1  0
 13 11  1  0
 14 13  1  0
 15 14  1  0
 15 16  1  0
 16 17  1  0
 17 18  1  1
 18 19  2  0
 18 20  1  0
M  END
$$$$
