NGP.pdb
     RDKit          3D

 20 20  0  0  1  0  0  0  0  0999 V2000
   24.8306  -20.7871   -8.0862 N   0  0  0  0  0  0  0  0  0  0  0  0
   23.9886  -20.7993   -9.2541 C   0  0  0  0  0  0  0  0  0  0  0  0
   23.0089  -21.5634   -9.2437 O   0  0  0  0  0  0  0  0  0  0  0  0
   24.3610  -19.9076  -10.3554 C   0  0  0  0  0  0  0  0  0  0  0  0
   24.6771  -20.6532  -11.6297 C   0  0  2  0  0  0  0  0  0  0  0  0
   25.8416  -21.5257  -11.3773 N   0  0  0  0  0  0  0  0  0  0  0  0
   25.1342  -19.6896  -12.6553 C   0  0  0  0  0  0  0  0  0  0  0  0
   26.0249  -18.8375  -12.3754 O   0  0  0  0  0  0  0  0  0  0  0  0
   24.5686  -19.7264  -13.9550 N   0  0  0  0  0  0  0  0  0  0  0  0
   24.9732  -18.7349  -14.9321 C   0  0  0  0  0  0  0  0  0  0  0  0
   25.9199  -19.3362  -15.9110 C   0  0  0  0  0  0  0  0  0  0  0  0
   26.0392  -18.8410  -17.0678 O   0  0  0  0  0  0  0  0  0  0  0  0
   26.6958  -20.4714  -15.5515 N   0  0  0  0  0  0  0  0  0  0  0  0
   26.8250  -20.9515  -14.1647 C   0  0  0  0  0  0  0  0  0  0  0  0
   28.1326  -21.7644  -14.2214 C   0  0  0  0  0  0  0  0  0  0  0  0
   27.9382  -22.4302  -15.5630 C   0  0  0  0  0  0  0  0  0  0  0  0
   27.4712  -21.3053  -16.4401 C   0  0  1  0  0  0  0  0  0  0  0  0
   26.6805  -21.7853  -17.5917 C   0  0  0  0  0  0  0  0  0  0  0  0
   25.4530  -21.9708  -17.4466 O   0  0  0  0  0  0  0  0  0  0  0  0
   27.2451  -22.0386  -18.8282 O   0  0  0  0  0  0  0  0  0  0  0  0
  2  1  1  0
  3  2  2  0
  4  5  1  0
  4  2  1  0
  5  6  1  1
  7  5  1  0
  7  8  2  0
  9  7  1  0
 10  9  1  0
 11 10  1  0
 12 11  2  0
 13 17  1  0
 13 11  1  0
 14 13  1  0
 15 14  1  0
 15 16  1  0
 16 17  1  0
 17 18  1  6
 18 19  2  0
 18 20  1  0
M  END
$$$$
