NGP.pdb
     RDKit          3D

 20 20  0  0  1  0  0  0  0  0999 V2000
   16.3568  -13.7652  -15.0351 N   0  0  0  0  0  0  0  0  0  0  0  0
   16.7978  -13.2425  -16.3021 C   0  0  0  0  0  0  0  0  0  0  0  0
   16.4985  -13.8874  -17.3211 O   0  0  0  0  0  0  0  0  0  0  0  0
   17.5628  -11.9932  -16.2795 C   0  0  0  0  0  0  0  0  0  0  0  0
   18.8997  -12.1138  -16.9708 C   0  0  2  0  0  0  0  0  0  0  0  0
   19.8037  -12.8874  -16.0958 N   0  0  0  0  0  0  0  0  0  0  0  0
   19.5170  -10.7729  -17.0715 C   0  0  0  0  0  0  0  0  0  0  0  0
   19.1201   -9.9544  -17.9492 O   0  0  0  0  0  0  0  0  0  0  0  0
   20.5562  -10.4093  -16.1781 N   0  0  0  0  0  0  0  0  0  0  0  0
   21.1325   -9.0819  -16.2643 C   0  0  0  0  0  0  0  0  0  0  0  0
   20.6420   -8.2360  -15.1420 C   0  0  0  0  0  0  0  0  0  0  0  0
   19.6586   -8.6131  -14.4433 O   0  0  0  0  0  0  0  0  0  0  0  0
   21.2761   -6.9983  -14.8485 N   0  0  0  0  0  0  0  0  0  0  0  0
   22.4567   -6.5058  -15.5794 C   0  0  0  0  0  0  0  0  0  0  0  0
   23.0674   -5.5073  -14.5773 C   0  0  0  0  0  0  0  0  0  0  0  0
   21.7935   -4.8764  -14.0673 C   0  0  0  0  0  0  0  0  0  0  0  0
   20.9011   -6.0574  -13.8189 C   0  0  1  0  0  0  0  0  0  0  0  0
   19.4695   -5.6991  -13.8805 C   0  0  0  0  0  0  0  0  0  0  0  0
   18.9145   -5.6178  -14.9975 O   0  0  0  0  0  0  0  0  0  0  0  0
   18.7155   -5.4493  -12.7487 O   0  0  0  0  0  0  0  0  0  0  0  0
  2  1  1  0
  3  2  2  0
  4  5  1  0
  4  2  1  0
  5  6  1  1
  7  5  1  0
  7  8  2  0
  9  7  1  0
 10  9  1  0
 11 10  1  0
 12 11  2  0
 13 17  1  0
 13 11  1  0
 14 13  1  0
 15 14  1  0
 15 16  1  0
 16 17  1  0
 17 18  1  6
 18 19  2  0
 18 20  1  0
M  END
$$$$
