NGP.pdb
     RDKit          3D

 20 20  0  0  1  0  0  0  0  0999 V2000
   20.1699  -20.1435  -16.4765 N   0  0  0  0  0  0  0  0  0  0  0  0
   21.4185  -20.4401  -17.1291 C   0  0  0  0  0  0  0  0  0  0  0  0
   21.4186  -21.3500  -17.9752 O   0  0  0  0  0  0  0  0  0  0  0  0
   22.5829  -19.6414  -16.7380 C   0  0  0  0  0  0  0  0  0  0  0  0
   22.2596  -18.6176  -15.6764 C   0  0  2  0  0  0  0  0  0  0  0  0
   21.3461  -17.6166  -16.2634 N   0  0  0  0  0  0  0  0  0  0  0  0
   23.4877  -17.8651  -15.3376 C   0  0  0  0  0  0  0  0  0  0  0  0
   24.4555  -18.4488  -14.7716 O   0  0  0  0  0  0  0  0  0  0  0  0
   23.5747  -16.4850  -15.6514 N   0  0  0  0  0  0  0  0  0  0  0  0
   24.7995  -15.7675  -15.3575 C   0  0  0  0  0  0  0  0  0  0  0  0
   24.9988  -14.6686  -16.3417 C   0  0  0  0  0  0  0  0  0  0  0  0
   24.1884  -14.5174  -17.2998 O   0  0  0  0  0  0  0  0  0  0  0  0
   26.1019  -13.7820  -16.2107 N   0  0  0  0  0  0  0  0  0  0  0  0
   27.0722  -13.8625  -15.1050 C   0  0  0  0  0  0  0  0  0  0  0  0
   27.6651  -12.4404  -15.0872 C   0  0  0  0  0  0  0  0  0  0  0  0
   27.7672  -12.2091  -16.5763 C   0  0  0  0  0  0  0  0  0  0  0  0
   26.4402  -12.6869  -17.0896 C   0  0  1  0  0  0  0  0  0  0  0  0
   26.5053  -13.1031  -18.5054 C   0  0  0  0  0  0  0  0  0  0  0  0
   26.1196  -12.3063  -19.3877 O   0  0  0  0  0  0  0  0  0  0  0  0
   26.9773  -14.3428  -18.8956 O   0  0  0  0  0  0  0  0  0  0  0  0
  2  1  1  0
  3  2  2  0
  4  5  1  0
  4  2  1  0
  5  6  1  6
  7  5  1  0
  7  8  2  0
  9  7  1  0
 10  9  1  0
 11 10  1  0
 12 11  2  0
 13 17  1  0
 13 11  1  0
 14 13  1  0
 15 14  1  0
 15 16  1  0
 16 17  1  0
 17 18  1  6
 18 19  2  0
 18 20  1  0
M  END
$$$$
