NGP.pdb
     RDKit          3D

 20 20  0  0  1  0  0  0  0  0999 V2000
   19.1221  -18.7815  -17.8455 N   0  0  0  0  0  0  0  0  0  0  0  0
   18.8675  -17.5137  -17.2125 C   0  0  0  0  0  0  0  0  0  0  0  0
   17.8081  -17.3968  -16.5740 O   0  0  0  0  0  0  0  0  0  0  0  0
   19.8820  -16.4693  -17.3767 C   0  0  0  0  0  0  0  0  0  0  0  0
   19.3041  -15.0763  -17.3029 C   0  0  2  0  0  0  0  0  0  0  0  0
   18.9277  -14.6597  -18.6688 N   0  0  0  0  0  0  0  0  0  0  0  0
   20.3660  -14.1314  -16.8919 C   0  0  0  0  0  0  0  0  0  0  0  0
   21.0008  -14.3174  -15.8147 O   0  0  0  0  0  0  0  0  0  0  0  0
   20.6692  -13.0156  -17.7126 N   0  0  0  0  0  0  0  0  0  0  0  0
   21.7836  -12.1583  -17.3593 C   0  0  0  0  0  0  0  0  0  0  0  0
   21.3876  -11.2259  -16.2687 C   0  0  0  0  0  0  0  0  0  0  0  0
   20.1878  -10.8424  -16.1634 O   0  0  0  0  0  0  0  0  0  0  0  0
   22.3560  -10.7604  -15.3383 N   0  0  0  0  0  0  0  0  0  0  0  0
   23.7267  -11.2960  -15.2676 C   0  0  0  0  0  0  0  0  0  0  0  0
   24.1492  -10.9223  -13.8339 C   0  0  0  0  0  0  0  0  0  0  0  0
   23.5428   -9.5410  -13.7619 C   0  0  0  0  0  0  0  0  0  0  0  0
   22.1696   -9.7387  -14.3346 C   0  0  1  0  0  0  0  0  0  0  0  0
   21.6144   -8.4918  -14.8993 C   0  0  0  0  0  0  0  0  0  0  0  0
   20.9757   -7.7214  -14.1505 O   0  0  0  0  0  0  0  0  0  0  0  0
   21.7732   -8.1410  -16.2273 O   0  0  0  0  0  0  0  0  0  0  0  0
  2  1  1  0
  3  2  2  0
  4  5  1  0
  4  2  1  0
  5  6  1  6
  7  5  1  0
  7  8  2  0
  9  7  1  0
 10  9  1  0
 11 10  1  0
 12 11  2  0
 13 17  1  0
 13 11  1  0
 14 13  1  0
 15 14  1  0
 15 16  1  0
 16 17  1  0
 17 18  1  6
 18 19  2  0
 18 20  1  0
M  END
$$$$
