NGP.pdb
     RDKit          3D

 20 20  0  0  1  0  0  0  0  0999 V2000
   25.1365  -23.0973  -13.8268 N   0  0  0  0  0  0  0  0  0  0  0  0
   24.6186  -21.7836  -13.5461 C   0  0  0  0  0  0  0  0  0  0  0  0
   23.5254  -21.4804  -14.0529 O   0  0  0  0  0  0  0  0  0  0  0  0
   25.4274  -20.9165  -12.6855 C   0  0  0  0  0  0  0  0  0  0  0  0
   25.1913  -21.1676  -11.2155 C   0  0  2  0  0  0  0  0  0  0  0  0
   23.8784  -20.5955  -10.8545 N   0  0  0  0  0  0  0  0  0  0  0  0
   26.1768  -20.3957  -10.4267 C   0  0  0  0  0  0  0  0  0  0  0  0
   26.9225  -19.5479  -10.9950 O   0  0  0  0  0  0  0  0  0  0  0  0
   26.2808  -20.6107   -9.0290 N   0  0  0  0  0  0  0  0  0  0  0  0
   27.2747  -19.8762   -8.2713 C   0  0  0  0  0  0  0  0  0  0  0  0
   27.2064  -20.2551   -6.8334 C   0  0  0  0  0  0  0  0  0  0  0  0
   26.2162  -20.9054   -6.3928 O   0  0  0  0  0  0  0  0  0  0  0  0
   28.2542  -19.8879   -5.9460 N   0  0  0  0  0  0  0  0  0  0  0  0
   29.5132  -19.2711   -6.3988 C   0  0  0  0  0  0  0  0  0  0  0  0
   30.4711  -19.5938   -5.2359 C   0  0  0  0  0  0  0  0  0  0  0  0
   29.5272  -19.3580   -4.0807 C   0  0  0  0  0  0  0  0  0  0  0  0
   28.2738  -20.0619   -4.5123 C   0  0  1  0  0  0  0  0  0  0  0  0
   27.0689  -19.5068   -3.8630 C   0  0  0  0  0  0  0  0  0  0  0  0
   26.5005  -18.5232   -4.3842 O   0  0  0  0  0  0  0  0  0  0  0  0
   26.5421  -20.0330   -2.6979 O   0  0  0  0  0  0  0  0  0  0  0  0
  2  1  1  0
  3  2  2  0
  4  5  1  0
  4  2  1  0
  5  6  1  1
  7  5  1  0
  7  8  2  0
  9  7  1  0
 10  9  1  0
 11 10  1  0
 12 11  2  0
 13 17  1  0
 13 11  1  0
 14 13  1  0
 15 14  1  0
 15 16  1  0
 16 17  1  0
 17 18  1  1
 18 19  2  0
 18 20  1  0
M  END
$$$$
