YHI.pdb
     RDKit          3D

 31 32  0  0  1  0  0  0  0  0999 V2000
   14.5798  -18.2525  -16.5459 O   0  0  0  0  0  0  0  0  0  0  0  0
   15.8200  -18.7048  -16.1067 C   0  0  0  0  0  0  0  0  0  0  0  0
   15.9232  -19.6717  -15.1262 C   0  0  0  0  0  0  0  0  0  0  0  0
   17.1583  -20.1112  -14.7000 C   0  0  0  0  0  0  0  0  0  0  0  0
   18.3344  -19.6140  -15.2242 C   0  0  0  0  0  0  0  0  0  0  0  0
   19.6593  -20.1011  -14.7510 C   0  0  0  0  0  0  0  0  0  0  0  0
   20.2336  -21.0518  -15.7796 C   0  0  2  0  0  0  0  0  0  0  0  0
   19.4794  -22.2878  -15.8368 N   0  0  0  0  0  0  0  0  0  0  0  0
   21.6735  -21.3069  -15.4902 C   0  0  0  0  0  0  0  0  0  0  0  0
   22.0656  -22.0630  -14.5908 O   0  0  0  0  0  0  0  0  0  0  0  0
   18.2323  -18.6477  -16.2041 C   0  0  0  0  0  0  0  0  0  0  0  0
   16.9843  -18.2024  -16.6360 C   0  0  0  0  0  0  0  0  0  0  0  0
   22.6428  -20.6474  -16.2892 N   0  0  0  0  0  0  0  0  0  0  0  0
   24.0485  -20.7376  -16.2026 C   0  0  1  0  0  0  0  0  0  0  0  0
   24.8410  -20.3415  -17.4324 C   0  0  0  0  0  0  0  0  0  0  0  0
   26.3039  -20.4619  -17.2255 C   0  0  0  0  0  0  0  0  0  0  0  0
   27.1506  -21.5286  -17.2172 C   0  0  0  0  0  0  0  0  0  0  0  0
   28.4378  -21.1428  -16.9959 N   0  0  0  0  0  0  0  0  0  0  0  0
   28.4007  -19.8137  -16.8633 C   0  0  0  0  0  0  0  0  0  0  0  0
   27.1387  -19.3900  -16.9970 N   0  0  0  0  0  0  0  0  0  0  0  0
   24.5987  -20.2444  -14.9364 C   0  0  0  0  0  0  0  0  0  0  0  0
   23.8440  -19.4444  -14.2840 O   0  0  0  0  0  0  0  0  0  0  0  0
   25.5124  -20.9539   -9.4433 C   0  0  0  0  0  0  0  0  0  0  0  0
   26.1989  -20.2901  -10.6256 C   0  0  0  0  0  0  0  0  0  0  0  0
   25.6850  -20.8257  -11.9363 C   0  0  2  0  0  0  0  0  0  0  0  0
   26.0552  -22.3245  -11.9492 C   0  0  0  0  0  0  0  0  0  0  0  0
   26.3726  -20.2099  -13.1412 C   0  0  2  0  0  0  0  0  0  0  0  0
   25.8443  -20.5754  -14.4122 N   0  0  0  0  0  0  0  0  0  0  0  0
   27.8360  -20.2432  -13.0727 C   0  0  0  0  0  0  0  0  0  0  0  0
   28.4423  -21.2452  -13.5889 O   0  0  0  0  0  0  0  0  0  0  0  0
   28.6538  -19.2920  -12.5006 O   0  0  0  0  0  0  0  0  0  0  0  0
  2  1  1  0
  3  2  2  0
  4  3  1  0
  5  4  2  0
  5 11  1  0
  6  5  1  0
  7  6  1  0
  7  8  1  1
  9 10  2  0
  9  7  1  0
 11 12  2  0
 12  2  1  0
 13  9  1  0
 14 13  1  0
 14 15  1  6
 16 15  1  0
 16 17  2  0
 18 17  1  0
 19 18  1  0
 20 19  2  0
 20 16  1  0
 21 14  1  0
 22 21  2  0
 23 24  1  0
 25 26  1  1
 25 24  1  0
 25 27  1  0
 27 28  1  6
 28 21  1  0
 29 27  1  0
 29 31  1  0
 30 29  2  0
M  END
$$$$
