YHI.pdb
     RDKit          3D

 31 32  0  0  1  0  0  0  0  0999 V2000
   25.4148  -14.3539  -24.9009 O   0  0  0  0  0  0  0  0  0  0  0  0
   24.5171  -14.8636  -23.9681 C   0  0  0  0  0  0  0  0  0  0  0  0
   24.3959  -14.3042  -22.7115 C   0  0  0  0  0  0  0  0  0  0  0  0
   23.5025  -14.8188  -21.7965 C   0  0  0  0  0  0  0  0  0  0  0  0
   22.6976  -15.9019  -22.0870 C   0  0  0  0  0  0  0  0  0  0  0  0
   21.7385  -16.4438  -21.0856 C   0  0  0  0  0  0  0  0  0  0  0  0
   22.4610  -17.4271  -20.1894 C   0  0  2  0  0  0  0  0  0  0  0  0
   22.9250  -18.5798  -20.9350 N   0  0  0  0  0  0  0  0  0  0  0  0
   21.5774  -17.8311  -19.0590 C   0  0  0  0  0  0  0  0  0  0  0  0
   20.8177  -18.8085  -19.1017 O   0  0  0  0  0  0  0  0  0  0  0  0
   22.8180  -16.4616  -23.3427 C   0  0  0  0  0  0  0  0  0  0  0  0
   23.7209  -15.9423  -24.2687 C   0  0  0  0  0  0  0  0  0  0  0  0
   21.6111  -17.0526  -17.8733 N   0  0  0  0  0  0  0  0  0  0  0  0
   20.8770  -17.2474  -16.6838 C   0  0  1  0  0  0  0  0  0  0  0  0
   21.4944  -16.7278  -15.4007 C   0  0  0  0  0  0  0  0  0  0  0  0
   20.6879  -17.0717  -14.2054 C   0  0  0  0  0  0  0  0  0  0  0  0
   19.8567  -16.3417  -13.4111 C   0  0  0  0  0  0  0  0  0  0  0  0
   19.3155  -17.1039  -12.4206 N   0  0  0  0  0  0  0  0  0  0  0  0
   19.8134  -18.3316  -12.5943 C   0  0  0  0  0  0  0  0  0  0  0  0
   20.6325  -18.3322  -13.6522 N   0  0  0  0  0  0  0  0  0  0  0  0
   19.4415  -16.9835  -16.8215 C   0  0  0  0  0  0  0  0  0  0  0  0
   19.1380  -15.8644  -17.3606 O   0  0  0  0  0  0  0  0  0  0  0  0
   15.9850  -19.8115  -19.4399 C   0  0  0  0  0  0  0  0  0  0  0  0
   16.6741  -18.6712  -18.7087 C   0  0  0  0  0  0  0  0  0  0  0  0
   16.1942  -18.5561  -17.2855 C   0  0  2  0  0  0  0  0  0  0  0  0
   14.7763  -17.9510  -17.3703 C   0  0  0  0  0  0  0  0  0  0  0  0
   17.0183  -17.5879  -16.4564 C   0  0  2  0  0  0  0  0  0  0  0  0
   18.4198  -17.8381  -16.4197 N   0  0  0  0  0  0  0  0  0  0  0  0
   16.4343  -17.2778  -15.1486 C   0  0  0  0  0  0  0  0  0  0  0  0
   15.4241  -16.4930  -15.1089 O   0  0  0  0  0  0  0  0  0  0  0  0
   16.8615  -17.7489  -13.9253 O   0  0  0  0  0  0  0  0  0  0  0  0
  2  1  1  0
  3  2  2  0
  4  3  1  0
  5  4  2  0
  5 11  1  0
  6  5  1  0
  7  6  1  0
  7  8  1  6
  9 10  2  0
  9  7  1  0
 11 12  2  0
 12  2  1  0
 13  9  1  0
 14 13  1  0
 14 15  1  1
 16 15  1  0
 16 17  2  0
 18 17  1  0
 19 18  1  0
 20 19  2  0
 20 16  1  0
 21 14  1  0
 22 21  2  0
 23 24  1  0
 25 26  1  6
 25 24  1  0
 25 27  1  0
 27 28  1  1
 28 21  1  0
 29 27  1  0
 29 31  1  0
 30 29  2  0
M  END
$$$$
