YHI.pdb
     RDKit          3D

 31 32  0  0  1  0  0  0  0  0999 V2000
   18.7941  -19.9808  -19.4397 O   0  0  0  0  0  0  0  0  0  0  0  0
   19.1784  -18.8715  -18.6929 C   0  0  0  0  0  0  0  0  0  0  0  0
   18.9437  -18.8074  -17.3337 C   0  0  0  0  0  0  0  0  0  0  0  0
   19.3295  -17.7024  -16.6054 C   0  0  0  0  0  0  0  0  0  0  0  0
   19.9598  -16.6225  -17.1900 C   0  0  0  0  0  0  0  0  0  0  0  0
   20.3691  -15.4377  -16.3869 C   0  0  0  0  0  0  0  0  0  0  0  0
   21.8784  -15.3219  -16.4090 C   0  0  2  0  0  0  0  0  0  0  0  0
   22.5107  -16.5964  -16.1341 N   0  0  0  0  0  0  0  0  0  0  0  0
   22.3237  -14.2756  -15.4452 C   0  0  0  0  0  0  0  0  0  0  0  0
   22.5243  -14.4957  -14.2428 O   0  0  0  0  0  0  0  0  0  0  0  0
   20.1948  -16.6857  -18.5484 C   0  0  0  0  0  0  0  0  0  0  0  0
   19.8052  -17.8022  -19.2859 C   0  0  0  0  0  0  0  0  0  0  0  0
   22.5275  -12.9595  -15.9345 N   0  0  0  0  0  0  0  0  0  0  0  0
   22.8481  -11.7983  -15.1995 C   0  0  1  0  0  0  0  0  0  0  0  0
   24.2584  -11.6963  -14.6535 C   0  0  0  0  0  0  0  0  0  0  0  0
   25.2252  -12.5094  -15.4291 C   0  0  0  0  0  0  0  0  0  0  0  0
   25.0978  -13.2806  -16.5444 C   0  0  0  0  0  0  0  0  0  0  0  0
   26.2878  -13.8348  -16.9070 N   0  0  0  0  0  0  0  0  0  0  0  0
   27.1772  -13.4059  -16.0068 C   0  0  0  0  0  0  0  0  0  0  0  0
   26.5633  -12.6155  -15.1189 N   0  0  0  0  0  0  0  0  0  0  0  0
   22.3306  -10.5599  -15.7893 C   0  0  0  0  0  0  0  0  0  0  0  0
   22.3112  -10.5265  -17.0674 O   0  0  0  0  0  0  0  0  0  0  0  0
   18.2089  -10.0702  -17.6810 C   0  0  0  0  0  0  0  0  0  0  0  0
   19.5931   -9.5591  -17.3173 C   0  0  0  0  0  0  0  0  0  0  0  0
   19.6043   -8.9113  -15.9574 C   0  0  2  0  0  0  0  0  0  0  0  0
   18.7387   -7.6401  -16.0930 C   0  0  0  0  0  0  0  0  0  0  0  0
   20.9839   -8.4404  -15.5342 C   0  0  2  0  0  0  0  0  0  0  0  0
   21.8738   -9.4546  -15.0783 N   0  0  0  0  0  0  0  0  0  0  0  0
   20.9713   -7.2385  -14.6960 C   0  0  0  0  0  0  0  0  0  0  0  0
   20.9423   -7.3884  -13.4253 O   0  0  0  0  0  0  0  0  0  0  0  0
   20.9880   -5.9312  -15.1337 O   0  0  0  0  0  0  0  0  0  0  0  0
  2  1  1  0
  3  2  2  0
  4  3  1  0
  5  4  2  0
  5 11  1  0
  6  5  1  0
  7  6  1  0
  7  8  1  1
  9 10  2  0
  9  7  1  0
 11 12  2  0
 12  2  1  0
 13  9  1  0
 14 13  1  0
 14 15  1  6
 16 15  1  0
 16 17  2  0
 18 17  1  0
 19 18  1  0
 20 19  2  0
 20 16  1  0
 21 14  1  0
 22 21  2  0
 23 24  1  0
 25 26  1  6
 25 24  1  0
 25 27  1  0
 27 28  1  1
 28 21  1  0
 29 27  1  0
 29 31  1  0
 30 29  2  0
M  END
$$$$
