YHI.pdb
     RDKit          3D

 31 32  0  0  1  0  0  0  0  0999 V2000
   16.9255  -14.6898  -25.3738 O   0  0  0  0  0  0  0  0  0  0  0  0
   16.9499  -14.0000  -24.1658 C   0  0  0  0  0  0  0  0  0  0  0  0
   15.9766  -14.2006  -23.2071 C   0  0  0  0  0  0  0  0  0  0  0  0
   16.0124  -13.5106  -22.0143 C   0  0  0  0  0  0  0  0  0  0  0  0
   17.0076  -12.5993  -21.7241 C   0  0  0  0  0  0  0  0  0  0  0  0
   17.0296  -11.8635  -20.4300 C   0  0  0  0  0  0  0  0  0  0  0  0
   17.8352  -12.6564  -19.4230 C   0  0  2  0  0  0  0  0  0  0  0  0
   17.2761  -13.9779  -19.2211 N   0  0  0  0  0  0  0  0  0  0  0  0
   17.9291  -11.9044  -18.1395 C   0  0  0  0  0  0  0  0  0  0  0  0
   17.2002  -12.1268  -17.1629 O   0  0  0  0  0  0  0  0  0  0  0  0
   17.9808  -12.3981  -22.6816 C   0  0  0  0  0  0  0  0  0  0  0  0
   17.9458  -13.0950  -23.8880 C   0  0  0  0  0  0  0  0  0  0  0  0
   18.9059  -10.8808  -18.0346 N   0  0  0  0  0  0  0  0  0  0  0  0
   19.1635  -10.0338  -16.9355 C   0  0  1  0  0  0  0  0  0  0  0  0
   20.1668  -10.5224  -15.9099 C   0  0  0  0  0  0  0  0  0  0  0  0
   20.2690   -9.6153  -14.7419 C   0  0  0  0  0  0  0  0  0  0  0  0
   21.1734   -8.6592  -14.3917 C   0  0  0  0  0  0  0  0  0  0  0  0
   20.8396   -8.0637  -13.2133 N   0  0  0  0  0  0  0  0  0  0  0  0
   19.7084   -8.6536  -12.8161 C   0  0  0  0  0  0  0  0  0  0  0  0
   19.3530   -9.5802  -13.7135 N   0  0  0  0  0  0  0  0  0  0  0  0
   19.2970   -8.6186  -17.2944 C   0  0  0  0  0  0  0  0  0  0  0  0
   20.1216   -8.3668  -18.2387 O   0  0  0  0  0  0  0  0  0  0  0  0
   15.8391   -5.2767  -19.2480 C   0  0  0  0  0  0  0  0  0  0  0  0
   17.1133   -5.9683  -18.7922 C   0  0  0  0  0  0  0  0  0  0  0  0
   17.5985   -5.4224  -17.4748 C   0  0  2  0  0  0  0  0  0  0  0  0
   18.0854   -3.9875  -17.7709 C   0  0  0  0  0  0  0  0  0  0  0  0
   18.7992   -6.1717  -16.9263 C   0  0  2  0  0  0  0  0  0  0  0  0
   18.6111   -7.5649  -16.6986 N   0  0  0  0  0  0  0  0  0  0  0  0
   19.4860   -5.4771  -15.8340 C   0  0  0  0  0  0  0  0  0  0  0  0
   20.1070   -4.3913  -16.1045 O   0  0  0  0  0  0  0  0  0  0  0  0
   19.5392   -5.8718  -14.5140 O   0  0  0  0  0  0  0  0  0  0  0  0
  2  1  1  0
  3  2  2  0
  4  3  1  0
  5  4  2  0
  5 11  1  0
  6  5  1  0
  7  6  1  0
  7  8  1  1
  9 10  2  0
  9  7  1  0
 11 12  2  0
 12  2  1  0
 13  9  1  0
 14 13  1  0
 14 15  1  6
 16 15  1  0
 16 17  2  0
 18 17  1  0
 19 18  1  0
 20 19  2  0
 20 16  1  0
 21 14  1  0
 22 21  2  0
 23 24  1  0
 25 26  1  6
 25 24  1  0
 25 27  1  0
 27 28  1  1
 28 21  1  0
 29 27  1  0
 29 31  1  0
 30 29  2  0
M  END
$$$$
