YHI.pdb
     RDKit          3D

 31 32  0  0  1  0  0  0  0  0999 V2000
   18.3085  -15.2388  -17.3337 O   0  0  0  0  0  0  0  0  0  0  0  0
   19.0484  -16.1240  -16.5561 C   0  0  0  0  0  0  0  0  0  0  0  0
   20.1123  -15.6881  -15.7915 C   0  0  0  0  0  0  0  0  0  0  0  0
   20.8373  -16.5756  -15.0254 C   0  0  0  0  0  0  0  0  0  0  0  0
   20.5399  -17.9229  -14.9856 C   0  0  0  0  0  0  0  0  0  0  0  0
   21.3345  -18.8664  -14.1520 C   0  0  0  0  0  0  0  0  0  0  0  0
   22.5602  -19.3007  -14.9274 C   0  0  2  0  0  0  0  0  0  0  0  0
   22.1966  -20.0196  -16.1319 N   0  0  0  0  0  0  0  0  0  0  0  0
   23.4521  -20.1172  -14.0558 C   0  0  0  0  0  0  0  0  0  0  0  0
   23.0580  -21.0865  -13.3929 O   0  0  0  0  0  0  0  0  0  0  0  0
   19.4768  -18.3595  -15.7495 C   0  0  0  0  0  0  0  0  0  0  0  0
   18.7429  -17.4633  -16.5245 C   0  0  0  0  0  0  0  0  0  0  0  0
   24.8239  -19.7623  -13.9843 N   0  0  0  0  0  0  0  0  0  0  0  0
   25.8517  -20.4043  -13.2611 C   0  0  1  0  0  0  0  0  0  0  0  0
   27.1580  -20.6480  -13.9902 C   0  0  0  0  0  0  0  0  0  0  0  0
   26.9931  -21.5386  -15.1638 C   0  0  0  0  0  0  0  0  0  0  0  0
   25.9133  -22.1775  -15.6935 C   0  0  0  0  0  0  0  0  0  0  0  0
   26.2491  -22.8867  -16.8066 N   0  0  0  0  0  0  0  0  0  0  0  0
   27.5594  -22.6909  -16.9801 C   0  0  0  0  0  0  0  0  0  0  0  0
   28.0201  -21.8908  -16.0118 N   0  0  0  0  0  0  0  0  0  0  0  0
   26.0013  -19.9209  -11.8851 C   0  0  0  0  0  0  0  0  0  0  0  0
   25.7973  -18.6698  -11.7172 O   0  0  0  0  0  0  0  0  0  0  0  0
   26.8733  -19.0288   -6.1097 C   0  0  0  0  0  0  0  0  0  0  0  0
   27.5619  -19.4203   -7.4067 C   0  0  0  0  0  0  0  0  0  0  0  0
   26.5672  -19.8451   -8.4551 C   0  0  2  0  0  0  0  0  0  0  0  0
   25.8023  -21.0398   -7.8456 C   0  0  0  0  0  0  0  0  0  0  0  0
   27.2230  -20.3646   -9.7215 C   0  0  2  0  0  0  0  0  0  0  0  0
   26.3387  -20.7033  -10.7852 N   0  0  0  0  0  0  0  0  0  0  0  0
   28.2751  -21.3564   -9.4831 C   0  0  0  0  0  0  0  0  0  0  0  0
   29.2163  -21.0551   -8.6698 O   0  0  0  0  0  0  0  0  0  0  0  0
   28.3669  -22.6096  -10.0506 O   0  0  0  0  0  0  0  0  0  0  0  0
  2  1  1  0
  3  2  2  0
  4  3  1  0
  5  4  2  0
  5 11  1  0
  6  5  1  0
  7  6  1  0
  7  8  1  6
  9 10  2  0
  9  7  1  0
 11 12  2  0
 12  2  1  0
 13  9  1  0
 14 13  1  0
 14 15  1  6
 16 15  1  0
 16 17  2  0
 18 17  1  0
 19 18  1  0
 20 19  2  0
 20 16  1  0
 21 14  1  0
 22 21  2  0
 23 24  1  0
 25 26  1  1
 25 24  1  0
 25 27  1  0
 27 28  1  6
 28 21  1  0
 29 27  1  0
 29 31  1  0
 30 29  2  0
M  END
$$$$
