YHI.pdb
     RDKit          3D

 31 32  0  0  1  0  0  0  0  0999 V2000
   27.3326  -14.5416  -17.6099 O   0  0  0  0  0  0  0  0  0  0  0  0
   27.7198  -15.6777  -16.9063 C   0  0  0  0  0  0  0  0  0  0  0  0
   28.5104  -16.6471  -17.4912 C   0  0  0  0  0  0  0  0  0  0  0  0
   28.8870  -17.7681  -16.7829 C   0  0  0  0  0  0  0  0  0  0  0  0
   28.4984  -17.9736  -15.4745 C   0  0  0  0  0  0  0  0  0  0  0  0
   28.9152  -19.1909  -14.7256 C   0  0  0  0  0  0  0  0  0  0  0  0
   27.9638  -20.3226  -15.0512 C   0  0  2  0  0  0  0  0  0  0  0  0
   27.8398  -20.5141  -16.4822 N   0  0  0  0  0  0  0  0  0  0  0  0
   26.6372  -20.0710  -14.4198 C   0  0  0  0  0  0  0  0  0  0  0  0
   25.7097  -19.4818  -14.9915 O   0  0  0  0  0  0  0  0  0  0  0  0
   27.7083  -17.0053  -14.8891 C   0  0  0  0  0  0  0  0  0  0  0  0
   27.3267  -15.8715  -15.6040 C   0  0  0  0  0  0  0  0  0  0  0  0
   26.4297  -20.5323  -13.0943 N   0  0  0  0  0  0  0  0  0  0  0  0
   25.2298  -20.5326  -12.3513 C   0  0  1  0  0  0  0  0  0  0  0  0
   23.9627  -20.9153  -13.0898 C   0  0  0  0  0  0  0  0  0  0  0  0
   22.7503  -20.7595  -12.2512 C   0  0  0  0  0  0  0  0  0  0  0  0
   22.5514  -20.2620  -10.9991 C   0  0  0  0  0  0  0  0  0  0  0  0
   21.2372  -20.3112  -10.6452 N   0  0  0  0  0  0  0  0  0  0  0  0
   20.5997  -20.8472  -11.6901 C   0  0  0  0  0  0  0  0  0  0  0  0
   21.4840  -21.1207  -12.6561 N   0  0  0  0  0  0  0  0  0  0  0  0
   25.3588  -21.1205  -11.0145 C   0  0  0  0  0  0  0  0  0  0  0  0
   25.7521  -22.3369  -10.9850 O   0  0  0  0  0  0  0  0  0  0  0  0
   28.2534  -19.1133   -7.0482 C   0  0  0  0  0  0  0  0  0  0  0  0
   27.4621  -19.9894   -8.0052 C   0  0  0  0  0  0  0  0  0  0  0  0
   26.0479  -20.1932   -7.5283 C   0  0  2  0  0  0  0  0  0  0  0  0
   26.1583  -21.0435   -6.2444 C   0  0  0  0  0  0  0  0  0  0  0  0
   25.2034  -20.9994   -8.4982 C   0  0  2  0  0  0  0  0  0  0  0  0
   25.0919  -20.4683   -9.8149 N   0  0  0  0  0  0  0  0  0  0  0  0
   23.9339  -21.4672   -7.9353 C   0  0  0  0  0  0  0  0  0  0  0  0
   23.9714  -22.3663   -7.0251 O   0  0  0  0  0  0  0  0  0  0  0  0
   22.6716  -21.0363   -8.2845 O   0  0  0  0  0  0  0  0  0  0  0  0
  2  1  1  0
  3  2  2  0
  4  3  1  0
  5  4  2  0
  5 11  1  0
  6  5  1  0
  7  6  1  0
  7  8  1  6
  9 10  2  0
  9  7  1  0
 11 12  2  0
 12  2  1  0
 13  9  1  0
 14 13  1  0
 14 15  1  6
 16 15  1  0
 16 17  2  0
 18 17  1  0
 19 18  1  0
 20 19  2  0
 20 16  1  0
 21 14  1  0
 22 21  2  0
 23 24  1  0
 25 26  1  1
 25 24  1  0
 25 27  1  0
 27 28  1  6
 28 21  1  0
 29 27  1  0
 29 31  1  0
 30 29  2  0
M  END
$$$$
