YHI.pdb
     RDKit          3D

 31 32  0  0  1  0  0  0  0  0999 V2000
   21.0074   -9.4464  -20.6551 O   0  0  0  0  0  0  0  0  0  0  0  0
   20.7643  -10.7697  -20.3010 C   0  0  0  0  0  0  0  0  0  0  0  0
   21.0797  -11.2436  -19.0429 C   0  0  0  0  0  0  0  0  0  0  0  0
   20.8337  -12.5571  -18.7048 C   0  0  0  0  0  0  0  0  0  0  0  0
   20.2687  -13.4495  -19.5935 C   0  0  0  0  0  0  0  0  0  0  0  0
   20.0105  -14.8647  -19.2101 C   0  0  0  0  0  0  0  0  0  0  0  0
   21.3236  -15.6177  -19.1824 C   0  0  2  0  0  0  0  0  0  0  0  0
   21.9538  -15.6300  -20.4873 N   0  0  0  0  0  0  0  0  0  0  0  0
   21.1073  -17.0009  -18.6707 C   0  0  0  0  0  0  0  0  0  0  0  0
   20.8296  -17.9631  -19.3996 O   0  0  0  0  0  0  0  0  0  0  0  0
   19.9532  -12.9768  -20.8510 C   0  0  0  0  0  0  0  0  0  0  0  0
   20.2014  -11.6490  -21.1942 C   0  0  0  0  0  0  0  0  0  0  0  0
   21.2271  -17.2232  -17.2745 N   0  0  0  0  0  0  0  0  0  0  0  0
   21.0557  -18.4332  -16.5686 C   0  0  1  0  0  0  0  0  0  0  0  0
   22.2462  -18.9469  -15.7837 C   0  0  0  0  0  0  0  0  0  0  0  0
   23.3164  -19.4772  -16.6617 C   0  0  0  0  0  0  0  0  0  0  0  0
   23.4171  -19.6186  -18.0125 C   0  0  0  0  0  0  0  0  0  0  0  0
   24.6181  -20.1515  -18.3707 N   0  0  0  0  0  0  0  0  0  0  0  0
   25.2831  -20.3481  -17.2286 C   0  0  0  0  0  0  0  0  0  0  0  0
   24.5242  -19.9525  -16.2001 N   0  0  0  0  0  0  0  0  0  0  0  0
   19.7719  -18.5358  -15.8682 C   0  0  0  0  0  0  0  0  0  0  0  0
   19.5320  -17.6074  -15.0223 O   0  0  0  0  0  0  0  0  0  0  0  0
   13.8809  -19.8204  -16.6687 C   0  0  0  0  0  0  0  0  0  0  0  0
   15.0386  -19.8029  -15.6843 C   0  0  0  0  0  0  0  0  0  0  0  0
   16.3673  -19.7670  -16.3930 C   0  0  2  0  0  0  0  0  0  0  0  0
   16.5107  -21.1412  -17.0819 C   0  0  0  0  0  0  0  0  0  0  0  0
   17.5449  -19.6451  -15.4432 C   0  0  2  0  0  0  0  0  0  0  0  0
   18.8273  -19.5403  -16.0538 N   0  0  0  0  0  0  0  0  0  0  0  0
   17.4976  -20.5776  -14.3138 C   0  0  0  0  0  0  0  0  0  0  0  0
   16.5069  -20.4998  -13.5072 O   0  0  0  0  0  0  0  0  0  0  0  0
   18.4236  -21.5545  -14.0153 O   0  0  0  0  0  0  0  0  0  0  0  0
  2  1  1  0
  3  2  2  0
  4  3  1  0
  5  4  2  0
  5 11  1  0
  6  5  1  0
  7  6  1  0
  7  8  1  6
  9 10  2  0
  9  7  1  0
 11 12  2  0
 12  2  1  0
 13  9  1  0
 14 13  1  0
 14 15  1  1
 16 15  1  0
 16 17  2  0
 18 17  1  0
 19 18  1  0
 20 19  2  0
 20 16  1  0
 21 14  1  0
 22 21  2  0
 23 24  1  0
 25 26  1  1
 25 24  1  0
 25 27  1  0
 27 28  1  6
 28 21  1  0
 29 27  1  0
 29 31  1  0
 30 29  2  0
M  END
$$$$
