YHI.pdb
     RDKit          3D

 31 32  0  0  1  0  0  0  0  0999 V2000
   20.1573  -13.4303  -19.3754 O   0  0  0  0  0  0  0  0  0  0  0  0
   20.7061  -14.4866  -18.6552 C   0  0  0  0  0  0  0  0  0  0  0  0
   20.1349  -15.7435  -18.6807 C   0  0  0  0  0  0  0  0  0  0  0  0
   20.6887  -16.7816  -17.9625 C   0  0  0  0  0  0  0  0  0  0  0  0
   21.8239  -16.6182  -17.1944 C   0  0  0  0  0  0  0  0  0  0  0  0
   22.4076  -17.7515  -16.4254 C   0  0  0  0  0  0  0  0  0  0  0  0
   23.5886  -18.3119  -17.1889 C   0  0  2  0  0  0  0  0  0  0  0  0
   23.1723  -18.9137  -18.4397 N   0  0  0  0  0  0  0  0  0  0  0  0
   24.3302  -19.2855  -16.3380 C   0  0  0  0  0  0  0  0  0  0  0  0
   24.0080  -20.4760  -16.2231 O   0  0  0  0  0  0  0  0  0  0  0  0
   22.3954  -15.3624  -17.1684 C   0  0  0  0  0  0  0  0  0  0  0  0
   21.8366  -14.3119  -17.8940 C   0  0  0  0  0  0  0  0  0  0  0  0
   25.4645  -18.8204  -15.6238 N   0  0  0  0  0  0  0  0  0  0  0  0
   26.2997  -19.5476  -14.7490 C   0  0  1  0  0  0  0  0  0  0  0  0
   27.7923  -19.4742  -15.0021 C   0  0  0  0  0  0  0  0  0  0  0  0
   28.1717  -20.0443  -16.3168 C   0  0  0  0  0  0  0  0  0  0  0  0
   28.4652  -21.3103  -16.7242 C   0  0  0  0  0  0  0  0  0  0  0  0
   28.7472  -21.3536  -18.0559 N   0  0  0  0  0  0  0  0  0  0  0  0
   28.6292  -20.0965  -18.4930 C   0  0  0  0  0  0  0  0  0  0  0  0
   28.2870  -19.3025  -17.4719 N   0  0  0  0  0  0  0  0  0  0  0  0
   25.9138  -19.4468  -13.3382 C   0  0  0  0  0  0  0  0  0  0  0  0
   25.6918  -18.2615  -12.9128 O   0  0  0  0  0  0  0  0  0  0  0  0
   21.8967  -19.7780   -9.4075 C   0  0  0  0  0  0  0  0  0  0  0  0
   23.3878  -20.0477   -9.5245 C   0  0  0  0  0  0  0  0  0  0  0  0
   23.8027  -20.2504  -10.9583 C   0  0  2  0  0  0  0  0  0  0  0  0
   23.1171  -21.5575  -11.4109 C   0  0  0  0  0  0  0  0  0  0  0  0
   25.2948  -20.4779  -11.1191 C   0  0  2  0  0  0  0  0  0  0  0  0
   25.7766  -20.5161  -12.4588 N   0  0  0  0  0  0  0  0  0  0  0  0
   25.8306  -21.5397  -10.2631 C   0  0  0  0  0  0  0  0  0  0  0  0
   25.9127  -22.7219  -10.7467 O   0  0  0  0  0  0  0  0  0  0  0  0
   26.2678  -21.4047   -8.9625 O   0  0  0  0  0  0  0  0  0  0  0  0
  2  1  1  0
  3  2  2  0
  4  3  1  0
  5  4  2  0
  5 11  1  0
  6  5  1  0
  7  6  1  0
  7  8  1  6
  9 10  2  0
  9  7  1  0
 11 12  2  0
 12  2  1  0
 13  9  1  0
 14 13  1  0
 14 15  1  1
 16 15  1  0
 16 17  2  0
 18 17  1  0
 19 18  1  0
 20 19  2  0
 20 16  1  0
 21 14  1  0
 22 21  2  0
 23 24  1  0
 25 26  1  1
 25 24  1  0
 25 27  1  0
 27 28  1  6
 28 21  1  0
 29 27  1  0
 29 31  1  0
 30 29  2  0
M  END
$$$$
