YHI.pdb
     RDKit          3D

 31 32  0  0  1  0  0  0  0  0999 V2000
   17.7967  -20.7963  -16.3175 O   0  0  0  0  0  0  0  0  0  0  0  0
   18.2678  -19.4876  -16.3486 C   0  0  0  0  0  0  0  0  0  0  0  0
   19.5882  -19.2088  -16.6408 C   0  0  0  0  0  0  0  0  0  0  0  0
   20.0422  -17.9075  -16.6683 C   0  0  0  0  0  0  0  0  0  0  0  0
   19.2120  -16.8358  -16.4090 C   0  0  0  0  0  0  0  0  0  0  0  0
   19.7206  -15.4370  -16.4434 C   0  0  0  0  0  0  0  0  0  0  0  0
   19.2863  -14.7838  -17.7383 C   0  0  2  0  0  0  0  0  0  0  0  0
   19.9295  -15.3982  -18.8822 N   0  0  0  0  0  0  0  0  0  0  0  0
   19.5557  -13.3187  -17.6856 C   0  0  0  0  0  0  0  0  0  0  0  0
   20.6602  -12.8180  -17.9377 O   0  0  0  0  0  0  0  0  0  0  0  0
   17.8921  -17.1134  -16.1169 C   0  0  0  0  0  0  0  0  0  0  0  0
   17.4318  -18.4285  -16.0888 C   0  0  0  0  0  0  0  0  0  0  0  0
   18.4881  -12.4554  -17.3276 N   0  0  0  0  0  0  0  0  0  0  0  0
   18.5053  -11.0481  -17.2232 C   0  0  1  0  0  0  0  0  0  0  0  0
   17.1789  -10.3302  -17.3739 C   0  0  0  0  0  0  0  0  0  0  0  0
   17.3199   -8.8572  -17.2857 C   0  0  0  0  0  0  0  0  0  0  0  0
   17.1114   -7.9686  -16.2749 C   0  0  0  0  0  0  0  0  0  0  0  0
   17.3924   -6.6942  -16.6644 N   0  0  0  0  0  0  0  0  0  0  0  0
   17.7837   -6.7821  -17.9390 C   0  0  0  0  0  0  0  0  0  0  0  0
   17.7471   -8.0622  -18.3265 N   0  0  0  0  0  0  0  0  0  0  0  0
   19.3535  -10.5429  -16.1394 C   0  0  0  0  0  0  0  0  0  0  0  0
   19.1428  -11.0615  -14.9897 O   0  0  0  0  0  0  0  0  0  0  0  0
   24.2060  -11.3399  -15.1689 C   0  0  0  0  0  0  0  0  0  0  0  0
   22.7414  -10.9344  -15.1538 C   0  0  0  0  0  0  0  0  0  0  0  0
   22.5813   -9.4370  -15.1859 C   0  0  2  0  0  0  0  0  0  0  0  0
   23.1409   -8.9279  -13.8401 C   0  0  0  0  0  0  0  0  0  0  0  0
   21.1300   -8.9949  -15.2349 C   0  0  2  0  0  0  0  0  0  0  0  0
   20.3398   -9.5704  -16.2705 N   0  0  0  0  0  0  0  0  0  0  0  0
   20.9423   -7.5503  -15.0755 C   0  0  0  0  0  0  0  0  0  0  0  0
   21.3840   -6.9978  -14.0089 O   0  0  0  0  0  0  0  0  0  0  0  0
   20.3282   -6.6979  -15.9684 O   0  0  0  0  0  0  0  0  0  0  0  0
  2  1  1  0
  3  2  2  0
  4  3  1  0
  5  4  2  0
  5 11  1  0
  6  5  1  0
  7  6  1  0
  7  8  1  6
  9 10  2  0
  9  7  1  0
 11 12  2  0
 12  2  1  0
 13  9  1  0
 14 13  1  0
 14 15  1  1
 16 15  1  0
 16 17  2  0
 18 17  1  0
 19 18  1  0
 20 19  2  0
 20 16  1  0
 21 14  1  0
 22 21  2  0
 23 24  1  0
 25 26  1  1
 25 24  1  0
 25 27  1  0
 27 28  1  6
 28 21  1  0
 29 27  1  0
 29 31  1  0
 30 29  2  0
M  END
$$$$
