YHI.pdb
     RDKit          3D

 31 32  0  0  1  0  0  0  0  0999 V2000
   30.6016  -17.9874  -19.9238 O   0  0  0  0  0  0  0  0  0  0  0  0
   29.8354  -17.9268  -18.7641 C   0  0  0  0  0  0  0  0  0  0  0  0
   30.0729  -18.7790  -17.7039 C   0  0  0  0  0  0  0  0  0  0  0  0
   29.3064  -18.7085  -16.5603 C   0  0  0  0  0  0  0  0  0  0  0  0
   28.2795  -17.7966  -16.4211 C   0  0  0  0  0  0  0  0  0  0  0  0
   27.4623  -17.7355  -15.1782 C   0  0  0  0  0  0  0  0  0  0  0  0
   26.5548  -18.9460  -15.1222 C   0  0  2  0  0  0  0  0  0  0  0  0
   25.6789  -19.0041  -16.2752 N   0  0  0  0  0  0  0  0  0  0  0  0
   25.7783  -18.9425  -13.8498 C   0  0  0  0  0  0  0  0  0  0  0  0
   25.3088  -17.9163  -13.3391 O   0  0  0  0  0  0  0  0  0  0  0  0
   28.0414  -16.9445  -17.4802 C   0  0  0  0  0  0  0  0  0  0  0  0
   28.8156  -17.0147  -18.6369 C   0  0  0  0  0  0  0  0  0  0  0  0
   25.5678  -20.1820  -13.1921 N   0  0  0  0  0  0  0  0  0  0  0  0
   24.8506  -20.4236  -12.0009 C   0  0  1  0  0  0  0  0  0  0  0  0
   23.6435  -21.3352  -12.0967 C   0  0  0  0  0  0  0  0  0  0  0  0
   22.6140  -20.8145  -13.0276 C   0  0  0  0  0  0  0  0  0  0  0  0
   22.5523  -19.6983  -13.8054 C   0  0  0  0  0  0  0  0  0  0  0  0
   21.3923  -19.6491  -14.5172 N   0  0  0  0  0  0  0  0  0  0  0  0
   20.7141  -20.7507  -14.1825 C   0  0  0  0  0  0  0  0  0  0  0  0
   21.4255  -21.4572  -13.2967 N   0  0  0  0  0  0  0  0  0  0  0  0
   25.7030  -20.6597  -10.8317 C   0  0  0  0  0  0  0  0  0  0  0  0
   26.6327  -21.5223  -10.9948 O   0  0  0  0  0  0  0  0  0  0  0  0
   28.5050  -18.2127   -6.9888 C   0  0  0  0  0  0  0  0  0  0  0  0
   27.8996  -19.3097   -7.8489 C   0  0  0  0  0  0  0  0  0  0  0  0
   26.5581  -19.7485   -7.3230 C   0  0  2  0  0  0  0  0  0  0  0  0
   26.8609  -20.6574   -6.1122 C   0  0  0  0  0  0  0  0  0  0  0  0
   25.7829  -20.6027   -8.3096 C   0  0  2  0  0  0  0  0  0  0  0  0
   25.5750  -20.0308   -9.5972 N   0  0  0  0  0  0  0  0  0  0  0  0
   24.5906  -21.2362   -7.7398 C   0  0  0  0  0  0  0  0  0  0  0  0
   24.7153  -22.3974   -7.2162 O   0  0  0  0  0  0  0  0  0  0  0  0
   23.3175  -20.7082   -7.7031 O   0  0  0  0  0  0  0  0  0  0  0  0
  2  1  1  0
  3  2  2  0
  4  3  1  0
  5  4  2  0
  5 11  1  0
  6  5  1  0
  7  6  1  0
  7  8  1  6
  9 10  2  0
  9  7  1  0
 11 12  2  0
 12  2  1  0
 13  9  1  0
 14 13  1  0
 14 15  1  6
 16 15  1  0
 16 17  2  0
 18 17  1  0
 19 18  1  0
 20 19  2  0
 20 16  1  0
 21 14  1  0
 22 21  2  0
 23 24  1  0
 25 26  1  1
 25 24  1  0
 25 27  1  0
 27 28  1  6
 28 21  1  0
 29 27  1  0
 29 31  1  0
 30 29  2  0
M  END
$$$$
