WMT.pdb
     RDKit          3D

 30 31  0  0  1  0  0  0  0  0999 V2000
    6.5530  -18.8299   24.5912 N   0  0  0  0  0  0  0  0  0  0  0  0
    6.7834  -17.4844   24.1383 C   0  0  1  0  0  0  0  0  0  0  0  0
    7.6109  -16.6667   25.0987 C   0  0  0  0  0  0  0  0  0  0  0  0
    6.8379  -15.5661   25.7058 C   0  0  0  0  0  0  0  0  0  0  0  0
    5.5524  -15.6659   26.1729 C   0  0  0  0  0  0  0  0  0  0  0  0
    5.2162  -14.4562   26.6421 N   0  0  0  0  0  0  0  0  0  0  0  0
    6.2354  -13.5908   26.4924 C   0  0  0  0  0  0  0  0  0  0  0  0
    6.4204  -12.2536   26.7960 C   0  0  0  0  0  0  0  0  0  0  0  0
    7.6039  -11.6173   26.5184 C   0  0  0  0  0  0  0  0  0  0  0  0
    8.6551  -12.2852   25.9262 C   0  0  0  0  0  0  0  0  0  0  0  0
    8.4692  -13.6145   25.6251 C   0  0  0  0  0  0  0  0  0  0  0  0
    7.2930  -14.2842   25.8904 C   0  0  0  0  0  0  0  0  0  0  0  0
    7.4612  -17.4560   22.8149 C   0  0  0  0  0  0  0  0  0  0  0  0
    8.1419  -18.4892   22.4920 O   0  0  0  0  0  0  0  0  0  0  0  0
    8.6066  -11.2253   20.3215 C   0  0  0  0  0  0  0  0  0  0  0  0
    8.7287  -12.9101   19.6285 S   0  0  0  0  0  0  0  0  0  0  0  0
    7.4701  -13.9940   20.3568 C   0  0  0  0  0  0  0  0  0  0  0  0
    7.4477  -15.3474   19.7615 C   0  0  0  0  0  0  0  0  0  0  0  0
    7.9922  -16.4461   20.6253 C   0  0  2  0  0  0  0  0  0  0  0  0
    7.3577  -16.3452   21.9597 N   0  0  0  0  0  0  0  0  0  0  0  0
    9.4545  -16.4691   20.7770 C   0  0  0  0  0  0  0  0  0  0  0  0
   10.2019  -16.4268   19.7243 O   0  0  0  0  0  0  0  0  0  0  0  0
   11.8983  -15.0073   23.8337 C   0  0  0  0  0  0  0  0  0  0  0  0
   12.2187  -16.4314   23.3863 C   0  0  1  0  0  0  0  0  0  0  0  0
   11.5730  -17.2549   24.3180 O   0  0  0  0  0  0  0  0  0  0  0  0
   11.6332  -16.6495   22.0196 C   0  0  2  0  0  0  0  0  0  0  0  0
   10.2010  -16.5297   21.9693 N   0  0  0  0  0  0  0  0  0  0  0  0
   12.0613  -17.9721   21.4913 C   0  0  0  0  0  0  0  0  0  0  0  0
   11.2332  -18.8464   21.1128 O   0  0  0  0  0  0  0  0  0  0  0  0
   13.4055  -18.3069   21.3899 O   0  0  0  0  0  0  0  0  0  0  0  0
  2  1  1  1
  2  3  1  0
  2 13  1  0
  3  4  1  0
  4 12  1  0
  4  5  2  0
  5  6  1  0
  7  6  1  0
  7  8  2  0
  9  8  1  0
 10  9  2  0
 11 12  2  0
 11 10  1  0
 12  7  1  0
 13 14  2  0
 16 15  1  0
 16 17  1  0
 18 17  1  0
 19 18  1  6
 19 21  1  0
 20 13  1  0
 20 19  1  0
 21 22  2  0
 24 23  1  1
 24 26  1  0
 25 24  1  0
 26 28  1  0
 26 27  1  1
 27 21  1  0
 28 29  2  0
 28 30  1  0
M  END
$$$$
