WMT.pdb
     RDKit          3D

 30 31  0  0  1  0  0  0  0  0999 V2000
    6.3409  -18.7536   24.7262 N   0  0  0  0  0  0  0  0  0  0  0  0
    6.7383  -17.3756   24.6175 C   0  0  1  0  0  0  0  0  0  0  0  0
    7.3786  -16.8401   25.8742 C   0  0  0  0  0  0  0  0  0  0  0  0
    6.8267  -15.5295   26.2681 C   0  0  0  0  0  0  0  0  0  0  0  0
    5.5148  -15.2867   26.5857 C   0  0  0  0  0  0  0  0  0  0  0  0
    5.4240  -13.9832   26.8844 N   0  0  0  0  0  0  0  0  0  0  0  0
    6.6245  -13.3869   26.7697 C   0  0  0  0  0  0  0  0  0  0  0  0
    7.0833  -12.0946   26.9543 C   0  0  0  0  0  0  0  0  0  0  0  0
    8.4022  -11.7720   26.7565 C   0  0  0  0  0  0  0  0  0  0  0  0
    9.3219  -12.7226   26.3662 C   0  0  0  0  0  0  0  0  0  0  0  0
    8.8638  -14.0067   26.1832 C   0  0  0  0  0  0  0  0  0  0  0  0
    7.5455  -14.3647   26.3731 C   0  0  0  0  0  0  0  0  0  0  0  0
    7.6903  -17.1626   23.4952 C   0  0  0  0  0  0  0  0  0  0  0  0
    8.4408  -18.1486   23.1788 O   0  0  0  0  0  0  0  0  0  0  0  0
    7.9607  -11.4865   19.6220 C   0  0  0  0  0  0  0  0  0  0  0  0
    7.2639  -13.0850   19.0804 S   0  0  0  0  0  0  0  0  0  0  0  0
    7.2437  -14.2714   20.4519 C   0  0  0  0  0  0  0  0  0  0  0  0
    8.5732  -14.4804   21.0647 C   0  0  0  0  0  0  0  0  0  0  0  0
    8.7752  -15.8029   21.7428 C   0  0  2  0  0  0  0  0  0  0  0  0
    7.7613  -15.9349   22.8143 N   0  0  0  0  0  0  0  0  0  0  0  0
   10.1151  -16.0309   22.3035 C   0  0  0  0  0  0  0  0  0  0  0  0
   10.5813  -15.2105   23.1857 O   0  0  0  0  0  0  0  0  0  0  0  0
   12.0895  -19.1163   23.9768 C   0  0  0  0  0  0  0  0  0  0  0  0
   12.8330  -18.5560   22.7668 C   0  0  1  0  0  0  0  0  0  0  0  0
   12.4600  -19.3844   21.7002 O   0  0  0  0  0  0  0  0  0  0  0  0
   12.3553  -17.1535   22.5156 C   0  0  2  0  0  0  0  0  0  0  0  0
   11.0130  -17.0738   22.0056 N   0  0  0  0  0  0  0  0  0  0  0  0
   13.2985  -16.4537   21.6033 C   0  0  0  0  0  0  0  0  0  0  0  0
   12.9405  -16.0054   20.4790 O   0  0  0  0  0  0  0  0  0  0  0  0
   14.6289  -16.2605   21.9523 O   0  0  0  0  0  0  0  0  0  0  0  0
  2  1  1  1
  2  3  1  0
  2 13  1  0
  3  4  1  0
  4 12  1  0
  4  5  2  0
  5  6  1  0
  7  6  1  0
  7  8  2  0
  9  8  1  0
 10  9  2  0
 11 12  2  0
 11 10  1  0
 12  7  1  0
 13 14  2  0
 16 15  1  0
 16 17  1  0
 18 17  1  0
 19 18  1  1
 19 21  1  0
 20 13  1  0
 20 19  1  0
 21 22  2  0
 24 23  1  1
 24 26  1  0
 25 24  1  0
 26 28  1  0
 26 27  1  6
 27 21  1  0
 28 29  2  0
 28 30  1  0
M  END
$$$$
