WMT.pdb
     RDKit          3D

 30 31  0  0  1  0  0  0  0  0999 V2000
   10.3849  -16.1131   21.2378 N   0  0  0  0  0  0  0  0  0  0  0  0
    9.7964  -15.6934   22.4813 C   0  0  1  0  0  0  0  0  0  0  0  0
    8.3189  -15.9852   22.5687 C   0  0  0  0  0  0  0  0  0  0  0  0
    7.5197  -14.7639   22.7861 C   0  0  0  0  0  0  0  0  0  0  0  0
    7.0548  -13.9362   21.7963 C   0  0  0  0  0  0  0  0  0  0  0  0
    6.3803  -12.9492   22.4026 N   0  0  0  0  0  0  0  0  0  0  0  0
    6.3973  -13.1152   23.7376 C   0  0  0  0  0  0  0  0  0  0  0  0
    5.8730  -12.4094   24.8060 C   0  0  0  0  0  0  0  0  0  0  0  0
    6.0579  -12.8320   26.0982 C   0  0  0  0  0  0  0  0  0  0  0  0
    6.7732  -13.9761   26.3829 C   0  0  0  0  0  0  0  0  0  0  0  0
    7.2937  -14.6763   25.3193 C   0  0  0  0  0  0  0  0  0  0  0  0
    7.1267  -14.2796   24.0089 C   0  0  0  0  0  0  0  0  0  0  0  0
   10.4570  -16.3350   23.6489 C   0  0  0  0  0  0  0  0  0  0  0  0
   11.4614  -17.0876   23.4032 O   0  0  0  0  0  0  0  0  0  0  0  0
   10.8510  -13.7423   29.7952 C   0  0  0  0  0  0  0  0  0  0  0  0
   10.0355  -13.1053   28.2908 S   0  0  0  0  0  0  0  0  0  0  0  0
   10.4182  -14.1554   26.8625 C   0  0  0  0  0  0  0  0  0  0  0  0
   10.6464  -15.5716   27.2216 C   0  0  0  0  0  0  0  0  0  0  0  0
   10.9026  -16.5001   26.0719 C   0  0  2  0  0  0  0  0  0  0  0  0
    9.9986  -16.1235   24.9608 N   0  0  0  0  0  0  0  0  0  0  0  0
   10.7494  -17.9324   26.3660 C   0  0  0  0  0  0  0  0  0  0  0  0
    9.6701  -18.3499   26.9402 O   0  0  0  0  0  0  0  0  0  0  0  0
   11.4961  -21.1566   24.1121 C   0  0  0  0  0  0  0  0  0  0  0  0
   12.0883  -21.3323   25.5082 C   0  0  1  0  0  0  0  0  0  0  0  0
   13.4454  -21.0142   25.3658 O   0  0  0  0  0  0  0  0  0  0  0  0
   11.4288  -20.3525   26.4374 C   0  0  2  0  0  0  0  0  0  0  0  0
   11.6563  -18.9746   26.0943 N   0  0  0  0  0  0  0  0  0  0  0  0
   11.8575  -20.6155   27.8369 C   0  0  0  0  0  0  0  0  0  0  0  0
   12.4363  -19.7412   28.5397 O   0  0  0  0  0  0  0  0  0  0  0  0
   11.6372  -21.8479   28.4386 O   0  0  0  0  0  0  0  0  0  0  0  0
  2  1  1  6
  2  3  1  0
  2 13  1  0
  3  4  1  0
  4 12  1  0
  4  5  2  0
  5  6  1  0
  7  6  1  0
  7  8  2  0
  9  8  1  0
 10  9  2  0
 11 12  2  0
 11 10  1  0
 12  7  1  0
 13 14  2  0
 16 15  1  0
 16 17  1  0
 18 17  1  0
 19 18  1  1
 19 21  1  0
 20 13  1  0
 20 19  1  0
 21 22  2  0
 24 23  1  6
 24 26  1  0
 25 24  1  0
 26 28  1  0
 26 27  1  6
 27 21  1  0
 28 29  2  0
 28 30  1  0
M  END
$$$$
