QTY.pdb
     RDKit          3D

 29 29  0  0  1  0  0  0  0  0999 V2000
   14.2518  -18.4564   18.0350 N   0  0  0  0  0  0  0  0  0  0  0  0
   13.3032  -18.6279   17.0021 C   0  0  0  0  0  0  0  0  0  0  0  0
   13.5892  -19.2674   15.9732 O   0  0  0  0  0  0  0  0  0  0  0  0
   11.9502  -18.0198   17.1828 C   0  0  0  0  0  0  0  0  0  0  0  0
   11.9249  -17.3444   18.5132 C   0  0  0  0  0  0  0  0  0  0  0  0
   10.6069  -17.5391   19.2258 C   0  0  2  0  0  0  0  0  0  0  0  0
    9.5652  -17.5731   18.1829 N   0  0  0  0  0  0  0  0  0  0  0  0
   10.3156  -16.4610   20.1968 C   0  0  0  0  0  0  0  0  0  0  0  0
   11.1972  -16.0211   20.9247 O   0  0  0  0  0  0  0  0  0  0  0  0
    7.1598  -13.6469   19.5076 C   0  0  0  0  0  0  0  0  0  0  0  0
    7.2897  -14.2445   20.8670 C   0  0  1  0  0  0  0  0  0  0  0  0
    6.3346  -15.2807   20.9509 O   0  0  0  0  0  0  0  0  0  0  0  0
    8.6092  -14.8629   21.1508 C   0  0  2  0  0  0  0  0  0  0  0  0
    9.0091  -15.9246   20.2947 N   0  0  0  0  0  0  0  0  0  0  0  0
    8.6755  -15.2997   22.5710 C   0  0  0  0  0  0  0  0  0  0  0  0
    9.2504  -16.3678   22.9222 O   0  0  0  0  0  0  0  0  0  0  0  0
   10.8893  -15.5313   30.8149 O   0  0  0  0  0  0  0  0  0  0  0  0
   10.5807  -15.3813   29.4606 C   0  0  0  0  0  0  0  0  0  0  0  0
    9.2808  -15.4190   29.0024 C   0  0  0  0  0  0  0  0  0  0  0  0
    9.0303  -15.2654   27.6539 C   0  0  0  0  0  0  0  0  0  0  0  0
   10.0417  -15.0723   26.7266 C   0  0  0  0  0  0  0  0  0  0  0  0
    9.7418  -14.9156   25.2844 C   0  0  0  0  0  0  0  0  0  0  0  0
    8.2607  -14.8469   24.9859 C   0  0  2  0  0  0  0  0  0  0  0  0
    8.0797  -14.5073   23.5881 N   0  0  0  0  0  0  0  0  0  0  0  0
    7.5454  -13.9118   25.8555 C   0  0  0  0  0  0  0  0  0  0  0  0
    7.4084  -12.6890   25.6084 O   0  0  0  0  0  0  0  0  0  0  0  0
   11.3340  -15.0404   27.2250 C   0  0  0  0  0  0  0  0  0  0  0  0
   11.6132  -15.1916   28.5719 C   0  0  0  0  0  0  0  0  0  0  0  0
    6.9582  -14.3605   27.0515 O   0  0  0  0  0  0  0  0  0  0  0  0
  1  2  1  0
  2  3  2  0
  4  2  1  0
  4  5  1  0
  5  6  1  0
  6  7  1  6
  8  6  1  0
  9  8  2  0
 11 10  1  6
 11 12  1  0
 11 13  1  0
 13 15  1  0
 13 14  1  6
 14  8  1  0
 15 16  2  0
 18 17  1  0
 18 28  2  0
 19 18  1  0
 20 19  2  0
 20 21  1  0
 21 27  2  0
 22 21  1  0
 23 22  1  1
 24 23  1  0
 24 15  1  0
 25 29  1  0
 25 23  1  0
 26 25  2  0
 27 28  1  0
M  END
$$$$
