QTY.pdb
     RDKit          3D

 29 29  0  0  1  0  0  0  0  0999 V2000
    0.4132  -19.1156   23.1082 N   0  0  0  0  0  0  0  0  0  0  0  0
    1.5652  -19.8312   22.7122 C   0  0  0  0  0  0  0  0  0  0  0  0
    1.9833  -20.7904   23.3863 O   0  0  0  0  0  0  0  0  0  0  0  0
    2.2638  -19.4020   21.4629 C   0  0  0  0  0  0  0  0  0  0  0  0
    3.6807  -19.0917   21.8133 C   0  0  0  0  0  0  0  0  0  0  0  0
    4.6141  -19.2929   20.6424 C   0  0  2  0  0  0  0  0  0  0  0  0
    4.4934  -20.7079   20.2458 N   0  0  0  0  0  0  0  0  0  0  0  0
    6.0222  -18.9782   20.9711 C   0  0  0  0  0  0  0  0  0  0  0  0
    6.6489  -19.6721   21.7625 O   0  0  0  0  0  0  0  0  0  0  0  0
    8.8299  -17.4899   18.4104 C   0  0  0  0  0  0  0  0  0  0  0  0
    8.7185  -16.6923   19.6648 C   0  0  1  0  0  0  0  0  0  0  0  0
    8.0432  -15.4982   19.3314 O   0  0  0  0  0  0  0  0  0  0  0  0
    7.9278  -17.3371   20.7433 C   0  0  2  0  0  0  0  0  0  0  0  0
    6.6623  -17.8668   20.3717 N   0  0  0  0  0  0  0  0  0  0  0  0
    7.7737  -16.4057   21.8925 C   0  0  0  0  0  0  0  0  0  0  0  0
    6.6534  -15.9316   22.2312 O   0  0  0  0  0  0  0  0  0  0  0  0
    6.3519  -11.0110   28.1030 O   0  0  0  0  0  0  0  0  0  0  0  0
    6.6036  -11.9046   27.0590 C   0  0  0  0  0  0  0  0  0  0  0  0
    7.3378  -11.5396   25.9506 C   0  0  0  0  0  0  0  0  0  0  0  0
    7.5577  -12.4610   24.9468 C   0  0  0  0  0  0  0  0  0  0  0  0
    7.0663  -13.7553   25.0044 C   0  0  0  0  0  0  0  0  0  0  0  0
    7.3146  -14.7208   23.9086 C   0  0  0  0  0  0  0  0  0  0  0  0
    8.7696  -15.1111   23.7743 C   0  0  2  0  0  0  0  0  0  0  0  0
    8.9095  -16.0193   22.6529 N   0  0  0  0  0  0  0  0  0  0  0  0
    9.3205  -15.6927   24.9993 C   0  0  0  0  0  0  0  0  0  0  0  0
   10.0463  -15.0657   25.8087 O   0  0  0  0  0  0  0  0  0  0  0  0
    6.3335  -14.0845   26.1333 C   0  0  0  0  0  0  0  0  0  0  0  0
    6.0982  -13.1803   27.1542 C   0  0  0  0  0  0  0  0  0  0  0  0
    9.0500  -17.0309   25.3350 O   0  0  0  0  0  0  0  0  0  0  0  0
  1  2  1  0
  2  3  2  0
  4  2  1  0
  4  5  1  0
  5  6  1  0
  6  7  1  1
  8  6  1  0
  9  8  2  0
 11 10  1  6
 11 12  1  0
 11 13  1  0
 13 15  1  0
 13 14  1  6
 14  8  1  0
 15 16  2  0
 18 17  1  0
 18 28  2  0
 19 18  1  0
 20 19  2  0
 20 21  1  0
 21 27  2  0
 22 21  1  0
 23 22  1  1
 24 23  1  0
 24 15  1  0
 25 29  1  0
 25 23  1  0
 26 25  2  0
 27 28  1  0
M  END
$$$$
