QTY.pdb
     RDKit          3D

 29 29  0  0  1  0  0  0  0  0999 V2000
   15.5145  -14.0703   18.6035 N   0  0  0  0  0  0  0  0  0  0  0  0
   15.0529  -15.2209   17.9259 C   0  0  0  0  0  0  0  0  0  0  0  0
   15.8233  -16.1661   17.6761 O   0  0  0  0  0  0  0  0  0  0  0  0
   13.6156  -15.2676   17.5198 C   0  0  0  0  0  0  0  0  0  0  0  0
   12.8164  -14.5906   18.5826 C   0  0  0  0  0  0  0  0  0  0  0  0
   11.4454  -15.2052   18.7429 C   0  0  2  0  0  0  0  0  0  0  0  0
   10.7406  -15.0020   17.4639 N   0  0  0  0  0  0  0  0  0  0  0  0
   10.6713  -14.5992   19.8488 C   0  0  0  0  0  0  0  0  0  0  0  0
   10.7355  -13.3960   20.0701 O   0  0  0  0  0  0  0  0  0  0  0  0
    7.0512  -14.1889   20.3937 C   0  0  0  0  0  0  0  0  0  0  0  0
    7.5601  -15.0173   21.5237 C   0  0  1  0  0  0  0  0  0  0  0  0
    7.2639  -16.3617   21.2108 O   0  0  0  0  0  0  0  0  0  0  0  0
    9.0280  -14.9467   21.7344 C   0  0  2  0  0  0  0  0  0  0  0  0
    9.8448  -15.4073   20.6662 N   0  0  0  0  0  0  0  0  0  0  0  0
    9.3986  -15.6413   22.9962 C   0  0  0  0  0  0  0  0  0  0  0  0
   10.0291  -16.7354   23.0041 O   0  0  0  0  0  0  0  0  0  0  0  0
    4.9837  -11.1558   26.4930 O   0  0  0  0  0  0  0  0  0  0  0  0
    6.0439  -12.0647   26.5360 C   0  0  0  0  0  0  0  0  0  0  0  0
    5.9113  -13.3099   27.1130 C   0  0  0  0  0  0  0  0  0  0  0  0
    6.9901  -14.1704   27.1291 C   0  0  0  0  0  0  0  0  0  0  0  0
    8.2185  -13.8338   26.5832 C   0  0  0  0  0  0  0  0  0  0  0  0
    9.3600  -14.7772   26.6202 C   0  0  0  0  0  0  0  0  0  0  0  0
    9.3475  -15.7753   25.4839 C   0  0  2  0  0  0  0  0  0  0  0  0
    9.0433  -15.0769   24.2503 N   0  0  0  0  0  0  0  0  0  0  0  0
    8.4190  -16.8844   25.7079 C   0  0  0  0  0  0  0  0  0  0  0  0
    8.5210  -17.7047   26.6521 O   0  0  0  0  0  0  0  0  0  0  0  0
    8.3128  -12.5746   26.0129 C   0  0  0  0  0  0  0  0  0  0  0  0
    7.2471  -11.6924   25.9831 C   0  0  0  0  0  0  0  0  0  0  0  0
    7.3306  -17.0863   24.8412 O   0  0  0  0  0  0  0  0  0  0  0  0
  1  2  1  0
  2  3  2  0
  4  2  1  0
  4  5  1  0
  5  6  1  0
  6  7  1  6
  8  6  1  0
  9  8  2  0
 11 10  1  6
 11 12  1  0
 11 13  1  0
 13 15  1  0
 13 14  1  6
 14  8  1  0
 15 16  2  0
 18 17  1  0
 18 28  2  0
 19 18  1  0
 20 19  2  0
 20 21  1  0
 21 27  2  0
 22 21  1  0
 23 22  1  1
 24 23  1  0
 24 15  1  0
 25 29  1  0
 25 23  1  0
 26 25  2  0
 27 28  1  0
M  END
$$$$
