QTY.pdb
     RDKit          3D

 29 29  0  0  1  0  0  0  0  0999 V2000
    9.6103  -13.0889   18.6144 N   0  0  0  0  0  0  0  0  0  0  0  0
    8.7819  -13.3737   17.5060 C   0  0  0  0  0  0  0  0  0  0  0  0
    8.7439  -12.6086   16.5248 O   0  0  0  0  0  0  0  0  0  0  0  0
    7.9554  -14.6179   17.5480 C   0  0  0  0  0  0  0  0  0  0  0  0
    8.1153  -15.2293   18.8997 C   0  0  0  0  0  0  0  0  0  0  0  0
    8.8255  -16.5617   18.8419 C   0  0  2  0  0  0  0  0  0  0  0  0
    8.0212  -17.4298   17.9624 N   0  0  0  0  0  0  0  0  0  0  0  0
    8.9748  -17.1899   20.1733 C   0  0  0  0  0  0  0  0  0  0  0  0
    8.0033  -17.6545   20.7572 O   0  0  0  0  0  0  0  0  0  0  0  0
   11.9755  -19.5399   21.5977 C   0  0  0  0  0  0  0  0  0  0  0  0
   11.7572  -18.3237   22.4316 C   0  0  1  0  0  0  0  0  0  0  0  0
   12.8115  -17.4319   22.1378 O   0  0  0  0  0  0  0  0  0  0  0  0
   10.4959  -17.5937   22.1481 C   0  0  2  0  0  0  0  0  0  0  0  0
   10.2478  -17.2608   20.7887 N   0  0  0  0  0  0  0  0  0  0  0  0
   10.4072  -16.3753   22.9964 C   0  0  0  0  0  0  0  0  0  0  0  0
   10.4761  -15.2105   22.5135 O   0  0  0  0  0  0  0  0  0  0  0  0
    5.7144  -11.0185   27.6880 O   0  0  0  0  0  0  0  0  0  0  0  0
    6.3638  -11.9854   26.9165 C   0  0  0  0  0  0  0  0  0  0  0  0
    6.7210  -11.7504   25.6058 C   0  0  0  0  0  0  0  0  0  0  0  0
    7.3611  -12.7399   24.8874 C   0  0  0  0  0  0  0  0  0  0  0  0
    7.6650  -13.9769   25.4329 C   0  0  0  0  0  0  0  0  0  0  0  0
    8.3485  -15.0213   24.6349 C   0  0  0  0  0  0  0  0  0  0  0  0
    9.7107  -15.3920   25.1774 C   0  0  2  0  0  0  0  0  0  0  0  0
   10.2392  -16.4968   24.4015 N   0  0  0  0  0  0  0  0  0  0  0  0
    9.6896  -15.7099   26.6060 C   0  0  0  0  0  0  0  0  0  0  0  0
    9.8010  -14.8538   27.5168 O   0  0  0  0  0  0  0  0  0  0  0  0
    7.2903  -14.1754   26.7518 C   0  0  0  0  0  0  0  0  0  0  0  0
    6.6477  -13.2007   27.4948 C   0  0  0  0  0  0  0  0  0  0  0  0
    9.5376  -17.0398   27.0361 O   0  0  0  0  0  0  0  0  0  0  0  0
  1  2  1  0
  2  3  2  0
  4  2  1  0
  4  5  1  0
  5  6  1  0
  6  7  1  6
  8  6  1  0
  9  8  2  0
 11 10  1  6
 11 12  1  0
 11 13  1  0
 13 15  1  0
 13 14  1  6
 14  8  1  0
 15 16  2  0
 18 17  1  0
 18 28  2  0
 19 18  1  0
 20 19  2  0
 20 21  1  0
 21 27  2  0
 22 21  1  0
 23 22  1  6
 24 23  1  0
 24 15  1  0
 25 29  1  0
 25 23  1  0
 26 25  2  0
 27 28  1  0
M  END
$$$$
