QTY.pdb
     RDKit          3D

 29 29  0  0  1  0  0  0  0  0999 V2000
    7.5594  -19.4586   16.0913 N   0  0  0  0  0  0  0  0  0  0  0  0
    7.3417  -19.1237   14.7361 C   0  0  0  0  0  0  0  0  0  0  0  0
    6.5138  -19.7501   14.0494 O   0  0  0  0  0  0  0  0  0  0  0  0
    8.1339  -17.9979   14.1548 C   0  0  0  0  0  0  0  0  0  0  0  0
    8.9482  -17.3961   15.2508 C   0  0  0  0  0  0  0  0  0  0  0  0
    8.7393  -15.9038   15.3621 C   0  0  2  0  0  0  0  0  0  0  0  0
    9.3753  -15.2999   14.1769 N   0  0  0  0  0  0  0  0  0  0  0  0
    9.3245  -15.3336   16.5959 C   0  0  0  0  0  0  0  0  0  0  0  0
   10.4984  -14.9850   16.6270 O   0  0  0  0  0  0  0  0  0  0  0  0
    7.4399  -12.7714   19.1871 C   0  0  0  0  0  0  0  0  0  0  0  0
    8.0160  -13.9752   19.8511 C   0  0  1  0  0  0  0  0  0  0  0  0
    6.9408  -14.8520   20.1122 O   0  0  0  0  0  0  0  0  0  0  0  0
    8.9889  -14.7346   19.0259 C   0  0  2  0  0  0  0  0  0  0  0  0
    8.5300  -15.1844   17.7581 N   0  0  0  0  0  0  0  0  0  0  0  0
    9.5395  -15.8764   19.8038 C   0  0  0  0  0  0  0  0  0  0  0  0
    9.2447  -17.0760   19.5418 O   0  0  0  0  0  0  0  0  0  0  0  0
   14.7559  -21.2235   24.2557 O   0  0  0  0  0  0  0  0  0  0  0  0
   14.1983  -20.1473   23.5610 C   0  0  0  0  0  0  0  0  0  0  0  0
   14.7104  -18.8713   23.6644 C   0  0  0  0  0  0  0  0  0  0  0  0
   14.1221  -17.8429   22.9566 C   0  0  0  0  0  0  0  0  0  0  0  0
   13.0238  -18.0386   22.1347 C   0  0  0  0  0  0  0  0  0  0  0  0
   12.4106  -16.9135   21.3912 C   0  0  0  0  0  0  0  0  0  0  0  0
   10.9357  -16.7410   21.6779 C   0  0  2  0  0  0  0  0  0  0  0  0
   10.4301  -15.6380   20.8843 N   0  0  0  0  0  0  0  0  0  0  0  0
   10.6491  -16.5459   23.0999 C   0  0  0  0  0  0  0  0  0  0  0  0
   10.7262  -17.4546   23.9621 O   0  0  0  0  0  0  0  0  0  0  0  0
   12.5379  -19.3337   22.0568 C   0  0  0  0  0  0  0  0  0  0  0  0
   13.1086  -20.3830   22.7556 C   0  0  0  0  0  0  0  0  0  0  0  0
   10.2599  -15.2831   23.5799 O   0  0  0  0  0  0  0  0  0  0  0  0
  1  2  1  0
  2  3  2  0
  4  2  1  0
  4  5  1  0
  5  6  1  0
  6  7  1  6
  8  6  1  0
  9  8  2  0
 11 10  1  6
 11 12  1  0
 11 13  1  0
 13 15  1  0
 13 14  1  6
 14  8  1  0
 15 16  2  0
 18 17  1  0
 18 28  2  0
 19 18  1  0
 20 19  2  0
 20 21  1  0
 21 27  2  0
 22 21  1  0
 23 22  1  1
 24 23  1  0
 24 15  1  0
 25 29  1  0
 25 23  1  0
 26 25  2  0
 27 28  1  0
M  END
$$$$
