QTY.pdb
     RDKit          3D

 29 29  0  0  1  0  0  0  0  0999 V2000
   10.2778  -16.4813   15.7373 N   0  0  0  0  0  0  0  0  0  0  0  0
    9.8463  -17.8266   15.7488 C   0  0  0  0  0  0  0  0  0  0  0  0
    9.4087  -18.3649   14.7153 O   0  0  0  0  0  0  0  0  0  0  0  0
    9.9312  -18.5805   17.0361 C   0  0  0  0  0  0  0  0  0  0  0  0
   10.4571  -17.6510   18.0783 C   0  0  0  0  0  0  0  0  0  0  0  0
    9.7142  -17.7838   19.3872 C   0  0  2  0  0  0  0  0  0  0  0  0
    8.3155  -18.1032   19.0471 N   0  0  0  0  0  0  0  0  0  0  0  0
    9.7672  -16.5510   20.2040 C   0  0  0  0  0  0  0  0  0  0  0  0
   10.8425  -16.0487   20.5075 O   0  0  0  0  0  0  0  0  0  0  0  0
    7.4805  -13.3151   19.6117 C   0  0  0  0  0  0  0  0  0  0  0  0
    7.4161  -13.7850   21.0249 C   0  0  1  0  0  0  0  0  0  0  0  0
    6.1902  -14.4692   21.1727 O   0  0  0  0  0  0  0  0  0  0  0  0
    8.4830  -14.7426   21.4108 C   0  0  2  0  0  0  0  0  0  0  0  0
    8.5704  -15.9368   20.6451 N   0  0  0  0  0  0  0  0  0  0  0  0
    8.3782  -15.0705   22.8577 C   0  0  0  0  0  0  0  0  0  0  0  0
    8.2865  -16.2588   23.2753 O   0  0  0  0  0  0  0  0  0  0  0  0
   10.6185  -16.1459   31.0206 O   0  0  0  0  0  0  0  0  0  0  0  0
   10.3771  -15.8802   29.6704 C   0  0  0  0  0  0  0  0  0  0  0  0
    9.1206  -15.5518   29.2073 C   0  0  0  0  0  0  0  0  0  0  0  0
    8.9359  -15.2985   27.8632 C   0  0  0  0  0  0  0  0  0  0  0  0
    9.9721  -15.3606   26.9453 C   0  0  0  0  0  0  0  0  0  0  0  0
    9.7418  -15.0884   25.5074 C   0  0  0  0  0  0  0  0  0  0  0  0
    8.4542  -14.3416   25.2393 C   0  0  2  0  0  0  0  0  0  0  0  0
    8.3787  -14.0307   23.8253 N   0  0  0  0  0  0  0  0  0  0  0  0
    8.3130  -13.1350   26.0556 C   0  0  0  0  0  0  0  0  0  0  0  0
    7.5023  -13.0226   27.0070 O   0  0  0  0  0  0  0  0  0  0  0  0
   11.2192  -15.6937   27.4484 C   0  0  0  0  0  0  0  0  0  0  0  0
   11.4322  -15.9524   28.7911 C   0  0  0  0  0  0  0  0  0  0  0  0
    9.1105  -12.0059   25.7992 O   0  0  0  0  0  0  0  0  0  0  0  0
  1  2  1  0
  2  3  2  0
  4  2  1  0
  4  5  1  0
  5  6  1  0
  6  7  1  6
  8  6  1  0
  9  8  2  0
 11 10  1  6
 11 12  1  0
 11 13  1  0
 13 15  1  0
 13 14  1  6
 14  8  1  0
 15 16  2  0
 18 17  1  0
 18 28  2  0
 19 18  1  0
 20 19  2  0
 20 21  1  0
 21 27  2  0
 22 21  1  0
 23 22  1  6
 24 23  1  0
 24 15  1  0
 25 29  1  0
 25 23  1  0
 26 25  2  0
 27 28  1  0
M  END
$$$$
