FLT.pdb
     RDKit          3D

 27 27  0  0  1  0  0  0  0  0999 V2000
   23.5125  -34.6935  -11.8182 N   0  0  0  0  0  0  0  0  0  0  0  0
   22.7565  -34.2932  -12.9651 C   0  0  1  0  0  0  0  0  0  0  0  0
   21.3176  -34.7462  -12.8125 C   0  0  0  0  0  0  0  0  0  0  0  0
   21.2972  -36.2150  -12.9509 C   0  0  0  0  0  0  0  0  0  0  0  0
   21.1227  -37.0216  -11.8476 C   0  0  0  0  0  0  0  0  0  0  0  0
   21.1049  -38.3907  -11.9855 C   0  0  0  0  0  0  0  0  0  0  0  0
   21.2617  -38.9673  -13.2313 C   0  0  0  0  0  0  0  0  0  0  0  0
   21.4370  -38.1745  -14.3442 C   0  0  0  0  0  0  0  0  0  0  0  0
   21.4531  -36.7855  -14.1895 C   0  0  0  0  0  0  0  0  0  0  0  0
   22.8451  -32.8293  -13.2199 C   0  0  0  0  0  0  0  0  0  0  0  0
   23.1208  -32.0942  -12.2162 O   0  0  0  0  0  0  0  0  0  0  0  0
   25.2826  -30.3677  -16.0915 C   0  0  0  0  0  0  0  0  0  0  0  0
   24.1891  -31.2097  -16.7654 C   0  0  2  0  0  0  0  0  0  0  0  0
   24.3528  -31.0503  -18.2469 C   0  0  0  0  0  0  0  0  0  0  0  0
   22.8896  -30.7122  -16.2449 C   0  0  0  0  0  0  0  0  0  0  0  0
   22.6915  -30.8770  -14.7631 C   0  0  2  0  0  0  0  0  0  0  0  0
   22.6338  -32.2931  -14.5065 N   0  0  0  0  0  0  0  0  0  0  0  0
   21.4379  -30.2494  -14.2711 C   0  0  0  0  0  0  0  0  0  0  0  0
   20.3372  -30.7975  -14.5281 O   0  0  0  0  0  0  0  0  0  0  0  0
   21.1887  -27.2388  -11.0811 C   0  0  0  0  0  0  0  0  0  0  0  0
   20.2043  -28.2787  -11.5161 C   0  0  1  0  0  0  0  0  0  0  0  0
   18.9226  -27.8082  -11.1747 O   0  0  0  0  0  0  0  0  0  0  0  0
   20.1953  -28.5264  -12.9909 C   0  0  2  0  0  0  0  0  0  0  0  0
   21.4006  -29.0577  -13.5211 N   0  0  0  0  0  0  0  0  0  0  0  0
   19.8307  -27.2384  -13.6581 C   0  0  0  0  0  0  0  0  0  0  0  0
   18.6766  -26.7510  -13.5513 O   0  0  0  0  0  0  0  0  0  0  0  0
   20.7600  -26.5474  -14.4139 O   0  0  0  0  0  0  0  0  0  0  0  0
  2  1  1  1
  2  3  1  0
  3  4  1  0
  4  9  2  0
  5  4  1  0
  5  6  2  0
  6  7  1  0
  7  8  2  0
  9  8  1  0
 10 17  1  0
 10  2  1  0
 11 10  2  0
 13 12  1  1
 13 15  1  0
 14 13  1  0
 16 15  1  6
 16 17  1  0
 18 16  1  0
 19 18  2  0
 21 20  1  6
 21 23  1  0
 21 22  1  0
 23 25  1  0
 23 24  1  6
 24 18  1  0
 25 27  1  0
 26 25  2  0
M  END
$$$$
