FLT.pdb
     RDKit          3D

 27 27  0  0  1  0  0  0  0  0999 V2000
   25.7944  -21.3168  -12.7390 N   0  0  0  0  0  0  0  0  0  0  0  0
   25.3317  -20.4224  -11.7226 C   0  0  1  0  0  0  0  0  0  0  0  0
   23.8271  -20.2661  -11.8254 C   0  0  0  0  0  0  0  0  0  0  0  0
   23.5318  -19.6625  -13.1388 C   0  0  0  0  0  0  0  0  0  0  0  0
   22.6273  -20.2521  -13.9949 C   0  0  0  0  0  0  0  0  0  0  0  0
   22.3576  -19.6825  -15.2182 C   0  0  0  0  0  0  0  0  0  0  0  0
   22.9915  -18.5149  -15.5978 C   0  0  0  0  0  0  0  0  0  0  0  0
   23.8983  -17.9132  -14.7533 C   0  0  0  0  0  0  0  0  0  0  0  0
   24.1627  -18.5026  -13.5138 C   0  0  0  0  0  0  0  0  0  0  0  0
   25.7453  -20.8516  -10.3586 C   0  0  0  0  0  0  0  0  0  0  0  0
   25.6491  -22.0960  -10.1016 O   0  0  0  0  0  0  0  0  0  0  0  0
   28.5685  -18.1246   -5.6819 C   0  0  0  0  0  0  0  0  0  0  0  0
   27.9291  -19.4480   -6.1274 C   0  0  2  0  0  0  0  0  0  0  0  0
   28.9569  -20.5238   -5.9446 C   0  0  0  0  0  0  0  0  0  0  0  0
   27.4985  -19.2579   -7.5365 C   0  0  0  0  0  0  0  0  0  0  0  0
   26.5713  -20.3162   -8.0678 C   0  0  2  0  0  0  0  0  0  0  0  0
   26.2172  -19.9239   -9.4077 N   0  0  0  0  0  0  0  0  0  0  0  0
   25.3288  -20.4564   -7.2653 C   0  0  0  0  0  0  0  0  0  0  0  0
   24.3953  -19.6327   -7.4336 O   0  0  0  0  0  0  0  0  0  0  0  0
   22.5760  -22.9444   -7.2005 C   0  0  0  0  0  0  0  0  0  0  0  0
   23.1412  -22.8441   -5.8185 C   0  0  1  0  0  0  0  0  0  0  0  0
   24.0375  -23.9170   -5.6558 O   0  0  0  0  0  0  0  0  0  0  0  0
   23.9177  -21.5905   -5.5699 C   0  0  2  0  0  0  0  0  0  0  0  0
   25.1237  -21.4707   -6.3098 N   0  0  0  0  0  0  0  0  0  0  0  0
   24.1738  -21.5077   -4.0987 C   0  0  0  0  0  0  0  0  0  0  0  0
   25.3441  -21.4799   -3.6397 O   0  0  0  0  0  0  0  0  0  0  0  0
   23.1229  -21.4593   -3.2011 O   0  0  0  0  0  0  0  0  0  0  0  0
  2  1  1  6
  2  3  1  0
  3  4  1  0
  4  9  2  0
  5  4  1  0
  5  6  2  0
  6  7  1  0
  7  8  2  0
  9  8  1  0
 10 17  1  0
 10  2  1  0
 11 10  2  0
 13 12  1  6
 13 15  1  0
 14 13  1  0
 16 15  1  1
 16 17  1  0
 18 16  1  0
 19 18  2  0
 21 20  1  6
 21 23  1  0
 21 22  1  0
 23 25  1  0
 23 24  1  6
 24 18  1  0
 25 27  1  0
 26 25  2  0
M  END
$$$$
