FLT.pdb
     RDKit          3D

 27 27  0  0  1  0  0  0  0  0999 V2000
   25.3753  -15.2984  -18.3666 N   0  0  0  0  0  0  0  0  0  0  0  0
   25.1426  -16.4505  -17.5507 C   0  0  1  0  0  0  0  0  0  0  0  0
   26.1777  -16.5111  -16.4445 C   0  0  0  0  0  0  0  0  0  0  0  0
   27.4690  -16.8667  -17.0632 C   0  0  0  0  0  0  0  0  0  0  0  0
   27.7804  -18.1819  -17.3311 C   0  0  0  0  0  0  0  0  0  0  0  0
   28.9870  -18.5050  -17.9084 C   0  0  0  0  0  0  0  0  0  0  0  0
   29.8959  -17.5132  -18.2240 C   0  0  0  0  0  0  0  0  0  0  0  0
   29.5994  -16.1936  -17.9625 C   0  0  0  0  0  0  0  0  0  0  0  0
   28.3701  -15.8798  -17.3759 C   0  0  0  0  0  0  0  0  0  0  0  0
   23.7575  -16.4896  -17.0067 C   0  0  0  0  0  0  0  0  0  0  0  0
   23.3935  -15.4876  -16.3086 O   0  0  0  0  0  0  0  0  0  0  0  0
   20.0471  -14.9894  -17.1168 C   0  0  0  0  0  0  0  0  0  0  0  0
   20.7564  -15.6374  -18.3149 C   0  0  2  0  0  0  0  0  0  0  0  0
   20.0237  -15.2109  -19.5511 C   0  0  0  0  0  0  0  0  0  0  0  0
   20.7364  -17.1038  -18.0772 C   0  0  0  0  0  0  0  0  0  0  0  0
   21.5119  -17.5649  -16.8739 C   0  0  2  0  0  0  0  0  0  0  0  0
   22.9007  -17.5811  -17.2556 N   0  0  0  0  0  0  0  0  0  0  0  0
   21.1242  -18.9251  -16.4190 C   0  0  0  0  0  0  0  0  0  0  0  0
   21.3105  -19.9031  -17.1851 O   0  0  0  0  0  0  0  0  0  0  0  0
   22.3951  -20.6509  -13.2678 C   0  0  0  0  0  0  0  0  0  0  0  0
   20.9095  -20.8156  -13.3428 C   0  0  1  0  0  0  0  0  0  0  0  0
   20.3420  -19.8924  -12.4449 O   0  0  0  0  0  0  0  0  0  0  0  0
   20.3334  -20.5183  -14.6904 C   0  0  2  0  0  0  0  0  0  0  0  0
   20.5505  -19.1966  -15.1615 N   0  0  0  0  0  0  0  0  0  0  0  0
   18.8740  -20.8407  -14.6335 C   0  0  0  0  0  0  0  0  0  0  0  0
   18.0016  -19.9411  -14.7366 O   0  0  0  0  0  0  0  0  0  0  0  0
   18.4454  -22.1446  -14.4648 O   0  0  0  0  0  0  0  0  0  0  0  0
  2  1  1  1
  2  3  1  0
  3  4  1  0
  4  9  2  0
  5  4  1  0
  5  6  2  0
  6  7  1  0
  7  8  2  0
  9  8  1  0
 10 17  1  0
 10  2  1  0
 11 10  2  0
 13 12  1  1
 13 15  1  0
 14 13  1  0
 16 15  1  6
 16 17  1  0
 18 16  1  0
 19 18  2  0
 21 20  1  6
 21 23  1  0
 21 22  1  0
 23 25  1  0
 23 24  1  1
 24 18  1  0
 25 27  1  0
 26 25  2  0
M  END
$$$$
