FLT.pdb
     RDKit          3D

 27 27  0  0  1  0  0  0  0  0999 V2000
   26.0553  -22.4468  -17.5451 N   0  0  0  0  0  0  0  0  0  0  0  0
   25.1420  -21.5831  -16.8618 C   0  0  1  0  0  0  0  0  0  0  0  0
   23.7898  -21.6245  -17.5465 C   0  0  0  0  0  0  0  0  0  0  0  0
   23.9048  -20.8608  -18.8036 C   0  0  0  0  0  0  0  0  0  0  0  0
   23.8855  -21.5058  -20.0210 C   0  0  0  0  0  0  0  0  0  0  0  0
   23.9933  -20.7859  -21.1888 C   0  0  0  0  0  0  0  0  0  0  0  0
   24.1216  -19.4108  -21.1501 C   0  0  0  0  0  0  0  0  0  0  0  0
   24.1426  -18.7511  -19.9409 C   0  0  0  0  0  0  0  0  0  0  0  0
   24.0322  -19.4948  -18.7626 C   0  0  0  0  0  0  0  0  0  0  0  0
   25.0317  -21.9066  -15.4130 C   0  0  0  0  0  0  0  0  0  0  0  0
   24.8741  -23.1358  -15.1163 O   0  0  0  0  0  0  0  0  0  0  0  0
   27.9519  -21.6205  -12.5240 C   0  0  0  0  0  0  0  0  0  0  0  0
   27.3497  -20.2457  -12.8492 C   0  0  2  0  0  0  0  0  0  0  0  0
   28.2321  -19.2115  -12.2176 C   0  0  0  0  0  0  0  0  0  0  0  0
   25.9603  -20.2561  -12.3232 C   0  0  0  0  0  0  0  0  0  0  0  0
   25.0216  -21.2011  -13.0216 C   0  0  2  0  0  0  0  0  0  0  0  0
   25.0992  -20.9002  -14.4280 N   0  0  0  0  0  0  0  0  0  0  0  0
   23.6115  -21.0536  -12.5772 C   0  0  0  0  0  0  0  0  0  0  0  0
   23.3417  -21.1519  -11.3543 O   0  0  0  0  0  0  0  0  0  0  0  0
   21.0694  -18.1578  -12.9288 C   0  0  0  0  0  0  0  0  0  0  0  0
   20.4960  -19.4295  -13.4708 C   0  0  1  0  0  0  0  0  0  0  0  0
   20.6416  -19.3893  -14.8700 O   0  0  0  0  0  0  0  0  0  0  0  0
   21.1988  -20.6620  -12.9980 C   0  0  2  0  0  0  0  0  0  0  0  0
   22.5362  -20.8062  -13.4527 N   0  0  0  0  0  0  0  0  0  0  0  0
   20.3610  -21.8349  -13.3971 C   0  0  0  0  0  0  0  0  0  0  0  0
   20.8268  -22.7567  -14.1143 O   0  0  0  0  0  0  0  0  0  0  0  0
   19.0450  -21.9352  -12.9844 O   0  0  0  0  0  0  0  0  0  0  0  0
  2  1  1  6
  2  3  1  0
  3  4  1  0
  4  9  2  0
  5  4  1  0
  5  6  2  0
  6  7  1  0
  7  8  2  0
  9  8  1  0
 10 17  1  0
 10  2  1  0
 11 10  2  0
 13 12  1  1
 13 15  1  0
 14 13  1  0
 16 15  1  1
 16 17  1  0
 18 16  1  0
 19 18  2  0
 21 20  1  1
 21 23  1  0
 21 22  1  0
 23 25  1  0
 23 24  1  6
 24 18  1  0
 25 27  1  0
 26 25  2  0
M  END
$$$$
