FLT.pdb
     RDKit          3D

 27 27  0  0  1  0  0  0  0  0999 V2000
   26.6530  -24.8382  -16.4499 N   0  0  0  0  0  0  0  0  0  0  0  0
   25.7920  -23.9536  -17.1731 C   0  0  1  0  0  0  0  0  0  0  0  0
   24.6836  -24.7477  -17.8362 C   0  0  0  0  0  0  0  0  0  0  0  0
   25.2903  -25.5286  -18.9311 C   0  0  0  0  0  0  0  0  0  0  0  0
   25.4941  -26.8846  -18.7969 C   0  0  0  0  0  0  0  0  0  0  0  0
   26.0606  -27.6055  -19.8231 C   0  0  0  0  0  0  0  0  0  0  0  0
   26.4295  -26.9754  -20.9961 C   0  0  0  0  0  0  0  0  0  0  0  0
   26.2324  -25.6203  -21.1458 C   0  0  0  0  0  0  0  0  0  0  0  0
   25.6560  -24.9004  -20.0954 C   0  0  0  0  0  0  0  0  0  0  0  0
   25.2477  -22.8653  -16.3156 C   0  0  0  0  0  0  0  0  0  0  0  0
   25.0187  -23.1630  -15.0979 O   0  0  0  0  0  0  0  0  0  0  0  0
   25.5625  -16.8594  -16.3890 C   0  0  0  0  0  0  0  0  0  0  0  0
   24.7686  -18.0122  -15.7570 C   0  0  2  0  0  0  0  0  0  0  0  0
   25.0421  -17.9869  -14.2833 C   0  0  0  0  0  0  0  0  0  0  0  0
   25.2173  -19.2568  -16.4328 C   0  0  0  0  0  0  0  0  0  0  0  0
   24.4976  -20.5074  -16.0084 C   0  0  2  0  0  0  0  0  0  0  0  0
   25.0016  -21.5766  -16.8315 N   0  0  0  0  0  0  0  0  0  0  0  0
   23.0252  -20.4192  -16.1862 C   0  0  0  0  0  0  0  0  0  0  0  0
   22.5597  -20.1803  -17.3283 O   0  0  0  0  0  0  0  0  0  0  0  0
   20.5164  -23.0766  -15.7659 C   0  0  0  0  0  0  0  0  0  0  0  0
   20.0146  -21.8916  -15.0020 C   0  0  1  0  0  0  0  0  0  0  0  0
   20.2804  -22.1302  -13.6407 O   0  0  0  0  0  0  0  0  0  0  0  0
   20.6953  -20.6082  -15.3569 C   0  0  2  0  0  0  0  0  0  0  0  0
   22.0983  -20.5888  -15.1392 N   0  0  0  0  0  0  0  0  0  0  0  0
   20.0135  -19.5156  -14.5966 C   0  0  0  0  0  0  0  0  0  0  0  0
   20.6245  -18.8466  -13.7247 O   0  0  0  0  0  0  0  0  0  0  0  0
   18.6856  -19.2121  -14.8353 O   0  0  0  0  0  0  0  0  0  0  0  0
  2  1  1  1
  2  3  1  0
  3  4  1  0
  4  9  2  0
  5  4  1  0
  5  6  2  0
  6  7  1  0
  7  8  2  0
  9  8  1  0
 10 17  1  0
 10  2  1  0
 11 10  2  0
 13 12  1  6
 13 15  1  0
 14 13  1  0
 16 15  1  6
 16 17  1  0
 18 16  1  0
 19 18  2  0
 21 20  1  6
 21 23  1  0
 21 22  1  0
 23 25  1  0
 23 24  1  1
 24 18  1  0
 25 27  1  0
 26 25  2  0
M  END
$$$$
