FLT.pdb
     RDKit          3D

 27 27  0  0  1  0  0  0  0  0999 V2000
   27.9727  -20.8771  -15.3075 N   0  0  0  0  0  0  0  0  0  0  0  0
   27.3595  -20.0038  -14.3544 C   0  0  1  0  0  0  0  0  0  0  0  0
   26.3760  -19.0891  -15.0579 C   0  0  0  0  0  0  0  0  0  0  0  0
   27.1561  -18.1554  -15.8922 C   0  0  0  0  0  0  0  0  0  0  0  0
   27.7962  -17.0747  -15.3255 C   0  0  0  0  0  0  0  0  0  0  0  0
   28.5218  -16.2086  -16.1110 C   0  0  0  0  0  0  0  0  0  0  0  0
   28.6145  -16.4156  -17.4739 C   0  0  0  0  0  0  0  0  0  0  0  0
   27.9804  -17.4913  -18.0557 C   0  0  0  0  0  0  0  0  0  0  0  0
   27.2467  -18.3630  -17.2459 C   0  0  0  0  0  0  0  0  0  0  0  0
   26.7133  -20.7469  -13.2381 C   0  0  0  0  0  0  0  0  0  0  0  0
   26.0246  -21.7694  -13.5605 O   0  0  0  0  0  0  0  0  0  0  0  0
   24.6298  -21.3396   -8.6825 C   0  0  0  0  0  0  0  0  0  0  0  0
   26.0957  -21.0605   -8.3196 C   0  0  2  0  0  0  0  0  0  0  0  0
   26.0952  -20.1065   -7.1633 C   0  0  0  0  0  0  0  0  0  0  0  0
   26.7412  -20.5231   -9.5450 C   0  0  0  0  0  0  0  0  0  0  0  0
   26.0606  -20.8875  -10.8358 C   0  0  2  0  0  0  0  0  0  0  0  0
   26.8608  -20.3344  -11.8981 N   0  0  0  0  0  0  0  0  0  0  0  0
   24.6825  -20.3421  -10.9402 C   0  0  0  0  0  0  0  0  0  0  0  0
   24.4615  -19.1623  -10.5697 O   0  0  0  0  0  0  0  0  0  0  0  0
   22.9070  -19.8472  -14.1417 C   0  0  0  0  0  0  0  0  0  0  0  0
   21.9677  -20.5563  -13.2173 C   0  0  1  0  0  0  0  0  0  0  0  0
   21.9984  -21.9214  -13.5584 O   0  0  0  0  0  0  0  0  0  0  0  0
   22.3500  -20.4624  -11.7746 C   0  0  2  0  0  0  0  0  0  0  0  0
   23.5861  -21.0738  -11.4366 N   0  0  0  0  0  0  0  0  0  0  0  0
   21.2241  -21.0379  -10.9757 C   0  0  0  0  0  0  0  0  0  0  0  0
   21.4011  -22.0196  -10.2102 O   0  0  0  0  0  0  0  0  0  0  0  0
   19.9525  -20.5010  -11.0597 O   0  0  0  0  0  0  0  0  0  0  0  0
  2  1  1  6
  2  3  1  0
  3  4  1  0
  4  9  2  0
  5  4  1  0
  5  6  2  0
  6  7  1  0
  7  8  2  0
  9  8  1  0
 10 17  1  0
 10  2  1  0
 11 10  2  0
 13 12  1  6
 13 15  1  0
 14 13  1  0
 16 15  1  1
 16 17  1  0
 18 16  1  0
 19 18  2  0
 21 20  1  6
 21 23  1  0
 21 22  1  0
 23 25  1  0
 23 24  1  6
 24 18  1  0
 25 27  1  0
 26 25  2  0
M  END
$$$$
