FLT.pdb
     RDKit          3D

 27 27  0  0  1  0  0  0  0  0999 V2000
   28.6027  -21.2487  -14.7771 N   0  0  0  0  0  0  0  0  0  0  0  0
   27.3543  -20.5936  -14.5333 C   0  0  1  0  0  0  0  0  0  0  0  0
   26.4514  -20.7479  -15.7415 C   0  0  0  0  0  0  0  0  0  0  0  0
   25.3390  -19.7906  -15.5901 C   0  0  0  0  0  0  0  0  0  0  0  0
   25.5733  -18.4330  -15.6130 C   0  0  0  0  0  0  0  0  0  0  0  0
   24.5301  -17.5469  -15.4711 C   0  0  0  0  0  0  0  0  0  0  0  0
   23.2395  -18.0114  -15.3045 C   0  0  0  0  0  0  0  0  0  0  0  0
   22.9888  -19.3657  -15.2794 C   0  0  0  0  0  0  0  0  0  0  0  0
   24.0579  -20.2543  -15.4247 C   0  0  0  0  0  0  0  0  0  0  0  0
   26.6930  -21.0779  -13.2906 C   0  0  0  0  0  0  0  0  0  0  0  0
   26.1181  -22.2131  -13.3592 O   0  0  0  0  0  0  0  0  0  0  0  0
   26.5053  -19.1250   -7.4994 C   0  0  0  0  0  0  0  0  0  0  0  0
   25.9698  -20.2058   -8.4501 C   0  0  2  0  0  0  0  0  0  0  0  0
   26.3067  -21.5365   -7.8477 C   0  0  0  0  0  0  0  0  0  0  0  0
   26.6061  -19.9625   -9.7703 C   0  0  0  0  0  0  0  0  0  0  0  0
   26.0162  -20.7395  -10.9149 C   0  0  2  0  0  0  0  0  0  0  0  0
   26.7069  -20.3148  -12.1054 N   0  0  0  0  0  0  0  0  0  0  0  0
   24.5612  -20.4972  -11.0930 C   0  0  0  0  0  0  0  0  0  0  0  0
   24.1540  -19.3229  -11.2755 O   0  0  0  0  0  0  0  0  0  0  0  0
   22.1556  -21.3768  -13.7673 C   0  0  0  0  0  0  0  0  0  0  0  0
   21.6026  -21.8903  -12.4749 C   0  0  1  0  0  0  0  0  0  0  0  0
   21.9036  -23.2635  -12.4091 O   0  0  0  0  0  0  0  0  0  0  0  0
   22.2061  -21.2567  -11.2622 C   0  0  2  0  0  0  0  0  0  0  0  0
   23.5889  -21.5161  -11.0705 N   0  0  0  0  0  0  0  0  0  0  0  0
   21.4027  -21.6984  -10.0806 C   0  0  0  0  0  0  0  0  0  0  0  0
   21.9450  -22.2595   -9.0946 O   0  0  0  0  0  0  0  0  0  0  0  0
   20.0348  -21.4993  -10.0430 O   0  0  0  0  0  0  0  0  0  0  0  0
  2  1  1  6
  2  3  1  0
  3  4  1  0
  4  9  2  0
  5  4  1  0
  5  6  2  0
  6  7  1  0
  7  8  2  0
  9  8  1  0
 10 17  1  0
 10  2  1  0
 11 10  2  0
 13 12  1  1
 13 15  1  0
 14 13  1  0
 16 15  1  1
 16 17  1  0
 18 16  1  0
 19 18  2  0
 21 20  1  6
 21 23  1  0
 21 22  1  0
 23 25  1  0
 23 24  1  1
 24 18  1  0
 25 27  1  0
 26 25  2  0
M  END
$$$$
