FLT.pdb
     RDKit          3D

 27 27  0  0  1  0  0  0  0  0999 V2000
   28.2010  -20.6551  -15.7119 N   0  0  0  0  0  0  0  0  0  0  0  0
   27.1996  -19.8173  -15.1267 C   0  0  1  0  0  0  0  0  0  0  0  0
   26.5158  -19.0054  -16.2092 C   0  0  0  0  0  0  0  0  0  0  0  0
   27.3293  -17.7961  -16.4384 C   0  0  0  0  0  0  0  0  0  0  0  0
   28.1758  -17.7147  -17.5226 C   0  0  0  0  0  0  0  0  0  0  0  0
   28.9311  -16.5831  -17.7290 C   0  0  0  0  0  0  0  0  0  0  0  0
   28.8468  -15.5196  -16.8510 C   0  0  0  0  0  0  0  0  0  0  0  0
   28.0053  -15.5855  -15.7623 C   0  0  0  0  0  0  0  0  0  0  0  0
   27.2439  -16.7409  -15.5648 C   0  0  0  0  0  0  0  0  0  0  0  0
   26.2165  -20.5891  -14.3181 C   0  0  0  0  0  0  0  0  0  0  0  0
   25.9710  -21.7777  -14.7062 O   0  0  0  0  0  0  0  0  0  0  0  0
   26.3648  -22.1997  -10.3831 C   0  0  0  0  0  0  0  0  0  0  0  0
   26.2579  -20.6678  -10.3960 C   0  0  2  0  0  0  0  0  0  0  0  0
   26.4752  -20.1937   -8.9906 C   0  0  0  0  0  0  0  0  0  0  0  0
   24.9157  -20.3408  -10.9425 C   0  0  0  0  0  0  0  0  0  0  0  0
   24.6818  -20.7786  -12.3622 C   0  0  2  0  0  0  0  0  0  0  0  0
   25.5946  -20.0269  -13.1846 N   0  0  0  0  0  0  0  0  0  0  0  0
   23.2946  -20.5221  -12.8283 C   0  0  0  0  0  0  0  0  0  0  0  0
   22.8230  -19.3613  -12.7372 O   0  0  0  0  0  0  0  0  0  0  0  0
   21.7497  -21.3085  -16.3229 C   0  0  0  0  0  0  0  0  0  0  0  0
   20.8621  -21.8104  -15.2274 C   0  0  1  0  0  0  0  0  0  0  0  0
   21.0745  -23.1976  -15.1215 O   0  0  0  0  0  0  0  0  0  0  0  0
   21.1632  -21.2231  -13.8854 C   0  0  2  0  0  0  0  0  0  0  0  0
   22.4566  -21.5129  -13.3762 N   0  0  0  0  0  0  0  0  0  0  0  0
   20.0948  -21.6844  -12.9459 C   0  0  0  0  0  0  0  0  0  0  0  0
   20.3677  -22.3914  -11.9425 O   0  0  0  0  0  0  0  0  0  0  0  0
   18.7720  -21.3425  -13.1590 O   0  0  0  0  0  0  0  0  0  0  0  0
  2  1  1  6
  2  3  1  0
  3  4  1  0
  4  9  2  0
  5  4  1  0
  5  6  2  0
  6  7  1  0
  7  8  2  0
  9  8  1  0
 10 17  1  0
 10  2  1  0
 11 10  2  0
 13 12  1  1
 13 15  1  0
 14 13  1  0
 16 15  1  1
 16 17  1  0
 18 16  1  0
 19 18  2  0
 21 20  1  6
 21 23  1  0
 21 22  1  0
 23 25  1  0
 23 24  1  1
 24 18  1  0
 25 27  1  0
 26 25  2  0
M  END
$$$$
