DMP.pdb
     RDKit          3D

 24 24  0  0  1  0  0  0  0  0999 V2000
   20.0185  -12.6894  -16.4106 N   0  0  0  0  0  0  0  0  0  0  0  0
   19.7560  -11.4449  -17.1669 C   0  0  1  0  0  0  0  0  0  0  0  0
   18.3035  -11.4921  -17.5505 C   0  0  0  0  0  0  0  0  0  0  0  0
   17.9604  -12.4309  -18.6109 C   0  0  0  0  0  0  0  0  0  0  0  0
   18.8133  -13.1972  -19.1041 O   0  0  0  0  0  0  0  0  0  0  0  0
   19.9913  -10.3487  -16.2056 C   0  0  0  0  0  0  0  0  0  0  0  0
   19.4599  -10.3398  -15.0763 O   0  0  0  0  0  0  0  0  0  0  0  0
   16.6697  -12.4963  -19.1012 O   0  0  0  0  0  0  0  0  0  0  0  0
   25.9368  -10.2879  -13.9348 C   0  0  0  0  0  0  0  0  0  0  0  0
   25.0681   -8.9629  -14.8320 S   0  0  0  0  0  0  0  0  0  0  0  0
   23.2579   -9.2514  -14.7813 C   0  0  0  0  0  0  0  0  0  0  0  0
   22.6119   -8.1604  -15.5128 C   0  0  0  0  0  0  0  0  0  0  0  0
   21.0963   -8.1560  -15.5681 C   0  0  2  0  0  0  0  0  0  0  0  0
   20.8353   -9.2657  -16.5397 N   0  0  0  0  0  0  0  0  0  0  0  0
   20.5072   -6.9409  -16.1194 C   0  0  0  0  0  0  0  0  0  0  0  0
   20.8644   -6.6223  -17.3147 O   0  0  0  0  0  0  0  0  0  0  0  0
   19.5807   -6.0634  -15.5015 N   0  0  0  0  0  0  0  0  0  0  0  0
   19.0595   -6.3620  -14.1492 C   0  0  0  0  0  0  0  0  0  0  0  0
   18.4458   -5.0931  -13.6517 C   0  0  0  0  0  0  0  0  0  0  0  0
   17.9218   -4.5005  -14.9321 C   0  0  0  0  0  0  0  0  0  0  0  0
   19.0246   -4.8160  -15.9269 C   0  0  1  0  0  0  0  0  0  0  0  0
   20.0176   -3.6921  -15.7520 C   0  0  0  0  0  0  0  0  0  0  0  0
   21.0784   -3.8805  -15.1067 O   0  0  0  0  0  0  0  0  0  0  0  0
   19.8099   -2.4292  -16.2828 O   0  0  0  0  0  0  0  0  0  0  0  0
  2  1  1  1
  2  3  1  0
  3  4  1  0
  4  8  1  0
  5  4  2  0
  6  2  1  0
  7  6  2  0
  9 10  1  0
 10 11  1  0
 11 12  1  0
 13 12  1  6
 13 15  1  0
 13 14  1  0
 14  6  1  0
 15 17  1  0
 16 15  2  0
 17 18  1  0
 17 21  1  0
 19 18  1  0
 20 19  1  0
 20 21  1  0
 21 22  1  1
 22 23  2  0
 22 24  1  0
M  END
$$$$
