DMP.pdb
     RDKit          3D

 24 24  0  0  1  0  0  0  0  0999 V2000
   28.5983  -21.3978  -17.2878 N   0  0  0  0  0  0  0  0  0  0  0  0
   27.7673  -20.3123  -16.7217 C   0  0  1  0  0  0  0  0  0  0  0  0
   26.9243  -19.8014  -17.8565 C   0  0  0  0  0  0  0  0  0  0  0  0
   27.0688  -18.3839  -18.1622 C   0  0  0  0  0  0  0  0  0  0  0  0
   28.0868  -17.7450  -17.8255 O   0  0  0  0  0  0  0  0  0  0  0  0
   26.9128  -20.9646  -15.7090 C   0  0  0  0  0  0  0  0  0  0  0  0
   26.2402  -21.9821  -15.9737 O   0  0  0  0  0  0  0  0  0  0  0  0
   26.0724  -17.7059  -18.8389 O   0  0  0  0  0  0  0  0  0  0  0  0
   25.1209  -21.2510   -8.1689 C   0  0  0  0  0  0  0  0  0  0  0  0
   26.1983  -21.1884   -9.6356 S   0  0  0  0  0  0  0  0  0  0  0  0
   25.3457  -20.3165  -11.0050 C   0  0  0  0  0  0  0  0  0  0  0  0
   26.2666  -20.2636  -12.1417 C   0  0  0  0  0  0  0  0  0  0  0  0
   25.8773  -21.0255  -13.3939 C   0  0  2  0  0  0  0  0  0  0  0  0
   26.8312  -20.4503  -14.3953 N   0  0  0  0  0  0  0  0  0  0  0  0
   24.5250  -20.7641  -13.8741 C   0  0  0  0  0  0  0  0  0  0  0  0
   24.2557  -19.5462  -14.1930 O   0  0  0  0  0  0  0  0  0  0  0  0
   23.4645  -21.6904  -14.0391 N   0  0  0  0  0  0  0  0  0  0  0  0
   23.6718  -23.1231  -13.7321 C   0  0  0  0  0  0  0  0  0  0  0  0
   22.3083  -23.7274  -13.6322 C   0  0  0  0  0  0  0  0  0  0  0  0
   21.5528  -22.9129  -14.6475 C   0  0  0  0  0  0  0  0  0  0  0  0
   22.1009  -21.5132  -14.4337 C   0  0  1  0  0  0  0  0  0  0  0  0
   21.2755  -20.9587  -13.2976 C   0  0  0  0  0  0  0  0  0  0  0  0
   21.7275  -20.9655  -12.1259 O   0  0  0  0  0  0  0  0  0  0  0  0
   20.0098  -20.4286  -13.4897 O   0  0  0  0  0  0  0  0  0  0  0  0
  2  1  1  6
  2  3  1  0
  3  4  1  0
  4  8  1  0
  5  4  2  0
  6  2  1  0
  7  6  2  0
  9 10  1  0
 10 11  1  0
 11 12  1  0
 13 12  1  1
 13 15  1  0
 13 14  1  0
 14  6  1  0
 15 17  1  0
 16 15  2  0
 17 18  1  0
 17 21  1  0
 19 18  1  0
 20 19  1  0
 20 21  1  0
 21 22  1  1
 22 23  2  0
 22 24  1  0
M  END
$$$$
