DMP.pdb
     RDKit          3D

 24 24  0  0  1  0  0  0  0  0999 V2000
   20.8298  -17.6389  -15.5395 N   0  0  0  0  0  0  0  0  0  0  0  0
   21.2894  -19.0411  -15.6499 C   0  0  1  0  0  0  0  0  0  0  0  0
   21.3924  -19.3284  -17.1217 C   0  0  0  0  0  0  0  0  0  0  0  0
   20.1256  -19.4466  -17.8323 C   0  0  0  0  0  0  0  0  0  0  0  0
   19.1835  -20.1267  -17.3764 O   0  0  0  0  0  0  0  0  0  0  0  0
   22.6318  -19.0599  -15.0344 C   0  0  0  0  0  0  0  0  0  0  0  0
   23.4351  -18.1161  -15.1811 O   0  0  0  0  0  0  0  0  0  0  0  0
   19.9346  -18.8023  -19.0401 O   0  0  0  0  0  0  0  0  0  0  0  0
   24.7441  -20.3835   -9.4909 C   0  0  0  0  0  0  0  0  0  0  0  0
   25.9863  -20.5041  -10.8168 S   0  0  0  0  0  0  0  0  0  0  0  0
   25.5095  -21.8145  -12.0075 C   0  0  0  0  0  0  0  0  0  0  0  0
   24.2985  -21.3695  -12.6990 C   0  0  0  0  0  0  0  0  0  0  0  0
   24.4370  -20.2288  -13.6889 C   0  0  2  0  0  0  0  0  0  0  0  0
   23.0506  -20.1594  -14.2518 N   0  0  0  0  0  0  0  0  0  0  0  0
   25.3493  -20.4871  -14.7972 C   0  0  0  0  0  0  0  0  0  0  0  0
   24.9810  -21.3828  -15.6456 O   0  0  0  0  0  0  0  0  0  0  0  0
   26.5970  -19.8679  -15.0614 N   0  0  0  0  0  0  0  0  0  0  0  0
   27.1362  -18.8511  -14.1313 C   0  0  0  0  0  0  0  0  0  0  0  0
   28.5831  -18.7006  -14.4747 C   0  0  0  0  0  0  0  0  0  0  0  0
   28.5565  -18.9350  -15.9611 C   0  0  0  0  0  0  0  0  0  0  0  0
   27.5530  -20.0651  -16.1072 C   0  0  1  0  0  0  0  0  0  0  0  0
   28.3637  -21.3168  -15.8716 C   0  0  0  0  0  0  0  0  0  0  0  0
   28.3217  -21.8970  -14.7586 O   0  0  0  0  0  0  0  0  0  0  0  0
   29.1735  -21.8714  -16.8496 O   0  0  0  0  0  0  0  0  0  0  0  0
  2  1  1  6
  2  3  1  0
  3  4  1  0
  4  8  1  0
  5  4  2  0
  6  2  1  0
  7  6  2  0
  9 10  1  0
 10 11  1  0
 11 12  1  0
 13 12  1  1
 13 15  1  0
 13 14  1  0
 14  6  1  0
 15 17  1  0
 16 15  2  0
 17 18  1  0
 17 21  1  0
 19 18  1  0
 20 19  1  0
 20 21  1  0
 21 22  1  1
 22 23  2  0
 22 24  1  0
M  END
$$$$
