DMP.pdb
     RDKit          3D

 24 24  0  0  1  0  0  0  0  0999 V2000
   17.2894  -12.6839  -15.7186 N   0  0  0  0  0  0  0  0  0  0  0  0
   17.0082  -11.2841  -16.1071 C   0  0  1  0  0  0  0  0  0  0  0  0
   15.9502  -10.7956  -15.1577 C   0  0  0  0  0  0  0  0  0  0  0  0
   14.6144  -11.3397  -15.3664 C   0  0  0  0  0  0  0  0  0  0  0  0
   14.1423  -12.2153  -14.6126 O   0  0  0  0  0  0  0  0  0  0  0  0
   18.2719  -10.5552  -15.8766 C   0  0  0  0  0  0  0  0  0  0  0  0
   18.9589  -10.7394  -14.8511 O   0  0  0  0  0  0  0  0  0  0  0  0
   13.8304  -10.8952  -16.4144 O   0  0  0  0  0  0  0  0  0  0  0  0
   21.4665   -7.0360  -20.8553 C   0  0  0  0  0  0  0  0  0  0  0  0
   22.2814   -8.4682  -20.0804 S   0  0  0  0  0  0  0  0  0  0  0  0
   21.9711   -8.4663  -18.2732 C   0  0  0  0  0  0  0  0  0  0  0  0
   20.6344   -9.0196  -18.0498 C   0  0  0  0  0  0  0  0  0  0  0  0
   20.0689   -8.9379  -16.6449 C   0  0  2  0  0  0  0  0  0  0  0  0
   18.7459   -9.6176  -16.8216 N   0  0  0  0  0  0  0  0  0  0  0  0
   19.8079   -7.5846  -16.1675 C   0  0  0  0  0  0  0  0  0  0  0  0
   18.8176   -6.9666  -16.7107 O   0  0  0  0  0  0  0  0  0  0  0  0
   20.5100   -6.8615  -15.1704 N   0  0  0  0  0  0  0  0  0  0  0  0
   21.6013   -7.5093  -14.4095 C   0  0  0  0  0  0  0  0  0  0  0  0
   22.3620   -6.4032  -13.7521 C   0  0  0  0  0  0  0  0  0  0  0  0
   21.2613   -5.4134  -13.4800 C   0  0  0  0  0  0  0  0  0  0  0  0
   20.4083   -5.5033  -14.7329 C   0  0  1  0  0  0  0  0  0  0  0  0
   21.0797   -4.5676  -15.7093 C   0  0  0  0  0  0  0  0  0  0  0  0
   21.8504   -5.0208  -16.5911 O   0  0  0  0  0  0  0  0  0  0  0  0
   20.8815   -3.1966  -15.6790 O   0  0  0  0  0  0  0  0  0  0  0  0
  2  1  1  1
  2  3  1  0
  3  4  1  0
  4  8  1  0
  5  4  2  0
  6  2  1  0
  7  6  2  0
  9 10  1  0
 10 11  1  0
 11 12  1  0
 13 12  1  6
 13 15  1  0
 13 14  1  0
 14  6  1  0
 15 17  1  0
 16 15  2  0
 17 18  1  0
 17 21  1  0
 19 18  1  0
 20 19  1  0
 20 21  1  0
 21 22  1  6
 22 23  2  0
 22 24  1  0
M  END
$$$$
