DMP.pdb
     RDKit          3D

 24 24  0  0  1  0  0  0  0  0999 V2000
   20.4652  -19.7798  -13.7618 N   0  0  0  0  0  0  0  0  0  0  0  0
   21.2762  -20.9674  -13.4134 C   0  0  1  0  0  0  0  0  0  0  0  0
   21.1319  -21.9202  -14.5670 C   0  0  0  0  0  0  0  0  0  0  0  0
   19.8935  -22.6877  -14.6010 C   0  0  0  0  0  0  0  0  0  0  0  0
   19.4000  -23.1750  -13.5633 O   0  0  0  0  0  0  0  0  0  0  0  0
   22.6672  -20.4778  -13.3311 C   0  0  0  0  0  0  0  0  0  0  0  0
   23.0850  -19.5594  -14.0657 O   0  0  0  0  0  0  0  0  0  0  0  0
   19.2291  -22.8970  -15.7949 O   0  0  0  0  0  0  0  0  0  0  0  0
   26.9889  -20.0804   -7.7985 C   0  0  0  0  0  0  0  0  0  0  0  0
   25.7323  -21.2915   -8.3183 S   0  0  0  0  0  0  0  0  0  0  0  0
   24.7810  -20.6381   -9.7432 C   0  0  0  0  0  0  0  0  0  0  0  0
   25.4051  -21.1457  -10.9663 C   0  0  0  0  0  0  0  0  0  0  0  0
   24.9760  -20.5233  -12.2811 C   0  0  2  0  0  0  0  0  0  0  0  0
   23.5761  -21.0410  -12.4073 N   0  0  0  0  0  0  0  0  0  0  0  0
   25.7215  -20.9822  -13.4479 C   0  0  0  0  0  0  0  0  0  0  0  0
   25.5374  -22.2068  -13.8000 O   0  0  0  0  0  0  0  0  0  0  0  0
   26.6257  -20.2421  -14.2507 N   0  0  0  0  0  0  0  0  0  0  0  0
   27.0888  -18.9063  -13.8138 C   0  0  0  0  0  0  0  0  0  0  0  0
   28.2865  -18.5886  -14.6497 C   0  0  0  0  0  0  0  0  0  0  0  0
   27.9258  -19.2639  -15.9454 C   0  0  0  0  0  0  0  0  0  0  0  0
   27.2787  -20.5576  -15.4838 C   0  0  1  0  0  0  0  0  0  0  0  0
   28.4400  -21.4957  -15.2576 C   0  0  0  0  0  0  0  0  0  0  0  0
   28.8518  -21.7226  -14.0931 O   0  0  0  0  0  0  0  0  0  0  0  0
   29.0909  -22.1355  -16.3002 O   0  0  0  0  0  0  0  0  0  0  0  0
  2  1  1  6
  2  3  1  0
  3  4  1  0
  4  8  1  0
  5  4  2  0
  6  2  1  0
  7  6  2  0
  9 10  1  0
 10 11  1  0
 11 12  1  0
 13 12  1  1
 13 15  1  0
 13 14  1  0
 14  6  1  0
 15 17  1  0
 16 15  2  0
 17 18  1  0
 17 21  1  0
 19 18  1  0
 20 19  1  0
 20 21  1  0
 21 22  1  1
 22 23  2  0
 22 24  1  0
M  END
$$$$
