DMP.pdb
     RDKit          3D

 24 24  0  0  1  0  0  0  0  0999 V2000
   20.2334  -18.8206  -15.0113 N   0  0  0  0  0  0  0  0  0  0  0  0
   20.9398  -20.1197  -14.9576 C   0  0  1  0  0  0  0  0  0  0  0  0
   21.0274  -20.6024  -16.3783 C   0  0  0  0  0  0  0  0  0  0  0  0
   19.8183  -21.2158  -16.9127 C   0  0  0  0  0  0  0  0  0  0  0  0
   18.7524  -21.2289  -16.2634 O   0  0  0  0  0  0  0  0  0  0  0  0
   22.2889  -19.8077  -14.4439 C   0  0  0  0  0  0  0  0  0  0  0  0
   22.9040  -18.7799  -14.7945 O   0  0  0  0  0  0  0  0  0  0  0  0
   19.8225  -21.8038  -18.1636 O   0  0  0  0  0  0  0  0  0  0  0  0
   25.7891  -19.2329   -9.4053 C   0  0  0  0  0  0  0  0  0  0  0  0
   25.6004  -21.0375   -9.5583 S   0  0  0  0  0  0  0  0  0  0  0  0
   25.7853  -21.5425  -11.3113 C   0  0  0  0  0  0  0  0  0  0  0  0
   24.4746  -21.4196  -11.9514 C   0  0  0  0  0  0  0  0  0  0  0  0
   24.3474  -20.4419  -13.1038 C   0  0  2  0  0  0  0  0  0  0  0  0
   22.9300  -20.6734  -13.5293 N   0  0  0  0  0  0  0  0  0  0  0  0
   25.2032  -20.7306  -14.2491 C   0  0  0  0  0  0  0  0  0  0  0  0
   24.9184  -21.7888  -14.9248 O   0  0  0  0  0  0  0  0  0  0  0  0
   26.3140  -19.9842  -14.7171 N   0  0  0  0  0  0  0  0  0  0  0  0
   26.8480  -18.8607  -13.9156 C   0  0  0  0  0  0  0  0  0  0  0  0
   28.2017  -18.5598  -14.4734 C   0  0  0  0  0  0  0  0  0  0  0  0
   27.9948  -18.8780  -15.9298 C   0  0  0  0  0  0  0  0  0  0  0  0
   27.1296  -20.1250  -15.8839 C   0  0  1  0  0  0  0  0  0  0  0  0
   28.1153  -21.2573  -15.7227 C   0  0  0  0  0  0  0  0  0  0  0  0
   28.7595  -21.6805  -16.7142 O   0  0  0  0  0  0  0  0  0  0  0  0
   28.3501  -21.8685  -14.5016 O   0  0  0  0  0  0  0  0  0  0  0  0
  2  1  1  6
  2  3  1  0
  3  4  1  0
  4  8  1  0
  5  4  2  0
  6  2  1  0
  7  6  2  0
  9 10  1  0
 10 11  1  0
 11 12  1  0
 13 12  1  1
 13 15  1  0
 13 14  1  0
 14  6  1  0
 15 17  1  0
 16 15  2  0
 17 18  1  0
 17 21  1  0
 19 18  1  0
 20 19  1  0
 20 21  1  0
 21 22  1  1
 22 23  2  0
 22 24  1  0
M  END
$$$$
