PMH.pdb
     RDKit          3D

 26 27  0  0  1  0  0  0  0  0999 V2000
   23.5234  -12.4116  -15.8585 N   0  0  0  0  0  0  0  0  0  0  0  0
   24.2993  -13.6173  -16.1495 C   0  0  0  0  0  0  0  0  0  0  0  0
   24.1961  -13.7364  -17.6365 C   0  0  0  0  0  0  0  0  0  0  0  0
   23.8741  -12.3617  -18.1795 C   0  0  0  0  0  0  0  0  0  0  0  0
   23.8900  -11.5117  -16.9299 C   0  0  1  0  0  0  0  0  0  0  0  0
   22.8664  -10.4195  -17.0091 C   0  0  0  0  0  0  0  0  0  0  0  0
   23.1009   -9.4687  -17.7741 O   0  0  0  0  0  0  0  0  0  0  0  0
   18.3049  -13.5596  -15.9491 C   0  0  0  0  0  0  0  0  0  0  0  0
   17.5029  -12.2071  -16.8423 S   0  0  0  0  0  0  0  0  0  0  0  0
   18.7670  -11.0032  -17.4091 C   0  0  0  0  0  0  0  0  0  0  0  0
   19.2098  -10.2524  -16.1963 C   0  0  0  0  0  0  0  0  0  0  0  0
   20.5577   -9.5603  -16.3608 C   0  0  2  0  0  0  0  0  0  0  0  0
   21.6771  -10.4588  -16.2479 N   0  0  0  0  0  0  0  0  0  0  0  0
   20.6213   -8.4946  -15.3475 C   0  0  0  0  0  0  0  0  0  0  0  0
   21.1051   -8.7381  -14.2021 O   0  0  0  0  0  0  0  0  0  0  0  0
   20.1520   -7.1883  -15.6172 N   0  0  0  0  0  0  0  0  0  0  0  0
   20.3730   -6.1050  -14.6583 C   0  0  1  0  0  0  0  0  0  0  0  0
   21.8270   -5.9574  -14.3361 C   0  0  0  0  0  0  0  0  0  0  0  0
   22.5766   -5.5344  -15.5349 C   0  0  0  0  0  0  0  0  0  0  0  0
   22.1518   -5.3152  -16.8331 C   0  0  0  0  0  0  0  0  0  0  0  0
   23.1672   -4.9630  -17.6069 N   0  0  0  0  0  0  0  0  0  0  0  0
   24.2667   -4.9450  -16.8376 C   0  0  0  0  0  0  0  0  0  0  0  0
   23.9235   -5.2880  -15.5852 N   0  0  0  0  0  0  0  0  0  0  0  0
   19.7658   -4.8519  -15.1315 C   0  0  0  0  0  0  0  0  0  0  0  0
   19.2050   -4.7036  -16.2415 O   0  0  0  0  0  0  0  0  0  0  0  0
   19.8119   -3.7260  -14.2814 O   0  0  0  0  0  0  0  0  0  0  0  0
  1  2  1  0
  3  2  1  0
  4  5  1  0
  4  3  1  0
  5  1  1  0
  5  6  1  6
  6  7  2  0
  9  8  1  0
 10  9  1  0
 12 11  1  1
 11 10  1  0
 12 14  1  0
 13  6  1  0
 13 12  1  0
 14 15  2  0
 16 17  1  0
 16 14  1  0
 17 24  1  0
 17 18  1  6
 19 18  1  0
 20 19  2  0
 21 20  1  0
 22 21  1  0
 22 23  2  0
 23 19  1  0
 24 25  2  0
 24 26  1  0
M  END
$$$$
