PMH.pdb
     RDKit          3D

 26 27  0  0  1  0  0  0  0  0999 V2000
   27.7863  -19.3299  -14.4123 N   0  0  0  0  0  0  0  0  0  0  0  0
   29.0496  -19.1580  -15.1299 C   0  0  0  0  0  0  0  0  0  0  0  0
   29.6000  -20.5472  -15.1854 C   0  0  0  0  0  0  0  0  0  0  0  0
   28.4376  -21.5015  -15.0226 C   0  0  0  0  0  0  0  0  0  0  0  0
   27.2569  -20.5603  -14.9581 C   0  0  1  0  0  0  0  0  0  0  0  0
   26.2031  -21.0821  -14.0283 C   0  0  0  0  0  0  0  0  0  0  0  0
   25.4997  -22.0243  -14.4304 O   0  0  0  0  0  0  0  0  0  0  0  0
   28.3701  -20.1956   -7.5397 C   0  0  0  0  0  0  0  0  0  0  0  0
   26.7110  -19.9338   -8.2098 S   0  0  0  0  0  0  0  0  0  0  0  0
   26.5665  -20.7545   -9.8451 C   0  0  0  0  0  0  0  0  0  0  0  0
   25.2330  -20.3682  -10.3958 C   0  0  0  0  0  0  0  0  0  0  0  0
   24.9759  -20.8902  -11.8045 C   0  0  2  0  0  0  0  0  0  0  0  0
   26.0081  -20.5316  -12.7421 N   0  0  0  0  0  0  0  0  0  0  0  0
   23.6652  -20.3686  -12.2246 C   0  0  0  0  0  0  0  0  0  0  0  0
   23.5578  -19.1692  -12.6186 O   0  0  0  0  0  0  0  0  0  0  0  0
   22.5053  -21.1770  -12.2015 N   0  0  0  0  0  0  0  0  0  0  0  0
   21.2982  -20.7678  -12.9208 C   0  0  1  0  0  0  0  0  0  0  0  0
   21.5790  -20.5682  -14.3771 C   0  0  0  0  0  0  0  0  0  0  0  0
   20.3154  -20.4737  -15.1338 C   0  0  0  0  0  0  0  0  0  0  0  0
   19.0205  -20.7975  -14.7703 C   0  0  0  0  0  0  0  0  0  0  0  0
   18.1817  -20.5751  -15.7708 N   0  0  0  0  0  0  0  0  0  0  0  0
   18.9044  -20.1059  -16.7996 C   0  0  0  0  0  0  0  0  0  0  0  0
   20.1934  -20.0400  -16.4278 N   0  0  0  0  0  0  0  0  0  0  0  0
   20.1965  -21.7115  -12.6787 C   0  0  0  0  0  0  0  0  0  0  0  0
   20.3342  -22.9464  -12.5221 O   0  0  0  0  0  0  0  0  0  0  0  0
   18.8823  -21.2003  -12.6159 O   0  0  0  0  0  0  0  0  0  0  0  0
  1  2  1  0
  3  2  1  0
  4  5  1  0
  4  3  1  0
  5  1  1  0
  5  6  1  1
  6  7  2  0
  9  8  1  0
 10  9  1  0
 12 11  1  1
 11 10  1  0
 12 14  1  0
 13  6  1  0
 13 12  1  0
 14 15  2  0
 16 17  1  0
 16 14  1  0
 17 24  1  0
 17 18  1  6
 19 18  1  0
 20 19  2  0
 21 20  1  0
 22 21  1  0
 22 23  2  0
 23 19  1  0
 24 25  2  0
 24 26  1  0
M  END
$$$$
