PMH.pdb
     RDKit          3D

 26 27  0  0  1  0  0  0  0  0999 V2000
   27.0961  -18.3789  -15.7608 N   0  0  0  0  0  0  0  0  0  0  0  0
   28.1269  -17.5966  -16.4433 C   0  0  0  0  0  0  0  0  0  0  0  0
   29.3940  -18.2816  -16.0420 C   0  0  0  0  0  0  0  0  0  0  0  0
   29.0364  -19.6953  -15.6395 C   0  0  0  0  0  0  0  0  0  0  0  0
   27.5519  -19.7424  -15.9193 C   0  0  1  0  0  0  0  0  0  0  0  0
   26.8428  -20.6036  -14.9180 C   0  0  0  0  0  0  0  0  0  0  0  0
   26.9389  -21.8354  -15.0515 O   0  0  0  0  0  0  0  0  0  0  0  0
   27.0108  -20.7322   -8.5707 C   0  0  0  0  0  0  0  0  0  0  0  0
   25.2479  -20.4014   -8.8006 S   0  0  0  0  0  0  0  0  0  0  0  0
   24.7116  -21.0150  -10.4452 C   0  0  0  0  0  0  0  0  0  0  0  0
   25.5570  -20.3111  -11.4554 C   0  0  0  0  0  0  0  0  0  0  0  0
   25.3138  -20.7721  -12.8877 C   0  0  2  0  0  0  0  0  0  0  0  0
   26.0912  -20.0475  -13.8592 N   0  0  0  0  0  0  0  0  0  0  0  0
   23.8711  -20.6351  -13.1453 C   0  0  0  0  0  0  0  0  0  0  0  0
   23.3468  -19.4837  -13.2137 O   0  0  0  0  0  0  0  0  0  0  0  0
   23.0404  -21.7657  -13.3214 N   0  0  0  0  0  0  0  0  0  0  0  0
   21.6366  -21.6059  -13.7032 C   0  0  1  0  0  0  0  0  0  0  0  0
   21.1194  -22.8336  -14.3851 C   0  0  0  0  0  0  0  0  0  0  0  0
   19.7192  -22.6339  -14.8061 C   0  0  0  0  0  0  0  0  0  0  0  0
   18.8358  -21.6031  -14.5395 C   0  0  0  0  0  0  0  0  0  0  0  0
   17.6591  -21.8353  -15.1010 N   0  0  0  0  0  0  0  0  0  0  0  0
   17.7480  -23.0118  -15.7404 C   0  0  0  0  0  0  0  0  0  0  0  0
   18.9861  -23.5038  -15.5699 N   0  0  0  0  0  0  0  0  0  0  0  0
   20.8187  -21.2111  -12.5466 C   0  0  0  0  0  0  0  0  0  0  0  0
   19.8446  -20.4252  -12.5945 O   0  0  0  0  0  0  0  0  0  0  0  0
   21.1451  -21.7507  -11.2838 O   0  0  0  0  0  0  0  0  0  0  0  0
  1  2  1  0
  3  2  1  0
  4  5  1  0
  4  3  1  0
  5  1  1  0
  5  6  1  1
  6  7  2  0
  9  8  1  0
 10  9  1  0
 12 11  1  1
 11 10  1  0
 12 14  1  0
 13  6  1  0
 13 12  1  0
 14 15  2  0
 16 17  1  0
 16 14  1  0
 17 24  1  0
 17 18  1  1
 19 18  1  0
 20 19  2  0
 21 20  1  0
 22 21  1  0
 22 23  2  0
 23 19  1  0
 24 25  2  0
 24 26  1  0
M  END
$$$$
