PMH.pdb
     RDKit          3D

 26 27  0  0  1  0  0  0  0  0999 V2000
   27.7161  -18.3922  -14.9245 N   0  0  0  0  0  0  0  0  0  0  0  0
   28.7545  -17.8130  -15.7768 C   0  0  0  0  0  0  0  0  0  0  0  0
   29.6293  -18.9847  -16.0896 C   0  0  0  0  0  0  0  0  0  0  0  0
   28.7977  -20.2340  -15.8994 C   0  0  0  0  0  0  0  0  0  0  0  0
   27.4409  -19.6660  -15.5520 C   0  0  1  0  0  0  0  0  0  0  0  0
   26.7277  -20.5413  -14.5659 C   0  0  0  0  0  0  0  0  0  0  0  0
   26.3085  -21.6384  -14.9719 O   0  0  0  0  0  0  0  0  0  0  0  0
   26.2090  -19.1369   -7.9082 C   0  0  0  0  0  0  0  0  0  0  0  0
   26.4607  -20.9122   -8.1431 S   0  0  0  0  0  0  0  0  0  0  0  0
   25.7204  -21.4373   -9.7384 C   0  0  0  0  0  0  0  0  0  0  0  0
   26.3415  -20.5830  -10.7944 C   0  0  0  0  0  0  0  0  0  0  0  0
   25.8438  -20.8882  -12.2023 C   0  0  2  0  0  0  0  0  0  0  0  0
   26.5338  -20.1446  -13.2241 N   0  0  0  0  0  0  0  0  0  0  0  0
   24.3989  -20.6080  -12.2186 C   0  0  0  0  0  0  0  0  0  0  0  0
   23.9852  -19.4271  -12.4175 O   0  0  0  0  0  0  0  0  0  0  0  0
   23.4445  -21.6314  -12.0161 N   0  0  0  0  0  0  0  0  0  0  0  0
   22.0132  -21.3263  -12.0209 C   0  0  1  0  0  0  0  0  0  0  0  0
   21.2796  -22.1929  -12.9958 C   0  0  0  0  0  0  0  0  0  0  0  0
   21.5655  -21.7634  -14.3785 C   0  0  0  0  0  0  0  0  0  0  0  0
   21.1814  -20.6267  -15.0671 C   0  0  0  0  0  0  0  0  0  0  0  0
   21.6438  -20.6500  -16.3080 N   0  0  0  0  0  0  0  0  0  0  0  0
   22.3332  -21.7920  -16.4548 C   0  0  0  0  0  0  0  0  0  0  0  0
   22.2934  -22.4726  -15.2976 N   0  0  0  0  0  0  0  0  0  0  0  0
   21.4550  -21.4009  -10.6624 C   0  0  0  0  0  0  0  0  0  0  0  0
   22.0931  -21.7588   -9.6459 O   0  0  0  0  0  0  0  0  0  0  0  0
   20.1016  -21.0456  -10.4771 O   0  0  0  0  0  0  0  0  0  0  0  0
  1  2  1  0
  3  2  1  0
  4  5  1  0
  4  3  1  0
  5  1  1  0
  5  6  1  1
  6  7  2  0
  9  8  1  0
 10  9  1  0
 12 11  1  1
 11 10  1  0
 12 14  1  0
 13  6  1  0
 13 12  1  0
 14 15  2  0
 16 17  1  0
 16 14  1  0
 17 24  1  0
 17 18  1  6
 19 18  1  0
 20 19  2  0
 21 20  1  0
 22 21  1  0
 22 23  2  0
 23 19  1  0
 24 25  2  0
 24 26  1  0
M  END
$$$$
