PMH.pdb
     RDKit          3D

 26 27  0  0  1  0  0  0  0  0999 V2000
   31.0700  -20.8445   -9.7969 N   0  0  0  0  0  0  0  0  0  0  0  0
   32.4553  -21.2725   -9.9917 C   0  0  0  0  0  0  0  0  0  0  0  0
   32.4309  -22.7054   -9.5650 C   0  0  0  0  0  0  0  0  0  0  0  0
   31.0023  -23.1886   -9.6832 C   0  0  0  0  0  0  0  0  0  0  0  0
   30.3016  -21.9795  -10.2588 C   0  0  1  0  0  0  0  0  0  0  0  0
   28.9058  -21.8619   -9.7250 C   0  0  0  0  0  0  0  0  0  0  0  0
   28.0600  -22.6671  -10.1499 O   0  0  0  0  0  0  0  0  0  0  0  0
   28.7350  -18.1470   -4.6739 C   0  0  0  0  0  0  0  0  0  0  0  0
   28.2437  -19.8346   -4.2486 S   0  0  0  0  0  0  0  0  0  0  0  0
   28.1541  -20.8562   -5.7707 C   0  0  0  0  0  0  0  0  0  0  0  0
   27.3595  -20.0700   -6.7615 C   0  0  0  0  0  0  0  0  0  0  0  0
   27.2729  -20.7232   -8.1358 C   0  0  2  0  0  0  0  0  0  0  0  0
   28.5538  -20.8774   -8.7751 N   0  0  0  0  0  0  0  0  0  0  0  0
   26.3641  -19.8983   -8.9483 C   0  0  0  0  0  0  0  0  0  0  0  0
   26.8015  -18.8634   -9.5338 O   0  0  0  0  0  0  0  0  0  0  0  0
   24.9978  -20.2304   -9.0974 N   0  0  0  0  0  0  0  0  0  0  0  0
   24.3239  -20.0501  -10.3839 C   0  0  1  0  0  0  0  0  0  0  0  0
   24.9786  -20.8645  -11.4553 C   0  0  0  0  0  0  0  0  0  0  0  0
   24.3123  -20.6351  -12.7520 C   0  0  0  0  0  0  0  0  0  0  0  0
   23.2509  -19.8136  -13.0873 C   0  0  0  0  0  0  0  0  0  0  0  0
   22.9549  -19.9291  -14.3730 N   0  0  0  0  0  0  0  0  0  0  0  0
   23.8087  -20.8204  -14.8997 C   0  0  0  0  0  0  0  0  0  0  0  0
   24.6328  -21.2538  -13.9317 N   0  0  0  0  0  0  0  0  0  0  0  0
   22.8831  -20.3203  -10.2654 C   0  0  0  0  0  0  0  0  0  0  0  0
   22.0040  -19.8598  -11.0294 O   0  0  0  0  0  0  0  0  0  0  0  0
   22.4460  -21.1590   -9.2176 O   0  0  0  0  0  0  0  0  0  0  0  0
  1  2  1  0
  3  2  1  0
  4  5  1  0
  4  3  1  0
  5  1  1  0
  5  6  1  1
  6  7  2  0
  9  8  1  0
 10  9  1  0
 12 11  1  1
 11 10  1  0
 12 14  1  0
 13  6  1  0
 13 12  1  0
 14 15  2  0
 16 17  1  0
 16 14  1  0
 17 24  1  0
 17 18  1  6
 19 18  1  0
 20 19  2  0
 21 20  1  0
 22 21  1  0
 22 23  2  0
 23 19  1  0
 24 25  2  0
 24 26  1  0
M  END
$$$$
