PMH.pdb
     RDKit          3D

 26 27  0  0  1  0  0  0  0  0999 V2000
   22.7456  -13.5992  -19.6606 N   0  0  0  0  0  0  0  0  0  0  0  0
   22.4071  -14.7892  -20.4413 C   0  0  0  0  0  0  0  0  0  0  0  0
   21.6783  -15.6456  -19.4557 C   0  0  0  0  0  0  0  0  0  0  0  0
   21.1448  -14.7349  -18.3721 C   0  0  0  0  0  0  0  0  0  0  0  0
   21.5563  -13.3687  -18.8704 C   0  0  1  0  0  0  0  0  0  0  0  0
   21.9081  -12.4631  -17.7288 C   0  0  0  0  0  0  0  0  0  0  0  0
   21.0054  -12.1794  -16.9232 O   0  0  0  0  0  0  0  0  0  0  0  0
   28.0727  -10.6077  -16.0694 C   0  0  0  0  0  0  0  0  0  0  0  0
   27.4957  -12.2936  -15.7617 S   0  0  0  0  0  0  0  0  0  0  0  0
   25.6679  -12.3023  -15.5954 C   0  0  0  0  0  0  0  0  0  0  0  0
   25.1720  -11.0912  -16.3151 C   0  0  0  0  0  0  0  0  0  0  0  0
   23.6609  -11.0707  -16.5135 C   0  0  2  0  0  0  0  0  0  0  0  0
   23.2124  -11.9460  -17.5650 N   0  0  0  0  0  0  0  0  0  0  0  0
   23.2804   -9.6739  -16.7797 C   0  0  0  0  0  0  0  0  0  0  0  0
   23.4696   -9.1741  -17.9284 O   0  0  0  0  0  0  0  0  0  0  0  0
   22.7016   -8.8610  -15.7779 N   0  0  0  0  0  0  0  0  0  0  0  0
   21.9636   -7.6492  -16.1367 C   0  0  1  0  0  0  0  0  0  0  0  0
   20.9590   -7.9269  -17.2107 C   0  0  0  0  0  0  0  0  0  0  0  0
   20.2359   -6.6908  -17.5672 C   0  0  0  0  0  0  0  0  0  0  0  0
   19.0430   -6.1754  -17.0928 C   0  0  0  0  0  0  0  0  0  0  0  0
   18.7439   -5.0407  -17.7067 N   0  0  0  0  0  0  0  0  0  0  0  0
   19.7259   -4.7933  -18.5871 C   0  0  0  0  0  0  0  0  0  0  0  0
   20.6323   -5.7817  -18.5126 N   0  0  0  0  0  0  0  0  0  0  0  0
   21.3653   -7.0260  -14.9465 C   0  0  0  0  0  0  0  0  0  0  0  0
   20.8046   -5.9062  -14.9312 O   0  0  0  0  0  0  0  0  0  0  0  0
   21.4205   -7.7317  -13.7254 O   0  0  0  0  0  0  0  0  0  0  0  0
  1  2  1  0
  3  2  1  0
  4  5  1  0
  4  3  1  0
  5  1  1  0
  5  6  1  1
  6  7  2  0
  9  8  1  0
 10  9  1  0
 12 11  1  6
 11 10  1  0
 12 14  1  0
 13  6  1  0
 13 12  1  0
 14 15  2  0
 16 17  1  0
 16 14  1  0
 17 24  1  0
 17 18  1  6
 19 18  1  0
 20 19  2  0
 21 20  1  0
 22 21  1  0
 22 23  2  0
 23 19  1  0
 24 25  2  0
 24 26  1  0
M  END
$$$$
