PMH.pdb
     RDKit          3D

 26 27  0  0  1  0  0  0  0  0999 V2000
   27.4918  -19.4725  -15.6585 N   0  0  0  0  0  0  0  0  0  0  0  0
   28.7142  -19.1167  -16.3792 C   0  0  0  0  0  0  0  0  0  0  0  0
   29.6810  -20.1736  -15.9498 C   0  0  0  0  0  0  0  0  0  0  0  0
   28.8725  -21.3632  -15.4813 C   0  0  0  0  0  0  0  0  0  0  0  0
   27.4552  -20.9152  -15.7547 C   0  0  1  0  0  0  0  0  0  0  0  0
   26.5143  -21.4408  -14.7127 C   0  0  0  0  0  0  0  0  0  0  0  0
   26.1793  -22.6348  -14.7931 O   0  0  0  0  0  0  0  0  0  0  0  0
   27.1991  -20.9356   -8.6055 C   0  0  0  0  0  0  0  0  0  0  0  0
   25.4403  -20.5164   -8.5702 S   0  0  0  0  0  0  0  0  0  0  0  0
   24.6499  -21.0268  -10.1461 C   0  0  0  0  0  0  0  0  0  0  0  0
   25.5662  -20.5870  -11.2406 C   0  0  0  0  0  0  0  0  0  0  0  0
   25.1100  -21.0125  -12.6312 C   0  0  2  0  0  0  0  0  0  0  0  0
   26.0210  -20.6195  -13.6747 N   0  0  0  0  0  0  0  0  0  0  0  0
   23.7726  -20.4347  -12.8414 C   0  0  0  0  0  0  0  0  0  0  0  0
   23.6058  -19.1810  -12.7672 O   0  0  0  0  0  0  0  0  0  0  0  0
   22.6520  -21.2480  -13.1279 N   0  0  0  0  0  0  0  0  0  0  0  0
   21.3275  -20.6530  -13.3111 C   0  0  1  0  0  0  0  0  0  0  0  0
   20.7764  -20.9691  -14.6661 C   0  0  0  0  0  0  0  0  0  0  0  0
   21.4771  -20.1827  -15.6999 C   0  0  0  0  0  0  0  0  0  0  0  0
   21.8527  -18.8514  -15.7197 C   0  0  0  0  0  0  0  0  0  0  0  0
   22.4467  -18.5475  -16.8637 N   0  0  0  0  0  0  0  0  0  0  0  0
   22.4712  -19.6635  -17.6086 C   0  0  0  0  0  0  0  0  0  0  0  0
   21.8891  -20.6572  -16.9175 N   0  0  0  0  0  0  0  0  0  0  0  0
   20.4196  -21.0454  -12.2227 C   0  0  0  0  0  0  0  0  0  0  0  0
   19.3116  -20.5107  -11.9881 O   0  0  0  0  0  0  0  0  0  0  0  0
   20.8144  -22.1010  -11.3729 O   0  0  0  0  0  0  0  0  0  0  0  0
  1  2  1  0
  3  2  1  0
  4  5  1  0
  4  3  1  0
  5  1  1  0
  5  6  1  1
  6  7  2  0
  9  8  1  0
 10  9  1  0
 12 11  1  1
 11 10  1  0
 12 14  1  0
 13  6  1  0
 13 12  1  0
 14 15  2  0
 16 17  1  0
 16 14  1  0
 17 24  1  0
 17 18  1  6
 19 18  1  0
 20 19  2  0
 21 20  1  0
 22 21  1  0
 22 23  2  0
 23 19  1  0
 24 25  2  0
 24 26  1  0
M  END
$$$$
