PMH.pdb
     RDKit          3D

 26 27  0  0  1  0  0  0  0  0999 V2000
   28.0946  -20.5849  -16.9772 N   0  0  0  0  0  0  0  0  0  0  0  0
   29.3091  -20.5473  -17.7920 C   0  0  0  0  0  0  0  0  0  0  0  0
   30.1750  -21.5888  -17.1585 C   0  0  0  0  0  0  0  0  0  0  0  0
   29.2664  -22.5387  -16.4098 C   0  0  0  0  0  0  0  0  0  0  0  0
   27.8946  -21.9978  -16.7408 C   0  0  1  0  0  0  0  0  0  0  0  0
   26.9578  -22.1614  -15.5821 C   0  0  0  0  0  0  0  0  0  0  0  0
   26.5402  -23.3065  -15.3401 O   0  0  0  0  0  0  0  0  0  0  0  0
   25.0857  -21.5017   -8.6081 C   0  0  0  0  0  0  0  0  0  0  0  0
   26.1436  -21.3019  -10.0611 S   0  0  0  0  0  0  0  0  0  0  0  0
   25.3106  -20.2234  -11.2906 C   0  0  0  0  0  0  0  0  0  0  0  0
   26.1908  -20.1993  -12.4970 C   0  0  0  0  0  0  0  0  0  0  0  0
   25.7154  -21.1110  -13.6222 C   0  0  2  0  0  0  0  0  0  0  0  0
   26.5580  -21.0632  -14.7887 N   0  0  0  0  0  0  0  0  0  0  0  0
   24.3340  -20.7160  -13.9421 C   0  0  0  0  0  0  0  0  0  0  0  0
   24.0855  -19.5330  -14.3216 O   0  0  0  0  0  0  0  0  0  0  0  0
   23.2601  -21.6299  -13.8373 N   0  0  0  0  0  0  0  0  0  0  0  0
   21.9106  -21.2435  -14.2509 C   0  0  1  0  0  0  0  0  0  0  0  0
   21.1367  -22.4267  -14.7417 C   0  0  0  0  0  0  0  0  0  0  0  0
   19.8106  -22.0034  -15.2321 C   0  0  0  0  0  0  0  0  0  0  0  0
   19.4563  -21.2499  -16.3369 C   0  0  0  0  0  0  0  0  0  0  0  0
   18.1432  -21.0863  -16.3928 N   0  0  0  0  0  0  0  0  0  0  0  0
   17.6170  -21.7233  -15.3353 C   0  0  0  0  0  0  0  0  0  0  0  0
   18.6129  -22.2807  -14.6272 N   0  0  0  0  0  0  0  0  0  0  0  0
   21.2182  -20.5182  -13.1751 C   0  0  0  0  0  0  0  0  0  0  0  0
   21.3705  -20.7380  -11.9515 O   0  0  0  0  0  0  0  0  0  0  0  0
   20.3127  -19.4969  -13.5348 O   0  0  0  0  0  0  0  0  0  0  0  0
  1  2  1  0
  3  2  1  0
  4  5  1  0
  4  3  1  0
  5  1  1  0
  5  6  1  1
  6  7  2  0
  9  8  1  0
 10  9  1  0
 12 11  1  1
 11 10  1  0
 12 14  1  0
 13  6  1  0
 13 12  1  0
 14 15  2  0
 16 17  1  0
 16 14  1  0
 17 24  1  0
 17 18  1  1
 19 18  1  0
 20 19  2  0
 21 20  1  0
 22 21  1  0
 22 23  2  0
 23 19  1  0
 24 25  2  0
 24 26  1  0
M  END
$$$$
