YCT.pdb
     RDKit          3D

 26 26  0  0  1  0  0  0  0  0999 V2000
   -1.0892  -20.4121   21.1011 O   0  0  0  0  0  0  0  0  0  0  0  0
    0.1717  -20.1666   21.6346 C   0  0  0  0  0  0  0  0  0  0  0  0
    1.2117  -21.0544   21.4585 C   0  0  0  0  0  0  0  0  0  0  0  0
    2.4665  -20.8282   21.9790 C   0  0  0  0  0  0  0  0  0  0  0  0
    2.7413  -19.6757   22.7165 C   0  0  0  0  0  0  0  0  0  0  0  0
    4.1016  -19.4612   23.2646 C   0  0  0  0  0  0  0  0  0  0  0  0
    4.7965  -18.4750   22.3580 C   0  0  2  0  0  0  0  0  0  0  0  0
    5.1434  -19.0840   21.0881 N   0  0  0  0  0  0  0  0  0  0  0  0
    6.0604  -18.0342   23.0027 C   0  0  0  0  0  0  0  0  0  0  0  0
    7.1698  -18.5599   22.7296 O   0  0  0  0  0  0  0  0  0  0  0  0
    1.7043  -18.7889   22.8929 C   0  0  0  0  0  0  0  0  0  0  0  0
    0.4338  -19.0219   22.3634 C   0  0  0  0  0  0  0  0  0  0  0  0
    6.0688  -16.9748   23.9777 N   0  0  0  0  0  0  0  0  0  0  0  0
    7.3028  -16.5292   24.5980 C   0  0  1  0  0  0  0  0  0  0  0  0
    6.9763  -15.3498   25.5034 C   0  0  0  0  0  0  0  0  0  0  0  0
    8.5159  -14.8829   26.3367 S   0  0  0  0  0  0  0  0  0  0  0  0
    7.8535  -17.6374   25.4451 C   0  0  0  0  0  0  0  0  0  0  0  0
    7.1079  -18.1934   26.2960 O   0  0  0  0  0  0  0  0  0  0  0  0
    9.2830  -20.9210   24.5143 C   0  0  0  0  0  0  0  0  0  0  0  0
   10.2831  -20.2055   25.3740 C   0  0  1  0  0  0  0  0  0  0  0  0
   11.3076  -19.6267   24.6301 O   0  0  0  0  0  0  0  0  0  0  0  0
    9.6720  -19.1076   26.2134 C   0  0  2  0  0  0  0  0  0  0  0  0
    9.1772  -18.0946   25.3377 N   0  0  0  0  0  0  0  0  0  0  0  0
   10.5669  -18.6147   27.2576 C   0  0  0  0  0  0  0  0  0  0  0  0
   10.9572  -19.4467   28.2879 O   0  0  0  0  0  0  0  0  0  0  0  0
   10.9885  -17.4341   27.2285 O   0  0  0  0  0  0  0  0  0  0  0  0
  2  3  2  0
  2  1  1  0
  4  3  1  0
  5  4  2  0
  6  5  1  0
  7  6  1  0
  7  9  1  0
  7  8  1  6
  9 10  2  0
 11  5  1  0
 11 12  2  0
 12  2  1  0
 13  9  1  0
 13 14  1  0
 14 15  1  1
 15 16  1  0
 17 14  1  0
 17 23  1  0
 18 17  2  0
 20 19  1  6
 21 20  1  0
 22 24  1  0
 22 23  1  6
 22 20  1  0
 24 25  1  0
 26 24  2  0
M  END
$$$$
