YCT.pdb
     RDKit          3D

 26 26  0  0  1  0  0  0  0  0999 V2000
    6.4949  -22.2330   30.0411 O   0  0  0  0  0  0  0  0  0  0  0  0
    6.9191  -21.4945   28.9413 C   0  0  0  0  0  0  0  0  0  0  0  0
    7.8383  -22.0009   28.0471 C   0  0  0  0  0  0  0  0  0  0  0  0
    8.2700  -21.2847   26.9530 C   0  0  0  0  0  0  0  0  0  0  0  0
    7.7887  -19.9993   26.7003 C   0  0  0  0  0  0  0  0  0  0  0  0
    8.2732  -19.2533   25.5147 C   0  0  0  0  0  0  0  0  0  0  0  0
    7.0582  -18.8473   24.7170 C   0  0  2  0  0  0  0  0  0  0  0  0
    6.4874  -19.9818   24.0164 N   0  0  0  0  0  0  0  0  0  0  0  0
    7.4636  -17.8483   23.6947 C   0  0  0  0  0  0  0  0  0  0  0  0
    7.5810  -18.1453   22.4783 O   0  0  0  0  0  0  0  0  0  0  0  0
    6.8714  -19.4929   27.5918 C   0  0  0  0  0  0  0  0  0  0  0  0
    6.4363  -20.2223   28.6998 C   0  0  0  0  0  0  0  0  0  0  0  0
    7.7419  -16.4829   24.0573 N   0  0  0  0  0  0  0  0  0  0  0  0
    8.4767  -15.6007   23.1697 C   0  0  1  0  0  0  0  0  0  0  0  0
    8.5706  -14.2344   23.8345 C   0  0  0  0  0  0  0  0  0  0  0  0
    6.8831  -13.7484   24.2806 S   0  0  0  0  0  0  0  0  0  0  0  0
    9.8661  -16.1346   22.9880 C   0  0  0  0  0  0  0  0  0  0  0  0
   10.4243  -16.7416   23.9414 O   0  0  0  0  0  0  0  0  0  0  0  0
   13.3867  -17.4967   19.8183 C   0  0  0  0  0  0  0  0  0  0  0  0
   12.0930  -16.8045   20.1320 C   0  0  1  0  0  0  0  0  0  0  0  0
   10.9910  -17.4687   19.6002 O   0  0  0  0  0  0  0  0  0  0  0  0
   11.8425  -16.6499   21.6142 C   0  0  2  0  0  0  0  0  0  0  0  0
   10.5888  -15.9910   21.7921 N   0  0  0  0  0  0  0  0  0  0  0  0
   12.9558  -16.0253   22.3246 C   0  0  0  0  0  0  0  0  0  0  0  0
   14.0995  -16.7491   22.5975 O   0  0  0  0  0  0  0  0  0  0  0  0
   12.8840  -14.8287   22.6926 O   0  0  0  0  0  0  0  0  0  0  0  0
  2  3  2  0
  2  1  1  0
  4  3  1  0
  5  4  2  0
  6  5  1  0
  7  6  1  0
  7  9  1  0
  7  8  1  6
  9 10  2  0
 11  5  1  0
 11 12  2  0
 12  2  1  0
 13  9  1  0
 13 14  1  0
 14 15  1  1
 15 16  1  0
 17 14  1  0
 17 23  1  0
 18 17  2  0
 20 19  1  1
 21 20  1  0
 22 24  1  0
 22 23  1  6
 22 20  1  0
 24 25  1  0
 26 24  2  0
M  END
$$$$
