YCT.pdb
     RDKit          3D

 26 26  0  0  1  0  0  0  0  0999 V2000
    9.4351  -18.8362   29.7040 O   0  0  0  0  0  0  0  0  0  0  0  0
    8.8128  -19.1879   28.5107 C   0  0  0  0  0  0  0  0  0  0  0  0
    9.5021  -19.1979   27.3167 C   0  0  0  0  0  0  0  0  0  0  0  0
    8.9030  -19.5433   26.1258 C   0  0  0  0  0  0  0  0  0  0  0  0
    7.5551  -19.9020   26.0771 C   0  0  0  0  0  0  0  0  0  0  0  0
    6.9386  -20.2678   24.7798 C   0  0  0  0  0  0  0  0  0  0  0  0
    6.0086  -19.1431   24.3959 C   0  0  2  0  0  0  0  0  0  0  0  0
    4.9546  -19.6109   23.5161 N   0  0  0  0  0  0  0  0  0  0  0  0
    6.7801  -18.1090   23.6591 C   0  0  0  0  0  0  0  0  0  0  0  0
    7.2064  -18.2977   22.4910 O   0  0  0  0  0  0  0  0  0  0  0  0
    6.8662  -19.8924   27.2679 C   0  0  0  0  0  0  0  0  0  0  0  0
    7.4774  -19.5418   28.4732 C   0  0  0  0  0  0  0  0  0  0  0  0
    7.0751  -16.8330   24.2574 N   0  0  0  0  0  0  0  0  0  0  0  0
    7.9479  -15.8759   23.6029 C   0  0  1  0  0  0  0  0  0  0  0  0
    7.6694  -14.5017   24.1958 C   0  0  0  0  0  0  0  0  0  0  0  0
    7.0940  -14.7669   25.8933 S   0  0  0  0  0  0  0  0  0  0  0  0
    9.3745  -16.2357   23.8926 C   0  0  0  0  0  0  0  0  0  0  0  0
    9.7307  -16.4383   25.0847 O   0  0  0  0  0  0  0  0  0  0  0  0
   11.0323  -19.2407   22.5166 C   0  0  0  0  0  0  0  0  0  0  0  0
   11.9050  -18.0494   22.2510 C   0  0  1  0  0  0  0  0  0  0  0  0
   11.7624  -17.5632   20.9542 O   0  0  0  0  0  0  0  0  0  0  0  0
   11.6392  -16.8937   23.1876 C   0  0  2  0  0  0  0  0  0  0  0  0
   10.3493  -16.3603   22.8890 N   0  0  0  0  0  0  0  0  0  0  0  0
   12.7119  -15.9020   23.1981 C   0  0  0  0  0  0  0  0  0  0  0  0
   13.9515  -16.2248   23.7134 O   0  0  0  0  0  0  0  0  0  0  0  0
   12.5180  -14.7508   22.7404 O   0  0  0  0  0  0  0  0  0  0  0  0
  2  3  2  0
  2  1  1  0
  4  3  1  0
  5  4  2  0
  6  5  1  0
  7  6  1  0
  7  9  1  0
  7  8  1  6
  9 10  2  0
 11  5  1  0
 11 12  2  0
 12  2  1  0
 13  9  1  0
 13 14  1  0
 14 15  1  1
 15 16  1  0
 17 14  1  0
 17 23  1  0
 18 17  2  0
 20 19  1  1
 21 20  1  0
 22 24  1  0
 22 23  1  6
 22 20  1  0
 24 25  1  0
 26 24  2  0
M  END
$$$$
