YCT.pdb
     RDKit          3D

 26 26  0  0  1  0  0  0  0  0999 V2000
    7.0531  -11.1944   26.6798 O   0  0  0  0  0  0  0  0  0  0  0  0
    6.9937  -12.5830   26.6222 C   0  0  0  0  0  0  0  0  0  0  0  0
    8.1378  -13.3488   26.5497 C   0  0  0  0  0  0  0  0  0  0  0  0
    8.0985  -14.7241   26.4920 C   0  0  0  0  0  0  0  0  0  0  0  0
    6.8827  -15.4093   26.5045 C   0  0  0  0  0  0  0  0  0  0  0  0
    6.8731  -16.8900   26.4404 C   0  0  0  0  0  0  0  0  0  0  0  0
    6.3722  -17.2731   25.0694 C   0  0  2  0  0  0  0  0  0  0  0  0
    5.9480  -18.6597   25.0342 N   0  0  0  0  0  0  0  0  0  0  0  0
    7.4794  -17.1192   24.0905 C   0  0  0  0  0  0  0  0  0  0  0  0
    8.3531  -18.0081   23.9232 O   0  0  0  0  0  0  0  0  0  0  0  0
    5.7402  -14.6462   26.5769 C   0  0  0  0  0  0  0  0  0  0  0  0
    5.7844  -13.2520   26.6354 C   0  0  0  0  0  0  0  0  0  0  0  0
    7.5998  -15.9332   23.2831 N   0  0  0  0  0  0  0  0  0  0  0  0
    8.5566  -15.8547   22.1947 C   0  0  1  0  0  0  0  0  0  0  0  0
    8.3078  -14.5556   21.4411 C   0  0  0  0  0  0  0  0  0  0  0  0
    7.4663  -13.4337   22.5882 S   0  0  0  0  0  0  0  0  0  0  0  0
    9.9435  -15.8133   22.7635 C   0  0  0  0  0  0  0  0  0  0  0  0
   10.2231  -14.9604   23.6485 O   0  0  0  0  0  0  0  0  0  0  0  0
   11.6795  -17.9742   24.9906 C   0  0  0  0  0  0  0  0  0  0  0  0
   12.4880  -17.8995   23.7289 C   0  0  1  0  0  0  0  0  0  0  0  0
   12.2262  -18.9594   22.8650 O   0  0  0  0  0  0  0  0  0  0  0  0
   12.2596  -16.6263   22.9478 C   0  0  2  0  0  0  0  0  0  0  0  0
   10.9627  -16.6891   22.3546 N   0  0  0  0  0  0  0  0  0  0  0  0
   13.3365  -16.3260   22.0075 C   0  0  0  0  0  0  0  0  0  0  0  0
   14.5788  -15.9437   22.4730 O   0  0  0  0  0  0  0  0  0  0  0  0
   13.1439  -16.4123   20.7714 O   0  0  0  0  0  0  0  0  0  0  0  0
  2  3  2  0
  2  1  1  0
  4  3  1  0
  5  4  2  0
  6  5  1  0
  7  6  1  0
  7  9  1  0
  7  8  1  1
  9 10  2  0
 11  5  1  0
 11 12  2  0
 12  2  1  0
 13  9  1  0
 13 14  1  0
 14 15  1  1
 15 16  1  0
 17 14  1  0
 17 23  1  0
 18 17  2  0
 20 19  1  1
 21 20  1  0
 22 24  1  0
 22 23  1  6
 22 20  1  0
 24 25  1  0
 26 24  2  0
M  END
$$$$
