YCT.pdb
     RDKit          3D

 26 26  0  0  1  0  0  0  0  0999 V2000
    5.3426  -10.6152   28.2720 O   0  0  0  0  0  0  0  0  0  0  0  0
    6.0508  -11.5973   27.5872 C   0  0  0  0  0  0  0  0  0  0  0  0
    5.7367  -11.9358   26.2882 C   0  0  0  0  0  0  0  0  0  0  0  0
    6.4265  -12.9051   25.5947 C   0  0  0  0  0  0  0  0  0  0  0  0
    7.4862  -13.5947   26.1858 C   0  0  0  0  0  0  0  0  0  0  0  0
    8.2087  -14.6333   25.4137 C   0  0  0  0  0  0  0  0  0  0  0  0
    7.1670  -15.4942   24.7421 C   0  0  2  0  0  0  0  0  0  0  0  0
    6.6049  -16.4573   25.6696 N   0  0  0  0  0  0  0  0  0  0  0  0
    7.8082  -16.2565   23.6398 C   0  0  0  0  0  0  0  0  0  0  0  0
    8.0351  -17.4906   23.7232 O   0  0  0  0  0  0  0  0  0  0  0  0
    7.8007  -13.2577   27.4820 C   0  0  0  0  0  0  0  0  0  0  0  0
    7.0989  -12.2743   28.1816 C   0  0  0  0  0  0  0  0  0  0  0  0
    8.2008  -15.6076   22.4159 N   0  0  0  0  0  0  0  0  0  0  0  0
    8.7861  -16.3556   21.3187 C   0  0  1  0  0  0  0  0  0  0  0  0
    8.6226  -15.5340   20.0476 C   0  0  0  0  0  0  0  0  0  0  0  0
    6.8507  -15.4920   19.6716 S   0  0  0  0  0  0  0  0  0  0  0  0
   10.2517  -16.5395   21.5777 C   0  0  0  0  0  0  0  0  0  0  0  0
   10.9649  -15.5321   21.8337 O   0  0  0  0  0  0  0  0  0  0  0  0
   12.0712  -18.6106   24.2515 C   0  0  0  0  0  0  0  0  0  0  0  0
   12.4472  -19.0237   22.8589 C   0  0  1  0  0  0  0  0  0  0  0  0
   11.7079  -20.1141   22.4089 O   0  0  0  0  0  0  0  0  0  0  0  0
   12.2720  -17.9208   21.8409 C   0  0  2  0  0  0  0  0  0  0  0  0
   10.8803  -17.7953   21.5490 N   0  0  0  0  0  0  0  0  0  0  0  0
   13.1207  -18.0835   20.6631 C   0  0  0  0  0  0  0  0  0  0  0  0
   14.4818  -17.8696   20.7526 O   0  0  0  0  0  0  0  0  0  0  0  0
   12.6229  -18.4184   19.5620 O   0  0  0  0  0  0  0  0  0  0  0  0
  2  3  2  0
  2  1  1  0
  4  3  1  0
  5  4  2  0
  6  5  1  0
  7  6  1  0
  7  9  1  0
  7  8  1  1
  9 10  2  0
 11  5  1  0
 11 12  2  0
 12  2  1  0
 13  9  1  0
 13 14  1  0
 14 15  1  6
 15 16  1  0
 17 14  1  0
 17 23  1  0
 18 17  2  0
 20 19  1  1
 21 20  1  0
 22 24  1  0
 22 23  1  6
 22 20  1  0
 24 25  1  0
 26 24  2  0
M  END
$$$$
