YCT.pdb
     RDKit          3D

 26 26  0  0  1  0  0  0  0  0999 V2000
    5.1139  -10.4854   27.9113 O   0  0  0  0  0  0  0  0  0  0  0  0
    5.7979  -11.5707   27.3736 C   0  0  0  0  0  0  0  0  0  0  0  0
    6.9981  -11.9969   27.9015 C   0  0  0  0  0  0  0  0  0  0  0  0
    7.6892  -13.0690   27.3827 C   0  0  0  0  0  0  0  0  0  0  0  0
    7.1972  -13.7782   26.2860 C   0  0  0  0  0  0  0  0  0  0  0  0
    7.9647  -14.9273   25.7498 C   0  0  0  0  0  0  0  0  0  0  0  0
    6.9852  -15.8177   25.0252 C   0  0  2  0  0  0  0  0  0  0  0  0
    6.6645  -16.9938   25.8111 N   0  0  0  0  0  0  0  0  0  0  0  0
    7.6027  -16.2825   23.7563 C   0  0  0  0  0  0  0  0  0  0  0  0
    8.0413  -17.4526   23.6147 O   0  0  0  0  0  0  0  0  0  0  0  0
    5.9996  -13.3540   25.7582 C   0  0  0  0  0  0  0  0  0  0  0  0
    5.3020  -12.2666   26.2873 C   0  0  0  0  0  0  0  0  0  0  0  0
    7.7261  -15.4035   22.6225 N   0  0  0  0  0  0  0  0  0  0  0  0
    8.2972  -15.8625   21.3699 C   0  0  1  0  0  0  0  0  0  0  0  0
    8.1488  -14.7452   20.3466 C   0  0  0  0  0  0  0  0  0  0  0  0
    8.8360  -15.3631   18.7882 S   0  0  0  0  0  0  0  0  0  0  0  0
    9.7591  -16.1318   21.5673 C   0  0  0  0  0  0  0  0  0  0  0  0
   10.4862  -15.2431   22.0875 O   0  0  0  0  0  0  0  0  0  0  0  0
   11.4371  -19.1484   23.3895 C   0  0  0  0  0  0  0  0  0  0  0  0
   11.9152  -18.9790   21.9774 C   0  0  1  0  0  0  0  0  0  0  0  0
   11.2531  -19.8194   21.0865 O   0  0  0  0  0  0  0  0  0  0  0  0
   11.7542  -17.5693   21.4575 C   0  0  2  0  0  0  0  0  0  0  0  0
   10.3694  -17.3415   21.1968 N   0  0  0  0  0  0  0  0  0  0  0  0
   12.6353  -17.2659   20.3324 C   0  0  0  0  0  0  0  0  0  0  0  0
   13.9479  -16.9012   20.5565 O   0  0  0  0  0  0  0  0  0  0  0  0
   12.2094  -17.3337   19.1549 O   0  0  0  0  0  0  0  0  0  0  0  0
  2  3  2  0
  2  1  1  0
  4  3  1  0
  5  4  2  0
  6  5  1  0
  7  6  1  0
  7  9  1  0
  7  8  1  1
  9 10  2  0
 11  5  1  0
 11 12  2  0
 12  2  1  0
 13  9  1  0
 13 14  1  0
 14 15  1  6
 15 16  1  0
 17 14  1  0
 17 23  1  0
 18 17  2  0
 20 19  1  1
 21 20  1  0
 22 24  1  0
 22 23  1  6
 22 20  1  0
 24 25  1  0
 26 24  2  0
M  END
$$$$
