KFA.pdb
     RDKit          3D

 26 26  0  0  1  0  0  0  0  0999 V2000
    9.8837  -16.5319   19.7367 N   0  0  0  0  0  0  0  0  0  0  0  0
    9.9971  -17.1529   21.0669 C   0  0  1  0  0  0  0  0  0  0  0  0
   11.2788  -17.9341   21.1438 C   0  0  0  0  0  0  0  0  0  0  0  0
   11.5894  -18.7134   19.9095 C   0  0  0  0  0  0  0  0  0  0  0  0
   12.6896  -19.7339   20.1385 C   0  0  0  0  0  0  0  0  0  0  0  0
   13.0303  -20.4790   18.8725 C   0  0  0  0  0  0  0  0  0  0  0  0
   14.1865  -21.3323   19.0143 N   0  0  0  0  0  0  0  0  0  0  0  0
    9.8494  -16.0995   22.0786 C   0  0  0  0  0  0  0  0  0  0  0  0
   10.6590  -15.1664   22.1352 O   0  0  0  0  0  0  0  0  0  0  0  0
    8.7975  -16.0823   23.0321 N   0  0  0  0  0  0  0  0  0  0  0  0
    8.6033  -15.0801   24.0207 C   0  0  1  0  0  0  0  0  0  0  0  0
    7.1850  -14.6948   24.2748 C   0  0  0  0  0  0  0  0  0  0  0  0
    6.9834  -13.6856   25.3055 C   0  0  0  0  0  0  0  0  0  0  0  0
    6.3985  -13.9016   26.5163 C   0  0  0  0  0  0  0  0  0  0  0  0
    6.2464  -12.9001   27.4299 C   0  0  0  0  0  0  0  0  0  0  0  0
    6.6770  -11.6131   27.1769 C   0  0  0  0  0  0  0  0  0  0  0  0
    7.2723  -11.3758   25.9545 C   0  0  0  0  0  0  0  0  0  0  0  0
    7.4232  -12.3874   25.0379 C   0  0  0  0  0  0  0  0  0  0  0  0
    9.1642  -15.5867   25.3011 C   0  0  0  0  0  0  0  0  0  0  0  0
    9.0964  -16.8060   25.5768 O   0  0  0  0  0  0  0  0  0  0  0  0
   11.0559  -14.2060   28.2471 C   0  0  0  0  0  0  0  0  0  0  0  0
   10.4469  -15.3124   27.4097 C   0  0  2  0  0  0  0  0  0  0  0  0
    9.7885  -14.7445   26.2537 N   0  0  0  0  0  0  0  0  0  0  0  0
    9.5017  -16.1011   28.2394 C   0  0  0  0  0  0  0  0  0  0  0  0
    9.9615  -16.6775   29.2538 O   0  0  0  0  0  0  0  0  0  0  0  0
    8.1506  -16.2417   27.9681 O   0  0  0  0  0  0  0  0  0  0  0  0
  2  3  1  0
  2  1  1  6
  4  5  1  0
  4  3  1  0
  6  7  1  0
  6  5  1  0
  8  2  1  0
  9  8  2  0
 10  8  1  0
 11 10  1  0
 11 12  1  1
 12 13  1  0
 13 18  2  0
 14 13  1  0
 14 15  2  0
 15 16  1  0
 16 17  2  0
 18 17  1  0
 19 11  1  0
 19 20  2  0
 22 21  1  1
 22 23  1  0
 23 19  1  0
 24 22  1  0
 25 24  2  0
 26 24  1  0
M  END
$$$$
