KFA.pdb
     RDKit          3D

 26 26  0  0  1  0  0  0  0  0999 V2000
    8.0879  -17.8753   20.5343 N   0  0  0  0  0  0  0  0  0  0  0  0
    9.4618  -17.3651   20.6747 C   0  0  1  0  0  0  0  0  0  0  0  0
    9.9331  -16.8336   19.3500 C   0  0  0  0  0  0  0  0  0  0  0  0
    9.5727  -17.6968   18.1871 C   0  0  0  0  0  0  0  0  0  0  0  0
   10.7687  -18.4617   17.6497 C   0  0  0  0  0  0  0  0  0  0  0  0
   10.3999  -19.3031   16.4537 C   0  0  0  0  0  0  0  0  0  0  0  0
   11.5316  -19.9898   15.8770 N   0  0  0  0  0  0  0  0  0  0  0  0
    9.4802  -16.3946   21.7760 C   0  0  0  0  0  0  0  0  0  0  0  0
   10.5294  -15.8180   22.0862 O   0  0  0  0  0  0  0  0  0  0  0  0
    8.3280  -16.0628   22.5364 N   0  0  0  0  0  0  0  0  0  0  0  0
    8.3151  -15.2189   23.6796 C   0  0  1  0  0  0  0  0  0  0  0  0
    7.0479  -14.4662   23.9081 C   0  0  0  0  0  0  0  0  0  0  0  0
    7.0299  -13.6097   25.0860 C   0  0  0  0  0  0  0  0  0  0  0  0
    6.3207  -13.8491   26.2238 C   0  0  0  0  0  0  0  0  0  0  0  0
    6.3572  -12.9948   27.2867 C   0  0  0  0  0  0  0  0  0  0  0  0
    7.1152  -11.8411   27.2669 C   0  0  0  0  0  0  0  0  0  0  0  0
    7.8405  -11.5823   26.1216 C   0  0  0  0  0  0  0  0  0  0  0  0
    7.8006  -12.4454   25.0541 C   0  0  0  0  0  0  0  0  0  0  0  0
    8.5516  -16.0682   24.8770 C   0  0  0  0  0  0  0  0  0  0  0  0
    7.6734  -16.8755   25.2568 O   0  0  0  0  0  0  0  0  0  0  0  0
   11.2421  -17.7826   26.3478 C   0  0  0  0  0  0  0  0  0  0  0  0
    9.9962  -16.9852   26.6766 C   0  0  2  0  0  0  0  0  0  0  0  0
    9.7479  -16.0142   25.6337 N   0  0  0  0  0  0  0  0  0  0  0  0
   10.1591  -16.3312   27.9993 C   0  0  0  0  0  0  0  0  0  0  0  0
   10.2909  -17.0734   29.0016 O   0  0  0  0  0  0  0  0  0  0  0  0
   10.1751  -14.9605   28.1987 O   0  0  0  0  0  0  0  0  0  0  0  0
  2  3  1  0
  2  1  1  6
  4  5  1  0
  4  3  1  0
  6  7  1  0
  6  5  1  0
  8  2  1  0
  9  8  2  0
 10  8  1  0
 11 10  1  0
 11 12  1  1
 12 13  1  0
 13 18  2  0
 14 13  1  0
 14 15  2  0
 15 16  1  0
 16 17  2  0
 18 17  1  0
 19 11  1  0
 19 20  2  0
 22 21  1  6
 22 23  1  0
 23 19  1  0
 24 22  1  0
 25 24  2  0
 26 24  1  0
M  END
$$$$
