KFA.pdb
     RDKit          3D

 26 26  0  0  1  0  0  0  0  0999 V2000
   10.2240  -16.5133   19.5194 N   0  0  0  0  0  0  0  0  0  0  0  0
    8.8812  -16.1654   20.0131 C   0  0  1  0  0  0  0  0  0  0  0  0
    7.9693  -17.3491   19.8509 C   0  0  0  0  0  0  0  0  0  0  0  0
    8.6314  -18.5485   19.2588 C   0  0  0  0  0  0  0  0  0  0  0  0
    7.6368  -19.6466   18.9284 C   0  0  0  0  0  0  0  0  0  0  0  0
    8.3200  -20.8622   18.3542 C   0  0  0  0  0  0  0  0  0  0  0  0
    7.3996  -21.9279   18.0345 N   0  0  0  0  0  0  0  0  0  0  0  0
    9.0131  -15.6659   21.3872 C   0  0  0  0  0  0  0  0  0  0  0  0
   10.0659  -15.8286   22.0153 O   0  0  0  0  0  0  0  0  0  0  0  0
    7.9707  -14.9824   22.0671 N   0  0  0  0  0  0  0  0  0  0  0  0
    8.0650  -14.4376   23.3761 C   0  0  1  0  0  0  0  0  0  0  0  0
    6.9375  -13.5512   23.7857 C   0  0  0  0  0  0  0  0  0  0  0  0
    6.9999  -13.0456   25.1502 C   0  0  0  0  0  0  0  0  0  0  0  0
    6.0314  -13.2043   26.0946 C   0  0  0  0  0  0  0  0  0  0  0  0
    6.1662  -12.6987   27.3543 C   0  0  0  0  0  0  0  0  0  0  0  0
    7.2917  -11.9986   27.7406 C   0  0  0  0  0  0  0  0  0  0  0  0
    8.2836  -11.8281   26.7963 C   0  0  0  0  0  0  0  0  0  0  0  0
    8.1434  -12.3390   25.5292 C   0  0  0  0  0  0  0  0  0  0  0  0
    8.1154  -15.5692   24.3393 C   0  0  0  0  0  0  0  0  0  0  0  0
    7.1225  -16.3188   24.4789 O   0  0  0  0  0  0  0  0  0  0  0  0
   10.0693  -18.1329   25.2710 C   0  0  0  0  0  0  0  0  0  0  0  0
    9.2866  -17.0364   25.9648 C   0  0  2  0  0  0  0  0  0  0  0  0
    9.2551  -15.8554   25.1303 N   0  0  0  0  0  0  0  0  0  0  0  0
    9.8972  -16.7502   27.2873 C   0  0  0  0  0  0  0  0  0  0  0  0
    9.9612  -17.6919   28.1131 O   0  0  0  0  0  0  0  0  0  0  0  0
   10.3989  -15.5165   27.6679 O   0  0  0  0  0  0  0  0  0  0  0  0
  2  3  1  0
  2  1  1  1
  4  5  1  0
  4  3  1  0
  6  7  1  0
  6  5  1  0
  8  2  1  0
  9  8  2  0
 10  8  1  0
 11 10  1  0
 11 12  1  1
 12 13  1  0
 13 18  2  0
 14 13  1  0
 14 15  2  0
 15 16  1  0
 16 17  2  0
 18 17  1  0
 19 11  1  0
 19 20  2  0
 22 21  1  6
 22 23  1  0
 23 19  1  0
 24 22  1  0
 25 24  2  0
 26 24  1  0
M  END
$$$$
