KFA.pdb
     RDKit          3D

 26 26  0  0  1  0  0  0  0  0999 V2000
    8.4023  -17.6748   20.3714 N   0  0  0  0  0  0  0  0  0  0  0  0
    9.7863  -17.2278   20.6002 C   0  0  1  0  0  0  0  0  0  0  0  0
   10.3328  -16.6319   19.3331 C   0  0  0  0  0  0  0  0  0  0  0  0
   10.2664  -17.5458   18.1550 C   0  0  0  0  0  0  0  0  0  0  0  0
   11.6217  -18.1375   17.8126 C   0  0  0  0  0  0  0  0  0  0  0  0
   11.5422  -19.0582   16.6208 C   0  0  0  0  0  0  0  0  0  0  0  0
   12.7988  -19.7039   16.3226 N   0  0  0  0  0  0  0  0  0  0  0  0
    9.7922  -16.3306   21.7621 C   0  0  0  0  0  0  0  0  0  0  0  0
   10.8500  -15.8312   22.1635 O   0  0  0  0  0  0  0  0  0  0  0  0
    8.6177  -15.9862   22.4817 N   0  0  0  0  0  0  0  0  0  0  0  0
    8.5802  -15.1853   23.6549 C   0  0  1  0  0  0  0  0  0  0  0  0
    7.3209  -14.4144   23.8664 C   0  0  0  0  0  0  0  0  0  0  0  0
    7.2664  -13.6237   25.0883 C   0  0  0  0  0  0  0  0  0  0  0  0
    6.4872  -13.8987   26.1710 C   0  0  0  0  0  0  0  0  0  0  0  0
    6.4934  -13.1059   27.2810 C   0  0  0  0  0  0  0  0  0  0  0  0
    7.2899  -11.9815   27.3674 C   0  0  0  0  0  0  0  0  0  0  0  0
    8.0862  -11.6874   26.2793 C   0  0  0  0  0  0  0  0  0  0  0  0
    8.0766  -12.4886   25.1639 C   0  0  0  0  0  0  0  0  0  0  0  0
    8.7557  -16.0832   24.8269 C   0  0  0  0  0  0  0  0  0  0  0  0
    7.8619  -16.9076   25.1250 O   0  0  0  0  0  0  0  0  0  0  0  0
   11.2313  -17.9691   26.3348 C   0  0  0  0  0  0  0  0  0  0  0  0
   10.0841  -17.0456   26.6913 C   0  0  2  0  0  0  0  0  0  0  0  0
    9.9093  -16.0584   25.6486 N   0  0  0  0  0  0  0  0  0  0  0  0
   10.3500  -16.4064   28.0045 C   0  0  0  0  0  0  0  0  0  0  0  0
   10.5826  -15.1741   28.0138 O   0  0  0  0  0  0  0  0  0  0  0  0
   10.3581  -17.0787   29.2156 O   0  0  0  0  0  0  0  0  0  0  0  0
  2  3  1  0
  2  1  1  6
  4  5  1  0
  4  3  1  0
  6  7  1  0
  6  5  1  0
  8  2  1  0
  9  8  2  0
 10  8  1  0
 11 10  1  0
 11 12  1  1
 12 13  1  0
 13 18  2  0
 14 13  1  0
 14 15  2  0
 15 16  1  0
 16 17  2  0
 18 17  1  0
 19 11  1  0
 19 20  2  0
 22 21  1  6
 22 23  1  0
 23 19  1  0
 24 22  1  0
 25 24  2  0
 26 24  1  0
M  END
$$$$
