KFA.pdb
     RDKit          3D

 26 26  0  0  1  0  0  0  0  0999 V2000
    7.2164  -15.3583   20.7545 N   0  0  0  0  0  0  0  0  0  0  0  0
    8.4641  -14.5787   20.8127 C   0  0  1  0  0  0  0  0  0  0  0  0
    8.2181  -13.2037   20.2577 C   0  0  0  0  0  0  0  0  0  0  0  0
    7.5463  -13.1986   18.9251 C   0  0  0  0  0  0  0  0  0  0  0  0
    8.4035  -13.8408   17.8494 C   0  0  0  0  0  0  0  0  0  0  0  0
    7.6952  -13.8729   16.5184 C   0  0  0  0  0  0  0  0  0  0  0  0
    8.4754  -14.5036   15.4798 N   0  0  0  0  0  0  0  0  0  0  0  0
    8.9615  -14.6120   22.1935 C   0  0  0  0  0  0  0  0  0  0  0  0
   10.0009  -14.0162   22.5002 O   0  0  0  0  0  0  0  0  0  0  0  0
    8.3013  -15.3102   23.2388 N   0  0  0  0  0  0  0  0  0  0  0  0
    8.7402  -15.3713   24.5890 C   0  0  1  0  0  0  0  0  0  0  0  0
    7.6687  -15.2471   25.6190 C   0  0  0  0  0  0  0  0  0  0  0  0
    7.2058  -13.8917   25.8834 C   0  0  0  0  0  0  0  0  0  0  0  0
    5.9095  -13.4772   25.8312 C   0  0  0  0  0  0  0  0  0  0  0  0
    5.5567  -12.1859   26.0933 C   0  0  0  0  0  0  0  0  0  0  0  0
    6.4944  -11.2287   26.4257 C   0  0  0  0  0  0  0  0  0  0  0  0
    7.8133  -11.6310   26.4834 C   0  0  0  0  0  0  0  0  0  0  0  0
    8.1637  -12.9322   26.2187 C   0  0  0  0  0  0  0  0  0  0  0  0
    9.4061  -16.6848   24.7939 C   0  0  0  0  0  0  0  0  0  0  0  0
    9.0990  -17.3972   25.7765 O   0  0  0  0  0  0  0  0  0  0  0  0
   11.2885  -19.1436   22.7942 C   0  0  0  0  0  0  0  0  0  0  0  0
   10.9570  -18.5065   24.1286 C   0  0  2  0  0  0  0  0  0  0  0  0
   10.3961  -17.1903   23.9159 N   0  0  0  0  0  0  0  0  0  0  0  0
   12.1798  -18.4459   24.9681 C   0  0  0  0  0  0  0  0  0  0  0  0
   12.7031  -19.5329   25.3107 O   0  0  0  0  0  0  0  0  0  0  0  0
   12.7786  -17.2725   25.3964 O   0  0  0  0  0  0  0  0  0  0  0  0
  2  3  1  0
  2  1  1  1
  4  5  1  0
  4  3  1  0
  6  7  1  0
  6  5  1  0
  8  2  1  0
  9  8  2  0
 10  8  1  0
 11 10  1  0
 11 12  1  1
 12 13  1  0
 13 18  2  0
 14 13  1  0
 14 15  2  0
 15 16  1  0
 16 17  2  0
 18 17  1  0
 19 11  1  0
 19 20  2  0
 22 21  1  6
 22 23  1  0
 23 19  1  0
 24 22  1  0
 25 24  2  0
 26 24  1  0
M  END
$$$$
