KFA.pdb
     RDKit          3D

 26 26  0  0  1  0  0  0  0  0999 V2000
   10.2246  -16.3944   19.4075 N   0  0  0  0  0  0  0  0  0  0  0  0
    9.5512  -17.0432   20.5447 C   0  0  1  0  0  0  0  0  0  0  0  0
   10.1830  -18.3832   20.7986 C   0  0  0  0  0  0  0  0  0  0  0  0
   10.8165  -18.9935   19.5929 C   0  0  0  0  0  0  0  0  0  0  0  0
   10.4993  -20.4726   19.4664 C   0  0  0  0  0  0  0  0  0  0  0  0
   11.1989  -21.0929   18.2832 C   0  0  0  0  0  0  0  0  0  0  0  0
   10.9138  -22.5005   18.1341 N   0  0  0  0  0  0  0  0  0  0  0  0
    9.5792  -16.1170   21.6833 C   0  0  0  0  0  0  0  0  0  0  0  0
   10.6159  -15.5067   21.9699 O   0  0  0  0  0  0  0  0  0  0  0  0
    8.4504  -15.8673   22.5076 N   0  0  0  0  0  0  0  0  0  0  0  0
    8.4190  -14.9625   23.6028 C   0  0  1  0  0  0  0  0  0  0  0  0
    7.1108  -14.2867   23.8405 C   0  0  0  0  0  0  0  0  0  0  0  0
    7.0831  -13.3447   24.9510 C   0  0  0  0  0  0  0  0  0  0  0  0
    7.8641  -12.2345   25.0625 C   0  0  0  0  0  0  0  0  0  0  0  0
    7.7775  -11.3998   26.1379 C   0  0  0  0  0  0  0  0  0  0  0  0
    6.8934  -11.6350   27.1718 C   0  0  0  0  0  0  0  0  0  0  0  0
    6.0938  -12.7558   27.0757 C   0  0  0  0  0  0  0  0  0  0  0  0
    6.1847  -13.5932   25.9910 C   0  0  0  0  0  0  0  0  0  0  0  0
    8.7582  -15.7237   24.8342 C   0  0  0  0  0  0  0  0  0  0  0  0
    8.7591  -15.1493   25.9465 O   0  0  0  0  0  0  0  0  0  0  0  0
    9.5575  -19.2724   25.7869 C   0  0  0  0  0  0  0  0  0  0  0  0
    9.4050  -17.7884   26.0528 C   0  0  2  0  0  0  0  0  0  0  0  0
    9.0896  -17.1009   24.8199 N   0  0  0  0  0  0  0  0  0  0  0  0
   10.6514  -17.2622   26.6639 C   0  0  0  0  0  0  0  0  0  0  0  0
   10.7799  -17.3720   27.9066 O   0  0  0  0  0  0  0  0  0  0  0  0
   11.6778  -16.6602   25.9548 O   0  0  0  0  0  0  0  0  0  0  0  0
  2  3  1  0
  2  1  1  6
  4  5  1  0
  4  3  1  0
  6  7  1  0
  6  5  1  0
  8  2  1  0
  9  8  2  0
 10  8  1  0
 11 10  1  0
 11 12  1  1
 12 13  1  0
 13 18  2  0
 14 13  1  0
 14 15  2  0
 15 16  1  0
 16 17  2  0
 18 17  1  0
 19 11  1  0
 19 20  2  0
 22 21  1  6
 22 23  1  0
 23 19  1  0
 24 22  1  0
 25 24  2  0
 26 24  1  0
M  END
$$$$
