KFA.pdb
     RDKit          3D

 26 26  0  0  1  0  0  0  0  0999 V2000
    9.3315  -18.3766   20.6989 N   0  0  0  0  0  0  0  0  0  0  0  0
    9.1796  -18.5629   22.1515 C   0  0  1  0  0  0  0  0  0  0  0  0
   10.2335  -19.5147   22.6441 C   0  0  0  0  0  0  0  0  0  0  0  0
   10.7951  -20.4004   21.5824 C   0  0  0  0  0  0  0  0  0  0  0  0
   10.3851  -21.8499   21.7702 C   0  0  0  0  0  0  0  0  0  0  0  0
   11.0827  -22.7575   20.7884 C   0  0  0  0  0  0  0  0  0  0  0  0
   12.0250  -23.6518   21.4188 N   0  0  0  0  0  0  0  0  0  0  0  0
    9.1908  -17.2397   22.7872 C   0  0  0  0  0  0  0  0  0  0  0  0
   10.0379  -16.3974   22.4671 O   0  0  0  0  0  0  0  0  0  0  0  0
    8.2569  -16.8500   23.7830 N   0  0  0  0  0  0  0  0  0  0  0  0
    8.2672  -15.6095   24.4763 C   0  0  1  0  0  0  0  0  0  0  0  0
    7.0886  -15.3544   25.3540 C   0  0  0  0  0  0  0  0  0  0  0  0
    6.9428  -13.9846   25.8272 C   0  0  0  0  0  0  0  0  0  0  0  0
    6.4682  -12.9424   25.0900 C   0  0  0  0  0  0  0  0  0  0  0  0
    6.3621  -11.6850   25.6081 C   0  0  0  0  0  0  0  0  0  0  0  0
    6.7300  -11.4004   26.9079 C   0  0  0  0  0  0  0  0  0  0  0  0
    7.2133  -12.4448   27.6698 C   0  0  0  0  0  0  0  0  0  0  0  0
    7.3182  -13.7091   27.1438 C   0  0  0  0  0  0  0  0  0  0  0  0
    9.4795  -15.5772   25.3366 C   0  0  0  0  0  0  0  0  0  0  0  0
   10.5070  -14.9754   24.9502 O   0  0  0  0  0  0  0  0  0  0  0  0
   10.6595  -14.5422   27.9633 C   0  0  0  0  0  0  0  0  0  0  0  0
   10.6685  -15.9782   27.4795 C   0  0  2  0  0  0  0  0  0  0  0  0
    9.5396  -16.2062   26.6044 N   0  0  0  0  0  0  0  0  0  0  0  0
   10.6448  -16.8960   28.6460 C   0  0  0  0  0  0  0  0  0  0  0  0
    9.6612  -17.6658   28.7591 O   0  0  0  0  0  0  0  0  0  0  0  0
   11.6336  -16.9581   29.6141 O   0  0  0  0  0  0  0  0  0  0  0  0
  2  3  1  0
  2  1  1  6
  4  5  1  0
  4  3  1  0
  6  7  1  0
  6  5  1  0
  8  2  1  0
  9  8  2  0
 10  8  1  0
 11 10  1  0
 11 12  1  1
 12 13  1  0
 13 18  2  0
 14 13  1  0
 14 15  2  0
 15 16  1  0
 16 17  2  0
 18 17  1  0
 19 11  1  0
 19 20  2  0
 22 21  1  1
 22 23  1  0
 23 19  1  0
 24 22  1  0
 25 24  2  0
 26 24  1  0
M  END
$$$$
