PRG.pdb
     RDKit          3D

 23 23  0  0  1  0  0  0  0  0999 V2000
   22.1716  -21.8694  -13.2690 N   0  0  0  0  0  0  0  0  0  0  0  0
   20.7386  -21.9069  -13.1890 C   0  0  0  0  0  0  0  0  0  0  0  0
   20.2159  -20.5072  -13.4029 C   0  0  0  0  0  0  0  0  0  0  0  0
   21.4928  -19.6802  -13.1998 C   0  0  0  0  0  0  0  0  0  0  0  0
   22.4969  -20.6219  -13.8808 C   0  0  1  0  0  0  0  0  0  0  0  0
   23.8797  -20.1860  -13.6540 C   0  0  0  0  0  0  0  0  0  0  0  0
   24.2559  -19.0885  -14.1378 O   0  0  0  0  0  0  0  0  0  0  0  0
   30.5653  -23.1206   -8.8510 N   0  0  0  0  0  0  0  0  0  0  0  0
   31.0228  -21.9972   -9.6261 C   0  0  0  0  0  0  0  0  0  0  0  0
   32.2544  -21.9093   -9.9950 N   0  0  0  0  0  0  0  0  0  0  0  0
   30.1152  -20.9633   -9.9954 N   0  0  0  0  0  0  0  0  0  0  0  0
   28.6939  -21.1766  -10.1589 C   0  0  0  0  0  0  0  0  0  0  0  0
   28.3448  -21.2932  -11.6286 C   0  0  0  0  0  0  0  0  0  0  0  0
   26.8571  -21.4876  -11.7266 C   0  0  0  0  0  0  0  0  0  0  0  0
   26.2125  -20.6753  -12.8138 C   0  0  2  0  0  0  0  0  0  0  0  0
   24.7850  -20.9538  -12.9190 N   0  0  0  0  0  0  0  0  0  0  0  0
   26.8892  -20.7987  -14.1183 C   0  0  0  0  0  0  0  0  0  0  0  0
   26.9363  -21.8755  -14.7638 O   0  0  0  0  0  0  0  0  0  0  0  0
   32.6369  -21.0768  -10.4792 N   0  0  0  0  0  0  0  0  0  0  0  0
   27.5330  -19.6737  -14.7151 C   0  0  0  0  0  0  0  0  0  0  0  0
   28.3200  -19.7510  -15.9033 C   0  0  0  0  0  0  0  0  0  0  0  0
   27.5317  -19.4209  -17.1285 O   0  0  0  0  0  0  0  0  0  0  0  0
   28.2175  -19.3753  -18.3269 O   0  0  0  0  0  0  0  0  0  0  0  0
  2  1  1  0
  2  3  1  0
  4  3  1  0
  5  4  1  0
  5  6  1  1
  5  1  1  0
  6  7  2  0
  8  9  1  0
  9 11  1  0
 10  9  2  0
 11 12  1  0
 12 13  1  0
 14 13  1  0
 15 14  1  1
 15 17  1  0
 16  6  1  0
 16 15  1  0
 17 19  1  0
 17 18  2  0
 19 20  1  0
 21 22  1  0
 21 20  1  0
 23 21  2  0
M  END
$$$$
