PRG.pdb
     RDKit          3D

 23 23  0  0  1  0  0  0  0  0999 V2000
   27.3367  -19.0096  -18.1653 N   0  0  0  0  0  0  0  0  0  0  0  0
   28.3637  -18.5147  -19.0379 C   0  0  0  0  0  0  0  0  0  0  0  0
   29.4794  -19.5304  -19.0792 C   0  0  0  0  0  0  0  0  0  0  0  0
   29.1376  -20.3954  -17.8584 C   0  0  0  0  0  0  0  0  0  0  0  0
   27.6075  -20.3997  -17.9909 C   0  0  1  0  0  0  0  0  0  0  0  0
   26.9686  -20.9910  -16.8094 C   0  0  0  0  0  0  0  0  0  0  0  0
   26.7769  -22.2330  -16.7823 O   0  0  0  0  0  0  0  0  0  0  0  0
   23.9712  -19.7519   -9.9959 N   0  0  0  0  0  0  0  0  0  0  0  0
   24.7027  -20.7116   -9.2109 C   0  0  0  0  0  0  0  0  0  0  0  0
   24.2406  -21.1290   -8.0828 N   0  0  0  0  0  0  0  0  0  0  0  0
   25.9530  -21.2130   -9.6739 N   0  0  0  0  0  0  0  0  0  0  0  0
   26.6113  -20.7245  -10.8657 C   0  0  0  0  0  0  0  0  0  0  0  0
   25.7735  -21.0270  -12.0912 C   0  0  0  0  0  0  0  0  0  0  0  0
   26.5399  -20.5485  -13.2931 C   0  0  0  0  0  0  0  0  0  0  0  0
   25.7959  -20.7127  -14.5880 C   0  0  2  0  0  0  0  0  0  0  0  0
   26.5693  -20.2150  -15.7197 N   0  0  0  0  0  0  0  0  0  0  0  0
   24.4379  -20.1383  -14.5615 C   0  0  0  0  0  0  0  0  0  0  0  0
   24.2192  -18.9089  -14.4237 O   0  0  0  0  0  0  0  0  0  0  0  0
   24.7351  -21.8267   -7.4976 N   0  0  0  0  0  0  0  0  0  0  0  0
   23.2896  -20.9750  -14.6950 C   0  0  0  0  0  0  0  0  0  0  0  0
   21.9501  -20.4826  -14.7149 C   0  0  0  0  0  0  0  0  0  0  0  0
   21.2263  -20.7552  -13.4368 O   0  0  0  0  0  0  0  0  0  0  0  0
   19.9179  -20.3206  -13.3475 O   0  0  0  0  0  0  0  0  0  0  0  0
  2  1  1  0
  2  3  1  0
  4  3  1  0
  5  4  1  0
  5  6  1  1
  5  1  1  0
  6  7  2  0
  8  9  1  0
  9 11  1  0
 10  9  2  0
 11 12  1  0
 12 13  1  0
 14 13  1  0
 15 14  1  1
 15 17  1  0
 16  6  1  0
 16 15  1  0
 17 19  1  0
 17 18  2  0
 19 20  1  0
 21 22  1  0
 21 20  1  0
 23 21  2  0
M  END
$$$$
