PRG.pdb
     RDKit          3D

 23 23  0  0  1  0  0  0  0  0999 V2000
   28.1437  -19.6080  -18.4299 N   0  0  0  0  0  0  0  0  0  0  0  0
   29.1620  -19.4675  -19.4321 C   0  0  0  0  0  0  0  0  0  0  0  0
   29.8155  -20.8129  -19.6345 C   0  0  0  0  0  0  0  0  0  0  0  0
   29.3380  -21.5649  -18.3848 C   0  0  0  0  0  0  0  0  0  0  0  0
   27.9083  -21.0099  -18.3049 C   0  0  1  0  0  0  0  0  0  0  0  0
   27.2516  -21.3976  -17.0510 C   0  0  0  0  0  0  0  0  0  0  0  0
   26.5693  -22.4530  -17.0259 O   0  0  0  0  0  0  0  0  0  0  0  0
   26.3453  -20.4686   -8.7984 N   0  0  0  0  0  0  0  0  0  0  0  0
   25.0794  -20.7665   -9.4157 C   0  0  0  0  0  0  0  0  0  0  0  0
   23.9736  -20.5313   -8.7974 N   0  0  0  0  0  0  0  0  0  0  0  0
   25.0341  -21.3288  -10.7236 N   0  0  0  0  0  0  0  0  0  0  0  0
   26.2107  -21.5372  -11.5388 C   0  0  0  0  0  0  0  0  0  0  0  0
   26.6069  -20.2487  -12.2302 C   0  0  0  0  0  0  0  0  0  0  0  0
   27.4183  -20.6158  -13.4416 C   0  0  0  0  0  0  0  0  0  0  0  0
   26.5911  -20.8511  -14.6736 C   0  0  2  0  0  0  0  0  0  0  0  0
   27.3634  -20.6295  -15.8906 N   0  0  0  0  0  0  0  0  0  0  0  0
   25.3266  -20.0923  -14.6852 C   0  0  0  0  0  0  0  0  0  0  0  0
   25.2671  -18.8608  -14.4437 O   0  0  0  0  0  0  0  0  0  0  0  0
   23.0452  -20.7267   -9.2142 N   0  0  0  0  0  0  0  0  0  0  0  0
   24.0897  -20.7409  -14.9784 C   0  0  0  0  0  0  0  0  0  0  0  0
   22.8297  -20.0707  -14.9953 C   0  0  0  0  0  0  0  0  0  0  0  0
   22.0772  -20.2447  -13.7166 O   0  0  0  0  0  0  0  0  0  0  0  0
   21.0007  -21.1105  -13.7307 O   0  0  0  0  0  0  0  0  0  0  0  0
  2  1  1  0
  2  3  1  0
  4  3  1  0
  5  4  1  0
  5  6  1  1
  5  1  1  0
  6  7  2  0
  8  9  1  0
  9 11  1  0
 10  9  2  0
 11 12  1  0
 12 13  1  0
 14 13  1  0
 15 14  1  1
 15 17  1  0
 16  6  1  0
 16 15  1  0
 17 19  1  0
 17 18  2  0
 19 20  1  0
 21 22  1  0
 21 20  1  0
 23 21  2  0
M  END
$$$$
