PRG.pdb
     RDKit          3D

 23 23  0  0  1  0  0  0  0  0999 V2000
   27.4336  -17.5178  -17.6035 N   0  0  0  0  0  0  0  0  0  0  0  0
   28.4448  -16.8957  -18.4108 C   0  0  0  0  0  0  0  0  0  0  0  0
   29.4469  -17.9513  -18.8104 C   0  0  0  0  0  0  0  0  0  0  0  0
   29.1016  -19.0756  -17.8244 C   0  0  0  0  0  0  0  0  0  0  0  0
   27.5736  -18.9222  -17.8142 C   0  0  1  0  0  0  0  0  0  0  0  0
   26.9585  -19.7489  -16.7693 C   0  0  0  0  0  0  0  0  0  0  0  0
   26.9673  -20.9989  -16.9025 O   0  0  0  0  0  0  0  0  0  0  0  0
   23.8231  -20.3232   -9.8374 N   0  0  0  0  0  0  0  0  0  0  0  0
   25.0114  -20.7664   -9.1563 C   0  0  0  0  0  0  0  0  0  0  0  0
   25.1324  -20.6222   -7.8815 N   0  0  0  0  0  0  0  0  0  0  0  0
   26.0735  -21.3716   -9.8875 N   0  0  0  0  0  0  0  0  0  0  0  0
   26.7127  -20.7444  -11.0234 C   0  0  0  0  0  0  0  0  0  0  0  0
   25.7807  -20.7440  -12.2179 C   0  0  0  0  0  0  0  0  0  0  0  0
   26.4860  -20.0377  -13.3423 C   0  0  0  0  0  0  0  0  0  0  0  0
   25.6729  -19.9469  -14.6025 C   0  0  2  0  0  0  0  0  0  0  0  0
   26.3661  -19.1876  -15.6366 N   0  0  0  0  0  0  0  0  0  0  0  0
   24.3041  -19.4440  -14.3827 C   0  0  0  0  0  0  0  0  0  0  0  0
   24.0614  -18.3527  -13.8095 O   0  0  0  0  0  0  0  0  0  0  0  0
   25.9795  -20.9156   -7.3617 N   0  0  0  0  0  0  0  0  0  0  0  0
   23.1724  -20.1937  -14.8229 C   0  0  0  0  0  0  0  0  0  0  0  0
   21.8225  -19.7637  -14.6494 C   0  0  0  0  0  0  0  0  0  0  0  0
   21.0747  -20.6191  -13.6796 O   0  0  0  0  0  0  0  0  0  0  0  0
   19.7634  -20.2742  -13.4146 O   0  0  0  0  0  0  0  0  0  0  0  0
  2  1  1  0
  2  3  1  0
  4  3  1  0
  5  4  1  0
  5  6  1  1
  5  1  1  0
  6  7  2  0
  8  9  1  0
  9 11  1  0
 10  9  2  0
 11 12  1  0
 12 13  1  0
 14 13  1  0
 15 14  1  1
 15 17  1  0
 16  6  1  0
 16 15  1  0
 17 19  1  0
 17 18  2  0
 19 20  1  0
 21 22  1  0
 21 20  1  0
 23 21  2  0
M  END
$$$$
