PRG.pdb
     RDKit          3D

 23 23  0  0  1  0  0  0  0  0999 V2000
   27.9240  -20.6572  -16.6395 N   0  0  0  0  0  0  0  0  0  0  0  0
   29.0621  -20.8116  -17.5011 C   0  0  0  0  0  0  0  0  0  0  0  0
   29.4403  -22.2725  -17.5282 C   0  0  0  0  0  0  0  0  0  0  0  0
   28.6700  -22.8003  -16.3102 C   0  0  0  0  0  0  0  0  0  0  0  0
   27.3883  -21.9676  -16.4600 C   0  0  1  0  0  0  0  0  0  0  0  0
   26.5197  -22.1040  -15.2851 C   0  0  0  0  0  0  0  0  0  0  0  0
   26.0023  -23.2233  -15.0411 O   0  0  0  0  0  0  0  0  0  0  0  0
   21.2873  -19.8252   -9.8966 N   0  0  0  0  0  0  0  0  0  0  0  0
   22.1824  -20.6589   -9.1377 C   0  0  0  0  0  0  0  0  0  0  0  0
   21.9763  -20.8767   -7.8844 N   0  0  0  0  0  0  0  0  0  0  0  0
   23.3130  -21.2553   -9.7661 N   0  0  0  0  0  0  0  0  0  0  0  0
   24.4412  -20.4943  -10.2565 C   0  0  0  0  0  0  0  0  0  0  0  0
   25.5152  -21.4248  -10.7821 C   0  0  0  0  0  0  0  0  0  0  0  0
   26.1144  -20.7814  -12.0018 C   0  0  0  0  0  0  0  0  0  0  0  0
   25.3749  -21.0911  -13.2725 C   0  0  2  0  0  0  0  0  0  0  0  0
   26.2533  -21.0292  -14.4349 N   0  0  0  0  0  0  0  0  0  0  0  0
   24.1634  -20.2716  -13.4610 C   0  0  0  0  0  0  0  0  0  0  0  0
   24.1690  -19.0175  -13.3867 O   0  0  0  0  0  0  0  0  0  0  0  0
   22.6106  -21.4548   -7.3037 N   0  0  0  0  0  0  0  0  0  0  0  0
   22.9055  -20.8839  -13.7425 C   0  0  0  0  0  0  0  0  0  0  0  0
   21.7072  -20.1502  -13.9937 C   0  0  0  0  0  0  0  0  0  0  0  0
   20.5558  -20.6496  -13.1835 O   0  0  0  0  0  0  0  0  0  0  0  0
   19.3737  -19.9390  -13.2620 O   0  0  0  0  0  0  0  0  0  0  0  0
  2  1  1  0
  2  3  1  0
  4  3  1  0
  5  4  1  0
  5  6  1  1
  5  1  1  0
  6  7  2  0
  8  9  1  0
  9 11  1  0
 10  9  2  0
 11 12  1  0
 12 13  1  0
 14 13  1  0
 15 14  1  1
 15 17  1  0
 16  6  1  0
 16 15  1  0
 17 19  1  0
 17 18  2  0
 19 20  1  0
 21 22  1  0
 21 20  1  0
 23 21  2  0
M  END
$$$$
