PRG.pdb
     RDKit          3D

 23 23  0  0  1  0  0  0  0  0999 V2000
   24.8606  -20.6924  -12.4159 N   0  0  0  0  0  0  0  0  0  0  0  0
   25.3717  -21.8948  -11.8206 C   0  0  0  0  0  0  0  0  0  0  0  0
   26.2543  -22.5852  -12.8318 C   0  0  0  0  0  0  0  0  0  0  0  0
   25.8440  -21.8650  -14.1235 C   0  0  0  0  0  0  0  0  0  0  0  0
   25.6752  -20.4458  -13.5613 C   0  0  1  0  0  0  0  0  0  0  0  0
   25.0651  -19.5471  -14.5480 C   0  0  0  0  0  0  0  0  0  0  0  0
   25.6905  -19.2997  -15.6100 O   0  0  0  0  0  0  0  0  0  0  0  0
   19.1325  -21.8885  -12.4341 N   0  0  0  0  0  0  0  0  0  0  0  0
   19.6360  -22.5191  -13.6262 C   0  0  0  0  0  0  0  0  0  0  0  0
   19.4035  -23.7646  -13.8609 N   0  0  0  0  0  0  0  0  0  0  0  0
   20.4024  -21.7702  -14.5647 N   0  0  0  0  0  0  0  0  0  0  0  0
   20.7015  -20.3643  -14.4024 C   0  0  0  0  0  0  0  0  0  0  0  0
   21.3877  -19.8258  -15.6412 C   0  0  0  0  0  0  0  0  0  0  0  0
   21.6856  -18.3722  -15.3982 C   0  0  0  0  0  0  0  0  0  0  0  0
   23.1523  -18.0677  -15.2828 C   0  0  2  0  0  0  0  0  0  0  0  0
   23.8148  -18.9617  -14.3402 N   0  0  0  0  0  0  0  0  0  0  0  0
   23.4359  -16.6521  -14.9821 C   0  0  0  0  0  0  0  0  0  0  0  0
   22.6377  -15.9149  -14.3515 O   0  0  0  0  0  0  0  0  0  0  0  0
   19.7736  -24.2571  -14.6941 N   0  0  0  0  0  0  0  0  0  0  0  0
   24.6575  -16.0474  -15.4048 C   0  0  0  0  0  0  0  0  0  0  0  0
   25.0201  -14.7008  -15.1011 C   0  0  0  0  0  0  0  0  0  0  0  0
   24.6935  -13.7603  -16.2149 O   0  0  0  0  0  0  0  0  0  0  0  0
   25.0983  -12.4473  -16.0713 O   0  0  0  0  0  0  0  0  0  0  0  0
  2  1  1  0
  2  3  1  0
  4  3  1  0
  5  4  1  0
  5  6  1  6
  5  1  1  0
  6  7  2  0
  8  9  1  0
  9 11  1  0
 10  9  2  0
 11 12  1  0
 12 13  1  0
 14 13  1  0
 15 14  1  1
 15 17  1  0
 16  6  1  0
 16 15  1  0
 17 19  1  0
 17 18  2  0
 19 20  1  0
 21 22  1  0
 21 20  1  0
 23 21  2  0
M  END
$$$$
