PRG.pdb
     RDKit          3D

 23 23  0  0  1  0  0  0  0  0999 V2000
   37.1658   -9.4603  -15.6290 N   0  0  0  0  0  0  0  0  0  0  0  0
   36.5639  -10.0854  -16.7727 C   0  0  0  0  0  0  0  0  0  0  0  0
   35.0990  -10.2993  -16.4788 C   0  0  0  0  0  0  0  0  0  0  0  0
   35.0716  -10.1080  -14.9563 C   0  0  0  0  0  0  0  0  0  0  0  0
   36.0854   -8.9600  -14.8424 C   0  0  1  0  0  0  0  0  0  0  0  0
   36.4370   -8.6917  -13.4432 C   0  0  0  0  0  0  0  0  0  0  0  0
   35.5326   -8.3246  -12.6511 O   0  0  0  0  0  0  0  0  0  0  0  0
   42.8205  -12.0184   -8.2144 N   0  0  0  0  0  0  0  0  0  0  0  0
   42.0162  -11.1538   -7.3911 C   0  0  0  0  0  0  0  0  0  0  0  0
   42.1566  -11.1464   -6.1101 N   0  0  0  0  0  0  0  0  0  0  0  0
   41.0498  -10.2927   -7.9855 N   0  0  0  0  0  0  0  0  0  0  0  0
   40.6839  -10.3562   -9.3835 C   0  0  0  0  0  0  0  0  0  0  0  0
   39.5772   -9.3659   -9.6834 C   0  0  0  0  0  0  0  0  0  0  0  0
   39.1821   -9.5505  -11.1224 C   0  0  0  0  0  0  0  0  0  0  0  0
   38.1610   -8.5573  -11.6001 C   0  0  2  0  0  0  0  0  0  0  0  0
   37.7429   -8.8321  -12.9698 N   0  0  0  0  0  0  0  0  0  0  0  0
   38.5828   -7.1543  -11.4305 C   0  0  0  0  0  0  0  0  0  0  0  0
   39.2776   -6.5428  -12.2801 O   0  0  0  0  0  0  0  0  0  0  0  0
   41.6490  -10.4858   -5.4939 N   0  0  0  0  0  0  0  0  0  0  0  0
   38.2100   -6.4164  -10.2673 C   0  0  0  0  0  0  0  0  0  0  0  0
   38.5480   -5.0455  -10.0583 C   0  0  0  0  0  0  0  0  0  0  0  0
   39.8360   -4.8851   -9.3188 O   0  0  0  0  0  0  0  0  0  0  0  0
   40.2674   -3.5954   -9.0753 O   0  0  0  0  0  0  0  0  0  0  0  0
  2  1  1  0
  2  3  1  0
  4  3  1  0
  5  4  1  0
  5  6  1  1
  5  1  1  0
  6  7  2  0
  8  9  1  0
  9 11  1  0
 10  9  2  0
 11 12  1  0
 12 13  1  0
 14 13  1  0
 15 14  1  6
 15 17  1  0
 16  6  1  0
 16 15  1  0
 17 19  1  0
 17 18  2  0
 19 20  1  0
 21 22  1  0
 21 20  1  0
 23 21  2  0
M  END
$$$$
