PRG.pdb
     RDKit          3D

 23 23  0  0  1  0  0  0  0  0999 V2000
   24.4550  -20.5621   -8.7498 N   0  0  0  0  0  0  0  0  0  0  0  0
   23.2952  -20.9032   -7.9755 C   0  0  0  0  0  0  0  0  0  0  0  0
   22.1482  -21.1502   -8.9250 C   0  0  0  0  0  0  0  0  0  0  0  0
   22.6923  -20.5232  -10.2158 C   0  0  0  0  0  0  0  0  0  0  0  0
   24.1606  -20.9552  -10.0896 C   0  0  1  0  0  0  0  0  0  0  0  0
   24.9999  -20.3052  -11.1029 C   0  0  0  0  0  0  0  0  0  0  0  0
   25.1953  -19.0660  -11.0233 O   0  0  0  0  0  0  0  0  0  0  0  0
   31.9270  -22.3200  -10.4026 N   0  0  0  0  0  0  0  0  0  0  0  0
   30.6967  -21.7611   -9.9063 C   0  0  0  0  0  0  0  0  0  0  0  0
   30.5967  -21.3717   -8.6820 N   0  0  0  0  0  0  0  0  0  0  0  0
   29.5690  -21.6322  -10.7669 N   0  0  0  0  0  0  0  0  0  0  0  0
   29.6796  -21.4519  -12.1978 C   0  0  0  0  0  0  0  0  0  0  0  0
   28.7307  -20.3679  -12.6667 C   0  0  0  0  0  0  0  0  0  0  0  0
   27.6468  -21.0314  -13.4703 C   0  0  0  0  0  0  0  0  0  0  0  0
   26.2889  -20.4191  -13.2737 C   0  0  2  0  0  0  0  0  0  0  0  0
   25.5845  -21.0223  -12.1484 N   0  0  0  0  0  0  0  0  0  0  0  0
   25.4632  -20.4178  -14.4957 C   0  0  0  0  0  0  0  0  0  0  0  0
   24.6744  -21.3510  -14.7877 O   0  0  0  0  0  0  0  0  0  0  0  0
   29.7458  -20.9152   -8.3062 N   0  0  0  0  0  0  0  0  0  0  0  0
   25.5276  -19.3308  -15.4180 C   0  0  0  0  0  0  0  0  0  0  0  0
   24.4087  -18.5105  -15.7532 C   0  0  0  0  0  0  0  0  0  0  0  0
   23.2400  -19.3112  -16.2273 O   0  0  0  0  0  0  0  0  0  0  0  0
   23.1955  -19.6280  -17.5712 O   0  0  0  0  0  0  0  0  0  0  0  0
  2  1  1  0
  2  3  1  0
  4  3  1  0
  5  4  1  0
  5  6  1  6
  5  1  1  0
  6  7  2  0
  8  9  1  0
  9 11  1  0
 10  9  2  0
 11 12  1  0
 12 13  1  0
 14 13  1  0
 15 14  1  6
 15 17  1  0
 16  6  1  0
 16 15  1  0
 17 19  1  0
 17 18  2  0
 19 20  1  0
 21 22  1  0
 21 20  1  0
 23 21  2  0
M  END
$$$$
