PRG.pdb
     RDKit          3D

 23 23  0  0  1  0  0  0  0  0999 V2000
   26.6356  -16.0463  -15.8227 N   0  0  0  0  0  0  0  0  0  0  0  0
   27.4524  -14.9788  -16.3272 C   0  0  0  0  0  0  0  0  0  0  0  0
   28.5040  -15.5743  -17.2315 C   0  0  0  0  0  0  0  0  0  0  0  0
   28.4235  -17.0568  -16.8427 C   0  0  0  0  0  0  0  0  0  0  0  0
   26.9032  -17.1721  -16.6578 C   0  0  1  0  0  0  0  0  0  0  0  0
   26.5315  -18.4611  -16.0628 C   0  0  0  0  0  0  0  0  0  0  0  0
   26.5708  -19.4929  -16.7798 O   0  0  0  0  0  0  0  0  0  0  0  0
   23.4678  -20.4893   -9.2776 N   0  0  0  0  0  0  0  0  0  0  0  0
   24.7323  -20.9147   -8.7369 C   0  0  0  0  0  0  0  0  0  0  0  0
   24.9628  -20.8488   -7.4708 N   0  0  0  0  0  0  0  0  0  0  0  0
   25.7493  -21.4150   -9.5996 N   0  0  0  0  0  0  0  0  0  0  0  0
   26.3506  -20.6303  -10.6555 C   0  0  0  0  0  0  0  0  0  0  0  0
   25.9244  -21.1570  -12.0106 C   0  0  0  0  0  0  0  0  0  0  0  0
   26.5882  -20.3051  -13.0568 C   0  0  0  0  0  0  0  0  0  0  0  0
   25.6444  -19.7976  -14.1099 C   0  0  2  0  0  0  0  0  0  0  0  0
   26.1368  -18.5722  -14.7283 N   0  0  0  0  0  0  0  0  0  0  0  0
   24.2575  -19.6470  -13.6316 C   0  0  0  0  0  0  0  0  0  0  0  0
   23.9352  -18.8567  -12.7097 O   0  0  0  0  0  0  0  0  0  0  0  0
   25.8930  -21.0460   -7.0589 N   0  0  0  0  0  0  0  0  0  0  0  0
   23.1997  -20.4104  -14.2103 C   0  0  0  0  0  0  0  0  0  0  0  0
   21.8372  -20.3152  -13.7961 C   0  0  0  0  0  0  0  0  0  0  0  0
   21.3791  -21.5361  -13.0672 O   0  0  0  0  0  0  0  0  0  0  0  0
   20.0727  -21.5499  -12.6181 O   0  0  0  0  0  0  0  0  0  0  0  0
  2  1  1  0
  2  3  1  0
  4  3  1  0
  5  4  1  0
  5  6  1  1
  5  1  1  0
  6  7  2  0
  8  9  1  0
  9 11  1  0
 10  9  2  0
 11 12  1  0
 12 13  1  0
 14 13  1  0
 15 14  1  1
 15 17  1  0
 16  6  1  0
 16 15  1  0
 17 19  1  0
 17 18  2  0
 19 20  1  0
 21 22  1  0
 21 20  1  0
 23 21  2  0
M  END
$$$$
