PRG.pdb
     RDKit          3D

 23 23  0  0  1  0  0  0  0  0999 V2000
   22.7284  -21.4233  -14.6148 N   0  0  0  0  0  0  0  0  0  0  0  0
   21.3184  -21.6149  -14.4240 C   0  0  0  0  0  0  0  0  0  0  0  0
   20.7000  -20.2786  -14.0923 C   0  0  0  0  0  0  0  0  0  0  0  0
   21.9454  -19.4575  -13.7315 C   0  0  0  0  0  0  0  0  0  0  0  0
   22.9133  -20.0185  -14.7837 C   0  0  1  0  0  0  0  0  0  0  0  0
   24.2876  -19.5622  -14.5456 C   0  0  0  0  0  0  0  0  0  0  0  0
   24.5360  -18.3314  -14.6052 O   0  0  0  0  0  0  0  0  0  0  0  0
   25.9136  -19.5127   -8.4744 N   0  0  0  0  0  0  0  0  0  0  0  0
   25.1156  -20.6227   -8.9255 C   0  0  0  0  0  0  0  0  0  0  0  0
   23.8669  -20.7042   -8.6178 N   0  0  0  0  0  0  0  0  0  0  0  0
   25.7002  -21.6500   -9.7205 N   0  0  0  0  0  0  0  0  0  0  0  0
   25.8070  -21.5743  -11.1610 C   0  0  0  0  0  0  0  0  0  0  0  0
   26.7704  -20.4754  -11.5604 C   0  0  0  0  0  0  0  0  0  0  0  0
   27.3320  -20.8334  -12.9084 C   0  0  0  0  0  0  0  0  0  0  0  0
   26.7122  -20.0681  -14.0431 C   0  0  2  0  0  0  0  0  0  0  0  0
   25.3222  -20.4539  -14.2564 N   0  0  0  0  0  0  0  0  0  0  0  0
   27.4938  -20.1347  -15.2920 C   0  0  0  0  0  0  0  0  0  0  0  0
   27.4806  -21.1340  -16.0532 O   0  0  0  0  0  0  0  0  0  0  0  0
   23.2583  -21.4771   -8.9433 N   0  0  0  0  0  0  0  0  0  0  0  0
   28.3161  -19.0408  -15.6967 C   0  0  0  0  0  0  0  0  0  0  0  0
   27.8362  -17.9261  -16.4479 C   0  0  0  0  0  0  0  0  0  0  0  0
   27.4952  -18.2946  -17.8549 O   0  0  0  0  0  0  0  0  0  0  0  0
   27.7820  -17.3667  -18.8374 O   0  0  0  0  0  0  0  0  0  0  0  0
  2  1  1  0
  2  3  1  0
  4  3  1  0
  5  4  1  0
  5  6  1  1
  5  1  1  0
  6  7  2  0
  8  9  1  0
  9 11  1  0
 10  9  2  0
 11 12  1  0
 12 13  1  0
 14 13  1  0
 15 14  1  1
 15 17  1  0
 16  6  1  0
 16 15  1  0
 17 19  1  0
 17 18  2  0
 19 20  1  0
 21 22  1  0
 21 20  1  0
 23 21  2  0
M  END
$$$$
