WFP.pdb
     RDKit          3D

 33 36  0  0  1  0  0  0  0  0999 V2000
    7.7291  -16.5552   21.2466 N   0  0  0  0  0  0  0  0  0  0  0  0
    8.4922  -15.3673   21.4639 C   0  0  1  0  0  0  0  0  0  0  0  0
    8.1742  -14.3138   20.4462 C   0  0  0  0  0  0  0  0  0  0  0  0
    9.1424  -14.1666   19.3658 C   0  0  0  0  0  0  0  0  0  0  0  0
    8.8898  -13.9199   18.0433 C   0  0  0  0  0  0  0  0  0  0  0  0
   10.0305  -13.8125   17.3499 N   0  0  0  0  0  0  0  0  0  0  0  0
   11.0399  -13.9909   18.2200 C   0  0  0  0  0  0  0  0  0  0  0  0
   12.3907  -13.9668   17.9499 C   0  0  0  0  0  0  0  0  0  0  0  0
   13.2635  -14.1761   18.9930 C   0  0  0  0  0  0  0  0  0  0  0  0
   12.7753  -14.4060   20.2814 C   0  0  0  0  0  0  0  0  0  0  0  0
   11.4176  -14.4231   20.5143 C   0  0  0  0  0  0  0  0  0  0  0  0
   10.5209  -14.2155   19.4926 C   0  0  0  0  0  0  0  0  0  0  0  0
    8.2291  -14.8530   22.8495 C   0  0  0  0  0  0  0  0  0  0  0  0
    7.6043  -13.7966   23.0256 O   0  0  0  0  0  0  0  0  0  0  0  0
    8.6643  -15.5135   23.9977 N   0  0  0  0  0  0  0  0  0  0  0  0
    8.5409  -15.0997   25.3677 C   0  0  1  0  0  0  0  0  0  0  0  0
    7.2119  -15.1583   25.9736 C   0  0  0  0  0  0  0  0  0  0  0  0
    6.7275  -13.7543   26.2756 C   0  0  0  0  0  0  0  0  0  0  0  0
    5.4175  -13.4398   26.0070 C   0  0  0  0  0  0  0  0  0  0  0  0
    4.9364  -12.1524   26.2729 C   0  0  0  0  0  0  0  0  0  0  0  0
    5.7690  -11.1826   26.8071 C   0  0  0  0  0  0  0  0  0  0  0  0
    7.0822  -11.5122   27.0712 C   0  0  0  0  0  0  0  0  0  0  0  0
    7.5307  -12.7953   26.7985 C   0  0  0  0  0  0  0  0  0  0  0  0
    9.5605  -15.8797   26.0992 C   0  0  0  0  0  0  0  0  0  0  0  0
    9.8016  -17.0660   25.6494 O   0  0  0  0  0  0  0  0  0  0  0  0
   10.2946  -15.4334   27.2522 N   0  0  0  0  0  0  0  0  0  0  0  0
   10.3476  -14.1429   27.8660 C   0  0  0  0  0  0  0  0  0  0  0  0
   11.5201  -14.2163   28.8648 C   0  0  0  0  0  0  0  0  0  0  0  0
   11.4642  -15.6682   29.2723 C   0  0  0  0  0  0  0  0  0  0  0  0
   11.1672  -16.3395   27.9568 C   0  0  1  0  0  0  0  0  0  0  0  0
   10.5213  -17.6605   28.2428 C   0  0  0  0  0  0  0  0  0  0  0  0
    9.2207  -17.9166   27.9340 O   0  0  0  0  0  0  0  0  0  0  0  0
   11.2279  -18.5404   28.7877 O   0  0  0  0  0  0  0  0  0  0  0  0
  2  1  1  6
  2 13  1  0
  2  3  1  0
  4  3  1  0
  4  5  2  0
  6  5  1  0
  7  6  1  0
  8  7  2  0
  9  8  1  0
 10  9  2  0
 10 11  1  0
 11 12  2  0
 12  7  1  0
 12  4  1  0
 13 14  2  0
 15 16  1  0
 15 13  1  0
 16 17  1  1
 18 17  1  0
 19 18  2  0
 20 19  1  0
 21 20  2  0
 21 22  1  0
 22 23  2  0
 23 18  1  0
 24 25  2  0
 24 16  1  0
 26 24  1  0
 27 26  1  0
 28 27  1  0
 28 29  1  0
 29 30  1  0
 30 26  1  0
 30 31  1  1
 32 31  1  0
 33 31  2  0
M  END
$$$$
