WFP.pdb
     RDKit          3D

 33 36  0  0  1  0  0  0  0  0999 V2000
    4.4722  -19.2268   21.4584 N   0  0  0  0  0  0  0  0  0  0  0  0
    5.7859  -18.8733   21.8945 C   0  0  1  0  0  0  0  0  0  0  0  0
    6.7510  -18.8186   20.7490 C   0  0  0  0  0  0  0  0  0  0  0  0
    7.0029  -20.0865   20.0743 C   0  0  0  0  0  0  0  0  0  0  0  0
    6.8991  -20.3580   18.7367 C   0  0  0  0  0  0  0  0  0  0  0  0
    7.2438  -21.6259   18.4773 N   0  0  0  0  0  0  0  0  0  0  0  0
    7.5750  -22.1930   19.6505 C   0  0  0  0  0  0  0  0  0  0  0  0
    7.9915  -23.4888   19.8647 C   0  0  0  0  0  0  0  0  0  0  0  0
    8.2818  -23.8708   21.1545 C   0  0  0  0  0  0  0  0  0  0  0  0
    8.1505  -22.9577   22.2033 C   0  0  0  0  0  0  0  0  0  0  0  0
    7.7313  -21.6698   21.9515 C   0  0  0  0  0  0  0  0  0  0  0  0
    7.4357  -21.2582   20.6732 C   0  0  0  0  0  0  0  0  0  0  0  0
    5.7365  -17.5497   22.6011 C   0  0  0  0  0  0  0  0  0  0  0  0
    5.2114  -16.5634   22.0636 O   0  0  0  0  0  0  0  0  0  0  0  0
    6.2694  -17.3504   23.8740 N   0  0  0  0  0  0  0  0  0  0  0  0
    6.6089  -16.1116   24.5168 C   0  0  1  0  0  0  0  0  0  0  0  0
    6.3349  -15.9963   25.9481 C   0  0  0  0  0  0  0  0  0  0  0  0
    6.5927  -14.5737   26.4029 C   0  0  0  0  0  0  0  0  0  0  0  0
    7.8388  -14.2542   26.8848 C   0  0  0  0  0  0  0  0  0  0  0  0
    8.1117  -12.9501   27.3143 C   0  0  0  0  0  0  0  0  0  0  0  0
    7.1353  -11.9689   27.2603 C   0  0  0  0  0  0  0  0  0  0  0  0
    5.8884  -12.3040   26.7748 C   0  0  0  0  0  0  0  0  0  0  0  0
    5.6470  -13.6032   26.3558 C   0  0  0  0  0  0  0  0  0  0  0  0
    8.0226  -15.8685   24.1627 C   0  0  0  0  0  0  0  0  0  0  0  0
    8.8922  -16.6386   24.7272 O   0  0  0  0  0  0  0  0  0  0  0  0
    8.5020  -14.8611   23.2555 N   0  0  0  0  0  0  0  0  0  0  0  0
    7.8018  -13.7904   22.6167 C   0  0  0  0  0  0  0  0  0  0  0  0
    8.7743  -13.2491   21.5494 C   0  0  0  0  0  0  0  0  0  0  0  0
   10.1052  -13.5010   22.2146 C   0  0  0  0  0  0  0  0  0  0  0  0
    9.8810  -14.8554   22.8347 C   0  0  1  0  0  0  0  0  0  0  0  0
   10.8362  -15.0085   23.9785 C   0  0  0  0  0  0  0  0  0  0  0  0
   10.4166  -15.0941   25.2704 O   0  0  0  0  0  0  0  0  0  0  0  0
   12.0583  -15.0547   23.7052 O   0  0  0  0  0  0  0  0  0  0  0  0
  2  1  1  6
  2 13  1  0
  2  3  1  0
  4  3  1  0
  4  5  2  0
  6  5  1  0
  7  6  1  0
  8  7  2  0
  9  8  1  0
 10  9  2  0
 10 11  1  0
 11 12  2  0
 12  7  1  0
 12  4  1  0
 13 14  2  0
 15 16  1  0
 15 13  1  0
 16 17  1  1
 18 17  1  0
 19 18  2  0
 20 19  1  0
 21 20  2  0
 21 22  1  0
 22 23  2  0
 23 18  1  0
 24 25  2  0
 24 16  1  0
 26 24  1  0
 27 26  1  0
 28 27  1  0
 28 29  1  0
 29 30  1  0
 30 26  1  0
 30 31  1  1
 32 31  1  0
 33 31  2  0
M  END
$$$$
