WFP.pdb
     RDKit          3D

 33 36  0  0  1  0  0  0  0  0999 V2000
    7.6368  -18.5564   21.9232 N   0  0  0  0  0  0  0  0  0  0  0  0
    7.8361  -17.1683   21.6509 C   0  0  1  0  0  0  0  0  0  0  0  0
    7.0435  -16.7206   20.4601 C   0  0  0  0  0  0  0  0  0  0  0  0
    7.6962  -15.7415   19.5989 C   0  0  0  0  0  0  0  0  0  0  0  0
    8.1530  -15.9231   18.3213 C   0  0  0  0  0  0  0  0  0  0  0  0
    8.6651  -14.7873   17.8301 N   0  0  0  0  0  0  0  0  0  0  0  0
    8.5463  -13.8530   18.7896 C   0  0  0  0  0  0  0  0  0  0  0  0
    8.9416  -12.5346   18.7264 C   0  0  0  0  0  0  0  0  0  0  0  0
    8.7280  -11.7409   19.8300 C   0  0  0  0  0  0  0  0  0  0  0  0
    8.1276  -12.2745   20.9727 C   0  0  0  0  0  0  0  0  0  0  0  0
    7.7451  -13.5977   21.0000 C   0  0  0  0  0  0  0  0  0  0  0  0
    7.9439  -14.4151   19.9122 C   0  0  0  0  0  0  0  0  0  0  0  0
    7.4606  -16.3644   22.8619 C   0  0  0  0  0  0  0  0  0  0  0  0
    6.7451  -15.3572   22.7573 O   0  0  0  0  0  0  0  0  0  0  0  0
    7.8864  -16.6902   24.1490 N   0  0  0  0  0  0  0  0  0  0  0  0
    8.0053  -15.8322   25.2949 C   0  0  1  0  0  0  0  0  0  0  0  0
    6.8112  -15.6291   26.1131 C   0  0  0  0  0  0  0  0  0  0  0  0
    6.5936  -14.1461   26.3372 C   0  0  0  0  0  0  0  0  0  0  0  0
    5.4499  -13.5682   25.8421 C   0  0  0  0  0  0  0  0  0  0  0  0
    5.2169  -12.2007   26.0301 C   0  0  0  0  0  0  0  0  0  0  0  0
    6.1304  -11.4151   26.7136 C   0  0  0  0  0  0  0  0  0  0  0  0
    7.2748  -12.0085   27.2048 C   0  0  0  0  0  0  0  0  0  0  0  0
    7.4787  -13.3650   27.0042 C   0  0  0  0  0  0  0  0  0  0  0  0
    9.1600  -16.3584   26.0520 C   0  0  0  0  0  0  0  0  0  0  0  0
    9.4474  -17.6029   25.8611 O   0  0  0  0  0  0  0  0  0  0  0  0
    9.9767  -15.6104   26.9690 N   0  0  0  0  0  0  0  0  0  0  0  0
    9.9824  -14.2113   27.2650 C   0  0  0  0  0  0  0  0  0  0  0  0
   11.2623  -13.9767   28.0924 C   0  0  0  0  0  0  0  0  0  0  0  0
   11.3839  -15.2935   28.8192 C   0  0  0  0  0  0  0  0  0  0  0  0
   11.0015  -16.2710   27.7386 C   0  0  1  0  0  0  0  0  0  0  0  0
   10.5138  -17.5256   28.3960 C   0  0  0  0  0  0  0  0  0  0  0  0
   10.4792  -18.7212   27.7467 O   0  0  0  0  0  0  0  0  0  0  0  0
   10.1289  -17.4395   29.5855 O   0  0  0  0  0  0  0  0  0  0  0  0
  2  1  1  1
  2 13  1  0
  2  3  1  0
  4  3  1  0
  4  5  2  0
  6  5  1  0
  7  6  1  0
  8  7  2  0
  9  8  1  0
 10  9  2  0
 10 11  1  0
 11 12  2  0
 12  7  1  0
 12  4  1  0
 13 14  2  0
 15 16  1  0
 15 13  1  0
 16 17  1  1
 18 17  1  0
 19 18  2  0
 20 19  1  0
 21 20  2  0
 21 22  1  0
 22 23  2  0
 23 18  1  0
 24 25  2  0
 24 16  1  0
 26 24  1  0
 27 26  1  0
 28 27  1  0
 28 29  1  0
 29 30  1  0
 30 26  1  0
 30 31  1  1
 32 31  1  0
 33 31  2  0
M  END
$$$$
