WFP.pdb
     RDKit          3D

 33 36  0  0  1  0  0  0  0  0999 V2000
    8.0720  -17.8173   22.1514 N   0  0  0  0  0  0  0  0  0  0  0  0
    8.4339  -16.4614   21.8841 C   0  0  1  0  0  0  0  0  0  0  0  0
    7.3439  -15.7326   21.1581 C   0  0  0  0  0  0  0  0  0  0  0  0
    7.6176  -15.4158   19.7614 C   0  0  0  0  0  0  0  0  0  0  0  0
    7.4873  -16.2387   18.6753 C   0  0  0  0  0  0  0  0  0  0  0  0
    7.7959  -15.5913   17.5443 N   0  0  0  0  0  0  0  0  0  0  0  0
    8.1325  -14.3357   17.8872 C   0  0  0  0  0  0  0  0  0  0  0  0
    8.5230  -13.3157   17.0473 C   0  0  0  0  0  0  0  0  0  0  0  0
    8.8280  -12.0963   17.6075 C   0  0  0  0  0  0  0  0  0  0  0  0
    8.7397  -11.9173   18.9900 C   0  0  0  0  0  0  0  0  0  0  0  0
    8.3455  -12.9602   19.7992 C   0  0  0  0  0  0  0  0  0  0  0  0
    8.0327  -14.1896   19.2685 C   0  0  0  0  0  0  0  0  0  0  0  0
    8.7567  -15.7684   23.1761 C   0  0  0  0  0  0  0  0  0  0  0  0
    9.2889  -14.6485   23.1789 O   0  0  0  0  0  0  0  0  0  0  0  0
    8.4885  -16.3294   24.4240 N   0  0  0  0  0  0  0  0  0  0  0  0
    8.4926  -15.6906   25.7105 C   0  0  1  0  0  0  0  0  0  0  0  0
    7.2042  -15.5019   26.3748 C   0  0  0  0  0  0  0  0  0  0  0  0
    6.8493  -14.0285   26.3886 C   0  0  0  0  0  0  0  0  0  0  0  0
    7.7932  -13.1299   26.8232 C   0  0  0  0  0  0  0  0  0  0  0  0
    7.4992  -11.7615   26.8499 C   0  0  0  0  0  0  0  0  0  0  0  0
    6.2600  -11.2963   26.4414 C   0  0  0  0  0  0  0  0  0  0  0  0
    5.3216  -12.2099   26.0082 C   0  0  0  0  0  0  0  0  0  0  0  0
    5.6409  -13.5588   25.9918 C   0  0  0  0  0  0  0  0  0  0  0  0
    9.4686  -16.4531   26.5163 C   0  0  0  0  0  0  0  0  0  0  0  0
    9.6620  -17.6808   26.1654 O   0  0  0  0  0  0  0  0  0  0  0  0
   10.2089  -15.9483   27.6409 N   0  0  0  0  0  0  0  0  0  0  0  0
   10.2460  -14.6337   28.2024 C   0  0  0  0  0  0  0  0  0  0  0  0
   11.4322  -14.6465   29.1876 C   0  0  0  0  0  0  0  0  0  0  0  0
   11.4080  -16.0818   29.6528 C   0  0  0  0  0  0  0  0  0  0  0  0
   11.1067  -16.8101   28.3690 C   0  0  1  0  0  0  0  0  0  0  0  0
   10.4887  -18.1299   28.7156 C   0  0  0  0  0  0  0  0  0  0  0  0
   11.1604  -19.0876   29.4112 O   0  0  0  0  0  0  0  0  0  0  0  0
    9.3111  -18.3309   28.3369 O   0  0  0  0  0  0  0  0  0  0  0  0
  2  1  1  1
  2 13  1  0
  2  3  1  0
  4  3  1  0
  4  5  2  0
  6  5  1  0
  7  6  1  0
  8  7  2  0
  9  8  1  0
 10  9  2  0
 10 11  1  0
 11 12  2  0
 12  7  1  0
 12  4  1  0
 13 14  2  0
 15 16  1  0
 15 13  1  0
 16 17  1  1
 18 17  1  0
 19 18  2  0
 20 19  1  0
 21 20  2  0
 21 22  1  0
 22 23  2  0
 23 18  1  0
 24 25  2  0
 24 16  1  0
 26 24  1  0
 27 26  1  0
 28 27  1  0
 28 29  1  0
 29 30  1  0
 30 26  1  0
 30 31  1  1
 32 31  1  0
 33 31  2  0
M  END
$$$$
