WFP.pdb
     RDKit          3D

 33 36  0  0  1  0  0  0  0  0999 V2000
    6.9574  -18.7446   20.6423 N   0  0  0  0  0  0  0  0  0  0  0  0
    6.9601  -18.8871   22.0637 C   0  0  1  0  0  0  0  0  0  0  0  0
    7.8006  -20.0490   22.4998 C   0  0  0  0  0  0  0  0  0  0  0  0
    7.1943  -21.3647   22.3332 C   0  0  0  0  0  0  0  0  0  0  0  0
    7.5139  -22.3228   21.4093 C   0  0  0  0  0  0  0  0  0  0  0  0
    6.7675  -23.4214   21.5810 N   0  0  0  0  0  0  0  0  0  0  0  0
    5.9509  -23.1853   22.6227 C   0  0  0  0  0  0  0  0  0  0  0  0
    5.0080  -24.0368   23.1557 C   0  0  0  0  0  0  0  0  0  0  0  0
    4.2703  -23.5951   24.2302 C   0  0  0  0  0  0  0  0  0  0  0  0
    4.4845  -22.3168   24.7507 C   0  0  0  0  0  0  0  0  0  0  0  0
    5.4363  -21.4924   24.1918 C   0  0  0  0  0  0  0  0  0  0  0  0
    6.1902  -21.9063   23.1189 C   0  0  0  0  0  0  0  0  0  0  0  0
    7.4574  -17.6169   22.6905 C   0  0  0  0  0  0  0  0  0  0  0  0
    8.3290  -16.9337   22.1327 O   0  0  0  0  0  0  0  0  0  0  0  0
    6.9846  -17.1395   23.9122 N   0  0  0  0  0  0  0  0  0  0  0  0
    7.3598  -15.9407   24.6088 C   0  0  1  0  0  0  0  0  0  0  0  0
    6.3281  -15.2650   25.3937 C   0  0  0  0  0  0  0  0  0  0  0  0
    6.8862  -13.9782   25.9679 C   0  0  0  0  0  0  0  0  0  0  0  0
    6.9672  -12.8760   25.1519 C   0  0  0  0  0  0  0  0  0  0  0  0
    7.4781  -11.6712   25.6489 C   0  0  0  0  0  0  0  0  0  0  0  0
    7.9072  -11.5733   26.9624 C   0  0  0  0  0  0  0  0  0  0  0  0
    7.8207  -12.6881   27.7702 C   0  0  0  0  0  0  0  0  0  0  0  0
    7.3097  -13.8676   27.2512 C   0  0  0  0  0  0  0  0  0  0  0  0
    8.5554  -16.3097   25.3945 C   0  0  0  0  0  0  0  0  0  0  0  0
    8.3395  -16.9568   26.4911 O   0  0  0  0  0  0  0  0  0  0  0  0
    9.9179  -16.0123   25.0439 N   0  0  0  0  0  0  0  0  0  0  0  0
   10.4428  -15.2782   23.9347 C   0  0  0  0  0  0  0  0  0  0  0  0
   11.9594  -15.5574   23.9443 C   0  0  0  0  0  0  0  0  0  0  0  0
   12.2150  -15.7226   25.4224 C   0  0  0  0  0  0  0  0  0  0  0  0
   11.0038  -16.5087   25.8520 C   0  0  1  0  0  0  0  0  0  0  0  0
   10.7907  -16.2738   27.3160 C   0  0  0  0  0  0  0  0  0  0  0  0
   11.6553  -16.7351   28.2604 O   0  0  0  0  0  0  0  0  0  0  0  0
    9.7707  -15.6280   27.6524 O   0  0  0  0  0  0  0  0  0  0  0  0
  2  1  1  6
  2 13  1  0
  2  3  1  0
  4  3  1  0
  4  5  2  0
  6  5  1  0
  7  6  1  0
  8  7  2  0
  9  8  1  0
 10  9  2  0
 10 11  1  0
 11 12  2  0
 12  7  1  0
 12  4  1  0
 13 14  2  0
 15 16  1  0
 15 13  1  0
 16 17  1  1
 18 17  1  0
 19 18  2  0
 20 19  1  0
 21 20  2  0
 21 22  1  0
 22 23  2  0
 23 18  1  0
 24 25  2  0
 24 16  1  0
 26 24  1  0
 27 26  1  0
 28 27  1  0
 28 29  1  0
 29 30  1  0
 30 26  1  0
 30 31  1  1
 32 31  1  0
 33 31  2  0
M  END
$$$$
