WFP.pdb
     RDKit          3D

 33 36  0  0  1  0  0  0  0  0999 V2000
    5.2631  -20.4952   23.2151 N   0  0  0  0  0  0  0  0  0  0  0  0
    5.7988  -19.9735   24.4323 C   0  0  1  0  0  0  0  0  0  0  0  0
    7.0683  -20.6700   24.8194 C   0  0  0  0  0  0  0  0  0  0  0  0
    7.5338  -20.4248   26.1793 C   0  0  0  0  0  0  0  0  0  0  0  0
    6.9982  -20.9002   27.3459 C   0  0  0  0  0  0  0  0  0  0  0  0
    7.7150  -20.4945   28.4020 N   0  0  0  0  0  0  0  0  0  0  0  0
    8.7272  -19.7468   27.9287 C   0  0  0  0  0  0  0  0  0  0  0  0
    9.7156  -19.1208   28.6564 C   0  0  0  0  0  0  0  0  0  0  0  0
   10.6643  -18.3969   27.9711 C   0  0  0  0  0  0  0  0  0  0  0  0
   10.6095  -18.3096   26.5781 C   0  0  0  0  0  0  0  0  0  0  0  0
    9.6063  -18.9489   25.8833 C   0  0  0  0  0  0  0  0  0  0  0  0
    8.6454  -19.6811   26.5401 C   0  0  0  0  0  0  0  0  0  0  0  0
    6.0360  -18.4990   24.2802 C   0  0  0  0  0  0  0  0  0  0  0  0
    5.9888  -17.9612   23.1640 O   0  0  0  0  0  0  0  0  0  0  0  0
    6.3218  -17.6627   25.3586 N   0  0  0  0  0  0  0  0  0  0  0  0
    6.5963  -16.2528   25.3479 C   0  0  1  0  0  0  0  0  0  0  0  0
    6.7311  -15.5814   26.6394 C   0  0  0  0  0  0  0  0  0  0  0  0
    6.8499  -14.0856   26.4258 C   0  0  0  0  0  0  0  0  0  0  0  0
    5.6993  -13.3507   26.2738 C   0  0  0  0  0  0  0  0  0  0  0  0
    5.7720  -11.9670   26.0740 C   0  0  0  0  0  0  0  0  0  0  0  0
    6.9973  -11.3227   26.0266 C   0  0  0  0  0  0  0  0  0  0  0  0
    8.1445  -12.0732   26.1801 C   0  0  0  0  0  0  0  0  0  0  0  0
    8.0421  -13.4416   26.3774 C   0  0  0  0  0  0  0  0  0  0  0  0
    7.7766  -16.0967   24.4729 C   0  0  0  0  0  0  0  0  0  0  0  0
    8.8086  -16.8119   24.7749 O   0  0  0  0  0  0  0  0  0  0  0  0
    7.8689  -15.2277   23.3310 N   0  0  0  0  0  0  0  0  0  0  0  0
    6.9235  -14.2897   22.8102 C   0  0  0  0  0  0  0  0  0  0  0  0
    7.4686  -13.8911   21.4239 C   0  0  0  0  0  0  0  0  0  0  0  0
    8.9560  -13.9977   21.6549 C   0  0  0  0  0  0  0  0  0  0  0  0
    9.0424  -15.2462   22.4935 C   0  0  1  0  0  0  0  0  0  0  0  0
   10.3161  -15.1924   23.2800 C   0  0  0  0  0  0  0  0  0  0  0  0
   11.5402  -15.2379   22.6868 O   0  0  0  0  0  0  0  0  0  0  0  0
   10.2193  -15.1041   24.5264 O   0  0  0  0  0  0  0  0  0  0  0  0
  2  1  1  6
  2 13  1  0
  2  3  1  0
  4  3  1  0
  4  5  2  0
  6  5  1  0
  7  6  1  0
  8  7  2  0
  9  8  1  0
 10  9  2  0
 10 11  1  0
 11 12  2  0
 12  7  1  0
 12  4  1  0
 13 14  2  0
 15 16  1  0
 15 13  1  0
 16 17  1  1
 18 17  1  0
 19 18  2  0
 20 19  1  0
 21 20  2  0
 21 22  1  0
 22 23  2  0
 23 18  1  0
 24 25  2  0
 24 16  1  0
 26 24  1  0
 27 26  1  0
 28 27  1  0
 28 29  1  0
 29 30  1  0
 30 26  1  0
 30 31  1  1
 32 31  1  0
 33 31  2  0
M  END
$$$$
