HSM.pdb
     RDKit          3D

 25 25  0  0  1  0  0  0  0  0999 V2000
   29.7909  -33.4173  -18.1771 N   0  0  0  0  0  0  0  0  0  0  0  0
   29.2616  -32.8670  -16.9677 C   0  0  1  0  0  0  0  0  0  0  0  0
   29.7810  -31.4559  -16.7994 C   0  0  0  0  0  0  0  0  0  0  0  0
   31.2536  -31.4786  -16.6756 C   0  0  0  0  0  0  0  0  0  0  0  0
   32.2019  -30.7886  -17.3962 C   0  0  0  0  0  0  0  0  0  0  0  0
   33.4357  -31.1093  -16.9476 N   0  0  0  0  0  0  0  0  0  0  0  0
   33.2652  -32.0016  -15.9440 C   0  0  0  0  0  0  0  0  0  0  0  0
   31.9361  -32.2162  -15.7902 N   0  0  0  0  0  0  0  0  0  0  0  0
   27.7777  -32.9169  -16.9102 C   0  0  0  0  0  0  0  0  0  0  0  0
   27.0955  -32.6497  -17.9336 O   0  0  0  0  0  0  0  0  0  0  0  0
   25.5853  -33.3451  -13.2614 O   0  0  0  0  0  0  0  0  0  0  0  0
   25.0993  -33.9249  -14.4068 C   0  0  0  0  0  0  0  0  0  0  0  0
   25.6100  -33.2459  -15.6776 C   0  0  2  0  0  0  0  0  0  0  0  0
   27.0536  -33.2588  -15.7336 N   0  0  0  0  0  0  0  0  0  0  0  0
   25.0257  -31.9131  -15.8537 C   0  0  0  0  0  0  0  0  0  0  0  0
   25.5942  -30.8371  -15.5408 O   0  0  0  0  0  0  0  0  0  0  0  0
   19.6359  -30.3422  -19.8104 C   0  0  0  0  0  0  0  0  0  0  0  0
   21.1040  -31.3502  -20.1545 S   0  0  0  0  0  0  0  0  0  0  0  0
   22.4011  -31.1326  -18.9383 C   0  0  0  0  0  0  0  0  0  0  0  0
   21.9415  -30.7141  -17.5838 C   0  0  0  0  0  0  0  0  0  0  0  0
   23.0514  -30.5139  -16.5786 C   0  0  2  0  0  0  0  0  0  0  0  0
   23.7260  -31.8018  -16.4159 N   0  0  0  0  0  0  0  0  0  0  0  0
   22.5246  -30.0207  -15.2994 C   0  0  0  0  0  0  0  0  0  0  0  0
   22.2548  -30.8520  -14.3766 O   0  0  0  0  0  0  0  0  0  0  0  0
   22.3100  -28.6909  -15.0529 O   0  0  0  0  0  0  0  0  0  0  0  0
  2  1  1  6
  3  4  1  0
  3  2  1  0
  4  5  2  0
  6  5  1  0
  7  6  1  0
  8  7  2  0
  8  4  1  0
  9 10  2  0
  9  2  1  0
 11 12  1  0
 13 12  1  1
 13 14  1  0
 13 15  1  0
 14  9  1  0
 15 22  1  0
 16 15  2  0
 18 17  1  0
 19 18  1  0
 20 19  1  0
 21 20  1  6
 21 23  1  0
 22 21  1  0
 23 24  2  0
 23 25  1  0
M  END
$$$$
