HSM.pdb
     RDKit          3D

 25 25  0  0  1  0  0  0  0  0999 V2000
   27.8159  -22.8283  -17.4156 N   0  0  0  0  0  0  0  0  0  0  0  0
   26.7376  -22.5763  -16.5104 C   0  0  1  0  0  0  0  0  0  0  0  0
   26.0323  -23.8803  -16.2084 C   0  0  0  0  0  0  0  0  0  0  0  0
   25.2753  -24.3242  -17.3978 C   0  0  0  0  0  0  0  0  0  0  0  0
   25.3945  -25.4860  -18.1260 C   0  0  0  0  0  0  0  0  0  0  0  0
   24.4985  -25.4821  -19.1378 N   0  0  0  0  0  0  0  0  0  0  0  0
   23.8143  -24.3176  -19.0473 C   0  0  0  0  0  0  0  0  0  0  0  0
   24.2964  -23.6252  -17.9869 N   0  0  0  0  0  0  0  0  0  0  0  0
   27.1738  -21.8870  -15.2685 C   0  0  0  0  0  0  0  0  0  0  0  0
   28.2670  -22.1938  -14.7252 O   0  0  0  0  0  0  0  0  0  0  0  0
   25.1707  -18.4874  -13.6378 O   0  0  0  0  0  0  0  0  0  0  0  0
   26.5040  -18.7340  -13.4241 C   0  0  0  0  0  0  0  0  0  0  0  0
   26.8360  -20.2262  -13.4100 C   0  0  2  0  0  0  0  0  0  0  0  0
   26.4102  -20.8684  -14.6321 N   0  0  0  0  0  0  0  0  0  0  0  0
   26.3395  -20.8816  -12.1964 C   0  0  0  0  0  0  0  0  0  0  0  0
   25.3270  -21.6243  -12.1492 O   0  0  0  0  0  0  0  0  0  0  0  0
   27.2654  -19.9577   -4.2970 C   0  0  0  0  0  0  0  0  0  0  0  0
   27.8065  -19.5817   -5.9869 S   0  0  0  0  0  0  0  0  0  0  0  0
   26.7727  -20.3423   -7.2367 C   0  0  0  0  0  0  0  0  0  0  0  0
   27.2652  -20.2121   -8.6372 C   0  0  0  0  0  0  0  0  0  0  0  0
   26.4049  -20.8999   -9.6713 C   0  0  2  0  0  0  0  0  0  0  0  0
   27.0337  -20.6797  -10.9737 N   0  0  0  0  0  0  0  0  0  0  0  0
   25.0309  -20.3817   -9.6462 C   0  0  0  0  0  0  0  0  0  0  0  0
   24.7627  -19.3019  -10.2607 O   0  0  0  0  0  0  0  0  0  0  0  0
   24.0141  -21.0173   -8.9848 O   0  0  0  0  0  0  0  0  0  0  0  0
  2  1  1  6
  3  4  1  0
  3  2  1  0
  4  5  2  0
  6  5  1  0
  7  6  1  0
  8  7  2  0
  8  4  1  0
  9 10  2  0
  9  2  1  0
 11 12  1  0
 13 12  1  6
 13 14  1  0
 13 15  1  0
 14  9  1  0
 15 22  1  0
 16 15  2  0
 18 17  1  0
 19 18  1  0
 20 19  1  0
 21 20  1  1
 21 23  1  0
 22 21  1  0
 23 24  2  0
 23 25  1  0
M  END
$$$$
