HSM.pdb
     RDKit          3D

 25 25  0  0  1  0  0  0  0  0999 V2000
   20.7637  -11.5922  -16.5005 N   0  0  0  0  0  0  0  0  0  0  0  0
   19.6014  -10.7812  -16.3079 C   0  0  1  0  0  0  0  0  0  0  0  0
   18.6047  -11.5414  -15.4605 C   0  0  0  0  0  0  0  0  0  0  0  0
   18.1803  -12.7668  -16.1696 C   0  0  0  0  0  0  0  0  0  0  0  0
   17.5219  -12.8975  -17.3712 C   0  0  0  0  0  0  0  0  0  0  0  0
   17.3332  -14.2073  -17.6458 N   0  0  0  0  0  0  0  0  0  0  0  0
   17.8727  -14.9024  -16.6172 C   0  0  0  0  0  0  0  0  0  0  0  0
   18.3831  -14.0152  -15.7289 N   0  0  0  0  0  0  0  0  0  0  0  0
   19.9146   -9.4501  -15.7267 C   0  0  0  0  0  0  0  0  0  0  0  0
   20.8087   -9.3378  -14.8481 O   0  0  0  0  0  0  0  0  0  0  0  0
   21.5283   -6.5656  -17.1042 O   0  0  0  0  0  0  0  0  0  0  0  0
   21.1529   -6.7408  -15.7956 C   0  0  0  0  0  0  0  0  0  0  0  0
   19.6474   -6.9508  -15.6338 C   0  0  2  0  0  0  0  0  0  0  0  0
   19.2467   -8.2539  -16.1121 N   0  0  0  0  0  0  0  0  0  0  0  0
   18.8792   -5.8473  -16.2176 C   0  0  0  0  0  0  0  0  0  0  0  0
   18.6296   -5.7205  -17.4426 O   0  0  0  0  0  0  0  0  0  0  0  0
   12.3494   -2.1153  -16.3283 C   0  0  0  0  0  0  0  0  0  0  0  0
   13.5748   -2.9769  -15.3057 S   0  0  0  0  0  0  0  0  0  0  0  0
   15.2042   -3.0121  -16.0494 C   0  0  0  0  0  0  0  0  0  0  0  0
   16.2477   -3.7308  -15.2649 C   0  0  0  0  0  0  0  0  0  0  0  0
   17.6324   -3.6785  -15.8670 C   0  0  2  0  0  0  0  0  0  0  0  0
   18.3692   -4.8363  -15.3600 N   0  0  0  0  0  0  0  0  0  0  0  0
   18.3109   -2.4215  -15.5256 C   0  0  0  0  0  0  0  0  0  0  0  0
   19.2040   -2.4231  -14.6212 O   0  0  0  0  0  0  0  0  0  0  0  0
   18.0227   -1.2350  -16.1456 O   0  0  0  0  0  0  0  0  0  0  0  0
  2  1  1  1
  3  4  1  0
  3  2  1  0
  4  5  2  0
  6  5  1  0
  7  6  1  0
  8  7  2  0
  8  4  1  0
  9 10  2  0
  9  2  1  0
 11 12  1  0
 13 12  1  6
 13 14  1  0
 13 15  1  0
 14  9  1  0
 15 22  1  0
 16 15  2  0
 18 17  1  0
 19 18  1  0
 20 19  1  0
 21 20  1  1
 21 23  1  0
 22 21  1  0
 23 24  2  0
 23 25  1  0
M  END
$$$$
