HSM.pdb
     RDKit          3D

 25 25  0  0  1  0  0  0  0  0999 V2000
   17.0875  -11.8677  -16.1304 N   0  0  0  0  0  0  0  0  0  0  0  0
   18.1357  -11.1981  -16.8366 C   0  0  1  0  0  0  0  0  0  0  0  0
   17.7893  -11.1555  -18.3088 C   0  0  0  0  0  0  0  0  0  0  0  0
   17.8606  -12.5181  -18.8770 C   0  0  0  0  0  0  0  0  0  0  0  0
   18.7942  -13.0614  -19.7301 C   0  0  0  0  0  0  0  0  0  0  0  0
   18.4733  -14.3471  -19.9956 N   0  0  0  0  0  0  0  0  0  0  0  0
   17.3372  -14.6143  -19.3098 C   0  0  0  0  0  0  0  0  0  0  0  0
   16.9771  -13.4953  -18.6356 N   0  0  0  0  0  0  0  0  0  0  0  0
   18.4209   -9.8424  -16.2996 C   0  0  0  0  0  0  0  0  0  0  0  0
   17.5121   -8.9724  -16.2627 O   0  0  0  0  0  0  0  0  0  0  0  0
   22.3583   -8.5027  -15.3382 O   0  0  0  0  0  0  0  0  0  0  0  0
   21.3029   -8.0552  -14.5832 C   0  0  0  0  0  0  0  0  0  0  0  0
   19.9714   -8.1144  -15.3319 C   0  0  2  0  0  0  0  0  0  0  0  0
   19.6978   -9.4508  -15.8079 N   0  0  0  0  0  0  0  0  0  0  0  0
   19.8894   -7.0890  -16.3762 C   0  0  0  0  0  0  0  0  0  0  0  0
   20.1678   -7.2788  -17.5868 O   0  0  0  0  0  0  0  0  0  0  0  0
   16.1476   -5.1227  -20.6350 C   0  0  0  0  0  0  0  0  0  0  0  0
   16.2691   -3.7075  -19.5070 S   0  0  0  0  0  0  0  0  0  0  0  0
   17.8378   -3.6343  -18.6450 C   0  0  0  0  0  0  0  0  0  0  0  0
   18.0822   -4.7359  -17.6714 C   0  0  0  0  0  0  0  0  0  0  0  0
   19.4284   -4.6818  -16.9878 C   0  0  2  0  0  0  0  0  0  0  0  0
   19.4680   -5.7796  -16.0217 N   0  0  0  0  0  0  0  0  0  0  0  0
   19.6373   -3.3844  -16.3319 C   0  0  0  0  0  0  0  0  0  0  0  0
   19.9054   -2.3651  -17.0422 O   0  0  0  0  0  0  0  0  0  0  0  0
   19.5539   -3.2213  -14.9749 O   0  0  0  0  0  0  0  0  0  0  0  0
  2  1  1  1
  3  4  1  0
  3  2  1  0
  4  5  2  0
  6  5  1  0
  7  6  1  0
  8  7  2  0
  8  4  1  0
  9 10  2  0
  9  2  1  0
 11 12  1  0
 13 12  1  6
 13 14  1  0
 13 15  1  0
 14  9  1  0
 15 22  1  0
 16 15  2  0
 18 17  1  0
 19 18  1  0
 20 19  1  0
 21 20  1  1
 21 23  1  0
 22 21  1  0
 23 24  2  0
 23 25  1  0
M  END
$$$$
