HSM.pdb
     RDKit          3D

 25 25  0  0  1  0  0  0  0  0999 V2000
   17.8241  -23.7485  -13.4620 N   0  0  0  0  0  0  0  0  0  0  0  0
   17.7685  -22.9989  -12.2452 C   0  0  1  0  0  0  0  0  0  0  0  0
   16.8766  -21.7937  -12.4489 C   0  0  0  0  0  0  0  0  0  0  0  0
   17.4601  -20.9108  -13.4807 C   0  0  0  0  0  0  0  0  0  0  0  0
   17.7901  -21.1926  -14.7869 C   0  0  0  0  0  0  0  0  0  0  0  0
   18.2973  -20.0871  -15.3760 N   0  0  0  0  0  0  0  0  0  0  0  0
   18.2871  -19.1083  -14.4410 C   0  0  0  0  0  0  0  0  0  0  0  0
   17.7764  -19.6226  -13.2960 N   0  0  0  0  0  0  0  0  0  0  0  0
   17.3328  -23.8148  -11.0824 C   0  0  0  0  0  0  0  0  0  0  0  0
   16.1834  -23.6574  -10.5942 O   0  0  0  0  0  0  0  0  0  0  0  0
   19.9882  -26.2314   -8.8051 O   0  0  0  0  0  0  0  0  0  0  0  0
   18.7143  -26.6972   -9.0158 C   0  0  0  0  0  0  0  0  0  0  0  0
   17.7198  -25.5805   -9.3334 C   0  0  2  0  0  0  0  0  0  0  0  0
   18.1585  -24.7955  -10.4642 N   0  0  0  0  0  0  0  0  0  0  0  0
   17.4055  -24.7793   -8.1468 C   0  0  0  0  0  0  0  0  0  0  0  0
   17.8712  -23.6359   -7.9132 O   0  0  0  0  0  0  0  0  0  0  0  0
   11.9708  -22.4057   -3.1566 C   0  0  0  0  0  0  0  0  0  0  0  0
   12.4797  -23.3244   -4.6354 S   0  0  0  0  0  0  0  0  0  0  0  0
   14.2346  -23.6827   -4.6653 C   0  0  0  0  0  0  0  0  0  0  0  0
   14.7231  -24.3749   -5.8914 C   0  0  0  0  0  0  0  0  0  0  0  0
   16.2146  -24.6132   -5.9252 C   0  0  2  0  0  0  0  0  0  0  0  0
   16.5137  -25.3096   -7.1765 N   0  0  0  0  0  0  0  0  0  0  0  0
   16.6525  -25.3940   -4.7608 C   0  0  0  0  0  0  0  0  0  0  0  0
   16.8313  -26.6463   -4.8839 O   0  0  0  0  0  0  0  0  0  0  0  0
   16.8809  -24.8270   -3.5354 O   0  0  0  0  0  0  0  0  0  0  0  0
  2  1  1  6
  3  4  1  0
  3  2  1  0
  4  5  2  0
  6  5  1  0
  7  6  1  0
  8  7  2  0
  8  4  1  0
  9 10  2  0
  9  2  1  0
 11 12  1  0
 13 12  1  1
 13 14  1  0
 13 15  1  0
 14  9  1  0
 15 22  1  0
 16 15  2  0
 18 17  1  0
 19 18  1  0
 20 19  1  0
 21 20  1  1
 21 23  1  0
 22 21  1  0
 23 24  2  0
 23 25  1  0
M  END
$$$$
