HSM.pdb
     RDKit          3D

 25 25  0  0  1  0  0  0  0  0999 V2000
   14.7999  -22.7463   -2.5721 N   0  0  0  0  0  0  0  0  0  0  0  0
   14.1333  -22.7418   -1.3067 C   0  0  1  0  0  0  0  0  0  0  0  0
   13.5543  -24.1158   -1.0494 C   0  0  0  0  0  0  0  0  0  0  0  0
   12.5633  -24.4427   -2.0961 C   0  0  0  0  0  0  0  0  0  0  0  0
   12.6502  -25.3472   -3.1299 C   0  0  0  0  0  0  0  0  0  0  0  0
   11.5077  -25.3239   -3.8514 N   0  0  0  0  0  0  0  0  0  0  0  0
   10.7003  -24.4045   -3.2723 C   0  0  0  0  0  0  0  0  0  0  0  0
   11.3540  -23.8780   -2.2084 N   0  0  0  0  0  0  0  0  0  0  0  0
   15.0100  -22.2974   -0.1924 C   0  0  0  0  0  0  0  0  0  0  0  0
   16.1658  -22.7793   -0.0660 O   0  0  0  0  0  0  0  0  0  0  0  0
   13.7790  -19.4670    2.7719 O   0  0  0  0  0  0  0  0  0  0  0  0
   15.0553  -19.4334    2.2677 C   0  0  0  0  0  0  0  0  0  0  0  0
   15.5270  -20.7950    1.7575 C   0  0  2  0  0  0  0  0  0  0  0  0
   14.6143  -21.3298    0.7734 N   0  0  0  0  0  0  0  0  0  0  0  0
   15.8125  -21.7188    2.8593 C   0  0  0  0  0  0  0  0  0  0  0  0
   15.0808  -22.6860    3.1881 O   0  0  0  0  0  0  0  0  0  0  0  0
   20.7277  -25.5357    1.7704 C   0  0  0  0  0  0  0  0  0  0  0  0
   20.5950  -24.3640    3.1486 S   0  0  0  0  0  0  0  0  0  0  0  0
   18.9137  -23.8209    3.4440 C   0  0  0  0  0  0  0  0  0  0  0  0
   18.7422  -22.8628    4.5726 C   0  0  0  0  0  0  0  0  0  0  0  0
   17.3262  -22.3754    4.7721 C   0  0  2  0  0  0  0  0  0  0  0  0
   16.9936  -21.5298    3.6255 N   0  0  0  0  0  0  0  0  0  0  0  0
   17.1929  -21.6392    6.0360 C   0  0  0  0  0  0  0  0  0  0  0  0
   17.1572  -20.3689    6.0144 O   0  0  0  0  0  0  0  0  0  0  0  0
   17.1027  -22.2667    7.2498 O   0  0  0  0  0  0  0  0  0  0  0  0
  2  1  1  6
  3  4  1  0
  3  2  1  0
  4  5  2  0
  6  5  1  0
  7  6  1  0
  8  7  2  0
  8  4  1  0
  9 10  2  0
  9  2  1  0
 11 12  1  0
 13 12  1  1
 13 14  1  0
 13 15  1  0
 14  9  1  0
 15 22  1  0
 16 15  2  0
 18 17  1  0
 19 18  1  0
 20 19  1  0
 21 20  1  6
 21 23  1  0
 22 21  1  0
 23 24  2  0
 23 25  1  0
M  END
$$$$
