HSM.pdb
     RDKit          3D

 25 25  0  0  1  0  0  0  0  0999 V2000
   16.3671  -25.4355   -5.8833 N   0  0  0  0  0  0  0  0  0  0  0  0
   15.7118  -25.5332   -4.6158 C   0  0  1  0  0  0  0  0  0  0  0  0
   16.3491  -26.6483   -3.8159 C   0  0  0  0  0  0  0  0  0  0  0  0
   16.2144  -27.9257   -4.5471 C   0  0  0  0  0  0  0  0  0  0  0  0
   17.1938  -28.7658   -5.0263 C   0  0  0  0  0  0  0  0  0  0  0  0
   16.6229  -29.8293   -5.6341 N   0  0  0  0  0  0  0  0  0  0  0  0
   15.2833  -29.6596   -5.5382 C   0  0  0  0  0  0  0  0  0  0  0  0
   15.0503  -28.5003   -4.8762 N   0  0  0  0  0  0  0  0  0  0  0  0
   15.7091  -24.2508   -3.8654 C   0  0  0  0  0  0  0  0  0  0  0  0
   16.0703  -23.1861   -4.4311 O   0  0  0  0  0  0  0  0  0  0  0  0
   12.8324  -22.3647   -2.4405 O   0  0  0  0  0  0  0  0  0  0  0  0
   14.1410  -21.9907   -2.6194 C   0  0  0  0  0  0  0  0  0  0  0  0
   15.1206  -22.8727   -1.8452 C   0  0  2  0  0  0  0  0  0  0  0  0
   15.3114  -24.1449   -2.5030 N   0  0  0  0  0  0  0  0  0  0  0  0
   14.7463  -22.9903   -0.4329 C   0  0  0  0  0  0  0  0  0  0  0  0
   13.7981  -23.6930   -0.0015 O   0  0  0  0  0  0  0  0  0  0  0  0
   20.4361  -24.9349    2.8431 C   0  0  0  0  0  0  0  0  0  0  0  0
   19.4175  -23.4474    3.0425 S   0  0  0  0  0  0  0  0  0  0  0  0
   17.7502  -23.6542    2.4208 C   0  0  0  0  0  0  0  0  0  0  0  0
   16.8955  -22.4344    2.4701 C   0  0  0  0  0  0  0  0  0  0  0  0
   15.4892  -22.6324    1.9548 C   0  0  2  0  0  0  0  0  0  0  0  0
   15.4920  -22.2693    0.5377 N   0  0  0  0  0  0  0  0  0  0  0  0
   14.5284  -21.8205    2.7130 C   0  0  0  0  0  0  0  0  0  0  0  0
   14.1792  -20.6859    2.2592 O   0  0  0  0  0  0  0  0  0  0  0  0
   13.9847  -22.2362    3.8991 O   0  0  0  0  0  0  0  0  0  0  0  0
  2  1  1  6
  3  4  1  0
  3  2  1  0
  4  5  2  0
  6  5  1  0
  7  6  1  0
  8  7  2  0
  8  4  1  0
  9 10  2  0
  9  2  1  0
 11 12  1  0
 13 12  1  6
 13 14  1  0
 13 15  1  0
 14  9  1  0
 15 22  1  0
 16 15  2  0
 18 17  1  0
 19 18  1  0
 20 19  1  0
 21 20  1  1
 21 23  1  0
 22 21  1  0
 23 24  2  0
 23 25  1  0
M  END
$$$$
