HSM.pdb
     RDKit          3D

 25 25  0  0  1  0  0  0  0  0999 V2000
   18.9462  -10.5734  -18.3422 N   0  0  0  0  0  0  0  0  0  0  0  0
   19.4842   -9.3347  -18.8132 C   0  0  1  0  0  0  0  0  0  0  0  0
   18.6590   -8.8530  -19.9863 C   0  0  0  0  0  0  0  0  0  0  0  0
   18.7245   -9.8433  -21.0816 C   0  0  0  0  0  0  0  0  0  0  0  0
   17.7070  -10.5452  -21.6871 C   0  0  0  0  0  0  0  0  0  0  0  0
   18.2172  -11.3463  -22.6486 N   0  0  0  0  0  0  0  0  0  0  0  0
   19.5565  -11.1494  -22.6492 C   0  0  0  0  0  0  0  0  0  0  0  0
   19.8498  -10.2348  -21.6932 N   0  0  0  0  0  0  0  0  0  0  0  0
   19.5800   -8.3032  -17.7482 C   0  0  0  0  0  0  0  0  0  0  0  0
   18.5403   -7.8931  -17.1693 O   0  0  0  0  0  0  0  0  0  0  0  0
   23.1138   -7.3376  -15.6327 O   0  0  0  0  0  0  0  0  0  0  0  0
   21.8381   -7.0917  -15.1897 C   0  0  0  0  0  0  0  0  0  0  0  0
   20.8845   -6.6976  -16.3176 C   0  0  2  0  0  0  0  0  0  0  0  0
   20.8122   -7.7296  -17.3261 N   0  0  0  0  0  0  0  0  0  0  0  0
   21.1979   -5.3702  -16.8548 C   0  0  0  0  0  0  0  0  0  0  0  0
   21.9845   -5.1540  -17.8105 O   0  0  0  0  0  0  0  0  0  0  0  0
   17.4186   -0.9842  -19.6215 C   0  0  0  0  0  0  0  0  0  0  0  0
   18.1122   -0.1186  -18.1863 S   0  0  0  0  0  0  0  0  0  0  0  0
   19.6460   -0.8418  -17.6089 C   0  0  0  0  0  0  0  0  0  0  0  0
   19.5486   -2.2529  -17.1395 C   0  0  0  0  0  0  0  0  0  0  0  0
   20.8650   -2.8694  -16.7276 C   0  0  2  0  0  0  0  0  0  0  0  0
   20.5822   -4.2305  -16.2720 N   0  0  0  0  0  0  0  0  0  0  0  0
   21.5143   -2.0771  -15.6751 C   0  0  0  0  0  0  0  0  0  0  0  0
   22.2261   -1.0758  -16.0008 O   0  0  0  0  0  0  0  0  0  0  0  0
   21.3845   -2.3708  -14.3439 O   0  0  0  0  0  0  0  0  0  0  0  0
  2  1  1  1
  3  4  1  0
  3  2  1  0
  4  5  2  0
  6  5  1  0
  7  6  1  0
  8  7  2  0
  8  4  1  0
  9 10  2  0
  9  2  1  0
 11 12  1  0
 13 12  1  1
 13 14  1  0
 13 15  1  0
 14  9  1  0
 15 22  1  0
 16 15  2  0
 18 17  1  0
 19 18  1  0
 20 19  1  0
 21 20  1  1
 21 23  1  0
 22 21  1  0
 23 24  2  0
 23 25  1  0
M  END
$$$$
