IQN.pdb
     RDKit          3D

 26 25  0  0  1  0  0  0  0  0999 V2000
   27.5558  -16.6748  -18.7092 C   0  0  0  0  0  0  0  0  0  0  0  0
   28.2021  -17.6377  -17.7158 C   0  0  0  0  0  0  0  0  0  0  0  0
   27.1085  -18.3503  -16.9555 C   0  0  2  0  0  0  0  0  0  0  0  0
   26.1632  -17.3592  -16.2923 C   0  0  0  0  0  0  0  0  0  0  0  0
   27.6213  -19.3561  -15.9557 C   0  0  2  0  0  0  0  0  0  0  0  0
   28.5399  -20.2171  -16.6552 N   0  0  0  0  0  0  0  0  0  0  0  0
   26.5835  -20.0604  -15.2174 C   0  0  0  0  0  0  0  0  0  0  0  0
   25.8720  -20.9015  -15.8192 O   0  0  0  0  0  0  0  0  0  0  0  0
   23.8988  -20.9263   -8.2999 N   0  0  0  0  0  0  0  0  0  0  0  0
   24.9027  -20.8544   -9.2976 C   0  0  0  0  0  0  0  0  0  0  0  0
   26.1139  -20.7523   -8.9951 O   0  0  0  0  0  0  0  0  0  0  0  0
   24.4815  -20.9034  -10.7178 C   0  0  0  0  0  0  0  0  0  0  0  0
   25.5846  -20.3658  -11.5689 C   0  0  0  0  0  0  0  0  0  0  0  0
   25.3213  -20.4877  -13.0570 C   0  0  2  0  0  0  0  0  0  0  0  0
   26.3415  -19.8327  -13.8331 N   0  0  0  0  0  0  0  0  0  0  0  0
   23.9862  -19.9166  -13.2843 C   0  0  0  0  0  0  0  0  0  0  0  0
   23.7864  -18.7005  -13.1845 O   0  0  0  0  0  0  0  0  0  0  0  0
   19.0993  -19.2848  -14.4715 N   0  0  0  0  0  0  0  0  0  0  0  0
   19.5014  -20.5382  -15.0755 C   0  0  0  0  0  0  0  0  0  0  0  0
   18.7031  -21.1470  -15.8203 O   0  0  0  0  0  0  0  0  0  0  0  0
   20.8385  -21.0732  -14.8031 C   0  0  0  0  0  0  0  0  0  0  0  0
   21.5811  -20.2654  -13.7966 C   0  0  2  0  0  0  0  0  0  0  0  0
   22.9145  -20.7812  -13.6232 N   0  0  0  0  0  0  0  0  0  0  0  0
   20.8388  -20.2232  -12.4996 C   0  0  0  0  0  0  0  0  0  0  0  0
   20.0705  -19.1022  -12.2345 O   0  0  0  0  0  0  0  0  0  0  0  0
   20.8746  -21.1417  -11.6458 O   0  0  0  0  0  0  0  0  0  0  0  0
  1  2  1  0
  2  3  1  0
  3  5  1  0
  3  4  1  1
  5  7  1  0
  5  6  1  6
  7  8  2  0
 10  9  1  0
 11 10  2  0
 12 10  1  0
 14 13  1  1
 13 12  1  0
 15 14  1  0
 15  7  1  0
 16 14  1  0
 17 16  2  0
 19 18  1  0
 19 20  2  0
 21 19  1  0
 22 21  1  6
 22 23  1  0
 23 16  1  0
 24 25  1  0
 24 22  1  0
 26 24  2  0
M  END
$$$$
