IQN.pdb
     RDKit          3D

 26 25  0  0  1  0  0  0  0  0999 V2000
    9.8668  -13.7658  -10.4295 C   0  0  0  0  0  0  0  0  0  0  0  0
   11.0023  -13.6345  -11.4421 C   0  0  0  0  0  0  0  0  0  0  0  0
   12.1100  -12.8180  -10.8194 C   0  0  2  0  0  0  0  0  0  0  0  0
   11.5809  -11.5019  -10.2681 C   0  0  0  0  0  0  0  0  0  0  0  0
   13.2814  -12.5833  -11.7398 C   0  0  2  0  0  0  0  0  0  0  0  0
   13.7227  -13.8748  -12.2001 N   0  0  0  0  0  0  0  0  0  0  0  0
   14.3374  -11.7542  -11.1780 C   0  0  0  0  0  0  0  0  0  0  0  0
   15.1233  -12.2556  -10.3373 O   0  0  0  0  0  0  0  0  0  0  0  0
   18.1259   -8.1441  -14.0072 N   0  0  0  0  0  0  0  0  0  0  0  0
   18.5211   -9.3762  -13.4291 C   0  0  0  0  0  0  0  0  0  0  0  0
   19.5518   -9.9744  -13.8147 O   0  0  0  0  0  0  0  0  0  0  0  0
   17.6789   -9.9438  -12.3495 C   0  0  0  0  0  0  0  0  0  0  0  0
   16.4820   -9.0711  -12.1596 C   0  0  0  0  0  0  0  0  0  0  0  0
   15.5603   -9.5337  -11.0483 C   0  0  2  0  0  0  0  0  0  0  0  0
   14.5158  -10.3905  -11.5455 N   0  0  0  0  0  0  0  0  0  0  0  0
   15.0364   -8.3141  -10.4170 C   0  0  0  0  0  0  0  0  0  0  0  0
   13.8254   -8.0650  -10.4166 O   0  0  0  0  0  0  0  0  0  0  0  0
   14.5192   -4.0381   -7.7722 N   0  0  0  0  0  0  0  0  0  0  0  0
   14.0422   -5.3436   -7.3648 C   0  0  0  0  0  0  0  0  0  0  0  0
   13.2337   -5.4353   -6.4158 O   0  0  0  0  0  0  0  0  0  0  0  0
   14.5158   -6.5369   -8.0719 C   0  0  0  0  0  0  0  0  0  0  0  0
   15.4644   -6.2083   -9.1717 C   0  0  2  0  0  0  0  0  0  0  0  0
   15.9412   -7.4131   -9.8004 N   0  0  0  0  0  0  0  0  0  0  0  0
   16.5952   -5.3729   -8.6636 C   0  0  0  0  0  0  0  0  0  0  0  0
   16.6347   -4.0428   -9.0465 O   0  0  0  0  0  0  0  0  0  0  0  0
   17.5026   -5.8090   -7.9151 O   0  0  0  0  0  0  0  0  0  0  0  0
  1  2  1  0
  2  3  1  0
  3  5  1  0
  3  4  1  6
  5  7  1  0
  5  6  1  1
  7  8  2  0
 10  9  1  0
 11 10  2  0
 12 10  1  0
 14 13  1  6
 13 12  1  0
 15 14  1  0
 15  7  1  0
 16 14  1  0
 17 16  2  0
 19 18  1  0
 19 20  2  0
 21 19  1  0
 22 21  1  1
 22 23  1  0
 23 16  1  0
 24 25  1  0
 24 22  1  0
 26 24  2  0
M  END
$$$$
