IQN.pdb
     RDKit          3D

 26 25  0  0  1  0  0  0  0  0999 V2000
   20.8697  -20.3648  -15.4960 C   0  0  0  0  0  0  0  0  0  0  0  0
   19.8966  -19.2237  -15.2082 C   0  0  0  0  0  0  0  0  0  0  0  0
   20.5061  -17.9345  -15.7065 C   0  0  2  0  0  0  0  0  0  0  0  0
   21.8963  -17.7219  -15.1251 C   0  0  0  0  0  0  0  0  0  0  0  0
   19.6364  -16.7241  -15.4772 C   0  0  2  0  0  0  0  0  0  0  0  0
   18.3254  -17.0439  -15.9809 N   0  0  0  0  0  0  0  0  0  0  0  0
   20.1864  -15.4768  -15.9870 C   0  0  0  0  0  0  0  0  0  0  0  0
   21.2146  -14.9991  -15.4478 O   0  0  0  0  0  0  0  0  0  0  0  0
   20.1916  -13.5495  -21.7679 N   0  0  0  0  0  0  0  0  0  0  0  0
   21.2542  -14.2623  -21.1586 C   0  0  0  0  0  0  0  0  0  0  0  0
   22.1139  -14.8607  -21.8456 O   0  0  0  0  0  0  0  0  0  0  0  0
   21.3240  -14.2827  -19.6783 C   0  0  0  0  0  0  0  0  0  0  0  0
   20.1433  -13.5525  -19.1277 C   0  0  0  0  0  0  0  0  0  0  0  0
   20.0927  -13.5297  -17.6127 C   0  0  2  0  0  0  0  0  0  0  0  0
   19.6024  -14.7730  -17.0779 N   0  0  0  0  0  0  0  0  0  0  0  0
   19.2443  -12.3859  -17.2489 C   0  0  0  0  0  0  0  0  0  0  0  0
   18.0126  -12.4891  -17.2169 O   0  0  0  0  0  0  0  0  0  0  0  0
   17.4839   -7.9436  -15.6462 N   0  0  0  0  0  0  0  0  0  0  0  0
   17.5078   -9.1527  -14.8493 C   0  0  0  0  0  0  0  0  0  0  0  0
   16.8488   -9.2040  -13.7882 O   0  0  0  0  0  0  0  0  0  0  0  0
   18.3051  -10.2971  -15.2997 C   0  0  0  0  0  0  0  0  0  0  0  0
   19.0578  -10.0094  -16.5518 C   0  0  2  0  0  0  0  0  0  0  0  0
   19.8559  -11.1468  -16.9307 N   0  0  0  0  0  0  0  0  0  0  0  0
   19.8960   -8.7816  -16.3954 C   0  0  0  0  0  0  0  0  0  0  0  0
   19.2515   -7.5562  -16.4131 O   0  0  0  0  0  0  0  0  0  0  0  0
   21.1420   -8.8020  -16.2502 O   0  0  0  0  0  0  0  0  0  0  0  0
  1  2  1  0
  2  3  1  0
  3  5  1  0
  3  4  1  1
  5  7  1  0
  5  6  1  6
  7  8  2  0
 10  9  1  0
 11 10  2  0
 12 10  1  0
 14 13  1  6
 13 12  1  0
 15 14  1  0
 15  7  1  0
 16 14  1  0
 17 16  2  0
 19 18  1  0
 19 20  2  0
 21 19  1  0
 22 21  1  1
 22 23  1  0
 23 16  1  0
 24 25  1  0
 24 22  1  0
 26 24  2  0
M  END
$$$$
