IQN.pdb
     RDKit          3D

 26 25  0  0  1  0  0  0  0  0999 V2000
   24.7561  -15.9453  -16.1411 C   0  0  0  0  0  0  0  0  0  0  0  0
   23.5246  -15.0687  -15.9243 C   0  0  0  0  0  0  0  0  0  0  0  0
   23.9097  -13.6289  -16.1698 C   0  0  2  0  0  0  0  0  0  0  0  0
   25.0612  -13.2057  -15.2693 C   0  0  0  0  0  0  0  0  0  0  0  0
   22.7557  -12.6647  -16.0562 C   0  0  2  0  0  0  0  0  0  0  0  0
   21.6749  -13.2046  -16.8403 N   0  0  0  0  0  0  0  0  0  0  0  0
   23.0882  -11.2819  -16.3656 C   0  0  0  0  0  0  0  0  0  0  0  0
   23.9697  -10.7008  -15.6865 O   0  0  0  0  0  0  0  0  0  0  0  0
   21.9655   -8.5093  -21.7968 N   0  0  0  0  0  0  0  0  0  0  0  0
   22.6469   -7.4480  -21.1505 C   0  0  0  0  0  0  0  0  0  0  0  0
   22.9678   -6.4081  -21.7707 O   0  0  0  0  0  0  0  0  0  0  0  0
   22.9729   -7.5996  -19.7126 C   0  0  0  0  0  0  0  0  0  0  0  0
   22.5484   -8.9582  -19.2605 C   0  0  0  0  0  0  0  0  0  0  0  0
   22.7546   -9.1994  -17.7780 C   0  0  2  0  0  0  0  0  0  0  0  0
   22.4508  -10.5583  -17.4128 N   0  0  0  0  0  0  0  0  0  0  0  0
   21.9023   -8.2247  -17.0824 C   0  0  0  0  0  0  0  0  0  0  0  0
   20.6862   -8.4120  -16.9608 O   0  0  0  0  0  0  0  0  0  0  0  0
   20.3090   -4.5042  -14.0431 N   0  0  0  0  0  0  0  0  0  0  0  0
   20.2953   -5.9256  -13.7657 C   0  0  0  0  0  0  0  0  0  0  0  0
   19.6482   -6.3556  -12.7864 O   0  0  0  0  0  0  0  0  0  0  0  0
   21.0411   -6.8374  -14.6378 C   0  0  0  0  0  0  0  0  0  0  0  0
   21.7100   -6.1288  -15.7637 C   0  0  2  0  0  0  0  0  0  0  0  0
   22.4917   -7.0524  -16.5448 N   0  0  0  0  0  0  0  0  0  0  0  0
   22.5463   -4.9987  -15.2559 C   0  0  0  0  0  0  0  0  0  0  0  0
   23.8857   -4.9815  -15.6066 O   0  0  0  0  0  0  0  0  0  0  0  0
   22.1031   -4.0726  -14.5348 O   0  0  0  0  0  0  0  0  0  0  0  0
  1  2  1  0
  2  3  1  0
  3  5  1  0
  3  4  1  1
  5  7  1  0
  5  6  1  6
  7  8  2  0
 10  9  1  0
 11 10  2  0
 12 10  1  0
 14 13  1  6
 13 12  1  0
 15 14  1  0
 15  7  1  0
 16 14  1  0
 17 16  2  0
 19 18  1  0
 19 20  2  0
 21 19  1  0
 22 21  1  1
 22 23  1  0
 23 16  1  0
 24 25  1  0
 24 22  1  0
 26 24  2  0
M  END
$$$$
