IQN.pdb
     RDKit          3D

 26 25  0  0  1  0  0  0  0  0999 V2000
   29.8961  -20.7521  -11.3942 C   0  0  0  0  0  0  0  0  0  0  0  0
   29.5631  -20.3419  -12.8269 C   0  0  0  0  0  0  0  0  0  0  0  0
   28.1073  -19.9436  -12.8872 C   0  0  2  0  0  0  0  0  0  0  0  0
   27.2112  -21.0487  -12.3472 C   0  0  0  0  0  0  0  0  0  0  0  0
   27.6547  -19.5055  -14.2574 C   0  0  2  0  0  0  0  0  0  0  0  0
   28.6864  -18.6539  -14.7913 N   0  0  0  0  0  0  0  0  0  0  0  0
   26.3195  -18.9278  -14.2990 C   0  0  0  0  0  0  0  0  0  0  0  0
   26.0953  -17.8661  -13.6679 O   0  0  0  0  0  0  0  0  0  0  0  0
   20.4840  -19.2421  -18.2512 N   0  0  0  0  0  0  0  0  0  0  0  0
   21.3931  -18.2912  -17.7243 C   0  0  0  0  0  0  0  0  0  0  0  0
   21.7981  -17.3273  -18.4141 O   0  0  0  0  0  0  0  0  0  0  0  0
   21.8562  -18.4662  -16.3272 C   0  0  0  0  0  0  0  0  0  0  0  0
   23.2652  -18.9610  -16.3426 C   0  0  0  0  0  0  0  0  0  0  0  0
   23.8758  -19.1049  -14.9624 C   0  0  2  0  0  0  0  0  0  0  0  0
   25.2521  -19.5214  -15.0304 N   0  0  0  0  0  0  0  0  0  0  0  0
   23.0309  -20.0661  -14.2395 C   0  0  0  0  0  0  0  0  0  0  0  0
   22.9463  -21.2439  -14.6061 O   0  0  0  0  0  0  0  0  0  0  0  0
   23.9766  -20.6047   -9.5236 N   0  0  0  0  0  0  0  0  0  0  0  0
   23.1958  -21.0812  -10.6465 C   0  0  0  0  0  0  0  0  0  0  0  0
   23.6590  -21.9801  -11.3813 O   0  0  0  0  0  0  0  0  0  0  0  0
   21.8747  -20.5010  -10.9036 C   0  0  0  0  0  0  0  0  0  0  0  0
   21.5010  -20.5513  -12.3440 C   0  0  2  0  0  0  0  0  0  0  0  0
   22.3038  -19.6278  -13.1037 N   0  0  0  0  0  0  0  0  0  0  0  0
   20.0416  -20.2811  -12.5222 C   0  0  0  0  0  0  0  0  0  0  0  0
   19.6784  -19.2226  -13.3377 O   0  0  0  0  0  0  0  0  0  0  0  0
   19.1359  -20.9566  -11.9770 O   0  0  0  0  0  0  0  0  0  0  0  0
  1  2  1  0
  2  3  1  0
  3  5  1  0
  3  4  1  6
  5  7  1  0
  5  6  1  1
  7  8  2  0
 10  9  1  0
 11 10  2  0
 12 10  1  0
 14 13  1  6
 13 12  1  0
 15 14  1  0
 15  7  1  0
 16 14  1  0
 17 16  2  0
 19 18  1  0
 19 20  2  0
 21 19  1  0
 22 21  1  1
 22 23  1  0
 23 16  1  0
 24 25  1  0
 24 22  1  0
 26 24  2  0
M  END
$$$$
