IQN.pdb
     RDKit          3D

 26 25  0  0  1  0  0  0  0  0999 V2000
   26.0557  -12.0020  -18.8029 C   0  0  0  0  0  0  0  0  0  0  0  0
   25.6565  -12.4958  -17.4141 C   0  0  0  0  0  0  0  0  0  0  0  0
   25.5562  -14.0025  -17.4497 C   0  0  2  0  0  0  0  0  0  0  0  0
   24.7169  -14.4708  -18.6296 C   0  0  0  0  0  0  0  0  0  0  0  0
   25.0578  -14.6077  -16.1614 C   0  0  2  0  0  0  0  0  0  0  0  0
   25.8154  -14.0095  -15.0924 N   0  0  0  0  0  0  0  0  0  0  0  0
   25.0400  -16.0629  -16.1420 C   0  0  0  0  0  0  0  0  0  0  0  0
   24.5104  -16.6784  -17.0994 O   0  0  0  0  0  0  0  0  0  0  0  0
   27.6589  -20.1218  -16.2324 N   0  0  0  0  0  0  0  0  0  0  0  0
   27.1842  -20.9502  -15.1850 C   0  0  0  0  0  0  0  0  0  0  0  0
   27.2378  -22.1988  -15.2685 O   0  0  0  0  0  0  0  0  0  0  0  0
   26.6186  -20.2984  -13.9800 C   0  0  0  0  0  0  0  0  0  0  0  0
   26.6771  -18.8168  -14.1584 C   0  0  0  0  0  0  0  0  0  0  0  0
   25.5108  -18.2509  -14.9445 C   0  0  2  0  0  0  0  0  0  0  0  0
   25.6019  -16.8202  -15.0756 N   0  0  0  0  0  0  0  0  0  0  0  0
   24.2952  -18.6758  -14.2360 C   0  0  0  0  0  0  0  0  0  0  0  0
   24.0709  -18.3096  -13.0766 O   0  0  0  0  0  0  0  0  0  0  0  0
   18.9004  -18.4054  -13.7274 N   0  0  0  0  0  0  0  0  0  0  0  0
   20.0990  -19.0263  -13.2026 C   0  0  0  0  0  0  0  0  0  0  0  0
   20.0086  -19.8355  -12.2541 O   0  0  0  0  0  0  0  0  0  0  0  0
   21.3994  -18.6952  -13.7920 C   0  0  0  0  0  0  0  0  0  0  0  0
   22.1350  -19.9012  -14.2628 C   0  0  2  0  0  0  0  0  0  0  0  0
   23.3692  -19.5199  -14.8998 N   0  0  0  0  0  0  0  0  0  0  0  0
   21.2798  -20.7204  -15.1750 C   0  0  0  0  0  0  0  0  0  0  0  0
   21.7884  -21.0339  -16.4242 O   0  0  0  0  0  0  0  0  0  0  0  0
   20.1355  -21.1357  -14.8716 O   0  0  0  0  0  0  0  0  0  0  0  0
  1  2  1  0
  2  3  1  0
  3  5  1  0
  3  4  1  6
  5  7  1  0
  5  6  1  1
  7  8  2  0
 10  9  1  0
 11 10  2  0
 12 10  1  0
 14 13  1  1
 13 12  1  0
 15 14  1  0
 15  7  1  0
 16 14  1  0
 17 16  2  0
 19 18  1  0
 19 20  2  0
 21 19  1  0
 22 21  1  6
 22 23  1  0
 23 16  1  0
 24 25  1  0
 24 22  1  0
 26 24  2  0
M  END
$$$$
