IQN.pdb
     RDKit          3D

 26 25  0  0  1  0  0  0  0  0999 V2000
   25.8021  -17.3890  -19.3147 C   0  0  0  0  0  0  0  0  0  0  0  0
   26.1748  -18.8380  -19.6206 C   0  0  0  0  0  0  0  0  0  0  0  0
   25.6515  -19.7146  -18.5073 C   0  0  2  0  0  0  0  0  0  0  0  0
   24.1348  -19.6351  -18.4105 C   0  0  0  0  0  0  0  0  0  0  0  0
   26.2907  -19.4416  -17.1690 C   0  0  2  0  0  0  0  0  0  0  0  0
   27.7138  -19.5790  -17.3443 N   0  0  0  0  0  0  0  0  0  0  0  0
   25.7448  -20.2190  -16.0663 C   0  0  0  0  0  0  0  0  0  0  0  0
   25.6127  -21.4599  -16.2027 O   0  0  0  0  0  0  0  0  0  0  0  0
   27.0791  -21.1861  -11.4858 N   0  0  0  0  0  0  0  0  0  0  0  0
   25.8619  -21.2940  -10.7680 C   0  0  0  0  0  0  0  0  0  0  0  0
   25.7465  -22.0776   -9.7977 O   0  0  0  0  0  0  0  0  0  0  0  0
   24.7206  -20.4509  -11.1966 C   0  0  0  0  0  0  0  0  0  0  0  0
   25.1259  -19.6615  -12.3977 C   0  0  0  0  0  0  0  0  0  0  0  0
   24.8022  -20.3429  -13.7128 C   0  0  2  0  0  0  0  0  0  0  0  0
   25.3526  -19.6258  -14.8332 N   0  0  0  0  0  0  0  0  0  0  0  0
   23.3370  -20.4425  -13.7721 C   0  0  0  0  0  0  0  0  0  0  0  0
   22.6365  -19.4434  -13.9717 O   0  0  0  0  0  0  0  0  0  0  0  0
   18.5979  -22.3287  -13.9028 N   0  0  0  0  0  0  0  0  0  0  0  0
   19.4487  -23.4657  -13.6183 C   0  0  0  0  0  0  0  0  0  0  0  0
   18.9368  -24.5968  -13.4728 O   0  0  0  0  0  0  0  0  0  0  0  0
   20.8971  -23.2716  -13.5049 C   0  0  0  0  0  0  0  0  0  0  0  0
   21.2896  -21.8390  -13.6086 C   0  0  2  0  0  0  0  0  0  0  0  0
   22.7239  -21.7090  -13.5963 N   0  0  0  0  0  0  0  0  0  0  0  0
   20.6590  -21.0369  -12.5161 C   0  0  0  0  0  0  0  0  0  0  0  0
   19.5648  -20.2537  -12.8426 O   0  0  0  0  0  0  0  0  0  0  0  0
   21.0650  -21.0354  -11.3290 O   0  0  0  0  0  0  0  0  0  0  0  0
  1  2  1  0
  2  3  1  0
  3  5  1  0
  3  4  1  1
  5  7  1  0
  5  6  1  6
  7  8  2  0
 10  9  1  0
 11 10  2  0
 12 10  1  0
 14 13  1  1
 13 12  1  0
 15 14  1  0
 15  7  1  0
 16 14  1  0
 17 16  2  0
 19 18  1  0
 19 20  2  0
 21 19  1  0
 22 21  1  1
 22 23  1  0
 23 16  1  0
 24 25  1  0
 24 22  1  0
 26 24  2  0
M  END
$$$$
