YSP.pdb
     RDKit          3D

 26 27  0  0  1  0  0  0  0  0999 V2000
    6.3648  -10.4505   27.0174 O   0  0  0  0  0  0  0  0  0  0  0  0
    6.6578  -11.7874   26.7733 C   0  0  0  0  0  0  0  0  0  0  0  0
    5.7643  -12.7605   27.1798 C   0  0  0  0  0  0  0  0  0  0  0  0
    6.0601  -14.0885   26.9348 C   0  0  0  0  0  0  0  0  0  0  0  0
    7.2180  -14.4749   26.2980 C   0  0  0  0  0  0  0  0  0  0  0  0
    7.5255  -15.8959   26.0493 C   0  0  0  0  0  0  0  0  0  0  0  0
    6.5172  -16.5542   25.1542 C   0  0  2  0  0  0  0  0  0  0  0  0
    6.0820  -17.8201   25.7451 N   0  0  0  0  0  0  0  0  0  0  0  0
    7.1367  -16.8277   23.8392 C   0  0  0  0  0  0  0  0  0  0  0  0
    7.7980  -17.8476   23.5911 O   0  0  0  0  0  0  0  0  0  0  0  0
    8.1182  -13.5024   25.8878 C   0  0  0  0  0  0  0  0  0  0  0  0
    7.8147  -12.1857   26.1360 C   0  0  0  0  0  0  0  0  0  0  0  0
    8.0891  -14.9365   19.4865 O   0  0  0  0  0  0  0  0  0  0  0  0
    7.3963  -14.7997   20.7149 C   0  0  0  0  0  0  0  0  0  0  0  0
    7.6806  -16.0700   21.4807 C   0  0  2  0  0  0  0  0  0  0  0  0
    6.9879  -15.8882   22.7684 N   0  0  0  0  0  0  0  0  0  0  0  0
    9.0965  -16.3673   21.6826 C   0  0  0  0  0  0  0  0  0  0  0  0
    9.6154  -15.8663   22.7447 O   0  0  0  0  0  0  0  0  0  0  0  0
    9.9520  -17.1282   20.8656 N   0  0  0  0  0  0  0  0  0  0  0  0
    9.5171  -17.8115   19.6329 C   0  0  0  0  0  0  0  0  0  0  0  0
   10.3625  -19.0488   19.5954 C   0  0  0  0  0  0  0  0  0  0  0  0
   11.3573  -18.9375   20.7205 C   0  0  0  0  0  0  0  0  0  0  0  0
   11.3648  -17.4332   20.9469 C   0  0  1  0  0  0  0  0  0  0  0  0
   12.1601  -16.7464   19.8720 C   0  0  0  0  0  0  0  0  0  0  0  0
   11.5182  -16.3213   18.8791 O   0  0  0  0  0  0  0  0  0  0  0  0
   13.5173  -16.5588   19.9060 O   0  0  0  0  0  0  0  0  0  0  0  0
  2  3  2  0
  2  1  1  0
  4  3  1  0
  5  4  2  0
  6  5  1  0
  7  6  1  0
  7  9  1  0
  7  8  1  1
  9 16  1  0
  9 10  2  0
 11  5  1  0
 11 12  2  0
 12  2  1  0
 14 13  1  0
 15 14  1  6
 16 15  1  0
 17 15  1  0
 17 18  2  0
 19 17  1  0
 20 19  1  0
 21 20  1  0
 21 22  1  0
 22 23  1  0
 23 19  1  0
 23 24  1  6
 25 24  2  0
 26 24  1  0
M  END
$$$$
