YSP.pdb
     RDKit          3D

 26 27  0  0  1  0  0  0  0  0999 V2000
    5.4318  -11.1310   28.9754 O   0  0  0  0  0  0  0  0  0  0  0  0
    6.1195  -11.8791   28.0266 C   0  0  0  0  0  0  0  0  0  0  0  0
    5.4867  -12.2198   26.8459 C   0  0  0  0  0  0  0  0  0  0  0  0
    6.1747  -12.9639   25.9056 C   0  0  0  0  0  0  0  0  0  0  0  0
    7.4722  -13.3779   26.1066 C   0  0  0  0  0  0  0  0  0  0  0  0
    8.1928  -14.1779   25.0985 C   0  0  0  0  0  0  0  0  0  0  0  0
    7.6831  -15.5864   25.0107 C   0  0  2  0  0  0  0  0  0  0  0  0
    7.9081  -16.2747   26.2822 N   0  0  0  0  0  0  0  0  0  0  0  0
    8.4125  -16.3038   23.9424 C   0  0  0  0  0  0  0  0  0  0  0  0
    9.3756  -17.0562   24.1552 O   0  0  0  0  0  0  0  0  0  0  0  0
    8.1121  -13.0386   27.2898 C   0  0  0  0  0  0  0  0  0  0  0  0
    7.4197  -12.2990   28.2175 C   0  0  0  0  0  0  0  0  0  0  0  0
    9.2649  -18.1342   21.5370 O   0  0  0  0  0  0  0  0  0  0  0  0
   10.0121  -16.9315   21.5917 C   0  0  0  0  0  0  0  0  0  0  0  0
    8.9917  -15.8204   21.5210 C   0  0  2  0  0  0  0  0  0  0  0  0
    8.0155  -16.1473   22.5751 N   0  0  0  0  0  0  0  0  0  0  0  0
    8.3345  -15.6650   20.2255 C   0  0  0  0  0  0  0  0  0  0  0  0
    7.2617  -16.3528   20.0695 O   0  0  0  0  0  0  0  0  0  0  0  0
    8.7278  -14.8618   19.1399 N   0  0  0  0  0  0  0  0  0  0  0  0
    9.9507  -14.0372   19.1292 C   0  0  0  0  0  0  0  0  0  0  0  0
    9.5649  -12.8404   18.3133 C   0  0  0  0  0  0  0  0  0  0  0  0
    8.1915  -13.1098   17.7572 C   0  0  0  0  0  0  0  0  0  0  0  0
    8.1449  -14.6283   17.8357 C   0  0  1  0  0  0  0  0  0  0  0  0
    8.9611  -15.2345   16.7285 C   0  0  0  0  0  0  0  0  0  0  0  0
   10.1230  -15.6105   17.0242 O   0  0  0  0  0  0  0  0  0  0  0  0
    8.5256  -15.3995   15.4395 O   0  0  0  0  0  0  0  0  0  0  0  0
  2  3  2  0
  2  1  1  0
  4  3  1  0
  5  4  2  0
  6  5  1  0
  7  6  1  0
  7  9  1  0
  7  8  1  1
  9 16  1  0
  9 10  2  0
 11  5  1  0
 11 12  2  0
 12  2  1  0
 14 13  1  0
 15 14  1  6
 16 15  1  0
 17 15  1  0
 17 18  2  0
 19 17  1  0
 20 19  1  0
 21 20  1  0
 21 22  1  0
 22 23  1  0
 23 19  1  0
 23 24  1  6
 25 24  2  0
 26 24  1  0
M  END
$$$$
