YSP.pdb
     RDKit          3D

 26 27  0  0  1  0  0  0  0  0999 V2000
    7.1893  -11.0296   26.7427 O   0  0  0  0  0  0  0  0  0  0  0  0
    7.0745  -12.4117   26.6434 C   0  0  0  0  0  0  0  0  0  0  0  0
    5.8342  -13.0002   26.8033 C   0  0  0  0  0  0  0  0  0  0  0  0
    5.7251  -14.3748   26.7036 C   0  0  0  0  0  0  0  0  0  0  0  0
    6.8136  -15.1787   26.4501 C   0  0  0  0  0  0  0  0  0  0  0  0
    6.6852  -16.6450   26.3536 C   0  0  0  0  0  0  0  0  0  0  0  0
    6.1004  -17.0860   25.0441 C   0  0  2  0  0  0  0  0  0  0  0  0
    5.6130  -18.4610   25.1572 N   0  0  0  0  0  0  0  0  0  0  0  0
    7.1466  -17.0332   23.9998 C   0  0  0  0  0  0  0  0  0  0  0  0
    8.0685  -17.8584   23.9099 O   0  0  0  0  0  0  0  0  0  0  0  0
    8.0608  -14.5932   26.2886 C   0  0  0  0  0  0  0  0  0  0  0  0
    8.1582  -13.2266   26.3894 C   0  0  0  0  0  0  0  0  0  0  0  0
    8.6325  -13.6710   21.6707 O   0  0  0  0  0  0  0  0  0  0  0  0
    7.7736  -14.6787   21.1664 C   0  0  0  0  0  0  0  0  0  0  0  0
    8.1249  -15.9293   21.9366 C   0  0  2  0  0  0  0  0  0  0  0  0
    7.1289  -15.9878   23.0208 N   0  0  0  0  0  0  0  0  0  0  0  0
    9.4848  -15.9669   22.4691 C   0  0  0  0  0  0  0  0  0  0  0  0
    9.6206  -15.5013   23.6579 O   0  0  0  0  0  0  0  0  0  0  0  0
   10.6513  -16.4465   21.8465 N   0  0  0  0  0  0  0  0  0  0  0  0
   10.7016  -16.9197   20.4504 C   0  0  0  0  0  0  0  0  0  0  0  0
   11.7214  -18.0178   20.4841 C   0  0  0  0  0  0  0  0  0  0  0  0
   12.3275  -18.0146   21.8627 C   0  0  0  0  0  0  0  0  0  0  0  0
   12.0152  -16.5941   22.3084 C   0  0  1  0  0  0  0  0  0  0  0  0
   12.9506  -15.6209   21.6470 C   0  0  0  0  0  0  0  0  0  0  0  0
   14.0914  -15.4973   22.1590 O   0  0  0  0  0  0  0  0  0  0  0  0
   12.6426  -14.8726   20.5409 O   0  0  0  0  0  0  0  0  0  0  0  0
  2  3  2  0
  2  1  1  0
  4  3  1  0
  5  4  2  0
  6  5  1  0
  7  6  1  0
  7  9  1  0
  7  8  1  1
  9 16  1  0
  9 10  2  0
 11  5  1  0
 11 12  2  0
 12  2  1  0
 14 13  1  0
 15 14  1  1
 16 15  1  0
 17 15  1  0
 17 18  2  0
 19 17  1  0
 20 19  1  0
 21 20  1  0
 21 22  1  0
 22 23  1  0
 23 19  1  0
 23 24  1  6
 25 24  2  0
 26 24  1  0
M  END
$$$$
