YSP.pdb
     RDKit          3D

 26 27  0  0  1  0  0  0  0  0999 V2000
    5.4380  -10.9731   28.4716 O   0  0  0  0  0  0  0  0  0  0  0  0
    6.0327  -11.9297   27.6566 C   0  0  0  0  0  0  0  0  0  0  0  0
    7.2587  -12.4568   28.0167 C   0  0  0  0  0  0  0  0  0  0  0  0
    7.8460  -13.4077   27.2032 C   0  0  0  0  0  0  0  0  0  0  0  0
    7.2491  -13.8480   26.0433 C   0  0  0  0  0  0  0  0  0  0  0  0
    7.8899  -14.8578   25.1799 C   0  0  0  0  0  0  0  0  0  0  0  0
    6.9005  -15.8146   24.5825 C   0  0  2  0  0  0  0  0  0  0  0  0
    6.4633  -16.7732   25.5978 N   0  0  0  0  0  0  0  0  0  0  0  0
    7.5434  -16.5520   23.4731 C   0  0  0  0  0  0  0  0  0  0  0  0
    8.0814  -17.6618   23.6077 O   0  0  0  0  0  0  0  0  0  0  0  0
    6.0185  -13.3224   25.6772 C   0  0  0  0  0  0  0  0  0  0  0  0
    5.4435  -12.3782   26.4927 C   0  0  0  0  0  0  0  0  0  0  0  0
    8.5777  -14.6027   20.0691 O   0  0  0  0  0  0  0  0  0  0  0  0
    7.9011  -15.8238   19.8267 C   0  0  0  0  0  0  0  0  0  0  0  0
    8.1962  -16.6924   21.0263 C   0  0  2  0  0  0  0  0  0  0  0  0
    7.5668  -15.9877   22.1569 N   0  0  0  0  0  0  0  0  0  0  0  0
    9.6141  -16.9346   21.2814 C   0  0  0  0  0  0  0  0  0  0  0  0
   10.1532  -16.1632   22.1546 O   0  0  0  0  0  0  0  0  0  0  0  0
   10.4523  -17.8999   20.6948 N   0  0  0  0  0  0  0  0  0  0  0  0
   10.0075  -18.8559   19.6634 C   0  0  0  0  0  0  0  0  0  0  0  0
   10.8123  -20.0876   19.9501 C   0  0  0  0  0  0  0  0  0  0  0  0
   11.7991  -19.7283   21.0296 C   0  0  0  0  0  0  0  0  0  0  0  0
   11.8534  -18.2160   20.8745 C   0  0  1  0  0  0  0  0  0  0  0  0
   12.6814  -17.8426   19.6767 C   0  0  0  0  0  0  0  0  0  0  0  0
   13.9292  -17.8912   19.8155 O   0  0  0  0  0  0  0  0  0  0  0  0
   12.1699  -17.4584   18.4646 O   0  0  0  0  0  0  0  0  0  0  0  0
  2  3  2  0
  2  1  1  0
  4  3  1  0
  5  4  2  0
  6  5  1  0
  7  6  1  0
  7  9  1  0
  7  8  1  1
  9 16  1  0
  9 10  2  0
 11  5  1  0
 11 12  2  0
 12  2  1  0
 14 13  1  0
 15 14  1  6
 16 15  1  0
 17 15  1  0
 17 18  2  0
 19 17  1  0
 20 19  1  0
 21 20  1  0
 21 22  1  0
 22 23  1  0
 23 19  1  0
 23 24  1  6
 25 24  2  0
 26 24  1  0
M  END
$$$$
