YSP.pdb
     RDKit          3D

 26 27  0  0  1  0  0  0  0  0999 V2000
   10.4749  -14.5760   30.4424 O   0  0  0  0  0  0  0  0  0  0  0  0
   10.0605  -15.2551   29.3022 C   0  0  0  0  0  0  0  0  0  0  0  0
    9.5612  -14.5372   28.2318 C   0  0  0  0  0  0  0  0  0  0  0  0
    9.1504  -15.2170   27.1003 C   0  0  0  0  0  0  0  0  0  0  0  0
    9.2220  -16.5885   27.0041 C   0  0  0  0  0  0  0  0  0  0  0  0
    8.7732  -17.3025   25.7939 C   0  0  0  0  0  0  0  0  0  0  0  0
    7.3139  -17.0961   25.5126 C   0  0  2  0  0  0  0  0  0  0  0  0
    6.6557  -18.3908   25.3352 N   0  0  0  0  0  0  0  0  0  0  0  0
    7.1631  -16.3081   24.2699 C   0  0  0  0  0  0  0  0  0  0  0  0
    6.7432  -16.7825   23.2033 O   0  0  0  0  0  0  0  0  0  0  0  0
    9.7224  -17.3139   28.0755 C   0  0  0  0  0  0  0  0  0  0  0  0
   10.1280  -16.6288   29.1950 C   0  0  0  0  0  0  0  0  0  0  0  0
    9.0555  -12.8433   24.0170 O   0  0  0  0  0  0  0  0  0  0  0  0
    7.7529  -12.7045   23.4772 C   0  0  0  0  0  0  0  0  0  0  0  0
    7.3455  -14.0937   23.0469 C   0  0  2  0  0  0  0  0  0  0  0  0
    7.5103  -14.9186   24.2566 N   0  0  0  0  0  0  0  0  0  0  0  0
    8.1070  -14.6433   21.9279 C   0  0  0  0  0  0  0  0  0  0  0  0
    8.5807  -15.8220   22.1140 O   0  0  0  0  0  0  0  0  0  0  0  0
    8.3810  -14.0467   20.6840 N   0  0  0  0  0  0  0  0  0  0  0  0
    8.0550  -12.6462   20.3554 C   0  0  0  0  0  0  0  0  0  0  0  0
    7.7175  -12.6932   18.8957 C   0  0  0  0  0  0  0  0  0  0  0  0
    8.0234  -14.0879   18.4169 C   0  0  0  0  0  0  0  0  0  0  0  0
    9.0117  -14.5439   19.4797 C   0  0  1  0  0  0  0  0  0  0  0  0
   10.3593  -13.9218   19.2420 C   0  0  0  0  0  0  0  0  0  0  0  0
   10.5602  -12.7947   19.7599 O   0  0  0  0  0  0  0  0  0  0  0  0
   11.3646  -14.4960   18.5085 O   0  0  0  0  0  0  0  0  0  0  0  0
  2  3  2  0
  2  1  1  0
  4  3  1  0
  5  4  2  0
  6  5  1  0
  7  6  1  0
  7  9  1  0
  7  8  1  6
  9 16  1  0
  9 10  2  0
 11  5  1  0
 11 12  2  0
 12  2  1  0
 14 13  1  0
 15 14  1  1
 16 15  1  0
 17 15  1  0
 17 18  2  0
 19 17  1  0
 20 19  1  0
 21 20  1  0
 21 22  1  0
 22 23  1  0
 23 19  1  0
 23 24  1  6
 25 24  2  0
 26 24  1  0
M  END
$$$$
