YSP.pdb
     RDKit          3D

 26 27  0  0  1  0  0  0  0  0999 V2000
    5.9085  -10.4102   28.1528 O   0  0  0  0  0  0  0  0  0  0  0  0
    6.4588  -11.4454   27.4055 C   0  0  0  0  0  0  0  0  0  0  0  0
    6.1123  -11.5764   26.0740 C   0  0  0  0  0  0  0  0  0  0  0  0
    6.6622  -12.6074   25.3351 C   0  0  0  0  0  0  0  0  0  0  0  0
    7.5454  -13.5103   25.8830 C   0  0  0  0  0  0  0  0  0  0  0  0
    8.1193  -14.6106   25.0857 C   0  0  0  0  0  0  0  0  0  0  0  0
    7.0724  -15.5540   24.5705 C   0  0  2  0  0  0  0  0  0  0  0  0
    6.4945  -16.3081   25.6833 N   0  0  0  0  0  0  0  0  0  0  0  0
    7.6948  -16.5025   23.6215 C   0  0  0  0  0  0  0  0  0  0  0  0
    8.1685  -17.5985   23.9581 O   0  0  0  0  0  0  0  0  0  0  0  0
    7.8967  -13.3833   27.2190 C   0  0  0  0  0  0  0  0  0  0  0  0
    7.3448  -12.3554   27.9442 C   0  0  0  0  0  0  0  0  0  0  0  0
    8.9023  -15.0260   20.0553 O   0  0  0  0  0  0  0  0  0  0  0  0
    8.3537  -16.3280   19.9473 C   0  0  0  0  0  0  0  0  0  0  0  0
    8.5828  -16.9740   21.2930 C   0  0  2  0  0  0  0  0  0  0  0  0
    7.7739  -16.1743   22.2295 N   0  0  0  0  0  0  0  0  0  0  0  0
    9.9781  -17.0335   21.7216 C   0  0  0  0  0  0  0  0  0  0  0  0
   10.3385  -16.1147   22.5428 O   0  0  0  0  0  0  0  0  0  0  0  0
   10.9646  -17.9647   21.3501 N   0  0  0  0  0  0  0  0  0  0  0  0
   10.7340  -19.0713   20.4026 C   0  0  0  0  0  0  0  0  0  0  0  0
   11.6093  -20.1718   20.9220 C   0  0  0  0  0  0  0  0  0  0  0  0
   12.4249  -19.5926   22.0476 C   0  0  0  0  0  0  0  0  0  0  0  0
   12.3580  -18.1098   21.7148 C   0  0  1  0  0  0  0  0  0  0  0  0
   13.2832  -17.7873   20.5748 C   0  0  0  0  0  0  0  0  0  0  0  0
   14.5031  -17.6721   20.8530 O   0  0  0  0  0  0  0  0  0  0  0  0
   12.8870  -17.6135   19.2744 O   0  0  0  0  0  0  0  0  0  0  0  0
  2  3  2  0
  2  1  1  0
  4  3  1  0
  5  4  2  0
  6  5  1  0
  7  6  1  0
  7  9  1  0
  7  8  1  1
  9 16  1  0
  9 10  2  0
 11  5  1  0
 11 12  2  0
 12  2  1  0
 14 13  1  0
 15 14  1  6
 16 15  1  0
 17 15  1  0
 17 18  2  0
 19 17  1  0
 20 19  1  0
 21 20  1  0
 21 22  1  0
 22 23  1  0
 23 19  1  0
 23 24  1  6
 25 24  2  0
 26 24  1  0
M  END
$$$$
