YSP.pdb
     RDKit          3D

 26 27  0  0  1  0  0  0  0  0999 V2000
   10.1286  -14.2173   30.2428 O   0  0  0  0  0  0  0  0  0  0  0  0
    9.8290  -14.4827   28.9114 C   0  0  0  0  0  0  0  0  0  0  0  0
   10.2295  -15.6827   28.3546 C   0  0  0  0  0  0  0  0  0  0  0  0
    9.9293  -15.9421   27.0303 C   0  0  0  0  0  0  0  0  0  0  0  0
    9.2432  -15.0425   26.2457 C   0  0  0  0  0  0  0  0  0  0  0  0
    8.9356  -15.3281   24.8317 C   0  0  0  0  0  0  0  0  0  0  0  0
    7.4616  -15.3231   24.5516 C   0  0  2  0  0  0  0  0  0  0  0  0
    6.7966  -16.3293   25.3800 N   0  0  0  0  0  0  0  0  0  0  0  0
    7.2343  -15.6497   23.1270 C   0  0  0  0  0  0  0  0  0  0  0  0
    6.9038  -16.7760   22.7255 O   0  0  0  0  0  0  0  0  0  0  0  0
    8.8388  -13.8366   26.7996 C   0  0  0  0  0  0  0  0  0  0  0  0
    9.1421  -13.5888   28.1163 C   0  0  0  0  0  0  0  0  0  0  0  0
    8.6566  -13.1990   20.0362 O   0  0  0  0  0  0  0  0  0  0  0  0
    7.2965  -13.5952   20.0113 C   0  0  0  0  0  0  0  0  0  0  0  0
    7.2576  -14.9432   20.6912 C   0  0  2  0  0  0  0  0  0  0  0  0
    7.3945  -14.6377   22.1261 N   0  0  0  0  0  0  0  0  0  0  0  0
    8.2838  -15.8867   20.2542 C   0  0  0  0  0  0  0  0  0  0  0  0
    9.2754  -16.0284   21.0572 O   0  0  0  0  0  0  0  0  0  0  0  0
    8.3180  -16.6520   19.0745 N   0  0  0  0  0  0  0  0  0  0  0  0
    7.3158  -16.5459   17.9975 C   0  0  0  0  0  0  0  0  0  0  0  0
    7.2182  -17.9434   17.4642 C   0  0  0  0  0  0  0  0  0  0  0  0
    8.2871  -18.7528   18.1499 C   0  0  0  0  0  0  0  0  0  0  0  0
    9.2429  -17.6524   18.5854 C   0  0  1  0  0  0  0  0  0  0  0  0
   10.0460  -17.1628   17.4128 C   0  0  0  0  0  0  0  0  0  0  0  0
   11.0803  -17.8156   17.1248 O   0  0  0  0  0  0  0  0  0  0  0  0
    9.7271  -16.0684   16.6520 O   0  0  0  0  0  0  0  0  0  0  0  0
  2  3  2  0
  2  1  1  0
  4  3  1  0
  5  4  2  0
  6  5  1  0
  7  6  1  0
  7  9  1  0
  7  8  1  1
  9 16  1  0
  9 10  2  0
 11  5  1  0
 11 12  2  0
 12  2  1  0
 14 13  1  0
 15 14  1  6
 16 15  1  0
 17 15  1  0
 17 18  2  0
 19 17  1  0
 20 19  1  0
 21 20  1  0
 21 22  1  0
 22 23  1  0
 23 19  1  0
 23 24  1  6
 25 24  2  0
 26 24  1  0
M  END
$$$$
