YSP.pdb
     RDKit          3D

 26 27  0  0  1  0  0  0  0  0999 V2000
    8.8707  -13.7163   15.2290 O   0  0  0  0  0  0  0  0  0  0  0  0
    8.5902  -13.8267   16.5863 C   0  0  0  0  0  0  0  0  0  0  0  0
    7.6255  -13.0101   17.1458 C   0  0  0  0  0  0  0  0  0  0  0  0
    7.3501  -13.1236   18.4958 C   0  0  0  0  0  0  0  0  0  0  0  0
    8.0065  -14.0250   19.3033 C   0  0  0  0  0  0  0  0  0  0  0  0
    7.7087  -14.1311   20.7441 C   0  0  0  0  0  0  0  0  0  0  0  0
    7.2745  -15.5113   21.1413 C   0  0  2  0  0  0  0  0  0  0  0  0
    6.0379  -15.8620   20.4421 N   0  0  0  0  0  0  0  0  0  0  0  0
    7.0261  -15.5442   22.5990 C   0  0  0  0  0  0  0  0  0  0  0  0
    5.8985  -15.4394   23.1055 O   0  0  0  0  0  0  0  0  0  0  0  0
    8.9756  -14.8471   18.7468 C   0  0  0  0  0  0  0  0  0  0  0  0
    9.2415  -14.7264   17.4045 C   0  0  0  0  0  0  0  0  0  0  0  0
    7.9498  -18.1472   24.7224 O   0  0  0  0  0  0  0  0  0  0  0  0
    7.0901  -17.0916   25.1150 C   0  0  0  0  0  0  0  0  0  0  0  0
    7.9057  -15.8299   24.9607 C   0  0  2  0  0  0  0  0  0  0  0  0
    8.1210  -15.7043   23.5085 N   0  0  0  0  0  0  0  0  0  0  0  0
    9.1754  -15.8213   25.6833 C   0  0  0  0  0  0  0  0  0  0  0  0
   10.1808  -16.2795   25.0295 O   0  0  0  0  0  0  0  0  0  0  0  0
    9.4292  -15.3762   26.9931 N   0  0  0  0  0  0  0  0  0  0  0  0
    8.3739  -14.9855   27.9467 C   0  0  0  0  0  0  0  0  0  0  0  0
    9.0057  -13.8849   28.7444 C   0  0  0  0  0  0  0  0  0  0  0  0
   10.4488  -13.8058   28.3211 C   0  0  0  0  0  0  0  0  0  0  0  0
   10.6537  -15.1985   27.7445 C   0  0  1  0  0  0  0  0  0  0  0  0
   10.7965  -16.2066   28.8504 C   0  0  0  0  0  0  0  0  0  0  0  0
   11.8224  -16.1139   29.5699 O   0  0  0  0  0  0  0  0  0  0  0  0
    9.8945  -17.2031   29.1181 O   0  0  0  0  0  0  0  0  0  0  0  0
  2  3  2  0
  2  1  1  0
  4  3  1  0
  5  4  2  0
  6  5  1  0
  7  6  1  0
  7  9  1  0
  7  8  1  6
  9 16  1  0
  9 10  2  0
 11  5  1  0
 11 12  2  0
 12  2  1  0
 14 13  1  0
 15 14  1  6
 16 15  1  0
 17 15  1  0
 17 18  2  0
 19 17  1  0
 20 19  1  0
 21 20  1  0
 21 22  1  0
 22 23  1  0
 23 19  1  0
 23 24  1  1
 25 24  2  0
 26 24  1  0
M  END
$$$$
