AQK.pdb
     RDKit          3D

 24 23  0  0  1  0  0  0  0  0999 V2000
    8.1366  -19.9600   16.9402 C   0  0  0  0  0  0  0  0  0  0  0  0
    8.5726  -18.6300   16.3578 C   0  0  2  0  0  0  0  0  0  0  0  0
    9.5120  -18.7897   15.2821 N   0  0  0  0  0  0  0  0  0  0  0  0
    9.1066  -17.8063   17.4644 C   0  0  0  0  0  0  0  0  0  0  0  0
   10.2568  -18.0822   17.8922 O   0  0  0  0  0  0  0  0  0  0  0  0
    6.6701  -12.5080   19.9291 N   0  0  0  0  0  0  0  0  0  0  0  0
    7.8335  -12.6941   20.7319 C   0  0  0  0  0  0  0  0  0  0  0  0
    8.0875  -11.8006   21.5775 O   0  0  0  0  0  0  0  0  0  0  0  0
    8.6953  -13.8921   20.5658 C   0  0  0  0  0  0  0  0  0  0  0  0
    8.1199  -14.7172   19.4354 C   0  0  0  0  0  0  0  0  0  0  0  0
    8.9656  -15.9403   19.1479 C   0  0  2  0  0  0  0  0  0  0  0  0
    8.4139  -16.7340   18.0712 N   0  0  0  0  0  0  0  0  0  0  0  0
    9.0832  -16.7155   20.4039 C   0  0  0  0  0  0  0  0  0  0  0  0
    8.1507  -17.5153   20.6751 O   0  0  0  0  0  0  0  0  0  0  0  0
   10.1554  -16.6205   21.3064 N   0  0  0  0  0  0  0  0  0  0  0  0
   10.2246  -17.3946   22.5295 C   0  0  1  0  0  0  0  0  0  0  0  0
   11.6185  -17.8883   22.8130 C   0  0  0  0  0  0  0  0  0  0  0  0
   11.7154  -18.6921   24.0799 C   0  0  0  0  0  0  0  0  0  0  0  0
   13.1692  -19.1593   24.1877 C   0  0  0  0  0  0  0  0  0  0  0  0
   13.3943  -19.9393   25.4575 C   0  0  0  0  0  0  0  0  0  0  0  0
   14.7362  -20.4342   25.4995 N   0  0  0  0  0  0  0  0  0  0  0  0
    9.8391  -16.4951   23.6476 C   0  0  0  0  0  0  0  0  0  0  0  0
    9.4125  -16.9916   24.8788 O   0  0  0  0  0  0  0  0  0  0  0  0
    9.8829  -15.2444   23.5263 O   0  0  0  0  0  0  0  0  0  0  0  0
  2  3  1  0
  2  1  1  1
  4  2  1  0
  5  4  2  0
  7  6  1  0
  7  9  1  0
  8  7  2  0
 10  9  1  0
 11 10  1  1
 11 12  1  0
 12  4  1  0
 13 11  1  0
 13 15  1  0
 14 13  2  0
 16 17  1  1
 16 15  1  0
 16 22  1  0
 18 17  1  0
 19 18  1  0
 20 19  1  0
 20 21  1  0
 22 23  1  0
 24 22  2  0
M  END
$$$$
