AQK.pdb
     RDKit          3D

 24 23  0  0  1  0  0  0  0  0999 V2000
    3.9864  -18.3202   22.5362 C   0  0  0  0  0  0  0  0  0  0  0  0
    4.2595  -17.9994   21.0800 C   0  0  2  0  0  0  0  0  0  0  0  0
    4.2538  -19.1755   20.2542 N   0  0  0  0  0  0  0  0  0  0  0  0
    5.5396  -17.2610   21.0131 C   0  0  0  0  0  0  0  0  0  0  0  0
    6.5994  -17.9371   20.9723 O   0  0  0  0  0  0  0  0  0  0  0  0
    7.5694  -13.2492   18.0600 N   0  0  0  0  0  0  0  0  0  0  0  0
    8.4963  -13.2562   19.1433 C   0  0  0  0  0  0  0  0  0  0  0  0
    9.6919  -13.5226   18.8646 O   0  0  0  0  0  0  0  0  0  0  0  0
    8.0558  -12.9609   20.5305 C   0  0  0  0  0  0  0  0  0  0  0  0
    6.7348  -13.6651   20.7512 C   0  0  0  0  0  0  0  0  0  0  0  0
    6.9193  -15.1572   20.9338 C   0  0  2  0  0  0  0  0  0  0  0  0
    5.6515  -15.8522   20.9920 N   0  0  0  0  0  0  0  0  0  0  0  0
    7.7235  -15.3680   22.1591 C   0  0  0  0  0  0  0  0  0  0  0  0
    7.2084  -15.0176   23.2520 O   0  0  0  0  0  0  0  0  0  0  0  0
    9.0116  -15.9278   22.1853 N   0  0  0  0  0  0  0  0  0  0  0  0
    9.7571  -16.1278   23.4117 C   0  0  1  0  0  0  0  0  0  0  0  0
    9.6632  -17.5454   23.9104 C   0  0  0  0  0  0  0  0  0  0  0  0
   10.4861  -17.7946   25.1439 C   0  0  0  0  0  0  0  0  0  0  0  0
   10.1993  -19.2356   25.5735 C   0  0  0  0  0  0  0  0  0  0  0  0
   10.8314  -19.5385   26.9077 C   0  0  0  0  0  0  0  0  0  0  0  0
   10.6507  -20.9196   27.2354 N   0  0  0  0  0  0  0  0  0  0  0  0
   11.1874  -15.8594   23.1115 C   0  0  0  0  0  0  0  0  0  0  0  0
   11.6293  -15.5835   21.8181 O   0  0  0  0  0  0  0  0  0  0  0  0
   12.0596  -15.8708   24.0170 O   0  0  0  0  0  0  0  0  0  0  0  0
  2  3  1  0
  2  1  1  1
  4  2  1  0
  5  4  2  0
  7  6  1  0
  7  9  1  0
  8  7  2  0
 10  9  1  0
 11 10  1  1
 11 12  1  0
 12  4  1  0
 13 11  1  0
 13 15  1  0
 14 13  2  0
 16 17  1  6
 16 15  1  0
 16 22  1  0
 18 17  1  0
 19 18  1  0
 20 19  1  0
 20 21  1  0
 22 23  1  0
 24 22  2  0
M  END
$$$$
