AQK.pdb
     RDKit          3D

 24 23  0  0  1  0  0  0  0  0999 V2000
    7.3555  -13.1682   18.6768 C   0  0  0  0  0  0  0  0  0  0  0  0
    8.6696  -13.2037   19.4317 C   0  0  2  0  0  0  0  0  0  0  0  0
    9.7913  -13.4207   18.5599 N   0  0  0  0  0  0  0  0  0  0  0  0
    8.5571  -14.2364   20.4849 C   0  0  0  0  0  0  0  0  0  0  0  0
    7.5538  -14.1881   21.2419 O   0  0  0  0  0  0  0  0  0  0  0  0
   12.1688  -19.2455   20.8419 N   0  0  0  0  0  0  0  0  0  0  0  0
   11.5503  -18.6336   19.7123 C   0  0  0  0  0  0  0  0  0  0  0  0
   11.9632  -18.9865   18.5797 O   0  0  0  0  0  0  0  0  0  0  0  0
   10.4703  -17.6283   19.8812 C   0  0  0  0  0  0  0  0  0  0  0  0
   10.1552  -17.5383   21.3584 C   0  0  0  0  0  0  0  0  0  0  0  0
    9.3182  -16.3174   21.6791 C   0  0  2  0  0  0  0  0  0  0  0  0
    9.4976  -15.2699   20.6971 N   0  0  0  0  0  0  0  0  0  0  0  0
    9.6783  -15.8663   23.0426 C   0  0  0  0  0  0  0  0  0  0  0  0
   10.7920  -15.2990   23.1849 O   0  0  0  0  0  0  0  0  0  0  0  0
    8.8686  -16.0267   24.1792 N   0  0  0  0  0  0  0  0  0  0  0  0
    9.2379  -15.5197   25.4855 C   0  0  1  0  0  0  0  0  0  0  0  0
    8.0724  -14.8925   26.2034 C   0  0  0  0  0  0  0  0  0  0  0  0
    7.8258  -13.4658   25.7980 C   0  0  0  0  0  0  0  0  0  0  0  0
    6.6038  -12.9943   26.5902 C   0  0  0  0  0  0  0  0  0  0  0  0
    6.2832  -11.5538   26.2840 C   0  0  0  0  0  0  0  0  0  0  0  0
    5.1832  -11.1135   27.0861 N   0  0  0  0  0  0  0  0  0  0  0  0
    9.6874  -16.6775   26.3012 C   0  0  0  0  0  0  0  0  0  0  0  0
    9.6324  -17.9844   25.8181 O   0  0  0  0  0  0  0  0  0  0  0  0
   10.1371  -16.5231   27.4651 O   0  0  0  0  0  0  0  0  0  0  0  0
  2  3  1  0
  2  1  1  6
  4  2  1  0
  5  4  2  0
  7  6  1  0
  7  9  1  0
  8  7  2  0
 10  9  1  0
 11 10  1  6
 11 12  1  0
 12  4  1  0
 13 11  1  0
 13 15  1  0
 14 13  2  0
 16 17  1  1
 16 15  1  0
 16 22  1  0
 18 17  1  0
 19 18  1  0
 20 19  1  0
 20 21  1  0
 22 23  1  0
 24 22  2  0
M  END
$$$$
