AQK.pdb
     RDKit          3D

 24 23  0  0  1  0  0  0  0  0999 V2000
    8.1342  -12.4503   19.9121 C   0  0  0  0  0  0  0  0  0  0  0  0
    8.4583  -13.1496   18.6067 C   0  0  2  0  0  0  0  0  0  0  0  0
    7.3172  -13.8271   18.0553 N   0  0  0  0  0  0  0  0  0  0  0  0
    9.5983  -14.0596   18.8533 C   0  0  0  0  0  0  0  0  0  0  0  0
    9.3447  -15.2826   19.0013 O   0  0  0  0  0  0  0  0  0  0  0  0
   13.2289  -16.1919   16.4997 N   0  0  0  0  0  0  0  0  0  0  0  0
   14.2939  -16.1694   17.4473 C   0  0  0  0  0  0  0  0  0  0  0  0
   15.1008  -17.1317   17.4160 O   0  0  0  0  0  0  0  0  0  0  0  0
   14.4310  -15.0552   18.4195 C   0  0  0  0  0  0  0  0  0  0  0  0
   13.2471  -14.1325   18.2286 C   0  0  0  0  0  0  0  0  0  0  0  0
   12.0543  -14.5744   19.0508 C   0  0  2  0  0  0  0  0  0  0  0  0
   10.9483  -13.6488   18.9337 N   0  0  0  0  0  0  0  0  0  0  0  0
   12.5024  -14.7277   20.4537 C   0  0  0  0  0  0  0  0  0  0  0  0
   13.2391  -13.8228   20.9238 O   0  0  0  0  0  0  0  0  0  0  0  0
   12.1645  -15.8051   21.2893 N   0  0  0  0  0  0  0  0  0  0  0  0
   12.6457  -15.9250   22.6509 C   0  0  1  0  0  0  0  0  0  0  0  0
   12.1117  -17.1542   23.3374 C   0  0  0  0  0  0  0  0  0  0  0  0
   12.5960  -17.2986   24.7535 C   0  0  0  0  0  0  0  0  0  0  0  0
   12.0465  -18.6321   25.2664 C   0  0  0  0  0  0  0  0  0  0  0  0
   12.3075  -18.7933   26.7420 C   0  0  0  0  0  0  0  0  0  0  0  0
   11.7548  -20.0284   27.2073 N   0  0  0  0  0  0  0  0  0  0  0  0
   14.1241  -16.0608   22.5898 C   0  0  0  0  0  0  0  0  0  0  0  0
   14.7529  -16.8356   21.6158 O   0  0  0  0  0  0  0  0  0  0  0  0
   14.8696  -15.4794   23.4185 O   0  0  0  0  0  0  0  0  0  0  0  0
  2  3  1  0
  2  1  1  1
  4  2  1  0
  5  4  2  0
  7  6  1  0
  7  9  1  0
  8  7  2  0
 10  9  1  0
 11 10  1  6
 11 12  1  0
 12  4  1  0
 13 11  1  0
 13 15  1  0
 14 13  2  0
 16 17  1  6
 16 15  1  0
 16 22  1  0
 18 17  1  0
 19 18  1  0
 20 19  1  0
 20 21  1  0
 22 23  1  0
 24 22  2  0
M  END
$$$$
