AQK.pdb
     RDKit          3D

 24 23  0  0  1  0  0  0  0  0999 V2000
   10.7965  -17.3192   18.1246 C   0  0  0  0  0  0  0  0  0  0  0  0
    9.8791  -17.6432   19.2871 C   0  0  2  0  0  0  0  0  0  0  0  0
    8.5956  -18.1192   18.8501 N   0  0  0  0  0  0  0  0  0  0  0  0
    9.7815  -16.4349   20.1350 C   0  0  0  0  0  0  0  0  0  0  0  0
   10.8322  -16.0326   20.6973 O   0  0  0  0  0  0  0  0  0  0  0  0
    8.5984  -12.0009   18.9886 N   0  0  0  0  0  0  0  0  0  0  0  0
    7.9735  -13.2343   18.6410 C   0  0  0  0  0  0  0  0  0  0  0  0
    8.4119  -13.8246   17.6224 O   0  0  0  0  0  0  0  0  0  0  0  0
    6.8581  -13.7837   19.4532 C   0  0  0  0  0  0  0  0  0  0  0  0
    7.2719  -13.7124   20.9069 C   0  0  0  0  0  0  0  0  0  0  0  0
    8.5316  -14.5110   21.1705 C   0  0  2  0  0  0  0  0  0  0  0  0
    8.5914  -15.7048   20.3550 N   0  0  0  0  0  0  0  0  0  0  0  0
    8.5750  -14.8250   22.6168 C   0  0  0  0  0  0  0  0  0  0  0  0
    8.6002  -13.8534   23.4155 O   0  0  0  0  0  0  0  0  0  0  0  0
    8.5898  -16.1227   23.1545 N   0  0  0  0  0  0  0  0  0  0  0  0
    8.7185  -16.3841   24.5740 C   0  0  1  0  0  0  0  0  0  0  0  0
    8.0890  -17.6929   24.9714 C   0  0  0  0  0  0  0  0  0  0  0  0
    8.2136  -17.9876   26.4406 C   0  0  0  0  0  0  0  0  0  0  0  0
    7.6126  -19.3787   26.6569 C   0  0  0  0  0  0  0  0  0  0  0  0
    7.6338  -19.7565   28.1158 C   0  0  0  0  0  0  0  0  0  0  0  0
    6.8555  -20.9381   28.3293 N   0  0  0  0  0  0  0  0  0  0  0  0
   10.1696  -16.4820   24.8784 C   0  0  0  0  0  0  0  0  0  0  0  0
   11.1094  -16.7890   23.8950 O   0  0  0  0  0  0  0  0  0  0  0  0
   10.6089  -16.2909   26.0408 O   0  0  0  0  0  0  0  0  0  0  0  0
  2  3  1  0
  2  1  1  6
  4  2  1  0
  5  4  2  0
  7  6  1  0
  7  9  1  0
  8  7  2  0
 10  9  1  0
 11 10  1  1
 11 12  1  0
 12  4  1  0
 13 11  1  0
 13 15  1  0
 14 13  2  0
 16 17  1  6
 16 15  1  0
 16 22  1  0
 18 17  1  0
 19 18  1  0
 20 19  1  0
 20 21  1  0
 22 23  1  0
 24 22  2  0
M  END
$$$$
