AQK.pdb
     RDKit          3D

 24 23  0  0  1  0  0  0  0  0999 V2000
    6.8886  -17.2586   19.6998 C   0  0  0  0  0  0  0  0  0  0  0  0
    7.1893  -15.7735   19.7465 C   0  0  2  0  0  0  0  0  0  0  0  0
    7.8859  -15.3230   18.5731 N   0  0  0  0  0  0  0  0  0  0  0  0
    7.9378  -15.5037   20.9936 C   0  0  0  0  0  0  0  0  0  0  0  0
    9.1863  -15.6545   20.9667 O   0  0  0  0  0  0  0  0  0  0  0  0
    5.6706  -13.2190   26.4405 N   0  0  0  0  0  0  0  0  0  0  0  0
    6.9574  -12.6256   26.2830 C   0  0  0  0  0  0  0  0  0  0  0  0
    7.2359  -11.6657   27.0440 O   0  0  0  0  0  0  0  0  0  0  0  0
    7.9133  -13.1282   25.2636 C   0  0  0  0  0  0  0  0  0  0  0  0
    7.2318  -14.2497   24.5103 C   0  0  0  0  0  0  0  0  0  0  0  0
    8.1095  -14.7945   23.4026 C   0  0  2  0  0  0  0  0  0  0  0  0
    7.3468  -15.0895   22.2089 N   0  0  0  0  0  0  0  0  0  0  0  0
    8.8072  -15.9916   23.9244 C   0  0  0  0  0  0  0  0  0  0  0  0
    8.1691  -17.0757   23.9214 O   0  0  0  0  0  0  0  0  0  0  0  0
   10.1221  -16.0004   24.4186 N   0  0  0  0  0  0  0  0  0  0  0  0
   10.7951  -17.2123   24.8411 C   0  0  1  0  0  0  0  0  0  0  0  0
   12.1793  -17.3272   24.2598 C   0  0  0  0  0  0  0  0  0  0  0  0
   12.9695  -18.4701   24.8343 C   0  0  0  0  0  0  0  0  0  0  0  0
   14.3200  -18.4699   24.1137 C   0  0  0  0  0  0  0  0  0  0  0  0
   15.2179  -19.5567   24.6467 C   0  0  0  0  0  0  0  0  0  0  0  0
   16.5167  -19.4560   24.0548 N   0  0  0  0  0  0  0  0  0  0  0  0
   10.9408  -17.1481   26.3184 C   0  0  0  0  0  0  0  0  0  0  0  0
   10.5072  -16.0458   27.0541 O   0  0  0  0  0  0  0  0  0  0  0  0
   11.4636  -18.0904   26.9662 O   0  0  0  0  0  0  0  0  0  0  0  0
  2  3  1  0
  2  1  1  6
  4  2  1  0
  5  4  2  0
  7  6  1  0
  7  9  1  0
  8  7  2  0
 10  9  1  0
 11 10  1  1
 11 12  1  0
 12  4  1  0
 13 11  1  0
 13 15  1  0
 14 13  2  0
 16 17  1  6
 16 15  1  0
 16 22  1  0
 18 17  1  0
 19 18  1  0
 20 19  1  0
 20 21  1  0
 22 23  1  0
 24 22  2  0
M  END
$$$$
