AQK.pdb
     RDKit          3D

 24 23  0  0  1  0  0  0  0  0999 V2000
    7.0547  -17.1208   20.4279 C   0  0  0  0  0  0  0  0  0  0  0  0
    7.5230  -15.6881   20.2659 C   0  0  2  0  0  0  0  0  0  0  0  0
    8.4025  -15.5278   19.1407 N   0  0  0  0  0  0  0  0  0  0  0  0
    8.1456  -15.2702   21.5411 C   0  0  0  0  0  0  0  0  0  0  0  0
    9.3631  -15.5378   21.7091 O   0  0  0  0  0  0  0  0  0  0  0  0
    5.5782  -11.9155   26.2734 N   0  0  0  0  0  0  0  0  0  0  0  0
    6.8834  -12.1896   26.7776 C   0  0  0  0  0  0  0  0  0  0  0  0
    7.1866  -11.6678   27.8793 O   0  0  0  0  0  0  0  0  0  0  0  0
    7.8295  -13.0528   26.0257 C   0  0  0  0  0  0  0  0  0  0  0  0
    7.1824  -13.3970   24.7019 C   0  0  0  0  0  0  0  0  0  0  0  0
    8.0791  -14.2721   23.8510 C   0  0  2  0  0  0  0  0  0  0  0  0
    7.4670  -14.5929   22.5797 N   0  0  0  0  0  0  0  0  0  0  0  0
    8.4013  -15.4872   24.6332 C   0  0  0  0  0  0  0  0  0  0  0  0
    7.4601  -16.2899   24.8619 O   0  0  0  0  0  0  0  0  0  0  0  0
    9.6752  -15.8031   25.1338 N   0  0  0  0  0  0  0  0  0  0  0  0
    9.9666  -17.0506   25.8112 C   0  0  1  0  0  0  0  0  0  0  0  0
   11.3208  -17.5959   25.4426 C   0  0  0  0  0  0  0  0  0  0  0  0
   11.6953  -18.8264   26.2214 C   0  0  0  0  0  0  0  0  0  0  0  0
   13.1129  -19.2029   25.7832 C   0  0  0  0  0  0  0  0  0  0  0  0
   13.6170  -20.3982   26.5504 C   0  0  0  0  0  0  0  0  0  0  0  0
   14.9879  -20.6486   26.2260 N   0  0  0  0  0  0  0  0  0  0  0  0
    9.9860  -16.7703   27.2703 C   0  0  0  0  0  0  0  0  0  0  0  0
    9.8059  -17.7788   28.2164 O   0  0  0  0  0  0  0  0  0  0  0  0
   10.1664  -15.6068   27.7110 O   0  0  0  0  0  0  0  0  0  0  0  0
  2  3  1  0
  2  1  1  1
  4  2  1  0
  5  4  2  0
  7  6  1  0
  7  9  1  0
  8  7  2  0
 10  9  1  0
 11 10  1  1
 11 12  1  0
 12  4  1  0
 13 11  1  0
 13 15  1  0
 14 13  2  0
 16 17  1  6
 16 15  1  0
 16 22  1  0
 18 17  1  0
 19 18  1  0
 20 19  1  0
 20 21  1  0
 22 23  1  0
 24 22  2  0
M  END
$$$$
