AQK.pdb
     RDKit          3D

 24 23  0  0  1  0  0  0  0  0999 V2000
    9.2028  -16.4727   15.4940 C   0  0  0  0  0  0  0  0  0  0  0  0
    9.1416  -17.9192   15.9433 C   0  0  2  0  0  0  0  0  0  0  0  0
    8.1711  -18.6776   15.2029 N   0  0  0  0  0  0  0  0  0  0  0  0
    8.8831  -17.9286   17.3998 C   0  0  0  0  0  0  0  0  0  0  0  0
    7.7105  -17.6846   17.7839 O   0  0  0  0  0  0  0  0  0  0  0  0
   11.5187  -21.7146   21.4082 N   0  0  0  0  0  0  0  0  0  0  0  0
   12.3378  -20.7394   20.7673 C   0  0  0  0  0  0  0  0  0  0  0  0
   13.5755  -20.9543   20.7612 O   0  0  0  0  0  0  0  0  0  0  0  0
   11.7430  -19.5315   20.1408 C   0  0  0  0  0  0  0  0  0  0  0  0
   10.2475  -19.5889   20.3641 C   0  0  0  0  0  0  0  0  0  0  0  0
    9.5479  -18.3764   19.7859 C   0  0  2  0  0  0  0  0  0  0  0  0
    9.8613  -18.1924   18.3853 N   0  0  0  0  0  0  0  0  0  0  0  0
    9.9328  -17.2004   20.5990 C   0  0  0  0  0  0  0  0  0  0  0  0
   11.0566  -16.6846   20.3678 O   0  0  0  0  0  0  0  0  0  0  0  0
    9.1359  -16.6253   21.6029 N   0  0  0  0  0  0  0  0  0  0  0  0
    9.4976  -15.4012   22.2889 C   0  0  1  0  0  0  0  0  0  0  0  0
    8.5402  -14.2777   21.9917 C   0  0  0  0  0  0  0  0  0  0  0  0
    8.7176  -13.6971   20.6161 C   0  0  0  0  0  0  0  0  0  0  0  0
    7.4936  -12.8154   20.3558 C   0  0  0  0  0  0  0  0  0  0  0  0
    7.5046  -12.2761   18.9485 C   0  0  0  0  0  0  0  0  0  0  0  0
    6.2656  -11.6196   18.6636 N   0  0  0  0  0  0  0  0  0  0  0  0
    9.4228  -15.6704   23.7482 C   0  0  0  0  0  0  0  0  0  0  0  0
    8.9467  -16.8810   24.2504 O   0  0  0  0  0  0  0  0  0  0  0  0
    9.7877  -14.8124   24.5917 O   0  0  0  0  0  0  0  0  0  0  0  0
  2  3  1  0
  2  1  1  6
  4  2  1  0
  5  4  2  0
  7  6  1  0
  7  9  1  0
  8  7  2  0
 10  9  1  0
 11 10  1  1
 11 12  1  0
 12  4  1  0
 13 11  1  0
 13 15  1  0
 14 13  2  0
 16 17  1  1
 16 15  1  0
 16 22  1  0
 18 17  1  0
 19 18  1  0
 20 19  1  0
 20 21  1  0
 22 23  1  0
 24 22  2  0
M  END
$$$$
