VLD.pdb
     RDKit          3D

 24 23  0  0  1  0  0  0  0  0999 V2000
   26.2578  -19.1512  -17.7296 C   0  0  0  0  0  0  0  0  0  0  0  0
   27.3546  -18.6625  -16.8230 C   0  0  2  0  0  0  0  0  0  0  0  0
   28.3415  -17.9122  -17.7156 C   0  0  0  0  0  0  0  0  0  0  0  0
   28.1080  -19.7956  -16.1461 C   0  0  2  0  0  0  0  0  0  0  0  0
   28.5905  -20.7534  -17.1086 N   0  0  0  0  0  0  0  0  0  0  0  0
   27.1878  -20.4425  -15.1869 C   0  0  0  0  0  0  0  0  0  0  0  0
   26.4692  -21.3895  -15.5839 O   0  0  0  0  0  0  0  0  0  0  0  0
   25.9327  -21.1103   -9.2017 C   0  0  0  0  0  0  0  0  0  0  0  0
   25.4145  -21.2065  -10.6355 C   0  0  1  0  0  0  0  0  0  0  0  0
   24.0594  -20.5661  -10.6610 C   0  0  0  0  0  0  0  0  0  0  0  0
   26.4376  -20.5004  -11.5015 C   0  0  0  0  0  0  0  0  0  0  0  0
   26.0790  -20.6601  -12.9891 C   0  0  2  0  0  0  0  0  0  0  0  0
   27.0537  -20.0687  -13.8337 N   0  0  0  0  0  0  0  0  0  0  0  0
   24.6961  -20.1815  -13.2360 C   0  0  0  0  0  0  0  0  0  0  0  0
   24.3327  -18.9875  -13.0810 O   0  0  0  0  0  0  0  0  0  0  0  0
   23.6832  -21.0750  -13.6729 N   0  0  0  0  0  0  0  0  0  0  0  0
   22.3549  -20.5910  -13.9810 C   0  0  1  0  0  0  0  0  0  0  0  0
   21.9764  -21.1615  -15.3357 C   0  0  0  0  0  0  0  0  0  0  0  0
   20.6259  -20.7327  -15.7612 C   0  0  0  0  0  0  0  0  0  0  0  0
   19.6027  -21.4122  -15.4457 O   0  0  0  0  0  0  0  0  0  0  0  0
   21.3409  -21.0870  -13.0216 C   0  0  0  0  0  0  0  0  0  0  0  0
   21.3899  -22.2832  -12.3441 O   0  0  0  0  0  0  0  0  0  0  0  0
   20.3974  -19.5745  -16.5219 O   0  0  0  0  0  0  0  0  0  0  0  0
   20.3472  -20.3406  -12.8128 O   0  0  0  0  0  0  0  0  0  0  0  0
  2  1  1  6
  2  4  1  0
  3  2  1  0
  4  6  1  0
  4  5  1  6
  6  7  2  0
  9  8  1  1
  9 10  1  0
 11  9  1  0
 12 11  1  1
 12 14  1  0
 13  6  1  0
 13 12  1  0
 14 15  2  0
 16 14  1  0
 16 17  1  0
 17 21  1  0
 17 18  1  6
 19 20  2  0
 19 18  1  0
 21 24  2  0
 21 22  1  0
 23 19  1  0
M  END
$$$$
