VLD.pdb
     RDKit          3D

 24 23  0  0  1  0  0  0  0  0999 V2000
   17.1187  -11.8113  -17.3231 C   0  0  0  0  0  0  0  0  0  0  0  0
   18.2677  -12.1931  -18.2162 C   0  0  2  0  0  0  0  0  0  0  0  0
   19.1432  -13.1426  -17.4003 C   0  0  0  0  0  0  0  0  0  0  0  0
   19.1221  -11.0023  -18.6183 C   0  0  2  0  0  0  0  0  0  0  0  0
   20.1000  -11.3695  -19.6109 N   0  0  0  0  0  0  0  0  0  0  0  0
   19.7858  -10.4890  -17.4012 C   0  0  0  0  0  0  0  0  0  0  0  0
   19.0768  -10.1340  -16.4305 O   0  0  0  0  0  0  0  0  0  0  0  0
   24.6864  -11.9799  -15.3262 C   0  0  0  0  0  0  0  0  0  0  0  0
   23.2143  -11.6005  -15.4763 C   0  0  1  0  0  0  0  0  0  0  0  0
   22.5475  -11.8839  -14.1640 C   0  0  0  0  0  0  0  0  0  0  0  0
   23.1942  -10.1365  -15.8655 C   0  0  0  0  0  0  0  0  0  0  0  0
   21.7520   -9.6778  -16.1430 C   0  0  2  0  0  0  0  0  0  0  0  0
   21.1820  -10.3655  -17.2453 N   0  0  0  0  0  0  0  0  0  0  0  0
   21.6995   -8.1994  -16.2613 C   0  0  0  0  0  0  0  0  0  0  0  0
   22.1346   -7.5628  -17.2548 O   0  0  0  0  0  0  0  0  0  0  0  0
   21.1381   -7.4055  -15.2270 N   0  0  0  0  0  0  0  0  0  0  0  0
   21.1338   -5.9618  -15.3246 C   0  0  1  0  0  0  0  0  0  0  0  0
   19.6880   -5.5128  -15.2159 C   0  0  0  0  0  0  0  0  0  0  0  0
   19.5548   -4.0422  -15.3078 C   0  0  0  0  0  0  0  0  0  0  0  0
   18.7347   -3.4198  -14.5675 O   0  0  0  0  0  0  0  0  0  0  0  0
   21.8550   -5.3217  -14.2001 C   0  0  0  0  0  0  0  0  0  0  0  0
   22.4039   -5.9730  -13.1199 O   0  0  0  0  0  0  0  0  0  0  0  0
   20.3101   -3.2618  -16.1984 O   0  0  0  0  0  0  0  0  0  0  0  0
   21.9718   -4.0677  -14.2441 O   0  0  0  0  0  0  0  0  0  0  0  0
  2  1  1  1
  2  4  1  0
  3  2  1  0
  4  6  1  0
  4  5  1  6
  6  7  2  0
  9  8  1  1
  9 10  1  0
 11  9  1  0
 12 11  1  6
 12 14  1  0
 13  6  1  0
 13 12  1  0
 14 15  2  0
 16 14  1  0
 16 17  1  0
 17 21  1  0
 17 18  1  1
 19 20  2  0
 19 18  1  0
 21 24  2  0
 21 22  1  0
 23 19  1  0
M  END
$$$$
