VLD.pdb
     RDKit          3D

 24 23  0  0  1  0  0  0  0  0999 V2000
   19.4690  -12.2192  -21.4359 C   0  0  0  0  0  0  0  0  0  0  0  0
   19.7155  -11.1790  -20.3771 C   0  0  2  0  0  0  0  0  0  0  0  0
   20.7823  -10.2424  -20.9413 C   0  0  0  0  0  0  0  0  0  0  0  0
   20.2523  -11.7704  -19.0841 C   0  0  2  0  0  0  0  0  0  0  0  0
   19.3624  -12.7737  -18.5568 N   0  0  0  0  0  0  0  0  0  0  0  0
   20.4207  -10.6659  -18.1161 C   0  0  0  0  0  0  0  0  0  0  0  0
   19.4015  -10.0681  -17.6983 O   0  0  0  0  0  0  0  0  0  0  0  0
   24.1698  -10.7682  -14.1682 C   0  0  0  0  0  0  0  0  0  0  0  0
   22.8378  -10.5935  -14.8954 C   0  0  1  0  0  0  0  0  0  0  0  0
   21.7715  -10.4852  -13.8474 C   0  0  0  0  0  0  0  0  0  0  0  0
   22.9828   -9.3488  -15.7468 C   0  0  0  0  0  0  0  0  0  0  0  0
   21.7561   -9.1812  -16.6603 C   0  0  2  0  0  0  0  0  0  0  0  0
   21.6639  -10.2247  -17.6172 N   0  0  0  0  0  0  0  0  0  0  0  0
   21.7394   -7.8191  -17.2491 C   0  0  0  0  0  0  0  0  0  0  0  0
   22.1650   -7.5517  -18.4019 O   0  0  0  0  0  0  0  0  0  0  0  0
   21.2262   -6.7158  -16.5179 N   0  0  0  0  0  0  0  0  0  0  0  0
   21.0833   -5.4185  -17.1427 C   0  0  1  0  0  0  0  0  0  0  0  0
   20.0147   -5.5548  -18.2120 C   0  0  0  0  0  0  0  0  0  0  0  0
   19.7736   -4.2794  -18.9218 C   0  0  0  0  0  0  0  0  0  0  0  0
   20.4684   -3.2517  -18.6586 O   0  0  0  0  0  0  0  0  0  0  0  0
   20.5957   -4.3902  -16.1945 C   0  0  0  0  0  0  0  0  0  0  0  0
   20.6887   -3.0283  -16.3649 O   0  0  0  0  0  0  0  0  0  0  0  0
   18.7850   -4.1301  -19.9082 O   0  0  0  0  0  0  0  0  0  0  0  0
   20.0479   -4.8083  -15.1394 O   0  0  0  0  0  0  0  0  0  0  0  0
  2  1  1  6
  2  4  1  0
  3  2  1  0
  4  6  1  0
  4  5  1  1
  6  7  2  0
  9  8  1  1
  9 10  1  0
 11  9  1  0
 12 11  1  6
 12 14  1  0
 13  6  1  0
 13 12  1  0
 14 15  2  0
 16 14  1  0
 16 17  1  0
 17 21  1  0
 17 18  1  6
 19 20  2  0
 19 18  1  0
 21 24  2  0
 21 22  1  0
 23 19  1  0
M  END
$$$$
