VLD.pdb
     RDKit          3D

 24 23  0  0  1  0  0  0  0  0999 V2000
   16.2585  -10.1456  -19.5059 C   0  0  0  0  0  0  0  0  0  0  0  0
   17.2589   -9.8254  -18.4287 C   0  0  2  0  0  0  0  0  0  0  0  0
   18.3713   -9.0265  -19.1055 C   0  0  0  0  0  0  0  0  0  0  0  0
   17.8845  -11.0682  -17.8175 C   0  0  2  0  0  0  0  0  0  0  0  0
   16.8869  -11.9153  -17.2143 N   0  0  0  0  0  0  0  0  0  0  0  0
   18.8715  -10.6294  -16.8083 C   0  0  0  0  0  0  0  0  0  0  0  0
   18.4583  -10.1103  -15.7450 O   0  0  0  0  0  0  0  0  0  0  0  0
   23.8276  -12.6445  -14.6240 C   0  0  0  0  0  0  0  0  0  0  0  0
   22.5192  -11.8567  -14.5944 C   0  0  1  0  0  0  0  0  0  0  0  0
   22.5614  -10.9727  -13.3846 C   0  0  0  0  0  0  0  0  0  0  0  0
   22.4563  -11.0953  -15.9026 C   0  0  0  0  0  0  0  0  0  0  0  0
   21.1670  -10.2585  -15.9715 C   0  0  2  0  0  0  0  0  0  0  0  0
   20.2690  -10.7521  -16.9529 N   0  0  0  0  0  0  0  0  0  0  0  0
   21.4985   -8.8202  -16.1257 C   0  0  0  0  0  0  0  0  0  0  0  0
   21.8788   -8.3036  -17.2075 O   0  0  0  0  0  0  0  0  0  0  0  0
   21.3999   -7.9281  -15.0259 N   0  0  0  0  0  0  0  0  0  0  0  0
   21.6849   -6.5191  -15.1907 C   0  0  1  0  0  0  0  0  0  0  0  0
   20.4372   -5.8774  -15.7698 C   0  0  0  0  0  0  0  0  0  0  0  0
   20.6232   -4.4320  -16.0244 C   0  0  0  0  0  0  0  0  0  0  0  0
   21.7508   -3.8826  -15.8377 O   0  0  0  0  0  0  0  0  0  0  0  0
   21.9393   -5.8435  -13.8971 C   0  0  0  0  0  0  0  0  0  0  0  0
   22.7024   -4.7136  -13.7146 O   0  0  0  0  0  0  0  0  0  0  0  0
   19.5886   -3.5977  -16.4784 O   0  0  0  0  0  0  0  0  0  0  0  0
   21.4053   -6.3558  -12.8770 O   0  0  0  0  0  0  0  0  0  0  0  0
  2  1  1  6
  2  4  1  0
  3  2  1  0
  4  6  1  0
  4  5  1  1
  6  7  2  0
  9  8  1  6
  9 10  1  0
 11  9  1  0
 12 11  1  6
 12 14  1  0
 13  6  1  0
 13 12  1  0
 14 15  2  0
 16 14  1  0
 16 17  1  0
 17 21  1  0
 17 18  1  1
 19 20  2  0
 19 18  1  0
 21 24  2  0
 21 22  1  0
 23 19  1  0
M  END
$$$$
