VLD.pdb
     RDKit          3D

 24 23  0  0  1  0  0  0  0  0999 V2000
   28.6438  -19.5141  -14.8245 C   0  0  0  0  0  0  0  0  0  0  0  0
   27.7277  -19.8109  -13.6685 C   0  0  2  0  0  0  0  0  0  0  0  0
   27.0245  -18.4963  -13.3349 C   0  0  0  0  0  0  0  0  0  0  0  0
   28.4753  -20.2668  -12.4264 C   0  0  2  0  0  0  0  0  0  0  0  0
   29.3010  -21.4150  -12.7028 N   0  0  0  0  0  0  0  0  0  0  0  0
   27.4744  -20.5858  -11.3864 C   0  0  0  0  0  0  0  0  0  0  0  0
   26.6652  -21.5203  -11.5931 O   0  0  0  0  0  0  0  0  0  0  0  0
   28.0638  -19.2403   -5.9431 C   0  0  0  0  0  0  0  0  0  0  0  0
   27.8427  -20.0916   -7.1921 C   0  0  1  0  0  0  0  0  0  0  0  0
   27.7161  -21.5156   -6.7412 C   0  0  0  0  0  0  0  0  0  0  0  0
   26.5930  -19.5499   -7.8553 C   0  0  0  0  0  0  0  0  0  0  0  0
   26.3604  -20.2482   -9.2065 C   0  0  2  0  0  0  0  0  0  0  0  0
   27.3577  -19.9064  -10.1560 N   0  0  0  0  0  0  0  0  0  0  0  0
   24.9730  -20.0067   -9.6747 C   0  0  0  0  0  0  0  0  0  0  0  0
   24.4243  -18.8750   -9.6773 O   0  0  0  0  0  0  0  0  0  0  0  0
   24.1714  -21.0738  -10.1581 N   0  0  0  0  0  0  0  0  0  0  0  0
   22.8755  -20.8150  -10.7476 C   0  0  1  0  0  0  0  0  0  0  0  0
   22.6941  -21.8110  -11.8785 C   0  0  0  0  0  0  0  0  0  0  0  0
   21.3720  -21.6779  -12.5289 C   0  0  0  0  0  0  0  0  0  0  0  0
   20.5840  -20.7384  -12.2054 O   0  0  0  0  0  0  0  0  0  0  0  0
   21.7674  -21.0591   -9.7951 C   0  0  0  0  0  0  0  0  0  0  0  0
   20.4853  -20.5738   -9.9092 O   0  0  0  0  0  0  0  0  0  0  0  0
   20.9176  -22.5612  -13.5217 O   0  0  0  0  0  0  0  0  0  0  0  0
   22.0309  -21.7764   -8.7931 O   0  0  0  0  0  0  0  0  0  0  0  0
  2  1  1  6
  2  4  1  0
  3  2  1  0
  4  6  1  0
  4  5  1  6
  6  7  2  0
  9  8  1  1
  9 10  1  0
 11  9  1  0
 12 11  1  1
 12 14  1  0
 13  6  1  0
 13 12  1  0
 14 15  2  0
 16 14  1  0
 16 17  1  0
 17 21  1  0
 17 18  1  6
 19 20  2  0
 19 18  1  0
 21 24  2  0
 21 22  1  0
 23 19  1  0
M  END
$$$$
