VLD.pdb
     RDKit          3D

 24 23  0  0  1  0  0  0  0  0999 V2000
   16.0796  -10.4225  -18.5696 C   0  0  0  0  0  0  0  0  0  0  0  0
   17.0859   -9.7925  -17.6455 C   0  0  2  0  0  0  0  0  0  0  0  0
   17.8493   -8.7681  -18.4830 C   0  0  0  0  0  0  0  0  0  0  0  0
   18.0930  -10.7922  -17.1016 C   0  0  2  0  0  0  0  0  0  0  0  0
   17.4448  -11.8250  -16.3337 N   0  0  0  0  0  0  0  0  0  0  0  0
   19.0595  -10.0516  -16.2634 C   0  0  0  0  0  0  0  0  0  0  0  0
   18.6704   -9.5729  -15.1724 O   0  0  0  0  0  0  0  0  0  0  0  0
   24.3590  -11.3467  -15.6354 C   0  0  0  0  0  0  0  0  0  0  0  0
   22.9181  -10.9388  -15.3336 C   0  0  1  0  0  0  0  0  0  0  0  0
   22.7425  -10.9996  -13.8461 C   0  0  0  0  0  0  0  0  0  0  0  0
   22.7441   -9.5489  -15.9105 C   0  0  0  0  0  0  0  0  0  0  0  0
   21.2820   -9.0912  -15.7684 C   0  0  2  0  0  0  0  0  0  0  0  0
   20.4114   -9.8382  -16.6034 N   0  0  0  0  0  0  0  0  0  0  0  0
   21.1855   -7.6223  -15.9562 C   0  0  0  0  0  0  0  0  0  0  0  0
   20.7292   -7.0799  -16.9951 O   0  0  0  0  0  0  0  0  0  0  0  0
   21.6165   -6.7284  -14.9411 N   0  0  0  0  0  0  0  0  0  0  0  0
   21.4122   -5.3025  -15.0779 C   0  0  1  0  0  0  0  0  0  0  0  0
   19.9131   -5.0649  -15.0698 C   0  0  0  0  0  0  0  0  0  0  0  0
   19.5751   -3.6424  -15.2957 C   0  0  0  0  0  0  0  0  0  0  0  0
   20.3058   -2.7210  -14.8210 O   0  0  0  0  0  0  0  0  0  0  0  0
   21.9608   -4.5447  -13.9293 C   0  0  0  0  0  0  0  0  0  0  0  0
   22.5173   -3.2879  -13.9851 O   0  0  0  0  0  0  0  0  0  0  0  0
   18.4518   -3.2327  -16.0325 O   0  0  0  0  0  0  0  0  0  0  0  0
   21.9096   -5.1087  -12.8035 O   0  0  0  0  0  0  0  0  0  0  0  0
  2  1  1  6
  2  4  1  0
  3  2  1  0
  4  6  1  0
  4  5  1  1
  6  7  2  0
  9  8  1  1
  9 10  1  0
 11  9  1  0
 12 11  1  6
 12 14  1  0
 13  6  1  0
 13 12  1  0
 14 15  2  0
 16 14  1  0
 16 17  1  0
 17 21  1  0
 17 18  1  1
 19 20  2  0
 19 18  1  0
 21 24  2  0
 21 22  1  0
 23 19  1  0
M  END
$$$$
