VLD.pdb
     RDKit          3D

 24 23  0  0  1  0  0  0  0  0999 V2000
   17.3208  -12.9082  -16.4808 C   0  0  0  0  0  0  0  0  0  0  0  0
   16.6645  -11.6783  -17.0468 C   0  0  2  0  0  0  0  0  0  0  0  0
   15.6062  -12.1753  -18.0301 C   0  0  0  0  0  0  0  0  0  0  0  0
   17.6334  -10.7937  -17.8138 C   0  0  2  0  0  0  0  0  0  0  0  0
   18.2264  -11.5012  -18.9203 N   0  0  0  0  0  0  0  0  0  0  0  0
   18.6763  -10.3389  -16.8700 C   0  0  0  0  0  0  0  0  0  0  0  0
   18.3368   -9.6450  -15.8831 O   0  0  0  0  0  0  0  0  0  0  0  0
   22.7309  -10.3936  -13.7765 C   0  0  0  0  0  0  0  0  0  0  0  0
   23.3328  -10.2831  -15.1761 C   0  0  1  0  0  0  0  0  0  0  0  0
   24.6494  -10.9993  -15.1502 C   0  0  0  0  0  0  0  0  0  0  0  0
   22.3219  -10.9022  -16.1195 C   0  0  0  0  0  0  0  0  0  0  0  0
   21.0133  -10.0930  -16.1053 C   0  0  2  0  0  0  0  0  0  0  0  0
   20.0501  -10.6311  -16.9973 N   0  0  0  0  0  0  0  0  0  0  0  0
   21.3000   -8.6533  -16.3233 C   0  0  0  0  0  0  0  0  0  0  0  0
   21.7809   -8.1910  -17.3894 O   0  0  0  0  0  0  0  0  0  0  0  0
   21.0374   -7.6966  -15.3080 N   0  0  0  0  0  0  0  0  0  0  0  0
   21.3686   -6.3018  -15.5047 C   0  0  1  0  0  0  0  0  0  0  0  0
   20.0791   -5.5841  -15.8597 C   0  0  0  0  0  0  0  0  0  0  0  0
   20.2894   -4.1343  -16.0665 C   0  0  0  0  0  0  0  0  0  0  0  0
   21.4404   -3.6212  -15.9240 O   0  0  0  0  0  0  0  0  0  0  0  0
   21.8729   -5.6651  -14.2659 C   0  0  0  0  0  0  0  0  0  0  0  0
   21.9209   -6.2496  -13.0215 O   0  0  0  0  0  0  0  0  0  0  0  0
   19.2535   -3.2565  -16.4253 O   0  0  0  0  0  0  0  0  0  0  0  0
   22.2939   -4.4818  -14.3694 O   0  0  0  0  0  0  0  0  0  0  0  0
  2  1  1  6
  2  4  1  0
  3  2  1  0
  4  6  1  0
  4  5  1  6
  6  7  2  0
  9  8  1  1
  9 10  1  0
 11  9  1  0
 12 11  1  6
 12 14  1  0
 13  6  1  0
 13 12  1  0
 14 15  2  0
 16 14  1  0
 16 17  1  0
 17 21  1  0
 17 18  1  1
 19 20  2  0
 19 18  1  0
 21 24  2  0
 21 22  1  0
 23 19  1  0
M  END
$$$$
