VLD.pdb
     RDKit          3D

 24 23  0  0  1  0  0  0  0  0999 V2000
   15.3068   -9.8879  -18.7405 C   0  0  0  0  0  0  0  0  0  0  0  0
   16.3260   -9.6468  -17.6602 C   0  0  2  0  0  0  0  0  0  0  0  0
   17.1830   -8.4758  -18.1379 C   0  0  0  0  0  0  0  0  0  0  0  0
   17.2450  -10.8371  -17.4412 C   0  0  2  0  0  0  0  0  0  0  0  0
   16.5141  -11.9836  -16.9638 N   0  0  0  0  0  0  0  0  0  0  0  0
   18.2793  -10.4374  -16.4636 C   0  0  0  0  0  0  0  0  0  0  0  0
   17.9830  -10.4141  -15.2461 O   0  0  0  0  0  0  0  0  0  0  0  0
   22.1588  -10.0673  -13.4019 C   0  0  0  0  0  0  0  0  0  0  0  0
   22.7778   -9.8797  -14.7858 C   0  0  1  0  0  0  0  0  0  0  0  0
   24.1037  -10.5790  -14.7769 C   0  0  0  0  0  0  0  0  0  0  0  0
   21.7882  -10.4643  -15.7727 C   0  0  0  0  0  0  0  0  0  0  0  0
   20.5160   -9.6007  -15.8280 C   0  0  2  0  0  0  0  0  0  0  0  0
   19.5990  -10.0731  -16.8021 N   0  0  0  0  0  0  0  0  0  0  0  0
   20.8761   -8.1693  -15.9820 C   0  0  0  0  0  0  0  0  0  0  0  0
   21.4034   -7.6897  -17.0182 O   0  0  0  0  0  0  0  0  0  0  0  0
   20.6357   -7.2411  -14.9351 N   0  0  0  0  0  0  0  0  0  0  0  0
   20.9842   -5.8455  -15.0917 C   0  0  1  0  0  0  0  0  0  0  0  0
   19.6854   -5.0600  -15.0932 C   0  0  0  0  0  0  0  0  0  0  0  0
   19.9178   -3.6030  -15.2024 C   0  0  0  0  0  0  0  0  0  0  0  0
   20.4093   -3.1042  -16.2597 O   0  0  0  0  0  0  0  0  0  0  0  0
   21.7793   -5.3347  -13.9510 C   0  0  0  0  0  0  0  0  0  0  0  0
   22.5688   -4.2082  -13.9593 O   0  0  0  0  0  0  0  0  0  0  0  0
   19.6157   -2.7024  -14.1679 O   0  0  0  0  0  0  0  0  0  0  0  0
   21.7222   -5.9970  -12.8803 O   0  0  0  0  0  0  0  0  0  0  0  0
  2  1  1  6
  2  4  1  0
  3  2  1  0
  4  6  1  0
  4  5  1  1
  6  7  2  0
  9  8  1  1
  9 10  1  0
 11  9  1  0
 12 11  1  6
 12 14  1  0
 13  6  1  0
 13 12  1  0
 14 15  2  0
 16 14  1  0
 16 17  1  0
 17 21  1  0
 17 18  1  1
 19 20  2  0
 19 18  1  0
 21 24  2  0
 21 22  1  0
 23 19  1  0
M  END
$$$$
