LCS.pdb
     RDKit          3D

 21 20  0  0  1  0  0  0  0  0999 V2000
    7.8627  -13.8851   18.9475 C   0  0  0  0  0  0  0  0  0  0  0  0
    7.6986  -13.5765   20.4168 C   0  0  2  0  0  0  0  0  0  0  0  0
    7.4910  -12.0907   20.6242 C   0  0  0  0  0  0  0  0  0  0  0  0
    8.9516  -13.9641   21.1879 C   0  0  0  0  0  0  0  0  0  0  0  0
    9.1937  -15.4577   21.1432 C   0  0  2  0  0  0  0  0  0  0  0  0
    7.9871  -16.2118   21.3291 N   0  0  0  0  0  0  0  0  0  0  0  0
   10.2217  -15.7475   22.1898 C   0  0  0  0  0  0  0  0  0  0  0  0
   11.2525  -15.0161   22.1588 O   0  0  0  0  0  0  0  0  0  0  0  0
   10.0787  -16.7635   23.1609 N   0  0  0  0  0  0  0  0  0  0  0  0
   11.2259  -17.0281   24.0385 C   0  0  1  0  0  0  0  0  0  0  0  0
   10.6489  -17.6119   25.3357 C   0  0  0  0  0  0  0  0  0  0  0  0
   11.8923  -18.2790   26.4269 S   0  0  0  0  0  0  0  0  0  0  0  0
   12.1410  -17.9967   23.4237 C   0  0  0  0  0  0  0  0  0  0  0  0
   11.6641  -19.1300   23.0715 O   0  0  0  0  0  0  0  0  0  0  0  0
   14.9474  -17.1680   20.8508 O   0  0  0  0  0  0  0  0  0  0  0  0
   14.3735  -18.4251   21.0222 C   0  0  0  0  0  0  0  0  0  0  0  0
   14.3251  -18.8241   22.4792 C   0  0  2  0  0  0  0  0  0  0  0  0
   13.5170  -17.8133   23.1709 N   0  0  0  0  0  0  0  0  0  0  0  0
   15.6773  -18.8182   23.0904 C   0  0  0  0  0  0  0  0  0  0  0  0
   16.6768  -19.6602   22.6257 O   0  0  0  0  0  0  0  0  0  0  0  0
   15.9673  -18.0547   24.0468 O   0  0  0  0  0  0  0  0  0  0  0  0
  2  1  1  6
  2  4  1  0
  2  3  1  0
  5  4  1  0
  5  6  1  1
  7  5  1  0
  7  9  1  0
  8  7  2  0
 10  9  1  0
 10 13  1  0
 10 11  1  1
 12 11  1  0
 13 14  2  0
 13 18  1  0
 16 15  1  0
 17 16  1  6
 18 17  1  0
 19 17  1  0
 19 20  1  0
 21 19  2  0
M  END
$$$$
