LCS.pdb
     RDKit          3D

 21 20  0  0  1  0  0  0  0  0999 V2000
    7.8952  -14.1838   18.9300 C   0  0  0  0  0  0  0  0  0  0  0  0
    7.5543  -13.4310   20.1941 C   0  0  2  0  0  0  0  0  0  0  0  0
    7.4947  -11.9423   19.9221 C   0  0  0  0  0  0  0  0  0  0  0  0
    8.6259  -13.6491   21.2519 C   0  0  0  0  0  0  0  0  0  0  0  0
    8.6355  -15.0789   21.7488 C   0  0  2  0  0  0  0  0  0  0  0  0
    7.3205  -15.6521   21.7870 N   0  0  0  0  0  0  0  0  0  0  0  0
    9.2917  -15.0517   23.0923 C   0  0  0  0  0  0  0  0  0  0  0  0
   10.3972  -14.4406   23.1467 O   0  0  0  0  0  0  0  0  0  0  0  0
    8.7380  -15.6587   24.2414 N   0  0  0  0  0  0  0  0  0  0  0  0
    9.4672  -15.5055   25.5066 C   0  0  1  0  0  0  0  0  0  0  0  0
    8.7390  -14.4055   26.2918 C   0  0  0  0  0  0  0  0  0  0  0  0
    9.4701  -14.0691   27.8837 S   0  0  0  0  0  0  0  0  0  0  0  0
    9.4495  -16.7561   26.2742 C   0  0  0  0  0  0  0  0  0  0  0  0
    8.3193  -17.1861   26.6912 O   0  0  0  0  0  0  0  0  0  0  0  0
   12.3314  -19.6101   26.1203 O   0  0  0  0  0  0  0  0  0  0  0  0
   11.0192  -19.9006   26.4846 C   0  0  0  0  0  0  0  0  0  0  0  0
   10.4256  -18.8139   27.3512 C   0  0  2  0  0  0  0  0  0  0  0  0
   10.5630  -17.5551   26.6097 N   0  0  0  0  0  0  0  0  0  0  0  0
   11.1674  -18.6700   28.6283 C   0  0  0  0  0  0  0  0  0  0  0  0
   11.8272  -17.4916   28.9443 O   0  0  0  0  0  0  0  0  0  0  0  0
   11.2262  -19.6047   29.4678 O   0  0  0  0  0  0  0  0  0  0  0  0
  2  1  1  6
  2  4  1  0
  2  3  1  0
  5  4  1  0
  5  6  1  1
  7  5  1  0
  7  9  1  0
  8  7  2  0
 10  9  1  0
 10 13  1  0
 10 11  1  1
 12 11  1  0
 13 14  2  0
 13 18  1  0
 16 15  1  0
 17 16  1  6
 18 17  1  0
 19 17  1  0
 19 20  1  0
 21 19  2  0
M  END
$$$$
