LCS.pdb
     RDKit          3D

 21 20  0  0  1  0  0  0  0  0999 V2000
    7.8180  -14.1311   19.2615 C   0  0  0  0  0  0  0  0  0  0  0  0
    7.8040  -13.2274   20.4715 C   0  0  2  0  0  0  0  0  0  0  0  0
    8.1382  -11.8052   20.0721 C   0  0  0  0  0  0  0  0  0  0  0  0
    8.8555  -13.6669   21.4794 C   0  0  0  0  0  0  0  0  0  0  0  0
    8.4701  -14.9647   22.1566 C   0  0  2  0  0  0  0  0  0  0  0  0
    7.0505  -15.0931   22.3223 N   0  0  0  0  0  0  0  0  0  0  0  0
    9.2073  -14.9942   23.4574 C   0  0  0  0  0  0  0  0  0  0  0  0
   10.4652  -14.8983   23.3733 O   0  0  0  0  0  0  0  0  0  0  0  0
    8.5688  -15.1196   24.7112 N   0  0  0  0  0  0  0  0  0  0  0  0
    9.4156  -15.0777   25.9100 C   0  0  1  0  0  0  0  0  0  0  0  0
    8.7667  -14.0607   26.8593 C   0  0  0  0  0  0  0  0  0  0  0  0
    9.6036  -13.9220   28.4284 S   0  0  0  0  0  0  0  0  0  0  0  0
    9.4704  -16.3939   26.5568 C   0  0  0  0  0  0  0  0  0  0  0  0
    8.4151  -17.1162   26.5335 O   0  0  0  0  0  0  0  0  0  0  0  0
   11.3642  -20.3970   26.2734 O   0  0  0  0  0  0  0  0  0  0  0  0
   11.1195  -19.0329   26.1385 C   0  0  0  0  0  0  0  0  0  0  0  0
   10.6925  -18.4090   27.4473 C   0  0  2  0  0  0  0  0  0  0  0  0
   10.5809  -16.9645   27.2141 N   0  0  0  0  0  0  0  0  0  0  0  0
   11.7090  -18.6189   28.5077 C   0  0  0  0  0  0  0  0  0  0  0  0
   11.9209  -19.8743   29.0580 O   0  0  0  0  0  0  0  0  0  0  0  0
   12.4130  -17.6730   28.9455 O   0  0  0  0  0  0  0  0  0  0  0  0
  2  1  1  6
  2  4  1  0
  2  3  1  0
  5  4  1  0
  5  6  1  1
  7  5  1  0
  7  9  1  0
  8  7  2  0
 10  9  1  0
 10 13  1  0
 10 11  1  1
 12 11  1  0
 13 14  2  0
 13 18  1  0
 16 15  1  0
 17 16  1  6
 18 17  1  0
 19 17  1  0
 19 20  1  0
 21 19  2  0
M  END
$$$$
