LCS.pdb
     RDKit          3D

 21 20  0  0  1  0  0  0  0  0999 V2000
    4.1871  -20.4655   21.8692 C   0  0  0  0  0  0  0  0  0  0  0  0
    3.7813  -19.0126   21.7955 C   0  0  2  0  0  0  0  0  0  0  0  0
    2.8671  -18.7793   20.6108 C   0  0  0  0  0  0  0  0  0  0  0  0
    5.0019  -18.1258   21.5991 C   0  0  0  0  0  0  0  0  0  0  0  0
    6.0067  -18.3052   22.7169 C   0  0  2  0  0  0  0  0  0  0  0  0
    5.4128  -18.1518   24.0142 N   0  0  0  0  0  0  0  0  0  0  0  0
    7.0987  -17.3158   22.4622 C   0  0  0  0  0  0  0  0  0  0  0  0
    7.7534  -17.4893   21.3946 O   0  0  0  0  0  0  0  0  0  0  0  0
    7.4018  -16.2488   23.3369 N   0  0  0  0  0  0  0  0  0  0  0  0
    8.6061  -15.4591   23.0504 C   0  0  1  0  0  0  0  0  0  0  0  0
    8.4165  -14.1124   23.7626 C   0  0  0  0  0  0  0  0  0  0  0  0
    6.8604  -13.3253   23.3869 S   0  0  0  0  0  0  0  0  0  0  0  0
    9.8049  -16.1286   23.5684 C   0  0  0  0  0  0  0  0  0  0  0  0
    9.8351  -16.4229   24.8128 O   0  0  0  0  0  0  0  0  0  0  0  0
   11.7867  -18.8066   21.6631 O   0  0  0  0  0  0  0  0  0  0  0  0
   11.9347  -18.6646   23.0404 C   0  0  0  0  0  0  0  0  0  0  0  0
   12.0749  -17.2141   23.4414 C   0  0  2  0  0  0  0  0  0  0  0  0
   10.9516  -16.4932   22.8315 N   0  0  0  0  0  0  0  0  0  0  0  0
   13.3305  -16.6229   22.9161 C   0  0  0  0  0  0  0  0  0  0  0  0
   13.3055  -15.6546   21.9234 O   0  0  0  0  0  0  0  0  0  0  0  0
   14.4582  -16.9747   23.3479 O   0  0  0  0  0  0  0  0  0  0  0  0
  2  1  1  6
  2  4  1  0
  2  3  1  0
  5  4  1  0
  5  6  1  1
  7  5  1  0
  7  9  1  0
  8  7  2  0
 10  9  1  0
 10 13  1  0
 10 11  1  1
 12 11  1  0
 13 14  2  0
 13 18  1  0
 16 15  1  0
 17 16  1  6
 18 17  1  0
 19 17  1  0
 19 20  1  0
 21 19  2  0
M  END
$$$$
