LCS.pdb
     RDKit          3D

 21 20  0  0  1  0  0  0  0  0999 V2000
    8.0252  -12.8609   19.0956 C   0  0  0  0  0  0  0  0  0  0  0  0
    7.5283  -13.5669   20.3348 C   0  0  2  0  0  0  0  0  0  0  0  0
    7.2310  -12.5642   21.4303 C   0  0  0  0  0  0  0  0  0  0  0  0
    8.5904  -14.5141   20.8728 C   0  0  0  0  0  0  0  0  0  0  0  0
    8.0161  -15.4733   21.8935 C   0  0  2  0  0  0  0  0  0  0  0  0
    6.6242  -15.2323   22.1460 N   0  0  0  0  0  0  0  0  0  0  0  0
    8.8576  -15.3323   23.1216 C   0  0  0  0  0  0  0  0  0  0  0  0
   10.0922  -15.5552   22.9650 O   0  0  0  0  0  0  0  0  0  0  0  0
    8.3367  -14.9755   24.3853 N   0  0  0  0  0  0  0  0  0  0  0  0
    9.2464  -15.0405   25.5360 C   0  0  1  0  0  0  0  0  0  0  0  0
    8.6045  -14.1886   26.6400 C   0  0  0  0  0  0  0  0  0  0  0  0
    7.5444  -12.8982   26.0130 S   0  0  0  0  0  0  0  0  0  0  0  0
    9.3992  -16.4232   26.0033 C   0  0  0  0  0  0  0  0  0  0  0  0
    8.3696  -17.1815   25.9748 O   0  0  0  0  0  0  0  0  0  0  0  0
   11.9016  -20.4051   26.2071 O   0  0  0  0  0  0  0  0  0  0  0  0
   11.6341  -19.0804   25.8718 C   0  0  0  0  0  0  0  0  0  0  0  0
   10.6490  -18.4491   26.8286 C   0  0  2  0  0  0  0  0  0  0  0  0
   10.5802  -17.0230   26.4896 N   0  0  0  0  0  0  0  0  0  0  0  0
   11.1098  -18.5581   28.2349 C   0  0  0  0  0  0  0  0  0  0  0  0
   11.1473  -19.7837   28.8831 O   0  0  0  0  0  0  0  0  0  0  0  0
   11.4817  -17.5502   28.8890 O   0  0  0  0  0  0  0  0  0  0  0  0
  2  1  1  6
  2  4  1  0
  2  3  1  0
  5  4  1  0
  5  6  1  1
  7  5  1  0
  7  9  1  0
  8  7  2  0
 10  9  1  0
 10 13  1  0
 10 11  1  1
 12 11  1  0
 13 14  2  0
 13 18  1  0
 16 15  1  0
 17 16  1  6
 18 17  1  0
 19 17  1  0
 19 20  1  0
 21 19  2  0
M  END
$$$$
