LCS.pdb
     RDKit          3D

 21 20  0  0  1  0  0  0  0  0999 V2000
    9.4976  -14.1334   28.8910 C   0  0  0  0  0  0  0  0  0  0  0  0
   10.0796  -15.4599   29.3183 C   0  0  2  0  0  0  0  0  0  0  0  0
   11.5729  -15.3350   29.5380 C   0  0  0  0  0  0  0  0  0  0  0  0
    9.8739  -16.5080   28.2349 C   0  0  0  0  0  0  0  0  0  0  0  0
    8.4108  -16.8603   28.0711 C   0  0  2  0  0  0  0  0  0  0  0  0
    8.1497  -18.2455   28.3398 N   0  0  0  0  0  0  0  0  0  0  0  0
    8.0370  -16.4628   26.6788 C   0  0  0  0  0  0  0  0  0  0  0  0
    8.0024  -17.4029   25.8341 O   0  0  0  0  0  0  0  0  0  0  0  0
    7.7374  -15.1346   26.3025 N   0  0  0  0  0  0  0  0  0  0  0  0
    7.3939  -14.8899   24.8961 C   0  0  1  0  0  0  0  0  0  0  0  0
    6.9867  -13.4126   24.8038 C   0  0  0  0  0  0  0  0  0  0  0  0
    5.7175  -12.9534   25.9701 S   0  0  0  0  0  0  0  0  0  0  0  0
    8.5484  -15.1405   24.0255 C   0  0  0  0  0  0  0  0  0  0  0  0
    9.6841  -14.6790   24.3904 O   0  0  0  0  0  0  0  0  0  0  0  0
    8.3722  -17.7428   20.9029 O   0  0  0  0  0  0  0  0  0  0  0  0
    9.5834  -17.6236   21.5795 C   0  0  0  0  0  0  0  0  0  0  0  0
    9.7873  -16.2267   22.1196 C   0  0  2  0  0  0  0  0  0  0  0  0
    8.5462  -15.8501   22.8058 N   0  0  0  0  0  0  0  0  0  0  0  0
   10.0151  -15.2486   21.0272 C   0  0  0  0  0  0  0  0  0  0  0  0
   11.1594  -15.3022   20.2452 O   0  0  0  0  0  0  0  0  0  0  0  0
    9.1851  -14.3393   20.7701 O   0  0  0  0  0  0  0  0  0  0  0  0
  2  1  1  6
  2  4  1  0
  2  3  1  0
  5  4  1  0
  5  6  1  6
  7  5  1  0
  7  9  1  0
  8  7  2  0
 10  9  1  0
 10 13  1  0
 10 11  1  1
 12 11  1  0
 13 14  2  0
 13 18  1  0
 16 15  1  0
 17 16  1  6
 18 17  1  0
 19 17  1  0
 19 20  1  0
 21 19  2  0
M  END
$$$$
