LCS.pdb
     RDKit          3D

 21 20  0  0  1  0  0  0  0  0999 V2000
    8.4662  -12.7526   26.7840 C   0  0  0  0  0  0  0  0  0  0  0  0
    7.4568  -13.6666   26.1308 C   0  0  2  0  0  0  0  0  0  0  0  0
    6.1172  -12.9709   26.0068 C   0  0  0  0  0  0  0  0  0  0  0  0
    7.2366  -14.9117   26.9769 C   0  0  0  0  0  0  0  0  0  0  0  0
    6.6220  -16.0338   26.1677 C   0  0  2  0  0  0  0  0  0  0  0  0
    6.4001  -17.2144   26.9526 N   0  0  0  0  0  0  0  0  0  0  0  0
    7.5437  -16.2729   25.0147 C   0  0  0  0  0  0  0  0  0  0  0  0
    8.4986  -17.0713   25.2366 O   0  0  0  0  0  0  0  0  0  0  0  0
    7.3837  -15.6625   23.7508 N   0  0  0  0  0  0  0  0  0  0  0  0
    8.2679  -16.1079   22.6665 C   0  0  1  0  0  0  0  0  0  0  0  0
    7.7043  -15.4991   21.3749 C   0  0  0  0  0  0  0  0  0  0  0  0
    7.1257  -13.8236   21.5750 S   0  0  0  0  0  0  0  0  0  0  0  0
    9.6389  -15.6309   22.8816 C   0  0  0  0  0  0  0  0  0  0  0  0
    9.8033  -14.5899   23.6064 O   0  0  0  0  0  0  0  0  0  0  0  0
   12.2904  -17.7632   24.2707 O   0  0  0  0  0  0  0  0  0  0  0  0
   12.2764  -16.3708   24.2608 C   0  0  0  0  0  0  0  0  0  0  0  0
   12.1509  -15.8225   22.8580 C   0  0  2  0  0  0  0  0  0  0  0  0
   10.8214  -16.2051   22.3686 N   0  0  0  0  0  0  0  0  0  0  0  0
   13.1578  -16.4215   21.9472 C   0  0  0  0  0  0  0  0  0  0  0  0
   12.7719  -17.1991   20.8654 O   0  0  0  0  0  0  0  0  0  0  0  0
   14.3915  -16.2484   22.1199 O   0  0  0  0  0  0  0  0  0  0  0  0
  2  1  1  1
  2  4  1  0
  2  3  1  0
  5  4  1  0
  5  6  1  1
  7  5  1  0
  7  9  1  0
  8  7  2  0
 10  9  1  0
 10 13  1  0
 10 11  1  6
 12 11  1  0
 13 14  2  0
 13 18  1  0
 16 15  1  0
 17 16  1  1
 18 17  1  0
 19 17  1  0
 19 20  1  0
 21 19  2  0
M  END
$$$$
