LCS.pdb
     RDKit          3D

 21 20  0  0  1  0  0  0  0  0999 V2000
    6.4106  -16.7192   19.2365 C   0  0  0  0  0  0  0  0  0  0  0  0
    6.7365  -15.2634   19.4719 C   0  0  2  0  0  0  0  0  0  0  0  0
    7.6082  -14.7302   18.3542 C   0  0  0  0  0  0  0  0  0  0  0  0
    7.5167  -15.0927   20.7669 C   0  0  0  0  0  0  0  0  0  0  0  0
    7.4488  -13.6682   21.2746 C   0  0  2  0  0  0  0  0  0  0  0  0
    8.1630  -12.7535   20.4306 N   0  0  0  0  0  0  0  0  0  0  0  0
    7.9781  -13.6956   22.6729 C   0  0  0  0  0  0  0  0  0  0  0  0
    9.2336  -13.5948   22.7826 O   0  0  0  0  0  0  0  0  0  0  0  0
    7.1555  -13.8244   23.8141 N   0  0  0  0  0  0  0  0  0  0  0  0
    7.8196  -14.0108   25.1104 C   0  0  1  0  0  0  0  0  0  0  0  0
    6.7558  -13.7340   26.1820 C   0  0  0  0  0  0  0  0  0  0  0  0
    6.1488  -12.0568   26.1611 S   0  0  0  0  0  0  0  0  0  0  0  0
    8.3168  -15.3845   25.2495 C   0  0  0  0  0  0  0  0  0  0  0  0
    7.5119  -16.3420   24.9823 O   0  0  0  0  0  0  0  0  0  0  0  0
   11.1556  -16.9668   23.6277 O   0  0  0  0  0  0  0  0  0  0  0  0
   11.3089  -17.3163   24.9669 C   0  0  0  0  0  0  0  0  0  0  0  0
   10.0116  -17.1852   25.7313 C   0  0  2  0  0  0  0  0  0  0  0  0
    9.6113  -15.7757   25.6523 N   0  0  0  0  0  0  0  0  0  0  0  0
   10.1876  -17.5259   27.1648 C   0  0  0  0  0  0  0  0  0  0  0  0
   10.6083  -18.7889   27.5542 O   0  0  0  0  0  0  0  0  0  0  0  0
    9.9637  -16.6882   28.0759 O   0  0  0  0  0  0  0  0  0  0  0  0
  2  1  1  6
  2  4  1  0
  2  3  1  0
  5  4  1  0
  5  6  1  6
  7  5  1  0
  7  9  1  0
  8  7  2  0
 10  9  1  0
 10 13  1  0
 10 11  1  1
 12 11  1  0
 13 14  2  0
 13 18  1  0
 16 15  1  0
 17 16  1  6
 18 17  1  0
 19 17  1  0
 19 20  1  0
 21 19  2  0
M  END
$$$$
