LCS.pdb
     RDKit          3D

 21 20  0  0  1  0  0  0  0  0999 V2000
    6.9440  -13.1795   19.1360 C   0  0  0  0  0  0  0  0  0  0  0  0
    7.6507  -14.5119   19.2138 C   0  0  2  0  0  0  0  0  0  0  0  0
    6.7109  -15.6319   18.8186 C   0  0  0  0  0  0  0  0  0  0  0  0
    8.1064  -14.7932   20.6379 C   0  0  0  0  0  0  0  0  0  0  0  0
    8.9234  -13.6484   21.1979 C   0  0  2  0  0  0  0  0  0  0  0  0
   10.1151  -13.4050   20.4365 N   0  0  0  0  0  0  0  0  0  0  0  0
    9.2111  -13.9964   22.6235 C   0  0  0  0  0  0  0  0  0  0  0  0
   10.3358  -14.5328   22.8374 O   0  0  0  0  0  0  0  0  0  0  0  0
    8.3069  -13.7543   23.6815 N   0  0  0  0  0  0  0  0  0  0  0  0
    8.7663  -14.0455   25.0454 C   0  0  1  0  0  0  0  0  0  0  0  0
    7.7249  -13.4298   25.9903 C   0  0  0  0  0  0  0  0  0  0  0  0
    8.1724  -13.5501   27.7129 S   0  0  0  0  0  0  0  0  0  0  0  0
    8.8455  -15.4933   25.2716 C   0  0  0  0  0  0  0  0  0  0  0  0
    7.7891  -16.1878   25.0774 O   0  0  0  0  0  0  0  0  0  0  0  0
   12.2776  -17.7298   25.3792 O   0  0  0  0  0  0  0  0  0  0  0  0
   11.0339  -18.2842   25.0878 C   0  0  0  0  0  0  0  0  0  0  0  0
    9.9367  -17.6680   25.9251 C   0  0  2  0  0  0  0  0  0  0  0  0
    9.9810  -16.2208   25.6868 N   0  0  0  0  0  0  0  0  0  0  0  0
   10.1646  -17.8952   27.3737 C   0  0  0  0  0  0  0  0  0  0  0  0
   10.1834  -19.1771   27.9031 O   0  0  0  0  0  0  0  0  0  0  0  0
   10.3483  -16.9408   28.1719 O   0  0  0  0  0  0  0  0  0  0  0  0
  2  1  1  1
  2  4  1  0
  2  3  1  0
  5  4  1  0
  5  6  1  6
  7  5  1  0
  7  9  1  0
  8  7  2  0
 10  9  1  0
 10 13  1  0
 10 11  1  1
 12 11  1  0
 13 14  2  0
 13 18  1  0
 16 15  1  0
 17 16  1  6
 18 17  1  0
 19 17  1  0
 19 20  1  0
 21 19  2  0
M  END
$$$$
