LCS.pdb
     RDKit          3D

 21 20  0  0  1  0  0  0  0  0999 V2000
    6.5182  -11.8721   24.5780 C   0  0  0  0  0  0  0  0  0  0  0  0
    6.6689  -12.3180   26.0130 C   0  0  2  0  0  0  0  0  0  0  0  0
    7.6704  -11.4415   26.7358 C   0  0  0  0  0  0  0  0  0  0  0  0
    7.1951  -13.7440   26.0776 C   0  0  0  0  0  0  0  0  0  0  0  0
    6.2562  -14.7159   25.3952 C   0  0  2  0  0  0  0  0  0  0  0  0
    5.0216  -14.8742   26.1091 N   0  0  0  0  0  0  0  0  0  0  0  0
    7.0102  -15.9997   25.2558 C   0  0  0  0  0  0  0  0  0  0  0  0
    7.1248  -16.6823   26.3138 O   0  0  0  0  0  0  0  0  0  0  0  0
    7.5682  -16.4462   24.0372 N   0  0  0  0  0  0  0  0  0  0  0  0
    8.2470  -17.7482   24.0397 C   0  0  1  0  0  0  0  0  0  0  0  0
    8.4105  -18.1504   22.5673 C   0  0  0  0  0  0  0  0  0  0  0  0
    9.2990  -19.6812   22.3455 S   0  0  0  0  0  0  0  0  0  0  0  0
    9.5661  -17.6481   24.6751 C   0  0  0  0  0  0  0  0  0  0  0  0
   10.3211  -16.6731   24.3356 O   0  0  0  0  0  0  0  0  0  0  0  0
   10.7555  -19.9860   27.8115 O   0  0  0  0  0  0  0  0  0  0  0  0
   11.3684  -18.7448   27.6605 C   0  0  0  0  0  0  0  0  0  0  0  0
   11.4444  -18.3313   26.2087 C   0  0  2  0  0  0  0  0  0  0  0  0
   10.1056  -18.5248   25.6401 N   0  0  0  0  0  0  0  0  0  0  0  0
   12.3873  -19.1877   25.4474 C   0  0  0  0  0  0  0  0  0  0  0  0
   13.7408  -19.2072   25.7500 O   0  0  0  0  0  0  0  0  0  0  0  0
   11.9983  -19.9239   24.5048 O   0  0  0  0  0  0  0  0  0  0  0  0
  2  1  1  6
  2  4  1  0
  2  3  1  0
  5  4  1  0
  5  6  1  1
  7  5  1  0
  7  9  1  0
  8  7  2  0
 10  9  1  0
 10 13  1  0
 10 11  1  6
 12 11  1  0
 13 14  2  0
 13 18  1  0
 16 15  1  0
 17 16  1  1
 18 17  1  0
 19 17  1  0
 19 20  1  0
 21 19  2  0
M  END
$$$$
