SSV.pdb
     RDKit          3D

 20 19  0  0  1  0  0  0  0  0999 V2000
   16.7233  -10.8509  -14.0031 O   0  0  0  0  0  0  0  0  0  0  0  0
   16.3324   -9.5539  -14.2675 C   0  0  0  0  0  0  0  0  0  0  0  0
   16.6169   -9.2641  -15.7246 C   0  0  2  0  0  0  0  0  0  0  0  0
   17.4381  -10.3365  -16.3088 N   0  0  0  0  0  0  0  0  0  0  0  0
   17.3852   -8.0113  -15.9077 C   0  0  0  0  0  0  0  0  0  0  0  0
   18.4206   -7.9483  -16.6585 O   0  0  0  0  0  0  0  0  0  0  0  0
   15.8309   -4.5045  -14.5721 O   0  0  0  0  0  0  0  0  0  0  0  0
   16.7080   -4.4467  -15.6484 C   0  0  0  0  0  0  0  0  0  0  0  0
   17.7491   -5.5378  -15.5954 C   0  0  2  0  0  0  0  0  0  0  0  0
   17.0578   -6.7728  -15.2806 N   0  0  0  0  0  0  0  0  0  0  0  0
   18.7223   -5.2030  -14.5134 C   0  0  0  0  0  0  0  0  0  0  0  0
   18.4290   -5.3958  -13.3040 O   0  0  0  0  0  0  0  0  0  0  0  0
   21.8200   -6.7818  -13.7022 C   0  0  0  0  0  0  0  0  0  0  0  0
   22.1804   -5.3160  -13.8412 C   0  0  1  0  0  0  0  0  0  0  0  0
   22.7162   -5.1003  -15.2382 C   0  0  0  0  0  0  0  0  0  0  0  0
   20.9498   -4.4460  -13.6911 C   0  0  2  0  0  0  0  0  0  0  0  0
   20.0090   -4.6591  -14.7716 N   0  0  0  0  0  0  0  0  0  0  0  0
   21.3128   -3.0077  -13.6882 C   0  0  0  0  0  0  0  0  0  0  0  0
   21.8710   -2.4027  -12.5641 O   0  0  0  0  0  0  0  0  0  0  0  0
   21.1292   -2.2869  -14.6987 O   0  0  0  0  0  0  0  0  0  0  0  0
  2  1  1  0
  3  2  1  0
  3  4  1  1
  5  3  1  0
  5  6  2  0
  7  8  1  0
  9  8  1  1
  9 10  1  0
 10  5  1  0
 11  9  1  0
 11 17  1  0
 12 11  2  0
 14 13  1  6
 14 15  1  0
 14 16  1  0
 16 17  1  6
 16 18  1  0
 18 20  2  0
 18 19  1  0
M  END
$$$$
