SSV.pdb
     RDKit          3D

 20 19  0  0  1  0  0  0  0  0999 V2000
   23.1207  -14.5859  -18.0214 O   0  0  0  0  0  0  0  0  0  0  0  0
   22.4631  -13.4360  -18.4086 C   0  0  0  0  0  0  0  0  0  0  0  0
   21.2698  -13.2467  -17.4985 C   0  0  2  0  0  0  0  0  0  0  0  0
   20.1532  -14.1005  -17.9346 N   0  0  0  0  0  0  0  0  0  0  0  0
   20.7594  -11.8567  -17.5244 C   0  0  0  0  0  0  0  0  0  0  0  0
   19.8144  -11.4902  -18.3069 O   0  0  0  0  0  0  0  0  0  0  0  0
   19.2480  -10.0738  -14.8920 O   0  0  0  0  0  0  0  0  0  0  0  0
   19.2854   -9.5728  -16.1875 C   0  0  0  0  0  0  0  0  0  0  0  0
   20.6939   -9.4701  -16.7194 C   0  0  2  0  0  0  0  0  0  0  0  0
   21.2569  -10.8060  -16.6980 N   0  0  0  0  0  0  0  0  0  0  0  0
   21.4703   -8.5703  -15.8153 C   0  0  0  0  0  0  0  0  0  0  0  0
   22.1195   -9.0408  -14.8442 O   0  0  0  0  0  0  0  0  0  0  0  0
   24.3375   -6.6003  -16.8466 C   0  0  0  0  0  0  0  0  0  0  0  0
   23.4309   -5.6241  -16.1233 C   0  0  1  0  0  0  0  0  0  0  0  0
   22.6136   -4.8921  -17.1632 C   0  0  0  0  0  0  0  0  0  0  0  0
   22.4605   -6.3610  -15.2238 C   0  0  2  0  0  0  0  0  0  0  0  0
   21.5254   -7.1611  -15.9876 N   0  0  0  0  0  0  0  0  0  0  0  0
   21.6721   -5.4111  -14.4013 C   0  0  0  0  0  0  0  0  0  0  0  0
   22.2072   -4.8267  -13.2553 O   0  0  0  0  0  0  0  0  0  0  0  0
   20.4959   -5.1019  -14.7100 O   0  0  0  0  0  0  0  0  0  0  0  0
  2  1  1  0
  3  2  1  0
  3  4  1  6
  5  3  1  0
  5  6  2  0
  7  8  1  0
  9  8  1  1
  9 10  1  0
 10  5  1  0
 11  9  1  0
 11 17  1  0
 12 11  2  0
 14 13  1  6
 14 15  1  0
 14 16  1  0
 16 17  1  6
 16 18  1  0
 18 20  2  0
 18 19  1  0
M  END
$$$$
