SSV.pdb
     RDKit          3D

 20 19  0  0  1  0  0  0  0  0999 V2000
   25.4860    2.2137  -12.1359 O   0  0  0  0  0  0  0  0  0  0  0  0
   25.7999    2.8286  -10.9409 C   0  0  0  0  0  0  0  0  0  0  0  0
   24.6355    3.7090  -10.5442 C   0  0  2  0  0  0  0  0  0  0  0  0
   24.6746    4.9764  -11.2912 N   0  0  0  0  0  0  0  0  0  0  0  0
   24.6726    4.0755   -9.1098 C   0  0  0  0  0  0  0  0  0  0  0  0
   25.3840    5.0453   -8.6704 O   0  0  0  0  0  0  0  0  0  0  0  0
   21.6761    3.2298   -6.6680 O   0  0  0  0  0  0  0  0  0  0  0  0
   22.6276    4.1521   -6.2499 C   0  0  0  0  0  0  0  0  0  0  0  0
   24.0200    3.7772   -6.6945 C   0  0  2  0  0  0  0  0  0  0  0  0
   23.9352    3.4009   -8.0922 N   0  0  0  0  0  0  0  0  0  0  0  0
   24.4749    2.6143   -5.8756 C   0  0  0  0  0  0  0  0  0  0  0  0
   24.2780    1.4348   -6.2705 O   0  0  0  0  0  0  0  0  0  0  0  0
   27.3837    1.1826   -5.6623 C   0  0  0  0  0  0  0  0  0  0  0  0
   27.1232    1.3856   -4.1829 C   0  0  1  0  0  0  0  0  0  0  0  0
   27.8422    2.6442   -3.7535 C   0  0  0  0  0  0  0  0  0  0  0  0
   25.6464    1.5994   -3.9240 C   0  0  2  0  0  0  0  0  0  0  0  0
   25.1421    2.7593   -4.6298 N   0  0  0  0  0  0  0  0  0  0  0  0
   25.3843    1.8038   -2.4783 C   0  0  0  0  0  0  0  0  0  0  0  0
   25.4273    0.7428   -1.5762 O   0  0  0  0  0  0  0  0  0  0  0  0
   25.1147    2.9398   -2.0188 O   0  0  0  0  0  0  0  0  0  0  0  0
  2  1  1  0
  3  2  1  0
  3  4  1  6
  5  3  1  0
  5  6  2  0
  7  8  1  0
  9  8  1  1
  9 10  1  0
 10  5  1  0
 11  9  1  0
 11 17  1  0
 12 11  2  0
 14 13  1  6
 14 15  1  0
 14 16  1  0
 16 17  1  6
 16 18  1  0
 18 20  2  0
 18 19  1  0
M  END
$$$$
