SSV.pdb
     RDKit          3D

 20 19  0  0  1  0  0  0  0  0999 V2000
   17.5933   -9.1159  -20.4844 O   0  0  0  0  0  0  0  0  0  0  0  0
   17.6899   -8.6351  -19.1943 C   0  0  0  0  0  0  0  0  0  0  0  0
   18.2493   -9.7369  -18.3218 C   0  0  2  0  0  0  0  0  0  0  0  0
   17.1781  -10.6595  -17.9129 N   0  0  0  0  0  0  0  0  0  0  0  0
   18.8426   -9.2142  -17.0696 C   0  0  0  0  0  0  0  0  0  0  0  0
   18.1542   -8.5665  -16.2058 O   0  0  0  0  0  0  0  0  0  0  0  0
   22.6915   -9.1291  -14.0657 O   0  0  0  0  0  0  0  0  0  0  0  0
   22.0043   -9.6397  -15.1601 C   0  0  0  0  0  0  0  0  0  0  0  0
   20.7488   -8.8584  -15.4610 C   0  0  2  0  0  0  0  0  0  0  0  0
   20.2119   -9.3753  -16.7047 N   0  0  0  0  0  0  0  0  0  0  0  0
   21.1200   -7.4207  -15.6193 C   0  0  0  0  0  0  0  0  0  0  0  0
   21.5837   -6.9936  -16.7095 O   0  0  0  0  0  0  0  0  0  0  0  0
   20.7049   -2.6992  -14.7835 C   0  0  0  0  0  0  0  0  0  0  0  0
   20.2263   -4.1359  -14.7147 C   0  0  1  0  0  0  0  0  0  0  0  0
   19.3705   -4.3988  -15.9328 C   0  0  0  0  0  0  0  0  0  0  0  0
   21.3982   -5.0935  -14.7719 C   0  0  2  0  0  0  0  0  0  0  0  0
   20.9776   -6.4658  -14.5771 N   0  0  0  0  0  0  0  0  0  0  0  0
   22.3961   -4.7758  -13.7212 C   0  0  0  0  0  0  0  0  0  0  0  0
   23.4048   -3.8396  -13.9382 O   0  0  0  0  0  0  0  0  0  0  0  0
   22.3653   -5.3401  -12.6009 O   0  0  0  0  0  0  0  0  0  0  0  0
  2  1  1  0
  3  2  1  0
  3  4  1  1
  5  3  1  0
  5  6  2  0
  7  8  1  0
  9  8  1  6
  9 10  1  0
 10  5  1  0
 11  9  1  0
 11 17  1  0
 12 11  2  0
 14 13  1  6
 14 15  1  0
 14 16  1  0
 16 17  1  1
 16 18  1  0
 18 20  2  0
 18 19  1  0
M  END
$$$$
