TQQ.pdb
     RDKit          3D

 26 25  0  0  1  0  0  0  0  0999 V2000
   10.4891  -13.6552   16.9620 C   0  0  0  0  0  0  0  0  0  0  0  0
   10.0009  -14.1190   18.2974 C   0  0  1  0  0  0  0  0  0  0  0  0
   10.5147  -13.3107   19.3021 O   0  0  0  0  0  0  0  0  0  0  0  0
    8.4733  -14.1144   18.3279 C   0  0  2  0  0  0  0  0  0  0  0  0
    7.9522  -12.8166   18.0231 N   0  0  0  0  0  0  0  0  0  0  0  0
    8.0033  -14.5818   19.6869 C   0  0  0  0  0  0  0  0  0  0  0  0
    7.4604  -13.7201   20.4163 O   0  0  0  0  0  0  0  0  0  0  0  0
    7.8806  -20.7125   21.4570 N   0  0  0  0  0  0  0  0  0  0  0  0
    9.1472  -20.0589   21.4532 C   0  0  0  0  0  0  0  0  0  0  0  0
   10.1583  -20.7869   21.6249 O   0  0  0  0  0  0  0  0  0  0  0  0
    9.2449  -18.5683   21.2516 C   0  0  0  0  0  0  0  0  0  0  0  0
    7.8578  -18.0491   21.2218 C   0  0  0  0  0  0  0  0  0  0  0  0
    7.7072  -16.5540   21.2108 C   0  0  2  0  0  0  0  0  0  0  0  0
    8.2122  -15.9362   20.0191 N   0  0  0  0  0  0  0  0  0  0  0  0
    8.3836  -16.0054   22.4043 C   0  0  0  0  0  0  0  0  0  0  0  0
    9.6085  -15.6258   22.3480 O   0  0  0  0  0  0  0  0  0  0  0  0
    5.2312  -12.6116   26.5761 N   0  0  0  0  0  0  0  0  0  0  0  0
    6.5623  -12.5282   27.0692 C   0  0  0  0  0  0  0  0  0  0  0  0
    6.8113  -11.7338   28.0413 O   0  0  0  0  0  0  0  0  0  0  0  0
    7.6540  -13.3378   26.4927 C   0  0  0  0  0  0  0  0  0  0  0  0
    7.2710  -14.2439   25.3808 C   0  0  0  0  0  0  0  0  0  0  0  0
    8.3419  -15.0272   24.7245 C   0  0  2  0  0  0  0  0  0  0  0  0
    7.7472  -15.8638   23.6576 N   0  0  0  0  0  0  0  0  0  0  0  0
    9.1606  -15.8281   25.6227 C   0  0  0  0  0  0  0  0  0  0  0  0
   10.2673  -15.3399   26.3484 O   0  0  0  0  0  0  0  0  0  0  0  0
    8.9509  -17.0693   25.8281 O   0  0  0  0  0  0  0  0  0  0  0  0
  2  1  1  6
  2  3  1  0
  4  5  1  1
  4  2  1  0
  6  4  1  0
  7  6  2  0
  9  8  1  0
  9 11  1  0
 10  9  2  0
 12 11  1  0
 13 12  1  6
 13 14  1  0
 14  6  1  0
 15 13  1  0
 15 16  2  0
 17 18  1  0
 18 19  2  0
 20 21  1  0
 20 18  1  0
 22 21  1  1
 22 23  1  0
 23 15  1  0
 24 22  1  0
 25 24  1  0
 26 24  2  0
M  END
$$$$
