TQQ.pdb
     RDKit          3D

 26 25  0  0  1  0  0  0  0  0999 V2000
    9.0949  -12.3312   18.3800 C   0  0  0  0  0  0  0  0  0  0  0  0
    9.0464  -13.1716   19.6162 C   0  0  1  0  0  0  0  0  0  0  0  0
    8.4838  -12.4527   20.6619 O   0  0  0  0  0  0  0  0  0  0  0  0
    8.2529  -14.4500   19.3506 C   0  0  2  0  0  0  0  0  0  0  0  0
    6.9323  -14.1537   18.8850 N   0  0  0  0  0  0  0  0  0  0  0  0
    8.2091  -15.2778   20.6151 C   0  0  0  0  0  0  0  0  0  0  0  0
    7.1606  -15.2007   21.2963 O   0  0  0  0  0  0  0  0  0  0  0  0
   13.0782  -19.5892   23.8208 N   0  0  0  0  0  0  0  0  0  0  0  0
   11.9340  -19.6101   22.9711 C   0  0  0  0  0  0  0  0  0  0  0  0
   11.9691  -20.4049   21.9969 O   0  0  0  0  0  0  0  0  0  0  0  0
   10.7529  -18.7150   23.2464 C   0  0  0  0  0  0  0  0  0  0  0  0
   10.6025  -17.8309   22.0673 C   0  0  0  0  0  0  0  0  0  0  0  0
    9.4729  -16.8412   22.1178 C   0  0  2  0  0  0  0  0  0  0  0  0
    9.3406  -16.0614   20.9214 N   0  0  0  0  0  0  0  0  0  0  0  0
    9.6708  -15.9623   23.2888 C   0  0  0  0  0  0  0  0  0  0  0  0
   10.6124  -15.0900   23.3028 O   0  0  0  0  0  0  0  0  0  0  0  0
    5.4629  -12.5278   25.7564 N   0  0  0  0  0  0  0  0  0  0  0  0
    6.5075  -12.3387   26.7024 C   0  0  0  0  0  0  0  0  0  0  0  0
    6.3866  -11.4131   27.5780 O   0  0  0  0  0  0  0  0  0  0  0  0
    7.7167  -13.1858   26.7007 C   0  0  0  0  0  0  0  0  0  0  0  0
    7.7924  -14.2047   25.6236 C   0  0  0  0  0  0  0  0  0  0  0  0
    9.0178  -15.0304   25.5354 C   0  0  2  0  0  0  0  0  0  0  0  0
    8.8598  -16.0185   24.4442 N   0  0  0  0  0  0  0  0  0  0  0  0
    9.4162  -15.6794   26.7756 C   0  0  0  0  0  0  0  0  0  0  0  0
    9.5208  -17.0750   26.9524 O   0  0  0  0  0  0  0  0  0  0  0  0
    9.7012  -15.0301   27.8358 O   0  0  0  0  0  0  0  0  0  0  0  0
  2  1  1  6
  2  3  1  0
  4  5  1  1
  4  2  1  0
  6  4  1  0
  7  6  2  0
  9  8  1  0
  9 11  1  0
 10  9  2  0
 12 11  1  0
 13 12  1  6
 13 14  1  0
 14  6  1  0
 15 13  1  0
 15 16  2  0
 17 18  1  0
 18 19  2  0
 20 21  1  0
 20 18  1  0
 22 21  1  1
 22 23  1  0
 23 15  1  0
 24 22  1  0
 25 24  1  0
 26 24  2  0
M  END
$$$$
