TQQ.pdb
     RDKit          3D

 26 25  0  0  1  0  0  0  0  0999 V2000
    8.9391  -12.5169   20.1924 C   0  0  0  0  0  0  0  0  0  0  0  0
    8.1777  -13.0098   19.0032 C   0  0  1  0  0  0  0  0  0  0  0  0
    8.2880  -12.1056   17.9558 O   0  0  0  0  0  0  0  0  0  0  0  0
    8.6917  -14.3866   18.5851 C   0  0  2  0  0  0  0  0  0  0  0  0
    8.0788  -14.8213   17.3669 N   0  0  0  0  0  0  0  0  0  0  0  0
    8.4350  -15.3718   19.7029 C   0  0  0  0  0  0  0  0  0  0  0  0
    7.3638  -16.0184   19.6417 O   0  0  0  0  0  0  0  0  0  0  0  0
   11.7108  -19.8121   21.1828 N   0  0  0  0  0  0  0  0  0  0  0  0
   12.3178  -18.7961   21.9770 C   0  0  0  0  0  0  0  0  0  0  0  0
   13.4674  -19.0411   22.4244 O   0  0  0  0  0  0  0  0  0  0  0  0
   11.5982  -17.5007   22.2533 C   0  0  0  0  0  0  0  0  0  0  0  0
   10.2692  -17.6037   21.6071 C   0  0  0  0  0  0  0  0  0  0  0  0
    9.3490  -16.4295   21.7875 C   0  0  2  0  0  0  0  0  0  0  0  0
    9.4127  -15.4815   20.7131 N   0  0  0  0  0  0  0  0  0  0  0  0
    9.6687  -15.7759   23.0734 C   0  0  0  0  0  0  0  0  0  0  0  0
   10.7083  -15.0322   23.1911 O   0  0  0  0  0  0  0  0  0  0  0  0
    5.3496  -12.7559   25.9715 N   0  0  0  0  0  0  0  0  0  0  0  0
    6.4777  -12.4712   26.7889 C   0  0  0  0  0  0  0  0  0  0  0  0
    6.3904  -11.5337   27.6558 O   0  0  0  0  0  0  0  0  0  0  0  0
    7.7363  -13.2331   26.6647 C   0  0  0  0  0  0  0  0  0  0  0  0
    7.7794  -14.2395   25.5741 C   0  0  0  0  0  0  0  0  0  0  0  0
    9.0334  -15.0028   25.3845 C   0  0  2  0  0  0  0  0  0  0  0  0
    8.8742  -15.9195   24.2328 N   0  0  0  0  0  0  0  0  0  0  0  0
    9.5056  -15.7176   26.5611 C   0  0  0  0  0  0  0  0  0  0  0  0
   10.1250  -15.1100   27.6733 O   0  0  0  0  0  0  0  0  0  0  0  0
    9.4081  -16.9831   26.6873 O   0  0  0  0  0  0  0  0  0  0  0  0
  2  1  1  1
  2  3  1  0
  4  5  1  6
  4  2  1  0
  6  4  1  0
  7  6  2  0
  9  8  1  0
  9 11  1  0
 10  9  2  0
 12 11  1  0
 13 12  1  6
 13 14  1  0
 14  6  1  0
 15 13  1  0
 15 16  2  0
 17 18  1  0
 18 19  2  0
 20 21  1  0
 20 18  1  0
 22 21  1  1
 22 23  1  0
 23 15  1  0
 24 22  1  0
 25 24  1  0
 26 24  2  0
M  END
$$$$
