TQQ.pdb
     RDKit          3D

 26 25  0  0  1  0  0  0  0  0999 V2000
    9.5811  -17.1154   16.5657 C   0  0  0  0  0  0  0  0  0  0  0  0
   10.9055  -17.3469   17.2208 C   0  0  1  0  0  0  0  0  0  0  0  0
   11.0534  -18.6896   17.5400 O   0  0  0  0  0  0  0  0  0  0  0  0
   12.0338  -16.8824   16.3011 C   0  0  2  0  0  0  0  0  0  0  0  0
   12.0430  -17.6229   15.0763 N   0  0  0  0  0  0  0  0  0  0  0  0
   13.3530  -17.0190   17.0272 C   0  0  0  0  0  0  0  0  0  0  0  0
   13.9409  -18.1194   16.9139 O   0  0  0  0  0  0  0  0  0  0  0  0
   16.7855  -12.0935   18.5989 N   0  0  0  0  0  0  0  0  0  0  0  0
   16.9336  -12.7792   17.3582 C   0  0  0  0  0  0  0  0  0  0  0  0
   17.5610  -12.1749   16.4510 O   0  0  0  0  0  0  0  0  0  0  0  0
   16.3584  -14.1592   17.1666 C   0  0  0  0  0  0  0  0  0  0  0  0
   15.7344  -14.5447   18.4537 C   0  0  0  0  0  0  0  0  0  0  0  0
   15.0489  -15.8815   18.4865 C   0  0  2  0  0  0  0  0  0  0  0  0
   13.8095  -15.9076   17.7653 N   0  0  0  0  0  0  0  0  0  0  0  0
   14.8345  -16.2645   19.8973 C   0  0  0  0  0  0  0  0  0  0  0  0
   13.8347  -15.8041   20.5576 O   0  0  0  0  0  0  0  0  0  0  0  0
   16.5913  -21.6752   22.6199 N   0  0  0  0  0  0  0  0  0  0  0  0
   16.0785  -20.9255   23.7139 C   0  0  0  0  0  0  0  0  0  0  0  0
   16.0200  -21.4781   24.8668 O   0  0  0  0  0  0  0  0  0  0  0  0
   15.6219  -19.5309   23.5510 C   0  0  0  0  0  0  0  0  0  0  0  0
   15.8207  -18.9373   22.2048 C   0  0  0  0  0  0  0  0  0  0  0  0
   15.4016  -17.5328   21.9978 C   0  0  2  0  0  0  0  0  0  0  0  0
   15.6917  -17.1407   20.5999 N   0  0  0  0  0  0  0  0  0  0  0  0
   15.9649  -16.5749   22.9378 C   0  0  0  0  0  0  0  0  0  0  0  0
   15.4920  -16.3669   24.2504 O   0  0  0  0  0  0  0  0  0  0  0  0
   16.9487  -15.8170   22.6472 O   0  0  0  0  0  0  0  0  0  0  0  0
  2  1  1  6
  2  3  1  0
  4  5  1  6
  4  2  1  0
  6  4  1  0
  7  6  2  0
  9  8  1  0
  9 11  1  0
 10  9  2  0
 12 11  1  0
 13 12  1  1
 13 14  1  0
 14  6  1  0
 15 13  1  0
 15 16  2  0
 17 18  1  0
 18 19  2  0
 20 21  1  0
 20 18  1  0
 22 21  1  1
 22 23  1  0
 23 15  1  0
 24 22  1  0
 25 24  1  0
 26 24  2  0
M  END
$$$$
