TQQ.pdb
     RDKit          3D

 26 25  0  0  1  0  0  0  0  0999 V2000
    9.5144  -12.4525   20.2619 C   0  0  0  0  0  0  0  0  0  0  0  0
    8.1195  -12.6879   19.7765 C   0  0  1  0  0  0  0  0  0  0  0  0
    7.8114  -11.7988   18.7561 O   0  0  0  0  0  0  0  0  0  0  0  0
    7.9665  -14.1316   19.3002 C   0  0  2  0  0  0  0  0  0  0  0  0
    6.6582  -14.3671   18.7697 N   0  0  0  0  0  0  0  0  0  0  0  0
    8.2615  -15.0670   20.4509 C   0  0  0  0  0  0  0  0  0  0  0  0
    7.2870  -15.3970   21.1655 O   0  0  0  0  0  0  0  0  0  0  0  0
   13.5142  -18.7386   20.4788 N   0  0  0  0  0  0  0  0  0  0  0  0
   13.2106  -18.4793   21.8470 C   0  0  0  0  0  0  0  0  0  0  0  0
   14.1590  -18.5886   22.6659 O   0  0  0  0  0  0  0  0  0  0  0  0
   11.8151  -18.0948   22.2675 C   0  0  0  0  0  0  0  0  0  0  0  0
   11.3845  -16.9987   21.3689 C   0  0  0  0  0  0  0  0  0  0  0  0
   10.0132  -16.4361   21.6157 C   0  0  2  0  0  0  0  0  0  0  0  0
    9.5963  -15.4875   20.6241 N   0  0  0  0  0  0  0  0  0  0  0  0
    9.9925  -15.8224   22.9595 C   0  0  0  0  0  0  0  0  0  0  0  0
   10.1146  -14.5527   23.1031 O   0  0  0  0  0  0  0  0  0  0  0  0
    5.5210  -14.0316   25.7393 N   0  0  0  0  0  0  0  0  0  0  0  0
    6.6124  -13.2589   25.2558 C   0  0  0  0  0  0  0  0  0  0  0  0
    6.4562  -11.9976   25.1049 O   0  0  0  0  0  0  0  0  0  0  0  0
    7.9148  -13.8749   24.9333 C   0  0  0  0  0  0  0  0  0  0  0  0
    7.9969  -15.3466   25.1103 C   0  0  0  0  0  0  0  0  0  0  0  0
    9.3255  -15.9387   25.3852 C   0  0  2  0  0  0  0  0  0  0  0  0
    9.8409  -16.5696   24.1489 N   0  0  0  0  0  0  0  0  0  0  0  0
    9.3681  -16.8683   26.5043 C   0  0  0  0  0  0  0  0  0  0  0  0
    9.7846  -18.2130   26.4140 O   0  0  0  0  0  0  0  0  0  0  0  0
    9.0156  -16.5445   27.6865 O   0  0  0  0  0  0  0  0  0  0  0  0
  2  1  1  6
  2  3  1  0
  4  5  1  1
  4  2  1  0
  6  4  1  0
  7  6  2  0
  9  8  1  0
  9 11  1  0
 10  9  2  0
 12 11  1  0
 13 12  1  6
 13 14  1  0
 14  6  1  0
 15 13  1  0
 15 16  2  0
 17 18  1  0
 18 19  2  0
 20 21  1  0
 20 18  1  0
 22 21  1  6
 22 23  1  0
 23 15  1  0
 24 22  1  0
 25 24  1  0
 26 24  2  0
M  END
$$$$
