TQQ.pdb
     RDKit          3D

 26 25  0  0  1  0  0  0  0  0999 V2000
    8.6520  -14.0337   17.8953 C   0  0  0  0  0  0  0  0  0  0  0  0
    8.6324  -14.5372   19.3034 C   0  0  1  0  0  0  0  0  0  0  0  0
    9.7873  -14.1470   19.9673 O   0  0  0  0  0  0  0  0  0  0  0  0
    7.3910  -14.0195   20.0284 C   0  0  2  0  0  0  0  0  0  0  0  0
    7.3548  -12.5887   20.0380 N   0  0  0  0  0  0  0  0  0  0  0  0
    7.3725  -14.5719   21.4357 C   0  0  0  0  0  0  0  0  0  0  0  0
    7.8392  -13.8314   22.3319 O   0  0  0  0  0  0  0  0  0  0  0  0
    5.3286  -20.4097   22.4012 N   0  0  0  0  0  0  0  0  0  0  0  0
    5.7209  -20.0846   23.7323 C   0  0  0  0  0  0  0  0  0  0  0  0
    5.5553  -20.9768   24.6032 O   0  0  0  0  0  0  0  0  0  0  0  0
    6.3027  -18.7323   24.0560 C   0  0  0  0  0  0  0  0  0  0  0  0
    6.2791  -17.9453   22.8012 C   0  0  0  0  0  0  0  0  0  0  0  0
    6.8143  -16.5436   22.8849 C   0  0  2  0  0  0  0  0  0  0  0  0
    6.8366  -15.8627   21.6229 N   0  0  0  0  0  0  0  0  0  0  0  0
    8.1702  -16.5931   23.4699 C   0  0  0  0  0  0  0  0  0  0  0  0
    9.1922  -16.8501   22.7369 O   0  0  0  0  0  0  0  0  0  0  0  0
   10.6149  -13.0706   27.9959 N   0  0  0  0  0  0  0  0  0  0  0  0
    9.5122  -13.9224   28.2794 C   0  0  0  0  0  0  0  0  0  0  0  0
    8.7615  -13.6476   29.2789 O   0  0  0  0  0  0  0  0  0  0  0  0
    9.2125  -15.1044   27.4470 C   0  0  0  0  0  0  0  0  0  0  0  0
   10.0648  -15.2830   26.2446 C   0  0  0  0  0  0  0  0  0  0  0  0
    9.8062  -16.4560   25.3796 C   0  0  2  0  0  0  0  0  0  0  0  0
    8.4303  -16.3673   24.8400 N   0  0  0  0  0  0  0  0  0  0  0  0
   10.0407  -17.7489   26.0054 C   0  0  0  0  0  0  0  0  0  0  0  0
    9.0678  -18.7610   26.1433 O   0  0  0  0  0  0  0  0  0  0  0  0
   11.1666  -18.0826   26.5032 O   0  0  0  0  0  0  0  0  0  0  0  0
  2  1  1  6
  2  3  1  0
  4  5  1  1
  4  2  1  0
  6  4  1  0
  7  6  2  0
  9  8  1  0
  9 11  1  0
 10  9  2  0
 12 11  1  0
 13 12  1  6
 13 14  1  0
 14  6  1  0
 15 13  1  0
 15 16  2  0
 17 18  1  0
 18 19  2  0
 20 21  1  0
 20 18  1  0
 22 21  1  1
 22 23  1  0
 23 15  1  0
 24 22  1  0
 25 24  1  0
 26 24  2  0
M  END
$$$$
