TQQ.pdb
     RDKit          3D

 26 25  0  0  1  0  0  0  0  0999 V2000
    8.5523  -14.4230   18.1348 C   0  0  0  0  0  0  0  0  0  0  0  0
    8.4945  -14.9114   19.5472 C   0  0  1  0  0  0  0  0  0  0  0  0
    9.5717  -14.4166   20.2692 O   0  0  0  0  0  0  0  0  0  0  0  0
    7.1738  -14.4947   20.1926 C   0  0  2  0  0  0  0  0  0  0  0  0
    6.9875  -13.0772   20.1244 N   0  0  0  0  0  0  0  0  0  0  0  0
    7.1487  -14.9766   21.6255 C   0  0  0  0  0  0  0  0  0  0  0  0
    7.2952  -14.1024   22.5108 O   0  0  0  0  0  0  0  0  0  0  0  0
    5.9316  -20.9970   22.8306 N   0  0  0  0  0  0  0  0  0  0  0  0
    6.0123  -20.5063   24.1663 C   0  0  0  0  0  0  0  0  0  0  0  0
    5.7522  -21.3251   25.0849 O   0  0  0  0  0  0  0  0  0  0  0  0
    6.3924  -19.0735   24.4396 C   0  0  0  0  0  0  0  0  0  0  0  0
    6.5665  -18.4187   23.1223 C   0  0  0  0  0  0  0  0  0  0  0  0
    6.9295  -16.9607   23.1469 C   0  0  2  0  0  0  0  0  0  0  0  0
    6.9641  -16.3569   21.8465 N   0  0  0  0  0  0  0  0  0  0  0  0
    8.2364  -16.8138   23.8203 C   0  0  0  0  0  0  0  0  0  0  0  0
    9.2534  -16.3543   23.1860 O   0  0  0  0  0  0  0  0  0  0  0  0
    6.0557  -12.8768   26.3265 N   0  0  0  0  0  0  0  0  0  0  0  0
    7.1831  -12.8621   27.1929 C   0  0  0  0  0  0  0  0  0  0  0  0
    7.3178  -11.8891   28.0133 O   0  0  0  0  0  0  0  0  0  0  0  0
    8.1906  -13.9411   27.1715 C   0  0  0  0  0  0  0  0  0  0  0  0
    7.9530  -15.0299   26.1906 C   0  0  0  0  0  0  0  0  0  0  0  0
    8.9185  -16.1512   26.1522 C   0  0  2  0  0  0  0  0  0  0  0  0
    8.4529  -17.1594   25.1729 N   0  0  0  0  0  0  0  0  0  0  0  0
    9.2036  -16.7656   27.4405 C   0  0  0  0  0  0  0  0  0  0  0  0
   10.2645  -16.3896   28.2907 O   0  0  0  0  0  0  0  0  0  0  0  0
    8.5111  -17.7242   27.9182 O   0  0  0  0  0  0  0  0  0  0  0  0
  2  1  1  6
  2  3  1  0
  4  5  1  1
  4  2  1  0
  6  4  1  0
  7  6  2  0
  9  8  1  0
  9 11  1  0
 10  9  2  0
 12 11  1  0
 13 12  1  6
 13 14  1  0
 14  6  1  0
 15 13  1  0
 15 16  2  0
 17 18  1  0
 18 19  2  0
 20 21  1  0
 20 18  1  0
 22 21  1  1
 22 23  1  0
 23 15  1  0
 24 22  1  0
 25 24  1  0
 26 24  2  0
M  END
$$$$
