TQQ.pdb
     RDKit          3D

 26 25  0  0  1  0  0  0  0  0999 V2000
    9.5227  -12.6190   20.0102 C   0  0  0  0  0  0  0  0  0  0  0  0
    8.4491  -13.1197   19.0973 C   0  0  1  0  0  0  0  0  0  0  0  0
    8.5325  -12.4837   17.8663 O   0  0  0  0  0  0  0  0  0  0  0  0
    8.5652  -14.6343   18.9322 C   0  0  2  0  0  0  0  0  0  0  0  0
    7.6321  -15.1237   17.9635 N   0  0  0  0  0  0  0  0  0  0  0  0
    8.3513  -15.2969   20.2742 C   0  0  0  0  0  0  0  0  0  0  0  0
    7.1866  -15.2620   20.7344 O   0  0  0  0  0  0  0  0  0  0  0  0
   12.3403  -19.6006   22.1530 N   0  0  0  0  0  0  0  0  0  0  0  0
   11.6234  -19.4575   23.3765 C   0  0  0  0  0  0  0  0  0  0  0  0
   11.9604  -20.2177   24.3202 O   0  0  0  0  0  0  0  0  0  0  0  0
   10.5202  -18.4390   23.5091 C   0  0  0  0  0  0  0  0  0  0  0  0
   10.4454  -17.7191   22.2166 C   0  0  0  0  0  0  0  0  0  0  0  0
    9.4017  -16.6429   22.1139 C   0  0  2  0  0  0  0  0  0  0  0  0
    9.4690  -15.8944   20.8924 N   0  0  0  0  0  0  0  0  0  0  0  0
    9.5377  -15.7446   23.2791 C   0  0  0  0  0  0  0  0  0  0  0  0
   10.3905  -14.7852   23.2722 O   0  0  0  0  0  0  0  0  0  0  0  0
    5.3219  -12.3595   25.5831 N   0  0  0  0  0  0  0  0  0  0  0  0
    6.3861  -12.0795   26.4837 C   0  0  0  0  0  0  0  0  0  0  0  0
    6.2840  -11.0706   27.2645 O   0  0  0  0  0  0  0  0  0  0  0  0
    7.5945  -12.9258   26.5418 C   0  0  0  0  0  0  0  0  0  0  0  0
    7.6679  -14.0199   25.5411 C   0  0  0  0  0  0  0  0  0  0  0  0
    8.8664  -14.8887   25.5504 C   0  0  2  0  0  0  0  0  0  0  0  0
    8.7597  -15.8747   24.4512 N   0  0  0  0  0  0  0  0  0  0  0  0
    9.1427  -15.5466   26.8189 C   0  0  0  0  0  0  0  0  0  0  0  0
    9.9089  -14.9864   27.8624 O   0  0  0  0  0  0  0  0  0  0  0  0
    8.7163  -16.7155   27.0993 O   0  0  0  0  0  0  0  0  0  0  0  0
  2  1  1  1
  2  3  1  0
  4  5  1  6
  4  2  1  0
  6  4  1  0
  7  6  2  0
  9  8  1  0
  9 11  1  0
 10  9  2  0
 12 11  1  0
 13 12  1  6
 13 14  1  0
 14  6  1  0
 15 13  1  0
 15 16  2  0
 17 18  1  0
 18 19  2  0
 20 21  1  0
 20 18  1  0
 22 21  1  1
 22 23  1  0
 23 15  1  0
 24 22  1  0
 25 24  1  0
 26 24  2  0
M  END
$$$$
