GNP.pdb
     RDKit          3D

 20 20  0  0  1  0  0  0  0  0999 V2000
    4.9993  -19.2618   21.2876 N   0  0  0  0  0  0  0  0  0  0  0  0
    6.1442  -18.4732   21.7050 C   0  0  0  0  0  0  0  0  0  0  0  0
    6.0125  -18.0331   23.1076 C   0  0  0  0  0  0  0  0  0  0  0  0
    5.0106  -18.4077   23.7630 O   0  0  0  0  0  0  0  0  0  0  0  0
    7.0419  -18.8094   28.1575 N   0  0  0  0  0  0  0  0  0  0  0  0
    7.7124  -17.9226   27.2778 C   0  0  0  0  0  0  0  0  0  0  0  0
    8.3642  -16.9790   27.7584 O   0  0  0  0  0  0  0  0  0  0  0  0
    7.6284  -18.1282   25.8362 C   0  0  0  0  0  0  0  0  0  0  0  0
    6.9975  -16.9059   25.1609 C   0  0  2  0  0  0  0  0  0  0  0  0
    6.9753  -17.2163   23.7069 N   0  0  0  0  0  0  0  0  0  0  0  0
    7.9042  -15.7865   25.4177 C   0  0  0  0  0  0  0  0  0  0  0  0
    9.1761  -16.1531   25.3107 O   0  0  0  0  0  0  0  0  0  0  0  0
    7.6208  -14.4763   25.7400 N   0  0  0  0  0  0  0  0  0  0  0  0
    6.3002  -13.8912   25.2952 C   0  0  0  0  0  0  0  0  0  0  0  0
    5.8095  -13.3712   26.6217 C   0  0  0  0  0  0  0  0  0  0  0  0
    7.0320  -13.1756   27.4778 C   0  0  0  0  0  0  0  0  0  0  0  0
    8.1635  -13.3882   26.3986 C   0  0  1  0  0  0  0  0  0  0  0  0
    9.4314  -13.3457   27.0642 C   0  0  0  0  0  0  0  0  0  0  0  0
    9.5806  -14.0937   28.2615 O   0  0  0  0  0  0  0  0  0  0  0  0
   10.4196  -12.7312   26.7190 O   0  0  0  0  0  0  0  0  0  0  0  0
  2  1  1  0
  3  2  1  0
  3  4  2  0
  6  8  1  0
  6  5  1  0
  7  6  2  0
  9 10  1  0
  9  8  1  1
 10  3  1  0
 11 12  2  0
 11  9  1  0
 13 11  1  0
 14 15  1  0
 14 13  1  0
 16 15  1  0
 16 17  1  0
 17 13  1  0
 17 18  1  1
 18 20  2  0
 18 19  1  0
M  END
$$$$
