GNP.pdb
     RDKit          3D

 20 20  0  0  1  0  0  0  0  0999 V2000
    8.6482  -14.3463   12.7003 N   0  0  0  0  0  0  0  0  0  0  0  0
    9.3060  -15.1351   13.7260 C   0  0  0  0  0  0  0  0  0  0  0  0
    8.5055  -15.1825   14.9650 C   0  0  0  0  0  0  0  0  0  0  0  0
    7.6645  -14.2750   15.1718 O   0  0  0  0  0  0  0  0  0  0  0  0
    7.4751  -18.4827   19.8340 N   0  0  0  0  0  0  0  0  0  0  0  0
    6.8854  -17.8660   18.7017 C   0  0  0  0  0  0  0  0  0  0  0  0
    5.7144  -17.4560   18.7832 O   0  0  0  0  0  0  0  0  0  0  0  0
    7.6538  -17.7230   17.4701 C   0  0  0  0  0  0  0  0  0  0  0  0
    7.9706  -16.2465   17.2097 C   0  0  2  0  0  0  0  0  0  0  0  0
    8.6694  -16.2103   15.8978 N   0  0  0  0  0  0  0  0  0  0  0  0
    8.8863  -15.8335   18.2737 C   0  0  0  0  0  0  0  0  0  0  0  0
    9.8531  -16.7247   18.4599 O   0  0  0  0  0  0  0  0  0  0  0  0
    8.8712  -14.7028   19.0624 N   0  0  0  0  0  0  0  0  0  0  0  0
    8.2621  -13.4381   18.5025 C   0  0  0  0  0  0  0  0  0  0  0  0
    7.2964  -13.1238   19.6157 C   0  0  0  0  0  0  0  0  0  0  0  0
    7.8299  -13.8099   20.8448 C   0  0  0  0  0  0  0  0  0  0  0  0
    9.2472  -14.2609   20.3176 C   0  0  1  0  0  0  0  0  0  0  0  0
    9.8769  -15.0438   21.3389 C   0  0  0  0  0  0  0  0  0  0  0  0
   10.9052  -14.4354   22.1057 O   0  0  0  0  0  0  0  0  0  0  0  0
    9.6310  -16.1948   21.6356 O   0  0  0  0  0  0  0  0  0  0  0  0
  2  1  1  0
  3  2  1  0
  3  4  2  0
  6  8  1  0
  6  5  1  0
  7  6  2  0
  9 10  1  0
  9  8  1  1
 10  3  1  0
 11 12  2  0
 11  9  1  0
 13 11  1  0
 14 15  1  0
 14 13  1  0
 16 15  1  0
 16 17  1  0
 17 13  1  0
 17 18  1  1
 18 20  2  0
 18 19  1  0
M  END
$$$$
