GNP.pdb
     RDKit          3D

 20 20  0  0  1  0  0  0  0  0999 V2000
    7.9134  -12.7211   19.1172 N   0  0  0  0  0  0  0  0  0  0  0  0
    8.6371  -13.6418   19.9748 C   0  0  0  0  0  0  0  0  0  0  0  0
    7.8577  -13.9790   21.1819 C   0  0  0  0  0  0  0  0  0  0  0  0
    6.7425  -13.4296   21.3497 O   0  0  0  0  0  0  0  0  0  0  0  0
    5.4803  -17.7313   24.2241 N   0  0  0  0  0  0  0  0  0  0  0  0
    6.8105  -17.3152   24.4839 C   0  0  0  0  0  0  0  0  0  0  0  0
    7.2463  -17.3884   25.6461 O   0  0  0  0  0  0  0  0  0  0  0  0
    7.6399  -16.8122   23.3944 C   0  0  0  0  0  0  0  0  0  0  0  0
    7.5831  -15.2816   23.3463 C   0  0  2  0  0  0  0  0  0  0  0  0
    8.3386  -14.8892   22.1272 N   0  0  0  0  0  0  0  0  0  0  0  0
    8.2853  -14.8111   24.5407 C   0  0  0  0  0  0  0  0  0  0  0  0
    9.3759  -15.5297   24.7816 O   0  0  0  0  0  0  0  0  0  0  0  0
    7.9742  -13.7776   25.3985 N   0  0  0  0  0  0  0  0  0  0  0  0
    7.1107  -12.6477   24.8869 C   0  0  0  0  0  0  0  0  0  0  0  0
    6.0530  -12.6494   25.9601 C   0  0  0  0  0  0  0  0  0  0  0  0
    6.6804  -13.2861   27.1712 C   0  0  0  0  0  0  0  0  0  0  0  0
    8.1844  -13.3580   26.6992 C   0  0  1  0  0  0  0  0  0  0  0  0
    8.9365  -14.0507   27.7028 C   0  0  0  0  0  0  0  0  0  0  0  0
    9.1912  -15.4337   27.5080 O   0  0  0  0  0  0  0  0  0  0  0  0
    9.3941  -13.5859   28.7263 O   0  0  0  0  0  0  0  0  0  0  0  0
  2  1  1  0
  3  2  1  0
  3  4  2  0
  6  8  1  0
  6  5  1  0
  7  6  2  0
  9 10  1  0
  9  8  1  1
 10  3  1  0
 11 12  2  0
 11  9  1  0
 13 11  1  0
 14 15  1  0
 14 13  1  0
 16 15  1  0
 16 17  1  0
 17 13  1  0
 17 18  1  1
 18 20  2  0
 18 19  1  0
M  END
$$$$
