GNP.pdb
     RDKit          3D

 20 20  0  0  1  0  0  0  0  0999 V2000
    3.7736  -19.4454   21.4910 N   0  0  0  0  0  0  0  0  0  0  0  0
    3.8677  -18.0225   21.7621 C   0  0  0  0  0  0  0  0  0  0  0  0
    5.1576  -17.4711   21.3034 C   0  0  0  0  0  0  0  0  0  0  0  0
    5.8791  -18.1736   20.5555 O   0  0  0  0  0  0  0  0  0  0  0  0
    7.7777  -12.9290   19.3507 N   0  0  0  0  0  0  0  0  0  0  0  0
    7.8562  -13.4549   20.6649 C   0  0  0  0  0  0  0  0  0  0  0  0
    8.9258  -13.3508   21.2903 O   0  0  0  0  0  0  0  0  0  0  0  0
    6.6923  -14.1040   21.2581 C   0  0  0  0  0  0  0  0  0  0  0  0
    6.8998  -15.6213   21.3117 C   0  0  2  0  0  0  0  0  0  0  0  0
    5.5799  -16.1948   21.6857 N   0  0  0  0  0  0  0  0  0  0  0  0
    7.8687  -15.8615   22.3815 C   0  0  0  0  0  0  0  0  0  0  0  0
    7.4834  -15.3051   23.5241 O   0  0  0  0  0  0  0  0  0  0  0  0
    9.0625  -16.5506   22.3535 N   0  0  0  0  0  0  0  0  0  0  0  0
    9.3923  -17.3774   21.1322 C   0  0  0  0  0  0  0  0  0  0  0  0
   10.7553  -16.8145   20.8225 C   0  0  0  0  0  0  0  0  0  0  0  0
   11.2759  -16.2342   22.1102 C   0  0  0  0  0  0  0  0  0  0  0  0
   10.1915  -16.7794   23.1186 C   0  0  1  0  0  0  0  0  0  0  0  0
   10.4652  -16.2282   24.4123 C   0  0  0  0  0  0  0  0  0  0  0  0
   11.2752  -16.9836   25.3004 O   0  0  0  0  0  0  0  0  0  0  0  0
   10.0780  -15.1654   24.8525 O   0  0  0  0  0  0  0  0  0  0  0  0
  2  1  1  0
  3  2  1  0
  3  4  2  0
  6  8  1  0
  6  5  1  0
  7  6  2  0
  9 10  1  0
  9  8  1  1
 10  3  1  0
 11 12  2  0
 11  9  1  0
 13 11  1  0
 14 15  1  0
 14 13  1  0
 16 15  1  0
 16 17  1  0
 17 13  1  0
 17 18  1  1
 18 20  2  0
 18 19  1  0
M  END
$$$$
