GNP.pdb
     RDKit          3D

 20 20  0  0  1  0  0  0  0  0999 V2000
    8.4043  -14.3957   13.4884 N   0  0  0  0  0  0  0  0  0  0  0  0
    8.6787  -15.4525   14.4448 C   0  0  0  0  0  0  0  0  0  0  0  0
    8.0590  -15.1684   15.7538 C   0  0  0  0  0  0  0  0  0  0  0  0
    7.5137  -14.0526   15.9306 O   0  0  0  0  0  0  0  0  0  0  0  0
    4.9424  -16.4035   20.0095 N   0  0  0  0  0  0  0  0  0  0  0  0
    6.1796  -17.0728   19.8322 C   0  0  0  0  0  0  0  0  0  0  0  0
    6.7467  -17.5596   20.8260 O   0  0  0  0  0  0  0  0  0  0  0  0
    6.7631  -17.1793   18.4996 C   0  0  0  0  0  0  0  0  0  0  0  0
    7.4703  -15.8730   18.1232 C   0  0  2  0  0  0  0  0  0  0  0  0
    8.0715  -16.1123   16.7844 N   0  0  0  0  0  0  0  0  0  0  0  0
    8.5271  -15.6819   19.1170 C   0  0  0  0  0  0  0  0  0  0  0  0
    9.3132  -16.7486   19.2060 O   0  0  0  0  0  0  0  0  0  0  0  0
    8.7925  -14.5981   19.9268 N   0  0  0  0  0  0  0  0  0  0  0  0
    8.3736  -13.2241   19.4571 C   0  0  0  0  0  0  0  0  0  0  0  0
    7.5906  -12.7852   20.6674 C   0  0  0  0  0  0  0  0  0  0  0  0
    8.1038  -13.6027   21.8224 C   0  0  0  0  0  0  0  0  0  0  0  0
    9.3593  -14.2795   21.1472 C   0  0  1  0  0  0  0  0  0  0  0  0
    9.9295  -15.2013   22.0840 C   0  0  0  0  0  0  0  0  0  0  0  0
   10.9754  -14.7362   22.9238 O   0  0  0  0  0  0  0  0  0  0  0  0
    9.6184  -16.3626   22.2507 O   0  0  0  0  0  0  0  0  0  0  0  0
  2  1  1  0
  3  2  1  0
  3  4  2  0
  6  8  1  0
  6  5  1  0
  7  6  2  0
  9 10  1  0
  9  8  1  1
 10  3  1  0
 11 12  2  0
 11  9  1  0
 13 11  1  0
 14 15  1  0
 14 13  1  0
 16 15  1  0
 16 17  1  0
 17 13  1  0
 17 18  1  1
 18 20  2  0
 18 19  1  0
M  END
$$$$
