GNP.pdb
     RDKit          3D

 20 20  0  0  1  0  0  0  0  0999 V2000
    4.8519  -19.4679   22.8608 N   0  0  0  0  0  0  0  0  0  0  0  0
    6.1567  -18.9807   23.2696 C   0  0  0  0  0  0  0  0  0  0  0  0
    6.2795  -17.5256   23.0554 C   0  0  0  0  0  0  0  0  0  0  0  0
    5.4033  -16.9430   22.3725 O   0  0  0  0  0  0  0  0  0  0  0  0
    7.1279  -13.2638   25.7727 N   0  0  0  0  0  0  0  0  0  0  0  0
    7.6350  -14.5688   25.5491 C   0  0  0  0  0  0  0  0  0  0  0  0
    7.3461  -15.4712   26.3543 O   0  0  0  0  0  0  0  0  0  0  0  0
    8.4797  -14.8307   24.3892 C   0  0  0  0  0  0  0  0  0  0  0  0
    7.6395  -15.3866   23.2345 C   0  0  2  0  0  0  0  0  0  0  0  0
    7.3439  -16.7984   23.5956 N   0  0  0  0  0  0  0  0  0  0  0  0
    8.4977  -15.3443   22.0502 C   0  0  0  0  0  0  0  0  0  0  0  0
    9.6284  -16.0141   22.2416 O   0  0  0  0  0  0  0  0  0  0  0  0
    8.2932  -14.7307   20.8326 N   0  0  0  0  0  0  0  0  0  0  0  0
    6.9233  -14.1713   20.5254 C   0  0  0  0  0  0  0  0  0  0  0  0
    7.3177  -12.7686   20.1410 C   0  0  0  0  0  0  0  0  0  0  0  0
    8.7589  -12.8372   19.7119 C   0  0  0  0  0  0  0  0  0  0  0  0
    8.9611  -14.4016   19.6674 C   0  0  1  0  0  0  0  0  0  0  0  0
   10.3383  -14.6674   19.3753 C   0  0  0  0  0  0  0  0  0  0  0  0
   11.1872  -15.0403   20.4503 O   0  0  0  0  0  0  0  0  0  0  0  0
   10.8812  -14.6107   18.2912 O   0  0  0  0  0  0  0  0  0  0  0  0
  2  1  1  0
  3  2  1  0
  3  4  2  0
  6  8  1  0
  6  5  1  0
  7  6  2  0
  9 10  1  0
  9  8  1  1
 10  3  1  0
 11 12  2  0
 11  9  1  0
 13 11  1  0
 14 15  1  0
 14 13  1  0
 16 15  1  0
 16 17  1  0
 17 13  1  0
 17 18  1  1
 18 20  2  0
 18 19  1  0
M  END
$$$$
