GNP.pdb
     RDKit          3D

 20 20  0  0  1  0  0  0  0  0999 V2000
    2.8718  -18.6350   21.4501 N   0  0  0  0  0  0  0  0  0  0  0  0
    4.2137  -18.8173   21.9725 C   0  0  0  0  0  0  0  0  0  0  0  0
    4.8298  -17.5266   22.3367 C   0  0  0  0  0  0  0  0  0  0  0  0
    4.1114  -16.4982   22.3415 O   0  0  0  0  0  0  0  0  0  0  0  0
    7.8701  -14.8489   26.2510 N   0  0  0  0  0  0  0  0  0  0  0  0
    8.1310  -15.2023   24.9030 C   0  0  0  0  0  0  0  0  0  0  0  0
    8.8287  -14.4435   24.2077 O   0  0  0  0  0  0  0  0  0  0  0  0
    7.5823  -16.4388   24.3573 C   0  0  0  0  0  0  0  0  0  0  0  0
    6.8543  -16.1603   23.0379 C   0  0  2  0  0  0  0  0  0  0  0  0
    6.1837  -17.4359   22.6716 N   0  0  0  0  0  0  0  0  0  0  0  0
    7.8946  -15.8450   22.0584 C   0  0  0  0  0  0  0  0  0  0  0  0
    8.9838  -16.5808   22.2480 O   0  0  0  0  0  0  0  0  0  0  0  0
    7.8875  -14.9320   21.0254 N   0  0  0  0  0  0  0  0  0  0  0  0
    6.6057  -14.1900   20.7243 C   0  0  0  0  0  0  0  0  0  0  0  0
    7.1317  -12.7784   20.7603 C   0  0  0  0  0  0  0  0  0  0  0  0
    8.6094  -12.8706   20.4889 C   0  0  0  0  0  0  0  0  0  0  0  0
    8.7197  -14.3866   20.0651 C   0  0  1  0  0  0  0  0  0  0  0  0
   10.1043  -14.6971   19.8674 C   0  0  0  0  0  0  0  0  0  0  0  0
   10.8982  -14.9602   21.0145 O   0  0  0  0  0  0  0  0  0  0  0  0
   10.6961  -14.7641   18.8099 O   0  0  0  0  0  0  0  0  0  0  0  0
  2  1  1  0
  3  2  1  0
  3  4  2  0
  6  8  1  0
  6  5  1  0
  7  6  2  0
  9 10  1  0
  9  8  1  1
 10  3  1  0
 11 12  2  0
 11  9  1  0
 13 11  1  0
 14 15  1  0
 14 13  1  0
 16 15  1  0
 16 17  1  0
 17 13  1  0
 17 18  1  1
 18 20  2  0
 18 19  1  0
M  END
$$$$
