GNP.pdb
     RDKit          3D

 20 20  0  0  1  0  0  0  0  0999 V2000
    3.0340  -18.9746   21.4095 N   0  0  0  0  0  0  0  0  0  0  0  0
    4.3323  -19.0993   22.0467 C   0  0  0  0  0  0  0  0  0  0  0  0
    4.9020  -17.7772   22.3716 C   0  0  0  0  0  0  0  0  0  0  0  0
    4.2177  -16.7533   22.1330 O   0  0  0  0  0  0  0  0  0  0  0  0
    7.1842  -14.2566   25.5464 N   0  0  0  0  0  0  0  0  0  0  0  0
    8.0523  -15.2764   25.0809 C   0  0  0  0  0  0  0  0  0  0  0  0
    9.2783  -15.0696   25.0856 O   0  0  0  0  0  0  0  0  0  0  0  0
    7.4994  -16.5407   24.6080 C   0  0  0  0  0  0  0  0  0  0  0  0
    6.8052  -16.3445   23.2560 C   0  0  2  0  0  0  0  0  0  0  0  0
    6.1755  -17.6524   22.9337 N   0  0  0  0  0  0  0  0  0  0  0  0
    7.8669  -16.0516   22.2927 C   0  0  0  0  0  0  0  0  0  0  0  0
    8.9119  -16.8543   22.4578 O   0  0  0  0  0  0  0  0  0  0  0  0
    7.9168  -15.1014   21.2950 N   0  0  0  0  0  0  0  0  0  0  0  0
    6.6745  -14.2911   21.0047 C   0  0  0  0  0  0  0  0  0  0  0  0
    7.2629  -12.9072   21.1014 C   0  0  0  0  0  0  0  0  0  0  0  0
    8.7390  -13.0566   20.8469 C   0  0  0  0  0  0  0  0  0  0  0  0
    8.7874  -14.5592   20.3675 C   0  0  1  0  0  0  0  0  0  0  0  0
   10.1594  -14.9250   20.1771 C   0  0  0  0  0  0  0  0  0  0  0  0
   10.9385  -15.2111   21.3289 O   0  0  0  0  0  0  0  0  0  0  0  0
   10.7519  -15.0222   19.1223 O   0  0  0  0  0  0  0  0  0  0  0  0
  2  1  1  0
  3  2  1  0
  3  4  2  0
  6  8  1  0
  6  5  1  0
  7  6  2  0
  9 10  1  0
  9  8  1  1
 10  3  1  0
 11 12  2  0
 11  9  1  0
 13 11  1  0
 14 15  1  0
 14 13  1  0
 16 15  1  0
 16 17  1  0
 17 13  1  0
 17 18  1  1
 18 20  2  0
 18 19  1  0
M  END
$$$$
