IEH.pdb
     RDKit          3D

 28 28  0  0  1  0  0  0  0  0999 V2000
    8.2495  -11.8229   27.1683 C   0  0  0  0  0  0  0  0  0  0  0  0
    7.7670  -13.1993   26.8355 C   0  0  0  0  0  0  0  0  0  0  0  0
    6.9872  -13.2297   25.5632 C   0  0  2  0  0  0  0  0  0  0  0  0
    5.7647  -12.3720   25.5858 C   0  0  0  0  0  0  0  0  0  0  0  0
    6.5760  -14.6456   25.2389 C   0  0  2  0  0  0  0  0  0  0  0  0
    5.9155  -15.1509   26.4478 N   0  0  0  0  0  0  0  0  0  0  0  0
    7.7094  -15.5347   24.9142 C   0  0  0  0  0  0  0  0  0  0  0  0
    8.1618  -16.4096   25.6958 O   0  0  0  0  0  0  0  0  0  0  0  0
    8.3398  -15.4080   23.6437 N   0  0  0  0  0  0  0  0  0  0  0  0
    9.4360  -16.2401   23.2485 C   0  0  1  0  0  0  0  0  0  0  0  0
    9.6995  -16.3744   21.8068 C   0  0  0  0  0  0  0  0  0  0  0  0
   10.7472  -17.2379   21.2869 C   0  0  0  0  0  0  0  0  0  0  0  0
   10.5006  -18.1605   20.2042 C   0  0  0  0  0  0  0  0  0  0  0  0
    9.5468  -18.1581   19.3901 O   0  0  0  0  0  0  0  0  0  0  0  0
   10.6596  -15.9275   24.0506 C   0  0  0  0  0  0  0  0  0  0  0  0
   11.0648  -14.7508   24.0645 O   0  0  0  0  0  0  0  0  0  0  0  0
   11.4229  -19.2091   20.0031 O   0  0  0  0  0  0  0  0  0  0  0  0
   11.3449  -16.9001   24.7690 N   0  0  0  0  0  0  0  0  0  0  0  0
   12.5140  -16.6628   25.6061 C   0  0  1  0  0  0  0  0  0  0  0  0
   12.3844  -17.2314   26.9583 C   0  0  0  0  0  0  0  0  0  0  0  0
   11.4825  -16.4157   27.8043 C   0  0  0  0  0  0  0  0  0  0  0  0
   10.7625  -15.2745   27.5480 C   0  0  0  0  0  0  0  0  0  0  0  0
    9.9981  -14.9210   28.6134 N   0  0  0  0  0  0  0  0  0  0  0  0
   10.2355  -15.8464   29.5492 C   0  0  0  0  0  0  0  0  0  0  0  0
   11.1132  -16.7453   29.0931 N   0  0  0  0  0  0  0  0  0  0  0  0
   13.6226  -17.3321   24.8381 C   0  0  0  0  0  0  0  0  0  0  0  0
   13.4033  -17.9481   23.8036 O   0  0  0  0  0  0  0  0  0  0  0  0
   14.9116  -17.2517   25.3079 O   0  0  0  0  0  0  0  0  0  0  0  0
  2  1  1  0
  3  2  1  0
  3  4  1  1
  5  3  1  0
  5  6  1  1
  7  5  1  0
  7  8  2  0
  9  7  1  0
 10  9  1  0
 10 11  1  6
 12 11  1  0
 12 13  1  0
 13 17  1  0
 13 14  2  0
 15 10  1  0
 16 15  2  0
 18 15  1  0
 19 18  1  0
 19 26  1  0
 19 20  1  1
 21 25  1  0
 21 20  1  0
 22 21  2  0
 23 22  1  0
 23 24  1  0
 24 25  2  0
 26 28  1  0
 27 26  2  0
M  END
$$$$
