IEH.pdb
     RDKit          3D

 28 28  0  0  1  0  0  0  0  0999 V2000
    5.7624  -11.0187   26.5085 C   0  0  0  0  0  0  0  0  0  0  0  0
    5.4392  -12.3727   25.9605 C   0  0  0  0  0  0  0  0  0  0  0  0
    6.6672  -13.1681   25.6657 C   0  0  2  0  0  0  0  0  0  0  0  0
    7.6345  -12.4710   24.7662 C   0  0  0  0  0  0  0  0  0  0  0  0
    6.2930  -14.4894   25.0388 C   0  0  2  0  0  0  0  0  0  0  0  0
    5.4005  -15.1440   26.0020 N   0  0  0  0  0  0  0  0  0  0  0  0
    7.4466  -15.3763   24.7867 C   0  0  0  0  0  0  0  0  0  0  0  0
    7.9714  -16.1113   25.6615 O   0  0  0  0  0  0  0  0  0  0  0  0
    8.0112  -15.4144   23.4801 N   0  0  0  0  0  0  0  0  0  0  0  0
    9.0458  -16.3370   23.1216 C   0  0  1  0  0  0  0  0  0  0  0  0
    9.1903  -16.6727   21.6960 C   0  0  0  0  0  0  0  0  0  0  0  0
   10.1959  -17.6073   21.2172 C   0  0  0  0  0  0  0  0  0  0  0  0
   10.3721  -17.8748   19.8095 C   0  0  0  0  0  0  0  0  0  0  0  0
    9.5023  -17.8614   18.9063 O   0  0  0  0  0  0  0  0  0  0  0  0
   10.3382  -15.9724   23.7811 C   0  0  0  0  0  0  0  0  0  0  0  0
   10.8116  -14.8436   23.5557 O   0  0  0  0  0  0  0  0  0  0  0  0
   11.6679  -18.1949   19.3522 O   0  0  0  0  0  0  0  0  0  0  0  0
   11.0134  -16.8462   24.6250 N   0  0  0  0  0  0  0  0  0  0  0  0
   12.3303  -16.6111   25.2032 C   0  0  1  0  0  0  0  0  0  0  0  0
   12.4132  -16.9798   26.6265 C   0  0  0  0  0  0  0  0  0  0  0  0
   11.7335  -15.9818   27.4847 C   0  0  0  0  0  0  0  0  0  0  0  0
   11.3138  -14.6960   27.2457 C   0  0  0  0  0  0  0  0  0  0  0  0
   10.6541  -14.1829   28.3163 N   0  0  0  0  0  0  0  0  0  0  0  0
   10.6556  -15.1520   29.2379 C   0  0  0  0  0  0  0  0  0  0  0  0
   11.2901  -16.2306   28.7682 N   0  0  0  0  0  0  0  0  0  0  0  0
   13.2295  -17.4784   24.3630 C   0  0  0  0  0  0  0  0  0  0  0  0
   12.7843  -18.1834   23.4673 O   0  0  0  0  0  0  0  0  0  0  0  0
   14.5822  -17.4809   24.6060 O   0  0  0  0  0  0  0  0  0  0  0  0
  2  1  1  0
  3  2  1  0
  3  4  1  6
  5  3  1  0
  5  6  1  1
  7  5  1  0
  7  8  2  0
  9  7  1  0
 10  9  1  0
 10 11  1  6
 12 11  1  0
 12 13  1  0
 13 17  1  0
 13 14  2  0
 15 10  1  0
 16 15  2  0
 18 15  1  0
 19 18  1  0
 19 26  1  0
 19 20  1  1
 21 25  1  0
 21 20  1  0
 22 21  2  0
 23 22  1  0
 23 24  1  0
 24 25  2  0
 26 28  1  0
 27 26  2  0
M  END
$$$$
