IEH.pdb
     RDKit          3D

 28 28  0  0  1  0  0  0  0  0999 V2000
    8.5447  -12.0104   27.2060 C   0  0  0  0  0  0  0  0  0  0  0  0
    8.0629  -13.3563   26.7650 C   0  0  0  0  0  0  0  0  0  0  0  0
    7.1826  -13.2725   25.5627 C   0  0  2  0  0  0  0  0  0  0  0  0
    5.9747  -12.4165   25.7593 C   0  0  0  0  0  0  0  0  0  0  0  0
    6.7323  -14.6532   25.1505 C   0  0  2  0  0  0  0  0  0  0  0  0
    5.9856  -15.1830   26.2971 N   0  0  0  0  0  0  0  0  0  0  0  0
    7.8446  -15.5754   24.8453 C   0  0  0  0  0  0  0  0  0  0  0  0
    7.9238  -16.7502   25.2863 O   0  0  0  0  0  0  0  0  0  0  0  0
    8.8996  -15.1240   24.0022 N   0  0  0  0  0  0  0  0  0  0  0  0
    9.5639  -15.9928   23.0781 C   0  0  1  0  0  0  0  0  0  0  0  0
    9.4272  -15.6895   21.6445 C   0  0  0  0  0  0  0  0  0  0  0  0
   10.0918  -16.4763   20.6184 C   0  0  0  0  0  0  0  0  0  0  0  0
    9.8203  -17.8840   20.4488 C   0  0  0  0  0  0  0  0  0  0  0  0
   10.4956  -18.8559   20.8632 O   0  0  0  0  0  0  0  0  0  0  0  0
   10.9769  -16.2425   23.5016 C   0  0  0  0  0  0  0  0  0  0  0  0
   11.7014  -16.9201   22.7499 O   0  0  0  0  0  0  0  0  0  0  0  0
    8.6615  -18.2547   19.7342 O   0  0  0  0  0  0  0  0  0  0  0  0
   11.4938  -15.7462   24.6924 N   0  0  0  0  0  0  0  0  0  0  0  0
   12.1263  -16.5447   25.7346 C   0  0  1  0  0  0  0  0  0  0  0  0
   11.1820  -17.0042   26.7669 C   0  0  0  0  0  0  0  0  0  0  0  0
   10.7042  -15.8786   27.6030 C   0  0  0  0  0  0  0  0  0  0  0  0
   10.9090  -14.5227   27.5252 C   0  0  0  0  0  0  0  0  0  0  0  0
   10.1954  -13.8586   28.4709 N   0  0  0  0  0  0  0  0  0  0  0  0
    9.5336  -14.8015   29.1502 C   0  0  0  0  0  0  0  0  0  0  0  0
    9.8185  -16.0094   28.6540 N   0  0  0  0  0  0  0  0  0  0  0  0
   12.7034  -17.7057   24.9692 C   0  0  0  0  0  0  0  0  0  0  0  0
   13.9119  -17.8539   24.8460 O   0  0  0  0  0  0  0  0  0  0  0  0
   11.8555  -18.6215   24.3939 O   0  0  0  0  0  0  0  0  0  0  0  0
  2  1  1  0
  3  2  1  0
  3  4  1  1
  5  3  1  0
  5  6  1  1
  7  5  1  0
  7  8  2  0
  9  7  1  0
 10  9  1  0
 10 11  1  6
 12 11  1  0
 12 13  1  0
 13 17  1  0
 13 14  2  0
 15 10  1  0
 16 15  2  0
 18 15  1  0
 19 18  1  0
 19 26  1  0
 19 20  1  1
 21 25  1  0
 21 20  1  0
 22 21  2  0
 23 22  1  0
 23 24  1  0
 24 25  2  0
 26 28  1  0
 27 26  2  0
M  END
$$$$
