IEH.pdb
     RDKit          3D

 28 28  0  0  1  0  0  0  0  0999 V2000
    7.4970  -11.7442   18.9637 C   0  0  0  0  0  0  0  0  0  0  0  0
    7.8988  -13.1561   18.6747 C   0  0  0  0  0  0  0  0  0  0  0  0
    8.1445  -13.9376   19.9223 C   0  0  2  0  0  0  0  0  0  0  0  0
    9.1231  -13.2971   20.8510 C   0  0  0  0  0  0  0  0  0  0  0  0
    8.6406  -15.3217   19.5798 C   0  0  2  0  0  0  0  0  0  0  0  0
    7.5866  -15.9256   18.7567 N   0  0  0  0  0  0  0  0  0  0  0  0
    8.8685  -16.1808   20.7590 C   0  0  0  0  0  0  0  0  0  0  0  0
    7.9486  -16.6274   21.4907 O   0  0  0  0  0  0  0  0  0  0  0  0
   10.2040  -16.5352   21.1029 N   0  0  0  0  0  0  0  0  0  0  0  0
   10.5022  -17.4607   22.1539 C   0  0  1  0  0  0  0  0  0  0  0  0
   11.7491  -18.2344   22.0421 C   0  0  0  0  0  0  0  0  0  0  0  0
   12.1165  -19.2574   23.0076 C   0  0  0  0  0  0  0  0  0  0  0  0
   13.3737  -19.9621   22.9231 C   0  0  0  0  0  0  0  0  0  0  0  0
   14.3020  -19.7887   22.0980 O   0  0  0  0  0  0  0  0  0  0  0  0
   10.3151  -16.8241   23.4948 C   0  0  0  0  0  0  0  0  0  0  0  0
   10.8029  -15.6939   23.6787 O   0  0  0  0  0  0  0  0  0  0  0  0
   13.6288  -20.9792   23.8671 O   0  0  0  0  0  0  0  0  0  0  0  0
    9.6224  -17.4507   24.5240 N   0  0  0  0  0  0  0  0  0  0  0  0
    9.4816  -16.9370   25.8805 C   0  0  1  0  0  0  0  0  0  0  0  0
    8.0821  -16.6857   26.2634 C   0  0  0  0  0  0  0  0  0  0  0  0
    7.6721  -15.3001   25.9374 C   0  0  0  0  0  0  0  0  0  0  0  0
    8.3492  -14.2500   25.3672 C   0  0  0  0  0  0  0  0  0  0  0  0
    7.5363  -13.1779   25.1823 N   0  0  0  0  0  0  0  0  0  0  0  0
    6.3363  -13.5538   25.6374 C   0  0  0  0  0  0  0  0  0  0  0  0
    6.3906  -14.8099   26.0908 N   0  0  0  0  0  0  0  0  0  0  0  0
   10.0885  -18.0286   26.7213 C   0  0  0  0  0  0  0  0  0  0  0  0
   10.4464  -19.0908   26.2301 O   0  0  0  0  0  0  0  0  0  0  0  0
   10.2445  -17.8305   28.0722 O   0  0  0  0  0  0  0  0  0  0  0  0
  2  1  1  0
  3  2  1  0
  3  4  1  1
  5  3  1  0
  5  6  1  6
  7  5  1  0
  7  8  2  0
  9  7  1  0
 10  9  1  0
 10 11  1  6
 12 11  1  0
 12 13  1  0
 13 17  1  0
 13 14  2  0
 15 10  1  0
 16 15  2  0
 18 15  1  0
 19 18  1  0
 19 26  1  0
 19 20  1  1
 21 25  1  0
 21 20  1  0
 22 21  2  0
 23 22  1  0
 23 24  1  0
 24 25  2  0
 26 28  1  0
 27 26  2  0
M  END
$$$$
