IEH.pdb
     RDKit          3D

 28 28  0  0  1  0  0  0  0  0999 V2000
    7.9699  -12.9154   27.9432 C   0  0  0  0  0  0  0  0  0  0  0  0
    7.3458  -13.9704   27.0854 C   0  0  0  0  0  0  0  0  0  0  0  0
    7.1836  -13.5222   25.6710 C   0  0  2  0  0  0  0  0  0  0  0  0
    6.2408  -12.3756   25.5071 C   0  0  0  0  0  0  0  0  0  0  0  0
    6.7018  -14.6680   24.8144 C   0  0  2  0  0  0  0  0  0  0  0  0
    5.5117  -15.1939   25.4926 N   0  0  0  0  0  0  0  0  0  0  0  0
    7.6855  -15.7603   24.6735 C   0  0  0  0  0  0  0  0  0  0  0  0
    7.6359  -16.8375   25.3200 O   0  0  0  0  0  0  0  0  0  0  0  0
    8.7615  -15.6014   23.7545 N   0  0  0  0  0  0  0  0  0  0  0  0
    9.8027  -16.5752   23.6215 C   0  0  1  0  0  0  0  0  0  0  0  0
   10.7517  -16.4052   22.5097 C   0  0  0  0  0  0  0  0  0  0  0  0
   11.8102  -17.3646   22.2396 C   0  0  0  0  0  0  0  0  0  0  0  0
   12.6396  -17.2659   21.0621 C   0  0  0  0  0  0  0  0  0  0  0  0
   13.8313  -16.8831   20.9871 O   0  0  0  0  0  0  0  0  0  0  0  0
   10.4672  -16.8293   24.9377 C   0  0  0  0  0  0  0  0  0  0  0  0
   10.8709  -15.8478   25.5879 O   0  0  0  0  0  0  0  0  0  0  0  0
   12.0777  -17.6364   19.8220 O   0  0  0  0  0  0  0  0  0  0  0  0
   10.6429  -18.1110   25.4454 N   0  0  0  0  0  0  0  0  0  0  0  0
   11.3919  -18.4452   26.6501 C   0  0  1  0  0  0  0  0  0  0  0  0
   10.9022  -19.6624   27.3187 C   0  0  0  0  0  0  0  0  0  0  0  0
    9.5415  -19.4667   27.8706 C   0  0  0  0  0  0  0  0  0  0  0  0
    8.7142  -18.3711   27.9127 C   0  0  0  0  0  0  0  0  0  0  0  0
    7.5066  -18.6822   28.4504 N   0  0  0  0  0  0  0  0  0  0  0  0
    7.5704  -19.9843   28.7488 C   0  0  0  0  0  0  0  0  0  0  0  0
    8.7684  -20.4733   28.4138 N   0  0  0  0  0  0  0  0  0  0  0  0
   12.7945  -18.6333   26.1363 C   0  0  0  0  0  0  0  0  0  0  0  0
   13.0582  -18.5365   24.9452 O   0  0  0  0  0  0  0  0  0  0  0  0
   13.8040  -18.9213   27.0232 O   0  0  0  0  0  0  0  0  0  0  0  0
  2  1  1  0
  3  2  1  0
  3  4  1  1
  5  3  1  0
  5  6  1  1
  7  5  1  0
  7  8  2  0
  9  7  1  0
 10  9  1  0
 10 11  1  6
 12 11  1  0
 12 13  1  0
 13 17  1  0
 13 14  2  0
 15 10  1  0
 16 15  2  0
 18 15  1  0
 19 18  1  0
 19 26  1  0
 19 20  1  6
 21 25  1  0
 21 20  1  0
 22 21  2  0
 23 22  1  0
 23 24  1  0
 24 25  2  0
 26 28  1  0
 27 26  2  0
M  END
$$$$
