IEH.pdb
     RDKit          3D

 28 28  0  0  1  0  0  0  0  0999 V2000
    8.3323  -12.1804   27.2176 C   0  0  0  0  0  0  0  0  0  0  0  0
    7.6918  -13.4630   26.7899 C   0  0  0  0  0  0  0  0  0  0  0  0
    7.1070  -13.3703   25.4199 C   0  0  2  0  0  0  0  0  0  0  0  0
    5.9807  -12.3956   25.3107 C   0  0  0  0  0  0  0  0  0  0  0  0
    6.6161  -14.7255   24.9711 C   0  0  2  0  0  0  0  0  0  0  0  0
    5.6671  -15.1621   26.0015 N   0  0  0  0  0  0  0  0  0  0  0  0
    7.6855  -15.7374   24.8558 C   0  0  0  0  0  0  0  0  0  0  0  0
    7.8535  -16.6777   25.6734 O   0  0  0  0  0  0  0  0  0  0  0  0
    8.5898  -15.6592   23.7586 N   0  0  0  0  0  0  0  0  0  0  0  0
    9.6126  -16.6371   23.5406 C   0  0  1  0  0  0  0  0  0  0  0  0
   10.1301  -16.7828   22.1706 C   0  0  0  0  0  0  0  0  0  0  0  0
   11.1830  -17.7276   21.8355 C   0  0  0  0  0  0  0  0  0  0  0  0
   11.6923  -17.8483   20.4900 C   0  0  0  0  0  0  0  0  0  0  0  0
   11.7086  -16.9756   19.5896 O   0  0  0  0  0  0  0  0  0  0  0  0
   10.6884  -16.5239   24.5742 C   0  0  0  0  0  0  0  0  0  0  0  0
   11.3459  -15.4681   24.6205 O   0  0  0  0  0  0  0  0  0  0  0  0
   12.2489  -19.0847   20.0997 O   0  0  0  0  0  0  0  0  0  0  0  0
   10.9686  -17.5493   25.4696 N   0  0  0  0  0  0  0  0  0  0  0  0
   12.0480  -17.5421   26.4486 C   0  0  1  0  0  0  0  0  0  0  0  0
   11.5703  -17.6187   27.8395 C   0  0  0  0  0  0  0  0  0  0  0  0
   10.9865  -16.3316   28.2830 C   0  0  0  0  0  0  0  0  0  0  0  0
   10.7149  -15.1643   27.6120 C   0  0  0  0  0  0  0  0  0  0  0  0
   10.0937  -14.2633   28.4162 N   0  0  0  0  0  0  0  0  0  0  0  0
    9.9702  -14.8661   29.6035 C   0  0  0  0  0  0  0  0  0  0  0  0
   10.4923  -16.0954   29.5503 N   0  0  0  0  0  0  0  0  0  0  0  0
   12.8486  -18.7627   26.0800 C   0  0  0  0  0  0  0  0  0  0  0  0
   12.4772  -19.5308   25.2026 O   0  0  0  0  0  0  0  0  0  0  0  0
   14.0237  -19.0232   26.7432 O   0  0  0  0  0  0  0  0  0  0  0  0
  2  1  1  0
  3  2  1  0
  3  4  1  1
  5  3  1  0
  5  6  1  1
  7  5  1  0
  7  8  2  0
  9  7  1  0
 10  9  1  0
 10 11  1  6
 12 11  1  0
 12 13  1  0
 13 17  1  0
 13 14  2  0
 15 10  1  0
 16 15  2  0
 18 15  1  0
 19 18  1  0
 19 26  1  0
 19 20  1  1
 21 25  1  0
 21 20  1  0
 22 21  2  0
 23 22  1  0
 23 24  1  0
 24 25  2  0
 26 28  1  0
 27 26  2  0
M  END
$$$$
