IEH.pdb
     RDKit          3D

 28 28  0  0  1  0  0  0  0  0999 V2000
    7.3169  -11.7199   19.9781 C   0  0  0  0  0  0  0  0  0  0  0  0
    7.2409  -13.1902   19.7123 C   0  0  0  0  0  0  0  0  0  0  0  0
    8.0353  -13.9817   20.6972 C   0  0  2  0  0  0  0  0  0  0  0  0
    9.4620  -13.5528   20.8034 C   0  0  0  0  0  0  0  0  0  0  0  0
    7.9987  -15.4473   20.3371 C   0  0  2  0  0  0  0  0  0  0  0  0
    6.5784  -15.8157   20.3290 N   0  0  0  0  0  0  0  0  0  0  0  0
    8.7054  -16.3146   21.3010 C   0  0  0  0  0  0  0  0  0  0  0  0
    8.2013  -16.7244   22.3775 O   0  0  0  0  0  0  0  0  0  0  0  0
   10.0385  -16.7214   21.0099 N   0  0  0  0  0  0  0  0  0  0  0  0
   10.8002  -17.5395   21.9048 C   0  0  1  0  0  0  0  0  0  0  0  0
   11.9072  -18.3218   21.3318 C   0  0  0  0  0  0  0  0  0  0  0  0
   12.7981  -19.1232   22.1550 C   0  0  0  0  0  0  0  0  0  0  0  0
   13.9010  -19.8586   21.5831 C   0  0  0  0  0  0  0  0  0  0  0  0
   14.9226  -20.2946   22.1651 O   0  0  0  0  0  0  0  0  0  0  0  0
   11.1848  -16.7739   23.1313 C   0  0  0  0  0  0  0  0  0  0  0  0
   11.5778  -15.6015   22.9895 O   0  0  0  0  0  0  0  0  0  0  0  0
   13.8637  -20.1425   20.2015 O   0  0  0  0  0  0  0  0  0  0  0  0
   11.1161  -17.3278   24.4042 N   0  0  0  0  0  0  0  0  0  0  0  0
   11.0832  -16.5740   25.6510 C   0  0  1  0  0  0  0  0  0  0  0  0
    9.8155  -15.8546   25.8607 C   0  0  0  0  0  0  0  0  0  0  0  0
    9.7984  -15.1579   27.1679 C   0  0  0  0  0  0  0  0  0  0  0  0
   10.7457  -15.0275   28.1538 C   0  0  0  0  0  0  0  0  0  0  0  0
   10.3118  -14.2179   29.1541 N   0  0  0  0  0  0  0  0  0  0  0  0
    9.0820  -13.8325   28.7971 C   0  0  0  0  0  0  0  0  0  0  0  0
    8.7541  -14.3769   27.6212 N   0  0  0  0  0  0  0  0  0  0  0  0
   11.2844  -17.6385   26.6965 C   0  0  0  0  0  0  0  0  0  0  0  0
   11.1766  -17.3917   27.8902 O   0  0  0  0  0  0  0  0  0  0  0  0
   11.5974  -18.9177   26.3038 O   0  0  0  0  0  0  0  0  0  0  0  0
  2  1  1  0
  3  2  1  0
  3  4  1  6
  5  3  1  0
  5  6  1  1
  7  5  1  0
  7  8  2  0
  9  7  1  0
 10  9  1  0
 10 11  1  6
 12 11  1  0
 12 13  1  0
 13 17  1  0
 13 14  2  0
 15 10  1  0
 16 15  2  0
 18 15  1  0
 19 18  1  0
 19 26  1  0
 19 20  1  1
 21 25  1  0
 21 20  1  0
 22 21  2  0
 23 22  1  0
 23 24  1  0
 24 25  2  0
 26 28  1  0
 27 26  2  0
M  END
$$$$
