IEH.pdb
     RDKit          3D

 28 28  0  0  1  0  0  0  0  0999 V2000
    5.9993  -11.0540   26.4318 C   0  0  0  0  0  0  0  0  0  0  0  0
    5.6895  -12.4694   26.0591 C   0  0  0  0  0  0  0  0  0  0  0  0
    6.9135  -13.2293   25.6692 C   0  0  2  0  0  0  0  0  0  0  0  0
    7.6899  -12.5937   24.5630 C   0  0  0  0  0  0  0  0  0  0  0  0
    6.5441  -14.6328   25.2536 C   0  0  2  0  0  0  0  0  0  0  0  0
    5.8419  -15.2126   26.4041 N   0  0  0  0  0  0  0  0  0  0  0  0
    7.7074  -15.4841   24.9332 C   0  0  0  0  0  0  0  0  0  0  0  0
    8.3191  -16.1845   25.7794 O   0  0  0  0  0  0  0  0  0  0  0  0
    8.1782  -15.5268   23.5900 N   0  0  0  0  0  0  0  0  0  0  0  0
    9.1802  -16.4551   23.1610 C   0  0  1  0  0  0  0  0  0  0  0  0
    9.1798  -16.8449   21.7418 C   0  0  0  0  0  0  0  0  0  0  0  0
   10.1030  -17.8334   21.2086 C   0  0  0  0  0  0  0  0  0  0  0  0
   10.1281  -18.1663   19.8040 C   0  0  0  0  0  0  0  0  0  0  0  0
   10.8316  -17.6535   18.9015 O   0  0  0  0  0  0  0  0  0  0  0  0
   10.5300  -16.0561   23.6682 C   0  0  0  0  0  0  0  0  0  0  0  0
   10.7874  -14.8412   23.7518 O   0  0  0  0  0  0  0  0  0  0  0  0
    9.2698  -19.1898   19.3495 O   0  0  0  0  0  0  0  0  0  0  0  0
   11.4885  -16.9903   24.0424 N   0  0  0  0  0  0  0  0  0  0  0  0
   12.0441  -17.1380   25.3816 C   0  0  1  0  0  0  0  0  0  0  0  0
   11.0166  -17.3407   26.4168 C   0  0  0  0  0  0  0  0  0  0  0  0
   10.8388  -16.1273   27.2478 C   0  0  0  0  0  0  0  0  0  0  0  0
   11.2829  -14.8362   27.0984 C   0  0  0  0  0  0  0  0  0  0  0  0
   10.7995  -14.0293   28.0780 N   0  0  0  0  0  0  0  0  0  0  0  0
   10.0431  -14.8157   28.8511 C   0  0  0  0  0  0  0  0  0  0  0  0
   10.0499  -16.0662   28.3791 N   0  0  0  0  0  0  0  0  0  0  0  0
   12.9301  -18.3481   25.2497 C   0  0  0  0  0  0  0  0  0  0  0  0
   13.8087  -18.5902   26.0664 O   0  0  0  0  0  0  0  0  0  0  0  0
   12.7506  -19.2020   24.1880 O   0  0  0  0  0  0  0  0  0  0  0  0
  2  1  1  0
  3  2  1  0
  3  4  1  6
  5  3  1  0
  5  6  1  1
  7  5  1  0
  7  8  2  0
  9  7  1  0
 10  9  1  0
 10 11  1  6
 12 11  1  0
 12 13  1  0
 13 17  1  0
 13 14  2  0
 15 10  1  0
 16 15  2  0
 18 15  1  0
 19 18  1  0
 19 26  1  0
 19 20  1  1
 21 25  1  0
 21 20  1  0
 22 21  2  0
 23 22  1  0
 23 24  1  0
 24 25  2  0
 26 28  1  0
 27 26  2  0
M  END
$$$$
