IEH.pdb
     RDKit          3D

 28 28  0  0  1  0  0  0  0  0999 V2000
    6.1482  -11.9926   26.8309 C   0  0  0  0  0  0  0  0  0  0  0  0
    6.0748  -13.0670   25.7925 C   0  0  0  0  0  0  0  0  0  0  0  0
    7.2579  -13.9757   25.8386 C   0  0  2  0  0  0  0  0  0  0  0  0
    8.5675  -13.2645   25.7404 C   0  0  0  0  0  0  0  0  0  0  0  0
    7.1772  -14.9918   24.7250 C   0  0  2  0  0  0  0  0  0  0  0  0
    5.8449  -15.5961   24.8387 N   0  0  0  0  0  0  0  0  0  0  0  0
    8.1902  -16.0619   24.8214 C   0  0  0  0  0  0  0  0  0  0  0  0
    8.0981  -17.0482   25.5958 O   0  0  0  0  0  0  0  0  0  0  0  0
    9.3473  -15.9890   23.9948 N   0  0  0  0  0  0  0  0  0  0  0  0
   10.3801  -16.9797   24.0373 C   0  0  1  0  0  0  0  0  0  0  0  0
   11.0770  -17.2866   22.7779 C   0  0  0  0  0  0  0  0  0  0  0  0
   10.3779  -17.3762   21.5063 C   0  0  0  0  0  0  0  0  0  0  0  0
   11.0913  -17.4756   20.2552 C   0  0  0  0  0  0  0  0  0  0  0  0
   12.3316  -17.4662   20.0708 O   0  0  0  0  0  0  0  0  0  0  0  0
   11.3068  -16.7357   25.1862 C   0  0  0  0  0  0  0  0  0  0  0  0
   11.6067  -15.5581   25.4555 O   0  0  0  0  0  0  0  0  0  0  0  0
   10.3367  -17.5999   19.0694 O   0  0  0  0  0  0  0  0  0  0  0  0
   11.8333  -17.7718   25.9484 N   0  0  0  0  0  0  0  0  0  0  0  0
   11.8266  -17.8350   27.4043 C   0  0  1  0  0  0  0  0  0  0  0  0
   10.5476  -17.4099   27.9976 C   0  0  0  0  0  0  0  0  0  0  0  0
   10.5834  -15.9836   28.3962 C   0  0  0  0  0  0  0  0  0  0  0  0
   11.5576  -15.0216   28.2870 C   0  0  0  0  0  0  0  0  0  0  0  0
   11.1117  -13.8134   28.7183 N   0  0  0  0  0  0  0  0  0  0  0  0
    9.8460  -14.0130   29.1012 C   0  0  0  0  0  0  0  0  0  0  0  0
    9.5083  -15.2934   28.9196 N   0  0  0  0  0  0  0  0  0  0  0  0
   12.0987  -19.2895   27.6820 C   0  0  0  0  0  0  0  0  0  0  0  0
   12.4728  -19.6719   28.7827 O   0  0  0  0  0  0  0  0  0  0  0  0
   11.9244  -20.2112   26.6776 O   0  0  0  0  0  0  0  0  0  0  0  0
  2  1  1  0
  3  2  1  0
  3  4  1  6
  5  3  1  0
  5  6  1  1
  7  5  1  0
  7  8  2  0
  9  7  1  0
 10  9  1  0
 10 11  1  6
 12 11  1  0
 12 13  1  0
 13 17  1  0
 13 14  2  0
 15 10  1  0
 16 15  2  0
 18 15  1  0
 19 18  1  0
 19 26  1  0
 19 20  1  6
 21 25  1  0
 21 20  1  0
 22 21  2  0
 23 22  1  0
 23 24  1  0
 24 25  2  0
 26 28  1  0
 27 26  2  0
M  END
$$$$
