WAG.pdb
     RDKit          3D

 24 25  0  0  1  0  0  0  0  0999 V2000
    6.8625  -17.4021   23.1959 N   0  0  0  0  0  0  0  0  0  0  0  0
    7.2101  -16.0200   22.9936 C   0  0  1  0  0  0  0  0  0  0  0  0
    8.2054  -15.6582   24.0942 C   0  0  0  0  0  0  0  0  0  0  0  0
    7.4019  -14.9995   25.1568 C   0  0  0  0  0  0  0  0  0  0  0  0
    6.4285  -15.5680   25.9163 C   0  0  0  0  0  0  0  0  0  0  0  0
    5.9000  -14.6882   26.7835 N   0  0  0  0  0  0  0  0  0  0  0  0
    6.5315  -13.5171   26.5980 C   0  0  0  0  0  0  0  0  0  0  0  0
    6.4352  -12.2790   27.1686 C   0  0  0  0  0  0  0  0  0  0  0  0
    7.2401  -11.2436   26.7571 C   0  0  0  0  0  0  0  0  0  0  0  0
    8.1608  -11.4130   25.7680 C   0  0  0  0  0  0  0  0  0  0  0  0
    8.2896  -12.6455   25.1670 C   0  0  0  0  0  0  0  0  0  0  0  0
    7.4809  -13.6736   25.5852 C   0  0  0  0  0  0  0  0  0  0  0  0
    7.7252  -15.7578   21.6420 C   0  0  0  0  0  0  0  0  0  0  0  0
    8.3197  -16.6814   21.0312 O   0  0  0  0  0  0  0  0  0  0  0  0
    7.5018  -12.8587   19.3517 C   0  0  0  0  0  0  0  0  0  0  0  0
    8.0803  -14.1908   19.7488 C   0  0  2  0  0  0  0  0  0  0  0  0
    7.5532  -14.5036   21.0553 N   0  0  0  0  0  0  0  0  0  0  0  0
    9.5366  -14.2195   19.8029 C   0  0  0  0  0  0  0  0  0  0  0  0
   10.1167  -13.8276   20.8484 O   0  0  0  0  0  0  0  0  0  0  0  0
   10.3418  -14.6751   18.7166 N   0  0  0  0  0  0  0  0  0  0  0  0
   11.7867  -14.6240   18.8612 C   0  0  0  0  0  0  0  0  0  0  0  0
   12.4664  -15.1056   17.6431 C   0  0  0  0  0  0  0  0  0  0  0  0
   11.7513  -15.6227   16.5613 O   0  0  0  0  0  0  0  0  0  0  0  0
   13.7201  -15.0390   17.6009 O   0  0  0  0  0  0  0  0  0  0  0  0
  2  1  1  6
  2 13  1  0
  3  2  1  0
  4 12  1  0
  4  3  1  0
  5  4  2  0
  6  5  1  0
  6  7  1  0
  7 12  2  0
  8  7  1  0
  8  9  2  0
  9 10  1  0
 10 11  2  0
 12 11  1  0
 13 14  2  0
 16 15  1  1
 16 18  1  0
 17 13  1  0
 17 16  1  0
 18 19  2  0
 20 18  1  0
 20 21  1  0
 22 21  1  0
 22 23  1  0
 24 22  2  0
M  END
$$$$
