WAG.pdb
     RDKit          3D

 24 25  0  0  1  0  0  0  0  0999 V2000
    6.6249  -18.1961   24.5825 N   0  0  0  0  0  0  0  0  0  0  0  0
    6.8931  -16.8492   24.1511 C   0  0  1  0  0  0  0  0  0  0  0  0
    7.8258  -16.2378   25.1947 C   0  0  0  0  0  0  0  0  0  0  0  0
    7.0528  -15.1342   25.8217 C   0  0  0  0  0  0  0  0  0  0  0  0
    5.9039  -15.2459   26.5393 C   0  0  0  0  0  0  0  0  0  0  0  0
    5.4654  -14.0481   26.9616 N   0  0  0  0  0  0  0  0  0  0  0  0
    6.3359  -13.1259   26.5181 C   0  0  0  0  0  0  0  0  0  0  0  0
    6.4240  -11.7663   26.6246 C   0  0  0  0  0  0  0  0  0  0  0  0
    7.4621  -11.0752   26.0468 C   0  0  0  0  0  0  0  0  0  0  0  0
    8.4386  -11.7184   25.3486 C   0  0  0  0  0  0  0  0  0  0  0  0
    8.3867  -13.0883   25.2178 C   0  0  0  0  0  0  0  0  0  0  0  0
    7.3455  -13.7698   25.7987 C   0  0  0  0  0  0  0  0  0  0  0  0
    7.4370  -16.7896   22.7867 C   0  0  0  0  0  0  0  0  0  0  0  0
    7.9781  -17.8167   22.3055 O   0  0  0  0  0  0  0  0  0  0  0  0
    7.1497  -14.3339   20.0610 C   0  0  0  0  0  0  0  0  0  0  0  0
    7.8300  -15.5215   20.6884 C   0  0  2  0  0  0  0  0  0  0  0  0
    7.3501  -15.6101   22.0464 N   0  0  0  0  0  0  0  0  0  0  0  0
    9.2853  -15.4405   20.7014 C   0  0  0  0  0  0  0  0  0  0  0  0
    9.8993  -15.3083   19.6111 O   0  0  0  0  0  0  0  0  0  0  0  0
   10.0526  -15.5046   21.9027 N   0  0  0  0  0  0  0  0  0  0  0  0
   11.4966  -15.3751   21.8058 C   0  0  0  0  0  0  0  0  0  0  0  0
   12.1528  -16.6959   21.7571 C   0  0  0  0  0  0  0  0  0  0  0  0
   13.5270  -16.8387   21.9580 O   0  0  0  0  0  0  0  0  0  0  0  0
   11.4374  -17.7027   21.5278 O   0  0  0  0  0  0  0  0  0  0  0  0
  2  1  1  1
  2 13  1  0
  3  2  1  0
  4 12  1  0
  4  3  1  0
  5  4  2  0
  6  5  1  0
  6  7  1  0
  7 12  2  0
  8  7  1  0
  8  9  2  0
  9 10  1  0
 10 11  2  0
 12 11  1  0
 13 14  2  0
 16 15  1  1
 16 18  1  0
 17 13  1  0
 17 16  1  0
 18 19  2  0
 20 18  1  0
 20 21  1  0
 22 21  1  0
 22 23  1  0
 24 22  2  0
M  END
$$$$
