WAG.pdb
     RDKit          3D

 24 25  0  0  1  0  0  0  0  0999 V2000
    7.0344  -17.6271   25.5079 N   0  0  0  0  0  0  0  0  0  0  0  0
    7.1999  -16.4011   24.7720 C   0  0  1  0  0  0  0  0  0  0  0  0
    8.5831  -15.8628   25.1327 C   0  0  0  0  0  0  0  0  0  0  0  0
    8.3817  -15.0292   26.3465 C   0  0  0  0  0  0  0  0  0  0  0  0
    8.8153  -15.3007   27.6057 C   0  0  0  0  0  0  0  0  0  0  0  0
    8.4592  -14.3362   28.4707 N   0  0  0  0  0  0  0  0  0  0  0  0
    7.7785  -13.4092   27.7762 C   0  0  0  0  0  0  0  0  0  0  0  0
    7.1771  -12.2250   28.0982 C   0  0  0  0  0  0  0  0  0  0  0  0
    6.5372  -11.4715   27.1433 C   0  0  0  0  0  0  0  0  0  0  0  0
    6.4791  -11.8764   25.8442 C   0  0  0  0  0  0  0  0  0  0  0  0
    7.0727  -13.0639   25.4782 C   0  0  0  0  0  0  0  0  0  0  0  0
    7.7096  -13.8096   26.4396 C   0  0  0  0  0  0  0  0  0  0  0  0
    7.0103  -16.5793   23.3252 C   0  0  0  0  0  0  0  0  0  0  0  0
    6.9123  -17.7453   22.8668 O   0  0  0  0  0  0  0  0  0  0  0  0
    6.3794  -14.3145   20.4928 C   0  0  0  0  0  0  0  0  0  0  0  0
    6.9427  -15.5965   21.0459 C   0  0  2  0  0  0  0  0  0  0  0  0
    6.9417  -15.4688   22.4833 N   0  0  0  0  0  0  0  0  0  0  0  0
    8.2951  -15.9004   20.5952 C   0  0  0  0  0  0  0  0  0  0  0  0
    8.4974  -16.1146   19.3719 O   0  0  0  0  0  0  0  0  0  0  0  0
    9.4096  -15.9669   21.4837 N   0  0  0  0  0  0  0  0  0  0  0  0
   10.7232  -16.2330   20.9225 C   0  0  0  0  0  0  0  0  0  0  0  0
   11.0971  -17.6520   21.0783 C   0  0  0  0  0  0  0  0  0  0  0  0
   12.3489  -18.1272   20.6829 O   0  0  0  0  0  0  0  0  0  0  0  0
   10.2521  -18.4335   21.5815 O   0  0  0  0  0  0  0  0  0  0  0  0
  2  1  1  1
  2 13  1  0
  3  2  1  0
  4 12  1  0
  4  3  1  0
  5  4  2  0
  6  5  1  0
  6  7  1  0
  7 12  2  0
  8  7  1  0
  8  9  2  0
  9 10  1  0
 10 11  2  0
 12 11  1  0
 13 14  2  0
 16 15  1  6
 16 18  1  0
 17 13  1  0
 17 16  1  0
 18 19  2  0
 20 18  1  0
 20 21  1  0
 22 21  1  0
 22 23  1  0
 24 22  2  0
M  END
$$$$
