WAG.pdb
     RDKit          3D

 24 25  0  0  1  0  0  0  0  0999 V2000
    8.5247  -17.2337   25.2503 N   0  0  0  0  0  0  0  0  0  0  0  0
    7.1686  -17.1671   24.7721 C   0  0  1  0  0  0  0  0  0  0  0  0
    6.3484  -16.5178   25.8850 C   0  0  0  0  0  0  0  0  0  0  0  0
    7.2575  -15.5324   26.5264 C   0  0  0  0  0  0  0  0  0  0  0  0
    8.3991  -15.8002   27.2137 C   0  0  0  0  0  0  0  0  0  0  0  0
    8.9802  -14.6761   27.6657 N   0  0  0  0  0  0  0  0  0  0  0  0
    8.2134  -13.6453   27.2730 C   0  0  0  0  0  0  0  0  0  0  0  0
    8.2840  -12.2892   27.4268 C   0  0  0  0  0  0  0  0  0  0  0  0
    7.3216  -11.4638   26.8960 C   0  0  0  0  0  0  0  0  0  0  0  0
    6.2648  -11.9659   26.1990 C   0  0  0  0  0  0  0  0  0  0  0  0
    6.1566  -13.3273   26.0214 C   0  0  0  0  0  0  0  0  0  0  0  0
    7.1232  -14.1436   26.5555 C   0  0  0  0  0  0  0  0  0  0  0  0
    7.0555  -16.4625   23.4870 C   0  0  0  0  0  0  0  0  0  0  0  0
    5.9366  -16.4208   22.9160 O   0  0  0  0  0  0  0  0  0  0  0  0
    7.6726  -13.7960   21.8580 C   0  0  0  0  0  0  0  0  0  0  0  0
    8.1243  -15.2134   21.6260 C   0  0  2  0  0  0  0  0  0  0  0  0
    8.1748  -15.8538   22.9182 N   0  0  0  0  0  0  0  0  0  0  0  0
    9.4283  -15.3294   20.9852 C   0  0  0  0  0  0  0  0  0  0  0  0
    9.6094  -14.7836   19.8661 O   0  0  0  0  0  0  0  0  0  0  0  0
   10.5181  -16.0388   21.5725 N   0  0  0  0  0  0  0  0  0  0  0  0
   11.7742  -16.0979   20.8444 C   0  0  0  0  0  0  0  0  0  0  0  0
   11.9332  -17.3905   20.1505 C   0  0  0  0  0  0  0  0  0  0  0  0
   13.1376  -18.0958   20.1830 O   0  0  0  0  0  0  0  0  0  0  0  0
   10.9469  -17.8483   19.5215 O   0  0  0  0  0  0  0  0  0  0  0  0
  2  1  1  1
  2 13  1  0
  3  2  1  0
  4 12  1  0
  4  3  1  0
  5  4  2  0
  6  5  1  0
  6  7  1  0
  7 12  2  0
  8  7  1  0
  8  9  2  0
  9 10  1  0
 10 11  2  0
 12 11  1  0
 13 14  2  0
 16 15  1  1
 16 18  1  0
 17 13  1  0
 17 16  1  0
 18 19  2  0
 20 18  1  0
 20 21  1  0
 22 21  1  0
 22 23  1  0
 24 22  2  0
M  END
$$$$
