WAG.pdb
     RDKit          3D

 24 25  0  0  1  0  0  0  0  0999 V2000
    7.1089  -17.9048   24.3969 N   0  0  0  0  0  0  0  0  0  0  0  0
    7.9482  -16.7513   24.2038 C   0  0  1  0  0  0  0  0  0  0  0  0
    8.2727  -16.2138   25.5962 C   0  0  0  0  0  0  0  0  0  0  0  0
    7.2171  -15.2101   25.8913 C   0  0  0  0  0  0  0  0  0  0  0  0
    5.9243  -15.4587   26.2293 C   0  0  0  0  0  0  0  0  0  0  0  0
    5.2366  -14.3214   26.4265 N   0  0  0  0  0  0  0  0  0  0  0  0
    6.0849  -13.3010   26.2164 C   0  0  0  0  0  0  0  0  0  0  0  0
    5.9724  -11.9398   26.2646 C   0  0  0  0  0  0  0  0  0  0  0  0
    7.0481  -11.1290   25.9916 C   0  0  0  0  0  0  0  0  0  0  0  0
    8.2626  -11.6509   25.6638 C   0  0  0  0  0  0  0  0  0  0  0  0
    8.4179  -13.0180   25.6041 C   0  0  0  0  0  0  0  0  0  0  0  0
    7.3372  -13.8197   25.8786 C   0  0  0  0  0  0  0  0  0  0  0  0
    9.1473  -17.0506   23.4079 C   0  0  0  0  0  0  0  0  0  0  0  0
    9.7685  -18.1207   23.6283 O   0  0  0  0  0  0  0  0  0  0  0  0
   10.7162  -15.4829   20.4611 C   0  0  0  0  0  0  0  0  0  0  0  0
   10.7864  -16.3824   21.6664 C   0  0  2  0  0  0  0  0  0  0  0  0
    9.5812  -16.1575   22.4276 N   0  0  0  0  0  0  0  0  0  0  0  0
   11.9421  -16.1475   22.5229 C   0  0  0  0  0  0  0  0  0  0  0  0
   11.8037  -15.4411   23.5549 O   0  0  0  0  0  0  0  0  0  0  0  0
   13.2337  -16.6857   22.2436 N   0  0  0  0  0  0  0  0  0  0  0  0
   14.3331  -16.3315   23.1251 C   0  0  0  0  0  0  0  0  0  0  0  0
   15.6222  -16.8229   22.6013 C   0  0  0  0  0  0  0  0  0  0  0  0
   16.8304  -16.5299   23.2365 O   0  0  0  0  0  0  0  0  0  0  0  0
   15.6077  -17.5204   21.5566 O   0  0  0  0  0  0  0  0  0  0  0  0
  2  1  1  1
  2 13  1  0
  3  2  1  0
  4 12  1  0
  4  3  1  0
  5  4  2  0
  6  5  1  0
  6  7  1  0
  7 12  2  0
  8  7  1  0
  8  9  2  0
  9 10  1  0
 10 11  2  0
 12 11  1  0
 13 14  2  0
 16 15  1  6
 16 18  1  0
 17 13  1  0
 17 16  1  0
 18 19  2  0
 20 18  1  0
 20 21  1  0
 22 21  1  0
 22 23  1  0
 24 22  2  0
M  END
$$$$
