ATM.pdb
     RDKit          3D

 21 20  0  0  1  0  0  0  0  0999 V2000
    8.5251  -12.2459   19.0120 C   0  0  0  0  0  0  0  0  0  0  0  0
    8.6470  -13.7023   18.6167 C   0  0  2  0  0  0  0  0  0  0  0  0
    7.9354  -13.8957   17.3799 N   0  0  0  0  0  0  0  0  0  0  0  0
    8.1350  -14.5890   19.6965 C   0  0  0  0  0  0  0  0  0  0  0  0
    6.8979  -14.7324   19.8818 O   0  0  0  0  0  0  0  0  0  0  0  0
    8.7101  -18.1035   19.9344 C   0  0  0  0  0  0  0  0  0  0  0  0
    9.0402  -17.6246   21.3330 C   0  0  1  0  0  0  0  0  0  0  0  0
   10.4387  -17.5451   21.4163 O   0  0  0  0  0  0  0  0  0  0  0  0
    8.4671  -16.2378   21.5687 C   0  0  2  0  0  0  0  0  0  0  0  0
    8.9890  -15.3197   20.5755 N   0  0  0  0  0  0  0  0  0  0  0  0
    8.7573  -15.7764   22.9494 C   0  0  0  0  0  0  0  0  0  0  0  0
    9.6445  -14.9242   23.1191 O   0  0  0  0  0  0  0  0  0  0  0  0
    7.4670  -11.2893   27.5556 C   0  0  0  0  0  0  0  0  0  0  0  0
    6.1988  -12.3881   26.8283 S   0  0  0  0  0  0  0  0  0  0  0  0
    6.7585  -14.1123   26.8649 C   0  0  0  0  0  0  0  0  0  0  0  0
    6.8080  -14.7439   25.5104 C   0  0  0  0  0  0  0  0  0  0  0  0
    7.9972  -15.6535   25.3535 C   0  0  2  0  0  0  0  0  0  0  0  0
    8.0660  -16.2676   24.0705 N   0  0  0  0  0  0  0  0  0  0  0  0
    8.1424  -16.6665   26.3951 C   0  0  0  0  0  0  0  0  0  0  0  0
    7.7561  -17.8640   26.3081 O   0  0  0  0  0  0  0  0  0  0  0  0
    8.7498  -16.3272   27.5955 O   0  0  0  0  0  0  0  0  0  0  0  0
  2  3  1  0
  2  1  1  1
  4  2  1  0
  5  4  2  0
  7  6  1  6
  7  8  1  0
  7  9  1  0
  9 11  1  0
  9 10  1  6
 10  4  1  0
 11 18  1  0
 12 11  2  0
 13 14  1  0
 15 14  1  0
 16 15  1  0
 17 16  1  1
 18 17  1  0
 19 21  1  0
 19 17  1  0
 20 19  2  0
M  END
$$$$
