ATM.pdb
     RDKit          3D

 21 20  0  0  1  0  0  0  0  0999 V2000
    8.6142  -12.2706   19.0399 C   0  0  0  0  0  0  0  0  0  0  0  0
    8.7034  -13.6855   18.5085 C   0  0  2  0  0  0  0  0  0  0  0  0
    7.7975  -13.8081   17.3959 N   0  0  0  0  0  0  0  0  0  0  0  0
    8.4040  -14.6738   19.5799 C   0  0  0  0  0  0  0  0  0  0  0  0
    7.2163  -14.9918   19.8512 O   0  0  0  0  0  0  0  0  0  0  0  0
    9.4236  -18.1702   19.8817 C   0  0  0  0  0  0  0  0  0  0  0  0
    9.8343  -17.5494   21.2009 C   0  0  1  0  0  0  0  0  0  0  0  0
   11.2073  -17.2745   21.1112 O   0  0  0  0  0  0  0  0  0  0  0  0
    9.0976  -16.2399   21.4239 C   0  0  2  0  0  0  0  0  0  0  0  0
    9.4165  -15.3133   20.3555 N   0  0  0  0  0  0  0  0  0  0  0  0
    9.4225  -15.6739   22.7571 C   0  0  0  0  0  0  0  0  0  0  0  0
   10.4749  -15.0281   22.8902 O   0  0  0  0  0  0  0  0  0  0  0  0
    6.5970  -10.8970   27.9401 C   0  0  0  0  0  0  0  0  0  0  0  0
    6.2306  -12.0810   26.5953 S   0  0  0  0  0  0  0  0  0  0  0  0
    7.5478  -13.3201   26.4662 C   0  0  0  0  0  0  0  0  0  0  0  0
    7.4383  -14.1702   25.2409 C   0  0  0  0  0  0  0  0  0  0  0  0
    8.6241  -15.0831   25.0779 C   0  0  2  0  0  0  0  0  0  0  0  0
    8.5845  -15.8414   23.8731 N   0  0  0  0  0  0  0  0  0  0  0  0
    8.8840  -15.9673   26.2105 C   0  0  0  0  0  0  0  0  0  0  0  0
    8.7232  -17.2183   26.2122 O   0  0  0  0  0  0  0  0  0  0  0  0
    9.3472  -15.4293   27.4026 O   0  0  0  0  0  0  0  0  0  0  0  0
  2  3  1  0
  2  1  1  1
  4  2  1  0
  5  4  2  0
  7  6  1  6
  7  8  1  0
  7  9  1  0
  9 11  1  0
  9 10  1  6
 10  4  1  0
 11 18  1  0
 12 11  2  0
 13 14  1  0
 15 14  1  0
 16 15  1  0
 17 16  1  1
 18 17  1  0
 19 21  1  0
 19 17  1  0
 20 19  2  0
M  END
$$$$
