ATM.pdb
     RDKit          3D

 21 20  0  0  1  0  0  0  0  0999 V2000
    8.4122  -12.0819   19.4388 C   0  0  0  0  0  0  0  0  0  0  0  0
    8.3425  -13.5269   18.9923 C   0  0  2  0  0  0  0  0  0  0  0  0
    7.1814  -13.6857   18.1556 N   0  0  0  0  0  0  0  0  0  0  0  0
    8.3117  -14.4428   20.1647 C   0  0  0  0  0  0  0  0  0  0  0  0
    7.2442  -14.6385   20.8030 O   0  0  0  0  0  0  0  0  0  0  0  0
   10.1905  -18.3849   22.3974 C   0  0  0  0  0  0  0  0  0  0  0  0
   10.4083  -17.2275   21.4449 C   0  0  1  0  0  0  0  0  0  0  0  0
   10.2235  -17.7283   20.1472 O   0  0  0  0  0  0  0  0  0  0  0  0
    9.3783  -16.1380   21.6886 C   0  0  2  0  0  0  0  0  0  0  0  0
    9.4610  -15.1450   20.6356 N   0  0  0  0  0  0  0  0  0  0  0  0
    9.5617  -15.5317   23.0310 C   0  0  0  0  0  0  0  0  0  0  0  0
    9.9722  -14.3620   23.1059 O   0  0  0  0  0  0  0  0  0  0  0  0
    7.3809  -11.1551   26.7053 C   0  0  0  0  0  0  0  0  0  0  0  0
    6.2971  -12.5628   26.2713 S   0  0  0  0  0  0  0  0  0  0  0  0
    7.1702  -14.1330   26.5150 C   0  0  0  0  0  0  0  0  0  0  0  0
    7.6184  -14.7621   25.2347 C   0  0  0  0  0  0  0  0  0  0  0  0
    8.8024  -15.6700   25.4346 C   0  0  2  0  0  0  0  0  0  0  0  0
    9.2882  -16.2312   24.2192 N   0  0  0  0  0  0  0  0  0  0  0  0
    8.6117  -16.7256   26.4253 C   0  0  0  0  0  0  0  0  0  0  0  0
    8.0399  -17.8299   26.2148 O   0  0  0  0  0  0  0  0  0  0  0  0
    9.0830  -16.5408   27.7171 O   0  0  0  0  0  0  0  0  0  0  0  0
  2  3  1  0
  2  1  1  1
  4  2  1  0
  5  4  2  0
  7  6  1  1
  7  8  1  0
  7  9  1  0
  9 11  1  0
  9 10  1  6
 10  4  1  0
 11 18  1  0
 12 11  2  0
 13 14  1  0
 15 14  1  0
 16 15  1  0
 17 16  1  6
 18 17  1  0
 19 21  1  0
 19 17  1  0
 20 19  2  0
M  END
$$$$
