ATM.pdb
     RDKit          3D

 21 20  0  0  1  0  0  0  0  0999 V2000
    7.4978  -12.5736   18.5391 C   0  0  0  0  0  0  0  0  0  0  0  0
    8.7198  -13.2904   19.0730 C   0  0  2  0  0  0  0  0  0  0  0  0
    9.2354  -14.1411   18.0319 N   0  0  0  0  0  0  0  0  0  0  0  0
    8.3883  -14.0578   20.3040 C   0  0  0  0  0  0  0  0  0  0  0  0
    7.8159  -13.5008   21.2774 O   0  0  0  0  0  0  0  0  0  0  0  0
    7.8707  -18.1631   20.1348 C   0  0  0  0  0  0  0  0  0  0  0  0
    8.5350  -17.6747   21.4055 C   0  0  1  0  0  0  0  0  0  0  0  0
    9.9177  -17.8365   21.2298 O   0  0  0  0  0  0  0  0  0  0  0  0
    8.2495  -16.1983   21.6205 C   0  0  2  0  0  0  0  0  0  0  0  0
    8.6888  -15.4435   20.4634 N   0  0  0  0  0  0  0  0  0  0  0  0
    8.8919  -15.7146   22.8681 C   0  0  0  0  0  0  0  0  0  0  0  0
   10.0299  -15.2220   22.8005 O   0  0  0  0  0  0  0  0  0  0  0  0
    6.1782  -11.1869   26.2248 C   0  0  0  0  0  0  0  0  0  0  0  0
    6.6834  -12.2620   27.6153 S   0  0  0  0  0  0  0  0  0  0  0  0
    7.9132  -13.4747   27.0637 C   0  0  0  0  0  0  0  0  0  0  0  0
    7.5530  -14.1312   25.7694 C   0  0  0  0  0  0  0  0  0  0  0  0
    8.6265  -15.0742   25.2955 C   0  0  2  0  0  0  0  0  0  0  0  0
    8.2609  -15.7931   24.1218 N   0  0  0  0  0  0  0  0  0  0  0  0
    9.1263  -16.0007   26.3073 C   0  0  0  0  0  0  0  0  0  0  0  0
    9.6542  -15.6694   27.4038 O   0  0  0  0  0  0  0  0  0  0  0  0
    9.0326  -17.3672   26.0854 O   0  0  0  0  0  0  0  0  0  0  0  0
  2  3  1  0
  2  1  1  6
  4  2  1  0
  5  4  2  0
  7  6  1  6
  7  8  1  0
  7  9  1  0
  9 11  1  0
  9 10  1  6
 10  4  1  0
 11 18  1  0
 12 11  2  0
 13 14  1  0
 15 14  1  0
 16 15  1  0
 17 16  1  1
 18 17  1  0
 19 21  1  0
 19 17  1  0
 20 19  2  0
M  END
$$$$
