ATM.pdb
     RDKit          3D

 21 20  0  0  1  0  0  0  0  0999 V2000
    7.5499  -12.7411   18.3366 C   0  0  0  0  0  0  0  0  0  0  0  0
    8.7252  -13.3737   19.0513 C   0  0  2  0  0  0  0  0  0  0  0  0
    9.4997  -14.1081   18.0847 N   0  0  0  0  0  0  0  0  0  0  0  0
    8.2616  -14.2422   20.1671 C   0  0  0  0  0  0  0  0  0  0  0  0
    7.4160  -13.8249   21.0015 O   0  0  0  0  0  0  0  0  0  0  0  0
    8.1292  -18.3603   19.9924 C   0  0  0  0  0  0  0  0  0  0  0  0
    8.7284  -17.8239   21.2761 C   0  0  1  0  0  0  0  0  0  0  0  0
   10.1225  -17.8624   21.1215 O   0  0  0  0  0  0  0  0  0  0  0  0
    8.3107  -16.3799   21.4944 C   0  0  2  0  0  0  0  0  0  0  0  0
    8.7316  -15.5748   20.3647 N   0  0  0  0  0  0  0  0  0  0  0  0
    8.8586  -15.8615   22.7729 C   0  0  0  0  0  0  0  0  0  0  0  0
   10.0235  -15.4315   22.7915 O   0  0  0  0  0  0  0  0  0  0  0  0
    6.8181  -10.7340   28.1110 C   0  0  0  0  0  0  0  0  0  0  0  0
    6.2132  -12.0283   26.9694 S   0  0  0  0  0  0  0  0  0  0  0  0
    7.5367  -13.2085   26.5915 C   0  0  0  0  0  0  0  0  0  0  0  0
    7.2468  -14.0540   25.3928 C   0  0  0  0  0  0  0  0  0  0  0  0
    8.3610  -15.0235   25.1016 C   0  0  2  0  0  0  0  0  0  0  0  0
    8.1089  -15.8392   23.9617 N   0  0  0  0  0  0  0  0  0  0  0  0
    8.7632  -15.8599   26.2289 C   0  0  0  0  0  0  0  0  0  0  0  0
    8.4786  -17.0805   26.3708 O   0  0  0  0  0  0  0  0  0  0  0  0
    9.5218  -15.3073   27.2507 O   0  0  0  0  0  0  0  0  0  0  0  0
  2  3  1  0
  2  1  1  6
  4  2  1  0
  5  4  2  0
  7  6  1  6
  7  8  1  0
  7  9  1  0
  9 11  1  0
  9 10  1  6
 10  4  1  0
 11 18  1  0
 12 11  2  0
 13 14  1  0
 15 14  1  0
 16 15  1  0
 17 16  1  1
 18 17  1  0
 19 21  1  0
 19 17  1  0
 20 19  2  0
M  END
$$$$
