VEW.pdb
     RDKit          3D

 31 32  0  0  1  0  0  0  0  0999 V2000
    8.0769  -13.1004   21.5036 C   0  0  0  0  0  0  0  0  0  0  0  0
    7.4248  -13.8817   20.3882 C   0  0  1  0  0  0  0  0  0  0  0  0
    6.7594  -12.9896   19.3919 C   0  0  0  0  0  0  0  0  0  0  0  0
    8.3572  -14.9113   19.7848 C   0  0  2  0  0  0  0  0  0  0  0  0
    7.6700  -15.5578   18.6554 N   0  0  0  0  0  0  0  0  0  0  0  0
    8.8149  -15.9342   20.7470 C   0  0  0  0  0  0  0  0  0  0  0  0
    8.0871  -16.9455   21.0175 O   0  0  0  0  0  0  0  0  0  0  0  0
   10.0497  -15.8702   21.4155 N   0  0  0  0  0  0  0  0  0  0  0  0
   10.4841  -16.8731   22.3755 C   0  0  1  0  0  0  0  0  0  0  0  0
   11.7256  -17.5686   21.9645 C   0  0  0  0  0  0  0  0  0  0  0  0
   12.7008  -16.5963   21.3755 C   0  0  0  0  0  0  0  0  0  0  0  0
   13.9118  -17.2948   20.9227 C   0  0  0  0  0  0  0  0  0  0  0  0
   14.1051  -18.5201   21.0662 O   0  0  0  0  0  0  0  0  0  0  0  0
   10.6841  -16.2081   23.7263 C   0  0  0  0  0  0  0  0  0  0  0  0
   11.8219  -15.8220   24.0399 O   0  0  0  0  0  0  0  0  0  0  0  0
   14.9522  -16.6009   20.2824 O   0  0  0  0  0  0  0  0  0  0  0  0
    9.6178  -16.0138   24.6365 N   0  0  0  0  0  0  0  0  0  0  0  0
    9.6857  -16.3450   26.0516 C   0  0  1  0  0  0  0  0  0  0  0  0
    8.3443  -16.6663   26.6127 C   0  0  0  0  0  0  0  0  0  0  0  0
    7.3499  -15.6366   26.2676 C   0  0  0  0  0  0  0  0  0  0  0  0
    6.0576  -15.8452   25.7651 C   0  0  0  0  0  0  0  0  0  0  0  0
    5.4782  -14.6538   25.5426 N   0  0  0  0  0  0  0  0  0  0  0  0
    6.3093  -13.6522   25.8690 C   0  0  0  0  0  0  0  0  0  0  0  0
    6.1681  -12.2773   25.8367 C   0  0  0  0  0  0  0  0  0  0  0  0
    7.2020  -11.4758   26.2619 C   0  0  0  0  0  0  0  0  0  0  0  0
    8.3809  -12.0515   26.7208 C   0  0  0  0  0  0  0  0  0  0  0  0
    8.4848  -13.4184   26.7380 C   0  0  0  0  0  0  0  0  0  0  0  0
    7.4602  -14.2551   26.3151 C   0  0  0  0  0  0  0  0  0  0  0  0
   10.7693  -17.2320   26.3966 C   0  0  0  0  0  0  0  0  0  0  0  0
   11.0030  -17.3830   27.6568 O   0  0  0  0  0  0  0  0  0  0  0  0
   11.5789  -17.9388   25.5564 O   0  0  0  0  0  0  0  0  0  0  0  0
  2  1  1  1
  2  3  1  0
  4  2  1  0
  4  5  1  6
  6  4  1  0
  6  7  2  0
  8  6  1  0
  9  8  1  0
  9 10  1  6
 11 10  1  0
 12 13  2  0
 12 11  1  0
 14  9  1  0
 15 14  2  0
 16 12  1  0
 17 14  1  0
 18 19  1  6
 18 17  1  0
 20 19  1  0
 21 20  2  0
 22 23  1  0
 22 21  1  0
 23 28  2  0
 24 25  2  0
 24 23  1  0
 25 26  1  0
 26 27  2  0
 28 20  1  0
 28 27  1  0
 29 18  1  0
 30 29  2  0
 31 29  1  0
M  END
$$$$
