VEW.pdb
     RDKit          3D

 31 32  0  0  1  0  0  0  0  0999 V2000
    9.1912  -12.9881   20.9325 C   0  0  0  0  0  0  0  0  0  0  0  0
    7.9384  -13.5532   20.3074 C   0  0  1  0  0  0  0  0  0  0  0  0
    7.2958  -12.5879   19.3659 C   0  0  0  0  0  0  0  0  0  0  0  0
    8.1546  -14.9387   19.7354 C   0  0  2  0  0  0  0  0  0  0  0  0
    6.8884  -15.4031   19.1467 N   0  0  0  0  0  0  0  0  0  0  0  0
    8.6389  -15.9212   20.7262 C   0  0  0  0  0  0  0  0  0  0  0  0
    7.8492  -16.4058   21.6021 O   0  0  0  0  0  0  0  0  0  0  0  0
    9.9663  -16.3811   20.7750 N   0  0  0  0  0  0  0  0  0  0  0  0
   10.4465  -17.3099   21.7863 C   0  0  1  0  0  0  0  0  0  0  0  0
   11.7088  -17.9828   21.4016 C   0  0  0  0  0  0  0  0  0  0  0  0
   11.5142  -18.7888   20.1542 C   0  0  0  0  0  0  0  0  0  0  0  0
   12.8066  -19.2729   19.6494 C   0  0  0  0  0  0  0  0  0  0  0  0
   13.5589  -18.6079   18.9070 O   0  0  0  0  0  0  0  0  0  0  0  0
   10.6350  -16.5605   23.0938 C   0  0  0  0  0  0  0  0  0  0  0  0
   11.2189  -15.4647   23.0760 O   0  0  0  0  0  0  0  0  0  0  0  0
   13.2829  -20.5513   19.9851 O   0  0  0  0  0  0  0  0  0  0  0  0
   10.1667  -17.0690   24.3289 N   0  0  0  0  0  0  0  0  0  0  0  0
   10.3668  -16.4076   25.6092 C   0  0  1  0  0  0  0  0  0  0  0  0
    9.9901  -14.9680   25.5567 C   0  0  0  0  0  0  0  0  0  0  0  0
    8.5312  -14.7846   25.6359 C   0  0  0  0  0  0  0  0  0  0  0  0
    7.5451  -15.7618   25.4387 C   0  0  0  0  0  0  0  0  0  0  0  0
    6.3349  -15.1913   25.5593 N   0  0  0  0  0  0  0  0  0  0  0  0
    6.4509  -13.8817   25.8282 C   0  0  0  0  0  0  0  0  0  0  0  0
    5.5134  -12.8908   26.0526 C   0  0  0  0  0  0  0  0  0  0  0  0
    5.9293  -11.6103   26.3343 C   0  0  0  0  0  0  0  0  0  0  0  0
    7.2873  -11.3200   26.3917 C   0  0  0  0  0  0  0  0  0  0  0  0
    8.1879  -12.3282   26.1632 C   0  0  0  0  0  0  0  0  0  0  0  0
    7.8006  -13.6306   25.8759 C   0  0  0  0  0  0  0  0  0  0  0  0
    9.8977  -17.1663   26.7426 C   0  0  0  0  0  0  0  0  0  0  0  0
    9.4324  -18.3428   26.4877 O   0  0  0  0  0  0  0  0  0  0  0  0
    9.8882  -16.7987   28.0563 O   0  0  0  0  0  0  0  0  0  0  0  0
  2  1  1  6
  2  3  1  0
  4  2  1  0
  4  5  1  1
  6  4  1  0
  6  7  2  0
  8  6  1  0
  9  8  1  0
  9 10  1  6
 11 10  1  0
 12 13  2  0
 12 11  1  0
 14  9  1  0
 15 14  2  0
 16 12  1  0
 17 14  1  0
 18 19  1  6
 18 17  1  0
 20 19  1  0
 21 20  2  0
 22 23  1  0
 22 21  1  0
 23 28  2  0
 24 25  2  0
 24 23  1  0
 25 26  1  0
 26 27  2  0
 28 20  1  0
 28 27  1  0
 29 18  1  0
 30 29  2  0
 31 29  1  0
M  END
$$$$
