VEW.pdb
     RDKit          3D

 31 32  0  0  1  0  0  0  0  0999 V2000
    7.6116  -12.6537   19.3183 C   0  0  0  0  0  0  0  0  0  0  0  0
    8.1059  -13.5749   20.4077 C   0  0  1  0  0  0  0  0  0  0  0  0
    7.4634  -13.2834   21.7243 C   0  0  0  0  0  0  0  0  0  0  0  0
    8.0597  -15.0314   19.9953 C   0  0  2  0  0  0  0  0  0  0  0  0
    6.6616  -15.3909   19.7090 N   0  0  0  0  0  0  0  0  0  0  0  0
    8.6191  -15.9526   21.0053 C   0  0  0  0  0  0  0  0  0  0  0  0
    7.8531  -16.5857   21.8042 O   0  0  0  0  0  0  0  0  0  0  0  0
    9.9959  -16.1923   21.1557 N   0  0  0  0  0  0  0  0  0  0  0  0
   10.5335  -17.1577   22.1017 C   0  0  1  0  0  0  0  0  0  0  0  0
   11.8504  -17.6982   21.6922 C   0  0  0  0  0  0  0  0  0  0  0  0
   12.3984  -18.6032   22.7523 C   0  0  0  0  0  0  0  0  0  0  0  0
   13.6851  -19.1714   22.3270 C   0  0  0  0  0  0  0  0  0  0  0  0
   14.6654  -19.3233   23.0854 O   0  0  0  0  0  0  0  0  0  0  0  0
   10.6434  -16.5011   23.4669 C   0  0  0  0  0  0  0  0  0  0  0  0
   11.1751  -15.3820   23.5510 O   0  0  0  0  0  0  0  0  0  0  0  0
   13.8902  -19.5892   21.0013 O   0  0  0  0  0  0  0  0  0  0  0  0
   10.1594  -17.1215   24.6434 N   0  0  0  0  0  0  0  0  0  0  0  0
   10.3808  -16.6052   25.9854 C   0  0  1  0  0  0  0  0  0  0  0  0
   10.0563  -15.1553   26.0842 C   0  0  0  0  0  0  0  0  0  0  0  0
    8.6023  -14.9246   26.1166 C   0  0  0  0  0  0  0  0  0  0  0  0
    7.5913  -15.8825   25.9542 C   0  0  0  0  0  0  0  0  0  0  0  0
    6.3969  -15.2704   26.0109 N   0  0  0  0  0  0  0  0  0  0  0  0
    6.5471  -13.9510   26.2039 C   0  0  0  0  0  0  0  0  0  0  0  0
    5.6357  -12.9211   26.3457 C   0  0  0  0  0  0  0  0  0  0  0  0
    6.0844  -11.6387   26.5604 C   0  0  0  0  0  0  0  0  0  0  0  0
    7.4491  -11.3856   26.6335 C   0  0  0  0  0  0  0  0  0  0  0  0
    8.3231  -12.4318   26.4878 C   0  0  0  0  0  0  0  0  0  0  0  0
    7.9024  -13.7372   26.2693 C   0  0  0  0  0  0  0  0  0  0  0  0
    9.8825  -17.4606   27.0342 C   0  0  0  0  0  0  0  0  0  0  0  0
    9.3235  -18.5604   26.6554 O   0  0  0  0  0  0  0  0  0  0  0  0
    9.9320  -17.2565   28.3821 O   0  0  0  0  0  0  0  0  0  0  0  0
  2  1  1  6
  2  3  1  0
  4  2  1  0
  4  5  1  1
  6  4  1  0
  6  7  2  0
  8  6  1  0
  9  8  1  0
  9 10  1  6
 11 10  1  0
 12 13  2  0
 12 11  1  0
 14  9  1  0
 15 14  2  0
 16 12  1  0
 17 14  1  0
 18 19  1  6
 18 17  1  0
 20 19  1  0
 21 20  2  0
 22 23  1  0
 22 21  1  0
 23 28  2  0
 24 25  2  0
 24 23  1  0
 25 26  1  0
 26 27  2  0
 28 20  1  0
 28 27  1  0
 29 18  1  0
 30 29  2  0
 31 29  1  0
M  END
$$$$
