VEW.pdb
     RDKit          3D

 31 32  0  0  1  0  0  0  0  0999 V2000
    8.8772  -13.0542   21.6115 C   0  0  0  0  0  0  0  0  0  0  0  0
    7.7206  -13.7659   20.9516 C   0  0  1  0  0  0  0  0  0  0  0  0
    6.9152  -12.8495   20.0896 C   0  0  0  0  0  0  0  0  0  0  0  0
    8.1464  -15.0519   20.2746 C   0  0  2  0  0  0  0  0  0  0  0  0
    6.9679  -15.6513   19.6285 N   0  0  0  0  0  0  0  0  0  0  0  0
    8.7680  -16.0283   21.1921 C   0  0  0  0  0  0  0  0  0  0  0  0
    8.0484  -16.7618   21.9471 O   0  0  0  0  0  0  0  0  0  0  0  0
   10.1571  -16.2157   21.2974 N   0  0  0  0  0  0  0  0  0  0  0  0
   10.7608  -17.1688   22.2156 C   0  0  1  0  0  0  0  0  0  0  0  0
   12.1170  -17.5947   21.7992 C   0  0  0  0  0  0  0  0  0  0  0  0
   12.0648  -18.2866   20.4718 C   0  0  0  0  0  0  0  0  0  0  0  0
   13.4172  -18.6585   20.0336 C   0  0  0  0  0  0  0  0  0  0  0  0
   13.9345  -18.2733   18.9643 O   0  0  0  0  0  0  0  0  0  0  0  0
   10.8132  -16.5516   23.6024 C   0  0  0  0  0  0  0  0  0  0  0  0
   11.3412  -15.4362   23.7408 O   0  0  0  0  0  0  0  0  0  0  0  0
   14.2292  -19.4944   20.8183 O   0  0  0  0  0  0  0  0  0  0  0  0
   10.2797  -17.2046   24.7392 N   0  0  0  0  0  0  0  0  0  0  0  0
   10.4149  -16.7087   26.1003 C   0  0  1  0  0  0  0  0  0  0  0  0
   10.0865  -15.2597   26.1997 C   0  0  0  0  0  0  0  0  0  0  0  0
    8.6350  -15.0246   26.1203 C   0  0  0  0  0  0  0  0  0  0  0  0
    7.6354  -15.9817   25.8949 C   0  0  0  0  0  0  0  0  0  0  0  0
    6.4424  -15.3656   25.8543 N   0  0  0  0  0  0  0  0  0  0  0  0
    6.5827  -14.0443   26.0413 C   0  0  0  0  0  0  0  0  0  0  0  0
    5.6671  -13.0102   26.1015 C   0  0  0  0  0  0  0  0  0  0  0  0
    6.1032  -11.7263   26.3330 C   0  0  0  0  0  0  0  0  0  0  0  0
    7.4596  -11.4761   26.5047 C   0  0  0  0  0  0  0  0  0  0  0  0
    8.3381  -12.5265   26.4380 C   0  0  0  0  0  0  0  0  0  0  0  0
    7.9301  -13.8334   26.2052 C   0  0  0  0  0  0  0  0  0  0  0  0
    9.8492  -17.5785   27.1020 C   0  0  0  0  0  0  0  0  0  0  0  0
    9.1912  -18.5990   26.6648 O   0  0  0  0  0  0  0  0  0  0  0  0
    9.9262  -17.4620   28.4590 O   0  0  0  0  0  0  0  0  0  0  0  0
  2  1  1  6
  2  3  1  0
  4  2  1  0
  4  5  1  1
  6  4  1  0
  6  7  2  0
  8  6  1  0
  9  8  1  0
  9 10  1  6
 11 10  1  0
 12 13  2  0
 12 11  1  0
 14  9  1  0
 15 14  2  0
 16 12  1  0
 17 14  1  0
 18 19  1  6
 18 17  1  0
 20 19  1  0
 21 20  2  0
 22 23  1  0
 22 21  1  0
 23 28  2  0
 24 25  2  0
 24 23  1  0
 25 26  1  0
 26 27  2  0
 28 20  1  0
 28 27  1  0
 29 18  1  0
 30 29  2  0
 31 29  1  0
M  END
$$$$
