VEW.pdb
     RDKit          3D

 31 32  0  0  1  0  0  0  0  0999 V2000
    8.3786  -12.8607   21.3115 C   0  0  0  0  0  0  0  0  0  0  0  0
    7.8337  -13.3780   20.0018 C   0  0  1  0  0  0  0  0  0  0  0  0
    7.6316  -12.2832   19.0059 C   0  0  0  0  0  0  0  0  0  0  0  0
    8.6176  -14.5642   19.4803 C   0  0  2  0  0  0  0  0  0  0  0  0
    8.0144  -15.0002   18.2108 N   0  0  0  0  0  0  0  0  0  0  0  0
    8.6767  -15.6984   20.4247 C   0  0  0  0  0  0  0  0  0  0  0  0
    7.7956  -16.6194   20.3920 O   0  0  0  0  0  0  0  0  0  0  0  0
    9.6787  -15.8419   21.4000 N   0  0  0  0  0  0  0  0  0  0  0  0
    9.7660  -16.9947   22.2829 C   0  0  1  0  0  0  0  0  0  0  0  0
   10.6677  -18.0512   21.7683 C   0  0  0  0  0  0  0  0  0  0  0  0
   11.9119  -17.4453   21.1955 C   0  0  0  0  0  0  0  0  0  0  0  0
   12.8113  -18.4951   20.6971 C   0  0  0  0  0  0  0  0  0  0  0  0
   12.7326  -18.9974   19.5565 O   0  0  0  0  0  0  0  0  0  0  0  0
   10.2352  -16.5326   23.6515 C   0  0  0  0  0  0  0  0  0  0  0  0
   11.2209  -15.7807   23.7232 O   0  0  0  0  0  0  0  0  0  0  0  0
   13.8427  -19.0080   21.5014 O   0  0  0  0  0  0  0  0  0  0  0  0
    9.5861  -16.9295   24.8450 N   0  0  0  0  0  0  0  0  0  0  0  0
   10.0035  -16.5133   26.1752 C   0  0  1  0  0  0  0  0  0  0  0  0
    8.8460  -16.3615   27.0995 C   0  0  0  0  0  0  0  0  0  0  0  0
    7.7556  -15.5876   26.4827 C   0  0  0  0  0  0  0  0  0  0  0  0
    6.5929  -16.0949   25.8854 C   0  0  0  0  0  0  0  0  0  0  0  0
    5.8660  -15.0716   25.4066 N   0  0  0  0  0  0  0  0  0  0  0  0
    6.4750  -13.9008   25.6494 C   0  0  0  0  0  0  0  0  0  0  0  0
    6.1218  -12.5930   25.3738 C   0  0  0  0  0  0  0  0  0  0  0  0
    6.9477  -11.5663   25.7687 C   0  0  0  0  0  0  0  0  0  0  0  0
    8.1307  -11.8487   26.4414 C   0  0  0  0  0  0  0  0  0  0  0  0
    8.4482  -13.1577   26.6969 C   0  0  0  0  0  0  0  0  0  0  0  0
    7.6366  -14.2167   26.3111 C   0  0  0  0  0  0  0  0  0  0  0  0
   11.1550  -17.2211   26.6785 C   0  0  0  0  0  0  0  0  0  0  0  0
   11.4614  -18.3169   26.0695 O   0  0  0  0  0  0  0  0  0  0  0  0
   11.9681  -16.8751   27.7177 O   0  0  0  0  0  0  0  0  0  0  0  0
  2  1  1  1
  2  3  1  0
  4  2  1  0
  4  5  1  6
  6  4  1  0
  6  7  2  0
  8  6  1  0
  9  8  1  0
  9 10  1  6
 11 10  1  0
 12 13  2  0
 12 11  1  0
 14  9  1  0
 15 14  2  0
 16 12  1  0
 17 14  1  0
 18 19  1  1
 18 17  1  0
 20 19  1  0
 21 20  2  0
 22 23  1  0
 22 21  1  0
 23 28  2  0
 24 25  2  0
 24 23  1  0
 25 26  1  0
 26 27  2  0
 28 20  1  0
 28 27  1  0
 29 18  1  0
 30 29  2  0
 31 29  1  0
M  END
$$$$
