VEW.pdb
     RDKit          3D

 31 32  0  0  1  0  0  0  0  0999 V2000
    8.9191  -13.0804   21.1012 C   0  0  0  0  0  0  0  0  0  0  0  0
    7.6633  -13.7266   20.5671 C   0  0  1  0  0  0  0  0  0  0  0  0
    6.8952  -12.8081   19.6739 C   0  0  0  0  0  0  0  0  0  0  0  0
    7.9260  -15.0981   19.9809 C   0  0  2  0  0  0  0  0  0  0  0  0
    6.6490  -15.6551   19.5070 N   0  0  0  0  0  0  0  0  0  0  0  0
    8.5635  -16.0361   20.9272 C   0  0  0  0  0  0  0  0  0  0  0  0
    7.8615  -16.6953   21.7628 O   0  0  0  0  0  0  0  0  0  0  0  0
    9.9496  -16.2646   20.9747 N   0  0  0  0  0  0  0  0  0  0  0  0
   10.5636  -17.2273   21.8759 C   0  0  1  0  0  0  0  0  0  0  0  0
   11.8576  -17.7458   21.3751 C   0  0  0  0  0  0  0  0  0  0  0  0
   12.5140  -18.6058   22.4108 C   0  0  0  0  0  0  0  0  0  0  0  0
   13.7859  -19.1392   21.9037 C   0  0  0  0  0  0  0  0  0  0  0  0
   13.9416  -19.5938   20.7511 O   0  0  0  0  0  0  0  0  0  0  0  0
   10.7558  -16.5769   23.2350 C   0  0  0  0  0  0  0  0  0  0  0  0
   11.4806  -15.5721   23.3197 O   0  0  0  0  0  0  0  0  0  0  0  0
   14.9340  -19.1678   22.7130 O   0  0  0  0  0  0  0  0  0  0  0  0
   10.1358  -17.0770   24.4049 N   0  0  0  0  0  0  0  0  0  0  0  0
   10.3738  -16.5505   25.7402 C   0  0  1  0  0  0  0  0  0  0  0  0
   10.0488  -15.1003   25.8325 C   0  0  0  0  0  0  0  0  0  0  0  0
    8.5948  -14.8676   25.8266 C   0  0  0  0  0  0  0  0  0  0  0  0
    7.5862  -15.8289   25.6698 C   0  0  0  0  0  0  0  0  0  0  0  0
    6.3917  -15.2145   25.6829 N   0  0  0  0  0  0  0  0  0  0  0  0
    6.5396  -13.8902   25.8411 C   0  0  0  0  0  0  0  0  0  0  0  0
    5.6268  -12.8559   25.9334 C   0  0  0  0  0  0  0  0  0  0  0  0
    6.0726  -11.5682   26.1208 C   0  0  0  0  0  0  0  0  0  0  0  0
    7.4358  -11.3142   26.2163 C   0  0  0  0  0  0  0  0  0  0  0  0
    8.3112  -12.3649   26.1197 C   0  0  0  0  0  0  0  0  0  0  0  0
    7.8935  -13.6757   25.9298 C   0  0  0  0  0  0  0  0  0  0  0  0
    9.8901  -17.3988   26.8015 C   0  0  0  0  0  0  0  0  0  0  0  0
    9.2386  -18.4517   26.4376 O   0  0  0  0  0  0  0  0  0  0  0  0
   10.0391  -17.2317   28.1472 O   0  0  0  0  0  0  0  0  0  0  0  0
  2  1  1  6
  2  3  1  0
  4  2  1  0
  4  5  1  1
  6  4  1  0
  6  7  2  0
  8  6  1  0
  9  8  1  0
  9 10  1  6
 11 10  1  0
 12 13  2  0
 12 11  1  0
 14  9  1  0
 15 14  2  0
 16 12  1  0
 17 14  1  0
 18 19  1  6
 18 17  1  0
 20 19  1  0
 21 20  2  0
 22 23  1  0
 22 21  1  0
 23 28  2  0
 24 25  2  0
 24 23  1  0
 25 26  1  0
 26 27  2  0
 28 20  1  0
 28 27  1  0
 29 18  1  0
 30 29  2  0
 31 29  1  0
M  END
$$$$
