VEW.pdb
     RDKit          3D

 31 32  0  0  1  0  0  0  0  0999 V2000
    8.5885  -12.9651   21.4648 C   0  0  0  0  0  0  0  0  0  0  0  0
    7.4365  -13.6820   20.8025 C   0  0  1  0  0  0  0  0  0  0  0  0
    6.6998  -12.7998   19.8483 C   0  0  0  0  0  0  0  0  0  0  0  0
    7.8456  -15.0229   20.2296 C   0  0  2  0  0  0  0  0  0  0  0  0
    6.6630  -15.6488   19.6170 N   0  0  0  0  0  0  0  0  0  0  0  0
    8.4397  -15.9377   21.2255 C   0  0  0  0  0  0  0  0  0  0  0  0
    7.7239  -16.8140   21.8132 O   0  0  0  0  0  0  0  0  0  0  0  0
    9.7976  -15.9109   21.5879 N   0  0  0  0  0  0  0  0  0  0  0  0
   10.4181  -16.9358   22.4128 C   0  0  1  0  0  0  0  0  0  0  0  0
   11.6633  -17.4788   21.8224 C   0  0  0  0  0  0  0  0  0  0  0  0
   12.3343  -18.4132   22.7816 C   0  0  0  0  0  0  0  0  0  0  0  0
   13.5624  -18.9615   22.1895 C   0  0  0  0  0  0  0  0  0  0  0  0
   14.7128  -18.6866   22.5898 O   0  0  0  0  0  0  0  0  0  0  0  0
   10.7047  -16.3557   23.7869 C   0  0  0  0  0  0  0  0  0  0  0  0
   11.7258  -15.6668   23.9438 O   0  0  0  0  0  0  0  0  0  0  0  0
   13.5086  -19.8543   21.1061 O   0  0  0  0  0  0  0  0  0  0  0  0
    9.8469  -16.5735   24.8914 N   0  0  0  0  0  0  0  0  0  0  0  0
   10.2943  -16.6028   26.2755 C   0  0  1  0  0  0  0  0  0  0  0  0
    9.7542  -15.4577   27.0592 C   0  0  0  0  0  0  0  0  0  0  0  0
    8.4556  -15.0039   26.5340 C   0  0  0  0  0  0  0  0  0  0  0  0
    7.4267  -15.8047   26.0179 C   0  0  0  0  0  0  0  0  0  0  0  0
    6.4222  -15.0134   25.6066 N   0  0  0  0  0  0  0  0  0  0  0  0
    6.7170  -13.7215   25.8181 C   0  0  0  0  0  0  0  0  0  0  0  0
    6.0118  -12.5554   25.5853 C   0  0  0  0  0  0  0  0  0  0  0  0
    6.5646  -11.3441   25.9307 C   0  0  0  0  0  0  0  0  0  0  0  0
    7.8268  -11.2991   26.5109 C   0  0  0  0  0  0  0  0  0  0  0  0
    8.4965  -12.4759   26.7263 C   0  0  0  0  0  0  0  0  0  0  0  0
    7.9667  -13.7144   26.3885 C   0  0  0  0  0  0  0  0  0  0  0  0
   10.2248  -17.9065   26.8885 C   0  0  0  0  0  0  0  0  0  0  0  0
    9.7750  -17.9446   28.0975 O   0  0  0  0  0  0  0  0  0  0  0  0
   10.5707  -19.1104   26.3483 O   0  0  0  0  0  0  0  0  0  0  0  0
  2  1  1  6
  2  3  1  0
  4  2  1  0
  4  5  1  1
  6  4  1  0
  6  7  2  0
  8  6  1  0
  9  8  1  0
  9 10  1  6
 11 10  1  0
 12 13  2  0
 12 11  1  0
 14  9  1  0
 15 14  2  0
 16 12  1  0
 17 14  1  0
 18 19  1  1
 18 17  1  0
 20 19  1  0
 21 20  2  0
 22 23  1  0
 22 21  1  0
 23 28  2  0
 24 25  2  0
 24 23  1  0
 25 26  1  0
 26 27  2  0
 28 20  1  0
 28 27  1  0
 29 18  1  0
 30 29  2  0
 31 29  1  0
M  END
$$$$
