VEW.pdb
     RDKit          3D

 31 32  0  0  1  0  0  0  0  0999 V2000
    8.2509  -12.8784   21.4559 C   0  0  0  0  0  0  0  0  0  0  0  0
    7.3632  -13.7794   20.6314 C   0  0  1  0  0  0  0  0  0  0  0  0
    6.6332  -13.0275   19.5669 C   0  0  0  0  0  0  0  0  0  0  0  0
    8.0916  -15.0134   20.1412 C   0  0  2  0  0  0  0  0  0  0  0  0
    7.1866  -15.7708   19.2621 N   0  0  0  0  0  0  0  0  0  0  0  0
    8.5822  -15.8845   21.2285 C   0  0  0  0  0  0  0  0  0  0  0  0
    7.7902  -16.6806   21.8325 O   0  0  0  0  0  0  0  0  0  0  0  0
    9.9184  -15.8999   21.6645 N   0  0  0  0  0  0  0  0  0  0  0  0
   10.4440  -16.9071   22.5730 C   0  0  1  0  0  0  0  0  0  0  0  0
   11.8499  -17.2717   22.2825 C   0  0  0  0  0  0  0  0  0  0  0  0
   12.3153  -18.3489   23.2133 C   0  0  0  0  0  0  0  0  0  0  0  0
   13.7007  -18.7300   22.9053 C   0  0  0  0  0  0  0  0  0  0  0  0
   14.1714  -19.8693   23.1042 O   0  0  0  0  0  0  0  0  0  0  0  0
   10.3238  -16.3959   23.9982 C   0  0  0  0  0  0  0  0  0  0  0  0
   10.7361  -15.2543   24.2605 O   0  0  0  0  0  0  0  0  0  0  0  0
   14.6011  -17.8043   22.3519 O   0  0  0  0  0  0  0  0  0  0  0  0
    9.7573  -17.1764   25.0341 N   0  0  0  0  0  0  0  0  0  0  0  0
    9.8429  -16.8386   26.4467 C   0  0  1  0  0  0  0  0  0  0  0  0
    8.5030  -16.8170   27.0958 C   0  0  0  0  0  0  0  0  0  0  0  0
    7.6182  -15.8121   26.4830 C   0  0  0  0  0  0  0  0  0  0  0  0
    6.5779  -16.0457   25.5724 C   0  0  0  0  0  0  0  0  0  0  0  0
    6.0344  -14.8690   25.2193 N   0  0  0  0  0  0  0  0  0  0  0  0
    6.6512  -13.8537   25.8433 C   0  0  0  0  0  0  0  0  0  0  0  0
    6.4473  -12.4865   25.8223 C   0  0  0  0  0  0  0  0  0  0  0  0
    7.2344  -11.6680   26.5985 C   0  0  0  0  0  0  0  0  0  0  0  0
    8.2288  -12.2189   27.3984 C   0  0  0  0  0  0  0  0  0  0  0  0
    8.4020  -13.5789   27.3931 C   0  0  0  0  0  0  0  0  0  0  0  0
    7.6248  -14.4322   26.6207 C   0  0  0  0  0  0  0  0  0  0  0  0
   10.9009  -17.5202   27.1512 C   0  0  0  0  0  0  0  0  0  0  0  0
   11.5318  -18.4309   26.4894 O   0  0  0  0  0  0  0  0  0  0  0  0
   11.3247  -17.3200   28.4323 O   0  0  0  0  0  0  0  0  0  0  0  0
  2  1  1  6
  2  3  1  0
  4  2  1  0
  4  5  1  6
  6  4  1  0
  6  7  2  0
  8  6  1  0
  9  8  1  0
  9 10  1  6
 11 10  1  0
 12 13  2  0
 12 11  1  0
 14  9  1  0
 15 14  2  0
 16 12  1  0
 17 14  1  0
 18 19  1  1
 18 17  1  0
 20 19  1  0
 21 20  2  0
 22 23  1  0
 22 21  1  0
 23 28  2  0
 24 25  2  0
 24 23  1  0
 25 26  1  0
 26 27  2  0
 28 20  1  0
 28 27  1  0
 29 18  1  0
 30 29  2  0
 31 29  1  0
M  END
$$$$
