VEW.pdb
     RDKit          3D

 31 32  0  0  1  0  0  0  0  0999 V2000
    6.7378  -13.5154   20.4883 C   0  0  0  0  0  0  0  0  0  0  0  0
    7.9982  -13.7197   19.6825 C   0  0  1  0  0  0  0  0  0  0  0  0
    8.1591  -12.6834   18.6187 C   0  0  0  0  0  0  0  0  0  0  0  0
    9.2175  -13.9134   20.5597 C   0  0  2  0  0  0  0  0  0  0  0  0
   10.3873  -14.1249   19.6923 N   0  0  0  0  0  0  0  0  0  0  0  0
    9.0902  -15.0332   21.5144 C   0  0  0  0  0  0  0  0  0  0  0  0
    8.1333  -15.0654   22.3565 O   0  0  0  0  0  0  0  0  0  0  0  0
    9.9875  -16.1141   21.5634 N   0  0  0  0  0  0  0  0  0  0  0  0
    9.8803  -17.1896   22.5369 C   0  0  1  0  0  0  0  0  0  0  0  0
   10.7730  -18.3330   22.2372 C   0  0  0  0  0  0  0  0  0  0  0  0
   11.3760  -18.1841   20.8744 C   0  0  0  0  0  0  0  0  0  0  0  0
   12.5214  -19.0914   20.7182 C   0  0  0  0  0  0  0  0  0  0  0  0
   12.9293  -19.8603   21.6136 O   0  0  0  0  0  0  0  0  0  0  0  0
   10.1895  -16.6371   23.9175 C   0  0  0  0  0  0  0  0  0  0  0  0
   11.0324  -15.7315   24.0240 O   0  0  0  0  0  0  0  0  0  0  0  0
   13.2438  -19.1463   19.5145 O   0  0  0  0  0  0  0  0  0  0  0  0
    9.5486  -17.1193   25.0837 N   0  0  0  0  0  0  0  0  0  0  0  0
    9.8784  -16.6838   26.4322 C   0  0  1  0  0  0  0  0  0  0  0  0
    8.6602  -16.4689   27.2610 C   0  0  0  0  0  0  0  0  0  0  0  0
    7.6509  -15.6692   26.5469 C   0  0  0  0  0  0  0  0  0  0  0  0
    6.6097  -16.1489   25.7395 C   0  0  0  0  0  0  0  0  0  0  0  0
    5.9304  -15.1046   25.2370 N   0  0  0  0  0  0  0  0  0  0  0  0
    6.4563  -13.9457   25.6625 C   0  0  0  0  0  0  0  0  0  0  0  0
    6.1057  -12.6271   25.4400 C   0  0  0  0  0  0  0  0  0  0  0  0
    6.8276  -11.6199   26.0372 C   0  0  0  0  0  0  0  0  0  0  0  0
    7.9035  -11.9329   26.8596 C   0  0  0  0  0  0  0  0  0  0  0  0
    8.2218  -13.2517   27.0566 C   0  0  0  0  0  0  0  0  0  0  0  0
    7.5138  -14.2915   26.4680 C   0  0  0  0  0  0  0  0  0  0  0  0
   10.9618  -17.4177   27.0386 C   0  0  0  0  0  0  0  0  0  0  0  0
   11.3519  -18.4777   26.4143 O   0  0  0  0  0  0  0  0  0  0  0  0
   11.6332  -17.1295   28.1906 O   0  0  0  0  0  0  0  0  0  0  0  0
  2  1  1  1
  2  3  1  0
  4  2  1  0
  4  5  1  6
  6  4  1  0
  6  7  2  0
  8  6  1  0
  9  8  1  0
  9 10  1  6
 11 10  1  0
 12 13  2  0
 12 11  1  0
 14  9  1  0
 15 14  2  0
 16 12  1  0
 17 14  1  0
 18 19  1  1
 18 17  1  0
 20 19  1  0
 21 20  2  0
 22 23  1  0
 22 21  1  0
 23 28  2  0
 24 25  2  0
 24 23  1  0
 25 26  1  0
 26 27  2  0
 28 20  1  0
 28 27  1  0
 29 18  1  0
 30 29  2  0
 31 29  1  0
M  END
$$$$
