VEW.pdb
     RDKit          3D

 31 32  0  0  1  0  0  0  0  0999 V2000
    7.5212  -12.6330   19.4049 C   0  0  0  0  0  0  0  0  0  0  0  0
    8.1345  -13.5205   20.4613 C   0  0  1  0  0  0  0  0  0  0  0  0
    7.6408  -13.1869   21.8311 C   0  0  0  0  0  0  0  0  0  0  0  0
    8.0456  -14.9891   20.1022 C   0  0  2  0  0  0  0  0  0  0  0  0
    6.6253  -15.3541   19.9797 N   0  0  0  0  0  0  0  0  0  0  0  0
    8.7117  -15.8794   21.0745 C   0  0  0  0  0  0  0  0  0  0  0  0
    8.0663  -16.3645   22.0614 O   0  0  0  0  0  0  0  0  0  0  0  0
   10.0655  -16.2469   20.9861 N   0  0  0  0  0  0  0  0  0  0  0  0
   10.6924  -17.1886   21.9006 C   0  0  1  0  0  0  0  0  0  0  0  0
   12.0319  -17.6304   21.4484 C   0  0  0  0  0  0  0  0  0  0  0  0
   12.6316  -18.5820   22.4373 C   0  0  0  0  0  0  0  0  0  0  0  0
   13.9286  -19.0751   21.9534 C   0  0  0  0  0  0  0  0  0  0  0  0
   14.3697  -20.2203   22.1844 O   0  0  0  0  0  0  0  0  0  0  0  0
   10.7928  -16.5487   23.2744 C   0  0  0  0  0  0  0  0  0  0  0  0
   11.3737  -15.4567   23.3842 O   0  0  0  0  0  0  0  0  0  0  0  0
   14.7708  -18.2599   21.1789 O   0  0  0  0  0  0  0  0  0  0  0  0
   10.2459  -17.1549   24.4305 N   0  0  0  0  0  0  0  0  0  0  0  0
   10.4027  -16.6271   25.7773 C   0  0  1  0  0  0  0  0  0  0  0  0
   10.1582  -15.1593   25.8315 C   0  0  0  0  0  0  0  0  0  0  0  0
    8.7190  -14.8479   25.8408 C   0  0  0  0  0  0  0  0  0  0  0  0
    7.6623  -15.7299   25.5737 C   0  0  0  0  0  0  0  0  0  0  0  0
    6.5025  -15.0559   25.6450 N   0  0  0  0  0  0  0  0  0  0  0  0
    6.7193  -13.7665   25.9468 C   0  0  0  0  0  0  0  0  0  0  0  0
    5.8624  -12.6997   26.1442 C   0  0  0  0  0  0  0  0  0  0  0  0
    6.3744  -11.4662   26.4732 C   0  0  0  0  0  0  0  0  0  0  0  0
    7.7479  -11.2991   26.6051 C   0  0  0  0  0  0  0  0  0  0  0  0
    8.5667  -12.3797   26.4014 C   0  0  0  0  0  0  0  0  0  0  0  0
    8.0815  -13.6375   26.0677 C   0  0  0  0  0  0  0  0  0  0  0  0
    9.7825  -17.4325   26.8004 C   0  0  0  0  0  0  0  0  0  0  0  0
   10.0026  -17.0731   28.0202 O   0  0  0  0  0  0  0  0  0  0  0  0
    8.9848  -18.5277   26.6417 O   0  0  0  0  0  0  0  0  0  0  0  0
  2  1  1  6
  2  3  1  0
  4  2  1  0
  4  5  1  1
  6  4  1  0
  6  7  2  0
  8  6  1  0
  9  8  1  0
  9 10  1  6
 11 10  1  0
 12 13  2  0
 12 11  1  0
 14  9  1  0
 15 14  2  0
 16 12  1  0
 17 14  1  0
 18 19  1  6
 18 17  1  0
 20 19  1  0
 21 20  2  0
 22 23  1  0
 22 21  1  0
 23 28  2  0
 24 25  2  0
 24 23  1  0
 25 26  1  0
 26 27  2  0
 28 20  1  0
 28 27  1  0
 29 18  1  0
 30 29  2  0
 31 29  1  0
M  END
$$$$
