VEW.pdb
     RDKit          3D

 31 32  0  0  1  0  0  0  0  0999 V2000
    7.5247  -12.4661   19.1272 C   0  0  0  0  0  0  0  0  0  0  0  0
    7.8559  -13.4102   20.2580 C   0  0  1  0  0  0  0  0  0  0  0  0
    6.8598  -13.3283   21.3682 C   0  0  0  0  0  0  0  0  0  0  0  0
    8.1383  -14.8160   19.7705 C   0  0  2  0  0  0  0  0  0  0  0  0
    6.9231  -15.3393   19.1263 N   0  0  0  0  0  0  0  0  0  0  0  0
    8.5784  -15.7373   20.8377 C   0  0  0  0  0  0  0  0  0  0  0  0
    7.7365  -16.4726   21.4512 O   0  0  0  0  0  0  0  0  0  0  0  0
    9.9178  -15.8680   21.2435 N   0  0  0  0  0  0  0  0  0  0  0  0
   10.3786  -16.9287   22.1259 C   0  0  1  0  0  0  0  0  0  0  0  0
   11.7524  -17.3860   21.8132 C   0  0  0  0  0  0  0  0  0  0  0  0
   12.1480  -18.5134   22.7165 C   0  0  0  0  0  0  0  0  0  0  0  0
   13.5094  -18.9688   22.4026 C   0  0  0  0  0  0  0  0  0  0  0  0
   14.1831  -19.7157   23.1427 O   0  0  0  0  0  0  0  0  0  0  0  0
   10.3082  -16.4402   23.5623 C   0  0  0  0  0  0  0  0  0  0  0  0
   10.7166  -15.2975   23.8258 O   0  0  0  0  0  0  0  0  0  0  0  0
   14.1489  -18.5769   21.2146 O   0  0  0  0  0  0  0  0  0  0  0  0
    9.7920  -17.2429   24.6075 N   0  0  0  0  0  0  0  0  0  0  0  0
    9.9266  -16.9238   26.0206 C   0  0  1  0  0  0  0  0  0  0  0  0
    8.6150  -16.9535   26.7250 C   0  0  0  0  0  0  0  0  0  0  0  0
    7.7270  -15.8721   26.2664 C   0  0  0  0  0  0  0  0  0  0  0  0
    6.6159  -15.9935   25.4198 C   0  0  0  0  0  0  0  0  0  0  0  0
    6.0931  -14.7743   25.2081 N   0  0  0  0  0  0  0  0  0  0  0  0
    6.7909  -13.8365   25.8671 C   0  0  0  0  0  0  0  0  0  0  0  0
    6.6376  -12.4669   25.9760 C   0  0  0  0  0  0  0  0  0  0  0  0
    7.5087  -11.7435   26.7570 C   0  0  0  0  0  0  0  0  0  0  0  0
    8.5365  -12.3923   27.4313 C   0  0  0  0  0  0  0  0  0  0  0  0
    8.6575  -13.7515   27.2993 C   0  0  0  0  0  0  0  0  0  0  0  0
    7.7954  -14.5102   26.5183 C   0  0  0  0  0  0  0  0  0  0  0  0
   11.0334  -17.5826   26.6695 C   0  0  0  0  0  0  0  0  0  0  0  0
   11.6615  -18.4655   25.9684 O   0  0  0  0  0  0  0  0  0  0  0  0
   11.5061  -17.3863   27.9339 O   0  0  0  0  0  0  0  0  0  0  0  0
  2  1  1  6
  2  3  1  0
  4  2  1  0
  4  5  1  1
  6  4  1  0
  6  7  2  0
  8  6  1  0
  9  8  1  0
  9 10  1  6
 11 10  1  0
 12 13  2  0
 12 11  1  0
 14  9  1  0
 15 14  2  0
 16 12  1  0
 17 14  1  0
 18 19  1  1
 18 17  1  0
 20 19  1  0
 21 20  2  0
 22 23  1  0
 22 21  1  0
 23 28  2  0
 24 25  2  0
 24 23  1  0
 25 26  1  0
 26 27  2  0
 28 20  1  0
 28 27  1  0
 29 18  1  0
 30 29  2  0
 31 29  1  0
M  END
$$$$
