AYC.pdb
     RDKit          3D

 24 24  0  0  1  0  0  0  0  0999 V2000
   27.3005  -22.1094  -17.6446 C   0  0  0  0  0  0  0  0  0  0  0  0
   26.7812  -20.7563  -17.2084 C   0  0  2  0  0  0  0  0  0  0  0  0
   27.5687  -20.2168  -16.1219 N   0  0  0  0  0  0  0  0  0  0  0  0
   25.3665  -20.8006  -16.8276 C   0  0  0  0  0  0  0  0  0  0  0  0
   24.4739  -21.3906  -17.5021 O   0  0  0  0  0  0  0  0  0  0  0  0
   23.3410  -26.3362  -13.5433 O   0  0  0  0  0  0  0  0  0  0  0  0
   23.3542  -24.9356  -13.6149 C   0  0  0  0  0  0  0  0  0  0  0  0
   24.5280  -24.2211  -13.5024 C   0  0  0  0  0  0  0  0  0  0  0  0
   24.5403  -22.8446  -13.5729 C   0  0  0  0  0  0  0  0  0  0  0  0
   23.3851  -22.1138  -13.7587 C   0  0  0  0  0  0  0  0  0  0  0  0
   23.4415  -20.6487  -13.8282 C   0  0  0  0  0  0  0  0  0  0  0  0
   23.5305  -20.1305  -15.2473 C   0  0  2  0  0  0  0  0  0  0  0  0
   24.9270  -20.1549  -15.6361 N   0  0  0  0  0  0  0  0  0  0  0  0
   23.0088  -18.7238  -15.2778 C   0  0  0  0  0  0  0  0  0  0  0  0
   23.6155  -17.7907  -14.6956 O   0  0  0  0  0  0  0  0  0  0  0  0
   22.2102  -22.8280  -13.8713 C   0  0  0  0  0  0  0  0  0  0  0  0
   22.1909  -24.2192  -13.8009 C   0  0  0  0  0  0  0  0  0  0  0  0
   21.8187  -18.4452  -15.9711 N   0  0  0  0  0  0  0  0  0  0  0  0
   21.2162  -17.1448  -16.0758 C   0  0  1  0  0  0  0  0  0  0  0  0
   21.0999  -16.6856  -17.5113 C   0  0  0  0  0  0  0  0  0  0  0  0
   22.7547  -16.9129  -18.2617 S   0  0  0  0  0  0  0  0  0  0  0  0
   19.9270  -17.0570  -15.3489 C   0  0  0  0  0  0  0  0  0  0  0  0
   19.3126  -15.8187  -15.2479 O   0  0  0  0  0  0  0  0  0  0  0  0
   19.3458  -18.0327  -14.8128 O   0  0  0  0  0  0  0  0  0  0  0  0
  2  1  1  1
  2  4  1  0
  2  3  1  0
  4  5  2  0
  7  6  1  0
  7 17  2  0
  8  7  1  0
  9  8  2  0
  9 10  1  0
 10 16  2  0
 11 10  1  0
 12 11  1  1
 13 12  1  0
 13  4  1  0
 14 12  1  0
 14 15  2  0
 16 17  1  0
 18 14  1  0
 19 18  1  0
 19 22  1  0
 20 21  1  0
 19 20  1  6
 22 24  2  0
 22 23  1  0
M  END
$$$$
