AYC.pdb
     RDKit          3D

 24 24  0  0  1  0  0  0  0  0999 V2000
   20.4618  -24.3650  -18.4080 C   0  0  0  0  0  0  0  0  0  0  0  0
   19.6181  -24.6329  -17.1803 C   0  0  2  0  0  0  0  0  0  0  0  0
   18.6043  -25.6292  -17.4469 N   0  0  0  0  0  0  0  0  0  0  0  0
   18.9961  -23.4132  -16.6568 C   0  0  0  0  0  0  0  0  0  0  0  0
   17.8926  -22.9527  -17.0691 O   0  0  0  0  0  0  0  0  0  0  0  0
   16.0064  -24.7373  -10.5423 O   0  0  0  0  0  0  0  0  0  0  0  0
   16.8329  -23.8971  -11.3025 C   0  0  0  0  0  0  0  0  0  0  0  0
   17.9913  -24.3647  -11.8861 C   0  0  0  0  0  0  0  0  0  0  0  0
   18.8032  -23.5385  -12.6331 C   0  0  0  0  0  0  0  0  0  0  0  0
   18.5009  -22.2077  -12.8349 C   0  0  0  0  0  0  0  0  0  0  0  0
   19.3924  -21.3615  -13.6373 C   0  0  0  0  0  0  0  0  0  0  0  0
   19.0897  -21.4276  -15.1186 C   0  0  2  0  0  0  0  0  0  0  0  0
   19.6373  -22.6718  -15.6228 N   0  0  0  0  0  0  0  0  0  0  0  0
   19.7471  -20.2605  -15.7950 C   0  0  0  0  0  0  0  0  0  0  0  0
   20.9279  -20.3323  -16.2175 O   0  0  0  0  0  0  0  0  0  0  0  0
   17.3420  -21.7391  -12.2513 C   0  0  0  0  0  0  0  0  0  0  0  0
   16.5172  -22.5688  -11.4952 C   0  0  0  0  0  0  0  0  0  0  0  0
   19.0281  -19.0644  -15.9588 N   0  0  0  0  0  0  0  0  0  0  0  0
   19.4596  -17.9514  -16.7587 C   0  0  1  0  0  0  0  0  0  0  0  0
   19.8626  -18.3749  -18.1527 C   0  0  0  0  0  0  0  0  0  0  0  0
   21.2239  -17.2592  -18.6579 S   0  0  0  0  0  0  0  0  0  0  0  0
   18.4740  -16.8438  -16.7681 C   0  0  0  0  0  0  0  0  0  0  0  0
   18.9431  -15.5479  -16.9152 O   0  0  0  0  0  0  0  0  0  0  0  0
   17.2329  -16.9963  -16.6514 O   0  0  0  0  0  0  0  0  0  0  0  0
  2  1  1  6
  2  4  1  0
  2  3  1  0
  4  5  2  0
  7  6  1  0
  7 17  2  0
  8  7  1  0
  9  8  2  0
  9 10  1  0
 10 16  2  0
 11 10  1  0
 12 11  1  1
 13 12  1  0
 13  4  1  0
 14 12  1  0
 14 15  2  0
 16 17  1  0
 18 14  1  0
 19 18  1  0
 19 22  1  0
 20 21  1  0
 19 20  1  6
 22 24  2  0
 22 23  1  0
M  END
$$$$
