AYC.pdb
     RDKit          3D

 24 24  0  0  1  0  0  0  0  0999 V2000
   21.4463   -4.8941  -19.9397 C   0  0  0  0  0  0  0  0  0  0  0  0
   22.1008   -5.4530  -18.6946 C   0  0  2  0  0  0  0  0  0  0  0  0
   22.2216   -6.8924  -18.7657 N   0  0  0  0  0  0  0  0  0  0  0  0
   21.3876   -5.0701  -17.4726 C   0  0  0  0  0  0  0  0  0  0  0  0
   20.2373   -5.4971  -17.1655 O   0  0  0  0  0  0  0  0  0  0  0  0
   22.0676   -9.8353  -12.9595 O   0  0  0  0  0  0  0  0  0  0  0  0
   22.1277   -8.4657  -13.2557 C   0  0  0  0  0  0  0  0  0  0  0  0
   23.1309   -7.9443  -14.0448 C   0  0  0  0  0  0  0  0  0  0  0  0
   23.1895   -6.5982  -14.3355 C   0  0  0  0  0  0  0  0  0  0  0  0
   22.2526   -5.7071  -13.8547 C   0  0  0  0  0  0  0  0  0  0  0  0
   22.3510   -4.2810  -14.1878 C   0  0  0  0  0  0  0  0  0  0  0  0
   21.3787   -3.8614  -15.2689 C   0  0  2  0  0  0  0  0  0  0  0  0
   21.9877   -4.1667  -16.5487 N   0  0  0  0  0  0  0  0  0  0  0  0
   21.1365   -2.3852  -15.1495 C   0  0  0  0  0  0  0  0  0  0  0  0
   22.0595   -1.5554  -15.3426 O   0  0  0  0  0  0  0  0  0  0  0  0
   21.2485   -6.2281  -13.0650 C   0  0  0  0  0  0  0  0  0  0  0  0
   21.1835   -7.5875  -12.7675 C   0  0  0  0  0  0  0  0  0  0  0  0
   19.8525   -1.9224  -14.8153 N   0  0  0  0  0  0  0  0  0  0  0  0
   19.4843   -0.5382  -14.6997 C   0  0  1  0  0  0  0  0  0  0  0  0
   18.5252   -0.1119  -15.7875 C   0  0  0  0  0  0  0  0  0  0  0  0
   18.1409    1.6511  -15.4751 S   0  0  0  0  0  0  0  0  0  0  0  0
   18.9902   -0.1941  -13.3448 C   0  0  0  0  0  0  0  0  0  0  0  0
   19.4329    0.9836  -12.7634 O   0  0  0  0  0  0  0  0  0  0  0  0
   18.1919   -0.8992  -12.6795 O   0  0  0  0  0  0  0  0  0  0  0  0
  2  1  1  6
  2  4  1  0
  2  3  1  0
  4  5  2  0
  7  6  1  0
  7 17  2  0
  8  7  1  0
  9  8  2  0
  9 10  1  0
 10 16  2  0
 11 10  1  0
 12 11  1  1
 13 12  1  0
 13  4  1  0
 14 12  1  0
 14 15  2  0
 16 17  1  0
 18 14  1  0
 19 18  1  0
 19 22  1  0
 20 21  1  0
 19 20  1  6
 22 24  2  0
 22 23  1  0
M  END
$$$$
