AYC.pdb
     RDKit          3D

 24 24  0  0  1  0  0  0  0  0999 V2000
   22.4816  -19.9580   -8.9942 C   0  0  0  0  0  0  0  0  0  0  0  0
   21.3198  -20.2111   -9.9307 C   0  0  2  0  0  0  0  0  0  0  0  0
   20.4800  -21.2848   -9.4475 N   0  0  0  0  0  0  0  0  0  0  0  0
   21.7612  -20.4974  -11.2988 C   0  0  0  0  0  0  0  0  0  0  0  0
   21.9301  -21.6652  -11.7543 O   0  0  0  0  0  0  0  0  0  0  0  0
   16.2126  -19.1062  -15.2142 O   0  0  0  0  0  0  0  0  0  0  0  0
   17.5967  -18.9799  -15.0262 C   0  0  0  0  0  0  0  0  0  0  0  0
   18.1227  -18.0360  -14.1698 C   0  0  0  0  0  0  0  0  0  0  0  0
   19.4830  -17.9124  -13.9855 C   0  0  0  0  0  0  0  0  0  0  0  0
   20.3846  -18.7221  -14.6448 C   0  0  0  0  0  0  0  0  0  0  0  0
   21.8258  -18.5578  -14.4204 C   0  0  0  0  0  0  0  0  0  0  0  0
   22.4195  -19.6656  -13.5774 C   0  0  2  0  0  0  0  0  0  0  0  0
   22.0270  -19.4282  -12.2020 N   0  0  0  0  0  0  0  0  0  0  0  0
   23.9139  -19.6173  -13.7053 C   0  0  0  0  0  0  0  0  0  0  0  0
   24.5797  -18.6703  -13.2177 O   0  0  0  0  0  0  0  0  0  0  0  0
   19.8591  -19.6667  -15.5019 C   0  0  0  0  0  0  0  0  0  0  0  0
   18.4853  -19.7969  -15.6926 C   0  0  0  0  0  0  0  0  0  0  0  0
   24.5812  -20.6513  -14.3836 N   0  0  0  0  0  0  0  0  0  0  0  0
   26.0091  -20.7845  -14.4741 C   0  0  1  0  0  0  0  0  0  0  0  0
   26.6639  -20.8287  -13.1124 C   0  0  0  0  0  0  0  0  0  0  0  0
   26.0789  -22.3662  -12.3080 S   0  0  0  0  0  0  0  0  0  0  0  0
   26.4193  -21.9200  -15.3348 C   0  0  0  0  0  0  0  0  0  0  0  0
   27.7677  -22.0805  -15.6123 O   0  0  0  0  0  0  0  0  0  0  0  0
   25.6258  -22.7548  -15.8353 O   0  0  0  0  0  0  0  0  0  0  0  0
  2  1  1  1
  2  4  1  0
  2  3  1  0
  4  5  2  0
  7  6  1  0
  7 17  2  0
  8  7  1  0
  9  8  2  0
  9 10  1  0
 10 16  2  0
 11 10  1  0
 12 11  1  6
 13 12  1  0
 13  4  1  0
 14 12  1  0
 14 15  2  0
 16 17  1  0
 18 14  1  0
 19 18  1  0
 19 22  1  0
 20 21  1  0
 19 20  1  1
 22 24  2  0
 22 23  1  0
M  END
$$$$
