AYC.pdb
     RDKit          3D

 24 24  0  0  1  0  0  0  0  0999 V2000
   25.8953  -21.8011  -16.9028 C   0  0  0  0  0  0  0  0  0  0  0  0
   26.6044  -22.7177  -15.9292 C   0  0  2  0  0  0  0  0  0  0  0  0
   26.4624  -24.1044  -16.3148 N   0  0  0  0  0  0  0  0  0  0  0  0
   26.1399  -22.5310  -14.5515 C   0  0  0  0  0  0  0  0  0  0  0  0
   25.1694  -23.1634  -14.0438 O   0  0  0  0  0  0  0  0  0  0  0  0
   26.2214  -19.6573   -6.1322 O   0  0  0  0  0  0  0  0  0  0  0  0
   26.5264  -19.9075   -7.4781 C   0  0  0  0  0  0  0  0  0  0  0  0
   27.2070  -21.0436   -7.8617 C   0  0  0  0  0  0  0  0  0  0  0  0
   27.5065  -21.2889   -9.1845 C   0  0  0  0  0  0  0  0  0  0  0  0
   27.1429  -20.4154  -10.1885 C   0  0  0  0  0  0  0  0  0  0  0  0
   27.4811  -20.7139  -11.5852 C   0  0  0  0  0  0  0  0  0  0  0  0
   26.3324  -21.3377  -12.3478 C   0  0  2  0  0  0  0  0  0  0  0  0
   26.7906  -21.5927  -13.6995 N   0  0  0  0  0  0  0  0  0  0  0  0
   25.1855  -20.3700  -12.3635 C   0  0  0  0  0  0  0  0  0  0  0  0
   25.2669  -19.2724  -12.9689 O   0  0  0  0  0  0  0  0  0  0  0  0
   26.4619  -19.2785   -9.8054 C   0  0  0  0  0  0  0  0  0  0  0  0
   26.1561  -19.0246   -8.4702 C   0  0  0  0  0  0  0  0  0  0  0  0
   23.9978  -20.6982  -11.6882 N   0  0  0  0  0  0  0  0  0  0  0  0
   22.7821  -19.9343  -11.7492 C   0  0  1  0  0  0  0  0  0  0  0  0
   22.2598  -19.8081  -13.1621 C   0  0  0  0  0  0  0  0  0  0  0  0
   22.0946  -21.5145  -13.8057 S   0  0  0  0  0  0  0  0  0  0  0  0
   21.7507  -20.4339  -10.8086 C   0  0  0  0  0  0  0  0  0  0  0  0
   20.5815  -19.7032  -10.6667 O   0  0  0  0  0  0  0  0  0  0  0  0
   21.8607  -21.4813  -10.1245 O   0  0  0  0  0  0  0  0  0  0  0  0
  2  1  1  6
  2  4  1  0
  2  3  1  0
  4  5  2  0
  7  6  1  0
  7 17  2  0
  8  7  1  0
  9  8  2  0
  9 10  1  0
 10 16  2  0
 11 10  1  0
 12 11  1  1
 13 12  1  0
 13  4  1  0
 14 12  1  0
 14 15  2  0
 16 17  1  0
 18 14  1  0
 19 18  1  0
 19 22  1  0
 20 21  1  0
 19 20  1  6
 22 24  2  0
 22 23  1  0
M  END
$$$$
