AYC.pdb
     RDKit          3D

 24 24  0  0  1  0  0  0  0  0999 V2000
   16.8549  -13.7623  -15.2614 C   0  0  0  0  0  0  0  0  0  0  0  0
   17.8791  -14.0515  -16.3376 C   0  0  2  0  0  0  0  0  0  0  0  0
   18.4557  -15.3678  -16.1738 N   0  0  0  0  0  0  0  0  0  0  0  0
   18.9406  -13.0416  -16.3800 C   0  0  0  0  0  0  0  0  0  0  0  0
   20.0494  -13.1600  -15.7831 O   0  0  0  0  0  0  0  0  0  0  0  0
   23.6989  -14.0623  -21.0373 O   0  0  0  0  0  0  0  0  0  0  0  0
   22.7875  -13.1805  -20.4383 C   0  0  0  0  0  0  0  0  0  0  0  0
   23.2069  -12.0140  -19.8344 C   0  0  0  0  0  0  0  0  0  0  0  0
   22.3107  -11.1478  -19.2459 C   0  0  0  0  0  0  0  0  0  0  0  0
   20.9547  -11.4011  -19.2304 C   0  0  0  0  0  0  0  0  0  0  0  0
   20.0337  -10.4524  -18.5931 C   0  0  0  0  0  0  0  0  0  0  0  0
   19.7524  -10.7891  -17.1447 C   0  0  2  0  0  0  0  0  0  0  0  0
   18.7552  -11.8414  -17.1250 N   0  0  0  0  0  0  0  0  0  0  0  0
   19.2242   -9.5622  -16.4609 C   0  0  0  0  0  0  0  0  0  0  0  0
   17.9904   -9.3398  -16.3821 O   0  0  0  0  0  0  0  0  0  0  0  0
   20.5344  -12.5680  -19.8344 C   0  0  0  0  0  0  0  0  0  0  0  0
   21.4349  -13.4477  -20.4310 C   0  0  0  0  0  0  0  0  0  0  0  0
   20.1272   -8.6444  -15.8981 N   0  0  0  0  0  0  0  0  0  0  0  0
   19.7514   -7.4277  -15.2323 C   0  0  1  0  0  0  0  0  0  0  0  0
   18.8248   -7.6806  -14.0650 C   0  0  0  0  0  0  0  0  0  0  0  0
   19.8380   -8.4788  -12.7652 S   0  0  0  0  0  0  0  0  0  0  0  0
   20.9238   -6.6028  -14.8538 C   0  0  0  0  0  0  0  0  0  0  0  0
   20.6973   -5.3849  -14.2322 O   0  0  0  0  0  0  0  0  0  0  0  0
   22.1187   -6.9309  -15.0576 O   0  0  0  0  0  0  0  0  0  0  0  0
  2  1  1  1
  2  4  1  0
  2  3  1  0
  4  5  2  0
  7  6  1  0
  7 17  2  0
  8  7  1  0
  9  8  2  0
  9 10  1  0
 10 16  2  0
 11 10  1  0
 12 11  1  6
 13 12  1  0
 13  4  1  0
 14 12  1  0
 14 15  2  0
 16 17  1  0
 18 14  1  0
 19 18  1  0
 19 22  1  0
 20 21  1  0
 19 20  1  1
 22 24  2  0
 22 23  1  0
M  END
$$$$
