SCY.pdb
     RDKit          3D

 25 25  0  0  1  0  0  0  0  0999 V2000
   23.9259  -21.2726  -18.5134 O   0  0  0  0  0  0  0  0  0  0  0  0
   25.0100  -21.7683  -17.8081 C   0  0  0  0  0  0  0  0  0  0  0  0
   26.1357  -20.7562  -17.9080 C   0  0  2  0  0  0  0  0  0  0  0  0
   27.0337  -21.2455  -18.9522 N   0  0  0  0  0  0  0  0  0  0  0  0
   26.9279  -20.7274  -16.6540 C   0  0  0  0  0  0  0  0  0  0  0  0
   28.1115  -21.1861  -16.6890 O   0  0  0  0  0  0  0  0  0  0  0  0
   26.4338  -20.2161  -15.4231 N   0  0  0  0  0  0  0  0  0  0  0  0
   27.3040  -20.1306  -14.2501 C   0  0  1  0  0  0  0  0  0  0  0  0
   28.1656  -18.8988  -14.4330 C   0  0  0  0  0  0  0  0  0  0  0  0
   27.0694  -17.4678  -14.6322 S   0  0  0  0  0  0  0  0  0  0  0  0
   26.4218  -19.8690  -13.0702 C   0  0  0  0  0  0  0  0  0  0  0  0
   25.6261  -18.8843  -13.0331 O   0  0  0  0  0  0  0  0  0  0  0  0
   20.7254  -20.6667  -14.8534 O   0  0  0  0  0  0  0  0  0  0  0  0
   21.6746  -20.8771  -13.8409 C   0  0  0  0  0  0  0  0  0  0  0  0
   21.5825  -20.1678  -12.6623 C   0  0  0  0  0  0  0  0  0  0  0  0
   22.4990  -20.3564  -11.6576 C   0  0  0  0  0  0  0  0  0  0  0  0
   23.5510  -21.2596  -11.7770 C   0  0  0  0  0  0  0  0  0  0  0  0
   24.5323  -21.4441  -10.6813 C   0  0  0  0  0  0  0  0  0  0  0  0
   25.6674  -20.4455  -10.7207 C   0  0  2  0  0  0  0  0  0  0  0  0
   26.4294  -20.7125  -11.9267 N   0  0  0  0  0  0  0  0  0  0  0  0
   26.5864  -20.5747   -9.5676 C   0  0  0  0  0  0  0  0  0  0  0  0
   27.8923  -21.0005   -9.7416 O   0  0  0  0  0  0  0  0  0  0  0  0
   23.6310  -21.9617  -12.9605 C   0  0  0  0  0  0  0  0  0  0  0  0
   22.7020  -21.7765  -13.9899 C   0  0  0  0  0  0  0  0  0  0  0  0
   26.2060  -20.3018   -8.4023 O   0  0  0  0  0  0  0  0  0  0  0  0
  1  2  1  0
  2  3  1  0
  3  5  1  0
  3  4  1  6
  5  6  2  0
  7  5  1  0
  7  8  1  0
  8 11  1  0
  8  9  1  6
 10  9  1  0
 11 20  1  0
 11 12  2  0
 14 13  1  0
 15 14  2  0
 16 15  1  0
 17 16  2  0
 17 23  1  0
 18 17  1  0
 19 18  1  1
 19 21  1  0
 20 19  1  0
 21 25  2  0
 21 22  1  0
 23 24  2  0
 24 14  1  0
M  END
$$$$
