SCY.pdb
     RDKit          3D

 25 25  0  0  1  0  0  0  0  0999 V2000
   27.5797  -13.4263  -17.8747 O   0  0  0  0  0  0  0  0  0  0  0  0
   27.0537  -12.2941  -17.2748 C   0  0  0  0  0  0  0  0  0  0  0  0
   27.6818  -11.0805  -17.9340 C   0  0  2  0  0  0  0  0  0  0  0  0
   29.0641  -11.0287  -17.4620 N   0  0  0  0  0  0  0  0  0  0  0  0
   27.0316   -9.8328  -17.4636 C   0  0  0  0  0  0  0  0  0  0  0  0
   27.4406   -9.3247  -16.3742 O   0  0  0  0  0  0  0  0  0  0  0  0
   25.9811   -9.1807  -18.1650 N   0  0  0  0  0  0  0  0  0  0  0  0
   25.4360   -7.9132  -17.6781 C   0  0  1  0  0  0  0  0  0  0  0  0
   25.5592   -6.9187  -18.8134 C   0  0  0  0  0  0  0  0  0  0  0  0
   24.7390   -5.3819  -18.3088 S   0  0  0  0  0  0  0  0  0  0  0  0
   23.9731   -8.1270  -17.4481 C   0  0  0  0  0  0  0  0  0  0  0  0
   23.2128   -8.5881  -18.3500 O   0  0  0  0  0  0  0  0  0  0  0  0
   16.4538  -10.4673  -13.6026 O   0  0  0  0  0  0  0  0  0  0  0  0
   17.7826  -10.1292  -13.9034 C   0  0  0  0  0  0  0  0  0  0  0  0
   18.3018  -10.4420  -15.1416 C   0  0  0  0  0  0  0  0  0  0  0  0
   19.5986  -10.1214  -15.4590 C   0  0  0  0  0  0  0  0  0  0  0  0
   20.4409   -9.4743  -14.5600 C   0  0  0  0  0  0  0  0  0  0  0  0
   21.8395   -9.1417  -14.9218 C   0  0  0  0  0  0  0  0  0  0  0  0
   21.9457   -8.0207  -15.9314 C   0  0  2  0  0  0  0  0  0  0  0  0
   23.3575   -7.8236  -16.2038 N   0  0  0  0  0  0  0  0  0  0  0  0
   21.3995   -6.7405  -15.4279 C   0  0  0  0  0  0  0  0  0  0  0  0
   20.0553   -6.4373  -15.5624 O   0  0  0  0  0  0  0  0  0  0  0  0
   19.9088   -9.1677  -13.3260 C   0  0  0  0  0  0  0  0  0  0  0  0
   18.5888   -9.4902  -12.9934 C   0  0  0  0  0  0  0  0  0  0  0  0
   22.1405   -5.8964  -14.8661 O   0  0  0  0  0  0  0  0  0  0  0  0
  1  2  1  0
  2  3  1  0
  3  5  1  0
  3  4  1  1
  5  6  2  0
  7  5  1  0
  7  8  1  0
  8 11  1  0
  8  9  1  6
 10  9  1  0
 11 20  1  0
 11 12  2  0
 14 13  1  0
 15 14  2  0
 16 15  1  0
 17 16  2  0
 17 23  1  0
 18 17  1  0
 19 18  1  1
 19 21  1  0
 20 19  1  0
 21 25  2  0
 21 22  1  0
 23 24  2  0
 24 14  1  0
M  END
$$$$
