SCY.pdb
     RDKit          3D

 25 25  0  0  1  0  0  0  0  0999 V2000
   20.9601  -11.1054  -16.4427 O   0  0  0  0  0  0  0  0  0  0  0  0
   19.6386  -11.1056  -16.8576 C   0  0  0  0  0  0  0  0  0  0  0  0
   19.6026  -10.6544  -18.3057 C   0  0  2  0  0  0  0  0  0  0  0  0
   20.5453  -11.5098  -19.0238 N   0  0  0  0  0  0  0  0  0  0  0  0
   20.1129   -9.2675  -18.4357 C   0  0  0  0  0  0  0  0  0  0  0  0
   21.1884   -9.0893  -19.0868 O   0  0  0  0  0  0  0  0  0  0  0  0
   19.4643   -8.1348  -17.8725 N   0  0  0  0  0  0  0  0  0  0  0  0
   20.0194   -6.7932  -18.0533 C   0  0  1  0  0  0  0  0  0  0  0  0
   18.9526   -5.9669  -18.7406 C   0  0  0  0  0  0  0  0  0  0  0  0
   17.3701   -6.2897  -17.9157 S   0  0  0  0  0  0  0  0  0  0  0  0
   20.2045   -6.2098  -16.6880 C   0  0  0  0  0  0  0  0  0  0  0  0
   19.3987   -6.4504  -15.7410 O   0  0  0  0  0  0  0  0  0  0  0  0
   24.0001  -10.7693  -14.6142 O   0  0  0  0  0  0  0  0  0  0  0  0
   23.7289   -9.3920  -14.6147 C   0  0  0  0  0  0  0  0  0  0  0  0
   24.3673   -8.5720  -15.5206 C   0  0  0  0  0  0  0  0  0  0  0  0
   24.1184   -7.2220  -15.5404 C   0  0  0  0  0  0  0  0  0  0  0  0
   23.2225   -6.6228  -14.6600 C   0  0  0  0  0  0  0  0  0  0  0  0
   22.9723   -5.1621  -14.6955 C   0  0  0  0  0  0  0  0  0  0  0  0
   21.5476   -4.8081  -15.0590 C   0  0  2  0  0  0  0  0  0  0  0  0
   21.2959   -5.3533  -16.3803 N   0  0  0  0  0  0  0  0  0  0  0  0
   21.3166   -3.3475  -15.1214 C   0  0  0  0  0  0  0  0  0  0  0  0
   20.9478   -2.7344  -16.3067 O   0  0  0  0  0  0  0  0  0  0  0  0
   22.5916   -7.4543  -13.7597 C   0  0  0  0  0  0  0  0  0  0  0  0
   22.8386   -8.8310  -13.7319 C   0  0  0  0  0  0  0  0  0  0  0  0
   21.4490   -2.6266  -14.1016 O   0  0  0  0  0  0  0  0  0  0  0  0
  1  2  1  0
  2  3  1  0
  3  5  1  0
  3  4  1  6
  5  6  2  0
  7  5  1  0
  7  8  1  0
  8 11  1  0
  8  9  1  6
 10  9  1  0
 11 20  1  0
 11 12  2  0
 14 13  1  0
 15 14  2  0
 16 15  1  0
 17 16  2  0
 17 23  1  0
 18 17  1  0
 19 18  1  6
 19 21  1  0
 20 19  1  0
 21 25  2  0
 21 22  1  0
 23 24  2  0
 24 14  1  0
M  END
$$$$
