SCY.pdb
     RDKit          3D

 25 25  0  0  1  0  0  0  0  0999 V2000
   22.7750  -14.1662  -15.3187 O   0  0  0  0  0  0  0  0  0  0  0  0
   24.1155  -13.8180  -15.3403 C   0  0  0  0  0  0  0  0  0  0  0  0
   24.7525  -14.4834  -16.5458 C   0  0  2  0  0  0  0  0  0  0  0  0
   23.9197  -14.1316  -17.6943 N   0  0  0  0  0  0  0  0  0  0  0  0
   24.6928  -15.9605  -16.4221 C   0  0  0  0  0  0  0  0  0  0  0  0
   23.7684  -16.5713  -17.0426 O   0  0  0  0  0  0  0  0  0  0  0  0
   25.6110  -16.7228  -15.6496 N   0  0  0  0  0  0  0  0  0  0  0  0
   25.5673  -18.1851  -15.6716 C   0  0  1  0  0  0  0  0  0  0  0  0
   26.6520  -18.6413  -16.6247 C   0  0  0  0  0  0  0  0  0  0  0  0
   28.2044  -17.8398  -16.1382 S   0  0  0  0  0  0  0  0  0  0  0  0
   25.9657  -18.6541  -14.3077 C   0  0  0  0  0  0  0  0  0  0  0  0
   26.6801  -17.9468  -13.5375 O   0  0  0  0  0  0  0  0  0  0  0  0
   26.9402  -20.6258   -6.1217 O   0  0  0  0  0  0  0  0  0  0  0  0
   26.5116  -20.3865   -7.4368 C   0  0  0  0  0  0  0  0  0  0  0  0
   27.0058  -19.3006   -8.1277 C   0  0  0  0  0  0  0  0  0  0  0  0
   26.6016  -19.0460   -9.4149 C   0  0  0  0  0  0  0  0  0  0  0  0
   25.6865  -19.8593  -10.0765 C   0  0  0  0  0  0  0  0  0  0  0  0
   25.2602  -19.5632  -11.4651 C   0  0  0  0  0  0  0  0  0  0  0  0
   25.9459  -20.4286  -12.4986 C   0  0  2  0  0  0  0  0  0  0  0  0
   25.5633  -19.9201  -13.8030 N   0  0  0  0  0  0  0  0  0  0  0  0
   25.5303  -21.8474  -12.4270 C   0  0  0  0  0  0  0  0  0  0  0  0
   24.4762  -22.3204  -13.1899 O   0  0  0  0  0  0  0  0  0  0  0  0
   25.2007  -20.9411   -9.3740 C   0  0  0  0  0  0  0  0  0  0  0  0
   25.6065  -21.2087   -8.0622 C   0  0  0  0  0  0  0  0  0  0  0  0
   26.1225  -22.6586  -11.6731 O   0  0  0  0  0  0  0  0  0  0  0  0
  1  2  1  0
  2  3  1  0
  3  5  1  0
  3  4  1  6
  5  6  2  0
  7  5  1  0
  7  8  1  0
  8 11  1  0
  8  9  1  6
 10  9  1  0
 11 20  1  0
 11 12  2  0
 14 13  1  0
 15 14  2  0
 16 15  1  0
 17 16  2  0
 17 23  1  0
 18 17  1  0
 19 18  1  1
 19 21  1  0
 20 19  1  0
 21 25  2  0
 21 22  1  0
 23 24  2  0
 24 14  1  0
M  END
$$$$
