SCY.pdb
     RDKit          3D

 25 25  0  0  1  0  0  0  0  0999 V2000
   12.9791  -23.6691   -7.3733 O   0  0  0  0  0  0  0  0  0  0  0  0
   14.0357  -22.7942   -7.1816 C   0  0  0  0  0  0  0  0  0  0  0  0
   15.1985  -23.2715   -8.0313 C   0  0  2  0  0  0  0  0  0  0  0  0
   14.6523  -23.5333   -9.3615 N   0  0  0  0  0  0  0  0  0  0  0  0
   15.7178  -24.5673   -7.5292 C   0  0  0  0  0  0  0  0  0  0  0  0
   15.5043  -25.6040   -8.2306 O   0  0  0  0  0  0  0  0  0  0  0  0
   16.4374  -24.7074   -6.3114 N   0  0  0  0  0  0  0  0  0  0  0  0
   16.9828  -26.0058   -5.9146 C   0  0  1  0  0  0  0  0  0  0  0  0
   18.2929  -26.1752   -6.6550 C   0  0  0  0  0  0  0  0  0  0  0  0
   19.0691  -24.5433   -6.8088 S   0  0  0  0  0  0  0  0  0  0  0  0
   17.3182  -25.9121   -4.4594 C   0  0  0  0  0  0  0  0  0  0  0  0
   17.8224  -24.8662   -3.9535 O   0  0  0  0  0  0  0  0  0  0  0  0
   13.5209  -21.7894   -2.0834 O   0  0  0  0  0  0  0  0  0  0  0  0
   14.1665  -23.0220   -1.8975 C   0  0  0  0  0  0  0  0  0  0  0  0
   13.8680  -24.0799   -2.7296 C   0  0  0  0  0  0  0  0  0  0  0  0
   14.4863  -25.2950   -2.5674 C   0  0  0  0  0  0  0  0  0  0  0  0
   15.4311  -25.5160   -1.5698 C   0  0  0  0  0  0  0  0  0  0  0  0
   16.0832  -26.8375   -1.4095 C   0  0  0  0  0  0  0  0  0  0  0  0
   17.3979  -26.9494   -2.1486 C   0  0  2  0  0  0  0  0  0  0  0  0
   17.0886  -26.9930   -3.5660 N   0  0  0  0  0  0  0  0  0  0  0  0
   18.1439  -28.1823   -1.8107 C   0  0  0  0  0  0  0  0  0  0  0  0
   18.6498  -28.3826   -0.5376 O   0  0  0  0  0  0  0  0  0  0  0  0
   15.7197  -24.4498   -0.7453 C   0  0  0  0  0  0  0  0  0  0  0  0
   15.0950  -23.2080   -0.9027 C   0  0  0  0  0  0  0  0  0  0  0  0
   18.3373  -29.0782   -2.6692 O   0  0  0  0  0  0  0  0  0  0  0  0
  1  2  1  0
  2  3  1  0
  3  5  1  0
  3  4  1  6
  5  6  2  0
  7  5  1  0
  7  8  1  0
  8 11  1  0
  8  9  1  6
 10  9  1  0
 11 20  1  0
 11 12  2  0
 14 13  1  0
 15 14  2  0
 16 15  1  0
 17 16  2  0
 17 23  1  0
 18 17  1  0
 19 18  1  1
 19 21  1  0
 20 19  1  0
 21 25  2  0
 21 22  1  0
 23 24  2  0
 24 14  1  0
M  END
$$$$
