SCY.pdb
     RDKit          3D

 25 25  0  0  1  0  0  0  0  0999 V2000
   21.5348  -22.3909  -11.8913 O   0  0  0  0  0  0  0  0  0  0  0  0
   21.3516  -21.0182  -11.9197 C   0  0  0  0  0  0  0  0  0  0  0  0
   20.5777  -20.6753  -13.1788 C   0  0  2  0  0  0  0  0  0  0  0  0
   19.7938  -21.8628  -13.5128 N   0  0  0  0  0  0  0  0  0  0  0  0
   21.5018  -20.4497  -14.3173 C   0  0  0  0  0  0  0  0  0  0  0  0
   21.5582  -21.3396  -15.2212 O   0  0  0  0  0  0  0  0  0  0  0  0
   22.3221  -19.2961  -14.4476 N   0  0  0  0  0  0  0  0  0  0  0  0
   23.1842  -19.1246  -15.6172 C   0  0  1  0  0  0  0  0  0  0  0  0
   22.5971  -17.9909  -16.4315 C   0  0  0  0  0  0  0  0  0  0  0  0
   23.7409  -17.6197  -17.7891 S   0  0  0  0  0  0  0  0  0  0  0  0
   24.5124  -18.6526  -15.1150 C   0  0  0  0  0  0  0  0  0  0  0  0
   24.6231  -17.6417  -14.3602 O   0  0  0  0  0  0  0  0  0  0  0  0
   24.4290  -21.0754   -9.5091 O   0  0  0  0  0  0  0  0  0  0  0  0
   25.1984  -20.8441  -10.6603 C   0  0  0  0  0  0  0  0  0  0  0  0
   25.8820  -19.6545  -10.7953 C   0  0  0  0  0  0  0  0  0  0  0  0
   26.6411  -19.4055  -11.9119 C   0  0  0  0  0  0  0  0  0  0  0  0
   26.7564  -20.3277  -12.9477 C   0  0  0  0  0  0  0  0  0  0  0  0
   27.5777  -20.0362  -14.1469 C   0  0  0  0  0  0  0  0  0  0  0  0
   27.0308  -18.9026  -14.9852 C   0  0  2  0  0  0  0  0  0  0  0  0
   25.7221  -19.3143  -15.4586 N   0  0  0  0  0  0  0  0  0  0  0  0
   27.8679  -18.6084  -16.1699 C   0  0  0  0  0  0  0  0  0  0  0  0
   27.4514  -18.9619  -17.4421 O   0  0  0  0  0  0  0  0  0  0  0  0
   26.0677  -21.5124  -12.7995 C   0  0  0  0  0  0  0  0  0  0  0  0
   25.2918  -21.7753  -11.6655 C   0  0  0  0  0  0  0  0  0  0  0  0
   28.9769  -18.0311  -16.0523 O   0  0  0  0  0  0  0  0  0  0  0  0
  1  2  1  0
  2  3  1  0
  3  5  1  0
  3  4  1  6
  5  6  2  0
  7  5  1  0
  7  8  1  0
  8 11  1  0
  8  9  1  6
 10  9  1  0
 11 20  1  0
 11 12  2  0
 14 13  1  0
 15 14  2  0
 16 15  1  0
 17 16  2  0
 17 23  1  0
 18 17  1  0
 19 18  1  6
 19 21  1  0
 20 19  1  0
 21 25  2  0
 21 22  1  0
 23 24  2  0
 24 14  1  0
M  END
$$$$
