SCY.pdb
     RDKit          3D

 25 25  0  0  1  0  0  0  0  0999 V2000
   20.5560  -19.3409  -11.0158 O   0  0  0  0  0  0  0  0  0  0  0  0
   20.7232  -18.9971  -12.3471 C   0  0  0  0  0  0  0  0  0  0  0  0
   20.7833  -20.2784  -13.1574 C   0  0  2  0  0  0  0  0  0  0  0  0
   19.6596  -21.0985  -12.7089 N   0  0  0  0  0  0  0  0  0  0  0  0
   22.0136  -21.0434  -12.8385 C   0  0  0  0  0  0  0  0  0  0  0  0
   21.9320  -21.9616  -11.9651 O   0  0  0  0  0  0  0  0  0  0  0  0
   23.2713  -20.8033  -13.4561 N   0  0  0  0  0  0  0  0  0  0  0  0
   24.4527  -21.5708  -13.0612 C   0  0  1  0  0  0  0  0  0  0  0  0
   25.3888  -21.5770  -14.2515 C   0  0  0  0  0  0  0  0  0  0  0  0
   26.9567  -22.3262  -13.7325 S   0  0  0  0  0  0  0  0  0  0  0  0
   25.1353  -20.7951  -11.9790 C   0  0  0  0  0  0  0  0  0  0  0  0
   25.1543  -19.5288  -11.9715 O   0  0  0  0  0  0  0  0  0  0  0  0
   29.0778  -18.7952   -4.2854 O   0  0  0  0  0  0  0  0  0  0  0  0
   28.3637  -19.3896   -5.3376 C   0  0  0  0  0  0  0  0  0  0  0  0
   27.2647  -18.7454   -5.8648 C   0  0  0  0  0  0  0  0  0  0  0  0
   26.5504  -19.3069   -6.8942 C   0  0  0  0  0  0  0  0  0  0  0  0
   26.8950  -20.5360   -7.4484 C   0  0  0  0  0  0  0  0  0  0  0  0
   26.1068  -21.1263   -8.5565 C   0  0  0  0  0  0  0  0  0  0  0  0
   26.6204  -20.7428   -9.9263 C   0  0  2  0  0  0  0  0  0  0  0  0
   25.7998  -21.4387  -10.9003 N   0  0  0  0  0  0  0  0  0  0  0  0
   28.0264  -21.1492  -10.1471 C   0  0  0  0  0  0  0  0  0  0  0  0
   28.3359  -22.4045  -10.6423 O   0  0  0  0  0  0  0  0  0  0  0  0
   27.9956  -21.1688   -6.9117 C   0  0  0  0  0  0  0  0  0  0  0  0
   28.7297  -20.6048   -5.8629 C   0  0  0  0  0  0  0  0  0  0  0  0
   28.9747  -20.3666   -9.8914 O   0  0  0  0  0  0  0  0  0  0  0  0
  1  2  1  0
  2  3  1  0
  3  5  1  0
  3  4  1  1
  5  6  2  0
  7  5  1  0
  7  8  1  0
  8 11  1  0
  8  9  1  6
 10  9  1  0
 11 20  1  0
 11 12  2  0
 14 13  1  0
 15 14  2  0
 16 15  1  0
 17 16  2  0
 17 23  1  0
 18 17  1  0
 19 18  1  1
 19 21  1  0
 20 19  1  0
 21 25  2  0
 21 22  1  0
 23 24  2  0
 24 14  1  0
M  END
$$$$
