IVV.pdb
     RDKit          3D

 23 22  0  0  1  0  0  0  0  0999 V2000
    6.9753  -21.2220   28.3377 C   0  0  0  0  0  0  0  0  0  0  0  0
    6.4827  -20.7334   27.0222 C   0  0  0  0  0  0  0  0  0  0  0  0
    7.2738  -19.6032   26.4101 C   0  0  2  0  0  0  0  0  0  0  0  0
    7.4283  -18.5312   27.4291 C   0  0  0  0  0  0  0  0  0  0  0  0
    6.6376  -19.2201   25.1170 C   0  0  2  0  0  0  0  0  0  0  0  0
    6.5912  -20.4777   24.3222 N   0  0  0  0  0  0  0  0  0  0  0  0
    7.3175  -18.2526   24.2805 C   0  0  0  0  0  0  0  0  0  0  0  0
    8.4257  -18.5646   23.7668 O   0  0  0  0  0  0  0  0  0  0  0  0
    6.2746  -15.7559   21.4452 C   0  0  0  0  0  0  0  0  0  0  0  0
    6.8750  -14.9800   22.5697 C   0  0  2  0  0  0  0  0  0  0  0  0
    7.7855  -13.8741   22.0638 C   0  0  0  0  0  0  0  0  0  0  0  0
    7.7219  -15.8884   23.4793 C   0  0  2  0  0  0  0  0  0  0  0  0
    6.8700  -16.9421   23.9498 N   0  0  0  0  0  0  0  0  0  0  0  0
    8.3760  -15.0939   24.5021 C   0  0  0  0  0  0  0  0  0  0  0  0
    7.9000  -13.9601   24.7708 O   0  0  0  0  0  0  0  0  0  0  0  0
    8.1463  -13.9263   27.3490 C   0  0  0  0  0  0  0  0  0  0  0  0
    9.5168  -14.5314   27.5235 C   0  0  2  0  0  0  0  0  0  0  0  0
   10.3318  -13.5910   28.3838 C   0  0  0  0  0  0  0  0  0  0  0  0
   10.1996  -14.6365   26.1908 C   0  0  2  0  0  0  0  0  0  0  0  0
    9.5234  -15.4798   25.2465 N   0  0  0  0  0  0  0  0  0  0  0  0
   11.5960  -15.0846   26.4234 C   0  0  0  0  0  0  0  0  0  0  0  0
   11.9120  -16.2604   26.0376 O   0  0  0  0  0  0  0  0  0  0  0  0
   12.5600  -14.3309   27.0178 O   0  0  0  0  0  0  0  0  0  0  0  0
  2  3  1  0
  2  1  1  0
  3  4  1  1
  5  7  1  0
  5  3  1  0
  5  6  1  6
  7 13  1  0
  8  7  2  0
 10  9  1  6
 10 11  1  0
 10 12  1  0
 12 14  1  0
 12 13  1  1
 14 20  1  0
 14 15  2  0
 17 16  1  6
 17 19  1  0
 18 17  1  0
 19 21  1  0
 19 20  1  6
 21 22  2  0
 21 23  1  0
M  END
$$$$
