IVV.pdb
     RDKit          3D

 23 22  0  0  1  0  0  0  0  0999 V2000
    5.7138  -10.3438   26.4452 C   0  0  0  0  0  0  0  0  0  0  0  0
    5.4212  -11.6406   25.7785 C   0  0  0  0  0  0  0  0  0  0  0  0
    6.5501  -12.6422   25.7801 C   0  0  2  0  0  0  0  0  0  0  0  0
    7.7742  -11.9723   25.2663 C   0  0  0  0  0  0  0  0  0  0  0  0
    6.1003  -13.8703   25.0636 C   0  0  2  0  0  0  0  0  0  0  0  0
    4.8982  -14.3336   25.8091 N   0  0  0  0  0  0  0  0  0  0  0  0
    6.9982  -15.0061   25.0232 C   0  0  0  0  0  0  0  0  0  0  0  0
    7.1654  -15.6873   26.0708 O   0  0  0  0  0  0  0  0  0  0  0  0
   10.3145  -17.7709   22.4953 C   0  0  0  0  0  0  0  0  0  0  0  0
    9.3198  -16.6593   22.5409 C   0  0  2  0  0  0  0  0  0  0  0  0
    9.9313  -15.3420   22.0952 C   0  0  0  0  0  0  0  0  0  0  0  0
    8.7838  -16.4539   23.9692 C   0  0  2  0  0  0  0  0  0  0  0  0
    7.7424  -15.4699   23.9015 N   0  0  0  0  0  0  0  0  0  0  0  0
    9.8805  -16.1590   24.8722 C   0  0  0  0  0  0  0  0  0  0  0  0
   10.7665  -15.3509   24.4896 O   0  0  0  0  0  0  0  0  0  0  0  0
    9.9942  -14.2185   27.7821 C   0  0  0  0  0  0  0  0  0  0  0  0
   10.6078  -15.5105   28.2608 C   0  0  2  0  0  0  0  0  0  0  0  0
   11.8133  -15.1648   29.1070 C   0  0  0  0  0  0  0  0  0  0  0  0
   11.0906  -16.3101   27.0857 C   0  0  2  0  0  0  0  0  0  0  0  0
   10.0541  -16.7027   26.1737 N   0  0  0  0  0  0  0  0  0  0  0  0
   11.8377  -17.4841   27.6038 C   0  0  0  0  0  0  0  0  0  0  0  0
   11.2198  -18.6002   27.6614 O   0  0  0  0  0  0  0  0  0  0  0  0
   13.1323  -17.4529   28.0206 O   0  0  0  0  0  0  0  0  0  0  0  0
  2  3  1  0
  2  1  1  0
  3  4  1  6
  5  7  1  0
  5  3  1  0
  5  6  1  1
  7 13  1  0
  8  7  2  0
 10  9  1  1
 10 11  1  0
 10 12  1  0
 12 14  1  0
 12 13  1  6
 14 20  1  0
 14 15  2  0
 17 16  1  6
 17 19  1  0
 18 17  1  0
 19 21  1  0
 19 20  1  1
 21 22  2  0
 21 23  1  0
M  END
$$$$
