IVV.pdb
     RDKit          3D

 23 22  0  0  1  0  0  0  0  0999 V2000
    6.6877  -12.5008   19.7952 C   0  0  0  0  0  0  0  0  0  0  0  0
    7.2132  -13.7947   20.3069 C   0  0  0  0  0  0  0  0  0  0  0  0
    8.7101  -13.9674   20.2237 C   0  0  2  0  0  0  0  0  0  0  0  0
    9.1184  -13.8536   18.7984 C   0  0  0  0  0  0  0  0  0  0  0  0
    9.0867  -15.2219   20.9367 C   0  0  2  0  0  0  0  0  0  0  0  0
    8.3726  -16.3076   20.2108 N   0  0  0  0  0  0  0  0  0  0  0  0
    8.7021  -15.3607   22.3262 C   0  0  0  0  0  0  0  0  0  0  0  0
    9.1166  -14.5109   23.1602 O   0  0  0  0  0  0  0  0  0  0  0  0
    6.6656  -18.1741   25.9213 C   0  0  0  0  0  0  0  0  0  0  0  0
    7.0288  -17.9459   24.4919 C   0  0  2  0  0  0  0  0  0  0  0  0
    8.0390  -18.9686   24.0006 C   0  0  0  0  0  0  0  0  0  0  0  0
    7.6557  -16.5538   24.2951 C   0  0  2  0  0  0  0  0  0  0  0  0
    7.8779  -16.3759   22.8893 N   0  0  0  0  0  0  0  0  0  0  0  0
    8.8213  -16.4105   25.1470 C   0  0  0  0  0  0  0  0  0  0  0  0
    9.9179  -16.8752   24.7394 O   0  0  0  0  0  0  0  0  0  0  0  0
   11.2798  -14.2375   28.8444 C   0  0  0  0  0  0  0  0  0  0  0  0
   10.0984  -14.2620   27.9071 C   0  0  2  0  0  0  0  0  0  0  0  0
    8.8437  -14.1194   28.7402 C   0  0  0  0  0  0  0  0  0  0  0  0
   10.0320  -15.5885   27.2074 C   0  0  2  0  0  0  0  0  0  0  0  0
    8.8467  -15.7820   26.4214 N   0  0  0  0  0  0  0  0  0  0  0  0
   10.1927  -16.6552   28.2277 C   0  0  0  0  0  0  0  0  0  0  0  0
    9.1504  -17.3097   28.5685 O   0  0  0  0  0  0  0  0  0  0  0  0
   11.3711  -16.9830   28.8232 O   0  0  0  0  0  0  0  0  0  0  0  0
  2  3  1  0
  2  1  1  0
  3  4  1  6
  5  7  1  0
  5  3  1  0
  5  6  1  6
  7 13  1  0
  8  7  2  0
 10  9  1  1
 10 11  1  0
 10 12  1  0
 12 14  1  0
 12 13  1  6
 14 20  1  0
 14 15  2  0
 17 16  1  1
 17 19  1  0
 18 17  1  0
 19 21  1  0
 19 20  1  1
 21 22  2  0
 21 23  1  0
M  END
$$$$
