IVV.pdb
     RDKit          3D

 23 22  0  0  1  0  0  0  0  0999 V2000
    7.2910  -17.1892   20.2396 C   0  0  0  0  0  0  0  0  0  0  0  0
    7.7006  -15.8393   20.7108 C   0  0  0  0  0  0  0  0  0  0  0  0
    6.5853  -14.8320   20.8486 C   0  0  2  0  0  0  0  0  0  0  0  0
    5.8654  -14.7465   19.5503 C   0  0  0  0  0  0  0  0  0  0  0  0
    7.1510  -13.5641   21.3927 C   0  0  2  0  0  0  0  0  0  0  0  0
    8.1151  -13.0970   20.3592 N   0  0  0  0  0  0  0  0  0  0  0  0
    7.9018  -13.6254   22.6298 C   0  0  0  0  0  0  0  0  0  0  0  0
    9.1560  -13.7414   22.5754 O   0  0  0  0  0  0  0  0  0  0  0  0
    5.9754  -13.5548   26.3442 C   0  0  0  0  0  0  0  0  0  0  0  0
    7.3905  -13.0828   26.3025 C   0  0  2  0  0  0  0  0  0  0  0  0
    7.4737  -11.5791   26.1028 C   0  0  0  0  0  0  0  0  0  0  0  0
    8.1599  -13.7406   25.1428 C   0  0  2  0  0  0  0  0  0  0  0  0
    7.3789  -13.5648   23.9527 N   0  0  0  0  0  0  0  0  0  0  0  0
    8.4981  -15.1091   25.4859 C   0  0  0  0  0  0  0  0  0  0  0  0
    7.5749  -15.9645   25.5033 O   0  0  0  0  0  0  0  0  0  0  0  0
   11.4360  -17.2736   24.0869 C   0  0  0  0  0  0  0  0  0  0  0  0
   11.4136  -17.4374   25.5861 C   0  0  2  0  0  0  0  0  0  0  0  0
   11.5202  -18.9151   25.8918 C   0  0  0  0  0  0  0  0  0  0  0  0
   10.1013  -16.9531   26.1308 C   0  0  2  0  0  0  0  0  0  0  0  0
    9.7966  -15.5881   25.8086 N   0  0  0  0  0  0  0  0  0  0  0  0
   10.0993  -17.1831   27.5978 C   0  0  0  0  0  0  0  0  0  0  0  0
   10.1175  -18.3927   28.0070 O   0  0  0  0  0  0  0  0  0  0  0  0
   10.0793  -16.1964   28.5341 O   0  0  0  0  0  0  0  0  0  0  0  0
  2  3  1  0
  2  1  1  0
  3  4  1  6
  5  7  1  0
  5  3  1  0
  5  6  1  6
  7 13  1  0
  8  7  2  0
 10  9  1  6
 10 11  1  0
 10 12  1  0
 12 14  1  0
 12 13  1  6
 14 20  1  0
 14 15  2  0
 17 16  1  6
 17 19  1  0
 18 17  1  0
 19 21  1  0
 19 20  1  1
 21 22  2  0
 21 23  1  0
M  END
$$$$
