IVV.pdb
     RDKit          3D

 23 22  0  0  1  0  0  0  0  0999 V2000
    5.6727  -10.1554   25.9695 C   0  0  0  0  0  0  0  0  0  0  0  0
    5.5061  -11.3863   26.7876 C   0  0  0  0  0  0  0  0  0  0  0  0
    6.4935  -12.4926   26.5071 C   0  0  2  0  0  0  0  0  0  0  0  0
    7.8291  -11.8826   26.2712 C   0  0  0  0  0  0  0  0  0  0  0  0
    5.9454  -13.3591   25.4243 C   0  0  2  0  0  0  0  0  0  0  0  0
    4.7000  -13.9445   25.9917 N   0  0  0  0  0  0  0  0  0  0  0  0
    6.7410  -14.4852   24.9808 C   0  0  0  0  0  0  0  0  0  0  0  0
    6.8430  -15.4920   25.7327 O   0  0  0  0  0  0  0  0  0  0  0  0
    7.7000  -15.3379   21.1165 C   0  0  0  0  0  0  0  0  0  0  0  0
    8.8876  -15.4235   22.0162 C   0  0  2  0  0  0  0  0  0  0  0  0
    9.7677  -16.6124   21.6703 C   0  0  0  0  0  0  0  0  0  0  0  0
    8.4586  -15.5852   23.4858 C   0  0  2  0  0  0  0  0  0  0  0  0
    7.4474  -14.6029   23.7503 N   0  0  0  0  0  0  0  0  0  0  0  0
    9.6240  -15.5476   24.3491 C   0  0  0  0  0  0  0  0  0  0  0  0
   10.5461  -14.7374   24.0701 O   0  0  0  0  0  0  0  0  0  0  0  0
   10.1032  -14.1408   27.4924 C   0  0  0  0  0  0  0  0  0  0  0  0
   10.5563  -15.5607   27.7239 C   0  0  2  0  0  0  0  0  0  0  0  0
   11.8024  -15.5149   28.5806 C   0  0  0  0  0  0  0  0  0  0  0  0
   10.9266  -16.1960   26.4152 C   0  0  2  0  0  0  0  0  0  0  0  0
    9.8291  -16.3508   25.5034 N   0  0  0  0  0  0  0  0  0  0  0  0
   11.5855  -17.4948   26.7046 C   0  0  0  0  0  0  0  0  0  0  0  0
   10.8832  -18.5545   26.5831 O   0  0  0  0  0  0  0  0  0  0  0  0
   12.8829  -17.6338   27.0894 O   0  0  0  0  0  0  0  0  0  0  0  0
  2  3  1  0
  2  1  1  0
  3  4  1  6
  5  7  1  0
  5  3  1  0
  5  6  1  1
  7 13  1  0
  8  7  2  0
 10  9  1  6
 10 11  1  0
 10 12  1  0
 12 14  1  0
 12 13  1  1
 14 20  1  0
 14 15  2  0
 17 16  1  6
 17 19  1  0
 18 17  1  0
 19 21  1  0
 19 20  1  6
 21 22  2  0
 21 23  1  0
M  END
$$$$
