IVV.pdb
     RDKit          3D

 23 22  0  0  1  0  0  0  0  0999 V2000
    5.6406  -11.4194   26.9327 C   0  0  0  0  0  0  0  0  0  0  0  0
    5.5988  -12.4948   25.9063 C   0  0  0  0  0  0  0  0  0  0  0  0
    6.8259  -13.3702   25.8308 C   0  0  2  0  0  0  0  0  0  0  0  0
    8.0155  -12.4977   25.6442 C   0  0  0  0  0  0  0  0  0  0  0  0
    6.5959  -14.4281   24.8052 C   0  0  2  0  0  0  0  0  0  0  0  0
    5.3389  -15.1058   25.2251 N   0  0  0  0  0  0  0  0  0  0  0  0
    7.5832  -15.4796   24.6740 C   0  0  0  0  0  0  0  0  0  0  0  0
    7.6198  -16.3919   25.5434 O   0  0  0  0  0  0  0  0  0  0  0  0
    9.4789  -16.8034   21.2499 C   0  0  0  0  0  0  0  0  0  0  0  0
   10.4101  -16.4223   22.3520 C   0  0  2  0  0  0  0  0  0  0  0  0
   11.6033  -17.3597   22.4263 C   0  0  0  0  0  0  0  0  0  0  0  0
    9.7024  -16.4749   23.7181 C   0  0  2  0  0  0  0  0  0  0  0  0
    8.5539  -15.6189   23.6419 N   0  0  0  0  0  0  0  0  0  0  0  0
   10.6482  -16.1783   24.7776 C   0  0  0  0  0  0  0  0  0  0  0  0
   11.5691  -15.3536   24.5406 O   0  0  0  0  0  0  0  0  0  0  0  0
   11.5258  -14.4466   28.9413 C   0  0  0  0  0  0  0  0  0  0  0  0
   10.7362  -14.9176   27.7456 C   0  0  2  0  0  0  0  0  0  0  0  0
    9.3323  -15.2323   28.2130 C   0  0  0  0  0  0  0  0  0  0  0  0
   11.3331  -16.1867   27.2102 C   0  0  2  0  0  0  0  0  0  0  0  0
   10.6345  -16.7377   26.0840 N   0  0  0  0  0  0  0  0  0  0  0  0
   11.4237  -17.1598   28.3281 C   0  0  0  0  0  0  0  0  0  0  0  0
   10.6102  -18.1442   28.3228 O   0  0  0  0  0  0  0  0  0  0  0  0
   12.3116  -17.0754   29.3553 O   0  0  0  0  0  0  0  0  0  0  0  0
  2  3  1  0
  2  1  1  0
  3  4  1  6
  5  7  1  0
  5  3  1  0
  5  6  1  1
  7 13  1  0
  8  7  2  0
 10  9  1  6
 10 11  1  0
 10 12  1  0
 12 14  1  0
 12 13  1  6
 14 20  1  0
 14 15  2  0
 17 16  1  1
 17 19  1  0
 18 17  1  0
 19 21  1  0
 19 20  1  6
 21 22  2  0
 21 23  1  0
M  END
$$$$
