IVV.pdb
     RDKit          3D

 23 22  0  0  1  0  0  0  0  0999 V2000
    7.3725  -11.5417   27.5230 C   0  0  0  0  0  0  0  0  0  0  0  0
    6.8639  -12.7843   26.8832 C   0  0  0  0  0  0  0  0  0  0  0  0
    6.5856  -12.6870   25.4031 C   0  0  2  0  0  0  0  0  0  0  0  0
    5.6018  -11.5944   25.1801 C   0  0  0  0  0  0  0  0  0  0  0  0
    6.2190  -14.0406   24.8959 C   0  0  2  0  0  0  0  0  0  0  0  0
    5.1522  -14.5215   25.8158 N   0  0  0  0  0  0  0  0  0  0  0  0
    7.2360  -15.0718   24.9020 C   0  0  0  0  0  0  0  0  0  0  0  0
    7.2518  -15.9053   25.8478 O   0  0  0  0  0  0  0  0  0  0  0  0
    8.8749  -16.7019   21.6139 C   0  0  0  0  0  0  0  0  0  0  0  0
    9.9212  -16.4218   22.6405 C   0  0  2  0  0  0  0  0  0  0  0  0
   10.9339  -17.5507   22.7306 C   0  0  0  0  0  0  0  0  0  0  0  0
    9.2962  -16.2565   24.0375 C   0  0  2  0  0  0  0  0  0  0  0  0
    8.2587  -15.2717   23.9318 N   0  0  0  0  0  0  0  0  0  0  0  0
   10.3334  -15.9860   25.0154 C   0  0  0  0  0  0  0  0  0  0  0  0
   11.2788  -15.2233   24.6855 O   0  0  0  0  0  0  0  0  0  0  0  0
   10.0665  -16.1345   29.2540 C   0  0  0  0  0  0  0  0  0  0  0  0
   11.1428  -15.4621   28.4387 C   0  0  2  0  0  0  0  0  0  0  0  0
   10.5866  -14.1504   27.9302 C   0  0  0  0  0  0  0  0  0  0  0  0
   11.4790  -16.3076   27.2448 C   0  0  2  0  0  0  0  0  0  0  0  0
   10.3857  -16.5069   26.3365 N   0  0  0  0  0  0  0  0  0  0  0  0
   12.0263  -17.5981   27.7346 C   0  0  0  0  0  0  0  0  0  0  0  0
   11.3013  -18.6400   27.5932 O   0  0  0  0  0  0  0  0  0  0  0  0
   13.2442  -17.7471   28.3222 O   0  0  0  0  0  0  0  0  0  0  0  0
  2  3  1  0
  2  1  1  0
  3  4  1  1
  5  7  1  0
  5  3  1  0
  5  6  1  1
  7 13  1  0
  8  7  2  0
 10  9  1  6
 10 11  1  0
 10 12  1  0
 12 14  1  0
 12 13  1  6
 14 20  1  0
 14 15  2  0
 17 16  1  1
 17 19  1  0
 18 17  1  0
 19 21  1  0
 19 20  1  1
 21 22  2  0
 21 23  1  0
M  END
$$$$
