IVV.pdb
     RDKit          3D

 23 22  0  0  1  0  0  0  0  0999 V2000
    5.8576  -21.5284   24.2082 C   0  0  0  0  0  0  0  0  0  0  0  0
    5.6587  -20.1435   23.7039 C   0  0  0  0  0  0  0  0  0  0  0  0
    6.6730  -19.1287   24.1717 C   0  0  2  0  0  0  0  0  0  0  0  0
    6.7657  -19.2050   25.6539 C   0  0  0  0  0  0  0  0  0  0  0  0
    6.3285  -17.8024   23.5834 C   0  0  2  0  0  0  0  0  0  0  0  0
    6.5022  -17.9747   22.1152 N   0  0  0  0  0  0  0  0  0  0  0  0
    7.1450  -16.6616   23.9435 C   0  0  0  0  0  0  0  0  0  0  0  0
    8.3236  -16.5929   23.5011 O   0  0  0  0  0  0  0  0  0  0  0  0
    7.7657  -12.2476   26.1493 C   0  0  0  0  0  0  0  0  0  0  0  0
    6.8755  -13.3300   25.6365 C   0  0  2  0  0  0  0  0  0  0  0  0
    5.8212  -13.7194   26.6587 C   0  0  0  0  0  0  0  0  0  0  0  0
    7.6811  -14.5993   25.3054 C   0  0  2  0  0  0  0  0  0  0  0  0
    6.7657  -15.5621   24.7647 N   0  0  0  0  0  0  0  0  0  0  0  0
    8.4376  -15.0234   26.4685 C   0  0  0  0  0  0  0  0  0  0  0  0
    7.8062  -15.4921   27.4514 O   0  0  0  0  0  0  0  0  0  0  0  0
   12.7357  -14.5598   27.0155 C   0  0  0  0  0  0  0  0  0  0  0  0
   12.0237  -15.8392   27.3776 C   0  0  2  0  0  0  0  0  0  0  0  0
   12.0543  -16.7446   26.1659 C   0  0  0  0  0  0  0  0  0  0  0  0
   10.5851  -15.5488   27.6927 C   0  0  2  0  0  0  0  0  0  0  0  0
    9.8505  -14.9622   26.6081 N   0  0  0  0  0  0  0  0  0  0  0  0
   10.5436  -14.6953   28.9072 C   0  0  0  0  0  0  0  0  0  0  0  0
   10.2292  -13.4667   28.7563 O   0  0  0  0  0  0  0  0  0  0  0  0
   10.8167  -15.1307   30.1667 O   0  0  0  0  0  0  0  0  0  0  0  0
  2  3  1  0
  2  1  1  0
  3  4  1  1
  5  7  1  0
  5  3  1  0
  5  6  1  6
  7 13  1  0
  8  7  2  0
 10  9  1  1
 10 11  1  0
 10 12  1  0
 12 14  1  0
 12 13  1  1
 14 20  1  0
 14 15  2  0
 17 16  1  6
 17 19  1  0
 18 17  1  0
 19 21  1  0
 19 20  1  6
 21 22  2  0
 21 23  1  0
M  END
$$$$
