NFV.pdb
     RDKit          3D

 27 27  0  0  1  0  0  0  0  0999 V2000
   19.3045  -14.0608  -20.1602 N   0  0  0  0  0  0  0  0  0  0  0  0
   18.0718  -13.6576  -19.5973 C   0  0  0  0  0  0  0  0  0  0  0  0
   17.0155  -13.9507  -20.2293 O   0  0  0  0  0  0  0  0  0  0  0  0
   17.9800  -12.9154  -18.3130 C   0  0  0  0  0  0  0  0  0  0  0  0
   19.3892  -12.6434  -17.8189 C   0  0  2  0  0  0  0  0  0  0  0  0
   20.0097  -13.8474  -17.3511 N   0  0  0  0  0  0  0  0  0  0  0  0
   19.4170  -11.5873  -16.7750 C   0  0  0  0  0  0  0  0  0  0  0  0
   18.8601  -11.8518  -15.6674 O   0  0  0  0  0  0  0  0  0  0  0  0
   20.0461  -10.3702  -17.0587 N   0  0  0  0  0  0  0  0  0  0  0  0
   20.0775   -9.3094  -16.0589 C   0  0  1  0  0  0  0  0  0  0  0  0
   21.4504   -9.2529  -15.4311 C   0  0  0  0  0  0  0  0  0  0  0  0
   21.7047   -8.0951  -14.5718 C   0  0  0  0  0  0  0  0  0  0  0  0
   21.4382   -8.1976  -13.2017 C   0  0  0  0  0  0  0  0  0  0  0  0
   21.6731   -7.1785  -12.3213 C   0  0  0  0  0  0  0  0  0  0  0  0
   22.1898   -5.9918  -12.7563 C   0  0  0  0  0  0  0  0  0  0  0  0
   22.4596   -5.8703  -14.1038 C   0  0  0  0  0  0  0  0  0  0  0  0
   22.2286   -6.8851  -14.9981 C   0  0  0  0  0  0  0  0  0  0  0  0
   19.6435   -8.0895  -16.7380 C   0  0  0  0  0  0  0  0  0  0  0  0
   20.1651   -7.7346  -17.8593 O   0  0  0  0  0  0  0  0  0  0  0  0
   16.1604   -5.7994  -15.8324 C   0  0  0  0  0  0  0  0  0  0  0  0
   16.9071   -5.8075  -17.1486 C   0  0  2  0  0  0  0  0  0  0  0  0
   16.5065   -6.9365  -18.0503 C   0  0  0  0  0  0  0  0  0  0  0  0
   18.4224   -5.8907  -16.9056 C   0  0  2  0  0  0  0  0  0  0  0  0
   18.6421   -7.1798  -16.2876 N   0  0  0  0  0  0  0  0  0  0  0  0
   18.9037   -4.7460  -16.1382 C   0  0  0  0  0  0  0  0  0  0  0  0
   18.9782   -4.9034  -14.8713 O   0  0  0  0  0  0  0  0  0  0  0  0
   19.2863   -3.5211  -16.6072 O   0  0  0  0  0  0  0  0  0  0  0  0
  2  1  1  0
  3  2  2  0
  4  2  1  0
  5  4  1  0
  5  6  1  1
  7  8  2  0
  7  5  1  0
  9  7  1  0
 10  9  1  0
 10 11  1  6
 11 12  1  0
 12 13  2  0
 12 17  1  0
 13 14  1  0
 14 15  2  0
 16 15  1  0
 17 16  2  0
 18 10  1  0
 19 18  2  0
 21 23  1  0
 21 20  1  1
 22 21  1  0
 23 24  1  1
 24 18  1  0
 25 27  1  0
 25 23  1  0
 26 25  2  0
M  END
$$$$
