NFV.pdb
     RDKit          3D

 27 27  0  0  1  0  0  0  0  0999 V2000
   19.3564   -8.6571  -15.2540 N   0  0  0  0  0  0  0  0  0  0  0  0
   19.1998   -8.3634  -13.8800 C   0  0  0  0  0  0  0  0  0  0  0  0
   20.1290   -8.7148  -13.0963 O   0  0  0  0  0  0  0  0  0  0  0  0
   18.0023   -7.6694  -13.3385 C   0  0  0  0  0  0  0  0  0  0  0  0
   17.4277   -8.5166  -12.2177 C   0  0  2  0  0  0  0  0  0  0  0  0
   16.9723   -9.7817  -12.7131 N   0  0  0  0  0  0  0  0  0  0  0  0
   16.3464   -7.8088  -11.4857 C   0  0  0  0  0  0  0  0  0  0  0  0
   15.1989   -7.7881  -12.0239 O   0  0  0  0  0  0  0  0  0  0  0  0
   16.6406   -7.2080  -10.2569 N   0  0  0  0  0  0  0  0  0  0  0  0
   15.5994   -6.5081   -9.5138 C   0  0  1  0  0  0  0  0  0  0  0  0
   15.3487   -7.2240   -8.2074 C   0  0  0  0  0  0  0  0  0  0  0  0
   14.1620   -8.0808   -8.1744 C   0  0  0  0  0  0  0  0  0  0  0  0
   12.9425   -7.5324   -7.7612 C   0  0  0  0  0  0  0  0  0  0  0  0
   11.7792   -8.2496   -7.7279 C   0  0  0  0  0  0  0  0  0  0  0  0
   11.7624   -9.5615   -8.1062 C   0  0  0  0  0  0  0  0  0  0  0  0
   12.9545  -10.1212   -8.5169 C   0  0  0  0  0  0  0  0  0  0  0  0
   14.1291   -9.4128   -8.5551 C   0  0  0  0  0  0  0  0  0  0  0  0
   16.0387   -5.1184   -9.3976 C   0  0  0  0  0  0  0  0  0  0  0  0
   17.2132   -4.8298   -8.9587 O   0  0  0  0  0  0  0  0  0  0  0  0
   13.8086   -1.8934  -10.9162 C   0  0  0  0  0  0  0  0  0  0  0  0
   15.3156   -1.8337  -10.7926 C   0  0  2  0  0  0  0  0  0  0  0  0
   16.0307   -2.3723  -11.9954 C   0  0  0  0  0  0  0  0  0  0  0  0
   15.7842   -2.6156   -9.5552 C   0  0  2  0  0  0  0  0  0  0  0  0
   15.2806   -3.9593   -9.7365 N   0  0  0  0  0  0  0  0  0  0  0  0
   15.3672   -1.9594   -8.3197 C   0  0  0  0  0  0  0  0  0  0  0  0
   14.3446   -2.4538   -7.7322 O   0  0  0  0  0  0  0  0  0  0  0  0
   15.9362   -0.8774   -7.7097 O   0  0  0  0  0  0  0  0  0  0  0  0
  2  1  1  0
  3  2  2  0
  4  2  1  0
  5  4  1  0
  5  6  1  6
  7  8  2  0
  7  5  1  0
  9  7  1  0
 10  9  1  0
 10 11  1  1
 11 12  1  0
 12 13  2  0
 12 17  1  0
 13 14  1  0
 14 15  2  0
 16 15  1  0
 17 16  2  0
 18 10  1  0
 19 18  2  0
 21 23  1  0
 21 20  1  6
 22 21  1  0
 23 24  1  6
 24 18  1  0
 25 27  1  0
 25 23  1  0
 26 25  2  0
M  END
$$$$
