NFV.pdb
     RDKit          3D

 27 27  0  0  1  0  0  0  0  0999 V2000
   20.8963  -11.8233  -21.4990 N   0  0  0  0  0  0  0  0  0  0  0  0
   21.3009  -12.2629  -20.2177 C   0  0  0  0  0  0  0  0  0  0  0  0
   21.8034  -13.4207  -20.1273 O   0  0  0  0  0  0  0  0  0  0  0  0
   21.1570  -11.4250  -18.9987 C   0  0  0  0  0  0  0  0  0  0  0  0
   22.5349  -11.2224  -18.3953 C   0  0  2  0  0  0  0  0  0  0  0  0
   23.0650  -12.4586  -17.9010 N   0  0  0  0  0  0  0  0  0  0  0  0
   22.5291  -10.1818  -17.3355 C   0  0  0  0  0  0  0  0  0  0  0  0
   22.1787  -10.5414  -16.1715 O   0  0  0  0  0  0  0  0  0  0  0  0
   22.9042   -8.8752  -17.6665 N   0  0  0  0  0  0  0  0  0  0  0  0
   22.9226   -7.8354  -16.6445 C   0  0  1  0  0  0  0  0  0  0  0  0
   24.3410   -7.3569  -16.4418 C   0  0  0  0  0  0  0  0  0  0  0  0
   25.2940   -8.3760  -15.9982 C   0  0  0  0  0  0  0  0  0  0  0  0
   26.3923   -8.6756  -16.8124 C   0  0  0  0  0  0  0  0  0  0  0  0
   27.3467   -9.5903  -16.4645 C   0  0  0  0  0  0  0  0  0  0  0  0
   27.2627  -10.2635  -15.2795 C   0  0  0  0  0  0  0  0  0  0  0  0
   26.1874   -9.9826  -14.4622 C   0  0  0  0  0  0  0  0  0  0  0  0
   25.2224   -9.0670  -14.7992 C   0  0  0  0  0  0  0  0  0  0  0  0
   21.9682   -6.8154  -17.0766 C   0  0  0  0  0  0  0  0  0  0  0  0
   22.1192   -6.1991  -18.1959 O   0  0  0  0  0  0  0  0  0  0  0  0
   18.4612   -7.0305  -17.8628 C   0  0  0  0  0  0  0  0  0  0  0  0
   18.5399   -5.8916  -16.8694 C   0  0  2  0  0  0  0  0  0  0  0  0
   17.5777   -4.7802  -17.1647 C   0  0  0  0  0  0  0  0  0  0  0  0
   19.9618   -5.3094  -16.8317 C   0  0  2  0  0  0  0  0  0  0  0  0
   20.8064   -6.3883  -16.3687 N   0  0  0  0  0  0  0  0  0  0  0  0
   20.0186   -4.0908  -16.0300 C   0  0  0  0  0  0  0  0  0  0  0  0
   20.1849   -4.2470  -14.7717 O   0  0  0  0  0  0  0  0  0  0  0  0
   19.9156   -2.7976  -16.4586 O   0  0  0  0  0  0  0  0  0  0  0  0
  2  1  1  0
  3  2  2  0
  4  2  1  0
  5  4  1  0
  5  6  1  1
  7  8  2  0
  7  5  1  0
  9  7  1  0
 10  9  1  0
 10 11  1  6
 11 12  1  0
 12 13  2  0
 12 17  1  0
 13 14  1  0
 14 15  2  0
 16 15  1  0
 17 16  2  0
 18 10  1  0
 19 18  2  0
 21 23  1  0
 21 20  1  6
 22 21  1  0
 23 24  1  1
 24 18  1  0
 25 27  1  0
 25 23  1  0
 26 25  2  0
M  END
$$$$
