NFV.pdb
     RDKit          3D

 27 27  0  0  1  0  0  0  0  0999 V2000
   26.2098  -16.6483  -19.1537 N   0  0  0  0  0  0  0  0  0  0  0  0
   25.1545  -17.4814  -18.7164 C   0  0  0  0  0  0  0  0  0  0  0  0
   24.0701  -17.4433  -19.3673 O   0  0  0  0  0  0  0  0  0  0  0  0
   25.2766  -18.3816  -17.5402 C   0  0  0  0  0  0  0  0  0  0  0  0
   26.5060  -19.2509  -17.7320 C   0  0  2  0  0  0  0  0  0  0  0  0
   26.3464  -20.1232  -18.8576 N   0  0  0  0  0  0  0  0  0  0  0  0
   26.8403  -20.0178  -16.5048 C   0  0  0  0  0  0  0  0  0  0  0  0
   26.3761  -21.1937  -16.4112 O   0  0  0  0  0  0  0  0  0  0  0  0
   27.6384  -19.4160  -15.5259 N   0  0  0  0  0  0  0  0  0  0  0  0
   27.9702  -20.1378  -14.3032 C   0  0  1  0  0  0  0  0  0  0  0  0
   29.3474  -19.7276  -13.8371 C   0  0  0  0  0  0  0  0  0  0  0  0
   29.7690  -20.2811  -12.5489 C   0  0  0  0  0  0  0  0  0  0  0  0
   30.5730  -21.4267  -12.5351 C   0  0  0  0  0  0  0  0  0  0  0  0
   31.0372  -21.9939  -11.3813 C   0  0  0  0  0  0  0  0  0  0  0  0
   30.7264  -21.4508  -10.1677 C   0  0  0  0  0  0  0  0  0  0  0  0
   29.9347  -20.3211  -10.1594 C   0  0  0  0  0  0  0  0  0  0  0  0
   29.4620  -19.7416  -11.3100 C   0  0  0  0  0  0  0  0  0  0  0  0
   26.8820  -19.8775  -13.3622 C   0  0  0  0  0  0  0  0  0  0  0  0
   26.5056  -18.6751  -13.1013 O   0  0  0  0  0  0  0  0  0  0  0  0
   23.7711  -22.4686  -12.1772 C   0  0  0  0  0  0  0  0  0  0  0  0
   23.8285  -20.9604  -12.0663 C   0  0  2  0  0  0  0  0  0  0  0  0
   23.5253  -20.2594  -13.3566 C   0  0  0  0  0  0  0  0  0  0  0  0
   25.2153  -20.5103  -11.5802 C   0  0  2  0  0  0  0  0  0  0  0  0
   26.1273  -20.8546  -12.6486 N   0  0  0  0  0  0  0  0  0  0  0  0
   25.5387  -21.0887  -10.2795 C   0  0  0  0  0  0  0  0  0  0  0  0
   26.3977  -22.0361  -10.2779 O   0  0  0  0  0  0  0  0  0  0  0  0
   25.0354  -20.7423   -9.0575 O   0  0  0  0  0  0  0  0  0  0  0  0
  2  1  1  0
  3  2  2  0
  4  2  1  0
  5  4  1  0
  5  6  1  6
  7  8  2  0
  7  5  1  0
  9  7  1  0
 10  9  1  0
 10 11  1  1
 11 12  1  0
 12 13  2  0
 12 17  1  0
 13 14  1  0
 14 15  2  0
 16 15  1  0
 17 16  2  0
 18 10  1  0
 19 18  2  0
 21 23  1  0
 21 20  1  6
 22 21  1  0
 23 24  1  6
 24 18  1  0
 25 27  1  0
 25 23  1  0
 26 25  2  0
M  END
$$$$
