NFV.pdb
     RDKit          3D

 27 27  0  0  1  0  0  0  0  0999 V2000
   19.5025  -22.7822  -12.2778 N   0  0  0  0  0  0  0  0  0  0  0  0
   19.4889  -21.4251  -12.6739 C   0  0  0  0  0  0  0  0  0  0  0  0
   18.3705  -20.9126  -12.9701 O   0  0  0  0  0  0  0  0  0  0  0  0
   20.7218  -20.5989  -12.7520 C   0  0  0  0  0  0  0  0  0  0  0  0
   21.5127  -20.8024  -11.4726 C   0  0  2  0  0  0  0  0  0  0  0  0
   20.8367  -20.2160  -10.3533 N   0  0  0  0  0  0  0  0  0  0  0  0
   22.9001  -20.2854  -11.5897 C   0  0  0  0  0  0  0  0  0  0  0  0
   23.0406  -19.0416  -11.7899 O   0  0  0  0  0  0  0  0  0  0  0  0
   23.9690  -21.1809  -11.4757 N   0  0  0  0  0  0  0  0  0  0  0  0
   25.3428  -20.6962  -11.5368 C   0  0  1  0  0  0  0  0  0  0  0  0
   26.1730  -21.4101  -10.4961 C   0  0  0  0  0  0  0  0  0  0  0  0
   26.2131  -20.7767   -9.1768 C   0  0  0  0  0  0  0  0  0  0  0  0
   26.8766  -19.5527   -9.0336 C   0  0  0  0  0  0  0  0  0  0  0  0
   26.9386  -18.8761   -7.8474 C   0  0  0  0  0  0  0  0  0  0  0  0
   26.3403  -19.3815   -6.7288 C   0  0  0  0  0  0  0  0  0  0  0  0
   25.6809  -20.5873   -6.8488 C   0  0  0  0  0  0  0  0  0  0  0  0
   25.6111  -21.2767   -8.0332 C   0  0  0  0  0  0  0  0  0  0  0  0
   25.7803  -20.8699  -12.9210 C   0  0  0  0  0  0  0  0  0  0  0  0
   25.4563  -21.9194  -13.5911 O   0  0  0  0  0  0  0  0  0  0  0  0
   28.6058  -18.3330  -14.9066 C   0  0  0  0  0  0  0  0  0  0  0  0
   27.3690  -18.8404  -15.6159 C   0  0  2  0  0  0  0  0  0  0  0  0
   26.2014  -17.9054  -15.5132 C   0  0  0  0  0  0  0  0  0  0  0  0
   26.9505  -20.2080  -15.0532 C   0  0  2  0  0  0  0  0  0  0  0  0
   26.5729  -19.9589  -13.6794 N   0  0  0  0  0  0  0  0  0  0  0  0
   28.0014  -21.2046  -15.2357 C   0  0  0  0  0  0  0  0  0  0  0  0
   28.2314  -21.5726  -16.4386 O   0  0  0  0  0  0  0  0  0  0  0  0
   28.7739  -21.7962  -14.2766 O   0  0  0  0  0  0  0  0  0  0  0  0
  2  1  1  0
  3  2  2  0
  4  2  1  0
  5  4  1  0
  5  6  1  1
  7  8  2  0
  7  5  1  0
  9  7  1  0
 10  9  1  0
 10 11  1  1
 11 12  1  0
 12 13  2  0
 12 17  1  0
 13 14  1  0
 14 15  2  0
 16 15  1  0
 17 16  2  0
 18 10  1  0
 19 18  2  0
 21 23  1  0
 21 20  1  1
 22 21  1  0
 23 24  1  1
 24 18  1  0
 25 27  1  0
 25 23  1  0
 26 25  2  0
M  END
$$$$
