NFV.pdb
     RDKit          3D

 27 27  0  0  1  0  0  0  0  0999 V2000
   16.6267  -34.2206   -4.6230 N   0  0  0  0  0  0  0  0  0  0  0  0
   16.6318  -32.8797   -4.1748 C   0  0  0  0  0  0  0  0  0  0  0  0
   15.8653  -32.0626   -4.7630 O   0  0  0  0  0  0  0  0  0  0  0  0
   17.4918  -32.4096   -3.0576 C   0  0  0  0  0  0  0  0  0  0  0  0
   18.0164  -31.0295   -3.4092 C   0  0  2  0  0  0  0  0  0  0  0  0
   18.9418  -31.0957   -4.5014 N   0  0  0  0  0  0  0  0  0  0  0  0
   18.6228  -30.3507   -2.2355 C   0  0  0  0  0  0  0  0  0  0  0  0
   19.3752  -31.0455   -1.4885 O   0  0  0  0  0  0  0  0  0  0  0  0
   18.3395  -28.9987   -2.0133 N   0  0  0  0  0  0  0  0  0  0  0  0
   19.0017  -28.2777   -0.9328 C   0  0  1  0  0  0  0  0  0  0  0  0
   19.4148  -26.9096   -1.4226 C   0  0  0  0  0  0  0  0  0  0  0  0
   19.9453  -26.0063   -0.3999 C   0  0  0  0  0  0  0  0  0  0  0  0
   19.0495  -25.3269    0.4336 C   0  0  0  0  0  0  0  0  0  0  0  0
   19.4560  -24.4881    1.4335 C   0  0  0  0  0  0  0  0  0  0  0  0
   20.7852  -24.2758    1.6629 C   0  0  0  0  0  0  0  0  0  0  0  0
   21.6849  -24.9362    0.8521 C   0  0  0  0  0  0  0  0  0  0  0  0
   21.2904  -25.7808   -0.1549 C   0  0  0  0  0  0  0  0  0  0  0  0
   18.0763  -28.2898    0.1991 C   0  0  0  0  0  0  0  0  0  0  0  0
   16.8488  -27.9324    0.0546 O   0  0  0  0  0  0  0  0  0  0  0  0
   18.4828  -30.3969    3.7721 C   0  0  0  0  0  0  0  0  0  0  0  0
   17.2048  -29.7298    3.3117 C   0  0  2  0  0  0  0  0  0  0  0  0
   16.4181  -30.5612    2.3431 C   0  0  0  0  0  0  0  0  0  0  0  0
   17.5130  -28.3751    2.6545 C   0  0  2  0  0  0  0  0  0  0  0  0
   18.3796  -28.6785    1.5371 N   0  0  0  0  0  0  0  0  0  0  0  0
   18.0571  -27.4250    3.6200 C   0  0  0  0  0  0  0  0  0  0  0  0
   19.3264  -27.4385    3.7754 O   0  0  0  0  0  0  0  0  0  0  0  0
   17.3759  -26.5185    4.3821 O   0  0  0  0  0  0  0  0  0  0  0  0
  2  1  1  0
  3  2  2  0
  4  2  1  0
  5  4  1  0
  5  6  1  6
  7  8  2  0
  7  5  1  0
  9  7  1  0
 10  9  1  0
 10 11  1  6
 11 12  1  0
 12 13  2  0
 12 17  1  0
 13 14  1  0
 14 15  2  0
 16 15  1  0
 17 16  2  0
 18 10  1  0
 19 18  2  0
 21 23  1  0
 21 20  1  6
 22 21  1  0
 23 24  1  6
 24 18  1  0
 25 27  1  0
 25 23  1  0
 26 25  2  0
M  END
$$$$
