NFV.pdb
     RDKit          3D

 27 27  0  0  1  0  0  0  0  0999 V2000
   18.8396  -12.9528  -22.1957 N   0  0  0  0  0  0  0  0  0  0  0  0
   19.6350  -11.9808  -21.5466 C   0  0  0  0  0  0  0  0  0  0  0  0
   20.7370  -11.6707  -22.0856 O   0  0  0  0  0  0  0  0  0  0  0  0
   19.2257  -11.3258  -20.2768 C   0  0  0  0  0  0  0  0  0  0  0  0
   20.2616  -11.6536  -19.2170 C   0  0  2  0  0  0  0  0  0  0  0  0
   20.2279  -13.0461  -18.8804 N   0  0  0  0  0  0  0  0  0  0  0  0
   20.1040  -10.8073  -18.0066 C   0  0  0  0  0  0  0  0  0  0  0  0
   19.1411  -11.0810  -17.2289 O   0  0  0  0  0  0  0  0  0  0  0  0
   21.0107   -9.7650  -17.7856 N   0  0  0  0  0  0  0  0  0  0  0  0
   20.8605   -8.8948  -16.6253 C   0  0  1  0  0  0  0  0  0  0  0  0
   22.0854   -9.0121  -15.7489 C   0  0  0  0  0  0  0  0  0  0  0  0
   22.1600   -8.0622  -14.6374 C   0  0  0  0  0  0  0  0  0  0  0  0
   21.7579   -8.4785  -13.3631 C   0  0  0  0  0  0  0  0  0  0  0  0
   21.8213   -7.6693  -12.2633 C   0  0  0  0  0  0  0  0  0  0  0  0
   22.2914   -6.3916  -12.3686 C   0  0  0  0  0  0  0  0  0  0  0  0
   22.6929   -5.9616  -13.6164 C   0  0  0  0  0  0  0  0  0  0  0  0
   22.6345   -6.7634  -14.7285 C   0  0  0  0  0  0  0  0  0  0  0  0
   20.5830   -7.5571  -17.1461 C   0  0  0  0  0  0  0  0  0  0  0  0
   21.3425   -7.0224  -18.0365 O   0  0  0  0  0  0  0  0  0  0  0  0
   16.9733   -5.4214  -16.5871 C   0  0  0  0  0  0  0  0  0  0  0  0
   17.9617   -5.1603  -17.7029 C   0  0  2  0  0  0  0  0  0  0  0  0
   17.7660   -6.0558  -18.8895 C   0  0  0  0  0  0  0  0  0  0  0  0
   19.4022   -5.3306  -17.1948 C   0  0  2  0  0  0  0  0  0  0  0  0
   19.4992   -6.7099  -16.7705 N   0  0  0  0  0  0  0  0  0  0  0  0
   19.7270   -4.3432  -16.1700 C   0  0  0  0  0  0  0  0  0  0  0  0
   19.5454   -4.7042  -14.9567 O   0  0  0  0  0  0  0  0  0  0  0  0
   20.2033   -3.0749  -16.3464 O   0  0  0  0  0  0  0  0  0  0  0  0
  2  1  1  0
  3  2  2  0
  4  2  1  0
  5  4  1  0
  5  6  1  1
  7  8  2  0
  7  5  1  0
  9  7  1  0
 10  9  1  0
 10 11  1  6
 11 12  1  0
 12 13  2  0
 12 17  1  0
 13 14  1  0
 14 15  2  0
 16 15  1  0
 17 16  2  0
 18 10  1  0
 19 18  2  0
 21 23  1  0
 21 20  1  1
 22 21  1  0
 23 24  1  1
 24 18  1  0
 25 27  1  0
 25 23  1  0
 26 25  2  0
M  END
$$$$
