NFV.pdb
     RDKit          3D

 27 27  0  0  1  0  0  0  0  0999 V2000
   25.7526  -21.9818  -15.8153 N   0  0  0  0  0  0  0  0  0  0  0  0
   26.2815  -20.9282  -15.0348 C   0  0  0  0  0  0  0  0  0  0  0  0
   26.2741  -19.7667  -15.5367 O   0  0  0  0  0  0  0  0  0  0  0  0
   26.8350  -21.1383  -13.6716 C   0  0  0  0  0  0  0  0  0  0  0  0
   25.7221  -20.9076  -12.6656 C   0  0  2  0  0  0  0  0  0  0  0  0
   25.1963  -19.5793  -12.7784 N   0  0  0  0  0  0  0  0  0  0  0  0
   26.1627  -21.1918  -11.2759 C   0  0  0  0  0  0  0  0  0  0  0  0
   26.5544  -22.3702  -11.0212 O   0  0  0  0  0  0  0  0  0  0  0  0
   26.1249  -20.1625  -10.3291 N   0  0  0  0  0  0  0  0  0  0  0  0
   26.5167  -20.4201   -8.9485 C   0  0  1  0  0  0  0  0  0  0  0  0
   27.4521  -19.3298   -8.4811 C   0  0  0  0  0  0  0  0  0  0  0  0
   27.8859  -19.4250   -7.0860 C   0  0  0  0  0  0  0  0  0  0  0  0
   28.7287  -20.4771   -6.7096 C   0  0  0  0  0  0  0  0  0  0  0  0
   29.2063  -20.6270   -5.4376 C   0  0  0  0  0  0  0  0  0  0  0  0
   28.8709  -19.7335   -4.4612 C   0  0  0  0  0  0  0  0  0  0  0  0
   28.0408  -18.6889   -4.8116 C   0  0  0  0  0  0  0  0  0  0  0  0
   27.5543  -18.5266   -6.0845 C   0  0  0  0  0  0  0  0  0  0  0  0
   25.2764  -20.5570   -8.1864 C   0  0  0  0  0  0  0  0  0  0  0  0
   24.3291  -19.6942   -8.3027 O   0  0  0  0  0  0  0  0  0  0  0  0
   21.9706  -23.2566   -5.7853 C   0  0  0  0  0  0  0  0  0  0  0  0
   23.3569  -23.1084   -6.3737 C   0  0  2  0  0  0  0  0  0  0  0  0
   24.4193  -23.7932   -5.5672 C   0  0  0  0  0  0  0  0  0  0  0  0
   23.7272  -21.6227   -6.5077 C   0  0  2  0  0  0  0  0  0  0  0  0
   24.9570  -21.6006   -7.2686 N   0  0  0  0  0  0  0  0  0  0  0  0
   23.7937  -20.9694   -5.2041 C   0  0  0  0  0  0  0  0  0  0  0  0
   24.9537  -20.8796   -4.6732 O   0  0  0  0  0  0  0  0  0  0  0  0
   22.7659  -20.4393   -4.4766 O   0  0  0  0  0  0  0  0  0  0  0  0
  2  1  1  0
  3  2  2  0
  4  2  1  0
  5  4  1  0
  5  6  1  1
  7  8  2  0
  7  5  1  0
  9  7  1  0
 10  9  1  0
 10 11  1  1
 11 12  1  0
 12 13  2  0
 12 17  1  0
 13 14  1  0
 14 15  2  0
 16 15  1  0
 17 16  2  0
 18 10  1  0
 19 18  2  0
 21 23  1  0
 21 20  1  1
 22 21  1  0
 23 24  1  1
 24 18  1  0
 25 27  1  0
 25 23  1  0
 26 25  2  0
M  END
$$$$
