NFV.pdb
     RDKit          3D

 27 27  0  0  1  0  0  0  0  0999 V2000
   24.9001  -18.8953  -14.2008 N   0  0  0  0  0  0  0  0  0  0  0  0
   24.1309  -19.9261  -13.6136 C   0  0  0  0  0  0  0  0  0  0  0  0
   23.2402  -20.4716  -14.3279 O   0  0  0  0  0  0  0  0  0  0  0  0
   24.3316  -20.3792  -12.2124 C   0  0  0  0  0  0  0  0  0  0  0  0
   25.7941  -20.7445  -12.0354 C   0  0  2  0  0  0  0  0  0  0  0  0
   26.1660  -21.8122  -12.9159 N   0  0  0  0  0  0  0  0  0  0  0  0
   26.1157  -21.0787  -10.6244 C   0  0  0  0  0  0  0  0  0  0  0  0
   25.8569  -22.2567  -10.2340 O   0  0  0  0  0  0  0  0  0  0  0  0
   26.6796  -20.0939   -9.8062 N   0  0  0  0  0  0  0  0  0  0  0  0
   27.0234  -20.3976   -8.4222 C   0  0  1  0  0  0  0  0  0  0  0  0
   28.1583  -19.5039   -7.9800 C   0  0  0  0  0  0  0  0  0  0  0  0
   28.4724  -19.5426   -6.5506 C   0  0  0  0  0  0  0  0  0  0  0  0
   29.2311  -20.6083   -6.0530 C   0  0  0  0  0  0  0  0  0  0  0  0
   29.5963  -20.7101   -4.7397 C   0  0  0  0  0  0  0  0  0  0  0  0
   29.2254  -19.7518   -3.8405 C   0  0  0  0  0  0  0  0  0  0  0  0
   28.4769  -18.6927   -4.3109 C   0  0  0  0  0  0  0  0  0  0  0  0
   28.1036  -18.5782   -5.6264 C   0  0  0  0  0  0  0  0  0  0  0  0
   25.7862  -20.2737   -7.6530 C   0  0  0  0  0  0  0  0  0  0  0  0
   24.9866  -19.2832   -7.8400 O   0  0  0  0  0  0  0  0  0  0  0  0
   23.6950  -23.3685   -5.7519 C   0  0  0  0  0  0  0  0  0  0  0  0
   23.1496  -22.0243   -6.1829 C   0  0  2  0  0  0  0  0  0  0  0  0
   22.8345  -21.9545   -7.6472 C   0  0  0  0  0  0  0  0  0  0  0  0
   24.1482  -20.9061   -5.8444 C   0  0  2  0  0  0  0  0  0  0  0  0
   25.3160  -21.1761   -6.6540 N   0  0  0  0  0  0  0  0  0  0  0  0
   24.3952  -20.8279   -4.4079 C   0  0  0  0  0  0  0  0  0  0  0  0
   25.5763  -21.1259   -4.0184 O   0  0  0  0  0  0  0  0  0  0  0  0
   23.5175  -20.4742   -3.4225 O   0  0  0  0  0  0  0  0  0  0  0  0
  2  1  1  0
  3  2  2  0
  4  2  1  0
  5  4  1  0
  5  6  1  6
  7  8  2  0
  7  5  1  0
  9  7  1  0
 10  9  1  0
 10 11  1  1
 11 12  1  0
 12 13  2  0
 12 17  1  0
 13 14  1  0
 14 15  2  0
 16 15  1  0
 17 16  2  0
 18 10  1  0
 19 18  2  0
 21 23  1  0
 21 20  1  6
 22 21  1  0
 23 24  1  6
 24 18  1  0
 25 27  1  0
 25 23  1  0
 26 25  2  0
M  END
$$$$
