NFV.pdb
     RDKit          3D

 27 27  0  0  1  0  0  0  0  0999 V2000
   16.1165   -9.6706  -17.0455 N   0  0  0  0  0  0  0  0  0  0  0  0
   15.2819  -10.1505  -16.0101 C   0  0  0  0  0  0  0  0  0  0  0  0
   14.0641  -10.3543  -16.2865 O   0  0  0  0  0  0  0  0  0  0  0  0
   15.7802  -10.4171  -14.6355 C   0  0  0  0  0  0  0  0  0  0  0  0
   17.2304   -9.9752  -14.5611 C   0  0  2  0  0  0  0  0  0  0  0  0
   18.1131  -11.0571  -14.8833 N   0  0  0  0  0  0  0  0  0  0  0  0
   17.5645   -9.3888  -13.2380 C   0  0  0  0  0  0  0  0  0  0  0  0
   17.6167  -10.1804  -12.2493 O   0  0  0  0  0  0  0  0  0  0  0  0
   17.8019   -8.0130  -13.1469 N   0  0  0  0  0  0  0  0  0  0  0  0
   18.2190   -7.4222  -11.8808 C   0  0  1  0  0  0  0  0  0  0  0  0
   19.5521   -6.7353  -12.0633 C   0  0  0  0  0  0  0  0  0  0  0  0
   20.6978   -7.6239  -12.2659 C   0  0  0  0  0  0  0  0  0  0  0  0
   21.1993   -8.3414  -11.1739 C   0  0  0  0  0  0  0  0  0  0  0  0
   22.2455   -9.2152  -11.2769 C   0  0  0  0  0  0  0  0  0  0  0  0
   22.8564   -9.4267  -12.4796 C   0  0  0  0  0  0  0  0  0  0  0  0
   22.3771   -8.7288  -13.5689 C   0  0  0  0  0  0  0  0  0  0  0  0
   21.3279   -7.8489  -13.4794 C   0  0  0  0  0  0  0  0  0  0  0  0
   17.1201   -6.5616  -11.4453 C   0  0  0  0  0  0  0  0  0  0  0  0
   16.5871   -5.7103  -12.2494 O   0  0  0  0  0  0  0  0  0  0  0  0
   15.4266   -6.5476   -7.4627 C   0  0  0  0  0  0  0  0  0  0  0  0
   14.6350   -6.2987   -8.7282 C   0  0  2  0  0  0  0  0  0  0  0  0
   14.0867   -7.5527   -9.3406 C   0  0  0  0  0  0  0  0  0  0  0  0
   15.5055   -5.5846   -9.7743 C   0  0  2  0  0  0  0  0  0  0  0  0
   16.5172   -6.5462  -10.1532 N   0  0  0  0  0  0  0  0  0  0  0  0
   16.0170   -4.3152   -9.2664 C   0  0  0  0  0  0  0  0  0  0  0  0
   15.1609   -3.3765   -9.1201 O   0  0  0  0  0  0  0  0  0  0  0  0
   17.3029   -4.0033   -8.9261 O   0  0  0  0  0  0  0  0  0  0  0  0
  2  1  1  0
  3  2  2  0
  4  2  1  0
  5  4  1  0
  5  6  1  1
  7  8  2  0
  7  5  1  0
  9  7  1  0
 10  9  1  0
 10 11  1  6
 11 12  1  0
 12 13  2  0
 12 17  1  0
 13 14  1  0
 14 15  2  0
 16 15  1  0
 17 16  2  0
 18 10  1  0
 19 18  2  0
 21 23  1  0
 21 20  1  1
 22 21  1  0
 23 24  1  1
 24 18  1  0
 25 27  1  0
 25 23  1  0
 26 25  2  0
M  END
$$$$
