NFV.pdb
     RDKit          3D

 27 27  0  0  1  0  0  0  0  0999 V2000
   22.3468  -11.6908  -21.5505 N   0  0  0  0  0  0  0  0  0  0  0  0
   22.7737  -12.2043  -20.3043 C   0  0  0  0  0  0  0  0  0  0  0  0
   23.1872  -13.3998  -20.2741 O   0  0  0  0  0  0  0  0  0  0  0  0
   22.7522  -11.4003  -19.0546 C   0  0  0  0  0  0  0  0  0  0  0  0
   22.2165  -10.0194  -19.3864 C   0  0  2  0  0  0  0  0  0  0  0  0
   23.1732   -9.2664  -20.1421 N   0  0  0  0  0  0  0  0  0  0  0  0
   21.7958   -9.2801  -18.1689 C   0  0  0  0  0  0  0  0  0  0  0  0
   20.9095   -9.8191  -17.4403 O   0  0  0  0  0  0  0  0  0  0  0  0
   22.3877   -8.0438  -17.8883 N   0  0  0  0  0  0  0  0  0  0  0  0
   22.0171   -7.3086  -16.6849 C   0  0  1  0  0  0  0  0  0  0  0  0
   23.2559   -7.0297  -15.8665 C   0  0  0  0  0  0  0  0  0  0  0  0
   23.8874   -8.2015  -15.2572 C   0  0  0  0  0  0  0  0  0  0  0  0
   25.1573   -8.5917  -15.6975 C   0  0  0  0  0  0  0  0  0  0  0  0
   25.8337   -9.6537  -15.1653 C   0  0  0  0  0  0  0  0  0  0  0  0
   25.2822  -10.3930  -14.1585 C   0  0  0  0  0  0  0  0  0  0  0  0
   24.0306  -10.0248  -13.7100 C   0  0  0  0  0  0  0  0  0  0  0  0
   23.3408   -8.9612  -14.2353 C   0  0  0  0  0  0  0  0  0  0  0  0
   21.2782   -6.1293  -17.1331 C   0  0  0  0  0  0  0  0  0  0  0  0
   21.8062   -5.2885  -17.9514 O   0  0  0  0  0  0  0  0  0  0  0  0
   18.1782   -5.7170  -19.0381 C   0  0  0  0  0  0  0  0  0  0  0  0
   17.9786   -4.9189  -17.7680 C   0  0  2  0  0  0  0  0  0  0  0  0
   17.1670   -3.6746  -17.9713 C   0  0  0  0  0  0  0  0  0  0  0  0
   19.3352   -4.5237  -17.1634 C   0  0  2  0  0  0  0  0  0  0  0  0
   19.9513   -5.7675  -16.7565 N   0  0  0  0  0  0  0  0  0  0  0  0
   19.1786   -3.5340  -16.1020 C   0  0  0  0  0  0  0  0  0  0  0  0
   19.1215   -2.3108  -16.4710 O   0  0  0  0  0  0  0  0  0  0  0  0
   19.0851   -3.7525  -14.7566 O   0  0  0  0  0  0  0  0  0  0  0  0
  2  1  1  0
  3  2  2  0
  4  2  1  0
  5  4  1  0
  5  6  1  1
  7  8  2  0
  7  5  1  0
  9  7  1  0
 10  9  1  0
 10 11  1  6
 11 12  1  0
 12 13  2  0
 12 17  1  0
 13 14  1  0
 14 15  2  0
 16 15  1  0
 17 16  2  0
 18 10  1  0
 19 18  2  0
 21 23  1  0
 21 20  1  6
 22 21  1  0
 23 24  1  1
 24 18  1  0
 25 27  1  0
 25 23  1  0
 26 25  2  0
M  END
$$$$
