NFV.pdb
     RDKit          3D

 27 27  0  0  1  0  0  0  0  0999 V2000
   29.0428  -19.3327  -18.1869 N   0  0  0  0  0  0  0  0  0  0  0  0
   27.6533  -19.4189  -18.4331 C   0  0  0  0  0  0  0  0  0  0  0  0
   27.1490  -18.5868  -19.2421 O   0  0  0  0  0  0  0  0  0  0  0  0
   26.7843  -20.4353  -17.7844 C   0  0  0  0  0  0  0  0  0  0  0  0
   27.6367  -21.2495  -16.8282 C   0  0  2  0  0  0  0  0  0  0  0  0
   28.1092  -22.4479  -17.4560 N   0  0  0  0  0  0  0  0  0  0  0  0
   26.9163  -21.5557  -15.5660 C   0  0  0  0  0  0  0  0  0  0  0  0
   26.1678  -22.5788  -15.5590 O   0  0  0  0  0  0  0  0  0  0  0  0
   27.0946  -20.7143  -14.4625 N   0  0  0  0  0  0  0  0  0  0  0  0
   26.3809  -20.9743  -13.2180 C   0  0  1  0  0  0  0  0  0  0  0  0
   27.1494  -20.3735  -12.0645 C   0  0  0  0  0  0  0  0  0  0  0  0
   26.4720  -20.4099  -10.7671 C   0  0  0  0  0  0  0  0  0  0  0  0
   26.3192  -21.6402  -10.1176 C   0  0  0  0  0  0  0  0  0  0  0  0
   25.7270  -21.7641   -8.8918 C   0  0  0  0  0  0  0  0  0  0  0  0
   25.2499  -20.6645   -8.2379 C   0  0  0  0  0  0  0  0  0  0  0  0
   25.3907  -19.4419   -8.8612 C   0  0  0  0  0  0  0  0  0  0  0  0
   25.9830  -19.3034  -10.0913 C   0  0  0  0  0  0  0  0  0  0  0  0
   25.0239  -20.4637  -13.4062 C   0  0  0  0  0  0  0  0  0  0  0  0
   24.8200  -19.2725  -13.8476 O   0  0  0  0  0  0  0  0  0  0  0  0
   21.5565  -22.6501  -14.1471 C   0  0  0  0  0  0  0  0  0  0  0  0
   21.7959  -21.1781  -14.4042 C   0  0  2  0  0  0  0  0  0  0  0  0
   22.6036  -20.9161  -15.6400 C   0  0  0  0  0  0  0  0  0  0  0  0
   22.5120  -20.5335  -13.2069 C   0  0  2  0  0  0  0  0  0  0  0  0
   23.8107  -21.1676  -13.1492 N   0  0  0  0  0  0  0  0  0  0  0  0
   21.7160  -20.6405  -11.9880 C   0  0  0  0  0  0  0  0  0  0  0  0
   22.1002  -21.5118  -11.1343 O   0  0  0  0  0  0  0  0  0  0  0  0
   20.6060  -19.9223  -11.6436 O   0  0  0  0  0  0  0  0  0  0  0  0
  2  1  1  0
  3  2  2  0
  4  2  1  0
  5  4  1  0
  5  6  1  6
  7  8  2  0
  7  5  1  0
  9  7  1  0
 10  9  1  0
 10 11  1  1
 11 12  1  0
 12 13  2  0
 12 17  1  0
 13 14  1  0
 14 15  2  0
 16 15  1  0
 17 16  2  0
 18 10  1  0
 19 18  2  0
 21 23  1  0
 21 20  1  1
 22 21  1  0
 23 24  1  1
 24 18  1  0
 25 27  1  0
 25 23  1  0
 26 25  2  0
M  END
$$$$
