VQL.pdb
     RDKit          3D

 25 24  0  0  1  0  0  0  0  0999 V2000
    8.2737  -12.3710   18.2418 C   0  0  0  0  0  0  0  0  0  0  0  0
    7.8525  -13.2634   19.4162 C   0  0  2  0  0  0  0  0  0  0  0  0
    8.1235  -12.5069   20.6835 C   0  0  0  0  0  0  0  0  0  0  0  0
    8.5850  -14.5857   19.3487 C   0  0  2  0  0  0  0  0  0  0  0  0
    8.3851  -15.2600   18.0984 N   0  0  0  0  0  0  0  0  0  0  0  0
    8.1882  -15.3990   20.5148 C   0  0  0  0  0  0  0  0  0  0  0  0
    7.1292  -16.0733   20.4259 O   0  0  0  0  0  0  0  0  0  0  0  0
   10.5833  -20.1194   22.8540 N   0  0  0  0  0  0  0  0  0  0  0  0
   11.2575  -18.9555   22.4497 C   0  0  0  0  0  0  0  0  0  0  0  0
   12.4564  -19.0518   22.1187 O   0  0  0  0  0  0  0  0  0  0  0  0
   10.5977  -17.6332   22.4037 C   0  0  0  0  0  0  0  0  0  0  0  0
    9.1769  -17.6362   22.8351 C   0  0  0  0  0  0  0  0  0  0  0  0
    8.4887  -16.2927   22.7979 C   0  0  2  0  0  0  0  0  0  0  0  0
    8.9241  -15.4656   21.7220 N   0  0  0  0  0  0  0  0  0  0  0  0
    8.8759  -15.6199   24.0899 C   0  0  0  0  0  0  0  0  0  0  0  0
    9.9459  -14.9735   24.1043 O   0  0  0  0  0  0  0  0  0  0  0  0
    6.2888  -12.8104   25.7850 C   0  0  0  0  0  0  0  0  0  0  0  0
    7.1972  -13.1040   26.9947 C   0  0  2  0  0  0  0  0  0  0  0  0
    8.5576  -12.5491   26.7287 C   0  0  0  0  0  0  0  0  0  0  0  0
    7.2493  -14.5938   27.1208 C   0  0  0  0  0  0  0  0  0  0  0  0
    8.4951  -15.1322   26.4738 C   0  0  2  0  0  0  0  0  0  0  0  0
    8.0450  -15.7347   25.2137 N   0  0  0  0  0  0  0  0  0  0  0  0
    9.1801  -16.1423   27.3055 C   0  0  0  0  0  0  0  0  0  0  0  0
   10.0761  -15.6756   28.2907 O   0  0  0  0  0  0  0  0  0  0  0  0
    9.0543  -17.3747   27.2343 O   0  0  0  0  0  0  0  0  0  0  0  0
  2  1  1  6
  2  4  1  0
  3  2  1  0
  4  5  1  6
  6 14  1  0
  6  4  1  0
  7  6  2  0
  9  8  1  0
  9 11  1  0
 10  9  2  0
 12 11  1  0
 13 12  1  6
 13 14  1  0
 15 13  1  0
 16 15  2  0
 18 20  1  0
 18 17  1  6
 19 18  1  0
 21 20  1  1
 21 22  1  0
 21 23  1  0
 22 15  1  0
 23 24  1  0
 25 23  2  0
M  END
$$$$
