VQL.pdb
     RDKit          3D

 25 24  0  0  1  0  0  0  0  0999 V2000
    7.8824  -12.5479   18.4102 C   0  0  0  0  0  0  0  0  0  0  0  0
    7.7405  -13.3400   19.7161 C   0  0  2  0  0  0  0  0  0  0  0  0
    8.4532  -12.5752   20.7926 C   0  0  0  0  0  0  0  0  0  0  0  0
    8.2791  -14.7418   19.5311 C   0  0  2  0  0  0  0  0  0  0  0  0
    7.6669  -15.4232   18.4272 N   0  0  0  0  0  0  0  0  0  0  0  0
    8.1395  -15.4677   20.8088 C   0  0  0  0  0  0  0  0  0  0  0  0
    7.0043  -15.9255   21.1016 O   0  0  0  0  0  0  0  0  0  0  0  0
   10.8350  -20.4936   25.3304 N   0  0  0  0  0  0  0  0  0  0  0  0
   10.7373  -19.6782   24.1910 C   0  0  0  0  0  0  0  0  0  0  0  0
   11.5292  -19.8819   23.2489 O   0  0  0  0  0  0  0  0  0  0  0  0
    9.7351  -18.5976   24.0736 C   0  0  0  0  0  0  0  0  0  0  0  0
    9.9845  -17.6412   22.9654 C   0  0  0  0  0  0  0  0  0  0  0  0
    9.0174  -16.4847   22.8816 C   0  0  2  0  0  0  0  0  0  0  0  0
    9.2013  -15.6788   21.7206 N   0  0  0  0  0  0  0  0  0  0  0  0
    9.3176  -15.6364   24.0908 C   0  0  0  0  0  0  0  0  0  0  0  0
   10.4827  -15.2001   24.2131 O   0  0  0  0  0  0  0  0  0  0  0  0
    8.1987  -11.9166   25.6089 C   0  0  0  0  0  0  0  0  0  0  0  0
    7.0548  -12.9479   25.6599 C   0  0  2  0  0  0  0  0  0  0  0  0
    5.7894  -12.2539   26.0424 C   0  0  0  0  0  0  0  0  0  0  0  0
    7.4454  -13.9475   26.7022 C   0  0  0  0  0  0  0  0  0  0  0  0
    8.6768  -14.6971   26.2754 C   0  0  2  0  0  0  0  0  0  0  0  0
    8.3057  -15.3663   25.0234 N   0  0  0  0  0  0  0  0  0  0  0  0
    9.1149  -15.6925   27.2748 C   0  0  0  0  0  0  0  0  0  0  0  0
    9.8918  -15.2293   28.3579 O   0  0  0  0  0  0  0  0  0  0  0  0
    8.8728  -16.9094   27.2690 O   0  0  0  0  0  0  0  0  0  0  0  0
  2  1  1  6
  2  4  1  0
  3  2  1  0
  4  5  1  6
  6 14  1  0
  6  4  1  0
  7  6  2  0
  9  8  1  0
  9 11  1  0
 10  9  2  0
 12 11  1  0
 13 12  1  6
 13 14  1  0
 15 13  1  0
 16 15  2  0
 18 20  1  0
 18 17  1  1
 19 18  1  0
 21 20  1  1
 21 22  1  0
 21 23  1  0
 22 15  1  0
 23 24  1  0
 25 23  2  0
M  END
$$$$
