VQL.pdb
     RDKit          3D

 25 24  0  0  1  0  0  0  0  0999 V2000
    8.2133  -12.7926   19.0192 C   0  0  0  0  0  0  0  0  0  0  0  0
    7.8193  -13.5359   20.3019 C   0  0  2  0  0  0  0  0  0  0  0  0
    8.4003  -12.7820   21.4620 C   0  0  0  0  0  0  0  0  0  0  0  0
    8.2924  -14.9715   20.2329 C   0  0  2  0  0  0  0  0  0  0  0  0
    7.8905  -15.6235   19.0201 N   0  0  0  0  0  0  0  0  0  0  0  0
    7.8322  -15.6732   21.4472 C   0  0  0  0  0  0  0  0  0  0  0  0
    6.9345  -16.5455   21.3153 O   0  0  0  0  0  0  0  0  0  0  0  0
   11.6817  -19.3190   22.5522 N   0  0  0  0  0  0  0  0  0  0  0  0
   10.9135  -19.5360   23.7078 C   0  0  0  0  0  0  0  0  0  0  0  0
   11.1071  -20.5826   24.3584 O   0  0  0  0  0  0  0  0  0  0  0  0
    9.8934  -18.5724   24.1735 C   0  0  0  0  0  0  0  0  0  0  0  0
    9.6333  -17.4479   23.2392 C   0  0  0  0  0  0  0  0  0  0  0  0
    8.5436  -16.4938   23.6658 C   0  0  2  0  0  0  0  0  0  0  0  0
    8.3378  -15.4250   22.7457 N   0  0  0  0  0  0  0  0  0  0  0  0
    9.0280  -15.9039   24.9655 C   0  0  0  0  0  0  0  0  0  0  0  0
    9.3307  -16.6993   25.8814 O   0  0  0  0  0  0  0  0  0  0  0  0
    7.9733  -11.5177   25.8056 C   0  0  0  0  0  0  0  0  0  0  0  0
    7.0707  -12.7667   25.8155 C   0  0  2  0  0  0  0  0  0  0  0  0
    5.6973  -12.3722   26.2482 C   0  0  0  0  0  0  0  0  0  0  0  0
    7.6839  -13.7122   26.7994 C   0  0  0  0  0  0  0  0  0  0  0  0
    9.1299  -13.9529   26.4652 C   0  0  2  0  0  0  0  0  0  0  0  0
    9.1236  -14.5122   25.1085 N   0  0  0  0  0  0  0  0  0  0  0  0
    9.7839  -14.8910   27.4000 C   0  0  0  0  0  0  0  0  0  0  0  0
    9.7335  -16.2655   27.0847 O   0  0  0  0  0  0  0  0  0  0  0  0
   10.3820  -14.6018   28.4479 O   0  0  0  0  0  0  0  0  0  0  0  0
  2  1  1  6
  2  4  1  0
  3  2  1  0
  4  5  1  6
  6 14  1  0
  6  4  1  0
  7  6  2  0
  9  8  1  0
  9 11  1  0
 10  9  2  0
 12 11  1  0
 13 12  1  6
 13 14  1  0
 15 13  1  0
 16 15  2  0
 18 20  1  0
 18 17  1  1
 19 18  1  0
 21 20  1  1
 21 22  1  0
 21 23  1  0
 22 15  1  0
 23 24  1  0
 25 23  2  0
M  END
$$$$
