VQL.pdb
     RDKit          3D

 25 24  0  0  1  0  0  0  0  0999 V2000
    7.5333  -12.7151   18.5176 C   0  0  0  0  0  0  0  0  0  0  0  0
    7.7576  -13.4827   19.8266 C   0  0  2  0  0  0  0  0  0  0  0  0
    8.7039  -12.6792   20.6696 C   0  0  0  0  0  0  0  0  0  0  0  0
    8.2684  -14.8753   19.5278 C   0  0  2  0  0  0  0  0  0  0  0  0
    7.4548  -15.5633   18.5674 N   0  0  0  0  0  0  0  0  0  0  0  0
    8.4024  -15.6067   20.8028 C   0  0  0  0  0  0  0  0  0  0  0  0
    7.4207  -16.2917   21.1914 O   0  0  0  0  0  0  0  0  0  0  0  0
   14.0399  -17.8458   23.5768 N   0  0  0  0  0  0  0  0  0  0  0  0
   12.9121  -18.6810   23.5234 C   0  0  0  0  0  0  0  0  0  0  0  0
   13.0919  -19.9113   23.4227 O   0  0  0  0  0  0  0  0  0  0  0  0
   11.5321  -18.1537   23.5829 C   0  0  0  0  0  0  0  0  0  0  0  0
   11.2312  -17.0958   22.5853 C   0  0  0  0  0  0  0  0  0  0  0  0
    9.8029  -16.6062   22.5752 C   0  0  2  0  0  0  0  0  0  0  0  0
    9.5639  -15.5839   21.6113 N   0  0  0  0  0  0  0  0  0  0  0  0
    9.5824  -16.0171   23.9448 C   0  0  0  0  0  0  0  0  0  0  0  0
    9.8419  -16.7401   24.9312 O   0  0  0  0  0  0  0  0  0  0  0  0
    5.5130  -12.5297   26.3523 C   0  0  0  0  0  0  0  0  0  0  0  0
    6.9482  -13.0392   26.5880 C   0  0  2  0  0  0  0  0  0  0  0  0
    7.7956  -11.9062   27.0647 C   0  0  0  0  0  0  0  0  0  0  0  0
    7.4317  -13.5406   25.2641 C   0  0  0  0  0  0  0  0  0  0  0  0
    8.7659  -14.2172   25.4143 C   0  0  2  0  0  0  0  0  0  0  0  0
    9.1036  -14.7052   24.0723 N   0  0  0  0  0  0  0  0  0  0  0  0
    8.7318  -15.3414   26.3717 C   0  0  0  0  0  0  0  0  0  0  0  0
    9.4578  -15.1958   27.5730 O   0  0  0  0  0  0  0  0  0  0  0  0
    8.1272  -16.4164   26.2363 O   0  0  0  0  0  0  0  0  0  0  0  0
  2  1  1  6
  2  4  1  0
  3  2  1  0
  4  5  1  6
  6 14  1  0
  6  4  1  0
  7  6  2  0
  9  8  1  0
  9 11  1  0
 10  9  2  0
 12 11  1  0
 13 12  1  1
 13 14  1  0
 15 13  1  0
 16 15  2  0
 18 20  1  0
 18 17  1  6
 19 18  1  0
 21 20  1  6
 21 22  1  0
 21 23  1  0
 22 15  1  0
 23 24  1  0
 25 23  2  0
M  END
$$$$
