VQL.pdb
     RDKit          3D

 25 24  0  0  1  0  0  0  0  0999 V2000
    7.8983  -12.5321   18.2743 C   0  0  0  0  0  0  0  0  0  0  0  0
    7.7845  -13.2478   19.6262 C   0  0  2  0  0  0  0  0  0  0  0  0
    8.4742  -12.3967   20.6518 C   0  0  0  0  0  0  0  0  0  0  0  0
    8.3678  -14.6402   19.5243 C   0  0  2  0  0  0  0  0  0  0  0  0
    7.8116  -15.3892   18.4346 N   0  0  0  0  0  0  0  0  0  0  0  0
    8.2063  -15.3105   20.8294 C   0  0  0  0  0  0  0  0  0  0  0  0
    7.0998  -15.8583   21.0738 O   0  0  0  0  0  0  0  0  0  0  0  0
   12.1539  -19.3978   23.3607 N   0  0  0  0  0  0  0  0  0  0  0  0
   10.9212  -19.4555   24.0314 C   0  0  0  0  0  0  0  0  0  0  0  0
   10.6030  -20.5233   24.5924 O   0  0  0  0  0  0  0  0  0  0  0  0
    9.9984  -18.3020   24.0938 C   0  0  0  0  0  0  0  0  0  0  0  0
   10.0691  -17.3901   22.9242 C   0  0  0  0  0  0  0  0  0  0  0  0
    9.0871  -16.2431   22.9403 C   0  0  2  0  0  0  0  0  0  0  0  0
    9.2169  -15.3739   21.8183 N   0  0  0  0  0  0  0  0  0  0  0  0
    9.4252  -15.4572   24.1811 C   0  0  0  0  0  0  0  0  0  0  0  0
   10.5462  -14.9054   24.2255 O   0  0  0  0  0  0  0  0  0  0  0  0
    8.1175  -11.9536   26.2399 C   0  0  0  0  0  0  0  0  0  0  0  0
    7.0780  -13.0911   26.2284 C   0  0  2  0  0  0  0  0  0  0  0  0
    5.7960  -12.5857   26.8032 C   0  0  0  0  0  0  0  0  0  0  0  0
    7.6471  -14.1801   27.0818 C   0  0  0  0  0  0  0  0  0  0  0  0
    8.9131  -14.7164   26.4734 C   0  0  2  0  0  0  0  0  0  0  0  0
    8.4953  -15.3684   25.2270 N   0  0  0  0  0  0  0  0  0  0  0  0
    9.6020  -15.6856   27.3494 C   0  0  0  0  0  0  0  0  0  0  0  0
    9.4698  -17.0551   27.0359 O   0  0  0  0  0  0  0  0  0  0  0  0
   10.2948  -15.4271   28.3458 O   0  0  0  0  0  0  0  0  0  0  0  0
  2  1  1  6
  2  4  1  0
  3  2  1  0
  4  5  1  6
  6 14  1  0
  6  4  1  0
  7  6  2  0
  9  8  1  0
  9 11  1  0
 10  9  2  0
 12 11  1  0
 13 12  1  6
 13 14  1  0
 15 13  1  0
 16 15  2  0
 18 20  1  0
 18 17  1  1
 19 18  1  0
 21 20  1  1
 21 22  1  0
 21 23  1  0
 22 15  1  0
 23 24  1  0
 25 23  2  0
M  END
$$$$
