VQL.pdb
     RDKit          3D

 25 24  0  0  1  0  0  0  0  0999 V2000
    7.9095  -12.6141   17.9981 C   0  0  0  0  0  0  0  0  0  0  0  0
    7.7958  -13.4119   19.3033 C   0  0  2  0  0  0  0  0  0  0  0  0
    8.5123  -12.6406   20.3727 C   0  0  0  0  0  0  0  0  0  0  0  0
    8.3509  -14.8057   19.1069 C   0  0  2  0  0  0  0  0  0  0  0  0
    7.6891  -15.5155   18.0505 N   0  0  0  0  0  0  0  0  0  0  0  0
    8.3008  -15.5145   20.4006 C   0  0  0  0  0  0  0  0  0  0  0  0
    7.1836  -15.9426   20.7914 O   0  0  0  0  0  0  0  0  0  0  0  0
   12.5410  -19.2840   23.2523 N   0  0  0  0  0  0  0  0  0  0  0  0
   11.5709  -19.0247   24.2342 C   0  0  0  0  0  0  0  0  0  0  0  0
   11.6951  -19.5739   25.3474 O   0  0  0  0  0  0  0  0  0  0  0  0
   10.4191  -18.1296   23.9931 C   0  0  0  0  0  0  0  0  0  0  0  0
   10.4393  -17.4364   22.6801 C   0  0  0  0  0  0  0  0  0  0  0  0
    9.3078  -16.4643   22.4464 C   0  0  2  0  0  0  0  0  0  0  0  0
    9.4292  -15.7408   21.2246 N   0  0  0  0  0  0  0  0  0  0  0  0
    9.3986  -15.4790   23.5833 C   0  0  0  0  0  0  0  0  0  0  0  0
   10.3920  -14.7204   23.6098 O   0  0  0  0  0  0  0  0  0  0  0  0
    5.6604  -12.2624   26.8454 C   0  0  0  0  0  0  0  0  0  0  0  0
    7.1152  -12.7671   26.7862 C   0  0  2  0  0  0  0  0  0  0  0  0
    8.0217  -11.6112   26.5192 C   0  0  0  0  0  0  0  0  0  0  0  0
    7.1663  -13.7504   25.6598 C   0  0  0  0  0  0  0  0  0  0  0  0
    8.4990  -14.4457   25.6300 C   0  0  2  0  0  0  0  0  0  0  0  0
    8.3902  -15.4409   24.5571 N   0  0  0  0  0  0  0  0  0  0  0  0
    8.8263  -15.1086   26.9086 C   0  0  0  0  0  0  0  0  0  0  0  0
    8.4245  -16.4520   27.0672 O   0  0  0  0  0  0  0  0  0  0  0  0
    9.4243  -14.6092   27.8744 O   0  0  0  0  0  0  0  0  0  0  0  0
  2  1  1  6
  2  4  1  0
  3  2  1  0
  4  5  1  6
  6 14  1  0
  6  4  1  0
  7  6  2  0
  9  8  1  0
  9 11  1  0
 10  9  2  0
 12 11  1  0
 13 12  1  1
 13 14  1  0
 15 13  1  0
 16 15  2  0
 18 20  1  0
 18 17  1  6
 19 18  1  0
 21 20  1  1
 21 22  1  0
 21 23  1  0
 22 15  1  0
 23 24  1  0
 25 23  2  0
M  END
$$$$
