VQL.pdb
     RDKit          3D

 25 24  0  0  1  0  0  0  0  0999 V2000
    6.9752  -14.4906   18.7512 C   0  0  0  0  0  0  0  0  0  0  0  0
    7.7376  -13.3259   19.3957 C   0  0  2  0  0  0  0  0  0  0  0  0
    8.1943  -12.4151   18.2941 C   0  0  0  0  0  0  0  0  0  0  0  0
    8.8789  -13.8573   20.2351 C   0  0  2  0  0  0  0  0  0  0  0  0
    9.8083  -14.6349   19.4675 N   0  0  0  0  0  0  0  0  0  0  0  0
    8.3115  -14.5972   21.3793 C   0  0  0  0  0  0  0  0  0  0  0  0
    7.4108  -14.0329   22.0534 O   0  0  0  0  0  0  0  0  0  0  0  0
    6.0452  -19.4542   22.3352 N   0  0  0  0  0  0  0  0  0  0  0  0
    6.5211  -19.4459   23.6566 C   0  0  0  0  0  0  0  0  0  0  0  0
    5.8465  -20.0255   24.5314 O   0  0  0  0  0  0  0  0  0  0  0  0
    7.7839  -18.7794   24.0397 C   0  0  0  0  0  0  0  0  0  0  0  0
    8.4457  -18.0309   22.9412 C   0  0  0  0  0  0  0  0  0  0  0  0
    8.0950  -16.5646   22.8571 C   0  0  2  0  0  0  0  0  0  0  0  0
    8.7179  -15.8978   21.7623 N   0  0  0  0  0  0  0  0  0  0  0  0
    8.6254  -15.9627   24.1330 C   0  0  0  0  0  0  0  0  0  0  0  0
    9.8617  -15.7994   24.2222 O   0  0  0  0  0  0  0  0  0  0  0  0
    8.2105  -12.1437   26.2556 C   0  0  0  0  0  0  0  0  0  0  0  0
    6.9496  -13.0219   26.1390 C   0  0  2  0  0  0  0  0  0  0  0  0
    5.7724  -12.2540   26.6426 C   0  0  0  0  0  0  0  0  0  0  0  0
    7.2020  -14.2235   26.9938 C   0  0  0  0  0  0  0  0  0  0  0  0
    8.2980  -15.0667   26.4037 C   0  0  2  0  0  0  0  0  0  0  0  0
    7.7387  -15.6105   25.1608 N   0  0  0  0  0  0  0  0  0  0  0  0
    8.7175  -16.1654   27.2972 C   0  0  0  0  0  0  0  0  0  0  0  0
    9.6097  -15.8490   28.3437 O   0  0  0  0  0  0  0  0  0  0  0  0
    8.3683  -17.3542   27.2300 O   0  0  0  0  0  0  0  0  0  0  0  0
  2  1  1  6
  2  4  1  0
  3  2  1  0
  4  5  1  6
  6 14  1  0
  6  4  1  0
  7  6  2  0
  9  8  1  0
  9 11  1  0
 10  9  2  0
 12 11  1  0
 13 12  1  1
 13 14  1  0
 15 13  1  0
 16 15  2  0
 18 20  1  0
 18 17  1  1
 19 18  1  0
 21 20  1  1
 21 22  1  0
 21 23  1  0
 22 15  1  0
 23 24  1  0
 25 23  2  0
M  END
$$$$
