VQL.pdb
     RDKit          3D

 25 24  0  0  1  0  0  0  0  0999 V2000
    7.1003  -12.6683   20.2953 C   0  0  0  0  0  0  0  0  0  0  0  0
    8.5221  -12.9966   19.8224 C   0  0  2  0  0  0  0  0  0  0  0  0
    8.8266  -12.1144   18.6474 C   0  0  0  0  0  0  0  0  0  0  0  0
    8.6315  -14.4707   19.4992 C   0  0  2  0  0  0  0  0  0  0  0  0
    7.8043  -14.8519   18.3910 N   0  0  0  0  0  0  0  0  0  0  0  0
    8.3459  -15.2399   20.7262 C   0  0  0  0  0  0  0  0  0  0  0  0
    7.1707  -15.6569   20.8961 O   0  0  0  0  0  0  0  0  0  0  0  0
   11.4687  -19.9572   23.1528 N   0  0  0  0  0  0  0  0  0  0  0  0
   10.4387  -19.7291   24.0800 C   0  0  0  0  0  0  0  0  0  0  0  0
   10.2749  -20.5584   24.9974 O   0  0  0  0  0  0  0  0  0  0  0  0
    9.5518  -18.5486   24.0045 C   0  0  0  0  0  0  0  0  0  0  0  0
    9.8100  -17.6546   22.8473 C   0  0  0  0  0  0  0  0  0  0  0  0
    8.9914  -16.3862   22.8169 C   0  0  2  0  0  0  0  0  0  0  0  0
    9.3105  -15.5353   21.7190 N   0  0  0  0  0  0  0  0  0  0  0  0
    9.3483  -15.6606   24.0888 C   0  0  0  0  0  0  0  0  0  0  0  0
   10.4892  -15.1548   24.1623 O   0  0  0  0  0  0  0  0  0  0  0  0
    8.1187  -12.0774   26.0459 C   0  0  0  0  0  0  0  0  0  0  0  0
    7.0501  -13.1863   25.9889 C   0  0  2  0  0  0  0  0  0  0  0  0
    5.7501  -12.6359   26.4750 C   0  0  0  0  0  0  0  0  0  0  0  0
    7.5348  -14.2746   26.8937 C   0  0  0  0  0  0  0  0  0  0  0  0
    8.8052  -14.8750   26.3590 C   0  0  2  0  0  0  0  0  0  0  0  0
    8.4131  -15.5748   25.1302 N   0  0  0  0  0  0  0  0  0  0  0  0
    9.4332  -15.8196   27.3050 C   0  0  0  0  0  0  0  0  0  0  0  0
   10.1918  -15.2743   28.3625 O   0  0  0  0  0  0  0  0  0  0  0  0
    9.3677  -17.0583   27.2739 O   0  0  0  0  0  0  0  0  0  0  0  0
  2  1  1  6
  2  4  1  0
  3  2  1  0
  4  5  1  6
  6 14  1  0
  6  4  1  0
  7  6  2  0
  9  8  1  0
  9 11  1  0
 10  9  2  0
 12 11  1  0
 13 12  1  6
 13 14  1  0
 15 13  1  0
 16 15  2  0
 18 20  1  0
 18 17  1  1
 19 18  1  0
 21 20  1  1
 21 22  1  0
 21 23  1  0
 22 15  1  0
 23 24  1  0
 25 23  2  0
M  END
$$$$
