VQL.pdb
     RDKit          3D

 25 24  0  0  1  0  0  0  0  0999 V2000
    8.0702  -12.4474   17.9890 C   0  0  0  0  0  0  0  0  0  0  0  0
    7.8802  -13.2805   19.2629 C   0  0  2  0  0  0  0  0  0  0  0  0
    8.5399  -12.5439   20.3916 C   0  0  0  0  0  0  0  0  0  0  0  0
    8.4386  -14.6718   19.0583 C   0  0  2  0  0  0  0  0  0  0  0  0
    7.7940  -15.3686   17.9828 N   0  0  0  0  0  0  0  0  0  0  0  0
    8.3678  -15.3964   20.3423 C   0  0  0  0  0  0  0  0  0  0  0  0
    7.2365  -15.7836   20.7351 O   0  0  0  0  0  0  0  0  0  0  0  0
   12.6852  -19.1321   23.2050 N   0  0  0  0  0  0  0  0  0  0  0  0
   11.5532  -19.1309   24.0365 C   0  0  0  0  0  0  0  0  0  0  0  0
   11.5370  -19.9061   25.0138 O   0  0  0  0  0  0  0  0  0  0  0  0
   10.3924  -18.2482   23.7933 C   0  0  0  0  0  0  0  0  0  0  0  0
   10.4950  -17.4158   22.5680 C   0  0  0  0  0  0  0  0  0  0  0  0
    9.3546  -16.4513   22.3461 C   0  0  2  0  0  0  0  0  0  0  0  0
    9.4913  -15.6809   21.1548 N   0  0  0  0  0  0  0  0  0  0  0  0
    9.4070  -15.5080   23.5205 C   0  0  0  0  0  0  0  0  0  0  0  0
   10.3696  -14.7122   23.5772 O   0  0  0  0  0  0  0  0  0  0  0  0
    5.7695  -12.5432   27.1114 C   0  0  0  0  0  0  0  0  0  0  0  0
    7.2218  -13.0337   26.9531 C   0  0  2  0  0  0  0  0  0  0  0  0
    8.1111  -11.8570   26.7210 C   0  0  0  0  0  0  0  0  0  0  0  0
    7.2245  -13.9412   25.7637 C   0  0  0  0  0  0  0  0  0  0  0  0
    8.5323  -14.6765   25.6674 C   0  0  2  0  0  0  0  0  0  0  0  0
    8.3987  -15.5478   24.4942 N   0  0  0  0  0  0  0  0  0  0  0  0
    8.8244  -15.4826   26.8700 C   0  0  0  0  0  0  0  0  0  0  0  0
    9.6705  -14.9135   27.8456 O   0  0  0  0  0  0  0  0  0  0  0  0
    8.4030  -16.6219   27.1231 O   0  0  0  0  0  0  0  0  0  0  0  0
  2  1  1  6
  2  4  1  0
  3  2  1  0
  4  5  1  6
  6 14  1  0
  6  4  1  0
  7  6  2  0
  9  8  1  0
  9 11  1  0
 10  9  2  0
 12 11  1  0
 13 12  1  1
 13 14  1  0
 15 13  1  0
 16 15  2  0
 18 20  1  0
 18 17  1  6
 19 18  1  0
 21 20  1  1
 21 22  1  0
 21 23  1  0
 22 15  1  0
 23 24  1  0
 25 23  2  0
M  END
$$$$
