VQL.pdb
     RDKit          3D

 25 24  0  0  1  0  0  0  0  0999 V2000
    7.7998  -12.6881   18.2268 C   0  0  0  0  0  0  0  0  0  0  0  0
    7.7950  -13.4637   19.5502 C   0  0  2  0  0  0  0  0  0  0  0  0
    8.6224  -12.6903   20.5346 C   0  0  0  0  0  0  0  0  0  0  0  0
    8.3042  -14.8708   19.3262 C   0  0  2  0  0  0  0  0  0  0  0  0
    7.5332  -15.5838   18.3490 N   0  0  0  0  0  0  0  0  0  0  0  0
    8.3638  -15.5586   20.6308 C   0  0  0  0  0  0  0  0  0  0  0  0
    7.2745  -15.8519   21.1889 O   0  0  0  0  0  0  0  0  0  0  0  0
   12.8197  -19.6468   20.8951 N   0  0  0  0  0  0  0  0  0  0  0  0
   12.1773  -19.3016   22.0955 C   0  0  0  0  0  0  0  0  0  0  0  0
   12.7679  -19.5328   23.1696 O   0  0  0  0  0  0  0  0  0  0  0  0
   10.8369  -18.6783   22.1260 C   0  0  0  0  0  0  0  0  0  0  0  0
   10.7772  -17.3756   22.8361 C   0  0  0  0  0  0  0  0  0  0  0  0
    9.5448  -16.5474   22.5619 C   0  0  2  0  0  0  0  0  0  0  0  0
    9.5675  -15.9069   21.2890 N   0  0  0  0  0  0  0  0  0  0  0  0
    9.5497  -15.4771   23.6231 C   0  0  0  0  0  0  0  0  0  0  0  0
   10.4702  -14.6319   23.5841 O   0  0  0  0  0  0  0  0  0  0  0  0
    6.0668  -13.0106   27.3985 C   0  0  0  0  0  0  0  0  0  0  0  0
    7.1834  -12.5444   26.4442 C   0  0  2  0  0  0  0  0  0  0  0  0
    6.7820  -11.2486   25.8205 C   0  0  0  0  0  0  0  0  0  0  0  0
    7.3128  -13.6133   25.4056 C   0  0  0  0  0  0  0  0  0  0  0  0
    8.5804  -14.3950   25.6119 C   0  0  2  0  0  0  0  0  0  0  0  0
    8.5456  -15.4589   24.6019 N   0  0  0  0  0  0  0  0  0  0  0  0
    8.6772  -14.9798   26.9648 C   0  0  0  0  0  0  0  0  0  0  0  0
    8.2227  -16.3048   27.1354 O   0  0  0  0  0  0  0  0  0  0  0  0
    9.1202  -14.4283   27.9842 O   0  0  0  0  0  0  0  0  0  0  0  0
  2  1  1  6
  2  4  1  0
  3  2  1  0
  4  5  1  6
  6 14  1  0
  6  4  1  0
  7  6  2  0
  9  8  1  0
  9 11  1  0
 10  9  2  0
 12 11  1  0
 13 12  1  1
 13 14  1  0
 15 13  1  0
 16 15  2  0
 18 20  1  0
 18 17  1  1
 19 18  1  0
 21 20  1  1
 21 22  1  0
 21 23  1  0
 22 15  1  0
 23 24  1  0
 25 23  2  0
M  END
$$$$
