VQL.pdb
     RDKit          3D

 25 24  0  0  1  0  0  0  0  0999 V2000
    7.7241  -12.5554   18.4884 C   0  0  0  0  0  0  0  0  0  0  0  0
    7.6888  -13.3045   19.8266 C   0  0  2  0  0  0  0  0  0  0  0  0
    8.4359  -12.4776   20.8314 C   0  0  0  0  0  0  0  0  0  0  0  0
    8.2661  -14.6928   19.6568 C   0  0  2  0  0  0  0  0  0  0  0  0
    7.6035  -15.4399   18.6269 N   0  0  0  0  0  0  0  0  0  0  0  0
    8.2452  -15.3704   20.9679 C   0  0  0  0  0  0  0  0  0  0  0  0
    7.1422  -15.8143   21.3807 O   0  0  0  0  0  0  0  0  0  0  0  0
   12.5097  -19.4043   25.2700 N   0  0  0  0  0  0  0  0  0  0  0  0
   11.6622  -19.2430   24.1617 C   0  0  0  0  0  0  0  0  0  0  0  0
   11.8663  -19.9492   23.1538 O   0  0  0  0  0  0  0  0  0  0  0  0
   10.5465  -18.2730   24.1520 C   0  0  0  0  0  0  0  0  0  0  0  0
   10.5060  -17.3894   22.9593 C   0  0  0  0  0  0  0  0  0  0  0  0
    9.3478  -16.4219   22.9122 C   0  0  2  0  0  0  0  0  0  0  0  0
    9.3866  -15.5501   21.7854 N   0  0  0  0  0  0  0  0  0  0  0  0
    9.4891  -15.5830   24.1564 C   0  0  0  0  0  0  0  0  0  0  0  0
   10.4256  -14.7555   24.1895 O   0  0  0  0  0  0  0  0  0  0  0  0
    8.5255  -12.2110   26.4484 C   0  0  0  0  0  0  0  0  0  0  0  0
    7.3815  -13.1743   26.0767 C   0  0  2  0  0  0  0  0  0  0  0  0
    6.0763  -12.5378   26.4235 C   0  0  0  0  0  0  0  0  0  0  0  0
    7.6002  -14.4099   26.8914 C   0  0  0  0  0  0  0  0  0  0  0  0
    8.8836  -15.0826   26.4907 C   0  0  2  0  0  0  0  0  0  0  0  0
    8.5876  -15.7497   25.2176 N   0  0  0  0  0  0  0  0  0  0  0  0
    9.3469  -16.0693   27.4873 C   0  0  0  0  0  0  0  0  0  0  0  0
    9.2977  -17.4324   27.1256 O   0  0  0  0  0  0  0  0  0  0  0  0
    9.7814  -15.8307   28.6248 O   0  0  0  0  0  0  0  0  0  0  0  0
  2  1  1  6
  2  4  1  0
  3  2  1  0
  4  5  1  6
  6 14  1  0
  6  4  1  0
  7  6  2  0
  9  8  1  0
  9 11  1  0
 10  9  2  0
 12 11  1  0
 13 12  1  6
 13 14  1  0
 15 13  1  0
 16 15  2  0
 18 20  1  0
 18 17  1  1
 19 18  1  0
 21 20  1  1
 21 22  1  0
 21 23  1  0
 22 15  1  0
 23 24  1  0
 25 23  2  0
M  END
$$$$
