VQL.pdb
     RDKit          3D

 25 24  0  0  1  0  0  0  0  0999 V2000
    7.8975  -12.4082   18.5008 C   0  0  0  0  0  0  0  0  0  0  0  0
    7.6842  -13.2773   19.7466 C   0  0  2  0  0  0  0  0  0  0  0  0
    8.2003  -12.5122   20.9298 C   0  0  0  0  0  0  0  0  0  0  0  0
    8.3654  -14.6162   19.5652 C   0  0  2  0  0  0  0  0  0  0  0  0
    7.8832  -15.3253   18.4154 N   0  0  0  0  0  0  0  0  0  0  0  0
    8.2273  -15.3835   20.8185 C   0  0  0  0  0  0  0  0  0  0  0  0
    7.1181  -15.9307   21.0514 O   0  0  0  0  0  0  0  0  0  0  0  0
   11.8010  -19.7162   25.1754 N   0  0  0  0  0  0  0  0  0  0  0  0
   10.8898  -19.5792   24.1155 C   0  0  0  0  0  0  0  0  0  0  0  0
   10.9316  -20.4130   23.1886 O   0  0  0  0  0  0  0  0  0  0  0  0
    9.8919  -18.4894   24.0644 C   0  0  0  0  0  0  0  0  0  0  0  0
   10.0868  -17.5247   22.9526 C   0  0  0  0  0  0  0  0  0  0  0  0
    9.0927  -16.3893   22.9021 C   0  0  2  0  0  0  0  0  0  0  0  0
    9.2633  -15.5403   21.7702 N   0  0  0  0  0  0  0  0  0  0  0  0
    9.3661  -15.5757   24.1411 C   0  0  0  0  0  0  0  0  0  0  0  0
   10.4777  -15.0098   24.2246 O   0  0  0  0  0  0  0  0  0  0  0  0
    8.5210  -11.9198   25.7538 C   0  0  0  0  0  0  0  0  0  0  0  0
    7.3526  -12.9183   25.6423 C   0  0  2  0  0  0  0  0  0  0  0  0
    6.0666  -12.1890   25.8507 C   0  0  0  0  0  0  0  0  0  0  0  0
    7.5681  -13.9296   26.7235 C   0  0  0  0  0  0  0  0  0  0  0  0
    8.7461  -14.8047   26.3965 C   0  0  2  0  0  0  0  0  0  0  0  0
    8.3893  -15.4782   25.1426 N   0  0  0  0  0  0  0  0  0  0  0  0
    9.0262  -15.8025   27.4489 C   0  0  0  0  0  0  0  0  0  0  0  0
    9.6270  -15.3417   28.6397 O   0  0  0  0  0  0  0  0  0  0  0  0
    8.7889  -17.0195   27.4030 O   0  0  0  0  0  0  0  0  0  0  0  0
  2  1  1  6
  2  4  1  0
  3  2  1  0
  4  5  1  6
  6 14  1  0
  6  4  1  0
  7  6  2  0
  9  8  1  0
  9 11  1  0
 10  9  2  0
 12 11  1  0
 13 12  1  6
 13 14  1  0
 15 13  1  0
 16 15  2  0
 18 20  1  0
 18 17  1  1
 19 18  1  0
 21 20  1  1
 21 22  1  0
 21 23  1  0
 22 15  1  0
 23 24  1  0
 25 23  2  0
M  END
$$$$
