VQL.pdb
     RDKit          3D

 25 24  0  0  1  0  0  0  0  0999 V2000
    8.3410  -12.4091   18.3102 C   0  0  0  0  0  0  0  0  0  0  0  0
    7.9850  -13.3793   19.4439 C   0  0  2  0  0  0  0  0  0  0  0  0
    8.3333  -12.7111   20.7416 C   0  0  0  0  0  0  0  0  0  0  0  0
    8.7059  -14.6945   19.2437 C   0  0  2  0  0  0  0  0  0  0  0  0
    8.3758  -15.3159   17.9937 N   0  0  0  0  0  0  0  0  0  0  0  0
    8.4333  -15.5581   20.4093 C   0  0  0  0  0  0  0  0  0  0  0  0
    7.7593  -16.6038   20.2189 O   0  0  0  0  0  0  0  0  0  0  0  0
   10.8072  -19.9053   22.4053 N   0  0  0  0  0  0  0  0  0  0  0  0
   11.4524  -18.6783   22.1802 C   0  0  0  0  0  0  0  0  0  0  0  0
   12.6580  -18.6944   21.8602 O   0  0  0  0  0  0  0  0  0  0  0  0
   10.7547  -17.3810   22.3083 C   0  0  0  0  0  0  0  0  0  0  0  0
    9.3281  -17.4833   22.7073 C   0  0  0  0  0  0  0  0  0  0  0  0
    8.5878  -16.1704   22.7973 C   0  0  2  0  0  0  0  0  0  0  0  0
    8.8827  -15.2819   21.7227 N   0  0  0  0  0  0  0  0  0  0  0  0
    9.0737  -15.5352   24.0748 C   0  0  0  0  0  0  0  0  0  0  0  0
   10.2388  -15.0819   24.0856 O   0  0  0  0  0  0  0  0  0  0  0  0
    8.0332  -11.9213   25.6257 C   0  0  0  0  0  0  0  0  0  0  0  0
    6.9756  -13.0352   25.7504 C   0  0  2  0  0  0  0  0  0  0  0  0
    5.6673  -12.4247   26.1308 C   0  0  0  0  0  0  0  0  0  0  0  0
    7.4647  -13.9511   26.8275 C   0  0  0  0  0  0  0  0  0  0  0  0
    8.6757  -14.7103   26.3611 C   0  0  2  0  0  0  0  0  0  0  0  0
    8.2257  -15.4714   25.1900 N   0  0  0  0  0  0  0  0  0  0  0  0
    9.2072  -15.6264   27.3906 C   0  0  0  0  0  0  0  0  0  0  0  0
    9.1609  -17.0101   27.1174 O   0  0  0  0  0  0  0  0  0  0  0  0
    9.6976  -15.3112   28.4860 O   0  0  0  0  0  0  0  0  0  0  0  0
  2  1  1  6
  2  4  1  0
  3  2  1  0
  4  5  1  6
  6 14  1  0
  6  4  1  0
  7  6  2  0
  9  8  1  0
  9 11  1  0
 10  9  2  0
 12 11  1  0
 13 12  1  6
 13 14  1  0
 15 13  1  0
 16 15  2  0
 18 20  1  0
 18 17  1  1
 19 18  1  0
 21 20  1  1
 21 22  1  0
 21 23  1  0
 22 15  1  0
 23 24  1  0
 25 23  2  0
M  END
$$$$
