VQL.pdb
     RDKit          3D

 25 24  0  0  1  0  0  0  0  0999 V2000
    6.0587  -19.4704   24.7954 C   0  0  0  0  0  0  0  0  0  0  0  0
    5.4366  -18.8774   23.5249 C   0  0  2  0  0  0  0  0  0  0  0  0
    4.0033  -19.3183   23.4707 C   0  0  0  0  0  0  0  0  0  0  0  0
    6.2332  -19.3050   22.3116 C   0  0  2  0  0  0  0  0  0  0  0  0
    6.2088  -20.7254   22.1125 N   0  0  0  0  0  0  0  0  0  0  0  0
    7.5998  -18.7612   22.4353 C   0  0  0  0  0  0  0  0  0  0  0  0
    8.4867  -19.5101   22.9216 O   0  0  0  0  0  0  0  0  0  0  0  0
   12.1111  -17.4347   19.1668 N   0  0  0  0  0  0  0  0  0  0  0  0
   12.2698  -16.9008   20.4562 C   0  0  0  0  0  0  0  0  0  0  0  0
   13.2665  -17.2480   21.1211 O   0  0  0  0  0  0  0  0  0  0  0  0
   11.3030  -15.9492   21.0442 C   0  0  0  0  0  0  0  0  0  0  0  0
    9.8831  -16.3733   20.9498 C   0  0  0  0  0  0  0  0  0  0  0  0
    9.3112  -16.9955   22.2011 C   0  0  2  0  0  0  0  0  0  0  0  0
    7.9710  -17.4534   22.0414 N   0  0  0  0  0  0  0  0  0  0  0  0
    9.3069  -15.8864   23.2217 C   0  0  0  0  0  0  0  0  0  0  0  0
    9.3361  -14.7115   22.7953 O   0  0  0  0  0  0  0  0  0  0  0  0
    7.8819  -12.8183   24.9534 C   0  0  0  0  0  0  0  0  0  0  0  0
    7.2044  -14.1711   25.2463 C   0  0  2  0  0  0  0  0  0  0  0  0
    5.8777  -13.9237   25.8848 C   0  0  0  0  0  0  0  0  0  0  0  0
    8.1163  -14.8955   26.1854 C   0  0  0  0  0  0  0  0  0  0  0  0
    9.4636  -15.1049   25.5520 C   0  0  2  0  0  0  0  0  0  0  0  0
    9.2712  -16.1953   24.5891 N   0  0  0  0  0  0  0  0  0  0  0  0
   10.5058  -15.4694   26.5331 C   0  0  0  0  0  0  0  0  0  0  0  0
   10.9852  -16.7964   26.5110 O   0  0  0  0  0  0  0  0  0  0  0  0
   11.0152  -14.7283   27.3880 O   0  0  0  0  0  0  0  0  0  0  0  0
  2  1  1  1
  2  4  1  0
  3  2  1  0
  4  5  1  1
  6 14  1  0
  6  4  1  0
  7  6  2  0
  9  8  1  0
  9 11  1  0
 10  9  2  0
 12 11  1  0
 13 12  1  6
 13 14  1  0
 15 13  1  0
 16 15  2  0
 18 20  1  0
 18 17  1  1
 19 18  1  0
 21 20  1  1
 21 22  1  0
 21 23  1  0
 22 15  1  0
 23 24  1  0
 25 23  2  0
M  END
$$$$
