SGW.pdb
     RDKit          3D

 25 26  0  0  1  0  0  0  0  0999 V2000
   19.1441  -19.9538  -10.3097 O   0  0  0  0  0  0  0  0  0  0  0  0
   19.4680  -20.9805  -11.1659 C   0  0  0  0  0  0  0  0  0  0  0  0
   20.8712  -21.4415  -10.8278 C   0  0  2  0  0  0  0  0  0  0  0  0
   21.2496  -21.0464   -9.4955 N   0  0  0  0  0  0  0  0  0  0  0  0
   21.8454  -20.9364  -11.8191 C   0  0  0  0  0  0  0  0  0  0  0  0
   21.8875  -21.4474  -12.9832 O   0  0  0  0  0  0  0  0  0  0  0  0
   22.7273  -19.8835  -11.4621 N   0  0  0  0  0  0  0  0  0  0  0  0
   23.6986  -19.3269  -12.3653 C   0  0  0  0  0  0  0  0  0  0  0  0
   25.0617  -19.5686  -11.8750 C   0  0  0  0  0  0  0  0  0  0  0  0
   26.0747  -19.0536  -12.4797 O   0  0  0  0  0  0  0  0  0  0  0  0
   25.3024  -20.3598  -10.7337 N   0  0  0  0  0  0  0  0  0  0  0  0
   26.7030  -20.5940  -10.3270 C   0  0  1  0  0  0  0  0  0  0  0  0
   26.7187  -21.1807   -8.9161 C   0  0  0  0  0  0  0  0  0  0  0  0
   27.0150  -20.0896   -7.9599 C   0  0  0  0  0  0  0  0  0  0  0  0
   26.7038  -18.7359   -8.0539 C   0  0  0  0  0  0  0  0  0  0  0  0
   27.1539  -18.0809   -6.9708 N   0  0  0  0  0  0  0  0  0  0  0  0
   27.7590  -18.9709   -6.1567 C   0  0  0  0  0  0  0  0  0  0  0  0
   28.3857  -18.8537   -4.9342 C   0  0  0  0  0  0  0  0  0  0  0  0
   28.9350  -19.9446   -4.2952 C   0  0  0  0  0  0  0  0  0  0  0  0
   28.8514  -21.1803   -4.9016 C   0  0  0  0  0  0  0  0  0  0  0  0
   28.2362  -21.3182   -6.1100 C   0  0  0  0  0  0  0  0  0  0  0  0
   27.6840  -20.2142   -6.7486 C   0  0  0  0  0  0  0  0  0  0  0  0
   27.2685  -21.6205  -11.2242 C   0  0  0  0  0  0  0  0  0  0  0  0
   26.5424  -22.3594  -11.9249 O   0  0  0  0  0  0  0  0  0  0  0  0
   28.6352  -21.7957  -11.3165 O   0  0  0  0  0  0  0  0  0  0  0  0
  2  1  1  0
  3  2  1  0
  3  4  1  1
  5  3  1  0
  5  6  2  0
  7  5  1  0
  8  7  1  0
  8  9  1  0
  9 11  1  0
  9 10  2  0
 11 12  1  0
 12 13  1  1
 13 14  1  0
 14 15  2  0
 14 22  1  0
 15 16  1  0
 16 17  1  0
 17 18  2  0
 19 18  1  0
 20 19  2  0
 21 22  2  0
 21 20  1  0
 22 17  1  0
 23 25  1  0
 23 12  1  0
 24 23  2  0
M  END
$$$$
