SGW.pdb
     RDKit          3D

 25 26  0  0  1  0  0  0  0  0999 V2000
   27.2349  -17.5417  -18.4934 O   0  0  0  0  0  0  0  0  0  0  0  0
   28.5531  -17.9076  -18.3511 C   0  0  0  0  0  0  0  0  0  0  0  0
   28.5862  -19.3036  -17.7627 C   0  0  2  0  0  0  0  0  0  0  0  0
   28.0019  -20.2678  -18.6589 N   0  0  0  0  0  0  0  0  0  0  0  0
   27.9119  -19.3373  -16.4470 C   0  0  0  0  0  0  0  0  0  0  0  0
   26.6662  -19.5861  -16.3797 O   0  0  0  0  0  0  0  0  0  0  0  0
   28.6621  -19.0909  -15.2680 N   0  0  0  0  0  0  0  0  0  0  0  0
   28.0687  -18.9879  -13.9617 C   0  0  0  0  0  0  0  0  0  0  0  0
   27.3569  -20.2252  -13.6159 C   0  0  0  0  0  0  0  0  0  0  0  0
   27.7571  -21.3594  -14.0746 O   0  0  0  0  0  0  0  0  0  0  0  0
   26.2270  -20.2118  -12.7736 N   0  0  0  0  0  0  0  0  0  0  0  0
   25.5862  -21.5005  -12.4414 C   0  0  1  0  0  0  0  0  0  0  0  0
   26.3240  -22.1323  -11.2617 C   0  0  0  0  0  0  0  0  0  0  0  0
   26.2346  -21.2097  -10.1069 C   0  0  0  0  0  0  0  0  0  0  0  0
   25.1712  -20.4017   -9.7134 C   0  0  0  0  0  0  0  0  0  0  0  0
   25.4978  -19.7125   -8.6074 N   0  0  0  0  0  0  0  0  0  0  0  0
   26.7575  -20.0449   -8.2559 C   0  0  0  0  0  0  0  0  0  0  0  0
   27.5817  -19.6506   -7.2232 C   0  0  0  0  0  0  0  0  0  0  0  0
   28.8573  -20.1536   -7.0832 C   0  0  0  0  0  0  0  0  0  0  0  0
   29.3126  -21.0736   -8.0040 C   0  0  0  0  0  0  0  0  0  0  0  0
   28.5142  -21.4769   -9.0325 C   0  0  0  0  0  0  0  0  0  0  0  0
   27.2288  -20.9660   -9.1676 C   0  0  0  0  0  0  0  0  0  0  0  0
   24.2115  -21.2173  -11.9849 C   0  0  0  0  0  0  0  0  0  0  0  0
   23.8245  -20.0552  -11.7322 O   0  0  0  0  0  0  0  0  0  0  0  0
   23.3010  -22.2427  -11.8224 O   0  0  0  0  0  0  0  0  0  0  0  0
  2  1  1  0
  3  2  1  0
  3  4  1  6
  5  3  1  0
  5  6  2  0
  7  5  1  0
  8  7  1  0
  8  9  1  0
  9 11  1  0
  9 10  2  0
 11 12  1  0
 12 13  1  1
 13 14  1  0
 14 15  2  0
 14 22  1  0
 15 16  1  0
 16 17  1  0
 17 18  2  0
 19 18  1  0
 20 19  2  0
 21 22  2  0
 21 20  1  0
 22 17  1  0
 23 25  1  0
 23 12  1  0
 24 23  2  0
M  END
$$$$
