SGW.pdb
     RDKit          3D

 25 26  0  0  1  0  0  0  0  0999 V2000
   24.9283  -26.6633  -16.9626 O   0  0  0  0  0  0  0  0  0  0  0  0
   25.9362  -25.8648  -16.4742 C   0  0  0  0  0  0  0  0  0  0  0  0
   26.0781  -24.6764  -17.4035 C   0  0  2  0  0  0  0  0  0  0  0  0
   26.9753  -24.9631  -18.4931 N   0  0  0  0  0  0  0  0  0  0  0  0
   26.5234  -23.4772  -16.6616 C   0  0  0  0  0  0  0  0  0  0  0  0
   27.2986  -22.6379  -17.2208 O   0  0  0  0  0  0  0  0  0  0  0  0
   26.0812  -23.2728  -15.3289 N   0  0  0  0  0  0  0  0  0  0  0  0
   26.4818  -22.1470  -14.5281 C   0  0  0  0  0  0  0  0  0  0  0  0
   25.8155  -22.1774  -13.2196 C   0  0  0  0  0  0  0  0  0  0  0  0
   25.3864  -23.2880  -12.7303 O   0  0  0  0  0  0  0  0  0  0  0  0
   25.6313  -21.0035  -12.4616 N   0  0  0  0  0  0  0  0  0  0  0  0
   25.0597  -21.1286  -11.1054 C   0  0  1  0  0  0  0  0  0  0  0  0
   25.6265  -20.0169  -10.2233 C   0  0  0  0  0  0  0  0  0  0  0  0
   26.9336  -20.4644   -9.6905 C   0  0  0  0  0  0  0  0  0  0  0  0
   27.9498  -21.1616  -10.3382 C   0  0  0  0  0  0  0  0  0  0  0  0
   28.9745  -21.3752   -9.4962 N   0  0  0  0  0  0  0  0  0  0  0  0
   28.6618  -20.8344   -8.3002 C   0  0  0  0  0  0  0  0  0  0  0  0
   29.3315  -20.7589   -7.0973 C   0  0  0  0  0  0  0  0  0  0  0  0
   28.7791  -20.1345   -5.9996 C   0  0  0  0  0  0  0  0  0  0  0  0
   27.5244  -19.5743   -6.1164 C   0  0  0  0  0  0  0  0  0  0  0  0
   26.8452  -19.6378   -7.2964 C   0  0  0  0  0  0  0  0  0  0  0  0
   27.4082  -20.2685   -8.3995 C   0  0  0  0  0  0  0  0  0  0  0  0
   23.6053  -20.8970  -11.2048 C   0  0  0  0  0  0  0  0  0  0  0  0
   22.8458  -21.0271  -10.2197 O   0  0  0  0  0  0  0  0  0  0  0  0
   23.0348  -20.5245  -12.4058 O   0  0  0  0  0  0  0  0  0  0  0  0
  2  1  1  0
  3  2  1  0
  3  4  1  6
  5  3  1  0
  5  6  2  0
  7  5  1  0
  8  7  1  0
  8  9  1  0
  9 11  1  0
  9 10  2  0
 11 12  1  0
 12 13  1  1
 13 14  1  0
 14 15  2  0
 14 22  1  0
 15 16  1  0
 16 17  1  0
 17 18  2  0
 19 18  1  0
 20 19  2  0
 21 22  2  0
 21 20  1  0
 22 17  1  0
 23 25  1  0
 23 12  1  0
 24 23  2  0
M  END
$$$$
