SGW.pdb
     RDKit          3D

 25 26  0  0  1  0  0  0  0  0999 V2000
   32.9018  -25.0673  -19.9412 O   0  0  0  0  0  0  0  0  0  0  0  0
   32.6880  -25.0298  -18.5830 C   0  0  0  0  0  0  0  0  0  0  0  0
   31.2838  -25.5351  -18.3202 C   0  0  2  0  0  0  0  0  0  0  0  0
   30.9169  -26.5775  -19.2437 N   0  0  0  0  0  0  0  0  0  0  0  0
   30.3067  -24.4261  -18.3689 C   0  0  0  0  0  0  0  0  0  0  0  0
   29.9690  -23.9279  -19.4895 O   0  0  0  0  0  0  0  0  0  0  0  0
   29.7531  -23.9259  -17.1618 N   0  0  0  0  0  0  0  0  0  0  0  0
   28.8091  -22.8415  -17.1161 C   0  0  0  0  0  0  0  0  0  0  0  0
   28.4318  -22.5399  -15.7292 C   0  0  0  0  0  0  0  0  0  0  0  0
   29.0973  -23.0399  -14.7473 O   0  0  0  0  0  0  0  0  0  0  0  0
   27.3428  -21.6963  -15.4310 N   0  0  0  0  0  0  0  0  0  0  0  0
   26.7497  -21.7700  -14.0802 C   0  0  1  0  0  0  0  0  0  0  0  0
   26.3381  -20.3652  -13.6415 C   0  0  0  0  0  0  0  0  0  0  0  0
   25.8027  -20.4446  -12.2632 C   0  0  0  0  0  0  0  0  0  0  0  0
   26.4961  -20.4881  -11.0567 C   0  0  0  0  0  0  0  0  0  0  0  0
   25.6337  -20.5597  -10.0292 N   0  0  0  0  0  0  0  0  0  0  0  0
   24.3793  -20.5647  -10.5265 C   0  0  0  0  0  0  0  0  0  0  0  0
   23.1336  -20.6223   -9.9381 C   0  0  0  0  0  0  0  0  0  0  0  0
   21.9776  -20.6113  -10.6888 C   0  0  0  0  0  0  0  0  0  0  0  0
   22.0790  -20.5412  -12.0623 C   0  0  0  0  0  0  0  0  0  0  0  0
   23.3006  -20.4835  -12.6642 C   0  0  0  0  0  0  0  0  0  0  0  0
   24.4622  -20.4945  -11.9013 C   0  0  0  0  0  0  0  0  0  0  0  0
   25.5125  -22.5695  -14.1729 C   0  0  0  0  0  0  0  0  0  0  0  0
   24.7012  -22.4264  -15.1139 O   0  0  0  0  0  0  0  0  0  0  0  0
   25.2124  -23.5120  -13.2092 O   0  0  0  0  0  0  0  0  0  0  0  0
  2  1  1  0
  3  2  1  0
  3  4  1  6
  5  3  1  0
  5  6  2  0
  7  5  1  0
  8  7  1  0
  8  9  1  0
  9 11  1  0
  9 10  2  0
 11 12  1  0
 12 13  1  6
 13 14  1  0
 14 15  2  0
 14 22  1  0
 15 16  1  0
 16 17  1  0
 17 18  2  0
 19 18  1  0
 20 19  2  0
 21 22  2  0
 21 20  1  0
 22 17  1  0
 23 25  1  0
 23 12  1  0
 24 23  2  0
M  END
$$$$
