SGW.pdb
     RDKit          3D

 25 26  0  0  1  0  0  0  0  0999 V2000
   29.2146  -22.1229  -18.0955 O   0  0  0  0  0  0  0  0  0  0  0  0
   29.2044  -20.7962  -17.7327 C   0  0  0  0  0  0  0  0  0  0  0  0
   27.7611  -20.3818  -17.5297 C   0  0  2  0  0  0  0  0  0  0  0  0
   27.2372  -19.7091  -18.6905 N   0  0  0  0  0  0  0  0  0  0  0  0
   27.6202  -19.5338  -16.3264 C   0  0  0  0  0  0  0  0  0  0  0  0
   27.8451  -18.2841  -16.4021 O   0  0  0  0  0  0  0  0  0  0  0  0
   27.2346  -20.1232  -15.0945 N   0  0  0  0  0  0  0  0  0  0  0  0
   27.1379  -19.3863  -13.8629 C   0  0  0  0  0  0  0  0  0  0  0  0
   26.7869  -20.2786  -12.7504 C   0  0  0  0  0  0  0  0  0  0  0  0
   26.4877  -21.5111  -12.9704 O   0  0  0  0  0  0  0  0  0  0  0  0
   26.7723  -19.8203  -11.4176 N   0  0  0  0  0  0  0  0  0  0  0  0
   26.5282  -20.8030  -10.3421 C   0  0  1  0  0  0  0  0  0  0  0  0
   27.6356  -20.6798   -9.2965 C   0  0  0  0  0  0  0  0  0  0  0  0
   27.0094  -20.6431   -7.9552 C   0  0  0  0  0  0  0  0  0  0  0  0
   25.7392  -21.0645   -7.5712 C   0  0  0  0  0  0  0  0  0  0  0  0
   25.5593  -20.8544   -6.2566 N   0  0  0  0  0  0  0  0  0  0  0  0
   26.6841  -20.3015   -5.7566 C   0  0  0  0  0  0  0  0  0  0  0  0
   27.0482  -19.8880   -4.4926 C   0  0  0  0  0  0  0  0  0  0  0  0
   28.2886  -19.3431   -4.2389 C   0  0  0  0  0  0  0  0  0  0  0  0
   29.1814  -19.2116   -5.2815 C   0  0  0  0  0  0  0  0  0  0  0  0
   28.8417  -19.6140   -6.5387 C   0  0  0  0  0  0  0  0  0  0  0  0
   27.5894  -20.1631   -6.7876 C   0  0  0  0  0  0  0  0  0  0  0  0
   25.2646  -20.4362   -9.6732 C   0  0  0  0  0  0  0  0  0  0  0  0
   24.7279  -19.3189   -9.8398 O   0  0  0  0  0  0  0  0  0  0  0  0
   24.6305  -21.3299   -8.8329 O   0  0  0  0  0  0  0  0  0  0  0  0
  2  1  1  0
  3  2  1  0
  3  4  1  6
  5  3  1  0
  5  6  2  0
  7  5  1  0
  8  7  1  0
  8  9  1  0
  9 11  1  0
  9 10  2  0
 11 12  1  0
 12 13  1  1
 13 14  1  0
 14 15  2  0
 14 22  1  0
 15 16  1  0
 16 17  1  0
 17 18  2  0
 19 18  1  0
 20 19  2  0
 21 22  2  0
 21 20  1  0
 22 17  1  0
 23 25  1  0
 23 12  1  0
 24 23  2  0
M  END
$$$$
