SGW.pdb
     RDKit          3D

 25 26  0  0  1  0  0  0  0  0999 V2000
   29.2807  -16.9866  -15.5152 O   0  0  0  0  0  0  0  0  0  0  0  0
   28.0902  -17.4214  -14.9808 C   0  0  0  0  0  0  0  0  0  0  0  0
   27.9221  -18.8816  -15.3491 C   0  0  2  0  0  0  0  0  0  0  0  0
   27.7295  -19.0492  -16.7665 N   0  0  0  0  0  0  0  0  0  0  0  0
   26.8056  -19.4906  -14.5944 C   0  0  0  0  0  0  0  0  0  0  0  0
   25.7433  -18.8228  -14.3857 O   0  0  0  0  0  0  0  0  0  0  0  0
   26.9296  -20.8179  -14.1082 N   0  0  0  0  0  0  0  0  0  0  0  0
   25.9176  -21.4670  -13.3184 C   0  0  0  0  0  0  0  0  0  0  0  0
   26.3241  -21.5360  -11.9088 C   0  0  0  0  0  0  0  0  0  0  0  0
   27.0008  -22.5402  -11.4721 O   0  0  0  0  0  0  0  0  0  0  0  0
   25.9950  -20.5117  -10.9984 N   0  0  0  0  0  0  0  0  0  0  0  0
   25.8479  -20.8641   -9.5714 C   0  0  1  0  0  0  0  0  0  0  0  0
   26.4611  -19.7532   -8.7200 C   0  0  0  0  0  0  0  0  0  0  0  0
   27.6908  -20.2777   -8.0834 C   0  0  0  0  0  0  0  0  0  0  0  0
   28.6451  -21.1456   -8.6074 C   0  0  0  0  0  0  0  0  0  0  0  0
   29.6096  -21.3753   -7.7009 N   0  0  0  0  0  0  0  0  0  0  0  0
   29.3175  -20.6779   -6.5833 C   0  0  0  0  0  0  0  0  0  0  0  0
   29.9490  -20.5449   -5.3648 C   0  0  0  0  0  0  0  0  0  0  0  0
   29.4316  -19.7500   -4.3647 C   0  0  0  0  0  0  0  0  0  0  0  0
   28.2519  -19.0748   -4.5972 C   0  0  0  0  0  0  0  0  0  0  0  0
   27.6114  -19.1924   -5.7946 C   0  0  0  0  0  0  0  0  0  0  0  0
   28.1389  -19.9953   -6.7989 C   0  0  0  0  0  0  0  0  0  0  0  0
   24.4055  -20.8958   -9.2602 C   0  0  0  0  0  0  0  0  0  0  0  0
   23.9746  -21.3111   -8.1620 O   0  0  0  0  0  0  0  0  0  0  0  0
   23.4782  -20.4609  -10.1864 O   0  0  0  0  0  0  0  0  0  0  0  0
  2  1  1  0
  3  2  1  0
  3  4  1  6
  5  3  1  0
  5  6  2  0
  7  5  1  0
  8  7  1  0
  8  9  1  0
  9 11  1  0
  9 10  2  0
 11 12  1  0
 12 13  1  1
 13 14  1  0
 14 15  2  0
 14 22  1  0
 15 16  1  0
 16 17  1  0
 17 18  2  0
 19 18  1  0
 20 19  2  0
 21 22  2  0
 21 20  1  0
 22 17  1  0
 23 25  1  0
 23 12  1  0
 24 23  2  0
M  END
$$$$
