SGW.pdb
     RDKit          3D

 25 26  0  0  1  0  0  0  0  0999 V2000
   28.0989  -19.6643  -17.7896 O   0  0  0  0  0  0  0  0  0  0  0  0
   27.2784  -19.1096  -16.8352 C   0  0  0  0  0  0  0  0  0  0  0  0
   26.6894  -20.2401  -16.0160 C   0  0  2  0  0  0  0  0  0  0  0  0
   25.3234  -20.5048  -16.3878 N   0  0  0  0  0  0  0  0  0  0  0  0
   26.7905  -19.9511  -14.5692 C   0  0  0  0  0  0  0  0  0  0  0  0
   25.9870  -19.1252  -14.0304 O   0  0  0  0  0  0  0  0  0  0  0  0
   27.7859  -20.5990  -13.7926 N   0  0  0  0  0  0  0  0  0  0  0  0
   28.0202  -20.3040  -12.4044 C   0  0  0  0  0  0  0  0  0  0  0  0
   26.9534  -20.8674  -11.5667 C   0  0  0  0  0  0  0  0  0  0  0  0
   25.9162  -21.4073  -12.1049 O   0  0  0  0  0  0  0  0  0  0  0  0
   27.0327  -20.8408  -10.1598 N   0  0  0  0  0  0  0  0  0  0  0  0
   25.9779  -21.5270   -9.3862 C   0  0  1  0  0  0  0  0  0  0  0  0
   26.4791  -21.7597   -7.9615 C   0  0  0  0  0  0  0  0  0  0  0  0
   27.0256  -20.4842   -7.4447 C   0  0  0  0  0  0  0  0  0  0  0  0
   26.8825  -19.1987   -7.9600 C   0  0  0  0  0  0  0  0  0  0  0  0
   27.5393  -18.3153   -7.1900 N   0  0  0  0  0  0  0  0  0  0  0  0
   28.1175  -18.9861   -6.1718 C   0  0  0  0  0  0  0  0  0  0  0  0
   28.8956  -18.5894   -5.1048 C   0  0  0  0  0  0  0  0  0  0  0  0
   29.3721  -19.4945   -4.1809 C   0  0  0  0  0  0  0  0  0  0  0  0
   29.0581  -20.8284   -4.3357 C   0  0  0  0  0  0  0  0  0  0  0  0
   28.2904  -21.2417   -5.3833 C   0  0  0  0  0  0  0  0  0  0  0  0
   27.8128  -20.3238   -6.3111 C   0  0  0  0  0  0  0  0  0  0  0  0
   24.8219  -20.6144   -9.2901 C   0  0  0  0  0  0  0  0  0  0  0  0
   23.7758  -20.9333   -8.6832 O   0  0  0  0  0  0  0  0  0  0  0  0
   24.8641  -19.3646   -9.8758 O   0  0  0  0  0  0  0  0  0  0  0  0
  2  1  1  0
  3  2  1  0
  3  4  1  6
  5  3  1  0
  5  6  2  0
  7  5  1  0
  8  7  1  0
  8  9  1  0
  9 11  1  0
  9 10  2  0
 11 12  1  0
 12 13  1  1
 13 14  1  0
 14 15  2  0
 14 22  1  0
 15 16  1  0
 16 17  1  0
 17 18  2  0
 19 18  1  0
 20 19  2  0
 21 22  2  0
 21 20  1  0
 22 17  1  0
 23 25  1  0
 23 12  1  0
 24 23  2  0
M  END
$$$$
