SGW.pdb
     RDKit          3D

 25 26  0  0  1  0  0  0  0  0999 V2000
   27.9432  -22.1341  -16.7475 O   0  0  0  0  0  0  0  0  0  0  0  0
   26.6914  -22.7039  -16.7621 C   0  0  0  0  0  0  0  0  0  0  0  0
   25.6714  -21.5838  -16.7297 C   0  0  2  0  0  0  0  0  0  0  0  0
   25.4914  -20.9964  -18.0323 N   0  0  0  0  0  0  0  0  0  0  0  0
   26.0513  -20.5531  -15.7396 C   0  0  0  0  0  0  0  0  0  0  0  0
   26.4183  -19.4007  -16.1338 O   0  0  0  0  0  0  0  0  0  0  0  0
   26.0033  -20.8595  -14.3549 N   0  0  0  0  0  0  0  0  0  0  0  0
   26.1927  -19.8766  -13.3219 C   0  0  0  0  0  0  0  0  0  0  0  0
   26.1422  -20.5025  -11.9942 C   0  0  0  0  0  0  0  0  0  0  0  0
   25.7412  -21.7183  -11.8597 O   0  0  0  0  0  0  0  0  0  0  0  0
   26.5334  -19.8011  -10.8360 N   0  0  0  0  0  0  0  0  0  0  0  0
   26.6023  -20.5410   -9.5594 C   0  0  1  0  0  0  0  0  0  0  0  0
   27.4979  -19.7729   -8.5883 C   0  0  0  0  0  0  0  0  0  0  0  0
   27.1471  -20.1798   -7.2084 C   0  0  0  0  0  0  0  0  0  0  0  0
   26.1603  -21.0642   -6.7815 C   0  0  0  0  0  0  0  0  0  0  0  0
   26.1684  -21.1555   -5.4412 N   0  0  0  0  0  0  0  0  0  0  0  0
   27.1409  -20.3497   -4.9662 C   0  0  0  0  0  0  0  0  0  0  0  0
   27.5855  -20.0603   -3.6934 C   0  0  0  0  0  0  0  0  0  0  0  0
   28.6235  -19.1808   -3.4721 C   0  0  0  0  0  0  0  0  0  0  0  0
   29.2263  -18.5793   -4.5568 C   0  0  0  0  0  0  0  0  0  0  0  0
   28.8022  -18.8513   -5.8233 C   0  0  0  0  0  0  0  0  0  0  0  0
   27.7554  -19.7395   -6.0394 C   0  0  0  0  0  0  0  0  0  0  0  0
   25.2481  -20.5566   -8.9725 C   0  0  0  0  0  0  0  0  0  0  0  0
   24.8744  -21.4623   -8.1950 O   0  0  0  0  0  0  0  0  0  0  0  0
   24.3432  -19.5568   -9.2695 O   0  0  0  0  0  0  0  0  0  0  0  0
  2  1  1  0
  3  2  1  0
  3  4  1  6
  5  3  1  0
  5  6  2  0
  7  5  1  0
  8  7  1  0
  8  9  1  0
  9 11  1  0
  9 10  2  0
 11 12  1  0
 12 13  1  1
 13 14  1  0
 14 15  2  0
 14 22  1  0
 15 16  1  0
 16 17  1  0
 17 18  2  0
 19 18  1  0
 20 19  2  0
 21 22  2  0
 21 20  1  0
 22 17  1  0
 23 25  1  0
 23 12  1  0
 24 23  2  0
M  END
$$$$
