LLA.pdb
     RDKit          3D

 22 21  0  0  1  0  0  0  0  0999 V2000
   19.8908  -12.4227  -21.6146 C   0  0  0  0  0  0  0  0  0  0  0  0
   20.4809  -13.1973  -20.4520 C   0  0  2  0  0  0  0  0  0  0  0  0
   19.7861  -14.5649  -20.4603 C   0  0  0  0  0  0  0  0  0  0  0  0
   20.1250  -12.5592  -19.1259 C   0  0  0  0  0  0  0  0  0  0  0  0
   20.7558  -11.1907  -19.1004 C   0  0  2  0  0  0  0  0  0  0  0  0
   22.1807  -11.2953  -19.1378 N   0  0  0  0  0  0  0  0  0  0  0  0
   20.3217  -10.3967  -17.9179 C   0  0  0  0  0  0  0  0  0  0  0  0
   19.1487  -10.4460  -17.4674 O   0  0  0  0  0  0  0  0  0  0  0  0
   23.4331  -10.1980  -13.6968 C   0  0  0  0  0  0  0  0  0  0  0  0
   22.1378  -10.0697  -14.4736 C   0  0  1  0  0  0  0  0  0  0  0  0
   20.9649  -10.1812  -13.5301 C   0  0  0  0  0  0  0  0  0  0  0  0
   22.1555   -8.7586  -15.2269 C   0  0  0  0  0  0  0  0  0  0  0  0
   20.9557   -8.7109  -16.1390 C   0  0  2  0  0  0  0  0  0  0  0  0
   21.2423   -9.5618  -17.2758 N   0  0  0  0  0  0  0  0  0  0  0  0
   20.7581   -7.3209  -16.6857 C   0  0  0  0  0  0  0  0  0  0  0  0
   21.6717   -6.6976  -17.2860 O   0  0  0  0  0  0  0  0  0  0  0  0
   17.7869   -5.0483  -17.0480 C   0  0  0  0  0  0  0  0  0  0  0  0
   19.2764   -5.3129  -17.0818 C   0  0  2  0  0  0  0  0  0  0  0  0
   19.5083   -6.6518  -16.5395 N   0  0  0  0  0  0  0  0  0  0  0  0
   19.9733   -4.2865  -16.2635 C   0  0  0  0  0  0  0  0  0  0  0  0
   20.6279   -4.5866  -15.0861 O   0  0  0  0  0  0  0  0  0  0  0  0
   19.9675   -3.0971  -16.6579 O   0  0  0  0  0  0  0  0  0  0  0  0
  2  1  1  6
  2  3  1  0
  4  2  1  0
  5  4  1  0
  5  7  1  0
  5  6  1  1
  7  8  2  0
 10  9  1  1
 10 11  1  0
 13 12  1  1
 12 10  1  0
 14  7  1  0
 14 13  1  0
 15 13  1  0
 15 19  1  0
 16 15  2  0
 18 19  1  0
 18 17  1  1
 20 18  1  0
 21 20  1  0
 22 20  2  0
M  END
$$$$
