LLA.pdb
     RDKit          3D

 22 21  0  0  1  0  0  0  0  0999 V2000
   27.3024  -18.2198  -19.5040 C   0  0  0  0  0  0  0  0  0  0  0  0
   28.3300  -18.7169  -18.5057 C   0  0  2  0  0  0  0  0  0  0  0  0
   29.4240  -19.4037  -19.3331 C   0  0  0  0  0  0  0  0  0  0  0  0
   27.7531  -19.7908  -17.6079 C   0  0  0  0  0  0  0  0  0  0  0  0
   26.6216  -19.1688  -16.8305 C   0  0  2  0  0  0  0  0  0  0  0  0
   27.0675  -17.9925  -16.1520 N   0  0  0  0  0  0  0  0  0  0  0  0
   26.0113  -20.1268  -15.8679 C   0  0  0  0  0  0  0  0  0  0  0  0
   25.6783  -21.2935  -16.1985 O   0  0  0  0  0  0  0  0  0  0  0  0
   25.8376  -22.2128  -11.0714 C   0  0  0  0  0  0  0  0  0  0  0  0
   25.1534  -20.8602  -11.0656 C   0  0  1  0  0  0  0  0  0  0  0  0
   25.3126  -20.2146   -9.7105 C   0  0  0  0  0  0  0  0  0  0  0  0
   25.7351  -20.0212  -12.1813 C   0  0  0  0  0  0  0  0  0  0  0  0
   25.2296  -20.5538  -13.4982 C   0  0  2  0  0  0  0  0  0  0  0  0
   25.7950  -19.7271  -14.5449 N   0  0  0  0  0  0  0  0  0  0  0  0
   23.7338  -20.4006  -13.5950 C   0  0  0  0  0  0  0  0  0  0  0  0
   23.1513  -19.3129  -13.3479 O   0  0  0  0  0  0  0  0  0  0  0  0
   20.9891  -22.4533  -15.0657 C   0  0  0  0  0  0  0  0  0  0  0  0
   21.4614  -21.3755  -14.1144 C   0  0  2  0  0  0  0  0  0  0  0  0
   22.9125  -21.5011  -13.9761 N   0  0  0  0  0  0  0  0  0  0  0  0
   20.7907  -21.5559  -12.8005 C   0  0  0  0  0  0  0  0  0  0  0  0
   21.4133  -22.1420  -11.7171 O   0  0  0  0  0  0  0  0  0  0  0  0
   19.6093  -21.1595  -12.6686 O   0  0  0  0  0  0  0  0  0  0  0  0
  2  1  1  6
  2  3  1  0
  4  2  1  0
  5  4  1  0
  5  7  1  0
  5  6  1  1
  7  8  2  0
 10  9  1  1
 10 11  1  0
 13 12  1  1
 12 10  1  0
 14  7  1  0
 14 13  1  0
 15 13  1  0
 15 19  1  0
 16 15  2  0
 18 19  1  0
 18 17  1  6
 20 18  1  0
 21 20  1  0
 22 20  2  0
M  END
$$$$
