LLA.pdb
     RDKit          3D

 22 21  0  0  1  0  0  0  0  0999 V2000
   19.5456  -36.3664   -6.7063 C   0  0  0  0  0  0  0  0  0  0  0  0
   19.5545  -35.8594   -8.1355 C   0  0  2  0  0  0  0  0  0  0  0  0
   18.5333  -36.7169   -8.8936 C   0  0  0  0  0  0  0  0  0  0  0  0
   20.8887  -36.1152   -8.8039 C   0  0  0  0  0  0  0  0  0  0  0  0
   21.9271  -35.3176   -8.0576 C   0  0  2  0  0  0  0  0  0  0  0  0
   21.6904  -33.9168   -8.2141 N   0  0  0  0  0  0  0  0  0  0  0  0
   23.3111  -35.6638   -8.4839 C   0  0  0  0  0  0  0  0  0  0  0  0
   23.7274  -36.8499   -8.5213 O   0  0  0  0  0  0  0  0  0  0  0  0
   25.2652  -33.7939  -12.8917 C   0  0  0  0  0  0  0  0  0  0  0  0
   25.2020  -34.7118  -11.6870 C   0  0  1  0  0  0  0  0  0  0  0  0
   25.9200  -36.0038  -11.9927 C   0  0  0  0  0  0  0  0  0  0  0  0
   25.7907  -33.9868  -10.4975 C   0  0  0  0  0  0  0  0  0  0  0  0
   25.5688  -34.8254   -9.2642 C   0  0  2  0  0  0  0  0  0  0  0  0
   24.1901  -34.6422   -8.8588 N   0  0  0  0  0  0  0  0  0  0  0  0
   26.4184  -34.3288   -8.1233 C   0  0  0  0  0  0  0  0  0  0  0  0
   27.6755  -34.3806   -8.1481 O   0  0  0  0  0  0  0  0  0  0  0  0
   25.9415  -32.1715   -5.1642 C   0  0  0  0  0  0  0  0  0  0  0  0
   26.6079  -33.3772   -5.7903 C   0  0  2  0  0  0  0  0  0  0  0  0
   25.8179  -33.7735   -6.9563 N   0  0  0  0  0  0  0  0  0  0  0  0
   26.6618  -34.4780   -4.7933 C   0  0  0  0  0  0  0  0  0  0  0  0
   27.3945  -34.3951   -3.6266 O   0  0  0  0  0  0  0  0  0  0  0  0
   26.0150  -35.5271   -5.0197 O   0  0  0  0  0  0  0  0  0  0  0  0
  2  1  1  1
  2  3  1  0
  4  2  1  0
  5  4  1  0
  5  7  1  0
  5  6  1  6
  7  8  2  0
 10  9  1  6
 10 11  1  0
 13 12  1  6
 12 10  1  0
 14  7  1  0
 14 13  1  0
 15 13  1  0
 15 19  1  0
 16 15  2  0
 18 19  1  0
 18 17  1  1
 20 18  1  0
 21 20  1  0
 22 20  2  0
M  END
$$$$
