LLA.pdb
     RDKit          3D

 22 21  0  0  1  0  0  0  0  0999 V2000
   27.4663  -18.1993  -18.2215 C   0  0  0  0  0  0  0  0  0  0  0  0
   28.2129  -18.0843  -16.9066 C   0  0  2  0  0  0  0  0  0  0  0  0
   29.6703  -18.4498  -17.2157 C   0  0  0  0  0  0  0  0  0  0  0  0
   27.7305  -19.1130  -15.9059 C   0  0  0  0  0  0  0  0  0  0  0  0
   26.2475  -18.9104  -15.7303 C   0  0  2  0  0  0  0  0  0  0  0  0
   25.9888  -17.7044  -15.0082 N   0  0  0  0  0  0  0  0  0  0  0  0
   25.6002  -20.0705  -15.0577 C   0  0  0  0  0  0  0  0  0  0  0  0
   25.7381  -21.2506  -15.4696 O   0  0  0  0  0  0  0  0  0  0  0  0
   25.8841  -20.2085   -9.8946 C   0  0  0  0  0  0  0  0  0  0  0  0
   25.7283  -20.6168  -11.3461 C   0  0  1  0  0  0  0  0  0  0  0  0
   26.3119  -21.9932  -11.5536 C   0  0  0  0  0  0  0  0  0  0  0  0
   24.2626  -20.5455  -11.7119 C   0  0  0  0  0  0  0  0  0  0  0  0
   24.1145  -20.8801  -13.1747 C   0  0  2  0  0  0  0  0  0  0  0  0
   24.8076  -19.8533  -13.9256 N   0  0  0  0  0  0  0  0  0  0  0  0
   22.6685  -20.8112  -13.5923 C   0  0  0  0  0  0  0  0  0  0  0  0
   22.0114  -19.7382  -13.5682 O   0  0  0  0  0  0  0  0  0  0  0  0
   20.2418  -23.2429  -15.1159 C   0  0  0  0  0  0  0  0  0  0  0  0
   20.5601  -21.9605  -14.3784 C   0  0  2  0  0  0  0  0  0  0  0  0
   21.9826  -21.9787  -14.0367 N   0  0  0  0  0  0  0  0  0  0  0  0
   19.7257  -21.8832  -13.1510 C   0  0  0  0  0  0  0  0  0  0  0  0
   18.4324  -21.4014  -13.1550 O   0  0  0  0  0  0  0  0  0  0  0  0
   20.2157  -22.2715  -12.0650 O   0  0  0  0  0  0  0  0  0  0  0  0
  2  1  1  6
  2  3  1  0
  4  2  1  0
  5  4  1  0
  5  7  1  0
  5  6  1  1
  7  8  2  0
 10  9  1  1
 10 11  1  0
 13 12  1  1
 12 10  1  0
 14  7  1  0
 14 13  1  0
 15 13  1  0
 15 19  1  0
 16 15  2  0
 18 19  1  0
 18 17  1  1
 20 18  1  0
 21 20  1  0
 22 20  2  0
M  END
$$$$
