LLA.pdb
     RDKit          3D

 22 21  0  0  1  0  0  0  0  0999 V2000
   19.0559  -11.4409  -19.7348 C   0  0  0  0  0  0  0  0  0  0  0  0
   17.6061  -11.3418  -19.3010 C   0  0  2  0  0  0  0  0  0  0  0  0
   16.8427  -10.7790  -20.5066 C   0  0  0  0  0  0  0  0  0  0  0  0
   17.4305  -10.3292  -18.1892 C   0  0  0  0  0  0  0  0  0  0  0  0
   18.2059  -10.8290  -16.9974 C   0  0  2  0  0  0  0  0  0  0  0  0
   17.5866  -11.9953  -16.4504 N   0  0  0  0  0  0  0  0  0  0  0  0
   18.3606   -9.7810  -15.9512 C   0  0  0  0  0  0  0  0  0  0  0  0
   17.4297   -9.4728  -15.1638 O   0  0  0  0  0  0  0  0  0  0  0  0
   22.9049   -9.6705  -13.2557 C   0  0  0  0  0  0  0  0  0  0  0  0
   21.4381   -9.4369  -13.5585 C   0  0  1  0  0  0  0  0  0  0  0  0
   20.6704   -9.2795  -12.2684 C   0  0  0  0  0  0  0  0  0  0  0  0
   21.3184   -8.2268  -14.4576 C   0  0  0  0  0  0  0  0  0  0  0  0
   19.8747   -8.0688  -14.8628 C   0  0  2  0  0  0  0  0  0  0  0  0
   19.5804   -9.1072  -15.8291 N   0  0  0  0  0  0  0  0  0  0  0  0
   19.6614   -6.7555  -15.5698 C   0  0  0  0  0  0  0  0  0  0  0  0
   20.3704   -6.3927  -16.5441 O   0  0  0  0  0  0  0  0  0  0  0  0
   16.9415   -4.2184  -15.6344 C   0  0  0  0  0  0  0  0  0  0  0  0
   18.3992   -4.5807  -15.8179 C   0  0  2  0  0  0  0  0  0  0  0  0
   18.6317   -5.8629  -15.1526 N   0  0  0  0  0  0  0  0  0  0  0  0
   19.2460   -3.5165  -15.2186 C   0  0  0  0  0  0  0  0  0  0  0  0
   19.3706   -2.2588  -15.7732 O   0  0  0  0  0  0  0  0  0  0  0  0
   19.8746   -3.7701  -14.1646 O   0  0  0  0  0  0  0  0  0  0  0  0
  2  1  1  6
  2  3  1  0
  4  2  1  0
  5  4  1  0
  5  7  1  0
  5  6  1  1
  7  8  2  0
 10  9  1  1
 10 11  1  0
 13 12  1  6
 12 10  1  0
 14  7  1  0
 14 13  1  0
 15 13  1  0
 15 19  1  0
 16 15  2  0
 18 19  1  0
 18 17  1  1
 20 18  1  0
 21 20  1  0
 22 20  2  0
M  END
$$$$
