LLA.pdb
     RDKit          3D

 22 21  0  0  1  0  0  0  0  0999 V2000
   28.8573  -28.6681  -17.9576 C   0  0  0  0  0  0  0  0  0  0  0  0
   28.6568  -27.1655  -17.9185 C   0  0  2  0  0  0  0  0  0  0  0  0
   27.7993  -26.8223  -19.1432 C   0  0  0  0  0  0  0  0  0  0  0  0
   29.9657  -26.4286  -18.1088 C   0  0  0  0  0  0  0  0  0  0  0  0
   30.2043  -25.6057  -16.8690 C   0  0  2  0  0  0  0  0  0  0  0  0
   29.3678  -24.4467  -16.8686 N   0  0  0  0  0  0  0  0  0  0  0  0
   31.6342  -25.2173  -16.7220 C   0  0  0  0  0  0  0  0  0  0  0  0
   32.1262  -24.2229  -17.3141 O   0  0  0  0  0  0  0  0  0  0  0  0
   35.8009  -24.2011  -14.0901 C   0  0  0  0  0  0  0  0  0  0  0  0
   35.4574  -25.6298  -13.7174 C   0  0  1  0  0  0  0  0  0  0  0  0
   35.7323  -25.8537  -12.2503 C   0  0  0  0  0  0  0  0  0  0  0  0
   34.0136  -25.8897  -14.0847 C   0  0  0  0  0  0  0  0  0  0  0  0
   33.8428  -25.6528  -15.5640 C   0  0  2  0  0  0  0  0  0  0  0  0
   32.4712  -25.9777  -15.8986 N   0  0  0  0  0  0  0  0  0  0  0  0
   34.7101  -26.5955  -16.3572 C   0  0  0  0  0  0  0  0  0  0  0  0
   35.9625  -26.4821  -16.4010 O   0  0  0  0  0  0  0  0  0  0  0  0
   34.3539  -29.9289  -17.8909 C   0  0  0  0  0  0  0  0  0  0  0  0
   34.9335  -28.5331  -17.9636 C   0  0  2  0  0  0  0  0  0  0  0  0
   34.1324  -27.6670  -17.0983 N   0  0  0  0  0  0  0  0  0  0  0  0
   34.8870  -28.0578  -19.3710 C   0  0  0  0  0  0  0  0  0  0  0  0
   34.2201  -26.9109  -19.7514 O   0  0  0  0  0  0  0  0  0  0  0  0
   35.4780  -28.7256  -20.2514 O   0  0  0  0  0  0  0  0  0  0  0  0
  2  1  1  6
  2  3  1  0
  4  2  1  0
  5  4  1  0
  5  7  1  0
  5  6  1  6
  7  8  2  0
 10  9  1  1
 10 11  1  0
 13 12  1  1
 12 10  1  0
 14  7  1  0
 14 13  1  0
 15 13  1  0
 15 19  1  0
 16 15  2  0
 18 19  1  0
 18 17  1  6
 20 18  1  0
 21 20  1  0
 22 20  2  0
M  END
$$$$
