KNF.pdb
     RDKit          3D

 29 29  0  0  1  0  0  0  0  0999 V2000
   24.9099  -23.0715  -17.9206 N   0  0  0  0  0  0  0  0  0  0  0  0
   23.6175  -23.7746  -18.0485 C   0  0  1  0  0  0  0  0  0  0  0  0
   23.2132  -23.8519  -19.4809 C   0  0  0  0  0  0  0  0  0  0  0  0
   23.0663  -22.5196  -20.1163 C   0  0  0  0  0  0  0  0  0  0  0  0
   21.7280  -21.8782  -19.7442 C   0  0  0  0  0  0  0  0  0  0  0  0
   21.6103  -20.5282  -20.4605 C   0  0  0  0  0  0  0  0  0  0  0  0
   20.3726  -19.8807  -20.1014 N   0  0  0  0  0  0  0  0  0  0  0  0
   23.8128  -25.1204  -17.4813 C   0  0  0  0  0  0  0  0  0  0  0  0
   24.6030  -25.9325  -18.0636 O   0  0  0  0  0  0  0  0  0  0  0  0
   26.4213  -27.7431  -16.8626 N   0  0  0  0  0  0  0  0  0  0  0  0
   25.9324  -26.7034  -15.9962 C   0  0  0  0  0  0  0  0  0  0  0  0
   26.5327  -25.6224  -16.0066 O   0  0  0  0  0  0  0  0  0  0  0  0
   24.7569  -27.0017  -15.1634 C   0  0  0  0  0  0  0  0  0  0  0  0
   23.4295  -26.9181  -15.8214 C   0  0  2  0  0  0  0  0  0  0  0  0
   23.1642  -25.5619  -16.3172 N   0  0  0  0  0  0  0  0  0  0  0  0
   22.3513  -27.2689  -14.8339 C   0  0  0  0  0  0  0  0  0  0  0  0
   22.3207  -28.3621  -14.2406 O   0  0  0  0  0  0  0  0  0  0  0  0
   21.2916  -26.3471  -14.5277 N   0  0  0  0  0  0  0  0  0  0  0  0
   20.2384  -26.7329  -13.5745 C   0  0  1  0  0  0  0  0  0  0  0  0
   19.8982  -25.4909  -12.8111 C   0  0  0  0  0  0  0  0  0  0  0  0
   19.1027  -24.4999  -13.5316 C   0  0  0  0  0  0  0  0  0  0  0  0
   19.7414  -23.5105  -14.2401 C   0  0  0  0  0  0  0  0  0  0  0  0
   19.0674  -22.5329  -14.9645 C   0  0  0  0  0  0  0  0  0  0  0  0
   17.7062  -22.5565  -14.9722 C   0  0  0  0  0  0  0  0  0  0  0  0
   17.0351  -23.5283  -14.2764 C   0  0  0  0  0  0  0  0  0  0  0  0
   17.7217  -24.4881  -13.5648 C   0  0  0  0  0  0  0  0  0  0  0  0
   19.0678  -27.1668  -14.3534 C   0  0  0  0  0  0  0  0  0  0  0  0
   18.0451  -27.5865  -13.7866 O   0  0  0  0  0  0  0  0  0  0  0  0
   19.1029  -27.1066  -15.7286 O   0  0  0  0  0  0  0  0  0  0  0  0
  2  1  1  6
  2  3  1  0
  4  3  1  0
  5  4  1  0
  6  5  1  0
  7  6  1  0
  8  9  2  0
  8  2  1  0
 11 10  1  0
 11 13  1  0
 12 11  2  0
 14 13  1  1
 14 15  1  0
 15  8  1  0
 16 14  1  0
 16 18  1  0
 17 16  2  0
 19 20  1  6
 19 18  1  0
 19 27  1  0
 21 26  2  0
 21 20  1  0
 22 21  1  0
 23 24  1  0
 23 22  2  0
 24 25  2  0
 25 26  1  0
 27 28  2  0
 27 29  1  0
M  END
$$$$
