KNF.pdb
     RDKit          3D

 29 29  0  0  1  0  0  0  0  0999 V2000
   18.0002  -11.5684  -18.1104 N   0  0  0  0  0  0  0  0  0  0  0  0
   18.1696  -10.2297  -17.5102 C   0  0  1  0  0  0  0  0  0  0  0  0
   16.9086   -9.8027  -16.8403 C   0  0  0  0  0  0  0  0  0  0  0  0
   16.3557  -10.8348  -15.9296 C   0  0  0  0  0  0  0  0  0  0  0  0
   15.1077  -10.3201  -15.2094 C   0  0  0  0  0  0  0  0  0  0  0  0
   14.6004  -11.4102  -14.2587 C   0  0  0  0  0  0  0  0  0  0  0  0
   13.4344  -10.9468  -13.5475 N   0  0  0  0  0  0  0  0  0  0  0  0
   19.2724  -10.3405  -16.5392 C   0  0  0  0  0  0  0  0  0  0  0  0
   19.4276  -11.4287  -15.8953 O   0  0  0  0  0  0  0  0  0  0  0  0
   24.6973  -11.1112  -16.1594 N   0  0  0  0  0  0  0  0  0  0  0  0
   23.4980  -10.8888  -15.3959 C   0  0  0  0  0  0  0  0  0  0  0  0
   23.5683  -11.0277  -14.1692 O   0  0  0  0  0  0  0  0  0  0  0  0
   22.2788  -10.5132  -16.1286 C   0  0  0  0  0  0  0  0  0  0  0  0
   21.3597   -9.5602  -15.4586 C   0  0  2  0  0  0  0  0  0  0  0  0
   20.1732   -9.2952  -16.2816 N   0  0  0  0  0  0  0  0  0  0  0  0
   22.0650   -8.2524  -15.2286 C   0  0  0  0  0  0  0  0  0  0  0  0
   23.1014   -8.1649  -14.5459 O   0  0  0  0  0  0  0  0  0  0  0  0
   21.5669   -7.0272  -15.7920 N   0  0  0  0  0  0  0  0  0  0  0  0
   22.2123   -5.7490  -15.4508 C   0  0  1  0  0  0  0  0  0  0  0  0
   22.1890   -4.9284  -16.7026 C   0  0  0  0  0  0  0  0  0  0  0  0
   20.8714   -4.7079  -17.2936 C   0  0  0  0  0  0  0  0  0  0  0  0
   20.3984   -5.5933  -18.2323 C   0  0  0  0  0  0  0  0  0  0  0  0
   19.1528   -5.4703  -18.8391 C   0  0  0  0  0  0  0  0  0  0  0  0
   18.3619   -4.4199  -18.4861 C   0  0  0  0  0  0  0  0  0  0  0  0
   18.8009   -3.5165  -17.5534 C   0  0  0  0  0  0  0  0  0  0  0  0
   20.0386   -3.6562  -16.9637 C   0  0  0  0  0  0  0  0  0  0  0  0
   21.3913   -5.0952  -14.4195 C   0  0  0  0  0  0  0  0  0  0  0  0
   21.7200   -3.9945  -13.9463 O   0  0  0  0  0  0  0  0  0  0  0  0
   20.2424   -5.7081  -13.9721 O   0  0  0  0  0  0  0  0  0  0  0  0
  2  1  1  1
  2  3  1  0
  4  3  1  0
  5  4  1  0
  6  5  1  0
  7  6  1  0
  8  9  2  0
  8  2  1  0
 11 10  1  0
 11 13  1  0
 12 11  2  0
 14 13  1  6
 14 15  1  0
 15  8  1  0
 16 14  1  0
 16 18  1  0
 17 16  2  0
 19 20  1  6
 19 18  1  0
 19 27  1  0
 21 26  2  0
 21 20  1  0
 22 21  1  0
 23 24  1  0
 23 22  2  0
 24 25  2  0
 25 26  1  0
 27 28  2  0
 27 29  1  0
M  END
$$$$
