KNF.pdb
     RDKit          3D

 29 29  0  0  1  0  0  0  0  0999 V2000
   25.3908  -31.6421   -8.0283 N   0  0  0  0  0  0  0  0  0  0  0  0
   25.7752  -33.0411   -7.7517 C   0  0  1  0  0  0  0  0  0  0  0  0
   26.5240  -33.6074   -8.9091 C   0  0  0  0  0  0  0  0  0  0  0  0
   25.6539  -33.9146  -10.0706 C   0  0  0  0  0  0  0  0  0  0  0  0
   26.4524  -34.5773  -11.1949 C   0  0  0  0  0  0  0  0  0  0  0  0
   25.5078  -34.8709  -12.3658 C   0  0  0  0  0  0  0  0  0  0  0  0
   26.2420  -35.4484  -13.4647 N   0  0  0  0  0  0  0  0  0  0  0  0
   26.6146  -33.0151   -6.5410 C   0  0  0  0  0  0  0  0  0  0  0  0
   27.4698  -32.0820   -6.3964 O   0  0  0  0  0  0  0  0  0  0  0  0
   25.8792  -31.6887   -2.9744 N   0  0  0  0  0  0  0  0  0  0  0  0
   25.5625  -33.0582   -2.6664 C   0  0  0  0  0  0  0  0  0  0  0  0
   24.5052  -33.2779   -2.0641 O   0  0  0  0  0  0  0  0  0  0  0  0
   26.5172  -34.0943   -3.0897 C   0  0  0  0  0  0  0  0  0  0  0  0
   27.3208  -33.8106   -4.3045 C   0  0  2  0  0  0  0  0  0  0  0  0
   26.5214  -33.9787   -5.5243 N   0  0  0  0  0  0  0  0  0  0  0  0
   28.4823  -34.7627   -4.3776 C   0  0  0  0  0  0  0  0  0  0  0  0
   28.4159  -35.8505   -4.9776 O   0  0  0  0  0  0  0  0  0  0  0  0
   29.7379  -34.4573   -3.7477 N   0  0  0  0  0  0  0  0  0  0  0  0
   30.8457  -35.4242   -3.8164 C   0  0  1  0  0  0  0  0  0  0  0  0
   31.9437  -34.7401   -4.5696 C   0  0  0  0  0  0  0  0  0  0  0  0
   32.5313  -33.5731   -3.9162 C   0  0  0  0  0  0  0  0  0  0  0  0
   31.9263  -32.3472   -4.0575 C   0  0  0  0  0  0  0  0  0  0  0  0
   32.4069  -31.1850   -3.4632 C   0  0  0  0  0  0  0  0  0  0  0  0
   33.5337  -31.2651   -2.7032 C   0  0  0  0  0  0  0  0  0  0  0  0
   34.1644  -32.4712   -2.5404 C   0  0  0  0  0  0  0  0  0  0  0  0
   33.6719  -33.6112   -3.1378 C   0  0  0  0  0  0  0  0  0  0  0  0
   31.2888  -35.6946   -2.4396 C   0  0  0  0  0  0  0  0  0  0  0  0
   30.7965  -35.0795   -1.4791 O   0  0  0  0  0  0  0  0  0  0  0  0
   32.2609  -36.6423   -2.2095 O   0  0  0  0  0  0  0  0  0  0  0  0
  2  1  1  6
  2  3  1  0
  4  3  1  0
  5  4  1  0
  6  5  1  0
  7  6  1  0
  8  9  2  0
  8  2  1  0
 11 10  1  0
 11 13  1  0
 12 11  2  0
 14 13  1  1
 14 15  1  0
 15  8  1  0
 16 14  1  0
 16 18  1  0
 17 16  2  0
 19 20  1  6
 19 18  1  0
 19 27  1  0
 21 26  2  0
 21 20  1  0
 22 21  1  0
 23 24  1  0
 23 22  2  0
 24 25  2  0
 25 26  1  0
 27 28  2  0
 27 29  1  0
M  END
$$$$
