KNF.pdb
     RDKit          3D

 29 29  0  0  1  0  0  0  0  0999 V2000
   27.3145  -17.8594  -13.3298 N   0  0  0  0  0  0  0  0  0  0  0  0
   25.9694  -17.4374  -13.7699 C   0  0  1  0  0  0  0  0  0  0  0  0
   25.9562  -17.2157  -15.2437 C   0  0  0  0  0  0  0  0  0  0  0  0
   27.0482  -17.9303  -15.9490 C   0  0  0  0  0  0  0  0  0  0  0  0
   27.0057  -17.6511  -17.4527 C   0  0  0  0  0  0  0  0  0  0  0  0
   28.1829  -18.3687  -18.1225 C   0  0  0  0  0  0  0  0  0  0  0  0
   28.1616  -18.1378  -19.5460 N   0  0  0  0  0  0  0  0  0  0  0  0
   25.0438  -18.5190  -13.3900 C   0  0  0  0  0  0  0  0  0  0  0  0
   24.0764  -18.8114  -14.1656 O   0  0  0  0  0  0  0  0  0  0  0  0
   25.7057  -23.4699  -12.6697 N   0  0  0  0  0  0  0  0  0  0  0  0
   26.3310  -22.5784  -13.6104 C   0  0  0  0  0  0  0  0  0  0  0  0
   26.9884  -23.0853  -14.5269 O   0  0  0  0  0  0  0  0  0  0  0  0
   26.1427  -21.1327  -13.4138 C   0  0  0  0  0  0  0  0  0  0  0  0
   25.2899  -20.7158  -12.2732 C   0  0  2  0  0  0  0  0  0  0  0  0
   25.1726  -19.2542  -12.2010 N   0  0  0  0  0  0  0  0  0  0  0  0
   25.8974  -21.1956  -10.9843 C   0  0  0  0  0  0  0  0  0  0  0  0
   25.8849  -22.3929  -10.6464 O   0  0  0  0  0  0  0  0  0  0  0  0
   26.5263  -20.2814  -10.0703 N   0  0  0  0  0  0  0  0  0  0  0  0
   26.9137  -20.7403   -8.7264 C   0  0  1  0  0  0  0  0  0  0  0  0
   27.8563  -19.7065   -8.1937 C   0  0  0  0  0  0  0  0  0  0  0  0
   28.2092  -19.8354   -6.7820 C   0  0  0  0  0  0  0  0  0  0  0  0
   29.3537  -20.5118   -6.4336 C   0  0  0  0  0  0  0  0  0  0  0  0
   29.7747  -20.6742   -5.1179 C   0  0  0  0  0  0  0  0  0  0  0  0
   29.0148  -20.1365   -4.1243 C   0  0  0  0  0  0  0  0  0  0  0  0
   27.8663  -19.4555   -4.4342 C   0  0  0  0  0  0  0  0  0  0  0  0
   27.4666  -19.3057   -5.7445 C   0  0  0  0  0  0  0  0  0  0  0  0
   25.6986  -20.7711   -7.8972 C   0  0  0  0  0  0  0  0  0  0  0  0
   24.7003  -20.0985   -8.2042 O   0  0  0  0  0  0  0  0  0  0  0  0
   25.6641  -21.5558   -6.7662 O   0  0  0  0  0  0  0  0  0  0  0  0
  2  1  1  6
  2  3  1  0
  4  3  1  0
  5  4  1  0
  6  5  1  0
  7  6  1  0
  8  9  2  0
  8  2  1  0
 11 10  1  0
 11 13  1  0
 12 11  2  0
 14 13  1  6
 14 15  1  0
 15  8  1  0
 16 14  1  0
 16 18  1  0
 17 16  2  0
 19 20  1  1
 19 18  1  0
 19 27  1  0
 21 26  2  0
 21 20  1  0
 22 21  1  0
 23 24  1  0
 23 22  2  0
 24 25  2  0
 25 26  1  0
 27 28  2  0
 27 29  1  0
M  END
$$$$
