KNF.pdb
     RDKit          3D

 29 29  0  0  1  0  0  0  0  0999 V2000
   25.6768  -24.3859  -16.7578 N   0  0  0  0  0  0  0  0  0  0  0  0
   25.3972  -23.3781  -15.7151 C   0  0  1  0  0  0  0  0  0  0  0  0
   24.3547  -23.8832  -14.7775 C   0  0  0  0  0  0  0  0  0  0  0  0
   23.1915  -24.4874  -15.4721 C   0  0  0  0  0  0  0  0  0  0  0  0
   22.3873  -23.4242  -16.2230 C   0  0  0  0  0  0  0  0  0  0  0  0
   21.1883  -24.0975  -16.9000 C   0  0  0  0  0  0  0  0  0  0  0  0
   20.0045  -23.9343  -16.0923 N   0  0  0  0  0  0  0  0  0  0  0  0
   26.6690  -23.1373  -15.0110 C   0  0  0  0  0  0  0  0  0  0  0  0
   27.7648  -23.4474  -15.5819 O   0  0  0  0  0  0  0  0  0  0  0  0
   28.1271  -18.4776  -14.3609 N   0  0  0  0  0  0  0  0  0  0  0  0
   26.7336  -18.8359  -14.3430 C   0  0  0  0  0  0  0  0  0  0  0  0
   25.9090  -17.9175  -14.2682 O   0  0  0  0  0  0  0  0  0  0  0  0
   26.3925  -20.2651  -14.4152 C   0  0  0  0  0  0  0  0  0  0  0  0
   27.1922  -21.1894  -13.5737 C   0  0  2  0  0  0  0  0  0  0  0  0
   26.7380  -22.5772  -13.7256 N   0  0  0  0  0  0  0  0  0  0  0  0
   27.0468  -20.8108  -12.1259 C   0  0  0  0  0  0  0  0  0  0  0  0
   27.3563  -19.6846  -11.6970 O   0  0  0  0  0  0  0  0  0  0  0  0
   26.5395  -21.7447  -11.1579 N   0  0  0  0  0  0  0  0  0  0  0  0
   26.4275  -21.3465   -9.7453 C   0  0  1  0  0  0  0  0  0  0  0  0
   27.4859  -20.3114   -9.5236 C   0  0  0  0  0  0  0  0  0  0  0  0
   27.7927  -20.0045   -8.1287 C   0  0  0  0  0  0  0  0  0  0  0  0
   27.0151  -19.0947   -7.4532 C   0  0  0  0  0  0  0  0  0  0  0  0
   27.2248  -18.7497   -6.1221 C   0  0  0  0  0  0  0  0  0  0  0  0
   28.2523  -19.3426   -5.4541 C   0  0  0  0  0  0  0  0  0  0  0  0
   29.0493  -20.2546   -6.0959 C   0  0  0  0  0  0  0  0  0  0  0  0
   28.8247  -20.5829   -7.4153 C   0  0  0  0  0  0  0  0  0  0  0  0
   25.1002  -20.7402   -9.5558 C   0  0  0  0  0  0  0  0  0  0  0  0
   24.6038  -20.0076  -10.4276 O   0  0  0  0  0  0  0  0  0  0  0  0
   24.3961  -20.9874   -8.3985 O   0  0  0  0  0  0  0  0  0  0  0  0
  2  1  1  6
  2  3  1  0
  4  3  1  0
  5  4  1  0
  6  5  1  0
  7  6  1  0
  8  9  2  0
  8  2  1  0
 11 10  1  0
 11 13  1  0
 12 11  2  0
 14 13  1  6
 14 15  1  0
 15  8  1  0
 16 14  1  0
 16 18  1  0
 17 16  2  0
 19 20  1  6
 19 18  1  0
 19 27  1  0
 21 26  2  0
 21 20  1  0
 22 21  1  0
 23 24  1  0
 23 22  2  0
 24 25  2  0
 25 26  1  0
 27 28  2  0
 27 29  1  0
M  END
$$$$
