KNF.pdb
     RDKit          3D

 29 29  0  0  1  0  0  0  0  0999 V2000
   27.3357  -21.3817  -15.1386 N   0  0  0  0  0  0  0  0  0  0  0  0
   27.7840  -20.1229  -14.5097 C   0  0  1  0  0  0  0  0  0  0  0  0
   27.7079  -19.0025  -15.4896 C   0  0  0  0  0  0  0  0  0  0  0  0
   28.3053  -19.3388  -16.8050 C   0  0  0  0  0  0  0  0  0  0  0  0
   28.2451  -18.1429  -17.7574 C   0  0  0  0  0  0  0  0  0  0  0  0
   28.8621  -18.5487  -19.1006 C   0  0  0  0  0  0  0  0  0  0  0  0
   28.7655  -17.4600  -20.0417 N   0  0  0  0  0  0  0  0  0  0  0  0
   26.8900  -19.8837  -13.3632 C   0  0  0  0  0  0  0  0  0  0  0  0
   26.9719  -18.7817  -12.7294 O   0  0  0  0  0  0  0  0  0  0  0  0
   23.0898  -19.4199  -13.3353 N   0  0  0  0  0  0  0  0  0  0  0  0
   22.7759  -20.6308  -12.6240 C   0  0  0  0  0  0  0  0  0  0  0  0
   21.6405  -21.0992  -12.7677 O   0  0  0  0  0  0  0  0  0  0  0  0
   23.8261  -21.2218  -11.7802 C   0  0  0  0  0  0  0  0  0  0  0  0
   25.1305  -20.5156  -11.7388 C   0  0  2  0  0  0  0  0  0  0  0  0
   25.9399  -20.8198  -12.9253 N   0  0  0  0  0  0  0  0  0  0  0  0
   25.9049  -20.9520  -10.5261 C   0  0  0  0  0  0  0  0  0  0  0  0
   26.4502  -22.0676  -10.4492 O   0  0  0  0  0  0  0  0  0  0  0  0
   26.0507  -20.0907   -9.3844 N   0  0  0  0  0  0  0  0  0  0  0  0
   26.7192  -20.5896   -8.1716 C   0  0  1  0  0  0  0  0  0  0  0  0
   27.6497  -19.5008   -7.7363 C   0  0  0  0  0  0  0  0  0  0  0  0
   28.2135  -19.6445   -6.3963 C   0  0  0  0  0  0  0  0  0  0  0  0
   29.3265  -20.4301   -6.2154 C   0  0  0  0  0  0  0  0  0  0  0  0
   29.9381  -20.6155   -4.9799 C   0  0  0  0  0  0  0  0  0  0  0  0
   29.4077  -19.9877   -3.8946 C   0  0  0  0  0  0  0  0  0  0  0  0
   28.2975  -19.1965   -4.0370 C   0  0  0  0  0  0  0  0  0  0  0  0
   27.7064  -19.0257   -5.2701 C   0  0  0  0  0  0  0  0  0  0  0  0
   25.6862  -20.7932   -7.1436 C   0  0  0  0  0  0  0  0  0  0  0  0
   24.5562  -20.2924   -7.2676 O   0  0  0  0  0  0  0  0  0  0  0  0
   25.9726  -21.5495   -6.0291 O   0  0  0  0  0  0  0  0  0  0  0  0
  2  1  1  6
  2  3  1  0
  4  3  1  0
  5  4  1  0
  6  5  1  0
  7  6  1  0
  8  9  2  0
  8  2  1  0
 11 10  1  0
 11 13  1  0
 12 11  2  0
 14 13  1  6
 14 15  1  0
 15  8  1  0
 16 14  1  0
 16 18  1  0
 17 16  2  0
 19 20  1  1
 19 18  1  0
 19 27  1  0
 21 26  2  0
 21 20  1  0
 22 21  1  0
 23 24  1  0
 23 22  2  0
 24 25  2  0
 25 26  1  0
 27 28  2  0
 27 29  1  0
M  END
$$$$
