KTV.pdb
     RDKit          3D

 24 23  0  0  1  0  0  0  0  0999 V2000
   21.5950  -10.6325  -19.0252 N   0  0  0  0  0  0  0  0  0  0  0  0
   21.6727   -9.1650  -18.9586 C   0  0  1  0  0  0  0  0  0  0  0  0
   21.2372   -8.6582  -20.2793 C   0  0  0  0  0  0  0  0  0  0  0  0
   22.1587   -8.9278  -21.3926 C   0  0  0  0  0  0  0  0  0  0  0  0
   21.9433   -8.4060  -22.7442 C   0  0  0  0  0  0  0  0  0  0  0  0
   22.8869   -8.6803  -23.8426 C   0  0  0  0  0  0  0  0  0  0  0  0
   24.0510   -9.4137  -23.2388 N   0  0  0  0  0  0  0  0  0  0  0  0
   20.6676   -8.7659  -17.8894 C   0  0  0  0  0  0  0  0  0  0  0  0
   19.5563   -9.3528  -17.7984 O   0  0  0  0  0  0  0  0  0  0  0  0
   20.8427   -9.0638  -14.3677 C   0  0  0  0  0  0  0  0  0  0  0  0
   20.6764   -7.5840  -14.6134 C   0  0  1  0  0  0  0  0  0  0  0  0
   21.9472   -6.9612  -14.6170 O   0  0  0  0  0  0  0  0  0  0  0  0
   20.0314   -7.2920  -15.9358 C   0  0  2  0  0  0  0  0  0  0  0  0
   20.9755   -7.7459  -17.0052 N   0  0  0  0  0  0  0  0  0  0  0  0
   19.6736   -5.8980  -16.1891 C   0  0  0  0  0  0  0  0  0  0  0  0
   20.5595   -5.0940  -16.6813 O   0  0  0  0  0  0  0  0  0  0  0  0
   15.8376   -4.4069  -16.6892 C   0  0  0  0  0  0  0  0  0  0  0  0
   17.0606   -3.6657  -17.1906 C   0  0  2  0  0  0  0  0  0  0  0  0
   17.3596   -4.1914  -18.5720 C   0  0  0  0  0  0  0  0  0  0  0  0
   18.1610   -3.8933  -16.2066 C   0  0  2  0  0  0  0  0  0  0  0  0
   18.4423   -5.2899  -15.9633 N   0  0  0  0  0  0  0  0  0  0  0  0
   17.8745   -3.2515  -14.9107 C   0  0  0  0  0  0  0  0  0  0  0  0
   17.6114   -3.9674  -13.7611 O   0  0  0  0  0  0  0  0  0  0  0  0
   17.8666   -2.0015  -14.8368 O   0  0  0  0  0  0  0  0  0  0  0  0
  2  1  1  6
  3  2  1  0
  4  3  1  0
  5  6  1  0
  5  4  1  0
  6  7  1  0
  8  2  1  0
  8  9  2  0
 11 10  1  6
 11 13  1  0
 12 11  1  0
 13 14  1  6
 14  8  1  0
 15 13  1  0
 16 15  2  0
 18 17  1  1
 19 18  1  0
 20 21  1  1
 20 18  1  0
 21 15  1  0
 22 20  1  0
 23 22  1  0
 24 22  2  0
M  END
$$$$
