KTV.pdb
     RDKit          3D

 24 23  0  0  1  0  0  0  0  0999 V2000
   26.2925  -22.3111  -11.4842 N   0  0  0  0  0  0  0  0  0  0  0  0
   25.4371  -21.1447  -11.7522 C   0  0  1  0  0  0  0  0  0  0  0  0
   25.3217  -20.4030  -10.4766 C   0  0  0  0  0  0  0  0  0  0  0  0
   24.1354  -20.7205   -9.6684 C   0  0  0  0  0  0  0  0  0  0  0  0
   22.8309  -21.0256  -10.2606 C   0  0  0  0  0  0  0  0  0  0  0  0
   21.6418  -21.2855   -9.4297 C   0  0  0  0  0  0  0  0  0  0  0  0
   21.6686  -20.2819   -8.3118 N   0  0  0  0  0  0  0  0  0  0  0  0
   26.2078  -20.3169  -12.7690 C   0  0  0  0  0  0  0  0  0  0  0  0
   27.4026  -19.9801  -12.5531 O   0  0  0  0  0  0  0  0  0  0  0  0
   27.1868  -21.4761  -15.8112 C   0  0  0  0  0  0  0  0  0  0  0  0
   26.4281  -20.2281  -16.1919 C   0  0  1  0  0  0  0  0  0  0  0  0
   25.1085  -20.5750  -16.5675 O   0  0  0  0  0  0  0  0  0  0  0  0
   26.3283  -19.2506  -15.0585 C   0  0  2  0  0  0  0  0  0  0  0  0
   25.5907  -19.9280  -13.9458 N   0  0  0  0  0  0  0  0  0  0  0  0
   25.6667  -17.9814  -15.3531 C   0  0  0  0  0  0  0  0  0  0  0  0
   24.4437  -17.7990  -14.9730 O   0  0  0  0  0  0  0  0  0  0  0  0
   27.4076  -14.6929  -17.4304 C   0  0  0  0  0  0  0  0  0  0  0  0
   26.3204  -14.4571  -16.4013 C   0  0  2  0  0  0  0  0  0  0  0  0
   27.0083  -14.1383  -15.0978 C   0  0  0  0  0  0  0  0  0  0  0  0
   25.4719  -15.6853  -16.3518 C   0  0  2  0  0  0  0  0  0  0  0  0
   26.2063  -16.8849  -16.0190 N   0  0  0  0  0  0  0  0  0  0  0  0
   24.7723  -15.9162  -17.6288 C   0  0  0  0  0  0  0  0  0  0  0  0
   25.0530  -16.9846  -18.4552 O   0  0  0  0  0  0  0  0  0  0  0  0
   23.8816  -15.1139  -17.9908 O   0  0  0  0  0  0  0  0  0  0  0  0
  2  1  1  1
  3  2  1  0
  4  3  1  0
  5  6  1  0
  5  4  1  0
  6  7  1  0
  8  2  1  0
  8  9  2  0
 11 10  1  1
 11 13  1  0
 12 11  1  0
 13 14  1  1
 14  8  1  0
 15 13  1  0
 16 15  2  0
 18 17  1  6
 19 18  1  0
 20 21  1  6
 20 18  1  0
 21 15  1  0
 22 20  1  0
 23 22  1  0
 24 22  2  0
M  END
$$$$
