KTV.pdb
     RDKit          3D

 24 23  0  0  1  0  0  0  0  0999 V2000
   22.4417  -17.4994  -18.9296 N   0  0  0  0  0  0  0  0  0  0  0  0
   23.1434  -16.3707  -19.5601 C   0  0  1  0  0  0  0  0  0  0  0  0
   23.8718  -16.9228  -20.7243 C   0  0  0  0  0  0  0  0  0  0  0  0
   24.9588  -17.8584  -20.4013 C   0  0  0  0  0  0  0  0  0  0  0  0
   25.7474  -18.5427  -21.4286 C   0  0  0  0  0  0  0  0  0  0  0  0
   26.8591  -19.4459  -21.0816 C   0  0  0  0  0  0  0  0  0  0  0  0
   27.4155  -19.9635  -22.3777 N   0  0  0  0  0  0  0  0  0  0  0  0
   22.0405  -15.4352  -20.0307 C   0  0  0  0  0  0  0  0  0  0  0  0
   20.8916  -15.8773  -20.2996 O   0  0  0  0  0  0  0  0  0  0  0  0
   19.5931  -14.4803  -19.1724 C   0  0  0  0  0  0  0  0  0  0  0  0
   20.2536  -13.1296  -19.3054 C   0  0  1  0  0  0  0  0  0  0  0  0
   20.9744  -12.8391  -18.1226 O   0  0  0  0  0  0  0  0  0  0  0  0
   21.2261  -13.0777  -20.4462 C   0  0  2  0  0  0  0  0  0  0  0  0
   22.3003  -14.0819  -20.1658 N   0  0  0  0  0  0  0  0  0  0  0  0
   21.8526  -11.7833  -20.7058 C   0  0  0  0  0  0  0  0  0  0  0  0
   22.8745  -11.4193  -20.0011 O   0  0  0  0  0  0  0  0  0  0  0  0
   21.1741   -9.4152  -24.1390 C   0  0  0  0  0  0  0  0  0  0  0  0
   22.5041   -9.4520  -23.4135 C   0  0  2  0  0  0  0  0  0  0  0  0
   23.3095  -10.5705  -24.0253 C   0  0  0  0  0  0  0  0  0  0  0  0
   22.2196   -9.6381  -21.9591 C   0  0  2  0  0  0  0  0  0  0  0  0
   21.4796  -10.8436  -21.6621 N   0  0  0  0  0  0  0  0  0  0  0  0
   21.4765   -8.4949  -21.3985 C   0  0  0  0  0  0  0  0  0  0  0  0
   22.0595   -7.2688  -21.1539 O   0  0  0  0  0  0  0  0  0  0  0  0
   20.2614   -8.6301  -21.1278 O   0  0  0  0  0  0  0  0  0  0  0  0
  2  1  1  6
  3  2  1  0
  4  3  1  0
  5  6  1  0
  5  4  1  0
  6  7  1  0
  8  2  1  0
  8  9  2  0
 11 10  1  1
 11 13  1  0
 12 11  1  0
 13 14  1  1
 14  8  1  0
 15 13  1  0
 16 15  2  0
 18 17  1  6
 19 18  1  0
 20 21  1  6
 20 18  1  0
 21 15  1  0
 22 20  1  0
 23 22  1  0
 24 22  2  0
M  END
$$$$
