KTV.pdb
     RDKit          3D

 24 23  0  0  1  0  0  0  0  0999 V2000
   24.9023  -22.0269  -10.7062 N   0  0  0  0  0  0  0  0  0  0  0  0
   24.5287  -21.4822  -12.0206 C   0  0  1  0  0  0  0  0  0  0  0  0
   23.1883  -20.8751  -11.8613 C   0  0  0  0  0  0  0  0  0  0  0  0
   22.1011  -21.5496  -12.5855 C   0  0  0  0  0  0  0  0  0  0  0  0
   20.9979  -22.2310  -11.9044 C   0  0  0  0  0  0  0  0  0  0  0  0
   19.6774  -21.5978  -11.7386 C   0  0  0  0  0  0  0  0  0  0  0  0
   18.8228  -22.5736  -10.9804 N   0  0  0  0  0  0  0  0  0  0  0  0
   25.5601  -20.4016  -12.3064 C   0  0  0  0  0  0  0  0  0  0  0  0
   26.5891  -20.2869  -11.5882 O   0  0  0  0  0  0  0  0  0  0  0  0
   28.0491  -20.4833  -13.1743 C   0  0  0  0  0  0  0  0  0  0  0  0
   27.5821  -19.6291  -14.3277 C   0  0  1  0  0  0  0  0  0  0  0  0
   27.0925  -20.4613  -15.3623 O   0  0  0  0  0  0  0  0  0  0  0  0
   26.4715  -18.6990  -13.9384 C   0  0  2  0  0  0  0  0  0  0  0  0
   25.3675  -19.5330  -13.3672 N   0  0  0  0  0  0  0  0  0  0  0  0
   25.9225  -17.8629  -15.0037 C   0  0  0  0  0  0  0  0  0  0  0  0
   24.9274  -18.2999  -15.7054 O   0  0  0  0  0  0  0  0  0  0  0  0
   25.2064  -13.5106  -17.1841 C   0  0  0  0  0  0  0  0  0  0  0  0
   25.8781  -14.2747  -16.0609 C   0  0  2  0  0  0  0  0  0  0  0  0
   27.3355  -13.8877  -16.0739 C   0  0  0  0  0  0  0  0  0  0  0  0
   25.6373  -15.7296  -16.2979 C   0  0  2  0  0  0  0  0  0  0  0  0
   26.3469  -16.5922  -15.3807 N   0  0  0  0  0  0  0  0  0  0  0  0
   25.9991  -16.1252  -17.6712 C   0  0  0  0  0  0  0  0  0  0  0  0
   27.2083  -16.7077  -17.9900 O   0  0  0  0  0  0  0  0  0  0  0  0
   25.1811  -15.9289  -18.5988 O   0  0  0  0  0  0  0  0  0  0  0  0
  2  1  1  1
  3  2  1  0
  4  3  1  0
  5  6  1  0
  5  4  1  0
  6  7  1  0
  8  2  1  0
  8  9  2  0
 11 10  1  1
 11 13  1  0
 12 11  1  0
 13 14  1  6
 14  8  1  0
 15 13  1  0
 16 15  2  0
 18 17  1  6
 19 18  1  0
 20 21  1  1
 20 18  1  0
 21 15  1  0
 22 20  1  0
 23 22  1  0
 24 22  2  0
M  END
$$$$
