KTV.pdb
     RDKit          3D

 24 23  0  0  1  0  0  0  0  0999 V2000
   18.3681  -13.6504  -19.4555 N   0  0  0  0  0  0  0  0  0  0  0  0
   17.8338  -12.5130  -18.6908 C   0  0  1  0  0  0  0  0  0  0  0  0
   17.2419  -13.0744  -17.4558 C   0  0  0  0  0  0  0  0  0  0  0  0
   16.0744  -13.9451  -17.6563 C   0  0  0  0  0  0  0  0  0  0  0  0
   15.3305  -14.5423  -16.5448 C   0  0  0  0  0  0  0  0  0  0  0  0
   14.1147  -15.3454  -16.7659 C   0  0  0  0  0  0  0  0  0  0  0  0
   13.6784  -15.8481  -15.4189 N   0  0  0  0  0  0  0  0  0  0  0  0
   19.0482  -11.6641  -18.3480 C   0  0  0  0  0  0  0  0  0  0  0  0
   20.2058  -12.1618  -18.3575 O   0  0  0  0  0  0  0  0  0  0  0  0
   20.0141   -8.6817  -20.1732 C   0  0  0  0  0  0  0  0  0  0  0  0
   19.8975   -8.2550  -18.7302 C   0  0  1  0  0  0  0  0  0  0  0  0
   18.6243   -7.6775  -18.5110 O   0  0  0  0  0  0  0  0  0  0  0  0
   20.0359   -9.4070  -17.7795 C   0  0  2  0  0  0  0  0  0  0  0  0
   18.8817  -10.3290  -18.0212 N   0  0  0  0  0  0  0  0  0  0  0  0
   20.0773   -9.0728  -16.3575 C   0  0  0  0  0  0  0  0  0  0  0  0
   18.9756   -9.0389  -15.6804 O   0  0  0  0  0  0  0  0  0  0  0  0
   23.5904   -8.6768  -14.0044 C   0  0  0  0  0  0  0  0  0  0  0  0
   22.2724   -9.1271  -13.4072 C   0  0  2  0  0  0  0  0  0  0  0  0
   22.2484  -10.6333  -13.4762 C   0  0  0  0  0  0  0  0  0  0  0  0
   21.1779   -8.4695  -14.1822 C   0  0  2  0  0  0  0  0  0  0  0  0
   21.2026   -8.7748  -15.5946 N   0  0  0  0  0  0  0  0  0  0  0  0
   21.2073   -7.0034  -14.0301 C   0  0  0  0  0  0  0  0  0  0  0  0
   20.9067   -6.3663  -12.8440 O   0  0  0  0  0  0  0  0  0  0  0  0
   21.5174   -6.2936  -15.0140 O   0  0  0  0  0  0  0  0  0  0  0  0
  2  1  1  6
  3  2  1  0
  4  3  1  0
  5  6  1  0
  5  4  1  0
  6  7  1  0
  8  2  1  0
  8  9  2  0
 11 10  1  6
 11 13  1  0
 12 11  1  0
 13 14  1  1
 14  8  1  0
 15 13  1  0
 16 15  2  0
 18 17  1  6
 19 18  1  0
 20 21  1  6
 20 18  1  0
 21 15  1  0
 22 20  1  0
 23 22  1  0
 24 22  2  0
M  END
$$$$
