KTV.pdb
     RDKit          3D

 24 23  0  0  1  0  0  0  0  0999 V2000
   26.1016  -22.2965  -11.3068 N   0  0  0  0  0  0  0  0  0  0  0  0
   25.6933  -20.8832  -11.3015 C   0  0  1  0  0  0  0  0  0  0  0  0
   26.0548  -20.3436   -9.9716 C   0  0  0  0  0  0  0  0  0  0  0  0
   25.0855  -20.6101   -8.8989 C   0  0  0  0  0  0  0  0  0  0  0  0
   23.6371  -20.5252   -9.0999 C   0  0  0  0  0  0  0  0  0  0  0  0
   22.7332  -21.6233   -8.7134 C   0  0  0  0  0  0  0  0  0  0  0  0
   21.3548  -21.2251   -9.1594 N   0  0  0  0  0  0  0  0  0  0  0  0
   26.5404  -20.2249  -12.3794 C   0  0  0  0  0  0  0  0  0  0  0  0
   27.7675  -20.4905  -12.4864 O   0  0  0  0  0  0  0  0  0  0  0  0
   27.9946  -20.8681  -14.5248 C   0  0  0  0  0  0  0  0  0  0  0  0
   27.1531  -19.8692  -15.2812 C   0  0  1  0  0  0  0  0  0  0  0  0
   25.9951  -20.5112  -15.7808 O   0  0  0  0  0  0  0  0  0  0  0  0
   26.6961  -18.7330  -14.4149 C   0  0  2  0  0  0  0  0  0  0  0  0
   25.9582  -19.3230  -13.2538 N   0  0  0  0  0  0  0  0  0  0  0  0
   25.8415  -17.7341  -15.0531 C   0  0  0  0  0  0  0  0  0  0  0  0
   24.5581  -17.8117  -14.9108 O   0  0  0  0  0  0  0  0  0  0  0  0
   27.2085  -14.4484  -17.3726 C   0  0  0  0  0  0  0  0  0  0  0  0
   25.9923  -14.2936  -16.4818 C   0  0  2  0  0  0  0  0  0  0  0  0
   26.4734  -13.7150  -15.1749 C   0  0  0  0  0  0  0  0  0  0  0  0
   25.3561  -15.6384  -16.3491 C   0  0  2  0  0  0  0  0  0  0  0  0
   26.2456  -16.6525  -15.8302 N   0  0  0  0  0  0  0  0  0  0  0  0
   24.8182  -16.1162  -17.6359 C   0  0  0  0  0  0  0  0  0  0  0  0
   23.6502  -15.6313  -18.1869 O   0  0  0  0  0  0  0  0  0  0  0  0
   25.4400  -17.0014  -18.2667 O   0  0  0  0  0  0  0  0  0  0  0  0
  2  1  1  1
  3  2  1  0
  4  3  1  0
  5  6  1  0
  5  4  1  0
  6  7  1  0
  8  2  1  0
  8  9  2  0
 11 10  1  1
 11 13  1  0
 12 11  1  0
 13 14  1  1
 14  8  1  0
 15 13  1  0
 16 15  2  0
 18 17  1  6
 19 18  1  0
 20 21  1  6
 20 18  1  0
 21 15  1  0
 22 20  1  0
 23 22  1  0
 24 22  2  0
M  END
$$$$
