FLC.pdb
     RDKit          3D

 26 26  0  0  1  0  0  0  0  0999 V2000
   24.6441   -6.5694  -19.3405 N   0  0  0  0  0  0  0  0  0  0  0  0
   24.8214   -6.3506  -17.9204 C   0  0  1  0  0  0  0  0  0  0  0  0
   25.0170   -4.8944  -17.6000 C   0  0  0  0  0  0  0  0  0  0  0  0
   26.2127   -4.2969  -18.1765 C   0  0  0  0  0  0  0  0  0  0  0  0
   27.4267   -4.5623  -17.5737 C   0  0  0  0  0  0  0  0  0  0  0  0
   28.5966   -4.0475  -18.0426 C   0  0  0  0  0  0  0  0  0  0  0  0
   28.6049   -3.2427  -19.1375 C   0  0  0  0  0  0  0  0  0  0  0  0
   27.4248   -2.9453  -19.7770 C   0  0  0  0  0  0  0  0  0  0  0  0
   26.2561   -3.4775  -19.2842 C   0  0  0  0  0  0  0  0  0  0  0  0
   23.5708   -6.7825  -17.2480 C   0  0  0  0  0  0  0  0  0  0  0  0
   22.4874   -6.7663  -17.8807 O   0  0  0  0  0  0  0  0  0  0  0  0
   23.6374  -10.9583  -13.5326 C   0  0  0  0  0  0  0  0  0  0  0  0
   23.1738  -10.0503  -14.6044 C   0  0  1  0  0  0  0  0  0  0  0  0
   22.0675  -10.7355  -15.4433 C   0  0  0  0  0  0  0  0  0  0  0  0
   22.7289   -8.6927  -14.2623 C   0  0  0  0  0  0  0  0  0  0  0  0
   22.2718   -7.7472  -15.3023 C   0  0  2  0  0  0  0  0  0  0  0  0
   23.5348   -7.2217  -15.9007 N   0  0  0  0  0  0  0  0  0  0  0  0
   21.5088   -6.5742  -14.8981 C   0  0  0  0  0  0  0  0  0  0  0  0
   21.9113   -5.6796  -14.0790 O   0  0  0  0  0  0  0  0  0  0  0  0
   20.1999   -6.3502  -15.4240 N   0  0  0  0  0  0  0  0  0  0  0  0
   19.4570   -5.1492  -15.0471 C   0  0  1  0  0  0  0  0  0  0  0  0
   19.4683   -4.1505  -16.1836 C   0  0  0  0  0  0  0  0  0  0  0  0
   18.4032   -2.7443  -15.8715 S   0  0  0  0  0  0  0  0  0  0  0  0
   18.1016   -5.5501  -14.6579 C   0  0  0  0  0  0  0  0  0  0  0  0
   17.3962   -4.8119  -13.7264 O   0  0  0  0  0  0  0  0  0  0  0  0
   17.5047   -6.5568  -15.1257 O   0  0  0  0  0  0  0  0  0  0  0  0
  2  1  1  6
  3  2  1  0
  4  3  1  0
  5  4  2  0
  6  7  2  0
  6  5  1  0
  7  8  1  0
  8  9  2  0
  9  4  1  0
 10  2  1  0
 10 17  1  0
 11 10  2  0
 13 14  1  1
 13 12  1  0
 15 13  1  0
 16 15  1  1
 16 17  1  0
 18 16  1  0
 19 18  2  0
 20 18  1  0
 21 20  1  0
 21 22  1  6
 23 22  1  0
 24 21  1  0
 24 25  1  0
 26 24  2  0
M  END
$$$$
