FLC.pdb
     RDKit          3D

 26 26  0  0  1  0  0  0  0  0999 V2000
   25.3527  -18.3678  -16.0771 N   0  0  0  0  0  0  0  0  0  0  0  0
   26.3980  -18.7122  -15.1365 C   0  0  1  0  0  0  0  0  0  0  0  0
   27.4205  -17.6166  -15.0123 C   0  0  0  0  0  0  0  0  0  0  0  0
   28.2011  -17.3697  -16.2160 C   0  0  0  0  0  0  0  0  0  0  0  0
   29.0880  -18.3456  -16.6265 C   0  0  0  0  0  0  0  0  0  0  0  0
   29.8593  -18.2023  -17.7392 C   0  0  0  0  0  0  0  0  0  0  0  0
   29.7781  -17.0744  -18.4928 C   0  0  0  0  0  0  0  0  0  0  0  0
   28.9116  -16.0703  -18.1303 C   0  0  0  0  0  0  0  0  0  0  0  0
   28.1431  -16.2387  -17.0021 C   0  0  0  0  0  0  0  0  0  0  0  0
   25.7600  -18.8682  -13.8056 C   0  0  0  0  0  0  0  0  0  0  0  0
   25.1427  -17.9023  -13.2951 O   0  0  0  0  0  0  0  0  0  0  0  0
   21.8202  -19.8641  -11.7381 C   0  0  0  0  0  0  0  0  0  0  0  0
   22.6318  -21.0826  -11.5262 C   0  0  1  0  0  0  0  0  0  0  0  0
   21.8170  -22.3409  -11.9133 C   0  0  0  0  0  0  0  0  0  0  0  0
   23.9642  -21.1813  -12.1369 C   0  0  0  0  0  0  0  0  0  0  0  0
   25.0402  -20.2271  -11.7959 C   0  0  2  0  0  0  0  0  0  0  0  0
   25.8118  -20.0758  -13.0652 N   0  0  0  0  0  0  0  0  0  0  0  0
   26.0168  -20.6032  -10.7829 C   0  0  0  0  0  0  0  0  0  0  0  0
   26.8589  -21.5586  -10.8898 O   0  0  0  0  0  0  0  0  0  0  0  0
   26.0885  -19.8854   -9.5501 N   0  0  0  0  0  0  0  0  0  0  0  0
   26.8462  -20.4354   -8.4277 C   0  0  1  0  0  0  0  0  0  0  0  0
   27.5493  -19.3248   -7.6785 C   0  0  0  0  0  0  0  0  0  0  0  0
   26.4158  -18.3133   -6.7291 S   0  0  0  0  0  0  0  0  0  0  0  0
   25.9240  -21.1964   -7.5793 C   0  0  0  0  0  0  0  0  0  0  0  0
   26.4077  -21.9652   -6.5376 O   0  0  0  0  0  0  0  0  0  0  0  0
   24.6729  -21.2046   -7.7318 O   0  0  0  0  0  0  0  0  0  0  0  0
  2  1  1  6
  3  2  1  0
  4  3  1  0
  5  4  2  0
  6  7  2  0
  6  5  1  0
  7  8  1  0
  8  9  2  0
  9  4  1  0
 10  2  1  0
 10 17  1  0
 11 10  2  0
 13 14  1  6
 13 12  1  0
 15 13  1  0
 16 15  1  6
 16 17  1  0
 18 16  1  0
 19 18  2  0
 20 18  1  0
 21 20  1  0
 21 22  1  1
 23 22  1  0
 24 21  1  0
 24 25  1  0
 26 24  2  0
M  END
$$$$
