FLC.pdb
     RDKit          3D

 26 26  0  0  1  0  0  0  0  0999 V2000
   28.3002  -21.1318  -15.9111 N   0  0  0  0  0  0  0  0  0  0  0  0
   27.7030  -20.0541  -15.1510 C   0  0  1  0  0  0  0  0  0  0  0  0
   26.9395  -19.1052  -16.0330 C   0  0  0  0  0  0  0  0  0  0  0  0
   27.7673  -18.2243  -16.8441 C   0  0  0  0  0  0  0  0  0  0  0  0
   27.9595  -18.5539  -18.1716 C   0  0  0  0  0  0  0  0  0  0  0  0
   28.7175  -17.7901  -19.0055 C   0  0  0  0  0  0  0  0  0  0  0  0
   29.3186  -16.6602  -18.5485 C   0  0  0  0  0  0  0  0  0  0  0  0
   29.1610  -16.2847  -17.2354 C   0  0  0  0  0  0  0  0  0  0  0  0
   28.3905  -17.0728  -16.4127 C   0  0  0  0  0  0  0  0  0  0  0  0
   26.7258  -20.6634  -14.2147 C   0  0  0  0  0  0  0  0  0  0  0  0
   26.0724  -21.6742  -14.5691 O   0  0  0  0  0  0  0  0  0  0  0  0
   26.4140  -22.1893   -9.3332 C   0  0  0  0  0  0  0  0  0  0  0  0
   25.5974  -20.9642   -9.4769 C   0  0  1  0  0  0  0  0  0  0  0  0
   25.8179  -20.0300   -8.2619 C   0  0  0  0  0  0  0  0  0  0  0  0
   25.6982  -20.1658  -10.7058 C   0  0  0  0  0  0  0  0  0  0  0  0
   25.4451  -20.7620  -12.0343 C   0  0  2  0  0  0  0  0  0  0  0  0
   26.4869  -20.1533  -12.9139 N   0  0  0  0  0  0  0  0  0  0  0  0
   24.1718  -20.4989  -12.6907 C   0  0  0  0  0  0  0  0  0  0  0  0
   23.8540  -19.4056  -13.2712 O   0  0  0  0  0  0  0  0  0  0  0  0
   23.1563  -21.5029  -12.7215 N   0  0  0  0  0  0  0  0  0  0  0  0
   21.8669  -21.2187  -13.3484 C   0  0  1  0  0  0  0  0  0  0  0  0
   21.5692  -22.2462  -14.4184 C   0  0  0  0  0  0  0  0  0  0  0  0
   19.8270  -22.3247  -14.8279 S   0  0  0  0  0  0  0  0  0  0  0  0
   20.8440  -21.1801  -12.2989 C   0  0  0  0  0  0  0  0  0  0  0  0
   19.6062  -20.6196  -12.5515 O   0  0  0  0  0  0  0  0  0  0  0  0
   21.0120  -21.6371  -11.1363 O   0  0  0  0  0  0  0  0  0  0  0  0
  2  1  1  6
  3  2  1  0
  4  3  1  0
  5  4  2  0
  6  7  2  0
  6  5  1  0
  7  8  1  0
  8  9  2  0
  9  4  1  0
 10  2  1  0
 10 17  1  0
 11 10  2  0
 13 14  1  1
 13 12  1  0
 15 13  1  0
 16 15  1  1
 16 17  1  0
 18 16  1  0
 19 18  2  0
 20 18  1  0
 21 20  1  0
 21 22  1  6
 23 22  1  0
 24 21  1  0
 24 25  1  0
 26 24  2  0
M  END
$$$$
