FLC.pdb
     RDKit          3D

 26 26  0  0  1  0  0  0  0  0999 V2000
   26.2023  -18.0010  -17.3168 N   0  0  0  0  0  0  0  0  0  0  0  0
   26.1089  -17.4858  -15.9671 C   0  0  1  0  0  0  0  0  0  0  0  0
   24.8171  -16.7509  -15.7382 C   0  0  0  0  0  0  0  0  0  0  0  0
   24.6943  -15.4916  -16.4581 C   0  0  0  0  0  0  0  0  0  0  0  0
   25.3415  -14.3845  -15.9452 C   0  0  0  0  0  0  0  0  0  0  0  0
   25.2832  -13.1661  -16.5499 C   0  0  0  0  0  0  0  0  0  0  0  0
   24.5738  -12.9999  -17.6970 C   0  0  0  0  0  0  0  0  0  0  0  0
   23.9098  -14.0684  -18.2517 C   0  0  0  0  0  0  0  0  0  0  0  0
   23.9839  -15.2890  -17.6220 C   0  0  0  0  0  0  0  0  0  0  0  0
   26.1179  -18.6514  -15.0484 C   0  0  0  0  0  0  0  0  0  0  0  0
   25.3939  -19.6453  -15.2981 O   0  0  0  0  0  0  0  0  0  0  0  0
   30.8093  -20.4934  -12.9616 C   0  0  0  0  0  0  0  0  0  0  0  0
   29.4217  -20.4144  -13.4681 C   0  0  1  0  0  0  0  0  0  0  0  0
   29.0271  -21.7450  -14.1543 C   0  0  0  0  0  0  0  0  0  0  0  0
   28.3392  -20.0180  -12.5575 C   0  0  0  0  0  0  0  0  0  0  0  0
   26.9389  -19.9239  -13.0209 C   0  0  2  0  0  0  0  0  0  0  0  0
   26.9181  -18.7025  -13.8795 N   0  0  0  0  0  0  0  0  0  0  0  0
   25.8846  -19.7309  -12.0348 C   0  0  0  0  0  0  0  0  0  0  0  0
   25.5858  -18.6172  -11.4837 O   0  0  0  0  0  0  0  0  0  0  0  0
   25.0863  -20.8359  -11.6083 N   0  0  0  0  0  0  0  0  0  0  0  0
   24.3008  -20.7383  -10.3795 C   0  0  1  0  0  0  0  0  0  0  0  0
   22.9549  -21.4038  -10.5664 C   0  0  0  0  0  0  0  0  0  0  0  0
   22.0316  -21.5254   -9.0361 S   0  0  0  0  0  0  0  0  0  0  0  0
   25.0795  -21.3306   -9.2877 C   0  0  0  0  0  0  0  0  0  0  0  0
   25.0134  -20.7972   -8.0144 O   0  0  0  0  0  0  0  0  0  0  0  0
   25.8359  -22.3295   -9.4251 O   0  0  0  0  0  0  0  0  0  0  0  0
  2  1  1  6
  3  2  1  0
  4  3  1  0
  5  4  2  0
  6  7  2  0
  6  5  1  0
  7  8  1  0
  8  9  2  0
  9  4  1  0
 10  2  1  0
 10 17  1  0
 11 10  2  0
 13 14  1  1
 13 12  1  0
 15 13  1  0
 16 15  1  1
 16 17  1  0
 18 16  1  0
 19 18  2  0
 20 18  1  0
 21 20  1  0
 21 22  1  6
 23 22  1  0
 24 21  1  0
 24 25  1  0
 26 24  2  0
M  END
$$$$
