FLC.pdb
     RDKit          3D

 26 26  0  0  1  0  0  0  0  0999 V2000
   18.2669  -26.4178   -8.6069 N   0  0  0  0  0  0  0  0  0  0  0  0
   19.1327  -25.8593   -9.6239 C   0  0  1  0  0  0  0  0  0  0  0  0
   19.1254  -26.6869  -10.8794 C   0  0  0  0  0  0  0  0  0  0  0  0
   19.9106  -27.9107  -10.8094 C   0  0  0  0  0  0  0  0  0  0  0  0
   19.2367  -29.1072  -10.6609 C   0  0  0  0  0  0  0  0  0  0  0  0
   19.8870  -30.3009  -10.5862 C   0  0  0  0  0  0  0  0  0  0  0  0
   21.2432  -30.3518  -10.6568 C   0  0  0  0  0  0  0  0  0  0  0  0
   21.9646  -29.1908  -10.8047 C   0  0  0  0  0  0  0  0  0  0  0  0
   21.2847  -27.9974  -10.8777 C   0  0  0  0  0  0  0  0  0  0  0  0
   18.5928  -24.5228   -9.9777 C   0  0  0  0  0  0  0  0  0  0  0  0
   17.3642  -24.2975   -9.8588 O   0  0  0  0  0  0  0  0  0  0  0  0
   20.8189  -18.8292  -10.1944 C   0  0  0  0  0  0  0  0  0  0  0  0
   19.6793  -19.7446  -10.4216 C   0  0  1  0  0  0  0  0  0  0  0  0
   18.8252  -19.2484  -11.6139 C   0  0  0  0  0  0  0  0  0  0  0  0
   19.9271  -21.1828  -10.5896 C   0  0  0  0  0  0  0  0  0  0  0  0
   18.8167  -22.1371  -10.7914 C   0  0  2  0  0  0  0  0  0  0  0  0
   19.4086  -23.4653  -10.4523 N   0  0  0  0  0  0  0  0  0  0  0  0
   18.2526  -22.2857  -12.1259 C   0  0  0  0  0  0  0  0  0  0  0  0
   18.8578  -22.7960  -13.1292 O   0  0  0  0  0  0  0  0  0  0  0  0
   16.9216  -21.8446  -12.3984 N   0  0  0  0  0  0  0  0  0  0  0  0
   16.3531  -22.0197  -13.7335 C   0  0  1  0  0  0  0  0  0  0  0  0
   15.3876  -23.1847  -13.7408 C   0  0  0  0  0  0  0  0  0  0  0  0
   14.1637  -23.0693  -12.4377 S   0  0  0  0  0  0  0  0  0  0  0  0
   15.7227  -20.7582  -14.1339 C   0  0  0  0  0  0  0  0  0  0  0  0
   15.2638  -20.5870  -15.4263 O   0  0  0  0  0  0  0  0  0  0  0  0
   15.5597  -19.7770  -13.3597 O   0  0  0  0  0  0  0  0  0  0  0  0
  2  1  1  1
  3  2  1  0
  4  3  1  0
  5  4  2  0
  6  7  2  0
  6  5  1  0
  7  8  1  0
  8  9  2  0
  9  4  1  0
 10  2  1  0
 10 17  1  0
 11 10  2  0
 13 14  1  6
 13 12  1  0
 15 13  1  0
 16 15  1  6
 16 17  1  0
 18 16  1  0
 19 18  2  0
 20 18  1  0
 21 20  1  0
 21 22  1  1
 23 22  1  0
 24 21  1  0
 24 25  1  0
 26 24  2  0
M  END
$$$$
