FLC.pdb
     RDKit          3D

 26 26  0  0  1  0  0  0  0  0999 V2000
   25.5491  -19.6590  -17.4871 N   0  0  0  0  0  0  0  0  0  0  0  0
   24.6554  -18.9360  -16.6071 C   0  0  1  0  0  0  0  0  0  0  0  0
   23.4267  -18.4571  -17.3300 C   0  0  0  0  0  0  0  0  0  0  0  0
   23.6683  -17.4271  -18.3298 C   0  0  0  0  0  0  0  0  0  0  0  0
   23.5952  -17.7849  -19.6619 C   0  0  0  0  0  0  0  0  0  0  0  0
   23.8060  -16.8895  -20.6655 C   0  0  0  0  0  0  0  0  0  0  0  0
   24.1001  -15.5935  -20.3816 C   0  0  0  0  0  0  0  0  0  0  0  0
   24.1856  -15.1823  -19.0724 C   0  0  0  0  0  0  0  0  0  0  0  0
   23.9684  -16.1056  -18.0764 C   0  0  0  0  0  0  0  0  0  0  0  0
   24.2043  -19.8854  -15.5593 C   0  0  0  0  0  0  0  0  0  0  0  0
   23.8106  -21.0310  -15.8864 O   0  0  0  0  0  0  0  0  0  0  0  0
   26.0377  -22.0569  -11.5193 C   0  0  0  0  0  0  0  0  0  0  0  0
   24.9783  -21.1538  -11.0188 C   0  0  1  0  0  0  0  0  0  0  0  0
   25.4492  -20.4433   -9.7262 C   0  0  0  0  0  0  0  0  0  0  0  0
   24.3962  -20.1499  -11.9195 C   0  0  0  0  0  0  0  0  0  0  0  0
   23.7066  -20.5419  -13.1666 C   0  0  2  0  0  0  0  0  0  0  0  0
   24.1949  -19.5598  -14.1798 N   0  0  0  0  0  0  0  0  0  0  0  0
   22.2528  -20.4708  -13.2169 C   0  0  0  0  0  0  0  0  0  0  0  0
   21.5645  -19.3964  -13.1443 O   0  0  0  0  0  0  0  0  0  0  0  0
   21.4778  -21.6625  -13.3571 N   0  0  0  0  0  0  0  0  0  0  0  0
   20.0206  -21.5810  -13.4360 C   0  0  1  0  0  0  0  0  0  0  0  0
   19.5822  -21.4579  -14.8789 C   0  0  0  0  0  0  0  0  0  0  0  0
   17.8072  -21.6044  -15.0713 S   0  0  0  0  0  0  0  0  0  0  0  0
   19.4576  -22.7599  -12.7709 C   0  0  0  0  0  0  0  0  0  0  0  0
   18.2360  -22.6819  -12.1290 O   0  0  0  0  0  0  0  0  0  0  0  0
   20.0237  -23.8856  -12.7373 O   0  0  0  0  0  0  0  0  0  0  0  0
  2  1  1  6
  3  2  1  0
  4  3  1  0
  5  4  2  0
  6  7  2  0
  6  5  1  0
  7  8  1  0
  8  9  2  0
  9  4  1  0
 10  2  1  0
 10 17  1  0
 11 10  2  0
 13 14  1  1
 13 12  1  0
 15 13  1  0
 16 15  1  1
 16 17  1  0
 18 16  1  0
 19 18  2  0
 20 18  1  0
 21 20  1  0
 21 22  1  6
 23 22  1  0
 24 21  1  0
 24 25  1  0
 26 24  2  0
M  END
$$$$
