FLC.pdb
     RDKit          3D

 26 26  0  0  1  0  0  0  0  0999 V2000
   19.9101  -12.4702  -18.0375 N   0  0  0  0  0  0  0  0  0  0  0  0
   20.6338  -11.2360  -18.2586 C   0  0  1  0  0  0  0  0  0  0  0  0
   19.7278  -10.1355  -18.7372 C   0  0  0  0  0  0  0  0  0  0  0  0
   19.1105  -10.3725  -20.0341 C   0  0  0  0  0  0  0  0  0  0  0  0
   19.8993  -10.2494  -21.1612 C   0  0  0  0  0  0  0  0  0  0  0  0
   19.4088  -10.4522  -22.4149 C   0  0  0  0  0  0  0  0  0  0  0  0
   18.1048  -10.7879  -22.5981 C   0  0  0  0  0  0  0  0  0  0  0  0
   17.2741  -10.9241  -21.5111 C   0  0  0  0  0  0  0  0  0  0  0  0
   17.7932  -10.7140  -20.2548 C   0  0  0  0  0  0  0  0  0  0  0  0
   21.1874  -10.8087  -16.9495 C   0  0  0  0  0  0  0  0  0  0  0  0
   20.5538  -11.0579  -15.8955 O   0  0  0  0  0  0  0  0  0  0  0  0
   24.5432  -12.5116  -15.4097 C   0  0  0  0  0  0  0  0  0  0  0  0
   25.0756  -11.1737  -15.0707 C   0  0  1  0  0  0  0  0  0  0  0  0
   26.5871  -11.1018  -15.3988 C   0  0  0  0  0  0  0  0  0  0  0  0
   24.4214   -9.9748  -15.6116 C   0  0  0  0  0  0  0  0  0  0  0  0
   22.9642   -9.7668  -15.4793 C   0  0  2  0  0  0  0  0  0  0  0  0
   22.4199  -10.1199  -16.8242 N   0  0  0  0  0  0  0  0  0  0  0  0
   22.4695   -8.4272  -15.1928 C   0  0  0  0  0  0  0  0  0  0  0  0
   22.6446   -7.7960  -14.0954 O   0  0  0  0  0  0  0  0  0  0  0  0
   21.7219   -7.7099  -16.1761 N   0  0  0  0  0  0  0  0  0  0  0  0
   21.2289   -6.3658  -15.8817 C   0  0  1  0  0  0  0  0  0  0  0  0
   21.4360   -5.4608  -17.0764 C   0  0  0  0  0  0  0  0  0  0  0  0
   20.6370   -3.8697  -16.8782 S   0  0  0  0  0  0  0  0  0  0  0  0
   19.8212   -6.4689  -15.4857 C   0  0  0  0  0  0  0  0  0  0  0  0
   19.3131   -5.6490  -14.4957 O   0  0  0  0  0  0  0  0  0  0  0  0
   19.0042   -7.2802  -15.9985 O   0  0  0  0  0  0  0  0  0  0  0  0
  2  1  1  1
  3  2  1  0
  4  3  1  0
  5  4  2  0
  6  7  2  0
  6  5  1  0
  7  8  1  0
  8  9  2  0
  9  4  1  0
 10  2  1  0
 10 17  1  0
 11 10  2  0
 13 14  1  6
 13 12  1  0
 15 13  1  0
 16 15  1  6
 16 17  1  0
 18 16  1  0
 19 18  2  0
 20 18  1  0
 21 20  1  0
 21 22  1  6
 23 22  1  0
 24 21  1  0
 24 25  1  0
 26 24  2  0
M  END
$$$$
