VTW.pdb
     RDKit          3D

 29 30  0  0  1  0  0  0  0  0999 V2000
   17.2815  -12.9097  -23.4162 C   0  0  0  0  0  0  0  0  0  0  0  0
   18.4526  -12.1320  -22.7744 C   0  0  2  0  0  0  0  0  0  0  0  0
   19.3793  -13.2036  -22.2502 C   0  0  0  0  0  0  0  0  0  0  0  0
   17.8369  -11.2628  -21.7394 C   0  0  2  0  0  0  0  0  0  0  0  0
   16.8873  -10.3934  -22.4476 N   0  0  0  0  0  0  0  0  0  0  0  0
   18.7397  -10.4831  -20.8982 C   0  0  0  0  0  0  0  0  0  0  0  0
   19.5937  -11.1502  -20.2077 O   0  0  0  0  0  0  0  0  0  0  0  0
   21.1275   -7.6066  -21.7464 C   0  0  0  0  0  0  0  0  0  0  0  0
   20.3411   -7.2253  -20.5100 C   0  0  1  0  0  0  0  0  0  0  0  0
   19.3944   -6.3042  -20.8800 O   0  0  0  0  0  0  0  0  0  0  0  0
   19.7372   -8.4579  -19.8634 C   0  0  2  0  0  0  0  0  0  0  0  0
   18.7856   -9.0762  -20.7566 N   0  0  0  0  0  0  0  0  0  0  0  0
   19.2139   -8.1010  -18.5437 C   0  0  0  0  0  0  0  0  0  0  0  0
   17.9594   -8.1513  -18.3746 O   0  0  0  0  0  0  0  0  0  0  0  0
   19.9839   -7.7020  -17.4323 N   0  0  0  0  0  0  0  0  0  0  0  0
   19.3669   -7.3657  -16.1414 C   0  0  1  0  0  0  0  0  0  0  0  0
   19.2882   -8.5634  -15.2473 C   0  0  0  0  0  0  0  0  0  0  0  0
   20.6563   -9.0561  -14.9713 C   0  0  0  0  0  0  0  0  0  0  0  0
   21.5681   -8.4679  -14.0925 C   0  0  0  0  0  0  0  0  0  0  0  0
   22.7010   -9.1910  -14.1002 N   0  0  0  0  0  0  0  0  0  0  0  0
   22.5928  -10.2388  -14.9442 C   0  0  0  0  0  0  0  0  0  0  0  0
   23.4666  -11.2437  -15.2895 C   0  0  0  0  0  0  0  0  0  0  0  0
   23.0465  -12.1908  -16.2071 C   0  0  0  0  0  0  0  0  0  0  0  0
   21.7817  -12.1022  -16.7421 C   0  0  0  0  0  0  0  0  0  0  0  0
   20.9092  -11.1020  -16.3997 C   0  0  0  0  0  0  0  0  0  0  0  0
   21.3115  -10.1436  -15.4820 C   0  0  0  0  0  0  0  0  0  0  0  0
   20.1790   -6.2652  -15.5170 C   0  0  0  0  0  0  0  0  0  0  0  0
   19.7246   -5.5796  -14.4136 O   0  0  0  0  0  0  0  0  0  0  0  0
   21.3028   -5.9417  -15.9918 O   0  0  0  0  0  0  0  0  0  0  0  0
  2  1  1  1
  2  3  1  0
  4  2  1  0
  4  5  1  6
  6  4  1  0
  7  6  2  0
  9 11  1  0
  9  8  1  6
 10  9  1  0
 11 12  1  6
 12  6  1  0
 13 15  1  0
 13 11  1  0
 14 13  2  0
 16 15  1  0
 16 17  1  1
 17 18  1  0
 18 26  1  0
 18 19  2  0
 19 20  1  0
 21 20  1  0
 21 22  2  0
 23 22  1  0
 24 23  2  0
 25 26  2  0
 25 24  1  0
 26 21  1  0
 27 28  1  0
 27 16  1  0
 29 27  2  0
M  END
$$$$
