VTW.pdb
     RDKit          3D

 29 30  0  0  1  0  0  0  0  0999 V2000
   27.2189  -18.5584  -19.2457 C   0  0  0  0  0  0  0  0  0  0  0  0
   28.6958  -18.9322  -19.5046 C   0  0  2  0  0  0  0  0  0  0  0  0
   28.7185  -19.4283  -20.9312 C   0  0  0  0  0  0  0  0  0  0  0  0
   29.0392  -19.9453  -18.4742 C   0  0  2  0  0  0  0  0  0  0  0  0
   28.3499  -21.1811  -18.8701 N   0  0  0  0  0  0  0  0  0  0  0  0
   28.7565  -19.6060  -17.0830 C   0  0  0  0  0  0  0  0  0  0  0  0
   29.4598  -18.6591  -16.5732 O   0  0  0  0  0  0  0  0  0  0  0  0
   26.6550  -17.6542  -13.7004 C   0  0  0  0  0  0  0  0  0  0  0  0
   27.0469  -18.2062  -15.0547 C   0  0  1  0  0  0  0  0  0  0  0  0
   27.9986  -17.3753  -15.5892 O   0  0  0  0  0  0  0  0  0  0  0  0
   27.5274  -19.6396  -14.9254 C   0  0  2  0  0  0  0  0  0  0  0  0
   27.7949  -20.1974  -16.2303 N   0  0  0  0  0  0  0  0  0  0  0  0
   26.5759  -20.3935  -14.1073 C   0  0  0  0  0  0  0  0  0  0  0  0
   25.5105  -20.7947  -14.6630 O   0  0  0  0  0  0  0  0  0  0  0  0
   26.7365  -20.7177  -12.7448 N   0  0  0  0  0  0  0  0  0  0  0  0
   25.8547  -21.6780  -12.0666 C   0  0  1  0  0  0  0  0  0  0  0  0
   26.4819  -22.2010  -10.8122 C   0  0  0  0  0  0  0  0  0  0  0  0
   26.5148  -21.1233   -9.7982 C   0  0  0  0  0  0  0  0  0  0  0  0
   25.5101  -20.1768   -9.5879 C   0  0  0  0  0  0  0  0  0  0  0  0
   25.8879  -19.3632   -8.5870 N   0  0  0  0  0  0  0  0  0  0  0  0
   27.1011  -19.7193   -8.1145 C   0  0  0  0  0  0  0  0  0  0  0  0
   27.8938  -19.2033   -7.1155 C   0  0  0  0  0  0  0  0  0  0  0  0
   29.1142  -19.8078   -6.8691 C   0  0  0  0  0  0  0  0  0  0  0  0
   29.4962  -20.8952   -7.6210 C   0  0  0  0  0  0  0  0  0  0  0  0
   28.7083  -21.4114   -8.6168 C   0  0  0  0  0  0  0  0  0  0  0  0
   27.4820  -20.8197   -8.8789 C   0  0  0  0  0  0  0  0  0  0  0  0
   24.5516  -20.9840  -11.7824 C   0  0  0  0  0  0  0  0  0  0  0  0
   24.4652  -19.6108  -11.7512 O   0  0  0  0  0  0  0  0  0  0  0  0
   23.5000  -21.6470  -11.5643 O   0  0  0  0  0  0  0  0  0  0  0  0
  2  1  1  1
  2  3  1  0
  4  2  1  0
  4  5  1  6
  6  4  1  0
  7  6  2  0
  9 11  1  0
  9  8  1  1
 10  9  1  0
 11 12  1  6
 12  6  1  0
 13 15  1  0
 13 11  1  0
 14 13  2  0
 16 15  1  0
 16 17  1  1
 17 18  1  0
 18 26  1  0
 18 19  2  0
 19 20  1  0
 21 20  1  0
 21 22  2  0
 23 22  1  0
 24 23  2  0
 25 26  2  0
 25 24  1  0
 26 21  1  0
 27 28  1  0
 27 16  1  0
 29 27  2  0
M  END
$$$$
