VTW.pdb
     RDKit          3D

 29 30  0  0  1  0  0  0  0  0999 V2000
   16.0121  -14.8581  -18.3008 C   0  0  0  0  0  0  0  0  0  0  0  0
   15.5635  -15.5316  -16.9843 C   0  0  2  0  0  0  0  0  0  0  0  0
   14.2033  -16.1096  -17.2967 C   0  0  0  0  0  0  0  0  0  0  0  0
   15.5766  -14.4565  -15.9595 C   0  0  2  0  0  0  0  0  0  0  0  0
   14.4114  -13.6073  -16.2428 N   0  0  0  0  0  0  0  0  0  0  0  0
   16.7941  -13.6598  -15.8423 C   0  0  0  0  0  0  0  0  0  0  0  0
   17.8158  -14.2519  -15.3357 O   0  0  0  0  0  0  0  0  0  0  0  0
   19.3843  -12.3291  -18.0116 C   0  0  0  0  0  0  0  0  0  0  0  0
   18.8771  -11.1508  -17.2074 C   0  0  1  0  0  0  0  0  0  0  0  0
   18.0249  -10.4310  -18.0058 O   0  0  0  0  0  0  0  0  0  0  0  0
   18.2173  -11.6265  -15.9265 C   0  0  2  0  0  0  0  0  0  0  0  0
   16.9809  -12.3106  -16.2247 N   0  0  0  0  0  0  0  0  0  0  0  0
   18.0993  -10.4998  -14.9994 C   0  0  0  0  0  0  0  0  0  0  0  0
   16.9811   -9.9083  -14.9310 O   0  0  0  0  0  0  0  0  0  0  0  0
   19.1249  -10.0066  -14.1674 N   0  0  0  0  0  0  0  0  0  0  0  0
   18.9510   -8.7919  -13.3584 C   0  0  1  0  0  0  0  0  0  0  0  0
   20.0318   -8.6628  -12.3311 C   0  0  0  0  0  0  0  0  0  0  0  0
   19.8656   -7.3825  -11.6074 C   0  0  0  0  0  0  0  0  0  0  0  0
   19.0888   -7.1930  -10.4627 C   0  0  0  0  0  0  0  0  0  0  0  0
   19.1805   -5.9053  -10.0886 N   0  0  0  0  0  0  0  0  0  0  0  0
   19.9837   -5.2200  -10.9296 C   0  0  0  0  0  0  0  0  0  0  0  0
   20.3794   -3.9029  -10.9646 C   0  0  0  0  0  0  0  0  0  0  0  0
   21.2286   -3.5005  -11.9808 C   0  0  0  0  0  0  0  0  0  0  0  0
   21.6484   -4.4180  -12.9166 C   0  0  0  0  0  0  0  0  0  0  0  0
   21.2557   -5.7308  -12.8839 C   0  0  0  0  0  0  0  0  0  0  0  0
   20.4052   -6.1534  -11.8737 C   0  0  0  0  0  0  0  0  0  0  0  0
   18.9374   -7.6149  -14.2939 C   0  0  0  0  0  0  0  0  0  0  0  0
   18.0377   -6.5858  -14.1346 O   0  0  0  0  0  0  0  0  0  0  0  0
   19.7547   -7.5417  -15.2528 O   0  0  0  0  0  0  0  0  0  0  0  0
  2  1  1  6
  2  3  1  0
  4  2  1  0
  4  5  1  6
  6  4  1  0
  7  6  2  0
  9 11  1  0
  9  8  1  6
 10  9  1  0
 11 12  1  6
 12  6  1  0
 13 15  1  0
 13 11  1  0
 14 13  2  0
 16 15  1  0
 16 17  1  1
 17 18  1  0
 18 26  1  0
 18 19  2  0
 19 20  1  0
 21 20  1  0
 21 22  2  0
 23 22  1  0
 24 23  2  0
 25 26  2  0
 25 24  1  0
 26 21  1  0
 27 28  1  0
 27 16  1  0
 29 27  2  0
M  END
$$$$
