VTW.pdb
     RDKit          3D

 29 30  0  0  1  0  0  0  0  0999 V2000
   30.4223  -16.0743  -16.8765 C   0  0  0  0  0  0  0  0  0  0  0  0
   30.0413  -17.2768  -17.7692 C   0  0  2  0  0  0  0  0  0  0  0  0
   30.5979  -16.9318  -19.1305 C   0  0  0  0  0  0  0  0  0  0  0  0
   28.5614  -17.3779  -17.6950 C   0  0  2  0  0  0  0  0  0  0  0  0
   28.0359  -16.1698  -18.3458 N   0  0  0  0  0  0  0  0  0  0  0  0
   27.9697  -17.5653  -16.3738 C   0  0  0  0  0  0  0  0  0  0  0  0
   27.9552  -16.5359  -15.6048 O   0  0  0  0  0  0  0  0  0  0  0  0
   25.1511  -16.9783  -15.1745 C   0  0  0  0  0  0  0  0  0  0  0  0
   25.3151  -18.3921  -14.6581 C   0  0  1  0  0  0  0  0  0  0  0  0
   24.6355  -19.2313  -15.5041 O   0  0  0  0  0  0  0  0  0  0  0  0
   26.7855  -18.7467  -14.5384 C   0  0  2  0  0  0  0  0  0  0  0  0
   27.4074  -18.7494  -15.8418 N   0  0  0  0  0  0  0  0  0  0  0  0
   26.9195  -19.9918  -13.7803 C   0  0  0  0  0  0  0  0  0  0  0  0
   27.4046  -20.9968  -14.3800 O   0  0  0  0  0  0  0  0  0  0  0  0
   26.5550  -20.1785  -12.4314 N   0  0  0  0  0  0  0  0  0  0  0  0
   26.6089  -21.4991  -11.7887 C   0  0  1  0  0  0  0  0  0  0  0  0
   27.5387  -21.4960  -10.6157 C   0  0  0  0  0  0  0  0  0  0  0  0
   26.9599  -20.6636   -9.5375 C   0  0  0  0  0  0  0  0  0  0  0  0
   25.7013  -20.0597   -9.5662 C   0  0  0  0  0  0  0  0  0  0  0  0
   25.5196  -19.3884   -8.4161 N   0  0  0  0  0  0  0  0  0  0  0  0
   26.5988  -19.5132   -7.6150 C   0  0  0  0  0  0  0  0  0  0  0  0
   26.8849  -19.0194   -6.3632 C   0  0  0  0  0  0  0  0  0  0  0  0
   28.1088  -19.3338   -5.7987 C   0  0  0  0  0  0  0  0  0  0  0  0
   28.9948  -20.1222   -6.4966 C   0  0  0  0  0  0  0  0  0  0  0  0
   28.7122  -20.6156   -7.7438 C   0  0  0  0  0  0  0  0  0  0  0  0
   27.4912  -20.3118   -8.3264 C   0  0  0  0  0  0  0  0  0  0  0  0
   25.2098  -21.8691  -11.3809 C   0  0  0  0  0  0  0  0  0  0  0  0
   24.1771  -20.9637  -11.4678 O   0  0  0  0  0  0  0  0  0  0  0  0
   24.9472  -23.0248  -10.9468 O   0  0  0  0  0  0  0  0  0  0  0  0
  2  1  1  1
  2  3  1  0
  4  2  1  0
  4  5  1  1
  6  4  1  0
  7  6  2  0
  9 11  1  0
  9  8  1  6
 10  9  1  0
 11 12  1  6
 12  6  1  0
 13 15  1  0
 13 11  1  0
 14 13  2  0
 16 15  1  0
 16 17  1  1
 17 18  1  0
 18 26  1  0
 18 19  2  0
 19 20  1  0
 21 20  1  0
 21 22  2  0
 23 22  1  0
 24 23  2  0
 25 26  2  0
 25 24  1  0
 26 21  1  0
 27 28  1  0
 27 16  1  0
 29 27  2  0
M  END
$$$$
