VTW.pdb
     RDKit          3D

 29 30  0  0  1  0  0  0  0  0999 V2000
   26.6029  -21.1433  -17.1923 C   0  0  0  0  0  0  0  0  0  0  0  0
   27.8452  -20.2243  -17.1801 C   0  0  2  0  0  0  0  0  0  0  0  0
   28.6419  -20.6448  -18.3926 C   0  0  0  0  0  0  0  0  0  0  0  0
   28.5067  -20.4621  -15.8716 C   0  0  2  0  0  0  0  0  0  0  0  0
   28.8531  -21.8898  -15.8421 N   0  0  0  0  0  0  0  0  0  0  0  0
   27.7732  -20.0722  -14.6714 C   0  0  0  0  0  0  0  0  0  0  0  0
   27.4634  -18.8292  -14.5716 O   0  0  0  0  0  0  0  0  0  0  0  0
   25.3546  -18.9287  -14.1338 C   0  0  0  0  0  0  0  0  0  0  0  0
   25.2137  -19.9346  -13.0110 C   0  0  1  0  0  0  0  0  0  0  0  0
   24.4598  -20.9822  -13.4758 O   0  0  0  0  0  0  0  0  0  0  0  0
   26.5793  -20.3713  -12.5145 C   0  0  2  0  0  0  0  0  0  0  0  0
   27.3610  -20.9055  -13.6050 N   0  0  0  0  0  0  0  0  0  0  0  0
   26.4105  -21.2678  -11.3696 C   0  0  0  0  0  0  0  0  0  0  0  0
   25.5525  -22.1945  -11.4692 O   0  0  0  0  0  0  0  0  0  0  0  0
   27.1210  -21.1949  -10.1542 N   0  0  0  0  0  0  0  0  0  0  0  0
   26.4484  -20.9142   -8.8780 C   0  0  1  0  0  0  0  0  0  0  0  0
   26.7764  -19.5412   -8.3803 C   0  0  0  0  0  0  0  0  0  0  0  0
   27.3682  -19.6420   -7.0274 C   0  0  0  0  0  0  0  0  0  0  0  0
   26.6952  -19.4016   -5.8279 C   0  0  0  0  0  0  0  0  0  0  0  0
   27.5504  -19.5922   -4.8088 N   0  0  0  0  0  0  0  0  0  0  0  0
   28.7682  -19.9500   -5.2681 C   0  0  0  0  0  0  0  0  0  0  0  0
   29.9489  -20.2471   -4.6276 C   0  0  0  0  0  0  0  0  0  0  0  0
   31.0466  -20.5847   -5.4001 C   0  0  0  0  0  0  0  0  0  0  0  0
   30.9279  -20.6136   -6.7708 C   0  0  0  0  0  0  0  0  0  0  0  0
   29.7526  -20.3182   -7.4114 C   0  0  0  0  0  0  0  0  0  0  0  0
   28.6416  -19.9776   -6.6550 C   0  0  0  0  0  0  0  0  0  0  0  0
   24.9697  -21.0836   -9.0909 C   0  0  0  0  0  0  0  0  0  0  0  0
   24.2385  -21.9804   -8.3459 O   0  0  0  0  0  0  0  0  0  0  0  0
   24.3600  -20.4042   -9.9625 O   0  0  0  0  0  0  0  0  0  0  0  0
  2  1  1  1
  2  3  1  0
  4  2  1  0
  4  5  1  1
  6  4  1  0
  7  6  2  0
  9 11  1  0
  9  8  1  6
 10  9  1  0
 11 12  1  6
 12  6  1  0
 13 15  1  0
 13 11  1  0
 14 13  2  0
 16 15  1  0
 16 17  1  6
 17 18  1  0
 18 26  1  0
 18 19  2  0
 19 20  1  0
 21 20  1  0
 21 22  2  0
 23 22  1  0
 24 23  2  0
 25 26  2  0
 25 24  1  0
 26 21  1  0
 27 28  1  0
 27 16  1  0
 29 27  2  0
M  END
$$$$
