VTW.pdb
     RDKit          3D

 29 30  0  0  1  0  0  0  0  0999 V2000
   21.0819  -31.1698  -15.2292 C   0  0  0  0  0  0  0  0  0  0  0  0
   20.4227  -32.0700  -16.2984 C   0  0  2  0  0  0  0  0  0  0  0  0
   18.9542  -31.7215  -16.2367 C   0  0  0  0  0  0  0  0  0  0  0  0
   20.7614  -33.4638  -15.9128 C   0  0  2  0  0  0  0  0  0  0  0  0
   20.0459  -33.7259  -14.6564 N   0  0  0  0  0  0  0  0  0  0  0  0
   22.1771  -33.7989  -15.7934 C   0  0  0  0  0  0  0  0  0  0  0  0
   22.6185  -33.9920  -14.6022 O   0  0  0  0  0  0  0  0  0  0  0  0
   26.3510  -35.8720  -16.8302 C   0  0  0  0  0  0  0  0  0  0  0  0
   24.9215  -35.5310  -17.1943 C   0  0  1  0  0  0  0  0  0  0  0  0
   24.1278  -36.5847  -16.8182 O   0  0  0  0  0  0  0  0  0  0  0  0
   24.5054  -34.2240  -16.5455 C   0  0  2  0  0  0  0  0  0  0  0  0
   23.1204  -33.9385  -16.8385 N   0  0  0  0  0  0  0  0  0  0  0  0
   25.4530  -33.1752  -16.9261 C   0  0  0  0  0  0  0  0  0  0  0  0
   25.2250  -32.5359  -17.9958 O   0  0  0  0  0  0  0  0  0  0  0  0
   26.6076  -32.8070  -16.2060 N   0  0  0  0  0  0  0  0  0  0  0  0
   27.5161  -31.7544  -16.6820 C   0  0  1  0  0  0  0  0  0  0  0  0
   28.4863  -31.3500  -15.6163 C   0  0  0  0  0  0  0  0  0  0  0  0
   29.4215  -30.3429  -16.1658 C   0  0  0  0  0  0  0  0  0  0  0  0
   29.1243  -28.9972  -16.3895 C   0  0  0  0  0  0  0  0  0  0  0  0
   30.2150  -28.3932  -16.8917 N   0  0  0  0  0  0  0  0  0  0  0  0
   31.2323  -29.2716  -17.0161 C   0  0  0  0  0  0  0  0  0  0  0  0
   32.5227  -29.1353  -17.4731 C   0  0  0  0  0  0  0  0  0  0  0  0
   33.3387  -30.2533  -17.4753 C   0  0  0  0  0  0  0  0  0  0  0  0
   32.8426  -31.4555  -17.0256 C   0  0  0  0  0  0  0  0  0  0  0  0
   31.5574  -31.5940  -16.5696 C   0  0  0  0  0  0  0  0  0  0  0  0
   30.7244  -30.4856  -16.5595 C   0  0  0  0  0  0  0  0  0  0  0  0
   28.2241  -32.2755  -17.9017 C   0  0  0  0  0  0  0  0  0  0  0  0
   28.7853  -33.5320  -17.9202 O   0  0  0  0  0  0  0  0  0  0  0  0
   28.3215  -31.5698  -18.9436 O   0  0  0  0  0  0  0  0  0  0  0  0
  2  1  1  1
  2  3  1  0
  4  2  1  0
  4  5  1  1
  6  4  1  0
  7  6  2  0
  9 11  1  0
  9  8  1  1
 10  9  1  0
 11 12  1  6
 12  6  1  0
 13 15  1  0
 13 11  1  0
 14 13  2  0
 16 15  1  0
 16 17  1  1
 17 18  1  0
 18 26  1  0
 18 19  2  0
 19 20  1  0
 21 20  1  0
 21 22  2  0
 23 22  1  0
 24 23  2  0
 25 26  2  0
 25 24  1  0
 26 21  1  0
 27 28  1  0
 27 16  1  0
 29 27  2  0
M  END
$$$$
