VTW.pdb
     RDKit          3D

 29 30  0  0  1  0  0  0  0  0999 V2000
   25.7317  -19.9590  -17.7851 C   0  0  0  0  0  0  0  0  0  0  0  0
   27.2078  -20.2565  -18.1328 C   0  0  2  0  0  0  0  0  0  0  0  0
   27.1554  -20.8950  -19.5008 C   0  0  0  0  0  0  0  0  0  0  0  0
   27.7078  -21.1319  -17.0420 C   0  0  2  0  0  0  0  0  0  0  0  0
   26.8617  -22.3330  -17.0613 N   0  0  0  0  0  0  0  0  0  0  0  0
   27.7769  -20.5567  -15.7022 C   0  0  0  0  0  0  0  0  0  0  0  0
   28.5088  -19.5090  -15.5690 O   0  0  0  0  0  0  0  0  0  0  0  0
   27.5093  -18.1261  -14.5034 C   0  0  0  0  0  0  0  0  0  0  0  0
   26.7052  -18.8768  -13.4630 C   0  0  1  0  0  0  0  0  0  0  0  0
   25.3895  -18.8546  -13.8504 O   0  0  0  0  0  0  0  0  0  0  0  0
   27.2414  -20.2859  -13.2924 C   0  0  2  0  0  0  0  0  0  0  0  0
   27.1287  -21.0178  -14.5322 N   0  0  0  0  0  0  0  0  0  0  0  0
   26.5933  -20.9103  -12.1378 C   0  0  0  0  0  0  0  0  0  0  0  0
   25.6419  -21.7162  -12.3614 O   0  0  0  0  0  0  0  0  0  0  0  0
   26.9329  -20.6957  -10.7865 N   0  0  0  0  0  0  0  0  0  0  0  0
   26.3451  -21.4953   -9.7024 C   0  0  1  0  0  0  0  0  0  0  0  0
   27.3468  -21.7715   -8.6251 C   0  0  0  0  0  0  0  0  0  0  0  0
   27.4164  -20.6067   -7.7145 C   0  0  0  0  0  0  0  0  0  0  0  0
   26.8092  -19.3687   -7.9336 C   0  0  0  0  0  0  0  0  0  0  0  0
   27.0890  -18.5623   -6.8953 N   0  0  0  0  0  0  0  0  0  0  0  0
   27.8568  -19.2017   -5.9878 C   0  0  0  0  0  0  0  0  0  0  0  0
   28.3918  -18.8052   -4.7839 C   0  0  0  0  0  0  0  0  0  0  0  0
   29.1539  -19.7165   -4.0737 C   0  0  0  0  0  0  0  0  0  0  0  0
   29.3528  -20.9784   -4.5851 C   0  0  0  0  0  0  0  0  0  0  0  0
   28.8208  -21.3759   -5.7842 C   0  0  0  0  0  0  0  0  0  0  0  0
   28.0544  -20.4775   -6.5107 C   0  0  0  0  0  0  0  0  0  0  0  0
   25.1568  -20.7438   -9.1696 C   0  0  0  0  0  0  0  0  0  0  0  0
   24.3088  -21.3101   -8.2454 O   0  0  0  0  0  0  0  0  0  0  0  0
   24.9069  -19.5695   -9.5588 O   0  0  0  0  0  0  0  0  0  0  0  0
  2  1  1  1
  2  3  1  0
  4  2  1  0
  4  5  1  1
  6  4  1  0
  7  6  2  0
  9 11  1  0
  9  8  1  6
 10  9  1  0
 11 12  1  6
 12  6  1  0
 13 15  1  0
 13 11  1  0
 14 13  2  0
 16 15  1  0
 16 17  1  1
 17 18  1  0
 18 26  1  0
 18 19  2  0
 19 20  1  0
 21 20  1  0
 21 22  2  0
 23 22  1  0
 24 23  2  0
 25 26  2  0
 25 24  1  0
 26 21  1  0
 27 28  1  0
 27 16  1  0
 29 27  2  0
M  END
$$$$
