VTW.pdb
     RDKit          3D

 29 30  0  0  1  0  0  0  0  0999 V2000
   27.7676  -16.9898  -17.2949 C   0  0  0  0  0  0  0  0  0  0  0  0
   28.7137  -18.1079  -16.8024 C   0  0  2  0  0  0  0  0  0  0  0  0
   29.5578  -18.4507  -18.0073 C   0  0  0  0  0  0  0  0  0  0  0  0
   27.8282  -19.1970  -16.3166 C   0  0  2  0  0  0  0  0  0  0  0  0
   26.8266  -19.4103  -17.3704 N   0  0  0  0  0  0  0  0  0  0  0  0
   27.1936  -19.0119  -15.0152 C   0  0  0  0  0  0  0  0  0  0  0  0
   26.8757  -17.8068  -14.7025 O   0  0  0  0  0  0  0  0  0  0  0  0
   24.4579  -18.3434  -14.0211 C   0  0  0  0  0  0  0  0  0  0  0  0
   24.7167  -19.5031  -13.0828 C   0  0  1  0  0  0  0  0  0  0  0  0
   24.1505  -20.6249  -13.6329 O   0  0  0  0  0  0  0  0  0  0  0  0
   26.2047  -19.6614  -12.8318 C   0  0  2  0  0  0  0  0  0  0  0  0
   26.8850  -20.0068  -14.0579 N   0  0  0  0  0  0  0  0  0  0  0  0
   26.4084  -20.5930  -11.7211 C   0  0  0  0  0  0  0  0  0  0  0  0
   26.7049  -21.7915  -12.0049 O   0  0  0  0  0  0  0  0  0  0  0  0
   26.3040  -20.2773  -10.3512 N   0  0  0  0  0  0  0  0  0  0  0  0
   26.3980  -21.3083   -9.3080 C   0  0  1  0  0  0  0  0  0  0  0  0
   27.7031  -21.2281   -8.5796 C   0  0  0  0  0  0  0  0  0  0  0  0
   27.6657  -20.0876   -7.6371 C   0  0  0  0  0  0  0  0  0  0  0  0
   26.9636  -18.8967   -7.8327 C   0  0  0  0  0  0  0  0  0  0  0  0
   27.1628  -18.0998   -6.7689 N   0  0  0  0  0  0  0  0  0  0  0  0
   27.9670  -18.7006   -5.8665 C   0  0  0  0  0  0  0  0  0  0  0  0
   28.4514  -18.2963   -4.6440 C   0  0  0  0  0  0  0  0  0  0  0  0
   29.2747  -19.1628   -3.9462 C   0  0  0  0  0  0  0  0  0  0  0  0
   29.5821  -20.3899   -4.4880 C   0  0  0  0  0  0  0  0  0  0  0  0
   29.1007  -20.7951   -5.7057 C   0  0  0  0  0  0  0  0  0  0  0  0
   28.2744  -19.9412   -6.4202 C   0  0  0  0  0  0  0  0  0  0  0  0
   25.2343  -21.1243   -8.3739 C   0  0  0  0  0  0  0  0  0  0  0  0
   25.0439  -21.9590   -7.2964 O   0  0  0  0  0  0  0  0  0  0  0  0
   24.3995  -20.1954   -8.5563 O   0  0  0  0  0  0  0  0  0  0  0  0
  2  1  1  6
  2  3  1  0
  4  2  1  0
  4  5  1  6
  6  4  1  0
  7  6  2  0
  9 11  1  0
  9  8  1  6
 10  9  1  0
 11 12  1  6
 12  6  1  0
 13 15  1  0
 13 11  1  0
 14 13  2  0
 16 15  1  0
 16 17  1  1
 17 18  1  0
 18 26  1  0
 18 19  2  0
 19 20  1  0
 21 20  1  0
 21 22  2  0
 23 22  1  0
 24 23  2  0
 25 26  2  0
 25 24  1  0
 26 21  1  0
 27 28  1  0
 27 16  1  0
 29 27  2  0
M  END
$$$$
