GTE.pdb
     RDKit          3D

 21 20  0  0  1  0  0  0  0  0999 V2000
   18.3272  -13.7885  -15.6014 N   0  0  0  0  0  0  0  0  0  0  0  0
   18.2739  -12.5424  -14.8881 C   0  0  0  0  0  0  0  0  0  0  0  0
   18.6777  -11.3883  -15.6950 C   0  0  0  0  0  0  0  0  0  0  0  0
   19.1664  -11.6156  -16.8449 O   0  0  0  0  0  0  0  0  0  0  0  0
   16.9393   -9.1952  -17.6101 C   0  0  0  0  0  0  0  0  0  0  0  0
   17.7325   -8.2759  -16.6782 C   0  0  1  0  0  0  0  0  0  0  0  0
   16.9428   -7.6781  -15.7242 O   0  0  0  0  0  0  0  0  0  0  0  0
   18.9649   -8.9345  -16.1581 C   0  0  2  0  0  0  0  0  0  0  0  0
   18.5641  -10.0206  -15.2870 N   0  0  0  0  0  0  0  0  0  0  0  0
   19.9254   -8.0299  -15.5070 C   0  0  0  0  0  0  0  0  0  0  0  0
   19.8146   -7.8532  -14.2695 O   0  0  0  0  0  0  0  0  0  0  0  0
   20.9622   -7.3505  -16.1875 N   0  0  0  0  0  0  0  0  0  0  0  0
   21.9477   -6.4946  -15.4920 C   0  0  1  0  0  0  0  0  0  0  0  0
   23.0745   -6.1967  -16.3986 C   0  0  0  0  0  0  0  0  0  0  0  0
   24.0859   -5.2531  -15.8669 C   0  0  0  0  0  0  0  0  0  0  0  0
   25.1706   -4.8760  -16.7849 C   0  0  0  0  0  0  0  0  0  0  0  0
   26.3757   -5.0330  -16.4405 O   0  0  0  0  0  0  0  0  0  0  0  0
   21.3793   -5.3924  -14.7888 C   0  0  0  0  0  0  0  0  0  0  0  0
   21.8418   -5.0105  -13.6668 O   0  0  0  0  0  0  0  0  0  0  0  0
   24.9435   -4.3435  -18.0432 O   0  0  0  0  0  0  0  0  0  0  0  0
   20.2905   -4.6728  -15.2861 O   0  0  0  0  0  0  0  0  0  0  0  0
  1  2  1  0
  2  3  1  0
  3  4  2  0
  6  5  1  1
  6  7  1  0
  6  8  1  0
  8  9  1  1
  9  3  1  0
 10  8  1  0
 10 11  2  0
 12 10  1  0
 13 12  1  0
 13 14  1  6
 14 15  1  0
 16 15  1  0
 16 20  1  0
 17 16  2  0
 18 13  1  0
 19 18  2  0
 21 18  1  0
M  END
$$$$
