GTE.pdb
     RDKit          3D

 21 20  0  0  1  0  0  0  0  0999 V2000
   12.4164  -10.2619   -8.7404 N   0  0  0  0  0  0  0  0  0  0  0  0
   13.7686   -9.9006   -8.4154 C   0  0  0  0  0  0  0  0  0  0  0  0
   14.2611   -8.7420   -9.1645 C   0  0  0  0  0  0  0  0  0  0  0  0
   13.5020   -8.2512  -10.0565 O   0  0  0  0  0  0  0  0  0  0  0  0
   14.9160   -5.3328   -8.1705 C   0  0  0  0  0  0  0  0  0  0  0  0
   16.2027   -5.8368   -8.8286 C   0  0  1  0  0  0  0  0  0  0  0  0
   17.2181   -6.0379   -7.9234 O   0  0  0  0  0  0  0  0  0  0  0  0
   15.9478   -6.9751   -9.7574 C   0  0  2  0  0  0  0  0  0  0  0  0
   15.5350   -8.1184   -8.9689 N   0  0  0  0  0  0  0  0  0  0  0  0
   17.0617   -7.3008  -10.6616 C   0  0  0  0  0  0  0  0  0  0  0  0
   18.0645   -7.8733  -10.1702 O   0  0  0  0  0  0  0  0  0  0  0  0
   17.0713   -7.0101  -12.0454 N   0  0  0  0  0  0  0  0  0  0  0  0
   18.2608   -7.2224  -12.8984 C   0  0  1  0  0  0  0  0  0  0  0  0
   18.1157   -8.4864  -13.6478 C   0  0  0  0  0  0  0  0  0  0  0  0
   19.2369   -8.8180  -14.5582 C   0  0  0  0  0  0  0  0  0  0  0  0
   19.0993  -10.0580  -15.3359 C   0  0  0  0  0  0  0  0  0  0  0  0
   18.5320  -11.0655  -14.8273 O   0  0  0  0  0  0  0  0  0  0  0  0
   18.6646   -6.0758  -13.6432 C   0  0  0  0  0  0  0  0  0  0  0  0
   19.8477   -5.9612  -14.0967 O   0  0  0  0  0  0  0  0  0  0  0  0
   19.5678  -10.1917  -16.6325 O   0  0  0  0  0  0  0  0  0  0  0  0
   17.7924   -5.0198  -13.9167 O   0  0  0  0  0  0  0  0  0  0  0  0
  1  2  1  0
  2  3  1  0
  3  4  2  0
  6  5  1  1
  6  7  1  0
  6  8  1  0
  8  9  1  1
  9  3  1  0
 10  8  1  0
 10 11  2  0
 12 10  1  0
 13 12  1  0
 13 14  1  6
 14 15  1  0
 16 15  1  0
 16 20  1  0
 17 16  2  0
 18 13  1  0
 19 18  2  0
 21 18  1  0
M  END
$$$$
