GTE.pdb
     RDKit          3D

 21 20  0  0  1  0  0  0  0  0999 V2000
   18.3885  -16.2775  -16.4848 N   0  0  0  0  0  0  0  0  0  0  0  0
   17.9596  -15.0497  -15.8741 C   0  0  0  0  0  0  0  0  0  0  0  0
   18.6789  -13.8706  -16.3623 C   0  0  0  0  0  0  0  0  0  0  0  0
   19.4017  -14.0083  -17.3973 O   0  0  0  0  0  0  0  0  0  0  0  0
   18.6108  -12.5059  -18.6707 C   0  0  0  0  0  0  0  0  0  0  0  0
   18.3187  -11.3120  -17.7586 C   0  0  1  0  0  0  0  0  0  0  0  0
   16.9731  -11.0585  -17.6309 O   0  0  0  0  0  0  0  0  0  0  0  0
   19.0728  -11.3906  -16.4746 C   0  0  2  0  0  0  0  0  0  0  0  0
   18.6303  -12.5718  -15.7618 N   0  0  0  0  0  0  0  0  0  0  0  0
   19.0035  -10.1822  -15.6382 C   0  0  0  0  0  0  0  0  0  0  0  0
   18.0929  -10.1197  -14.7769 O   0  0  0  0  0  0  0  0  0  0  0  0
   19.8970   -9.0914  -15.7445 N   0  0  0  0  0  0  0  0  0  0  0  0
   19.7611   -7.8648  -14.9295 C   0  0  1  0  0  0  0  0  0  0  0  0
   21.0672   -7.1822  -14.8372 C   0  0  0  0  0  0  0  0  0  0  0  0
   21.0572   -5.8843  -14.1220 C   0  0  0  0  0  0  0  0  0  0  0  0
   22.3242   -5.1387  -14.1081 C   0  0  0  0  0  0  0  0  0  0  0  0
   23.3917   -5.6959  -14.4894 O   0  0  0  0  0  0  0  0  0  0  0  0
   18.6352   -7.0565  -15.2635 C   0  0  0  0  0  0  0  0  0  0  0  0
   18.2519   -6.9168  -16.4685 O   0  0  0  0  0  0  0  0  0  0  0  0
   22.4204   -3.8217  -13.6901 O   0  0  0  0  0  0  0  0  0  0  0  0
   17.8930   -6.3762  -14.2955 O   0  0  0  0  0  0  0  0  0  0  0  0
  1  2  1  0
  2  3  1  0
  3  4  2  0
  6  5  1  1
  6  7  1  0
  6  8  1  0
  8  9  1  1
  9  3  1  0
 10  8  1  0
 10 11  2  0
 12 10  1  0
 13 12  1  0
 13 14  1  6
 14 15  1  0
 16 15  1  0
 16 20  1  0
 17 16  2  0
 18 13  1  0
 19 18  2  0
 21 18  1  0
M  END
$$$$
