GTE.pdb
     RDKit          3D

 21 20  0  0  1  0  0  0  0  0999 V2000
   28.3941  -20.6834  -15.8914 N   0  0  0  0  0  0  0  0  0  0  0  0
   27.8603  -20.1068  -14.6885 C   0  0  0  0  0  0  0  0  0  0  0  0
   26.8122  -20.9187  -14.0652 C   0  0  0  0  0  0  0  0  0  0  0  0
   27.1529  -22.0319  -13.5579 O   0  0  0  0  0  0  0  0  0  0  0  0
   26.4890  -21.6545  -11.6259 C   0  0  0  0  0  0  0  0  0  0  0  0
   25.0368  -21.1800  -11.7197 C   0  0  1  0  0  0  0  0  0  0  0  0
   24.8290  -19.9786  -11.0838 O   0  0  0  0  0  0  0  0  0  0  0  0
   24.5110  -21.2584  -13.1128 C   0  0  2  0  0  0  0  0  0  0  0  0
   25.4302  -20.5539  -13.9834 N   0  0  0  0  0  0  0  0  0  0  0  0
   23.1251  -20.7941  -13.2810 C   0  0  0  0  0  0  0  0  0  0  0  0
   22.9132  -19.5582  -13.2316 O   0  0  0  0  0  0  0  0  0  0  0  0
   22.0214  -21.6519  -13.4948 N   0  0  0  0  0  0  0  0  0  0  0  0
   20.6616  -21.1475  -13.7842 C   0  0  1  0  0  0  0  0  0  0  0  0
   20.0505  -21.9547  -14.8591 C   0  0  0  0  0  0  0  0  0  0  0  0
   18.7329  -21.4779  -15.3414 C   0  0  0  0  0  0  0  0  0  0  0  0
   18.0355  -22.3494  -16.2982 C   0  0  0  0  0  0  0  0  0  0  0  0
   18.2964  -23.5846  -16.3373 O   0  0  0  0  0  0  0  0  0  0  0  0
   19.8634  -20.9067  -12.6278 C   0  0  0  0  0  0  0  0  0  0  0  0
   18.8304  -20.1656  -12.6762 O   0  0  0  0  0  0  0  0  0  0  0  0
   17.0797  -21.8833  -17.1858 O   0  0  0  0  0  0  0  0  0  0  0  0
   20.1658  -21.4655  -11.3841 O   0  0  0  0  0  0  0  0  0  0  0  0
  1  2  1  0
  2  3  1  0
  3  4  2  0
  6  5  1  6
  6  7  1  0
  6  8  1  0
  8  9  1  6
  9  3  1  0
 10  8  1  0
 10 11  2  0
 12 10  1  0
 13 12  1  0
 13 14  1  6
 14 15  1  0
 16 15  1  0
 16 20  1  0
 17 16  2  0
 18 13  1  0
 19 18  2  0
 21 18  1  0
M  END
$$$$
