GTE.pdb
     RDKit          3D

 21 20  0  0  1  0  0  0  0  0999 V2000
   19.6071  -13.7838  -16.0917 N   0  0  0  0  0  0  0  0  0  0  0  0
   19.1310  -12.4341  -16.2190 C   0  0  0  0  0  0  0  0  0  0  0  0
   20.0908  -11.4287  -15.7563 C   0  0  0  0  0  0  0  0  0  0  0  0
   19.8806  -10.8901  -14.6256 O   0  0  0  0  0  0  0  0  0  0  0  0
   23.8151  -11.7476  -15.1399 C   0  0  0  0  0  0  0  0  0  0  0  0
   23.5560  -10.5661  -16.0778 C   0  0  1  0  0  0  0  0  0  0  0  0
   23.9536  -10.8172  -17.3700 O   0  0  0  0  0  0  0  0  0  0  0  0
   22.1719  -10.0303  -15.9340 C   0  0  2  0  0  0  0  0  0  0  0  0
   21.2504  -11.0051  -16.4814 N   0  0  0  0  0  0  0  0  0  0  0  0
   21.9619   -8.6904  -16.5043 C   0  0  0  0  0  0  0  0  0  0  0  0
   21.4602   -8.6164  -17.6522 O   0  0  0  0  0  0  0  0  0  0  0  0
   22.2888   -7.4854  -15.8405 N   0  0  0  0  0  0  0  0  0  0  0  0
   22.0910   -6.1551  -16.4557 C   0  0  1  0  0  0  0  0  0  0  0  0
   21.4706   -5.2415  -15.4755 C   0  0  0  0  0  0  0  0  0  0  0  0
   21.0951   -3.9070  -15.9991 C   0  0  0  0  0  0  0  0  0  0  0  0
   20.5701   -2.9466  -15.0177 C   0  0  0  0  0  0  0  0  0  0  0  0
   20.2210   -1.7901  -15.3867 O   0  0  0  0  0  0  0  0  0  0  0  0
   23.2223   -5.6611  -17.1689 C   0  0  0  0  0  0  0  0  0  0  0  0
   24.4046   -5.8068  -16.7223 O   0  0  0  0  0  0  0  0  0  0  0  0
   20.4302   -3.2429  -13.6719 O   0  0  0  0  0  0  0  0  0  0  0  0
   23.1002   -4.9938  -18.3897 O   0  0  0  0  0  0  0  0  0  0  0  0
  1  2  1  0
  2  3  1  0
  3  4  2  0
  6  5  1  1
  6  7  1  0
  6  8  1  0
  8  9  1  6
  9  3  1  0
 10  8  1  0
 10 11  2  0
 12 10  1  0
 13 12  1  0
 13 14  1  1
 14 15  1  0
 16 15  1  0
 16 20  1  0
 17 16  2  0
 18 13  1  0
 19 18  2  0
 21 18  1  0
M  END
$$$$
