GTE.pdb
     RDKit          3D

 21 20  0  0  1  0  0  0  0  0999 V2000
   14.5344  -13.5962  -14.8369 N   0  0  0  0  0  0  0  0  0  0  0  0
   14.9264  -12.5827  -15.7769 C   0  0  0  0  0  0  0  0  0  0  0  0
   16.0552  -11.7674  -15.3219 C   0  0  0  0  0  0  0  0  0  0  0  0
   15.9277  -11.1467  -14.2213 O   0  0  0  0  0  0  0  0  0  0  0  0
   20.8236  -10.4122  -15.5246 C   0  0  0  0  0  0  0  0  0  0  0  0
   19.6512  -11.2760  -15.9957 C   0  0  1  0  0  0  0  0  0  0  0  0
   19.8501  -12.6158  -15.7581 O   0  0  0  0  0  0  0  0  0  0  0  0
   18.3390  -10.7390  -15.5339 C   0  0  2  0  0  0  0  0  0  0  0  0
   17.2942  -11.6155  -16.0231 N   0  0  0  0  0  0  0  0  0  0  0  0
   18.0867   -9.3316  -15.8806 C   0  0  0  0  0  0  0  0  0  0  0  0
   17.7556   -9.0718  -17.0628 O   0  0  0  0  0  0  0  0  0  0  0  0
   18.1934   -8.2580  -14.9665 N   0  0  0  0  0  0  0  0  0  0  0  0
   18.0707   -6.8428  -15.3783 C   0  0  1  0  0  0  0  0  0  0  0  0
   16.8593   -6.2527  -14.7743 C   0  0  0  0  0  0  0  0  0  0  0  0
   16.6632   -4.8058  -15.0269 C   0  0  0  0  0  0  0  0  0  0  0  0
   15.4963   -4.1847  -14.3833 C   0  0  0  0  0  0  0  0  0  0  0  0
   15.2348   -2.9657  -14.5859 O   0  0  0  0  0  0  0  0  0  0  0  0
   19.2763   -6.0899  -15.2681 C   0  0  0  0  0  0  0  0  0  0  0  0
   20.2231   -6.4600  -14.5032 O   0  0  0  0  0  0  0  0  0  0  0  0
   14.6400   -4.8773  -13.5434 O   0  0  0  0  0  0  0  0  0  0  0  0
   19.4872   -4.9115  -15.9876 O   0  0  0  0  0  0  0  0  0  0  0  0
  1  2  1  0
  2  3  1  0
  3  4  2  0
  6  5  1  1
  6  7  1  0
  6  8  1  0
  8  9  1  6
  9  3  1  0
 10  8  1  0
 10 11  2  0
 12 10  1  0
 13 12  1  0
 13 14  1  1
 14 15  1  0
 16 15  1  0
 16 20  1  0
 17 16  2  0
 18 13  1  0
 19 18  2  0
 21 18  1  0
M  END
$$$$
