GQW.pdb
     RDKit          3D

 28 29  0  0  1  0  0  0  0  0999 V2000
    7.0678  -12.9970   18.9109 N   0  0  0  0  0  0  0  0  0  0  0  0
    8.4090  -13.5332   18.9393 C   0  0  0  0  0  0  0  0  0  0  0  0
    8.4907  -14.6202   19.9450 C   0  0  0  0  0  0  0  0  0  0  0  0
    7.4754  -14.8202   20.6794 O   0  0  0  0  0  0  0  0  0  0  0  0
   11.6044  -19.6426   19.2735 N   0  0  0  0  0  0  0  0  0  0  0  0
   11.0793  -20.0279   20.5243 C   0  0  0  0  0  0  0  0  0  0  0  0
   11.2269  -21.1664   21.0095 O   0  0  0  0  0  0  0  0  0  0  0  0
   10.3044  -18.9402   21.2583 C   0  0  0  0  0  0  0  0  0  0  0  0
   10.2997  -17.7304   20.4053 C   0  0  0  0  0  0  0  0  0  0  0  0
    9.5038  -16.6000   21.0177 C   0  0  2  0  0  0  0  0  0  0  0  0
    9.6358  -15.4297   20.1155 N   0  0  0  0  0  0  0  0  0  0  0  0
   10.0759  -16.2061   22.3000 C   0  0  0  0  0  0  0  0  0  0  0  0
   11.1007  -15.4327   22.2903 O   0  0  0  0  0  0  0  0  0  0  0  0
    9.6308  -16.5711   23.5891 N   0  0  0  0  0  0  0  0  0  0  0  0
   10.2680  -16.0408   24.7960 C   0  0  1  0  0  0  0  0  0  0  0  0
    9.8180  -14.6322   25.0407 C   0  0  0  0  0  0  0  0  0  0  0  0
    8.4215  -14.5713   25.5050 C   0  0  0  0  0  0  0  0  0  0  0  0
    7.4901  -15.6196   25.5182 C   0  0  0  0  0  0  0  0  0  0  0  0
    6.3022  -15.1963   25.9708 N   0  0  0  0  0  0  0  0  0  0  0  0
    6.4050  -13.8765   26.2684 C   0  0  0  0  0  0  0  0  0  0  0  0
    5.4722  -12.9841   26.7824 C   0  0  0  0  0  0  0  0  0  0  0  0
    5.8853  -11.6955   27.0022 C   0  0  0  0  0  0  0  0  0  0  0  0
    7.1769  -11.2760   26.7302 C   0  0  0  0  0  0  0  0  0  0  0  0
    8.0790  -12.1637   26.2257 C   0  0  0  0  0  0  0  0  0  0  0  0
    7.6965  -13.4787   25.9890 C   0  0  0  0  0  0  0  0  0  0  0  0
   10.1082  -16.9839   25.8859 C   0  0  0  0  0  0  0  0  0  0  0  0
    9.4430  -18.2181   25.7923 O   0  0  0  0  0  0  0  0  0  0  0  0
   10.5750  -16.7356   27.0390 O   0  0  0  0  0  0  0  0  0  0  0  0
  1  2  1  0
  2  3  1  0
  3  4  2  0
  5  6  1  0
  6  8  1  0
  7  6  2  0
  8  9  1  0
 10  9  1  6
 11 10  1  0
 11  3  1  0
 12 14  1  0
 12 10  1  0
 13 12  2  0
 15 14  1  0
 15 16  1  1
 17 18  2  0
 17 16  1  0
 19 18  1  0
 20 25  2  0
 20 19  1  0
 21 20  1  0
 22 21  2  0
 22 23  1  0
 23 24  2  0
 24 25  1  0
 25 17  1  0
 26 27  1  0
 26 15  1  0
 28 26  2  0
M  END
$$$$
