GQW.pdb
     RDKit          3D

 28 29  0  0  1  0  0  0  0  0999 V2000
    7.6078  -12.8253   18.6244 N   0  0  0  0  0  0  0  0  0  0  0  0
    8.7941  -13.0701   19.4118 C   0  0  0  0  0  0  0  0  0  0  0  0
    8.6216  -14.3140   20.2008 C   0  0  0  0  0  0  0  0  0  0  0  0
    7.6290  -14.3784   20.9888 O   0  0  0  0  0  0  0  0  0  0  0  0
    6.7833  -18.4514   18.7305 N   0  0  0  0  0  0  0  0  0  0  0  0
    7.9539  -18.9236   19.3594 C   0  0  0  0  0  0  0  0  0  0  0  0
    7.9799  -19.9293   20.0951 O   0  0  0  0  0  0  0  0  0  0  0  0
    9.2094  -18.1080   19.0753 C   0  0  0  0  0  0  0  0  0  0  0  0
    9.8465  -17.7868   20.3722 C   0  0  0  0  0  0  0  0  0  0  0  0
    9.2452  -16.5589   21.0181 C   0  0  2  0  0  0  0  0  0  0  0  0
    9.5042  -15.4133   20.1117 N   0  0  0  0  0  0  0  0  0  0  0  0
    9.9204  -16.2582   22.2754 C   0  0  0  0  0  0  0  0  0  0  0  0
   11.1025  -15.7602   22.2202 O   0  0  0  0  0  0  0  0  0  0  0  0
    9.4243  -16.4437   23.5841 N   0  0  0  0  0  0  0  0  0  0  0  0
   10.2038  -16.0507   24.7595 C   0  0  1  0  0  0  0  0  0  0  0  0
    9.8626  -14.6471   25.1592 C   0  0  0  0  0  0  0  0  0  0  0  0
    8.4441  -14.5080   25.5310 C   0  0  0  0  0  0  0  0  0  0  0  0
    7.4663  -15.5131   25.5195 C   0  0  0  0  0  0  0  0  0  0  0  0
    6.2733  -15.0219   25.8809 N   0  0  0  0  0  0  0  0  0  0  0  0
    6.4182  -13.6980   26.1404 C   0  0  0  0  0  0  0  0  0  0  0  0
    5.4973  -12.7475   26.5637 C   0  0  0  0  0  0  0  0  0  0  0  0
    5.9551  -11.4712   26.7666 C   0  0  0  0  0  0  0  0  0  0  0  0
    7.2791  -11.1191   26.5639 C   0  0  0  0  0  0  0  0  0  0  0  0
    8.1689  -12.0632   26.1480 C   0  0  0  0  0  0  0  0  0  0  0  0
    7.7416  -13.3678   25.9311 C   0  0  0  0  0  0  0  0  0  0  0  0
   10.0939  -17.0736   25.7814 C   0  0  0  0  0  0  0  0  0  0  0  0
    9.4131  -18.2935   25.6302 O   0  0  0  0  0  0  0  0  0  0  0  0
   10.6243  -16.9168   26.9231 O   0  0  0  0  0  0  0  0  0  0  0  0
  1  2  1  0
  2  3  1  0
  3  4  2  0
  5  6  1  0
  6  8  1  0
  7  6  2  0
  8  9  1  0
 10  9  1  6
 11 10  1  0
 11  3  1  0
 12 14  1  0
 12 10  1  0
 13 12  2  0
 15 14  1  0
 15 16  1  1
 17 18  2  0
 17 16  1  0
 19 18  1  0
 20 25  2  0
 20 19  1  0
 21 20  1  0
 22 21  2  0
 22 23  1  0
 23 24  2  0
 24 25  1  0
 25 17  1  0
 26 27  1  0
 26 15  1  0
 28 26  2  0
M  END
$$$$
