GQW.pdb
     RDKit          3D

 28 29  0  0  1  0  0  0  0  0999 V2000
    7.4388  -15.1591   18.3284 N   0  0  0  0  0  0  0  0  0  0  0  0
    8.3412  -14.7695   19.3871 C   0  0  0  0  0  0  0  0  0  0  0  0
    8.5198  -15.8990   20.3315 C   0  0  0  0  0  0  0  0  0  0  0  0
    7.8351  -16.9483   20.1305 O   0  0  0  0  0  0  0  0  0  0  0  0
   12.9984  -18.1027   19.3289 N   0  0  0  0  0  0  0  0  0  0  0  0
   12.8135  -18.1369   20.7266 C   0  0  0  0  0  0  0  0  0  0  0  0
   13.4446  -18.8992   21.4841 O   0  0  0  0  0  0  0  0  0  0  0  0
   11.7711  -17.1619   21.2607 C   0  0  0  0  0  0  0  0  0  0  0  0
   10.5855  -17.9453   21.6751 C   0  0  0  0  0  0  0  0  0  0  0  0
    9.5013  -17.0742   22.2685 C   0  0  2  0  0  0  0  0  0  0  0  0
    9.4081  -15.8545   21.4291 N   0  0  0  0  0  0  0  0  0  0  0  0
    9.8740  -16.6326   23.6076 C   0  0  0  0  0  0  0  0  0  0  0  0
   10.6804  -15.6390   23.7116 O   0  0  0  0  0  0  0  0  0  0  0  0
    9.4444  -17.1688   24.8409 N   0  0  0  0  0  0  0  0  0  0  0  0
    9.9697  -16.6725   26.1143 C   0  0  1  0  0  0  0  0  0  0  0  0
    8.8475  -16.4422   27.0808 C   0  0  0  0  0  0  0  0  0  0  0  0
    7.7841  -15.6030   26.5025 C   0  0  0  0  0  0  0  0  0  0  0  0
    6.6141  -16.0426   25.8666 C   0  0  0  0  0  0  0  0  0  0  0  0
    5.8909  -15.0037   25.4276 N   0  0  0  0  0  0  0  0  0  0  0  0
    6.5455  -13.8607   25.7530 C   0  0  0  0  0  0  0  0  0  0  0  0
    6.2111  -12.5287   25.5415 C   0  0  0  0  0  0  0  0  0  0  0  0
    7.0778  -11.5772   26.0139 C   0  0  0  0  0  0  0  0  0  0  0  0
    8.2471  -11.9065   26.6789 C   0  0  0  0  0  0  0  0  0  0  0  0
    8.5605  -13.2175   26.8772 C   0  0  0  0  0  0  0  0  0  0  0  0
    7.7064  -14.2103   26.4118 C   0  0  0  0  0  0  0  0  0  0  0  0
   11.0584  -17.5222   26.5566 C   0  0  0  0  0  0  0  0  0  0  0  0
   11.9020  -17.2486   27.6465 O   0  0  0  0  0  0  0  0  0  0  0  0
   11.3276  -18.6062   25.9551 O   0  0  0  0  0  0  0  0  0  0  0  0
  1  2  1  0
  2  3  1  0
  3  4  2  0
  5  6  1  0
  6  8  1  0
  7  6  2  0
  8  9  1  0
 10  9  1  6
 11 10  1  0
 11  3  1  0
 12 14  1  0
 12 10  1  0
 13 12  2  0
 15 14  1  0
 15 16  1  1
 17 18  2  0
 17 16  1  0
 19 18  1  0
 20 25  2  0
 20 19  1  0
 21 20  1  0
 22 21  2  0
 22 23  1  0
 23 24  2  0
 24 25  1  0
 25 17  1  0
 26 27  1  0
 26 15  1  0
 28 26  2  0
M  END
$$$$
