GQW.pdb
     RDKit          3D

 28 29  0  0  1  0  0  0  0  0999 V2000
    5.9598  -15.5752   20.1415 N   0  0  0  0  0  0  0  0  0  0  0  0
    7.2407  -14.9671   20.4178 C   0  0  0  0  0  0  0  0  0  0  0  0
    8.0570  -15.8805   21.2538 C   0  0  0  0  0  0  0  0  0  0  0  0
    7.4540  -16.8131   21.8679 O   0  0  0  0  0  0  0  0  0  0  0  0
   13.7745  -17.3213   20.3445 N   0  0  0  0  0  0  0  0  0  0  0  0
   13.6540  -18.1438   21.4837 C   0  0  0  0  0  0  0  0  0  0  0  0
   14.5332  -18.9503   21.8441 O   0  0  0  0  0  0  0  0  0  0  0  0
   12.3533  -17.9790   22.2604 C   0  0  0  0  0  0  0  0  0  0  0  0
   11.5636  -16.9125   21.6044 C   0  0  0  0  0  0  0  0  0  0  0  0
   10.1558  -16.8239   22.1491 C   0  0  2  0  0  0  0  0  0  0  0  0
    9.4574  -15.7563   21.3919 N   0  0  0  0  0  0  0  0  0  0  0  0
   10.1719  -16.4038   23.5456 C   0  0  0  0  0  0  0  0  0  0  0  0
   10.6063  -15.2262   23.8154 O   0  0  0  0  0  0  0  0  0  0  0  0
    9.7528  -17.1450   24.6718 N   0  0  0  0  0  0  0  0  0  0  0  0
    9.8482  -16.5966   26.0260 C   0  0  1  0  0  0  0  0  0  0  0  0
    8.4965  -16.5823   26.6733 C   0  0  0  0  0  0  0  0  0  0  0  0
    7.5943  -15.6012   26.0466 C   0  0  0  0  0  0  0  0  0  0  0  0
    6.6764  -15.8384   25.0133 C   0  0  0  0  0  0  0  0  0  0  0  0
    6.0500  -14.7071   24.6629 N   0  0  0  0  0  0  0  0  0  0  0  0
    6.5229  -13.6999   25.4393 C   0  0  0  0  0  0  0  0  0  0  0  0
    6.1888  -12.3519   25.4843 C   0  0  0  0  0  0  0  0  0  0  0  0
    6.8341  -11.5719   26.4090 C   0  0  0  0  0  0  0  0  0  0  0  0
    7.7854  -12.0850   27.2749 C   0  0  0  0  0  0  0  0  0  0  0  0
    8.1017  -13.4089   27.2170 C   0  0  0  0  0  0  0  0  0  0  0  0
    7.4690  -14.2309   26.2920 C   0  0  0  0  0  0  0  0  0  0  0  0
   10.9183  -17.2594   26.7459 C   0  0  0  0  0  0  0  0  0  0  0  0
   11.7889  -18.2149   26.1949 O   0  0  0  0  0  0  0  0  0  0  0  0
   11.1361  -17.0083   27.9702 O   0  0  0  0  0  0  0  0  0  0  0  0
  1  2  1  0
  2  3  1  0
  3  4  2  0
  5  6  1  0
  6  8  1  0
  7  6  2  0
  8  9  1  0
 10  9  1  6
 11 10  1  0
 11  3  1  0
 12 14  1  0
 12 10  1  0
 13 12  2  0
 15 14  1  0
 15 16  1  1
 17 18  2  0
 17 16  1  0
 19 18  1  0
 20 25  2  0
 20 19  1  0
 21 20  1  0
 22 21  2  0
 22 23  1  0
 23 24  2  0
 24 25  1  0
 25 17  1  0
 26 27  1  0
 26 15  1  0
 28 26  2  0
M  END
$$$$
