GQW.pdb
     RDKit          3D

 28 29  0  0  1  0  0  0  0  0999 V2000
    7.7252  -15.8811   19.5829 N   0  0  0  0  0  0  0  0  0  0  0  0
    7.1792  -16.0642   20.9078 C   0  0  0  0  0  0  0  0  0  0  0  0
    8.1789  -16.7391   21.7708 C   0  0  0  0  0  0  0  0  0  0  0  0
    7.8129  -17.7858   22.3879 O   0  0  0  0  0  0  0  0  0  0  0  0
   14.1496  -17.8816   21.7444 N   0  0  0  0  0  0  0  0  0  0  0  0
   13.3180  -17.9192   20.6061 C   0  0  0  0  0  0  0  0  0  0  0  0
   13.6671  -18.4149   19.5171 O   0  0  0  0  0  0  0  0  0  0  0  0
   11.9380  -17.3022   20.7980 C   0  0  0  0  0  0  0  0  0  0  0  0
   11.8141  -16.8965   22.2161 C   0  0  0  0  0  0  0  0  0  0  0  0
   10.4152  -17.1036   22.7518 C   0  0  2  0  0  0  0  0  0  0  0  0
    9.5020  -16.2709   21.9310 N   0  0  0  0  0  0  0  0  0  0  0  0
   10.3125  -16.6117   24.1209 C   0  0  0  0  0  0  0  0  0  0  0  0
   10.7881  -15.4477   24.3800 O   0  0  0  0  0  0  0  0  0  0  0  0
    9.7343  -17.2674   25.2295 N   0  0  0  0  0  0  0  0  0  0  0  0
    9.8441  -16.7205   26.5832 C   0  0  1  0  0  0  0  0  0  0  0  0
    8.4848  -16.6012   27.2033 C   0  0  0  0  0  0  0  0  0  0  0  0
    7.6067  -15.6982   26.4397 C   0  0  0  0  0  0  0  0  0  0  0  0
    6.6774  -16.0593   25.4535 C   0  0  0  0  0  0  0  0  0  0  0  0
    6.0806  -14.9749   24.9408 N   0  0  0  0  0  0  0  0  0  0  0  0
    6.5849  -13.8779   25.5600 C   0  0  0  0  0  0  0  0  0  0  0  0
    6.2882  -12.5291   25.4062 C   0  0  0  0  0  0  0  0  0  0  0  0
    6.9594  -11.6398   26.2053 C   0  0  0  0  0  0  0  0  0  0  0  0
    7.9006  -12.0462   27.1364 C   0  0  0  0  0  0  0  0  0  0  0  0
    8.1802  -13.3725   27.2739 C   0  0  0  0  0  0  0  0  0  0  0  0
    7.5203  -14.3038   26.4807 C   0  0  0  0  0  0  0  0  0  0  0  0
   10.8468  -17.4581   27.3269 C   0  0  0  0  0  0  0  0  0  0  0  0
   11.3184  -17.1124   28.6047 O   0  0  0  0  0  0  0  0  0  0  0  0
   11.3842  -18.5005   26.8432 O   0  0  0  0  0  0  0  0  0  0  0  0
  1  2  1  0
  2  3  1  0
  3  4  2  0
  5  6  1  0
  6  8  1  0
  7  6  2  0
  8  9  1  0
 10  9  1  6
 11 10  1  0
 11  3  1  0
 12 14  1  0
 12 10  1  0
 13 12  2  0
 15 14  1  0
 15 16  1  1
 17 18  2  0
 17 16  1  0
 19 18  1  0
 20 25  2  0
 20 19  1  0
 21 20  1  0
 22 21  2  0
 22 23  1  0
 23 24  2  0
 24 25  1  0
 25 17  1  0
 26 27  1  0
 26 15  1  0
 28 26  2  0
M  END
$$$$
