GQW.pdb
     RDKit          3D

 28 29  0  0  1  0  0  0  0  0999 V2000
    8.8774  -21.2581   20.9442 N   0  0  0  0  0  0  0  0  0  0  0  0
    8.1516  -20.0229   21.1292 C   0  0  0  0  0  0  0  0  0  0  0  0
    9.1012  -18.8838   21.1476 C   0  0  0  0  0  0  0  0  0  0  0  0
   10.3395  -19.1510   21.2225 O   0  0  0  0  0  0  0  0  0  0  0  0
    8.1505  -13.3140   19.0017 N   0  0  0  0  0  0  0  0  0  0  0  0
    7.6513  -13.4110   20.3171 C   0  0  0  0  0  0  0  0  0  0  0  0
    6.7991  -12.6323   20.7870 O   0  0  0  0  0  0  0  0  0  0  0  0
    8.2333  -14.5520   21.1426 C   0  0  0  0  0  0  0  0  0  0  0  0
    9.1634  -15.3116   20.2770 C   0  0  0  0  0  0  0  0  0  0  0  0
    9.7568  -16.5089   20.9846 C   0  0  2  0  0  0  0  0  0  0  0  0
    8.6892  -17.5340   21.0858 N   0  0  0  0  0  0  0  0  0  0  0  0
   10.1345  -16.1624   22.3499 C   0  0  0  0  0  0  0  0  0  0  0  0
   11.0380  -15.2653   22.5156 O   0  0  0  0  0  0  0  0  0  0  0  0
    9.6146  -16.6974   23.5485 N   0  0  0  0  0  0  0  0  0  0  0  0
   10.1439  -16.3013   24.8548 C   0  0  1  0  0  0  0  0  0  0  0  0
    9.7933  -14.8726   25.1420 C   0  0  0  0  0  0  0  0  0  0  0  0
    8.3737  -14.7137   25.5009 C   0  0  0  0  0  0  0  0  0  0  0  0
    7.3829  -15.7060   25.4844 C   0  0  0  0  0  0  0  0  0  0  0  0
    6.1934  -15.1979   25.8336 N   0  0  0  0  0  0  0  0  0  0  0  0
    6.3534  -13.8751   26.0896 C   0  0  0  0  0  0  0  0  0  0  0  0
    5.4413  -12.9111   26.5015 C   0  0  0  0  0  0  0  0  0  0  0  0
    5.9140  -11.6401   26.7037 C   0  0  0  0  0  0  0  0  0  0  0  0
    7.2442  -11.3060   26.5114 C   0  0  0  0  0  0  0  0  0  0  0  0
    8.1252  -12.2633   26.1066 C   0  0  0  0  0  0  0  0  0  0  0  0
    7.6827  -13.5630   25.8907 C   0  0  0  0  0  0  0  0  0  0  0  0
    9.7698  -17.2862   25.8512 C   0  0  0  0  0  0  0  0  0  0  0  0
   10.3594  -17.4122   27.1205 O   0  0  0  0  0  0  0  0  0  0  0  0
    8.8525  -18.1320   25.6222 O   0  0  0  0  0  0  0  0  0  0  0  0
  1  2  1  0
  2  3  1  0
  3  4  2  0
  5  6  1  0
  6  8  1  0
  7  6  2  0
  8  9  1  0
 10  9  1  1
 11 10  1  0
 11  3  1  0
 12 14  1  0
 12 10  1  0
 13 12  2  0
 15 14  1  0
 15 16  1  1
 17 18  2  0
 17 16  1  0
 19 18  1  0
 20 25  2  0
 20 19  1  0
 21 20  1  0
 22 21  2  0
 22 23  1  0
 23 24  2  0
 24 25  1  0
 25 17  1  0
 26 27  1  0
 26 15  1  0
 28 26  2  0
M  END
$$$$
