GQW.pdb
     RDKit          3D

 28 29  0  0  1  0  0  0  0  0999 V2000
    7.5304  -13.0124   17.2375 N   0  0  0  0  0  0  0  0  0  0  0  0
    8.7737  -13.5449   17.7451 C   0  0  0  0  0  0  0  0  0  0  0  0
    8.5180  -14.3096   18.9899 C   0  0  0  0  0  0  0  0  0  0  0  0
    7.7004  -13.8168   19.8260 O   0  0  0  0  0  0  0  0  0  0  0  0
    7.7918  -20.0728   19.6552 N   0  0  0  0  0  0  0  0  0  0  0  0
    9.1814  -19.8517   19.5608 C   0  0  0  0  0  0  0  0  0  0  0  0
   10.0028  -20.7499   19.2924 O   0  0  0  0  0  0  0  0  0  0  0  0
    9.6219  -18.4149   19.8133 C   0  0  0  0  0  0  0  0  0  0  0  0
    8.4330  -17.6427   20.2391 C   0  0  0  0  0  0  0  0  0  0  0  0
    8.7678  -16.2024   20.5556 C   0  0  2  0  0  0  0  0  0  0  0  0
    9.1382  -15.5457   19.2778 N   0  0  0  0  0  0  0  0  0  0  0  0
    9.9401  -16.1266   21.4198 C   0  0  0  0  0  0  0  0  0  0  0  0
   10.8252  -17.0509   21.3168 O   0  0  0  0  0  0  0  0  0  0  0  0
   10.2390  -15.1347   22.3790 N   0  0  0  0  0  0  0  0  0  0  0  0
    9.5179  -15.0599   23.6510 C   0  0  1  0  0  0  0  0  0  0  0  0
    8.0674  -14.7731   23.4057 C   0  0  0  0  0  0  0  0  0  0  0  0
    7.3136  -14.6239   24.6623 C   0  0  0  0  0  0  0  0  0  0  0  0
    6.5996  -15.6215   25.3416 C   0  0  0  0  0  0  0  0  0  0  0  0
    6.0022  -15.1219   26.4318 N   0  0  0  0  0  0  0  0  0  0  0  0
    6.2959  -13.7996   26.5107 C   0  0  0  0  0  0  0  0  0  0  0  0
    5.9394  -12.8428   27.4531 C   0  0  0  0  0  0  0  0  0  0  0  0
    6.4169  -11.5703   27.2730 C   0  0  0  0  0  0  0  0  0  0  0  0
    7.2246  -11.2279   26.2013 C   0  0  0  0  0  0  0  0  0  0  0  0
    7.5640  -12.1781   25.2858 C   0  0  0  0  0  0  0  0  0  0  0  0
    7.0983  -13.4791   25.4347 C   0  0  0  0  0  0  0  0  0  0  0  0
    9.8338  -16.2216   24.4594 C   0  0  0  0  0  0  0  0  0  0  0  0
   10.5008  -16.1855   25.6956 O   0  0  0  0  0  0  0  0  0  0  0  0
    9.5178  -17.3893   24.0775 O   0  0  0  0  0  0  0  0  0  0  0  0
  1  2  1  0
  2  3  1  0
  3  4  2  0
  5  6  1  0
  6  8  1  0
  7  6  2  0
  8  9  1  0
 10  9  1  6
 11 10  1  0
 11  3  1  0
 12 14  1  0
 12 10  1  0
 13 12  2  0
 15 14  1  0
 15 16  1  6
 17 18  2  0
 17 16  1  0
 19 18  1  0
 20 25  2  0
 20 19  1  0
 21 20  1  0
 22 21  2  0
 22 23  1  0
 23 24  2  0
 24 25  1  0
 25 17  1  0
 26 27  1  0
 26 15  1  0
 28 26  2  0
M  END
$$$$
