WYM.pdb
     RDKit          3D

 35 37  0  0  1  0  0  0  0  0999 V2000
    8.2117  -17.0774   21.5038 N   0  0  0  0  0  0  0  0  0  0  0  0
    7.4825  -16.1447   22.3278 C   0  0  1  0  0  0  0  0  0  0  0  0
    6.2796  -15.6655   21.5518 C   0  0  0  0  0  0  0  0  0  0  0  0
    6.6891  -15.0436   20.2670 C   0  0  0  0  0  0  0  0  0  0  0  0
    6.4391  -15.4564   18.9825 C   0  0  0  0  0  0  0  0  0  0  0  0
    7.0053  -14.5806   18.1210 N   0  0  0  0  0  0  0  0  0  0  0  0
    7.6274  -13.5928   18.7903 C   0  0  0  0  0  0  0  0  0  0  0  0
    8.3495  -12.4645   18.3968 C   0  0  0  0  0  0  0  0  0  0  0  0
    8.8852  -11.6078   19.3504 C   0  0  0  0  0  0  0  0  0  0  0  0
    8.6987  -11.8800   20.6824 C   0  0  0  0  0  0  0  0  0  0  0  0
    7.9772  -13.0076   21.0584 C   0  0  0  0  0  0  0  0  0  0  0  0
    7.4339  -13.8759   20.1238 C   0  0  0  0  0  0  0  0  0  0  0  0
    7.1030  -16.7787   23.6110 C   0  0  0  0  0  0  0  0  0  0  0  0
    6.3294  -16.2288   24.4399 O   0  0  0  0  0  0  0  0  0  0  0  0
    8.3821  -22.1357   30.4652 O   0  0  0  0  0  0  0  0  0  0  0  0
    8.2441  -21.6206   29.1868 C   0  0  0  0  0  0  0  0  0  0  0  0
    7.0217  -21.1262   28.7690 C   0  0  0  0  0  0  0  0  0  0  0  0
    6.8906  -20.6191   27.5070 C   0  0  0  0  0  0  0  0  0  0  0  0
    7.9773  -20.6048   26.6617 C   0  0  0  0  0  0  0  0  0  0  0  0
    7.7960  -20.0448   25.2992 C   0  0  0  0  0  0  0  0  0  0  0  0
    7.7334  -18.5410   25.2873 C   0  0  2  0  0  0  0  0  0  0  0  0
    7.6166  -18.0573   23.9472 N   0  0  0  0  0  0  0  0  0  0  0  0
    8.9560  -18.0399   25.9786 C   0  0  0  0  0  0  0  0  0  0  0  0
   10.0386  -18.1395   25.3381 O   0  0  0  0  0  0  0  0  0  0  0  0
    9.1932  -21.0860   27.0493 C   0  0  0  0  0  0  0  0  0  0  0  0
    9.3216  -21.5969   28.3236 C   0  0  0  0  0  0  0  0  0  0  0  0
    7.6073  -12.2846   26.9616 C   0  0  0  0  0  0  0  0  0  0  0  0
    9.0973  -13.1620   27.5026 S   0  0  0  0  0  0  0  0  0  0  0  0
    8.6699  -14.9056   27.9253 C   0  0  0  0  0  0  0  0  0  0  0  0
    9.8680  -15.6009   28.5029 C   0  0  0  0  0  0  0  0  0  0  0  0
   10.1472  -16.8791   27.8040 C   0  0  2  0  0  0  0  0  0  0  0  0
    8.9328  -17.4828   27.2713 N   0  0  0  0  0  0  0  0  0  0  0  0
   10.8524  -17.8507   28.6305 C   0  0  0  0  0  0  0  0  0  0  0  0
   12.1822  -17.8214   28.9852 O   0  0  0  0  0  0  0  0  0  0  0  0
   10.2012  -18.8558   29.0946 O   0  0  0  0  0  0  0  0  0  0  0  0
  2  1  1  6
  3  2  1  0
  4  3  1  0
  4  5  2  0
  6  5  1  0
  7  6  1  0
  8  7  2  0
  9  8  1  0
 10  9  2  0
 10 11  1  0
 11 12  2  0
 12  7  1  0
 12  4  1  0
 13  2  1  0
 14 13  2  0
 16 15  1  0
 17 16  2  0
 18 17  1  0
 19 25  1  0
 19 18  2  0
 20 19  1  0
 21 20  1  6
 21 23  1  0
 21 22  1  0
 22 13  1  0
 23 32  1  0
 24 23  2  0
 25 26  2  0
 26 16  1  0
 27 28  1  0
 28 29  1  0
 29 30  1  0
 31 33  1  0
 31 30  1  1
 32 31  1  0
 33 34  1  0
 35 33  2  0
M  END
$$$$
