WYM.pdb
     RDKit          3D

 35 37  0  0  1  0  0  0  0  0999 V2000
    6.8387  -17.9581   26.0462 N   0  0  0  0  0  0  0  0  0  0  0  0
    7.1429  -16.6965   25.4165 C   0  0  1  0  0  0  0  0  0  0  0  0
    8.4123  -16.1547   26.0277 C   0  0  0  0  0  0  0  0  0  0  0  0
    8.1155  -15.0618   26.9881 C   0  0  0  0  0  0  0  0  0  0  0  0
    8.3662  -14.9964   28.3356 C   0  0  0  0  0  0  0  0  0  0  0  0
    7.9251  -13.8080   28.8080 N   0  0  0  0  0  0  0  0  0  0  0  0
    7.3860  -13.0749   27.8166 C   0  0  0  0  0  0  0  0  0  0  0  0
    6.7998  -11.8091   27.7598 C   0  0  0  0  0  0  0  0  0  0  0  0
    6.3230  -11.3113   26.5535 C   0  0  0  0  0  0  0  0  0  0  0  0
    6.4331  -12.0744   25.4183 C   0  0  0  0  0  0  0  0  0  0  0  0
    7.0194  -13.3331   25.4911 C   0  0  0  0  0  0  0  0  0  0  0  0
    7.5019  -13.8494   26.6841 C   0  0  0  0  0  0  0  0  0  0  0  0
    7.2579  -16.8676   23.9500 C   0  0  0  0  0  0  0  0  0  0  0  0
    7.6520  -17.9399   23.4182 O   0  0  0  0  0  0  0  0  0  0  0  0
    8.8321  -13.5332   15.9327 O   0  0  0  0  0  0  0  0  0  0  0  0
    8.3359  -13.7672   17.2046 C   0  0  0  0  0  0  0  0  0  0  0  0
    8.3886  -12.7696   18.1614 C   0  0  0  0  0  0  0  0  0  0  0  0
    7.8979  -13.0052   19.4147 C   0  0  0  0  0  0  0  0  0  0  0  0
    7.3550  -14.2345   19.7143 C   0  0  0  0  0  0  0  0  0  0  0  0
    6.8312  -14.4519   21.0859 C   0  0  0  0  0  0  0  0  0  0  0  0
    7.4917  -15.6073   21.7891 C   0  0  2  0  0  0  0  0  0  0  0  0
    6.9176  -15.7969   23.0843 N   0  0  0  0  0  0  0  0  0  0  0  0
    8.9538  -15.3186   21.8411 C   0  0  0  0  0  0  0  0  0  0  0  0
    9.3005  -14.3209   22.5313 O   0  0  0  0  0  0  0  0  0  0  0  0
    7.2913  -15.2346   18.7892 C   0  0  0  0  0  0  0  0  0  0  0  0
    7.7874  -14.9931   17.5256 C   0  0  0  0  0  0  0  0  0  0  0  0
   11.5660  -18.1246   25.7415 C   0  0  0  0  0  0  0  0  0  0  0  0
   12.8365  -16.8876   25.3697 S   0  0  0  0  0  0  0  0  0  0  0  0
   12.7907  -16.4738   23.5730 C   0  0  0  0  0  0  0  0  0  0  0  0
   11.3691  -16.4294   23.0939 C   0  0  0  0  0  0  0  0  0  0  0  0
   11.2894  -16.0976   21.6503 C   0  0  2  0  0  0  0  0  0  0  0  0
    9.9143  -16.0979   21.1686 N   0  0  0  0  0  0  0  0  0  0  0  0
   12.1008  -16.9683   20.8088 C   0  0  0  0  0  0  0  0  0  0  0  0
   13.4208  -16.7857   20.4636 O   0  0  0  0  0  0  0  0  0  0  0  0
   11.5647  -18.0264   20.3162 O   0  0  0  0  0  0  0  0  0  0  0  0
  2  1  1  1
  3  2  1  0
  4  3  1  0
  4  5  2  0
  6  5  1  0
  7  6  1  0
  8  7  2  0
  9  8  1  0
 10  9  2  0
 10 11  1  0
 11 12  2  0
 12  7  1  0
 12  4  1  0
 13  2  1  0
 14 13  2  0
 16 15  1  0
 17 16  2  0
 18 17  1  0
 19 25  1  0
 19 18  2  0
 20 19  1  0
 21 20  1  1
 21 23  1  0
 21 22  1  0
 22 13  1  0
 23 32  1  0
 24 23  2  0
 25 26  2  0
 26 16  1  0
 27 28  1  0
 28 29  1  0
 29 30  1  0
 31 33  1  0
 31 30  1  1
 32 31  1  0
 33 34  1  0
 35 33  2  0
M  END
$$$$
