WYM.pdb
     RDKit          3D

 35 37  0  0  1  0  0  0  0  0999 V2000
    7.7808  -18.6374   21.5782 N   0  0  0  0  0  0  0  0  0  0  0  0
    9.0703  -18.1207   21.1899 C   0  0  1  0  0  0  0  0  0  0  0  0
    8.8543  -16.9885   20.2152 C   0  0  0  0  0  0  0  0  0  0  0  0
    8.0849  -15.8852   20.8442 C   0  0  0  0  0  0  0  0  0  0  0  0
    7.1953  -15.9302   21.8880 C   0  0  0  0  0  0  0  0  0  0  0  0
    6.7331  -14.6815   22.1264 N   0  0  0  0  0  0  0  0  0  0  0  0
    7.2868  -13.8006   21.2729 C   0  0  0  0  0  0  0  0  0  0  0  0
    7.1608  -12.4222   21.0902 C   0  0  0  0  0  0  0  0  0  0  0  0
    7.8854  -11.7782   20.0950 C   0  0  0  0  0  0  0  0  0  0  0  0
    8.7262  -12.5085   19.2931 C   0  0  0  0  0  0  0  0  0  0  0  0
    8.8408  -13.8805   19.4875 C   0  0  0  0  0  0  0  0  0  0  0  0
    8.1272  -14.5434   20.4744 C   0  0  0  0  0  0  0  0  0  0  0  0
    9.8338  -17.6916   22.3840 C   0  0  0  0  0  0  0  0  0  0  0  0
   11.0744  -17.4724   22.3567 O   0  0  0  0  0  0  0  0  0  0  0  0
   11.2169  -14.1060   30.2542 O   0  0  0  0  0  0  0  0  0  0  0  0
   10.6305  -14.6437   29.1204 C   0  0  0  0  0  0  0  0  0  0  0  0
   10.0385  -15.8927   29.1745 C   0  0  0  0  0  0  0  0  0  0  0  0
    9.4613  -16.4190   28.0534 C   0  0  0  0  0  0  0  0  0  0  0  0
    9.4742  -15.7007   26.8788 C   0  0  0  0  0  0  0  0  0  0  0  0
    8.8360  -16.3050   25.6827 C   0  0  0  0  0  0  0  0  0  0  0  0
    9.8106  -17.0545   24.8143 C   0  0  2  0  0  0  0  0  0  0  0  0
    9.1670  -17.5124   23.6229 N   0  0  0  0  0  0  0  0  0  0  0  0
   10.3708  -18.1675   25.6335 C   0  0  0  0  0  0  0  0  0  0  0  0
    9.5389  -19.0054   26.0783 O   0  0  0  0  0  0  0  0  0  0  0  0
   10.0512  -14.4675   26.7990 C   0  0  0  0  0  0  0  0  0  0  0  0
   10.6326  -13.9398   27.9325 C   0  0  0  0  0  0  0  0  0  0  0  0
   16.2944  -19.4175   24.4256 C   0  0  0  0  0  0  0  0  0  0  0  0
   15.2201  -20.8763   24.4038 S   0  0  0  0  0  0  0  0  0  0  0  0
   13.5149  -20.3970   24.9179 C   0  0  0  0  0  0  0  0  0  0  0  0
   13.5268  -19.9055   26.3359 C   0  0  0  0  0  0  0  0  0  0  0  0
   12.1943  -19.4025   26.7507 C   0  0  2  0  0  0  0  0  0  0  0  0
   11.7448  -18.3004   25.9103 N   0  0  0  0  0  0  0  0  0  0  0  0
   12.1347  -19.0033   28.1512 C   0  0  0  0  0  0  0  0  0  0  0  0
   12.5973  -17.8258   28.6938 O   0  0  0  0  0  0  0  0  0  0  0  0
   11.6044  -19.8072   29.0010 O   0  0  0  0  0  0  0  0  0  0  0  0
  2  1  1  1
  3  2  1  0
  4  3  1  0
  4  5  2  0
  6  5  1  0
  7  6  1  0
  8  7  2  0
  9  8  1  0
 10  9  2  0
 10 11  1  0
 11 12  2  0
 12  7  1  0
 12  4  1  0
 13  2  1  0
 14 13  2  0
 16 15  1  0
 17 16  2  0
 18 17  1  0
 19 25  1  0
 19 18  2  0
 20 19  1  0
 21 20  1  1
 21 23  1  0
 21 22  1  0
 22 13  1  0
 23 32  1  0
 24 23  2  0
 25 26  2  0
 26 16  1  0
 27 28  1  0
 28 29  1  0
 29 30  1  0
 31 33  1  0
 31 30  1  6
 32 31  1  0
 33 34  1  0
 35 33  2  0
M  END
$$$$
