WYM.pdb
     RDKit          3D

 35 37  0  0  1  0  0  0  0  0999 V2000
    6.5560  -17.9531   23.8069 N   0  0  0  0  0  0  0  0  0  0  0  0
    7.6277  -16.9878   23.8293 C   0  0  1  0  0  0  0  0  0  0  0  0
    7.8454  -16.5534   25.2585 C   0  0  0  0  0  0  0  0  0  0  0  0
    6.9428  -15.4297   25.6159 C   0  0  0  0  0  0  0  0  0  0  0  0
    5.8138  -15.4355   26.3957 C   0  0  0  0  0  0  0  0  0  0  0  0
    5.3093  -14.1815   26.4487 N   0  0  0  0  0  0  0  0  0  0  0  0
    6.0671  -13.3353   25.7273 C   0  0  0  0  0  0  0  0  0  0  0  0
    5.9965  -11.9678   25.4547 C   0  0  0  0  0  0  0  0  0  0  0  0
    6.9553  -11.3631   24.6515 C   0  0  0  0  0  0  0  0  0  0  0  0
    7.9725  -12.1212   24.1284 C   0  0  0  0  0  0  0  0  0  0  0  0
    8.0292  -13.4819   24.4090 C   0  0  0  0  0  0  0  0  0  0  0  0
    7.0831  -14.1058   25.2079 C   0  0  0  0  0  0  0  0  0  0  0  0
    8.8522  -17.5639   23.2280 C   0  0  0  0  0  0  0  0  0  0  0  0
    9.0755  -18.8036   23.1933 O   0  0  0  0  0  0  0  0  0  0  0  0
    9.9521  -17.1616   16.2251 O   0  0  0  0  0  0  0  0  0  0  0  0
   10.4183  -16.9325   17.5091 C   0  0  0  0  0  0  0  0  0  0  0  0
   10.5062  -15.6394   17.9922 C   0  0  0  0  0  0  0  0  0  0  0  0
   10.9668  -15.4185   19.2595 C   0  0  0  0  0  0  0  0  0  0  0  0
   11.3396  -16.4860   20.0451 C   0  0  0  0  0  0  0  0  0  0  0  0
   11.8335  -16.2061   21.4165 C   0  0  0  0  0  0  0  0  0  0  0  0
   11.1957  -17.0841   22.4595 C   0  0  2  0  0  0  0  0  0  0  0  0
    9.8311  -16.7087   22.6607 N   0  0  0  0  0  0  0  0  0  0  0  0
   12.0161  -16.9687   23.6994 C   0  0  0  0  0  0  0  0  0  0  0  0
   13.1468  -16.4238   23.5707 O   0  0  0  0  0  0  0  0  0  0  0  0
   11.2626  -17.7704   19.5927 C   0  0  0  0  0  0  0  0  0  0  0  0
   10.7973  -17.9892   18.3132 C   0  0  0  0  0  0  0  0  0  0  0  0
   10.0152  -13.0135   28.2490 C   0  0  0  0  0  0  0  0  0  0  0  0
   10.7063  -14.6526   28.5928 S   0  0  0  0  0  0  0  0  0  0  0  0
   11.3573  -15.3898   27.0325 C   0  0  0  0  0  0  0  0  0  0  0  0
   11.8401  -16.7875   27.2891 C   0  0  0  0  0  0  0  0  0  0  0  0
   12.4907  -17.3692   26.0896 C   0  0  2  0  0  0  0  0  0  0  0  0
   11.5789  -17.4324   24.9548 N   0  0  0  0  0  0  0  0  0  0  0  0
   13.0690  -18.6864   26.3241 C   0  0  0  0  0  0  0  0  0  0  0  0
   14.1606  -18.9801   27.1096 O   0  0  0  0  0  0  0  0  0  0  0  0
   12.5348  -19.7063   25.7548 O   0  0  0  0  0  0  0  0  0  0  0  0
  2  1  1  1
  3  2  1  0
  4  3  1  0
  4  5  2  0
  6  5  1  0
  7  6  1  0
  8  7  2  0
  9  8  1  0
 10  9  2  0
 10 11  1  0
 11 12  2  0
 12  7  1  0
 12  4  1  0
 13  2  1  0
 14 13  2  0
 16 15  1  0
 17 16  2  0
 18 17  1  0
 19 25  1  0
 19 18  2  0
 20 19  1  0
 21 20  1  6
 21 23  1  0
 21 22  1  0
 22 13  1  0
 23 32  1  0
 24 23  2  0
 25 26  2  0
 26 16  1  0
 27 28  1  0
 28 29  1  0
 29 30  1  0
 31 33  1  0
 31 30  1  1
 32 31  1  0
 33 34  1  0
 35 33  2  0
M  END
$$$$
