WYM.pdb
     RDKit          3D

 35 37  0  0  1  0  0  0  0  0999 V2000
    6.4031  -18.1217   23.8713 N   0  0  0  0  0  0  0  0  0  0  0  0
    7.0686  -16.8421   23.8519 C   0  0  1  0  0  0  0  0  0  0  0  0
    7.3360  -16.4244   25.2775 C   0  0  0  0  0  0  0  0  0  0  0  0
    6.4229  -15.3286   25.6905 C   0  0  0  0  0  0  0  0  0  0  0  0
    5.1552  -15.4025   26.2104 C   0  0  0  0  0  0  0  0  0  0  0  0
    4.7003  -14.1495   26.4405 N   0  0  0  0  0  0  0  0  0  0  0  0
    5.6260  -13.2378   26.0901 C   0  0  0  0  0  0  0  0  0  0  0  0
    5.6681  -11.8426   26.1205 C   0  0  0  0  0  0  0  0  0  0  0  0
    6.7980  -11.1660   25.6780 C   0  0  0  0  0  0  0  0  0  0  0  0
    7.8724  -11.8806   25.2109 C   0  0  0  0  0  0  0  0  0  0  0  0
    7.8152  -13.2697   25.1870 C   0  0  0  0  0  0  0  0  0  0  0  0
    6.6979  -13.9652   25.6236 C   0  0  0  0  0  0  0  0  0  0  0  0
    8.3114  -16.9203   23.0504 C   0  0  0  0  0  0  0  0  0  0  0  0
    8.9096  -18.0063   22.8256 O   0  0  0  0  0  0  0  0  0  0  0  0
    6.6158  -13.9610   16.7654 O   0  0  0  0  0  0  0  0  0  0  0  0
    7.5075  -14.0636   17.8204 C   0  0  0  0  0  0  0  0  0  0  0  0
    8.2374  -15.2250   17.9980 C   0  0  0  0  0  0  0  0  0  0  0  0
    9.1157  -15.3215   19.0402 C   0  0  0  0  0  0  0  0  0  0  0  0
    9.2665  -14.2609   19.9051 C   0  0  0  0  0  0  0  0  0  0  0  0
   10.2310  -14.4029   21.0242 C   0  0  0  0  0  0  0  0  0  0  0  0
   10.0926  -15.7118   21.7544 C   0  0  2  0  0  0  0  0  0  0  0  0
    8.8741  -15.7399   22.5012 N   0  0  0  0  0  0  0  0  0  0  0  0
   11.3012  -15.8714   22.6133 C   0  0  0  0  0  0  0  0  0  0  0  0
   12.0716  -14.8745   22.6818 O   0  0  0  0  0  0  0  0  0  0  0  0
    8.5589  -13.1050   19.7520 C   0  0  0  0  0  0  0  0  0  0  0  0
    7.6735  -13.0114   18.6990 C   0  0  0  0  0  0  0  0  0  0  0  0
   11.7073  -14.7769   29.6271 C   0  0  0  0  0  0  0  0  0  0  0  0
   10.9587  -14.8944   27.9814 S   0  0  0  0  0  0  0  0  0  0  0  0
   11.9745  -16.0066   26.9171 C   0  0  0  0  0  0  0  0  0  0  0  0
   11.3974  -16.0579   25.5326 C   0  0  0  0  0  0  0  0  0  0  0  0
   12.1757  -16.9607   24.6497 C   0  0  2  0  0  0  0  0  0  0  0  0
   11.5905  -17.0550   23.3186 N   0  0  0  0  0  0  0  0  0  0  0  0
   12.3539  -18.2988   25.1997 C   0  0  0  0  0  0  0  0  0  0  0  0
   13.2938  -18.6918   26.1254 O   0  0  0  0  0  0  0  0  0  0  0  0
   11.5737  -19.2389   24.8032 O   0  0  0  0  0  0  0  0  0  0  0  0
  2  1  1  1
  3  2  1  0
  4  3  1  0
  4  5  2  0
  6  5  1  0
  7  6  1  0
  8  7  2  0
  9  8  1  0
 10  9  2  0
 10 11  1  0
 11 12  2  0
 12  7  1  0
 12  4  1  0
 13  2  1  0
 14 13  2  0
 16 15  1  0
 17 16  2  0
 18 17  1  0
 19 25  1  0
 19 18  2  0
 20 19  1  0
 21 20  1  1
 21 23  1  0
 21 22  1  0
 22 13  1  0
 23 32  1  0
 24 23  2  0
 25 26  2  0
 26 16  1  0
 27 28  1  0
 28 29  1  0
 29 30  1  0
 31 33  1  0
 31 30  1  1
 32 31  1  0
 33 34  1  0
 35 33  2  0
M  END
$$$$
