WYM.pdb
     RDKit          3D

 35 37  0  0  1  0  0  0  0  0999 V2000
    7.0050  -17.4702   24.4356 N   0  0  0  0  0  0  0  0  0  0  0  0
    7.1983  -16.4384   23.4462 C   0  0  1  0  0  0  0  0  0  0  0  0
    6.1530  -15.3712   23.6627 C   0  0  0  0  0  0  0  0  0  0  0  0
    6.1952  -14.8608   25.0565 C   0  0  0  0  0  0  0  0  0  0  0  0
    5.9227  -15.5158   26.2310 C   0  0  0  0  0  0  0  0  0  0  0  0
    6.0911  -14.6574   27.2628 N   0  0  0  0  0  0  0  0  0  0  0  0
    6.4684  -13.4461   26.8143 C   0  0  0  0  0  0  0  0  0  0  0  0
    6.7674  -12.2341   27.4398 C   0  0  0  0  0  0  0  0  0  0  0  0
    7.1373  -11.1284   26.6843 C   0  0  0  0  0  0  0  0  0  0  0  0
    7.2066  -11.2375   25.3182 C   0  0  0  0  0  0  0  0  0  0  0  0
    6.9059  -12.4513   24.7100 C   0  0  0  0  0  0  0  0  0  0  0  0
    6.5345  -13.5673   25.4445 C   0  0  0  0  0  0  0  0  0  0  0  0
    8.5743  -15.8974   23.5287 C   0  0  0  0  0  0  0  0  0  0  0  0
    8.8732  -14.7351   23.1446 O   0  0  0  0  0  0  0  0  0  0  0  0
   10.6715  -14.8637   29.9933 O   0  0  0  0  0  0  0  0  0  0  0  0
   10.9558  -15.4116   28.7533 C   0  0  0  0  0  0  0  0  0  0  0  0
   11.1200  -14.5873   27.6547 C   0  0  0  0  0  0  0  0  0  0  0  0
   11.4003  -15.1325   26.4335 C   0  0  0  0  0  0  0  0  0  0  0  0
   11.5168  -16.4986   26.3073 C   0  0  0  0  0  0  0  0  0  0  0  0
   11.8232  -17.0532   24.9651 C   0  0  0  0  0  0  0  0  0  0  0  0
   11.0081  -16.4200   23.8695 C   0  0  2  0  0  0  0  0  0  0  0  0
    9.6186  -16.6984   24.0572 N   0  0  0  0  0  0  0  0  0  0  0  0
   11.5312  -16.9360   22.5718 C   0  0  0  0  0  0  0  0  0  0  0  0
   11.1086  -18.0691   22.2117 O   0  0  0  0  0  0  0  0  0  0  0  0
   11.3594  -17.3330   27.3746 C   0  0  0  0  0  0  0  0  0  0  0  0
   11.0767  -16.7791   28.6053 C   0  0  0  0  0  0  0  0  0  0  0  0
    8.9871  -12.6639   19.4908 C   0  0  0  0  0  0  0  0  0  0  0  0
    8.8679  -14.2361   18.5984 S   0  0  0  0  0  0  0  0  0  0  0  0
   10.4573  -15.1587   18.7548 C   0  0  0  0  0  0  0  0  0  0  0  0
   10.8109  -15.3275   20.2035 C   0  0  0  0  0  0  0  0  0  0  0  0
   12.1281  -15.9890   20.3706 C   0  0  2  0  0  0  0  0  0  0  0  0
   12.4445  -16.2211   21.7738 N   0  0  0  0  0  0  0  0  0  0  0  0
   13.2245  -15.2676   19.7366 C   0  0  0  0  0  0  0  0  0  0  0  0
   14.3592  -14.7865   20.3497 O   0  0  0  0  0  0  0  0  0  0  0  0
   13.1630  -15.0340   18.4751 O   0  0  0  0  0  0  0  0  0  0  0  0
  2  1  1  1
  3  2  1  0
  4  3  1  0
  4  5  2  0
  6  5  1  0
  7  6  1  0
  8  7  2  0
  9  8  1  0
 10  9  2  0
 10 11  1  0
 11 12  2  0
 12  7  1  0
 12  4  1  0
 13  2  1  0
 14 13  2  0
 16 15  1  0
 17 16  2  0
 18 17  1  0
 19 25  1  0
 19 18  2  0
 20 19  1  0
 21 20  1  1
 21 23  1  0
 21 22  1  0
 22 13  1  0
 23 32  1  0
 24 23  2  0
 25 26  2  0
 26 16  1  0
 27 28  1  0
 28 29  1  0
 29 30  1  0
 31 33  1  0
 31 30  1  1
 32 31  1  0
 33 34  1  0
 35 33  2  0
M  END
$$$$
