WYM.pdb
     RDKit          3D

 35 37  0  0  1  0  0  0  0  0999 V2000
    6.7618  -19.4844   25.0025 N   0  0  0  0  0  0  0  0  0  0  0  0
    6.7292  -18.0435   24.9446 C   0  0  1  0  0  0  0  0  0  0  0  0
    7.2787  -17.5036   26.2427 C   0  0  0  0  0  0  0  0  0  0  0  0
    6.7535  -16.1420   26.5169 C   0  0  0  0  0  0  0  0  0  0  0  0
    5.4554  -15.6978   26.5340 C   0  0  0  0  0  0  0  0  0  0  0  0
    5.4457  -14.3784   26.8324 N   0  0  0  0  0  0  0  0  0  0  0  0
    6.6994  -13.9252   27.0157 C   0  0  0  0  0  0  0  0  0  0  0  0
    7.2390  -12.6773   27.3334 C   0  0  0  0  0  0  0  0  0  0  0  0
    8.6137  -12.5194   27.4576 C   0  0  0  0  0  0  0  0  0  0  0  0
    9.4368  -13.6005   27.2656 C   0  0  0  0  0  0  0  0  0  0  0  0
    8.8843  -14.8368   26.9497 C   0  0  0  0  0  0  0  0  0  0  0  0
    7.5155  -15.0168   26.8208 C   0  0  0  0  0  0  0  0  0  0  0  0
    7.4906  -17.5580   23.7709 C   0  0  0  0  0  0  0  0  0  0  0  0
    8.4854  -18.1734   23.3025 O   0  0  0  0  0  0  0  0  0  0  0  0
    8.9124  -12.8322   16.5126 O   0  0  0  0  0  0  0  0  0  0  0  0
    8.4643  -13.2514   17.7544 C   0  0  0  0  0  0  0  0  0  0  0  0
    7.8359  -14.4767   17.8850 C   0  0  0  0  0  0  0  0  0  0  0  0
    7.3956  -14.8859   19.1121 C   0  0  0  0  0  0  0  0  0  0  0  0
    7.5814  -14.0742   20.2085 C   0  0  0  0  0  0  0  0  0  0  0  0
    7.0906  -14.5537   21.5246 C   0  0  0  0  0  0  0  0  0  0  0  0
    7.7616  -15.8243   21.9727 C   0  0  2  0  0  0  0  0  0  0  0  0
    7.1069  -16.3534   23.1280 N   0  0  0  0  0  0  0  0  0  0  0  0
    9.1979  -15.5060   22.2168 C   0  0  0  0  0  0  0  0  0  0  0  0
    9.8691  -15.1514   21.2089 O   0  0  0  0  0  0  0  0  0  0  0  0
    8.1977  -12.8618   20.1066 C   0  0  0  0  0  0  0  0  0  0  0  0
    8.6408  -12.4524   18.8667 C   0  0  0  0  0  0  0  0  0  0  0  0
   10.4180  -13.4713   28.5988 C   0  0  0  0  0  0  0  0  0  0  0  0
   11.5723  -14.3578   27.5199 S   0  0  0  0  0  0  0  0  0  0  0  0
   10.7921  -14.6326   25.8714 C   0  0  0  0  0  0  0  0  0  0  0  0
   11.6942  -15.4681   25.0108 C   0  0  0  0  0  0  0  0  0  0  0  0
   11.2455  -15.4773   23.5970 C   0  0  2  0  0  0  0  0  0  0  0  0
    9.7967  -15.5878   23.4884 N   0  0  0  0  0  0  0  0  0  0  0  0
   11.8753  -16.5186   22.7948 C   0  0  0  0  0  0  0  0  0  0  0  0
   11.6298  -17.8715   22.8592 O   0  0  0  0  0  0  0  0  0  0  0  0
   12.7591  -16.1802   21.9265 O   0  0  0  0  0  0  0  0  0  0  0  0
  2  1  1  1
  3  2  1  0
  4  3  1  0
  4  5  2  0
  6  5  1  0
  7  6  1  0
  8  7  2  0
  9  8  1  0
 10  9  2  0
 10 11  1  0
 11 12  2  0
 12  7  1  0
 12  4  1  0
 13  2  1  0
 14 13  2  0
 16 15  1  0
 17 16  2  0
 18 17  1  0
 19 25  1  0
 19 18  2  0
 20 19  1  0
 21 20  1  1
 21 23  1  0
 21 22  1  0
 22 13  1  0
 23 32  1  0
 24 23  2  0
 25 26  2  0
 26 16  1  0
 27 28  1  0
 28 29  1  0
 29 30  1  0
 31 33  1  0
 31 30  1  1
 32 31  1  0
 33 34  1  0
 35 33  2  0
M  END
$$$$
