WYM.pdb
     RDKit          3D

 35 37  0  0  1  0  0  0  0  0999 V2000
    6.9985  -17.7319   24.6897 N   0  0  0  0  0  0  0  0  0  0  0  0
    8.0661  -16.8445   24.2979 C   0  0  1  0  0  0  0  0  0  0  0  0
    8.1182  -15.7010   25.2819 C   0  0  0  0  0  0  0  0  0  0  0  0
    7.1285  -14.6515   24.9300 C   0  0  0  0  0  0  0  0  0  0  0  0
    6.0554  -14.1914   25.6510 C   0  0  0  0  0  0  0  0  0  0  0  0
    5.4291  -13.2260   24.9400 N   0  0  0  0  0  0  0  0  0  0  0  0
    6.0508  -13.0254   23.7636 C   0  0  0  0  0  0  0  0  0  0  0  0
    5.8238  -12.1693   22.6842 C   0  0  0  0  0  0  0  0  0  0  0  0
    6.6650  -12.1973   21.5789 C   0  0  0  0  0  0  0  0  0  0  0  0
    7.7209  -13.0734   21.5569 C   0  0  0  0  0  0  0  0  0  0  0  0
    7.9339  -13.9196   22.6395 C   0  0  0  0  0  0  0  0  0  0  0  0
    7.1070  -13.9085   23.7526 C   0  0  0  0  0  0  0  0  0  0  0  0
    9.3488  -17.5812   24.2292 C   0  0  0  0  0  0  0  0  0  0  0  0
    9.5607  -18.6416   24.8762 O   0  0  0  0  0  0  0  0  0  0  0  0
   17.9904  -18.1755   22.8041 O   0  0  0  0  0  0  0  0  0  0  0  0
   16.6699  -17.7578   22.7859 C   0  0  0  0  0  0  0  0  0  0  0  0
   15.6497  -18.6861   22.8897 C   0  0  0  0  0  0  0  0  0  0  0  0
   14.3486  -18.2691   22.8712 C   0  0  0  0  0  0  0  0  0  0  0  0
   14.0644  -16.9275   22.7494 C   0  0  0  0  0  0  0  0  0  0  0  0
   12.6392  -16.5132   22.7346 C   0  0  0  0  0  0  0  0  0  0  0  0
   11.7863  -17.3144   23.6812 C   0  0  2  0  0  0  0  0  0  0  0  0
   10.3999  -17.0960   23.4098 N   0  0  0  0  0  0  0  0  0  0  0  0
   12.1730  -16.9231   25.0672 C   0  0  0  0  0  0  0  0  0  0  0  0
   12.9853  -15.9630   25.1690 O   0  0  0  0  0  0  0  0  0  0  0  0
   15.0517  -15.9922   22.6455 C   0  0  0  0  0  0  0  0  0  0  0  0
   16.3634  -16.4169   22.6646 C   0  0  0  0  0  0  0  0  0  0  0  0
   10.4642  -12.3324   27.5608 C   0  0  0  0  0  0  0  0  0  0  0  0
   11.1059  -13.6209   28.6611 S   0  0  0  0  0  0  0  0  0  0  0  0
   11.9417  -14.9274   27.6629 C   0  0  0  0  0  0  0  0  0  0  0  0
   11.6983  -16.2750   28.2771 C   0  0  0  0  0  0  0  0  0  0  0  0
   12.3420  -17.3569   27.4925 C   0  0  2  0  0  0  0  0  0  0  0  0
   11.6756  -17.5702   26.2144 N   0  0  0  0  0  0  0  0  0  0  0  0
   12.4321  -18.6212   28.2122 C   0  0  0  0  0  0  0  0  0  0  0  0
   11.9207  -19.8355   27.8137 O   0  0  0  0  0  0  0  0  0  0  0  0
   13.0428  -18.6472   29.3417 O   0  0  0  0  0  0  0  0  0  0  0  0
  2  1  1  1
  3  2  1  0
  4  3  1  0
  4  5  2  0
  6  5  1  0
  7  6  1  0
  8  7  2  0
  9  8  1  0
 10  9  2  0
 10 11  1  0
 11 12  2  0
 12  7  1  0
 12  4  1  0
 13  2  1  0
 14 13  2  0
 16 15  1  0
 17 16  2  0
 18 17  1  0
 19 25  1  0
 19 18  2  0
 20 19  1  0
 21 20  1  6
 21 23  1  0
 21 22  1  0
 22 13  1  0
 23 32  1  0
 24 23  2  0
 25 26  2  0
 26 16  1  0
 27 28  1  0
 28 29  1  0
 29 30  1  0
 31 33  1  0
 31 30  1  1
 32 31  1  0
 33 34  1  0
 35 33  2  0
M  END
$$$$
