TVA.pdb
     RDKit          3D

 20 19  0  0  1  0  0  0  0  0999 V2000
    9.3882  -19.4118   18.7393 C   0  0  0  0  0  0  0  0  0  0  0  0
    9.8481  -18.7078   17.4719 C   0  0  1  0  0  0  0  0  0  0  0  0
    9.6783  -19.5378   16.3646 O   0  0  0  0  0  0  0  0  0  0  0  0
    9.0792  -17.4033   17.2997 C   0  0  2  0  0  0  0  0  0  0  0  0
    9.4417  -16.8535   16.0070 N   0  0  0  0  0  0  0  0  0  0  0  0
    9.4633  -16.5046   18.4098 C   0  0  0  0  0  0  0  0  0  0  0  0
   10.6332  -16.0550   18.4860 O   0  0  0  0  0  0  0  0  0  0  0  0
    7.1133  -13.7658   20.0543 C   0  0  0  0  0  0  0  0  0  0  0  0
    7.7103  -14.6440   21.1055 C   0  0  2  0  0  0  0  0  0  0  0  0
    7.9410  -13.9423   22.4162 C   0  0  0  0  0  0  0  0  0  0  0  0
    8.9899  -15.3056   20.5871 C   0  0  2  0  0  0  0  0  0  0  0  0
    8.5595  -16.1034   19.4323 N   0  0  0  0  0  0  0  0  0  0  0  0
    9.5746  -16.1537   21.6395 C   0  0  0  0  0  0  0  0  0  0  0  0
    8.9434  -17.1643   22.0359 O   0  0  0  0  0  0  0  0  0  0  0  0
   12.9446  -16.5964   23.2859 C   0  0  0  0  0  0  0  0  0  0  0  0
   11.4439  -16.7766   23.2131 C   0  0  2  0  0  0  0  0  0  0  0  0
   10.8345  -15.8885   22.2424 N   0  0  0  0  0  0  0  0  0  0  0  0
   10.8316  -16.5378   24.5446 C   0  0  0  0  0  0  0  0  0  0  0  0
   10.0432  -15.5813   24.7822 O   0  0  0  0  0  0  0  0  0  0  0  0
   11.1223  -17.3938   25.6019 O   0  0  0  0  0  0  0  0  0  0  0  0
  2  1  1  1
  2  4  1  0
  3  2  1  0
  4  5  1  6
  6 12  1  0
  6  4  1  0
  7  6  2  0
  9  8  1  6
  9 11  1  0
 10  9  1  0
 11 12  1  6
 11 13  1  0
 13 17  1  0
 14 13  2  0
 16 18  1  0
 16 15  1  1
 17 16  1  0
 18 20  1  0
 19 18  2  0
M  END
$$$$
