TVA.pdb
     RDKit          3D

 20 19  0  0  1  0  0  0  0  0999 V2000
    5.9616  -16.3820   20.3792 C   0  0  0  0  0  0  0  0  0  0  0  0
    6.7559  -16.0373   21.6297 C   0  0  1  0  0  0  0  0  0  0  0  0
    7.8588  -16.8810   21.7542 O   0  0  0  0  0  0  0  0  0  0  0  0
    7.1885  -14.5768   21.5785 C   0  0  2  0  0  0  0  0  0  0  0  0
    8.0433  -14.4181   20.4171 N   0  0  0  0  0  0  0  0  0  0  0  0
    7.9045  -14.2752   22.8370 C   0  0  0  0  0  0  0  0  0  0  0  0
    9.1589  -14.3116   22.8775 O   0  0  0  0  0  0  0  0  0  0  0  0
    6.4883  -11.6893   25.4558 C   0  0  0  0  0  0  0  0  0  0  0  0
    6.9824  -12.9033   26.1732 C   0  0  2  0  0  0  0  0  0  0  0  0
    7.5631  -12.6065   27.5290 C   0  0  0  0  0  0  0  0  0  0  0  0
    7.9674  -13.6801   25.2955 C   0  0  2  0  0  0  0  0  0  0  0  0
    7.2384  -13.9347   24.0469 N   0  0  0  0  0  0  0  0  0  0  0  0
    8.3467  -14.9367   25.9632 C   0  0  0  0  0  0  0  0  0  0  0  0
    7.4590  -15.7850   26.2267 O   0  0  0  0  0  0  0  0  0  0  0  0
   11.3211  -17.0823   26.3369 C   0  0  0  0  0  0  0  0  0  0  0  0
   10.0564  -16.5114   26.9407 C   0  0  2  0  0  0  0  0  0  0  0  0
    9.6835  -15.2490   26.3326 N   0  0  0  0  0  0  0  0  0  0  0  0
   10.2263  -16.3173   28.4029 C   0  0  0  0  0  0  0  0  0  0  0  0
   10.2363  -15.1817   28.9537 O   0  0  0  0  0  0  0  0  0  0  0  0
   10.3843  -17.4226   29.2325 O   0  0  0  0  0  0  0  0  0  0  0  0
  2  1  1  6
  2  4  1  0
  3  2  1  0
  4  5  1  6
  6 12  1  0
  6  4  1  0
  7  6  2  0
  9  8  1  6
  9 11  1  0
 10  9  1  0
 11 12  1  6
 11 13  1  0
 13 17  1  0
 14 13  2  0
 16 18  1  0
 16 15  1  6
 17 16  1  0
 18 20  1  0
 19 18  2  0
M  END
$$$$
