TVA.pdb
     RDKit          3D

 20 19  0  0  1  0  0  0  0  0999 V2000
    6.3567  -16.5499   21.8161 C   0  0  0  0  0  0  0  0  0  0  0  0
    7.2183  -15.7109   20.8849 C   0  0  1  0  0  0  0  0  0  0  0  0
    6.7272  -15.7704   19.5814 O   0  0  0  0  0  0  0  0  0  0  0  0
    7.2667  -14.2721   21.3851 C   0  0  2  0  0  0  0  0  0  0  0  0
    7.9007  -13.4748   20.3520 N   0  0  0  0  0  0  0  0  0  0  0  0
    8.0405  -14.2597   22.6455 C   0  0  0  0  0  0  0  0  0  0  0  0
    9.2913  -14.3683   22.6229 O   0  0  0  0  0  0  0  0  0  0  0  0
    6.0333  -13.7980   26.2914 C   0  0  0  0  0  0  0  0  0  0  0  0
    7.4351  -13.2992   26.1543 C   0  0  2  0  0  0  0  0  0  0  0  0
    7.5226  -11.8402   25.7976 C   0  0  0  0  0  0  0  0  0  0  0  0
    8.2188  -14.1690   25.1678 C   0  0  2  0  0  0  0  0  0  0  0  0
    7.4361  -14.1280   23.9264 N   0  0  0  0  0  0  0  0  0  0  0  0
    8.3278  -15.5415   25.6905 C   0  0  0  0  0  0  0  0  0  0  0  0
    7.3640  -16.3332   25.5443 O   0  0  0  0  0  0  0  0  0  0  0  0
   10.4011  -18.1892   25.6337 C   0  0  0  0  0  0  0  0  0  0  0  0
    9.6582  -17.4260   26.7087 C   0  0  2  0  0  0  0  0  0  0  0  0
    9.4817  -16.0291   26.3625 N   0  0  0  0  0  0  0  0  0  0  0  0
   10.3829  -17.5205   28.0012 C   0  0  0  0  0  0  0  0  0  0  0  0
   10.9217  -16.5290   28.5666 O   0  0  0  0  0  0  0  0  0  0  0  0
   10.4900  -18.7492   28.6446 O   0  0  0  0  0  0  0  0  0  0  0  0
  2  1  1  1
  2  4  1  0
  3  2  1  0
  4  5  1  6
  6 12  1  0
  6  4  1  0
  7  6  2  0
  9  8  1  6
  9 11  1  0
 10  9  1  0
 11 12  1  6
 11 13  1  0
 13 17  1  0
 14 13  2  0
 16 18  1  0
 16 15  1  6
 17 16  1  0
 18 20  1  0
 19 18  2  0
M  END
$$$$
