TVA.pdb
     RDKit          3D

 20 19  0  0  1  0  0  0  0  0999 V2000
    7.3005  -18.9409   19.0855 C   0  0  0  0  0  0  0  0  0  0  0  0
    8.1968  -18.7745   17.8680 C   0  0  1  0  0  0  0  0  0  0  0  0
    7.7899  -19.6278   16.8433 O   0  0  0  0  0  0  0  0  0  0  0  0
    8.1770  -17.3213   17.4089 C   0  0  2  0  0  0  0  0  0  0  0  0
    8.9620  -17.2403   16.1916 N   0  0  0  0  0  0  0  0  0  0  0  0
    8.7538  -16.4986   18.4942 C   0  0  0  0  0  0  0  0  0  0  0  0
    9.9842  -16.5453   18.7400 O   0  0  0  0  0  0  0  0  0  0  0  0
    7.3681  -12.8898   19.6639 C   0  0  0  0  0  0  0  0  0  0  0  0
    7.5164  -13.8418   20.8061 C   0  0  2  0  0  0  0  0  0  0  0  0
    7.8355  -13.1684   22.1132 C   0  0  0  0  0  0  0  0  0  0  0  0
    8.5395  -14.9292   20.4673 C   0  0  2  0  0  0  0  0  0  0  0  0
    7.9753  -15.6273   19.3056 N   0  0  0  0  0  0  0  0  0  0  0  0
    8.7005  -15.8376   21.6153 C   0  0  0  0  0  0  0  0  0  0  0  0
    7.6921  -16.4218   22.0831 O   0  0  0  0  0  0  0  0  0  0  0  0
   11.1976  -18.1066   22.9047 C   0  0  0  0  0  0  0  0  0  0  0  0
   10.1298  -17.0974   23.2671 C   0  0  2  0  0  0  0  0  0  0  0  0
    9.9541  -16.0948   22.2344 N   0  0  0  0  0  0  0  0  0  0  0  0
   10.4698  -16.4253   24.5467 C   0  0  0  0  0  0  0  0  0  0  0  0
   10.7386  -15.1950   24.6321 O   0  0  0  0  0  0  0  0  0  0  0  0
   10.5018  -17.1618   25.7263 O   0  0  0  0  0  0  0  0  0  0  0  0
  2  1  1  1
  2  4  1  0
  3  2  1  0
  4  5  1  6
  6 12  1  0
  6  4  1  0
  7  6  2  0
  9  8  1  6
  9 11  1  0
 10  9  1  0
 11 12  1  6
 11 13  1  0
 13 17  1  0
 14 13  2  0
 16 18  1  0
 16 15  1  6
 17 16  1  0
 18 20  1  0
 19 18  2  0
M  END
$$$$
