TVA.pdb
     RDKit          3D

 20 19  0  0  1  0  0  0  0  0999 V2000
    6.1778  -14.5923   19.3233 C   0  0  0  0  0  0  0  0  0  0  0  0
    6.9622  -14.6274   20.6259 C   0  0  1  0  0  0  0  0  0  0  0  0
    8.1687  -15.3037   20.4499 O   0  0  0  0  0  0  0  0  0  0  0  0
    7.2001  -13.2061   21.1220 C   0  0  2  0  0  0  0  0  0  0  0  0
    8.0361  -12.5388   20.1419 N   0  0  0  0  0  0  0  0  0  0  0  0
    7.8603  -13.2951   22.4426 C   0  0  0  0  0  0  0  0  0  0  0  0
    9.1122  -13.2543   22.5298 O   0  0  0  0  0  0  0  0  0  0  0  0
    6.3918  -11.6455   25.6549 C   0  0  0  0  0  0  0  0  0  0  0  0
    6.8044  -13.0434   25.9840 C   0  0  2  0  0  0  0  0  0  0  0  0
    7.3086  -13.2063   27.3921 C   0  0  0  0  0  0  0  0  0  0  0  0
    7.8185  -13.5577   24.9588 C   0  0  2  0  0  0  0  0  0  0  0  0
    7.1412  -13.4286   23.6626 N   0  0  0  0  0  0  0  0  0  0  0  0
    8.1565  -14.9608   25.2522 C   0  0  0  0  0  0  0  0  0  0  0  0
    7.2531  -15.8321   25.2115 O   0  0  0  0  0  0  0  0  0  0  0  0
   11.0648  -17.2227   25.2018 C   0  0  0  0  0  0  0  0  0  0  0  0
    9.7912  -16.7735   25.8845 C   0  0  2  0  0  0  0  0  0  0  0  0
    9.4698  -15.3918   25.5844 N   0  0  0  0  0  0  0  0  0  0  0  0
    9.9099  -16.9384   27.3554 C   0  0  0  0  0  0  0  0  0  0  0  0
    9.8916  -15.9695   28.1641 O   0  0  0  0  0  0  0  0  0  0  0  0
   10.0493  -18.2114   27.8985 O   0  0  0  0  0  0  0  0  0  0  0  0
  2  1  1  6
  2  4  1  0
  3  2  1  0
  4  5  1  6
  6 12  1  0
  6  4  1  0
  7  6  2  0
  9  8  1  6
  9 11  1  0
 10  9  1  0
 11 12  1  6
 11 13  1  0
 13 17  1  0
 14 13  2  0
 16 18  1  0
 16 15  1  6
 17 16  1  0
 18 20  1  0
 19 18  2  0
M  END
$$$$
