TVA.pdb
     RDKit          3D

 20 19  0  0  1  0  0  0  0  0999 V2000
    6.3625  -19.3481   17.0851 C   0  0  0  0  0  0  0  0  0  0  0  0
    7.1842  -18.5835   18.1116 C   0  0  1  0  0  0  0  0  0  0  0  0
    8.2041  -19.3887   18.6166 O   0  0  0  0  0  0  0  0  0  0  0  0
    7.7501  -17.3179   17.4786 C   0  0  2  0  0  0  0  0  0  0  0  0
    8.6847  -17.7290   16.4479 N   0  0  0  0  0  0  0  0  0  0  0  0
    8.4129  -16.5383   18.5465 C   0  0  0  0  0  0  0  0  0  0  0  0
    9.6425  -16.6747   18.7613 O   0  0  0  0  0  0  0  0  0  0  0  0
    7.3290  -12.8137   19.4976 C   0  0  0  0  0  0  0  0  0  0  0  0
    7.4745  -13.6651   20.7169 C   0  0  2  0  0  0  0  0  0  0  0  0
    7.9130  -12.9004   21.9360 C   0  0  0  0  0  0  0  0  0  0  0  0
    8.3982  -14.8527   20.4335 C   0  0  2  0  0  0  0  0  0  0  0  0
    7.7211  -15.6113   19.3745 N   0  0  0  0  0  0  0  0  0  0  0  0
    8.5611  -15.6603   21.6542 C   0  0  0  0  0  0  0  0  0  0  0  0
    7.5420  -16.1086   22.2352 O   0  0  0  0  0  0  0  0  0  0  0  0
   10.2881  -18.1902   23.1627 C   0  0  0  0  0  0  0  0  0  0  0  0
    9.9779  -16.7355   23.4416 C   0  0  2  0  0  0  0  0  0  0  0  0
    9.8281  -15.9663   22.2216 N   0  0  0  0  0  0  0  0  0  0  0  0
   11.0504  -16.1304   24.2712 C   0  0  0  0  0  0  0  0  0  0  0  0
   11.2973  -16.4927   25.4548 O   0  0  0  0  0  0  0  0  0  0  0  0
   11.8386  -15.1119   23.7454 O   0  0  0  0  0  0  0  0  0  0  0  0
  2  1  1  6
  2  4  1  0
  3  2  1  0
  4  5  1  6
  6 12  1  0
  6  4  1  0
  7  6  2  0
  9  8  1  6
  9 11  1  0
 10  9  1  0
 11 12  1  6
 11 13  1  0
 13 17  1  0
 14 13  2  0
 16 18  1  0
 16 15  1  6
 17 16  1  0
 18 20  1  0
 19 18  2  0
M  END
$$$$
