TVA.pdb
     RDKit          3D

 20 19  0  0  1  0  0  0  0  0999 V2000
    5.8979  -16.0378   20.2506 C   0  0  0  0  0  0  0  0  0  0  0  0
    6.7210  -15.7434   21.4953 C   0  0  1  0  0  0  0  0  0  0  0  0
    7.8802  -16.5180   21.5072 O   0  0  0  0  0  0  0  0  0  0  0  0
    7.0564  -14.2577   21.5513 C   0  0  2  0  0  0  0  0  0  0  0  0
    7.8640  -13.9512   20.3857 N   0  0  0  0  0  0  0  0  0  0  0  0
    7.7885  -14.0088   22.8120 C   0  0  0  0  0  0  0  0  0  0  0  0
    9.0422  -13.9386   22.8141 O   0  0  0  0  0  0  0  0  0  0  0  0
    6.4995  -11.7168   25.7396 C   0  0  0  0  0  0  0  0  0  0  0  0
    6.9305  -13.0359   26.2940 C   0  0  2  0  0  0  0  0  0  0  0  0
    7.5114  -12.9457   27.6789 C   0  0  0  0  0  0  0  0  0  0  0  0
    7.8869  -13.7369   25.3256 C   0  0  2  0  0  0  0  0  0  0  0  0
    7.1394  -13.8379   24.0661 N   0  0  0  0  0  0  0  0  0  0  0  0
    8.2410  -15.0669   25.8497 C   0  0  0  0  0  0  0  0  0  0  0  0
    7.3403  -15.9296   25.9962 O   0  0  0  0  0  0  0  0  0  0  0  0
   11.1243  -17.3222   25.9630 C   0  0  0  0  0  0  0  0  0  0  0  0
    9.9144  -16.7614   26.6783 C   0  0  2  0  0  0  0  0  0  0  0  0
    9.5672  -15.4355   26.2051 N   0  0  0  0  0  0  0  0  0  0  0  0
   10.1605  -16.7081   28.1417 C   0  0  0  0  0  0  0  0  0  0  0  0
   10.2350  -15.6290   28.7921 O   0  0  0  0  0  0  0  0  0  0  0  0
   10.3207  -17.8895   28.8584 O   0  0  0  0  0  0  0  0  0  0  0  0
  2  1  1  6
  2  4  1  0
  3  2  1  0
  4  5  1  6
  6 12  1  0
  6  4  1  0
  7  6  2  0
  9  8  1  6
  9 11  1  0
 10  9  1  0
 11 12  1  6
 11 13  1  0
 13 17  1  0
 14 13  2  0
 16 18  1  0
 16 15  1  6
 17 16  1  0
 18 20  1  0
 19 18  2  0
M  END
$$$$
