CRI.pdb
     RDKit          3D

 26 25  0  0  1  0  0  0  0  0999 V2000
   27.0489  -19.1282  -15.9136 N   0  0  0  0  0  0  0  0  0  0  0  0
   27.6408  -19.1550  -14.6021 C   0  0  1  0  0  0  0  0  0  0  0  0
   28.4202  -17.8429  -14.4395 C   0  0  0  0  0  0  0  0  0  0  0  0
   29.1977  -17.3574  -15.9870 S   0  0  0  0  0  0  0  0  0  0  0  0
   26.5867  -19.2133  -13.5661 C   0  0  0  0  0  0  0  0  0  0  0  0
   25.7064  -18.3354  -13.3929 O   0  0  0  0  0  0  0  0  0  0  0  0
   23.8547  -23.7418  -15.7858 N   0  0  0  0  0  0  0  0  0  0  0  0
   23.7260  -24.2621  -14.4768 C   0  0  0  0  0  0  0  0  0  0  0  0
   24.0580  -25.4848  -14.2502 N   0  0  0  0  0  0  0  0  0  0  0  0
   23.2284  -23.4100  -13.4392 N   0  0  0  0  0  0  0  0  0  0  0  0
   22.8941  -22.0576  -13.7837 C   0  0  0  0  0  0  0  0  0  0  0  0
   23.9503  -21.0544  -13.4038 C   0  0  0  0  0  0  0  0  0  0  0  0
   24.5389  -21.4321  -12.0861 C   0  0  0  0  0  0  0  0  0  0  0  0
   25.6158  -20.4697  -11.6267 C   0  0  2  0  0  0  0  0  0  0  0  0
   26.5605  -20.3372  -12.7024 N   0  0  0  0  0  0  0  0  0  0  0  0
   26.2222  -20.8570  -10.3546 C   0  0  0  0  0  0  0  0  0  0  0  0
   27.0373  -21.8175  -10.2419 O   0  0  0  0  0  0  0  0  0  0  0  0
   23.9520  -25.8594  -13.2875 C   0  0  0  0  0  0  0  0  0  0  0  0
   28.5598  -18.4231   -6.4125 C   0  0  0  0  0  0  0  0  0  0  0  0
   28.0325  -19.4858   -7.3449 C   0  0  2  0  0  0  0  0  0  0  0  0
   26.6275  -19.8422   -6.9211 C   0  0  0  0  0  0  0  0  0  0  0  0
   26.7182  -20.3974   -5.5011 C   0  0  2  0  0  0  0  0  0  0  0  0
   25.9572  -20.8186   -7.8486 N   0  0  0  0  0  0  0  0  0  0  0  0
   25.9111  -20.1497   -9.1605 C   0  0  0  0  0  0  0  0  0  0  0  0
   24.5912  -21.1592   -7.3958 O   0  0  0  0  0  0  0  0  0  0  0  0
   24.3716  -22.1718   -6.4833 O   0  0  0  0  0  0  0  0  0  0  0  0
  2  1  1  6
  3  2  1  0
  3  4  1  0
  5  2  1  0
  5  6  2  0
  7  8  1  0
  8  9  2  0
  8 10  1  0
 10 11  1  0
 12 11  1  0
 13 12  1  0
 14 13  1  6
 14 15  1  0
 15  5  1  0
 16 14  1  0
 17 16  2  0
 19 18  1  0
 20 19  1  0
 20 22  1  0
 20 21  1  6
 22 23  1  6
 22 24  1  0
 23 16  1  0
 24 25  1  0
 26 24  2  0
M  END
$$$$
