CRI.pdb
     RDKit          3D

 26 25  0  0  1  0  0  0  0  0999 V2000
   16.1586  -11.9803  -15.6995 N   0  0  0  0  0  0  0  0  0  0  0  0
   17.1066  -11.8491  -14.6248 C   0  0  1  0  0  0  0  0  0  0  0  0
   18.4198  -12.4770  -15.1115 C   0  0  0  0  0  0  0  0  0  0  0  0
   18.3776  -14.2680  -14.9518 S   0  0  0  0  0  0  0  0  0  0  0  0
   17.3453  -10.4206  -14.3245 C   0  0  0  0  0  0  0  0  0  0  0  0
   17.5884   -9.5408  -15.1862 O   0  0  0  0  0  0  0  0  0  0  0  0
   13.3597   -7.7528   -7.6079 N   0  0  0  0  0  0  0  0  0  0  0  0
   14.4263   -6.9295   -8.0382 C   0  0  0  0  0  0  0  0  0  0  0  0
   14.8285   -5.9720   -7.2779 N   0  0  0  0  0  0  0  0  0  0  0  0
   15.0289   -7.1866   -9.3114 N   0  0  0  0  0  0  0  0  0  0  0  0
   14.7379   -8.4377   -9.9515 C   0  0  0  0  0  0  0  0  0  0  0  0
   15.3380   -8.5718  -11.3256 C   0  0  0  0  0  0  0  0  0  0  0  0
   16.8220   -8.4525  -11.2302 C   0  0  0  0  0  0  0  0  0  0  0  0
   17.5133   -8.6430  -12.5655 C   0  0  2  0  0  0  0  0  0  0  0  0
   17.2980  -10.0059  -12.9697 N   0  0  0  0  0  0  0  0  0  0  0  0
   18.9211   -8.2516  -12.5400 C   0  0  0  0  0  0  0  0  0  0  0  0
   19.7653   -8.7598  -11.7470 O   0  0  0  0  0  0  0  0  0  0  0  0
   14.2958   -5.7677   -6.4103 C   0  0  0  0  0  0  0  0  0  0  0  0
   22.1047   -8.8883  -16.2307 C   0  0  0  0  0  0  0  0  0  0  0  0
   21.5211   -8.6358  -14.8624 C   0  0  2  0  0  0  0  0  0  0  0  0
   21.4474   -7.1440  -14.6397 C   0  0  0  0  0  0  0  0  0  0  0  0
   22.8761   -6.6104  -14.7225 C   0  0  2  0  0  0  0  0  0  0  0  0
   20.7983   -6.7698  -13.3353 N   0  0  0  0  0  0  0  0  0  0  0  0
   19.4109   -7.2563  -13.4303 C   0  0  0  0  0  0  0  0  0  0  0  0
   20.8172   -5.3082  -13.1102 O   0  0  0  0  0  0  0  0  0  0  0  0
   21.8503   -4.7038  -12.4221 O   0  0  0  0  0  0  0  0  0  0  0  0
  2  1  1  6
  3  2  1  0
  3  4  1  0
  5  2  1  0
  5  6  2  0
  7  8  1  0
  8  9  2  0
  8 10  1  0
 10 11  1  0
 12 11  1  0
 13 12  1  0
 14 13  1  1
 14 15  1  0
 15  5  1  0
 16 14  1  0
 17 16  2  0
 19 18  1  0
 20 19  1  0
 20 22  1  0
 20 21  1  6
 22 23  1  1
 22 24  1  0
 23 16  1  0
 24 25  1  0
 26 24  2  0
M  END
$$$$
