CRI.pdb
     RDKit          3D

 26 25  0  0  1  0  0  0  0  0999 V2000
   21.7321  -21.4532  -12.5235 N   0  0  0  0  0  0  0  0  0  0  0  0
   22.2224  -20.5743  -11.4949 C   0  0  1  0  0  0  0  0  0  0  0  0
   21.1546  -20.5409  -10.3929 C   0  0  0  0  0  0  0  0  0  0  0  0
   20.1153  -19.0809  -10.5446 S   0  0  0  0  0  0  0  0  0  0  0  0
   23.4788  -21.1061  -10.9235 C   0  0  0  0  0  0  0  0  0  0  0  0
   23.6357  -22.2826  -10.5149 O   0  0  0  0  0  0  0  0  0  0  0  0
   28.6018  -19.7397  -14.5576 N   0  0  0  0  0  0  0  0  0  0  0  0
   28.9090  -21.0988  -14.3148 C   0  0  0  0  0  0  0  0  0  0  0  0
   28.8322  -21.9440  -15.2825 N   0  0  0  0  0  0  0  0  0  0  0  0
   29.2976  -21.4954  -12.9950 N   0  0  0  0  0  0  0  0  0  0  0  0
   29.2705  -20.5015  -11.9600 C   0  0  0  0  0  0  0  0  0  0  0  0
   28.2783  -20.7904  -10.8653 C   0  0  0  0  0  0  0  0  0  0  0  0
   26.9188  -20.3615  -11.3052 C   0  0  0  0  0  0  0  0  0  0  0  0
   25.8513  -20.6366  -10.2652 C   0  0  2  0  0  0  0  0  0  0  0  0
   24.5908  -20.2322  -10.8264 N   0  0  0  0  0  0  0  0  0  0  0  0
   26.1439  -20.0233   -8.9713 C   0  0  0  0  0  0  0  0  0  0  0  0
   25.7349  -18.8721   -8.6441 O   0  0  0  0  0  0  0  0  0  0  0  0
   29.0578  -22.9397  -15.0932 C   0  0  0  0  0  0  0  0  0  0  0  0
   29.4995  -21.6230   -4.0377 C   0  0  0  0  0  0  0  0  0  0  0  0
   28.4523  -20.6788   -4.5747 C   0  0  2  0  0  0  0  0  0  0  0  0
   28.1075  -21.0959   -5.9846 C   0  0  0  0  0  0  0  0  0  0  0  0
   29.4282  -21.3175   -6.7189 C   0  0  2  0  0  0  0  0  0  0  0  0
   27.2421  -20.0976   -6.7042 N   0  0  0  0  0  0  0  0  0  0  0  0
   26.9214  -20.7159   -8.0024 C   0  0  0  0  0  0  0  0  0  0  0  0
   27.9392  -18.8090   -6.9056 O   0  0  0  0  0  0  0  0  0  0  0  0
   28.5327  -18.4978   -8.1128 O   0  0  0  0  0  0  0  0  0  0  0  0
  2  1  1  6
  3  2  1  0
  3  4  1  0
  5  2  1  0
  5  6  2  0
  7  8  1  0
  8  9  2  0
  8 10  1  0
 10 11  1  0
 12 11  1  0
 13 12  1  0
 14 13  1  6
 14 15  1  0
 15  5  1  0
 16 14  1  0
 17 16  2  0
 19 18  1  0
 20 19  1  0
 20 22  1  0
 20 21  1  6
 22 23  1  6
 22 24  1  0
 23 16  1  0
 24 25  1  0
 26 24  2  0
M  END
$$$$
