CRI.pdb
     RDKit          3D

 26 25  0  0  1  0  0  0  0  0999 V2000
   19.8143   -8.4859  -13.7944 N   0  0  0  0  0  0  0  0  0  0  0  0
   19.5417   -8.6370  -12.3894 C   0  0  1  0  0  0  0  0  0  0  0  0
   20.5669   -7.7728  -11.6425 C   0  0  0  0  0  0  0  0  0  0  0  0
   22.2167   -8.4791  -11.7625 S   0  0  0  0  0  0  0  0  0  0  0  0
   18.1838   -8.1417  -12.0755 C   0  0  0  0  0  0  0  0  0  0  0  0
   17.6825   -7.0890  -12.5404 O   0  0  0  0  0  0  0  0  0  0  0  0
   14.0901  -13.5034  -11.0553 N   0  0  0  0  0  0  0  0  0  0  0  0
   12.9351  -13.1016  -10.3445 C   0  0  0  0  0  0  0  0  0  0  0  0
   12.2225  -13.9915   -9.7472 N   0  0  0  0  0  0  0  0  0  0  0  0
   12.5919  -11.7119  -10.3106 N   0  0  0  0  0  0  0  0  0  0  0  0
   12.9999  -10.8924  -11.4158 C   0  0  0  0  0  0  0  0  0  0  0  0
   13.7325   -9.6422  -11.0080 C   0  0  0  0  0  0  0  0  0  0  0  0
   15.1992   -9.8485  -11.1871 C   0  0  0  0  0  0  0  0  0  0  0  0
   16.0055   -8.5931  -10.9207 C   0  0  2  0  0  0  0  0  0  0  0  0
   17.3838   -8.9036  -11.1870 N   0  0  0  0  0  0  0  0  0  0  0  0
   15.7734   -8.0380   -9.5889 C   0  0  0  0  0  0  0  0  0  0  0  0
   16.3484   -8.4724   -8.5495 O   0  0  0  0  0  0  0  0  0  0  0  0
   11.3082  -13.7091   -9.3440 C   0  0  0  0  0  0  0  0  0  0  0  0
   15.4739   -2.8216   -7.0190 C   0  0  0  0  0  0  0  0  0  0  0  0
   14.9173   -4.2130   -6.8434 C   0  0  2  0  0  0  0  0  0  0  0  0
   15.1843   -4.9996   -8.1047 C   0  0  0  0  0  0  0  0  0  0  0  0
   14.5968   -4.1960   -9.2631 C   0  0  2  0  0  0  0  0  0  0  0  0
   14.6214   -6.3941   -8.0650 N   0  0  0  0  0  0  0  0  0  0  0  0
   14.8670   -6.9576   -9.4039 C   0  0  0  0  0  0  0  0  0  0  0  0
   13.1736   -6.3949   -7.7635 O   0  0  0  0  0  0  0  0  0  0  0  0
   12.2373   -6.6248   -8.7518 O   0  0  0  0  0  0  0  0  0  0  0  0
  2  1  1  6
  3  2  1  0
  3  4  1  0
  5  2  1  0
  5  6  2  0
  7  8  1  0
  8  9  2  0
  8 10  1  0
 10 11  1  0
 12 11  1  0
 13 12  1  0
 14 13  1  1
 14 15  1  0
 15  5  1  0
 16 14  1  0
 17 16  2  0
 19 18  1  0
 20 19  1  0
 20 22  1  0
 20 21  1  6
 22 23  1  1
 22 24  1  0
 23 16  1  0
 24 25  1  0
 26 24  2  0
M  END
$$$$
