CRI.pdb
     RDKit          3D

 26 25  0  0  1  0  0  0  0  0999 V2000
   27.6541  -21.4460  -16.6403 N   0  0  0  0  0  0  0  0  0  0  0  0
   27.9932  -21.6792  -15.2613 C   0  0  1  0  0  0  0  0  0  0  0  0
   29.4798  -21.3309  -15.1043 C   0  0  0  0  0  0  0  0  0  0  0  0
   30.0286  -21.5901  -13.4113 S   0  0  0  0  0  0  0  0  0  0  0  0
   27.2015  -20.7912  -14.3824 C   0  0  0  0  0  0  0  0  0  0  0  0
   26.7497  -19.6699  -14.7206 O   0  0  0  0  0  0  0  0  0  0  0  0
   21.4383  -21.5025  -15.6699 N   0  0  0  0  0  0  0  0  0  0  0  0
   21.6791  -20.1174  -15.5147 C   0  0  0  0  0  0  0  0  0  0  0  0
   21.6435  -19.3526  -16.5493 N   0  0  0  0  0  0  0  0  0  0  0  0
   21.9564  -19.6055  -14.2065 N   0  0  0  0  0  0  0  0  0  0  0  0
   22.1544  -20.5498  -13.1441 C   0  0  0  0  0  0  0  0  0  0  0  0
   23.3927  -20.2950  -12.3269 C   0  0  0  0  0  0  0  0  0  0  0  0
   24.5810  -20.8350  -13.0495 C   0  0  0  0  0  0  0  0  0  0  0  0
   25.8674  -20.6777  -12.2636 C   0  0  2  0  0  0  0  0  0  0  0  0
   26.9284  -21.2290  -13.0620 N   0  0  0  0  0  0  0  0  0  0  0  0
   25.7871  -21.2441  -10.9187 C   0  0  0  0  0  0  0  0  0  0  0  0
   25.6819  -22.4848  -10.6967 O   0  0  0  0  0  0  0  0  0  0  0  0
   21.9109  -18.3551  -16.4407 C   0  0  0  0  0  0  0  0  0  0  0  0
   28.6137  -18.9302   -6.9966 C   0  0  0  0  0  0  0  0  0  0  0  0
   27.9617  -19.9911   -7.8487 C   0  0  2  0  0  0  0  0  0  0  0  0
   26.4861  -20.0238   -7.5291 C   0  0  0  0  0  0  0  0  0  0  0  0
   26.3577  -20.4187   -6.0593 C   0  0  2  0  0  0  0  0  0  0  0  0
   25.7070  -20.9560   -8.4162 N   0  0  0  0  0  0  0  0  0  0  0  0
   25.8251  -20.3992   -9.7751 C   0  0  0  0  0  0  0  0  0  0  0  0
   24.2860  -21.0384   -8.0151 O   0  0  0  0  0  0  0  0  0  0  0  0
   23.8631  -21.9432   -7.0618 O   0  0  0  0  0  0  0  0  0  0  0  0
  2  1  1  6
  3  2  1  0
  3  4  1  0
  5  2  1  0
  5  6  2  0
  7  8  1  0
  8  9  2  0
  8 10  1  0
 10 11  1  0
 12 11  1  0
 13 12  1  0
 14 13  1  6
 14 15  1  0
 15  5  1  0
 16 14  1  0
 17 16  2  0
 19 18  1  0
 20 19  1  0
 20 22  1  0
 20 21  1  6
 22 23  1  6
 22 24  1  0
 23 16  1  0
 24 25  1  0
 26 24  2  0
M  END
$$$$
