NKG.pdb
     RDKit          3D

 22 21  0  0  1  0  0  0  0  0999 V2000
    6.9223  -13.7252   16.4370 N   0  0  0  0  0  0  0  0  0  0  0  0
    8.0287  -14.3007   17.1105 C   0  0  0  0  0  0  0  0  0  0  0  0
    8.6338  -15.2248   16.5081 O   0  0  0  0  0  0  0  0  0  0  0  0
    8.4701  -13.8540   18.4562 C   0  0  0  0  0  0  0  0  0  0  0  0
    8.4644  -15.0283   19.3772 C   0  0  2  0  0  0  0  0  0  0  0  0
    7.1257  -15.5730   19.4047 N   0  0  0  0  0  0  0  0  0  0  0  0
    8.8594  -14.6633   20.7687 C   0  0  0  0  0  0  0  0  0  0  0  0
   10.0199  -14.2408   20.9503 O   0  0  0  0  0  0  0  0  0  0  0  0
    7.9802  -14.7788   21.8603 N   0  0  0  0  0  0  0  0  0  0  0  0
    8.2969  -14.4106   23.2183 C   0  0  1  0  0  0  0  0  0  0  0  0
    7.0971  -13.8352   23.8925 C   0  0  0  0  0  0  0  0  0  0  0  0
    7.3723  -13.3026   25.2787 C   0  0  0  0  0  0  0  0  0  0  0  0
    6.1265  -12.6303   25.8504 C   0  0  0  0  0  0  0  0  0  0  0  0
    6.3639  -12.0432   27.2027 C   0  0  0  0  0  0  0  0  0  0  0  0
    5.1056  -11.4008   27.6047 N   0  0  0  0  0  0  0  0  0  0  0  0
    8.9251  -15.5632   23.8939 C   0  0  0  0  0  0  0  0  0  0  0  0
    8.2607  -16.4514   24.5138 O   0  0  0  0  0  0  0  0  0  0  0  0
   10.3440  -15.7981   23.9217 N   0  0  0  0  0  0  0  0  0  0  0  0
   10.9166  -16.9703   24.5205 C   0  0  0  0  0  0  0  0  0  0  0  0
   12.3737  -16.9902   24.5153 C   0  0  0  0  0  0  0  0  0  0  0  0
   13.0119  -16.7066   23.4798 O   0  0  0  0  0  0  0  0  0  0  0  0
   13.0733  -17.3232   25.6560 O   0  0  0  0  0  0  0  0  0  0  0  0
  2  1  1  0
  3  2  2  0
  4  5  1  0
  4  2  1  0
  5  6  1  1
  7  9  1  0
  7  5  1  0
  8  7  2  0
 10  9  1  0
 10 11  1  1
 11 12  1  0
 12 13  1  0
 13 14  1  0
 14 15  1  0
 16 10  1  0
 17 16  2  0
 18 16  1  0
 19 18  1  0
 20 22  1  0
 20 19  1  0
 21 20  2  0
M  END
$$$$
