NKG.pdb
     RDKit          3D

 22 21  0  0  1  0  0  0  0  0999 V2000
    7.7153  -12.7422   16.7356 N   0  0  0  0  0  0  0  0  0  0  0  0
    7.8642  -13.7503   17.7207 C   0  0  0  0  0  0  0  0  0  0  0  0
    7.6423  -14.9326   17.3520 O   0  0  0  0  0  0  0  0  0  0  0  0
    8.2602  -13.4523   19.1206 C   0  0  0  0  0  0  0  0  0  0  0  0
    8.4369  -14.7401   19.8536 C   0  0  2  0  0  0  0  0  0  0  0  0
    7.1346  -15.3438   20.0246 N   0  0  0  0  0  0  0  0  0  0  0  0
    9.0549  -14.5506   21.1982 C   0  0  0  0  0  0  0  0  0  0  0  0
   10.2275  -14.1248   21.2428 O   0  0  0  0  0  0  0  0  0  0  0  0
    8.3689  -14.8319   22.3933 N   0  0  0  0  0  0  0  0  0  0  0  0
    8.9585  -14.8078   23.7092 C   0  0  1  0  0  0  0  0  0  0  0  0
    7.9110  -14.5611   24.7421 C   0  0  0  0  0  0  0  0  0  0  0  0
    7.6072  -13.0987   24.9664 C   0  0  0  0  0  0  0  0  0  0  0  0
    6.5674  -12.9320   26.0719 C   0  0  0  0  0  0  0  0  0  0  0  0
    6.2205  -11.5007   26.3185 C   0  0  0  0  0  0  0  0  0  0  0  0
    5.2017  -11.4955   27.3766 N   0  0  0  0  0  0  0  0  0  0  0  0
    9.7707  -16.0269   23.8934 C   0  0  0  0  0  0  0  0  0  0  0  0
    9.2741  -17.1487   24.2243 O   0  0  0  0  0  0  0  0  0  0  0  0
   11.1980  -16.0707   23.7203 N   0  0  0  0  0  0  0  0  0  0  0  0
   12.0910  -16.4137   24.7905 C   0  0  0  0  0  0  0  0  0  0  0  0
   13.4894  -16.5088   24.3917 C   0  0  0  0  0  0  0  0  0  0  0  0
   13.8310  -16.3004   23.2086 O   0  0  0  0  0  0  0  0  0  0  0  0
   14.4605  -16.8312   25.3162 O   0  0  0  0  0  0  0  0  0  0  0  0
  2  1  1  0
  3  2  2  0
  4  5  1  0
  4  2  1  0
  5  6  1  1
  7  9  1  0
  7  5  1  0
  8  7  2  0
 10  9  1  0
 10 11  1  1
 11 12  1  0
 12 13  1  0
 13 14  1  0
 14 15  1  0
 16 10  1  0
 17 16  2  0
 18 16  1  0
 19 18  1  0
 20 22  1  0
 20 19  1  0
 21 20  2  0
M  END
$$$$
