NKG.pdb
     RDKit          3D

 22 21  0  0  1  0  0  0  0  0999 V2000
    8.0177  -11.9445   19.1810 N   0  0  0  0  0  0  0  0  0  0  0  0
    7.7249  -13.3312   19.1633 C   0  0  0  0  0  0  0  0  0  0  0  0
    7.9668  -13.9423   18.0905 O   0  0  0  0  0  0  0  0  0  0  0  0
    7.1620  -14.0476   20.3359 C   0  0  0  0  0  0  0  0  0  0  0  0
    8.1667  -15.0394   20.8198 C   0  0  2  0  0  0  0  0  0  0  0  0
    8.3960  -16.0001   19.7643 N   0  0  0  0  0  0  0  0  0  0  0  0
    7.7070  -15.7690   22.0371 C   0  0  0  0  0  0  0  0  0  0  0  0
    7.4443  -15.0935   23.0536 O   0  0  0  0  0  0  0  0  0  0  0  0
    7.5638  -17.1676   22.0727 N   0  0  0  0  0  0  0  0  0  0  0  0
    7.2641  -17.9372   23.2550 C   0  0  1  0  0  0  0  0  0  0  0  0
    6.3093  -19.0361   22.9298 C   0  0  0  0  0  0  0  0  0  0  0  0
    6.1959  -20.0860   24.0096 C   0  0  0  0  0  0  0  0  0  0  0  0
    5.2060  -21.1727   23.5972 C   0  0  0  0  0  0  0  0  0  0  0  0
    5.0429  -22.2242   24.6448 C   0  0  0  0  0  0  0  0  0  0  0  0
    4.1175  -23.2223   24.0925 N   0  0  0  0  0  0  0  0  0  0  0  0
    8.5302  -18.3508   23.8920 C   0  0  0  0  0  0  0  0  0  0  0  0
    9.6101  -18.5208   23.2444 O   0  0  0  0  0  0  0  0  0  0  0  0
    8.6713  -18.6040   25.3009 N   0  0  0  0  0  0  0  0  0  0  0  0
    9.9165  -19.0129   25.8865 C   0  0  0  0  0  0  0  0  0  0  0  0
    9.8425  -19.2791   27.3173 C   0  0  0  0  0  0  0  0  0  0  0  0
   10.8359  -19.7128   27.9378 O   0  0  0  0  0  0  0  0  0  0  0  0
    8.6718  -19.0560   28.0111 O   0  0  0  0  0  0  0  0  0  0  0  0
  2  1  1  0
  3  2  2  0
  4  5  1  0
  4  2  1  0
  5  6  1  6
  7  9  1  0
  7  5  1  0
  8  7  2  0
 10  9  1  0
 10 11  1  6
 11 12  1  0
 12 13  1  0
 13 14  1  0
 14 15  1  0
 16 10  1  0
 17 16  2  0
 18 16  1  0
 19 18  1  0
 20 22  1  0
 20 19  1  0
 21 20  2  0
M  END
$$$$
