NKG.pdb
     RDKit          3D

 22 21  0  0  1  0  0  0  0  0999 V2000
    6.8917  -13.7398   16.3046 N   0  0  0  0  0  0  0  0  0  0  0  0
    8.2665  -14.0553   16.4436 C   0  0  0  0  0  0  0  0  0  0  0  0
    8.9443  -14.0902   15.3842 O   0  0  0  0  0  0  0  0  0  0  0  0
    8.8970  -14.3338   17.7590 C   0  0  0  0  0  0  0  0  0  0  0  0
    7.8348  -14.3458   18.8072 C   0  0  2  0  0  0  0  0  0  0  0  0
    7.3342  -12.9979   18.9569 N   0  0  0  0  0  0  0  0  0  0  0  0
    8.3434  -14.8151   20.1288 C   0  0  0  0  0  0  0  0  0  0  0  0
    8.7735  -13.9539   20.9238 O   0  0  0  0  0  0  0  0  0  0  0  0
    8.3525  -16.1720   20.4982 N   0  0  0  0  0  0  0  0  0  0  0  0
    8.8976  -16.6891   21.7293 C   0  0  1  0  0  0  0  0  0  0  0  0
    8.4131  -18.0797   21.9669 C   0  0  0  0  0  0  0  0  0  0  0  0
    7.0104  -18.1510   22.5221 C   0  0  0  0  0  0  0  0  0  0  0  0
    6.5042  -19.5914   22.5131 C   0  0  0  0  0  0  0  0  0  0  0  0
    5.1727  -19.7331   23.1740 C   0  0  0  0  0  0  0  0  0  0  0  0
    4.8663  -21.1695   23.1897 N   0  0  0  0  0  0  0  0  0  0  0  0
   10.3631  -16.5104   21.7174 C   0  0  0  0  0  0  0  0  0  0  0  0
   11.0456  -16.4415   20.6478 O   0  0  0  0  0  0  0  0  0  0  0  0
   11.1648  -16.3981   22.9064 N   0  0  0  0  0  0  0  0  0  0  0  0
   12.5313  -15.9597   22.8725 C   0  0  0  0  0  0  0  0  0  0  0  0
   13.2023  -16.0018   24.1653 C   0  0  0  0  0  0  0  0  0  0  0  0
   14.4027  -15.6737   24.2721 O   0  0  0  0  0  0  0  0  0  0  0  0
   12.5214  -16.4056   25.2945 O   0  0  0  0  0  0  0  0  0  0  0  0
  2  1  1  0
  3  2  2  0
  4  5  1  0
  4  2  1  0
  5  6  1  1
  7  9  1  0
  7  5  1  0
  8  7  2  0
 10  9  1  0
 10 11  1  6
 11 12  1  0
 12 13  1  0
 13 14  1  0
 14 15  1  0
 16 10  1  0
 17 16  2  0
 18 16  1  0
 19 18  1  0
 20 22  1  0
 20 19  1  0
 21 20  2  0
M  END
$$$$
