NKG.pdb
     RDKit          3D

 22 21  0  0  1  0  0  0  0  0999 V2000
   15.3249  -14.7902   16.5383 N   0  0  0  0  0  0  0  0  0  0  0  0
   15.3065  -15.4425   17.7965 C   0  0  0  0  0  0  0  0  0  0  0  0
   15.9478  -16.5218   17.8787 O   0  0  0  0  0  0  0  0  0  0  0  0
   14.5763  -14.9010   18.9707 C   0  0  0  0  0  0  0  0  0  0  0  0
   13.8121  -16.0099   19.6136 C   0  0  2  0  0  0  0  0  0  0  0  0
   13.0246  -16.6651   18.5936 N   0  0  0  0  0  0  0  0  0  0  0  0
   12.8950  -15.5239   20.6852 C   0  0  0  0  0  0  0  0  0  0  0  0
   13.3965  -14.8807   21.6302 O   0  0  0  0  0  0  0  0  0  0  0  0
   11.5095  -15.7642   20.6626 N   0  0  0  0  0  0  0  0  0  0  0  0
   10.5628  -15.2281   21.6094 C   0  0  1  0  0  0  0  0  0  0  0  0
    9.2573  -14.9578   20.9404 C   0  0  0  0  0  0  0  0  0  0  0  0
    9.3362  -13.9233   19.8428 C   0  0  0  0  0  0  0  0  0  0  0  0
    8.0086  -13.8356   19.0941 C   0  0  0  0  0  0  0  0  0  0  0  0
    8.0479  -12.8471   17.9755 C   0  0  0  0  0  0  0  0  0  0  0  0
    6.7070  -12.8430   17.3760 N   0  0  0  0  0  0  0  0  0  0  0  0
   10.5111  -16.1134   22.7897 C   0  0  0  0  0  0  0  0  0  0  0  0
   10.5238  -17.3814   22.7077 O   0  0  0  0  0  0  0  0  0  0  0  0
   10.4398  -15.6364   24.1449 N   0  0  0  0  0  0  0  0  0  0  0  0
   10.1965  -16.5126   25.2555 C   0  0  0  0  0  0  0  0  0  0  0  0
   11.4023  -17.0990   25.8263 C   0  0  0  0  0  0  0  0  0  0  0  0
   12.5011  -16.9939   25.2419 O   0  0  0  0  0  0  0  0  0  0  0  0
   11.3497  -17.7810   27.0237 O   0  0  0  0  0  0  0  0  0  0  0  0
  2  1  1  0
  3  2  2  0
  4  5  1  0
  4  2  1  0
  5  6  1  6
  7  9  1  0
  7  5  1  0
  8  7  2  0
 10  9  1  0
 10 11  1  6
 11 12  1  0
 12 13  1  0
 13 14  1  0
 14 15  1  0
 16 10  1  0
 17 16  2  0
 18 16  1  0
 19 18  1  0
 20 22  1  0
 20 19  1  0
 21 20  2  0
M  END
$$$$
