NKG.pdb
     RDKit          3D

 22 21  0  0  1  0  0  0  0  0999 V2000
   11.1245  -19.9849   17.5341 N   0  0  0  0  0  0  0  0  0  0  0  0
   10.3148  -20.9518   18.1809 C   0  0  0  0  0  0  0  0  0  0  0  0
   10.0402  -21.9867   17.5201 O   0  0  0  0  0  0  0  0  0  0  0  0
    9.8051  -20.7759   19.5646 C   0  0  0  0  0  0  0  0  0  0  0  0
    8.3215  -20.9372   19.5534 C   0  0  2  0  0  0  0  0  0  0  0  0
    7.7598  -19.8838   18.7382 N   0  0  0  0  0  0  0  0  0  0  0  0
    7.7284  -20.8507   20.9195 C   0  0  0  0  0  0  0  0  0  0  0  0
    7.8130  -19.7598   21.5205 O   0  0  0  0  0  0  0  0  0  0  0  0
    7.0895  -21.9402   21.5380 N   0  0  0  0  0  0  0  0  0  0  0  0
    6.5558  -21.9326   22.8779 C   0  0  1  0  0  0  0  0  0  0  0  0
    5.2630  -22.6753   22.9249 C   0  0  0  0  0  0  0  0  0  0  0  0
    4.6537  -22.7537   24.3047 C   0  0  0  0  0  0  0  0  0  0  0  0
    3.3708  -23.5809   24.2766 C   0  0  0  0  0  0  0  0  0  0  0  0
    2.6905  -23.6250   25.6051 C   0  0  0  0  0  0  0  0  0  0  0  0
    1.4641  -24.4117   25.4191 N   0  0  0  0  0  0  0  0  0  0  0  0
    7.6000  -22.3964   23.8129 C   0  0  0  0  0  0  0  0  0  0  0  0
    8.2976  -23.4394   23.6127 O   0  0  0  0  0  0  0  0  0  0  0  0
    7.9325  -21.7219   25.0390 N   0  0  0  0  0  0  0  0  0  0  0  0
    8.9646  -22.1926   25.9187 C   0  0  0  0  0  0  0  0  0  0  0  0
    9.1565  -21.3691   27.1056 C   0  0  0  0  0  0  0  0  0  0  0  0
    8.4660  -20.3448   27.2898 O   0  0  0  0  0  0  0  0  0  0  0  0
   10.1056  -21.7081   28.0467 O   0  0  0  0  0  0  0  0  0  0  0  0
  2  1  1  0
  3  2  2  0
  4  5  1  0
  4  2  1  0
  5  6  1  6
  7  9  1  0
  7  5  1  0
  8  7  2  0
 10  9  1  0
 10 11  1  6
 11 12  1  0
 12 13  1  0
 13 14  1  0
 14 15  1  0
 16 10  1  0
 17 16  2  0
 18 16  1  0
 19 18  1  0
 20 22  1  0
 20 19  1  0
 21 20  2  0
M  END
$$$$
