NKG.pdb
     RDKit          3D

 22 21  0  0  1  0  0  0  0  0999 V2000
   15.7958  -17.9984   14.9137 N   0  0  0  0  0  0  0  0  0  0  0  0
   14.7540  -18.0065   15.8747 C   0  0  0  0  0  0  0  0  0  0  0  0
   13.8548  -18.8729   15.7205 O   0  0  0  0  0  0  0  0  0  0  0  0
   14.7040  -17.0531   17.0122 C   0  0  0  0  0  0  0  0  0  0  0  0
   13.3690  -16.3862   17.0207 C   0  0  2  0  0  0  0  0  0  0  0  0
   13.2894  -15.5221   15.8645 N   0  0  0  0  0  0  0  0  0  0  0  0
   13.1502  -15.5641   18.2463 C   0  0  0  0  0  0  0  0  0  0  0  0
   14.0198  -14.7179   18.5399 O   0  0  0  0  0  0  0  0  0  0  0  0
   12.0158  -15.7115   19.0644 N   0  0  0  0  0  0  0  0  0  0  0  0
   11.7660  -14.9639   20.2722 C   0  0  1  0  0  0  0  0  0  0  0  0
   10.3231  -14.5974   20.3657 C   0  0  0  0  0  0  0  0  0  0  0  0
    9.8608  -13.6551   19.2797 C   0  0  0  0  0  0  0  0  0  0  0  0
    8.3616  -13.3935   19.4011 C   0  0  0  0  0  0  0  0  0  0  0  0
    7.8358  -12.5545   18.2833 C   0  0  0  0  0  0  0  0  0  0  0  0
    6.4056  -12.3533   18.5507 N   0  0  0  0  0  0  0  0  0  0  0  0
   12.3173  -15.7099   21.4208 C   0  0  0  0  0  0  0  0  0  0  0  0
   11.6689  -16.6107   22.0394 O   0  0  0  0  0  0  0  0  0  0  0  0
   13.6350  -15.4951   21.9559 N   0  0  0  0  0  0  0  0  0  0  0  0
   14.1305  -16.2209   23.0909 C   0  0  0  0  0  0  0  0  0  0  0  0
   15.4878  -15.8617   23.4811 C   0  0  0  0  0  0  0  0  0  0  0  0
   16.1636  -15.0733   22.7870 O   0  0  0  0  0  0  0  0  0  0  0  0
   16.0495  -16.3874   24.6255 O   0  0  0  0  0  0  0  0  0  0  0  0
  2  1  1  0
  3  2  2  0
  4  5  1  0
  4  2  1  0
  5  6  1  6
  7  9  1  0
  7  5  1  0
  8  7  2  0
 10  9  1  0
 10 11  1  1
 11 12  1  0
 12 13  1  0
 13 14  1  0
 14 15  1  0
 16 10  1  0
 17 16  2  0
 18 16  1  0
 19 18  1  0
 20 22  1  0
 20 19  1  0
 21 20  2  0
M  END
$$$$
