NKG.pdb
     RDKit          3D

 22 21  0  0  1  0  0  0  0  0999 V2000
   11.1724  -21.3494   20.0163 N   0  0  0  0  0  0  0  0  0  0  0  0
   10.4060  -20.1581   20.0632 C   0  0  0  0  0  0  0  0  0  0  0  0
    9.3882  -20.1159   19.3248 O   0  0  0  0  0  0  0  0  0  0  0  0
   10.7646  -19.0067   20.9298 C   0  0  0  0  0  0  0  0  0  0  0  0
   10.7570  -17.7639   20.1037 C   0  0  2  0  0  0  0  0  0  0  0  0
   11.9607  -17.7474   19.3034 N   0  0  0  0  0  0  0  0  0  0  0  0
   10.7208  -16.5263   20.9360 C   0  0  0  0  0  0  0  0  0  0  0  0
   11.7992  -15.9301   21.1361 O   0  0  0  0  0  0  0  0  0  0  0  0
    9.5312  -16.0215   21.4909 N   0  0  0  0  0  0  0  0  0  0  0  0
    9.4138  -14.7651   22.1893 C   0  0  1  0  0  0  0  0  0  0  0  0
    8.2843  -13.9660   21.6319 C   0  0  0  0  0  0  0  0  0  0  0  0
    8.5611  -13.3893   20.2637 C   0  0  0  0  0  0  0  0  0  0  0  0
    7.2805  -13.3435   19.4337 C   0  0  0  0  0  0  0  0  0  0  0  0
    7.5222  -12.8766   18.0360 C   0  0  0  0  0  0  0  0  0  0  0  0
    6.2235  -12.9223   17.3512 N   0  0  0  0  0  0  0  0  0  0  0  0
    9.3636  -15.0263   23.6415 C   0  0  0  0  0  0  0  0  0  0  0  0
    8.9006  -14.1926   24.4813 O   0  0  0  0  0  0  0  0  0  0  0  0
    9.8316  -16.2416   24.2522 N   0  0  0  0  0  0  0  0  0  0  0  0
    9.7554  -16.4684   25.6676 C   0  0  0  0  0  0  0  0  0  0  0  0
   10.4423  -17.6731   26.1153 C   0  0  0  0  0  0  0  0  0  0  0  0
   10.9654  -18.4527   25.2916 O   0  0  0  0  0  0  0  0  0  0  0  0
   10.5262  -17.9727   27.4588 O   0  0  0  0  0  0  0  0  0  0  0  0
  2  1  1  0
  3  2  2  0
  4  5  1  0
  4  2  1  0
  5  6  1  1
  7  9  1  0
  7  5  1  0
  8  7  2  0
 10  9  1  0
 10 11  1  6
 11 12  1  0
 12 13  1  0
 13 14  1  0
 14 15  1  0
 16 10  1  0
 17 16  2  0
 18 16  1  0
 19 18  1  0
 20 22  1  0
 20 19  1  0
 21 20  2  0
M  END
$$$$
