NKG.pdb
     RDKit          3D

 22 21  0  0  1  0  0  0  0  0999 V2000
    8.2263  -12.9262   16.2736 N   0  0  0  0  0  0  0  0  0  0  0  0
    7.9161  -13.8238   17.3257 C   0  0  0  0  0  0  0  0  0  0  0  0
    7.4216  -14.9313   16.9912 O   0  0  0  0  0  0  0  0  0  0  0  0
    8.1527  -13.4975   18.7550 C   0  0  0  0  0  0  0  0  0  0  0  0
    8.6363  -14.7245   19.4534 C   0  0  2  0  0  0  0  0  0  0  0  0
    7.6035  -15.7318   19.3617 N   0  0  0  0  0  0  0  0  0  0  0  0
    8.9369  -14.4795   20.8939 C   0  0  0  0  0  0  0  0  0  0  0  0
    9.9315  -13.7763   21.1674 O   0  0  0  0  0  0  0  0  0  0  0  0
    8.1485  -15.0068   21.9323 N   0  0  0  0  0  0  0  0  0  0  0  0
    8.3681  -14.7697   23.3379 C   0  0  1  0  0  0  0  0  0  0  0  0
    7.1963  -14.0650   23.9339 C   0  0  0  0  0  0  0  0  0  0  0  0
    7.4812  -13.4342   25.2762 C   0  0  0  0  0  0  0  0  0  0  0  0
    6.2375  -12.7276   25.8099 C   0  0  0  0  0  0  0  0  0  0  0  0
    6.5030  -11.9829   27.0766 C   0  0  0  0  0  0  0  0  0  0  0  0
    5.2298  -11.3659   27.4717 N   0  0  0  0  0  0  0  0  0  0  0  0
    8.7534  -16.0400   23.9841 C   0  0  0  0  0  0  0  0  0  0  0  0
    8.3532  -17.1753   23.5773 O   0  0  0  0  0  0  0  0  0  0  0  0
    9.6139  -16.1238   25.1337 N   0  0  0  0  0  0  0  0  0  0  0  0
   11.0392  -15.9831   25.0377 C   0  0  0  0  0  0  0  0  0  0  0  0
   11.7388  -17.2193   24.7123 C   0  0  0  0  0  0  0  0  0  0  0  0
   11.8068  -18.1511   25.5413 O   0  0  0  0  0  0  0  0  0  0  0  0
   12.3386  -17.3810   23.4811 O   0  0  0  0  0  0  0  0  0  0  0  0
  2  1  1  0
  3  2  2  0
  4  5  1  0
  4  2  1  0
  5  6  1  1
  7  9  1  0
  7  5  1  0
  8  7  2  0
 10  9  1  0
 10 11  1  1
 11 12  1  0
 12 13  1  0
 13 14  1  0
 14 15  1  0
 16 10  1  0
 17 16  2  0
 18 16  1  0
 19 18  1  0
 20 22  1  0
 20 19  1  0
 21 20  2  0
M  END
$$$$
