PQT.pdb
     RDKit          3D

 24 24  0  0  1  0  0  0  0  0999 V2000
    8.1458  -15.1264   19.4240 N   0  0  0  0  0  0  0  0  0  0  0  0
    7.8042  -14.5771   18.1308 C   0  0  0  0  0  0  0  0  0  0  0  0
    7.3677  -13.1504   18.4160 C   0  0  0  0  0  0  0  0  0  0  0  0
    7.8528  -12.8240   19.7929 C   0  0  0  0  0  0  0  0  0  0  0  0
    8.5735  -14.0469   20.2582 C   0  0  1  0  0  0  0  0  0  0  0  0
    8.2771  -14.3147   21.6931 C   0  0  0  0  0  0  0  0  0  0  0  0
    8.5544  -13.4948   22.6042 O   0  0  0  0  0  0  0  0  0  0  0  0
    5.2619  -19.5868   23.5955 N   0  0  0  0  0  0  0  0  0  0  0  0
    6.6796  -19.5685   23.5557 C   0  0  0  0  0  0  0  0  0  0  0  0
    7.3671  -20.6138   23.5784 O   0  0  0  0  0  0  0  0  0  0  0  0
    7.3900  -18.2769   23.4845 C   0  0  0  0  0  0  0  0  0  0  0  0
    6.4343  -17.1024   23.5400 C   0  0  0  0  0  0  0  0  0  0  0  0
    7.1973  -15.8061   23.4248 C   0  0  2  0  0  0  0  0  0  0  0  0
    7.6564  -15.5319   22.1010 N   0  0  0  0  0  0  0  0  0  0  0  0
    8.3218  -15.7974   24.4120 C   0  0  0  0  0  0  0  0  0  0  0  0
    9.4807  -16.1482   24.0941 O   0  0  0  0  0  0  0  0  0  0  0  0
    7.7929  -13.3358   27.7005 C   0  0  0  0  0  0  0  0  0  0  0  0
    9.1451  -13.6268   27.0901 C   0  0  1  0  0  0  0  0  0  0  0  0
   10.1737  -13.3155   27.9756 O   0  0  0  0  0  0  0  0  0  0  0  0
    9.2464  -15.0738   26.6412 C   0  0  2  0  0  0  0  0  0  0  0  0
    8.1326  -15.3888   25.7673 N   0  0  0  0  0  0  0  0  0  0  0  0
    9.2261  -16.0127   27.7982 C   0  0  0  0  0  0  0  0  0  0  0  0
    8.2627  -17.0064   27.9102 O   0  0  0  0  0  0  0  0  0  0  0  0
   10.0817  -15.9404   28.7181 O   0  0  0  0  0  0  0  0  0  0  0  0
  1  2  1  0
  1  5  1  0
  2  3  1  0
  3  4  1  0
  5  6  1  1
  5  4  1  0
  6  7  2  0
  8  9  1  0
  9 11  1  0
 10  9  2  0
 11 12  1  0
 13 12  1  6
 14 13  1  0
 14  6  1  0
 15 21  1  0
 15 13  1  0
 16 15  2  0
 18 17  1  1
 18 19  1  0
 20 18  1  0
 20 21  1  6
 22 20  1  0
 22 23  1  0
 24 22  2  0
M  END
$$$$
