PQT.pdb
     RDKit          3D

 24 24  0  0  1  0  0  0  0  0999 V2000
    8.5999  -15.1738   19.6218 N   0  0  0  0  0  0  0  0  0  0  0  0
    8.4186  -14.8301   18.2290 C   0  0  0  0  0  0  0  0  0  0  0  0
    7.4592  -13.6525   18.2395 C   0  0  0  0  0  0  0  0  0  0  0  0
    7.4465  -13.1262   19.6397 C   0  0  0  0  0  0  0  0  0  0  0  0
    8.4079  -13.9857   20.3936 C   0  0  1  0  0  0  0  0  0  0  0  0
    7.8793  -14.2956   21.7512 C   0  0  0  0  0  0  0  0  0  0  0  0
    7.5435  -13.3994   22.5657 O   0  0  0  0  0  0  0  0  0  0  0  0
    6.9742  -20.1948   24.2708 N   0  0  0  0  0  0  0  0  0  0  0  0
    6.6954  -19.2992   25.3347 C   0  0  0  0  0  0  0  0  0  0  0  0
    6.3336  -19.6906   26.4668 O   0  0  0  0  0  0  0  0  0  0  0  0
    6.8313  -17.8456   25.1181 C   0  0  0  0  0  0  0  0  0  0  0  0
    7.2590  -17.5229   23.7008 C   0  0  0  0  0  0  0  0  0  0  0  0
    7.3457  -16.0287   23.5121 C   0  0  2  0  0  0  0  0  0  0  0  0
    7.7293  -15.6434   22.1919 N   0  0  0  0  0  0  0  0  0  0  0  0
    8.2583  -15.4454   24.5446 C   0  0  0  0  0  0  0  0  0  0  0  0
    9.5022  -15.4513   24.4038 O   0  0  0  0  0  0  0  0  0  0  0  0
    7.8628  -11.8788   26.1946 C   0  0  0  0  0  0  0  0  0  0  0  0
    7.9499  -12.9598   27.2481 C   0  0  1  0  0  0  0  0  0  0  0  0
    6.6905  -13.2714   27.7537 O   0  0  0  0  0  0  0  0  0  0  0  0
    8.6304  -14.2038   26.7050 C   0  0  2  0  0  0  0  0  0  0  0  0
    7.7590  -14.8520   25.7438 N   0  0  0  0  0  0  0  0  0  0  0  0
    8.9513  -15.1745   27.7893 C   0  0  0  0  0  0  0  0  0  0  0  0
    9.7955  -14.8377   28.8389 O   0  0  0  0  0  0  0  0  0  0  0  0
    8.4690  -16.3367   27.7946 O   0  0  0  0  0  0  0  0  0  0  0  0
  1  2  1  0
  1  5  1  0
  2  3  1  0
  3  4  1  0
  5  6  1  1
  5  4  1  0
  6  7  2  0
  8  9  1  0
  9 11  1  0
 10  9  2  0
 11 12  1  0
 13 12  1  6
 14 13  1  0
 14  6  1  0
 15 21  1  0
 15 13  1  0
 16 15  2  0
 18 17  1  6
 18 19  1  0
 20 18  1  0
 20 21  1  6
 22 20  1  0
 22 23  1  0
 24 22  2  0
M  END
$$$$
