PQT.pdb
     RDKit          3D

 24 24  0  0  1  0  0  0  0  0999 V2000
    8.5357  -15.2578   19.5448 N   0  0  0  0  0  0  0  0  0  0  0  0
    8.3067  -14.9475   18.1512 C   0  0  0  0  0  0  0  0  0  0  0  0
    7.3988  -13.7298   18.1668 C   0  0  0  0  0  0  0  0  0  0  0  0
    7.4709  -13.1628   19.5491 C   0  0  0  0  0  0  0  0  0  0  0  0
    8.4284  -14.0404   20.2868 C   0  0  1  0  0  0  0  0  0  0  0  0
    7.9488  -14.2874   21.6752 C   0  0  0  0  0  0  0  0  0  0  0  0
    7.6758  -13.3540   22.4711 O   0  0  0  0  0  0  0  0  0  0  0  0
    7.3540  -20.0436   24.5843 N   0  0  0  0  0  0  0  0  0  0  0  0
    6.7549  -19.1215   25.4801 C   0  0  0  0  0  0  0  0  0  0  0  0
    6.2317  -19.4753   26.5603 O   0  0  0  0  0  0  0  0  0  0  0  0
    6.7380  -17.6846   25.1433 C   0  0  0  0  0  0  0  0  0  0  0  0
    7.3189  -17.4193   23.7693 C   0  0  0  0  0  0  0  0  0  0  0  0
    7.3007  -15.9399   23.4747 C   0  0  2  0  0  0  0  0  0  0  0  0
    7.7760  -15.6140   22.1684 N   0  0  0  0  0  0  0  0  0  0  0  0
    8.0595  -15.2082   24.5368 C   0  0  0  0  0  0  0  0  0  0  0  0
    9.3034  -15.0770   24.4863 O   0  0  0  0  0  0  0  0  0  0  0  0
    6.9043  -11.6721   25.9584 C   0  0  0  0  0  0  0  0  0  0  0  0
    7.1786  -12.6598   27.0697 C   0  0  1  0  0  0  0  0  0  0  0  0
    5.9942  -13.1907   27.5739 O   0  0  0  0  0  0  0  0  0  0  0  0
    8.1054  -13.7687   26.6040 C   0  0  2  0  0  0  0  0  0  0  0  0
    7.4054  -14.6216   25.6627 N   0  0  0  0  0  0  0  0  0  0  0  0
    8.5816  -14.6039   27.7426 C   0  0  0  0  0  0  0  0  0  0  0  0
    9.3558  -14.0673   28.7627 O   0  0  0  0  0  0  0  0  0  0  0  0
    8.2998  -15.8276   27.8227 O   0  0  0  0  0  0  0  0  0  0  0  0
  1  2  1  0
  1  5  1  0
  2  3  1  0
  3  4  1  0
  5  6  1  1
  5  4  1  0
  6  7  2  0
  8  9  1  0
  9 11  1  0
 10  9  2  0
 11 12  1  0
 13 12  1  1
 14 13  1  0
 14  6  1  0
 15 21  1  0
 15 13  1  0
 16 15  2  0
 18 17  1  6
 18 19  1  0
 20 18  1  0
 20 21  1  6
 22 20  1  0
 22 23  1  0
 24 22  2  0
M  END
$$$$
