PQT.pdb
     RDKit          3D

 24 24  0  0  1  0  0  0  0  0999 V2000
    8.9032  -15.0812   19.3838 N   0  0  0  0  0  0  0  0  0  0  0  0
    8.8509  -14.7827   17.9700 C   0  0  0  0  0  0  0  0  0  0  0  0
    7.8337  -13.6614   17.8454 C   0  0  0  0  0  0  0  0  0  0  0  0
    7.6457  -13.1025   19.2201 C   0  0  0  0  0  0  0  0  0  0  0  0
    8.5675  -13.8872   20.0952 C   0  0  1  0  0  0  0  0  0  0  0  0
    7.9168  -14.1931   21.3996 C   0  0  0  0  0  0  0  0  0  0  0  0
    7.4501  -13.2977   22.1476 O   0  0  0  0  0  0  0  0  0  0  0  0
    7.3310  -20.0523   24.1003 N   0  0  0  0  0  0  0  0  0  0  0  0
    6.7113  -19.1661   25.0180 C   0  0  0  0  0  0  0  0  0  0  0  0
    6.1824  -19.5599   26.0815 O   0  0  0  0  0  0  0  0  0  0  0  0
    6.6785  -17.7199   24.7255 C   0  0  0  0  0  0  0  0  0  0  0  0
    7.3337  -17.3968   23.3980 C   0  0  0  0  0  0  0  0  0  0  0  0
    7.2877  -15.9104   23.1444 C   0  0  2  0  0  0  0  0  0  0  0  0
    7.7933  -15.5361   21.8627 N   0  0  0  0  0  0  0  0  0  0  0  0
    7.9965  -15.1915   24.2490 C   0  0  0  0  0  0  0  0  0  0  0  0
    9.2385  -15.2605   24.3898 O   0  0  0  0  0  0  0  0  0  0  0  0
    6.8978  -11.4563   25.8903 C   0  0  0  0  0  0  0  0  0  0  0  0
    7.0542  -12.6213   26.8412 C   0  0  1  0  0  0  0  0  0  0  0  0
    5.8180  -13.1726   27.1681 O   0  0  0  0  0  0  0  0  0  0  0  0
    7.9765  -13.6814   26.2656 C   0  0  2  0  0  0  0  0  0  0  0  0
    7.2943  -14.3899   25.1996 N   0  0  0  0  0  0  0  0  0  0  0  0
    8.3976  -14.6670   27.3010 C   0  0  0  0  0  0  0  0  0  0  0  0
    9.2380  -14.3077   28.3462 O   0  0  0  0  0  0  0  0  0  0  0  0
    8.0071  -15.8627   27.2672 O   0  0  0  0  0  0  0  0  0  0  0  0
  1  2  1  0
  1  5  1  0
  2  3  1  0
  3  4  1  0
  5  6  1  1
  5  4  1  0
  6  7  2  0
  8  9  1  0
  9 11  1  0
 10  9  2  0
 11 12  1  0
 13 12  1  1
 14 13  1  0
 14  6  1  0
 15 21  1  0
 15 13  1  0
 16 15  2  0
 18 17  1  6
 18 19  1  0
 20 18  1  0
 20 21  1  6
 22 20  1  0
 22 23  1  0
 24 22  2  0
M  END
$$$$
