FKA.pdb
     RDKit          3D

 26 26  0  0  1  0  0  0  0  0999 V2000
    5.8871  -17.8266   25.8768 N   0  0  0  0  0  0  0  0  0  0  0  0
    6.3270  -16.5030   25.5749 C   0  0  1  0  0  0  0  0  0  0  0  0
    7.0303  -15.9238   26.7634 C   0  0  0  0  0  0  0  0  0  0  0  0
    7.0282  -14.4522   26.6850 C   0  0  0  0  0  0  0  0  0  0  0  0
    8.1946  -13.7463   26.6535 C   0  0  0  0  0  0  0  0  0  0  0  0
    8.1904  -12.3490   26.5792 C   0  0  0  0  0  0  0  0  0  0  0  0
    6.9693  -11.7025   26.5384 C   0  0  0  0  0  0  0  0  0  0  0  0
    5.7898  -12.4191   26.5703 C   0  0  0  0  0  0  0  0  0  0  0  0
    5.8334  -13.7880   26.6434 C   0  0  0  0  0  0  0  0  0  0  0  0
    7.2714  -16.4554   24.4236 C   0  0  0  0  0  0  0  0  0  0  0  0
    8.1458  -17.3383   24.3299 O   0  0  0  0  0  0  0  0  0  0  0  0
    7.2262  -15.4577   23.4299 N   0  0  0  0  0  0  0  0  0  0  0  0
    8.1006  -15.5034   22.3064 C   0  0  1  0  0  0  0  0  0  0  0  0
    7.8141  -14.3062   21.4337 C   0  0  0  0  0  0  0  0  0  0  0  0
    8.5984  -14.3693   20.1607 C   0  0  0  0  0  0  0  0  0  0  0  0
    8.0699  -13.4820   19.0634 C   0  0  0  0  0  0  0  0  0  0  0  0
    8.9124  -13.6683   17.8038 C   0  0  0  0  0  0  0  0  0  0  0  0
    8.4571  -12.7690   16.7683 N   0  0  0  0  0  0  0  0  0  0  0  0
    9.5368  -15.4681   22.6881 C   0  0  0  0  0  0  0  0  0  0  0  0
   10.0014  -14.5566   23.4044 O   0  0  0  0  0  0  0  0  0  0  0  0
   12.3752  -17.8349   22.6027 C   0  0  0  0  0  0  0  0  0  0  0  0
   11.8185  -16.4179   22.5571 C   0  0  2  0  0  0  0  0  0  0  0  0
   10.4259  -16.4729   22.2481 N   0  0  0  0  0  0  0  0  0  0  0  0
   12.6145  -15.6044   21.6445 C   0  0  0  0  0  0  0  0  0  0  0  0
   13.8798  -15.1529   21.9689 O   0  0  0  0  0  0  0  0  0  0  0  0
   12.1482  -15.2961   20.5240 O   0  0  0  0  0  0  0  0  0  0  0  0
  2 10  1  0
  2  1  1  1
  3  2  1  0
  4  9  2  0
  4  3  1  0
  5  4  1  0
  6  7  1  0
  6  5  2  0
  7  8  2  0
  8  9  1  0
 10 11  2  0
 12 13  1  0
 12 10  1  0
 13 14  1  6
 14 15  1  0
 16 15  1  0
 17 16  1  0
 18 17  1  0
 19 13  1  0
 20 19  2  0
 22 21  1  6
 22 23  1  0
 23 19  1  0
 24 22  1  0
 24 25  1  0
 26 24  2  0
M  END
$$$$
