FKA.pdb
     RDKit          3D

 26 26  0  0  1  0  0  0  0  0999 V2000
    5.8014  -16.3998   25.6241 N   0  0  0  0  0  0  0  0  0  0  0  0
    7.0981  -15.9316   25.2554 C   0  0  1  0  0  0  0  0  0  0  0  0
    7.5927  -14.9606   26.2827 C   0  0  0  0  0  0  0  0  0  0  0  0
    6.8620  -13.6860   26.1672 C   0  0  0  0  0  0  0  0  0  0  0  0
    5.9252  -13.3244   27.0898 C   0  0  0  0  0  0  0  0  0  0  0  0
    5.2325  -12.1137   26.9783 C   0  0  0  0  0  0  0  0  0  0  0  0
    5.5244  -11.2927   25.9053 C   0  0  0  0  0  0  0  0  0  0  0  0
    6.4732  -11.6608   24.9725 C   0  0  0  0  0  0  0  0  0  0  0  0
    7.1320  -12.8553   25.1148 C   0  0  0  0  0  0  0  0  0  0  0  0
    8.1011  -17.0282   25.1505 C   0  0  0  0  0  0  0  0  0  0  0  0
    8.0450  -17.9706   25.9639 O   0  0  0  0  0  0  0  0  0  0  0  0
    9.1157  -17.0544   24.1732 N   0  0  0  0  0  0  0  0  0  0  0  0
   10.0958  -18.0879   24.1631 C   0  0  1  0  0  0  0  0  0  0  0  0
   10.9144  -17.9525   22.9026 C   0  0  0  0  0  0  0  0  0  0  0  0
   12.1052  -18.8582   22.9357 C   0  0  0  0  0  0  0  0  0  0  0  0
   12.8837  -18.9045   21.6462 C   0  0  0  0  0  0  0  0  0  0  0  0
   13.9509  -19.9930   21.7312 C   0  0  0  0  0  0  0  0  0  0  0  0
   14.7138  -20.0327   20.5046 N   0  0  0  0  0  0  0  0  0  0  0  0
   11.0185  -18.0228   25.3265 C   0  0  0  0  0  0  0  0  0  0  0  0
   11.7526  -17.0321   25.5250 O   0  0  0  0  0  0  0  0  0  0  0  0
   11.2574  -18.7994   28.6310 C   0  0  0  0  0  0  0  0  0  0  0  0
   12.0171  -19.0640   27.3376 C   0  0  2  0  0  0  0  0  0  0  0  0
   11.0930  -19.0885   26.2498 N   0  0  0  0  0  0  0  0  0  0  0  0
   12.8260  -20.2698   27.4786 C   0  0  0  0  0  0  0  0  0  0  0  0
   13.8194  -20.3863   28.4324 O   0  0  0  0  0  0  0  0  0  0  0  0
   12.6248  -21.2421   26.7156 O   0  0  0  0  0  0  0  0  0  0  0  0
  2 10  1  0
  2  1  1  1
  3  2  1  0
  4  9  2  0
  4  3  1  0
  5  4  1  0
  6  7  1  0
  6  5  2  0
  7  8  2  0
  8  9  1  0
 10 11  2  0
 12 13  1  0
 12 10  1  0
 13 14  1  6
 14 15  1  0
 16 15  1  0
 17 16  1  0
 18 17  1  0
 19 13  1  0
 20 19  2  0
 22 21  1  1
 22 23  1  0
 23 19  1  0
 24 22  1  0
 24 25  1  0
 26 24  2  0
M  END
$$$$
