FKA.pdb
     RDKit          3D

 26 26  0  0  1  0  0  0  0  0999 V2000
    5.5450  -17.6657   24.2941 N   0  0  0  0  0  0  0  0  0  0  0  0
    6.2975  -16.4837   24.5647 C   0  0  1  0  0  0  0  0  0  0  0  0
    5.8230  -15.8680   25.8448 C   0  0  0  0  0  0  0  0  0  0  0  0
    6.4371  -14.5406   26.0259 C   0  0  0  0  0  0  0  0  0  0  0  0
    6.0820  -13.4861   25.2374 C   0  0  0  0  0  0  0  0  0  0  0  0
    6.6663  -12.2266   25.4110 C   0  0  0  0  0  0  0  0  0  0  0  0
    7.6152  -12.0802   26.4054 C   0  0  0  0  0  0  0  0  0  0  0  0
    7.9732  -13.1491   27.2024 C   0  0  0  0  0  0  0  0  0  0  0  0
    7.3787  -14.3689   27.0028 C   0  0  0  0  0  0  0  0  0  0  0  0
    7.7574  -16.7462   24.7036 C   0  0  0  0  0  0  0  0  0  0  0  0
    8.1333  -17.6367   25.4900 O   0  0  0  0  0  0  0  0  0  0  0  0
    8.7403  -16.0350   23.9873 N   0  0  0  0  0  0  0  0  0  0  0  0
   10.1221  -16.3493   24.1315 C   0  0  1  0  0  0  0  0  0  0  0  0
   10.8470  -15.8781   22.8946 C   0  0  0  0  0  0  0  0  0  0  0  0
   10.9937  -16.9885   21.9022 C   0  0  0  0  0  0  0  0  0  0  0  0
   11.7105  -16.5964   20.6360 C   0  0  0  0  0  0  0  0  0  0  0  0
   11.6526  -17.7493   19.6368 C   0  0  0  0  0  0  0  0  0  0  0  0
   12.4038  -17.4112   18.4496 N   0  0  0  0  0  0  0  0  0  0  0  0
   10.7446  -15.6966   25.3129 C   0  0  0  0  0  0  0  0  0  0  0  0
   11.4570  -14.6772   25.1977 O   0  0  0  0  0  0  0  0  0  0  0  0
   10.6019  -14.4081   28.1976 C   0  0  0  0  0  0  0  0  0  0  0  0
   11.2649  -15.6981   27.7325 C   0  0  2  0  0  0  0  0  0  0  0  0
   10.5473  -16.2143   26.6116 N   0  0  0  0  0  0  0  0  0  0  0  0
   11.3893  -16.6212   28.8553 C   0  0  0  0  0  0  0  0  0  0  0  0
   10.9333  -17.9245   28.7949 O   0  0  0  0  0  0  0  0  0  0  0  0
   11.9261  -16.2335   29.9181 O   0  0  0  0  0  0  0  0  0  0  0  0
  2 10  1  0
  2  1  1  1
  3  2  1  0
  4  9  2  0
  4  3  1  0
  5  4  1  0
  6  7  1  0
  6  5  2  0
  7  8  2  0
  8  9  1  0
 10 11  2  0
 12 13  1  0
 12 10  1  0
 13 14  1  6
 14 15  1  0
 16 15  1  0
 17 16  1  0
 18 17  1  0
 19 13  1  0
 20 19  2  0
 22 21  1  1
 22 23  1  0
 23 19  1  0
 24 22  1  0
 24 25  1  0
 26 24  2  0
M  END
$$$$
