FKA.pdb
     RDKit          3D

 26 26  0  0  1  0  0  0  0  0999 V2000
    5.8434  -17.8013   25.4867 N   0  0  0  0  0  0  0  0  0  0  0  0
    6.3015  -16.4506   25.4363 C   0  0  1  0  0  0  0  0  0  0  0  0
    7.0858  -16.1395   26.6735 C   0  0  0  0  0  0  0  0  0  0  0  0
    7.1850  -14.6806   26.8562 C   0  0  0  0  0  0  0  0  0  0  0  0
    8.3841  -14.0380   26.7608 C   0  0  0  0  0  0  0  0  0  0  0  0
    8.4761  -12.6527   26.9347 C   0  0  0  0  0  0  0  0  0  0  0  0
    7.3160  -11.9519   27.2063 C   0  0  0  0  0  0  0  0  0  0  0  0
    6.1032  -12.6043   27.3024 C   0  0  0  0  0  0  0  0  0  0  0  0
    6.0521  -13.9635   27.1259 C   0  0  0  0  0  0  0  0  0  0  0  0
    7.1808  -16.1811   24.2643 C   0  0  0  0  0  0  0  0  0  0  0  0
    8.0644  -17.0109   23.9754 O   0  0  0  0  0  0  0  0  0  0  0  0
    7.0638  -15.0294   23.4612 N   0  0  0  0  0  0  0  0  0  0  0  0
    7.8805  -14.8556   22.3072 C   0  0  1  0  0  0  0  0  0  0  0  0
    7.5741  -13.5046   21.7088 C   0  0  0  0  0  0  0  0  0  0  0  0
    8.3747  -13.2738   20.4657 C   0  0  0  0  0  0  0  0  0  0  0  0
    7.7489  -13.8323   19.2138 C   0  0  0  0  0  0  0  0  0  0  0  0
    8.6704  -13.5781   18.0234 C   0  0  0  0  0  0  0  0  0  0  0  0
    8.1342  -14.2114   16.8403 N   0  0  0  0  0  0  0  0  0  0  0  0
    9.3342  -14.9106   22.6125 C   0  0  0  0  0  0  0  0  0  0  0  0
    9.8604  -14.1303   23.4336 O   0  0  0  0  0  0  0  0  0  0  0  0
   11.9402  -17.2008   22.8923 C   0  0  0  0  0  0  0  0  0  0  0  0
   11.5765  -15.8824   22.2217 C   0  0  2  0  0  0  0  0  0  0  0  0
   10.1703  -15.8548   21.9778 N   0  0  0  0  0  0  0  0  0  0  0  0
   12.4054  -15.6863   21.0374 C   0  0  0  0  0  0  0  0  0  0  0  0
   13.7560  -15.4044   21.1187 O   0  0  0  0  0  0  0  0  0  0  0  0
   11.8892  -15.7734   19.8999 O   0  0  0  0  0  0  0  0  0  0  0  0
  2 10  1  0
  2  1  1  1
  3  2  1  0
  4  9  2  0
  4  3  1  0
  5  4  1  0
  6  7  1  0
  6  5  2  0
  7  8  2  0
  8  9  1  0
 10 11  2  0
 12 13  1  0
 12 10  1  0
 13 14  1  1
 14 15  1  0
 16 15  1  0
 17 16  1  0
 18 17  1  0
 19 13  1  0
 20 19  2  0
 22 21  1  6
 22 23  1  0
 23 19  1  0
 24 22  1  0
 24 25  1  0
 26 24  2  0
M  END
$$$$
