FKA.pdb
     RDKit          3D

 26 26  0  0  1  0  0  0  0  0999 V2000
    6.5007  -17.1512   25.9505 N   0  0  0  0  0  0  0  0  0  0  0  0
    6.8983  -15.9632   25.2670 C   0  0  1  0  0  0  0  0  0  0  0  0
    7.9129  -15.2274   26.0867 C   0  0  0  0  0  0  0  0  0  0  0  0
    7.3773  -13.9177   26.4984 C   0  0  0  0  0  0  0  0  0  0  0  0
    6.5447  -13.2088   25.6836 C   0  0  0  0  0  0  0  0  0  0  0  0
    6.0373  -11.9654   26.0764 C   0  0  0  0  0  0  0  0  0  0  0  0
    6.4038  -11.4743   27.3154 C   0  0  0  0  0  0  0  0  0  0  0  0
    7.2467  -12.1936   28.1387 C   0  0  0  0  0  0  0  0  0  0  0  0
    7.7243  -13.4091   27.7196 C   0  0  0  0  0  0  0  0  0  0  0  0
    7.5068  -16.2379   23.9352 C   0  0  0  0  0  0  0  0  0  0  0  0
    7.9367  -17.3833   23.6983 O   0  0  0  0  0  0  0  0  0  0  0  0
    7.6217  -15.2635   22.9241 N   0  0  0  0  0  0  0  0  0  0  0  0
    8.2161  -15.5781   21.6684 C   0  0  1  0  0  0  0  0  0  0  0  0
    7.9927  -14.4148   20.7335 C   0  0  0  0  0  0  0  0  0  0  0  0
    8.5149  -14.7182   19.3643 C   0  0  0  0  0  0  0  0  0  0  0  0
    8.2318  -13.6473   18.3425 C   0  0  0  0  0  0  0  0  0  0  0  0
    8.6419  -14.1404   16.9570 C   0  0  0  0  0  0  0  0  0  0  0  0
    8.3185  -13.1429   15.9627 N   0  0  0  0  0  0  0  0  0  0  0  0
    9.6790  -15.8232   21.7650 C   0  0  0  0  0  0  0  0  0  0  0  0
   10.4591  -14.9585   22.2163 O   0  0  0  0  0  0  0  0  0  0  0  0
   11.8576  -18.7455   21.8727 C   0  0  0  0  0  0  0  0  0  0  0  0
   11.6369  -17.3018   21.4402 C   0  0  2  0  0  0  0  0  0  0  0  0
   10.2347  -17.0516   21.3458 N   0  0  0  0  0  0  0  0  0  0  0  0
   12.3886  -17.0324   20.2193 C   0  0  0  0  0  0  0  0  0  0  0  0
   11.7698  -16.7118   19.0257 O   0  0  0  0  0  0  0  0  0  0  0  0
   13.6393  -17.0897   20.2377 O   0  0  0  0  0  0  0  0  0  0  0  0
  2 10  1  0
  2  1  1  1
  3  2  1  0
  4  9  2  0
  4  3  1  0
  5  4  1  0
  6  7  1  0
  6  5  2  0
  7  8  2  0
  8  9  1  0
 10 11  2  0
 12 13  1  0
 12 10  1  0
 13 14  1  6
 14 15  1  0
 16 15  1  0
 17 16  1  0
 18 17  1  0
 19 13  1  0
 20 19  2  0
 22 21  1  6
 22 23  1  0
 23 19  1  0
 24 22  1  0
 24 25  1  0
 26 24  2  0
M  END
$$$$
