FKA.pdb
     RDKit          3D

 26 26  0  0  1  0  0  0  0  0999 V2000
    6.0092  -17.0287   25.5090 N   0  0  0  0  0  0  0  0  0  0  0  0
    7.0960  -16.1680   25.1702 C   0  0  1  0  0  0  0  0  0  0  0  0
    7.5973  -15.4823   26.4035 C   0  0  0  0  0  0  0  0  0  0  0  0
    7.2329  -14.0546   26.3722 C   0  0  0  0  0  0  0  0  0  0  0  0
    8.1224  -13.1090   25.9545 C   0  0  0  0  0  0  0  0  0  0  0  0
    7.7744  -11.7541   25.9256 C   0  0  0  0  0  0  0  0  0  0  0  0
    6.5020  -11.3995   26.3327 C   0  0  0  0  0  0  0  0  0  0  0  0
    5.6031  -12.3584   26.7551 C   0  0  0  0  0  0  0  0  0  0  0  0
    5.9800  -13.6770   26.7698 C   0  0  0  0  0  0  0  0  0  0  0  0
    8.2434  -16.8972   24.5608 C   0  0  0  0  0  0  0  0  0  0  0  0
    8.6321  -17.9542   25.0940 O   0  0  0  0  0  0  0  0  0  0  0  0
    8.9153  -16.4503   23.4058 N   0  0  0  0  0  0  0  0  0  0  0  0
   10.0082  -17.1857   22.8640 C   0  0  1  0  0  0  0  0  0  0  0  0
   10.3599  -16.5924   21.5218 C   0  0  0  0  0  0  0  0  0  0  0  0
   11.5131  -17.3158   20.9003 C   0  0  0  0  0  0  0  0  0  0  0  0
   11.2690  -17.7684   19.4838 C   0  0  0  0  0  0  0  0  0  0  0  0
   12.5949  -17.8260   18.7290 C   0  0  0  0  0  0  0  0  0  0  0  0
   12.3511  -18.0186   17.3178 N   0  0  0  0  0  0  0  0  0  0  0  0
   11.2196  -17.1414   23.7243 C   0  0  0  0  0  0  0  0  0  0  0  0
   11.7122  -16.0589   24.1056 O   0  0  0  0  0  0  0  0  0  0  0  0
   13.0549  -19.4613   25.8900 C   0  0  0  0  0  0  0  0  0  0  0  0
   13.0611  -18.3023   24.9018 C   0  0  2  0  0  0  0  0  0  0  0  0
   11.8546  -18.3322   24.1393 N   0  0  0  0  0  0  0  0  0  0  0  0
   14.2852  -18.3367   24.1090 C   0  0  0  0  0  0  0  0  0  0  0  0
   15.5170  -17.9975   24.6359 O   0  0  0  0  0  0  0  0  0  0  0  0
   14.2339  -18.6839   22.9069 O   0  0  0  0  0  0  0  0  0  0  0  0
  2 10  1  0
  2  1  1  1
  3  2  1  0
  4  9  2  0
  4  3  1  0
  5  4  1  0
  6  7  1  0
  6  5  2  0
  7  8  2  0
  8  9  1  0
 10 11  2  0
 12 13  1  0
 12 10  1  0
 13 14  1  6
 14 15  1  0
 16 15  1  0
 17 16  1  0
 18 17  1  0
 19 13  1  0
 20 19  2  0
 22 21  1  1
 22 23  1  0
 23 19  1  0
 24 22  1  0
 24 25  1  0
 26 24  2  0
M  END
$$$$
