FKA.pdb
     RDKit          3D

 26 26  0  0  1  0  0  0  0  0999 V2000
    5.9378  -17.7193   25.1584 N   0  0  0  0  0  0  0  0  0  0  0  0
    6.3677  -16.3773   24.9327 C   0  0  1  0  0  0  0  0  0  0  0  0
    7.3376  -15.9740   26.0001 C   0  0  0  0  0  0  0  0  0  0  0  0
    7.2285  -14.5280   26.2627 C   0  0  0  0  0  0  0  0  0  0  0  0
    8.3398  -13.7440   26.3635 C   0  0  0  0  0  0  0  0  0  0  0  0
    8.2340  -12.3712   26.6130 C   0  0  0  0  0  0  0  0  0  0  0  0
    6.9699  -11.8305   26.7548 C   0  0  0  0  0  0  0  0  0  0  0  0
    5.8463  -12.6260   26.6524 C   0  0  0  0  0  0  0  0  0  0  0  0
    5.9892  -13.9678   26.4071 C   0  0  0  0  0  0  0  0  0  0  0  0
    7.0442  -16.1998   23.6172 C   0  0  0  0  0  0  0  0  0  0  0  0
    7.6018  -17.1833   23.0934 O   0  0  0  0  0  0  0  0  0  0  0  0
    7.0858  -14.9698   22.9314 N   0  0  0  0  0  0  0  0  0  0  0  0
    7.7369  -14.8570   21.6695 C   0  0  1  0  0  0  0  0  0  0  0  0
    7.6231  -13.4262   21.2035 C   0  0  0  0  0  0  0  0  0  0  0  0
    7.4365  -13.3576   19.7203 C   0  0  0  0  0  0  0  0  0  0  0  0
    8.5170  -14.0473   18.9280 C   0  0  0  0  0  0  0  0  0  0  0  0
    8.2600  -13.8539   17.4355 C   0  0  0  0  0  0  0  0  0  0  0  0
    9.3517  -14.4120   16.6707 N   0  0  0  0  0  0  0  0  0  0  0  0
    9.1786  -15.2143   21.7273 C   0  0  0  0  0  0  0  0  0  0  0  0
    9.8416  -15.4294   20.6910 O   0  0  0  0  0  0  0  0  0  0  0  0
   11.8450  -15.0453   24.2747 C   0  0  0  0  0  0  0  0  0  0  0  0
   11.2268  -15.6807   23.0361 C   0  0  2  0  0  0  0  0  0  0  0  0
    9.8468  -15.3220   22.9665 N   0  0  0  0  0  0  0  0  0  0  0  0
   11.4849  -17.1165   23.0373 C   0  0  0  0  0  0  0  0  0  0  0  0
   11.2409  -17.9125   21.9341 O   0  0  0  0  0  0  0  0  0  0  0  0
   11.9439  -17.6614   24.0670 O   0  0  0  0  0  0  0  0  0  0  0  0
  2 10  1  0
  2  1  1  1
  3  2  1  0
  4  9  2  0
  4  3  1  0
  5  4  1  0
  6  7  1  0
  6  5  2  0
  7  8  2  0
  8  9  1  0
 10 11  2  0
 12 13  1  0
 12 10  1  0
 13 14  1  1
 14 15  1  0
 16 15  1  0
 17 16  1  0
 18 17  1  0
 19 13  1  0
 20 19  2  0
 22 21  1  1
 22 23  1  0
 23 19  1  0
 24 22  1  0
 24 25  1  0
 26 24  2  0
M  END
$$$$
