FCR.pdb
     RDKit          3D

 29 29  0  0  1  0  0  0  0  0999 V2000
    5.9516  -18.1077   25.4061 N   0  0  0  0  0  0  0  0  0  0  0  0
    6.3354  -16.7123   25.3086 C   0  0  1  0  0  0  0  0  0  0  0  0
    6.9295  -16.3486   26.6553 C   0  0  0  0  0  0  0  0  0  0  0  0
    7.2777  -14.9039   26.6255 C   0  0  0  0  0  0  0  0  0  0  0  0
    8.5740  -14.4674   26.5246 C   0  0  0  0  0  0  0  0  0  0  0  0
    8.8683  -13.1063   26.4956 C   0  0  0  0  0  0  0  0  0  0  0  0
    7.8778  -12.1492   26.5664 C   0  0  0  0  0  0  0  0  0  0  0  0
    6.5742  -12.5886   26.6678 C   0  0  0  0  0  0  0  0  0  0  0  0
    6.2882  -13.9486   26.6963 C   0  0  0  0  0  0  0  0  0  0  0  0
    7.3149  -16.5858   24.2146 C   0  0  0  0  0  0  0  0  0  0  0  0
    8.2458  -17.3925   24.1030 O   0  0  0  0  0  0  0  0  0  0  0  0
    7.2525  -15.5459   23.2349 N   0  0  0  0  0  0  0  0  0  0  0  0
    8.1978  -15.3896   22.1809 C   0  0  1  0  0  0  0  0  0  0  0  0
    7.7416  -14.5039   21.0557 C   0  0  0  0  0  0  0  0  0  0  0  0
    6.2335  -15.0775   20.2616 S   0  0  0  0  0  0  0  0  0  0  0  0
    9.5420  -14.9525   22.6814 C   0  0  0  0  0  0  0  0  0  0  0  0
    9.6299  -14.0302   23.5323 O   0  0  0  0  0  0  0  0  0  0  0  0
   11.3521  -19.8502   28.9459 N   0  0  0  0  0  0  0  0  0  0  0  0
   10.8243  -18.8280   28.1235 C   0  0  0  0  0  0  0  0  0  0  0  0
    9.8073  -18.0978   28.4991 N   0  0  0  0  0  0  0  0  0  0  0  0
   11.3496  -18.5173   26.8418 N   0  0  0  0  0  0  0  0  0  0  0  0
   12.0735  -17.3053   26.5306 C   0  0  0  0  0  0  0  0  0  0  0  0
   12.5195  -17.2852   25.0669 C   0  0  0  0  0  0  0  0  0  0  0  0
   11.3888  -16.8595   24.1743 C   0  0  0  0  0  0  0  0  0  0  0  0
   11.8381  -15.8559   23.1775 C   0  0  2  0  0  0  0  0  0  0  0  0
   10.7435  -15.5388   22.2346 N   0  0  0  0  0  0  0  0  0  0  0  0
   13.0478  -16.2199   22.4414 C   0  0  0  0  0  0  0  0  0  0  0  0
   14.3111  -16.0832   22.9358 O   0  0  0  0  0  0  0  0  0  0  0  0
   12.9801  -16.7005   21.2509 O   0  0  0  0  0  0  0  0  0  0  0  0
  2  1  1  1
  2  3  1  0
  3  4  1  0
  4  5  2  0
  4  9  1  0
  5  6  1  0
  6  7  2  0
  8  7  1  0
  9  8  2  0
 10  2  1  0
 11 10  2  0
 12 10  1  0
 13 12  1  0
 13 14  1  6
 15 14  1  0
 16 13  1  0
 16 26  1  0
 17 16  2  0
 19 18  1  0
 20 19  2  0
 21 19  1  0
 22 21  1  0
 23 22  1  0
 24 23  1  0
 25 26  1  0
 25 24  1  1
 27 25  1  0
 28 27  1  0
 29 27  2  0
M  END
$$$$
