FCR.pdb
     RDKit          3D

 29 29  0  0  1  0  0  0  0  0999 V2000
    6.7976  -17.4959   22.1683 N   0  0  0  0  0  0  0  0  0  0  0  0
    7.5036  -16.3091   21.7245 C   0  0  1  0  0  0  0  0  0  0  0  0
    6.4349  -15.3332   21.2728 C   0  0  0  0  0  0  0  0  0  0  0  0
    7.1163  -14.1464   20.6926 C   0  0  0  0  0  0  0  0  0  0  0  0
    7.3478  -13.0083   21.4223 C   0  0  0  0  0  0  0  0  0  0  0  0
    7.9922  -11.9135   20.8514 C   0  0  0  0  0  0  0  0  0  0  0  0
    8.4205  -11.9275   19.5405 C   0  0  0  0  0  0  0  0  0  0  0  0
    8.1875  -13.0722   18.8069 C   0  0  0  0  0  0  0  0  0  0  0  0
    7.5438  -14.1609   19.3835 C   0  0  0  0  0  0  0  0  0  0  0  0
    8.2849  -15.7929   22.8627 C   0  0  0  0  0  0  0  0  0  0  0  0
    9.4267  -15.3478   22.6957 O   0  0  0  0  0  0  0  0  0  0  0  0
    7.7837  -15.7744   24.2020 N   0  0  0  0  0  0  0  0  0  0  0  0
    8.5865  -15.5030   25.3469 C   0  0  1  0  0  0  0  0  0  0  0  0
    8.0202  -14.4689   26.2789 C   0  0  0  0  0  0  0  0  0  0  0  0
    6.2913  -14.0901   25.9600 S   0  0  0  0  0  0  0  0  0  0  0  0
    8.9441  -16.7492   26.1002 C   0  0  0  0  0  0  0  0  0  0  0  0
    8.0433  -17.5499   26.4606 O   0  0  0  0  0  0  0  0  0  0  0  0
   11.2946  -20.2685   21.0472 N   0  0  0  0  0  0  0  0  0  0  0  0
   11.9782  -19.1382   21.5519 C   0  0  0  0  0  0  0  0  0  0  0  0
   12.3394  -18.1489   20.7777 N   0  0  0  0  0  0  0  0  0  0  0  0
   12.3222  -18.9894   22.9212 N   0  0  0  0  0  0  0  0  0  0  0  0
   12.0461  -19.9755   23.9416 C   0  0  0  0  0  0  0  0  0  0  0  0
   10.9654  -19.4864   24.9084 C   0  0  0  0  0  0  0  0  0  0  0  0
   11.5661  -19.1303   26.2383 C   0  0  0  0  0  0  0  0  0  0  0  0
   10.6070  -18.3672   27.0755 C   0  0  2  0  0  0  0  0  0  0  0  0
   10.2739  -17.0771   26.4333 N   0  0  0  0  0  0  0  0  0  0  0  0
   11.0359  -18.1473   28.4558 C   0  0  0  0  0  0  0  0  0  0  0  0
   11.3110  -19.1503   29.3375 O   0  0  0  0  0  0  0  0  0  0  0  0
   11.1775  -16.9587   28.9246 O   0  0  0  0  0  0  0  0  0  0  0  0
  2  1  1  1
  2  3  1  0
  3  4  1  0
  4  5  2  0
  4  9  1  0
  5  6  1  0
  6  7  2  0
  8  7  1  0
  9  8  2  0
 10  2  1  0
 11 10  2  0
 12 10  1  0
 13 12  1  0
 13 14  1  1
 15 14  1  0
 16 13  1  0
 16 26  1  0
 17 16  2  0
 19 18  1  0
 20 19  2  0
 21 19  1  0
 22 21  1  0
 23 22  1  0
 24 23  1  0
 25 26  1  0
 25 24  1  6
 27 25  1  0
 28 27  1  0
 29 27  2  0
M  END
$$$$
