FCR.pdb
     RDKit          3D

 29 29  0  0  1  0  0  0  0  0999 V2000
    8.3001  -16.0868   21.1793 N   0  0  0  0  0  0  0  0  0  0  0  0
    9.4401  -15.2882   21.5878 C   0  0  1  0  0  0  0  0  0  0  0  0
    8.9012  -13.8951   21.8476 C   0  0  0  0  0  0  0  0  0  0  0  0
    8.3675  -13.3657   20.5653 C   0  0  0  0  0  0  0  0  0  0  0  0
    9.1679  -13.1613   19.4703 C   0  0  0  0  0  0  0  0  0  0  0  0
    8.6375  -12.6671   18.2811 C   0  0  0  0  0  0  0  0  0  0  0  0
    7.2976  -12.3652   18.1557 C   0  0  0  0  0  0  0  0  0  0  0  0
    6.4930  -12.5708   19.2571 C   0  0  0  0  0  0  0  0  0  0  0  0
    7.0295  -13.0643   20.4406 C   0  0  0  0  0  0  0  0  0  0  0  0
   10.0123  -15.8999   22.8005 C   0  0  0  0  0  0  0  0  0  0  0  0
   11.1059  -15.5265   23.2413 O   0  0  0  0  0  0  0  0  0  0  0  0
    9.3542  -16.9405   23.5281 N   0  0  0  0  0  0  0  0  0  0  0  0
    9.9213  -17.6039   24.6538 C   0  0  1  0  0  0  0  0  0  0  0  0
    8.9190  -18.2178   25.5903 C   0  0  0  0  0  0  0  0  0  0  0  0
    7.5961  -17.0929   26.0581 S   0  0  0  0  0  0  0  0  0  0  0  0
   10.9570  -18.6134   24.2579 C   0  0  0  0  0  0  0  0  0  0  0  0
   10.8684  -19.2095   23.1537 O   0  0  0  0  0  0  0  0  0  0  0  0
   11.8405  -16.8249   18.9360 N   0  0  0  0  0  0  0  0  0  0  0  0
   12.8022  -16.1069   19.6839 C   0  0  0  0  0  0  0  0  0  0  0  0
   13.2336  -14.9327   19.3047 N   0  0  0  0  0  0  0  0  0  0  0  0
   13.3686  -16.5973   20.8898 N   0  0  0  0  0  0  0  0  0  0  0  0
   13.9144  -17.9261   21.0514 C   0  0  0  0  0  0  0  0  0  0  0  0
   13.1828  -18.6968   22.1525 C   0  0  0  0  0  0  0  0  0  0  0  0
   13.8272  -18.4532   23.4874 C   0  0  0  0  0  0  0  0  0  0  0  0
   13.3312  -19.4104   24.5075 C   0  0  2  0  0  0  0  0  0  0  0  0
   12.0536  -18.9361   25.0826 N   0  0  0  0  0  0  0  0  0  0  0  0
   14.2814  -19.7175   25.5753 C   0  0  0  0  0  0  0  0  0  0  0  0
   14.9698  -20.8907   25.6690 O   0  0  0  0  0  0  0  0  0  0  0  0
   14.5223  -18.8708   26.5123 O   0  0  0  0  0  0  0  0  0  0  0  0
  2  1  1  1
  2  3  1  0
  3  4  1  0
  4  5  2  0
  4  9  1  0
  5  6  1  0
  6  7  2  0
  8  7  1  0
  9  8  2  0
 10  2  1  0
 11 10  2  0
 12 10  1  0
 13 12  1  0
 13 14  1  6
 15 14  1  0
 16 13  1  0
 16 26  1  0
 17 16  2  0
 19 18  1  0
 20 19  2  0
 21 19  1  0
 22 21  1  0
 23 22  1  0
 24 23  1  0
 25 26  1  0
 25 24  1  6
 27 25  1  0
 28 27  1  0
 29 27  2  0
M  END
$$$$
