FCR.pdb
     RDKit          3D

 29 29  0  0  1  0  0  0  0  0999 V2000
    6.5033  -16.2273   25.0351 N   0  0  0  0  0  0  0  0  0  0  0  0
    7.0202  -15.6574   23.8055 C   0  0  1  0  0  0  0  0  0  0  0  0
    6.2909  -14.3416   23.6174 C   0  0  0  0  0  0  0  0  0  0  0  0
    6.5889  -13.4823   24.7931 C   0  0  0  0  0  0  0  0  0  0  0  0
    5.8479  -13.5400   25.9459 C   0  0  0  0  0  0  0  0  0  0  0  0
    6.1541  -12.7241   27.0324 C   0  0  0  0  0  0  0  0  0  0  0  0
    7.2054  -11.8322   26.9951 C   0  0  0  0  0  0  0  0  0  0  0  0
    7.9503  -11.7745   25.8356 C   0  0  0  0  0  0  0  0  0  0  0  0
    7.6388  -12.5918   24.7553 C   0  0  0  0  0  0  0  0  0  0  0  0
    8.4734  -15.4714   23.9667 C   0  0  0  0  0  0  0  0  0  0  0  0
    9.1181  -14.7959   23.1556 O   0  0  0  0  0  0  0  0  0  0  0  0
    9.2134  -16.0471   25.0466 N   0  0  0  0  0  0  0  0  0  0  0  0
   10.6300  -15.9660   25.1712 C   0  0  1  0  0  0  0  0  0  0  0  0
   11.1456  -16.1153   26.5749 C   0  0  0  0  0  0  0  0  0  0  0  0
   10.1751  -17.2518   27.5752 S   0  0  0  0  0  0  0  0  0  0  0  0
   11.3381  -16.9121   24.2482 C   0  0  0  0  0  0  0  0  0  0  0  0
   10.9315  -18.0960   24.1236 O   0  0  0  0  0  0  0  0  0  0  0  0
    7.7177  -13.9784   18.9842 N   0  0  0  0  0  0  0  0  0  0  0  0
    8.9634  -13.3181   19.0944 C   0  0  0  0  0  0  0  0  0  0  0  0
    9.0719  -12.0234   18.9511 N   0  0  0  0  0  0  0  0  0  0  0  0
   10.1790  -13.9992   19.3657 N   0  0  0  0  0  0  0  0  0  0  0  0
   10.2592  -15.3494   19.8763 C   0  0  0  0  0  0  0  0  0  0  0  0
   11.4816  -15.5299   20.7790 C   0  0  0  0  0  0  0  0  0  0  0  0
   11.5750  -16.9475   21.2671 C   0  0  0  0  0  0  0  0  0  0  0  0
   12.7394  -17.1308   22.1691 C   0  0  2  0  0  0  0  0  0  0  0  0
   12.4660  -16.5314   23.4934 N   0  0  0  0  0  0  0  0  0  0  0  0
   14.0089  -16.6322   21.6425 C   0  0  0  0  0  0  0  0  0  0  0  0
   14.7520  -15.6577   22.2403 O   0  0  0  0  0  0  0  0  0  0  0  0
   14.5042  -17.1004   20.5525 O   0  0  0  0  0  0  0  0  0  0  0  0
  2  1  1  1
  2  3  1  0
  3  4  1  0
  4  5  2  0
  4  9  1  0
  5  6  1  0
  6  7  2  0
  8  7  1  0
  9  8  2  0
 10  2  1  0
 11 10  2  0
 12 10  1  0
 13 12  1  0
 13 14  1  1
 15 14  1  0
 16 13  1  0
 16 26  1  0
 17 16  2  0
 19 18  1  0
 20 19  2  0
 21 19  1  0
 22 21  1  0
 23 22  1  0
 24 23  1  0
 25 26  1  0
 25 24  1  6
 27 25  1  0
 28 27  1  0
 29 27  2  0
M  END
$$$$
