FCR.pdb
     RDKit          3D

 29 29  0  0  1  0  0  0  0  0999 V2000
    8.8641  -17.1802   20.2878 N   0  0  0  0  0  0  0  0  0  0  0  0
    8.7347  -15.8764   20.9102 C   0  0  1  0  0  0  0  0  0  0  0  0
    7.3584  -15.3676   20.5290 C   0  0  0  0  0  0  0  0  0  0  0  0
    7.2955  -13.9222   20.8702 C   0  0  0  0  0  0  0  0  0  0  0  0
    7.8327  -12.9564   20.0580 C   0  0  0  0  0  0  0  0  0  0  0  0
    7.7548  -11.6093   20.4034 C   0  0  0  0  0  0  0  0  0  0  0  0
    7.1398  -11.1939   21.5659 C   0  0  0  0  0  0  0  0  0  0  0  0
    6.5997  -12.1655   22.3826 C   0  0  0  0  0  0  0  0  0  0  0  0
    6.6813  -13.5079   22.0312 C   0  0  0  0  0  0  0  0  0  0  0  0
    8.8810  -16.0516   22.3663 C   0  0  0  0  0  0  0  0  0  0  0  0
    8.8180  -17.1761   22.8774 O   0  0  0  0  0  0  0  0  0  0  0  0
    9.1000  -14.9572   23.2605 N   0  0  0  0  0  0  0  0  0  0  0  0
    9.4935  -15.1093   24.6209 C   0  0  1  0  0  0  0  0  0  0  0  0
    9.0774  -13.9822   25.5238 C   0  0  0  0  0  0  0  0  0  0  0  0
    7.2960  -13.8580   25.7367 S   0  0  0  0  0  0  0  0  0  0  0  0
    9.0646  -16.4269   25.1940 C   0  0  0  0  0  0  0  0  0  0  0  0
    8.0389  -17.0047   24.7508 O   0  0  0  0  0  0  0  0  0  0  0  0
    9.7885  -22.7467   23.2826 N   0  0  0  0  0  0  0  0  0  0  0  0
   11.1820  -22.9859   23.3098 C   0  0  0  0  0  0  0  0  0  0  0  0
   11.6723  -24.1959   23.3712 N   0  0  0  0  0  0  0  0  0  0  0  0
   12.1467  -21.9450   23.2731 N   0  0  0  0  0  0  0  0  0  0  0  0
   11.8340  -20.5401   23.4093 C   0  0  0  0  0  0  0  0  0  0  0  0
   11.0674  -20.2649   24.7047 C   0  0  0  0  0  0  0  0  0  0  0  0
   10.7683  -18.7993   24.8422 C   0  0  0  0  0  0  0  0  0  0  0  0
   10.1255  -18.5010   26.1463 C   0  0  2  0  0  0  0  0  0  0  0  0
    9.7718  -17.0673   26.2316 N   0  0  0  0  0  0  0  0  0  0  0  0
   10.9020  -18.8992   27.3194 C   0  0  0  0  0  0  0  0  0  0  0  0
   10.9316  -20.1673   27.8194 O   0  0  0  0  0  0  0  0  0  0  0  0
   11.6176  -18.0458   27.9617 O   0  0  0  0  0  0  0  0  0  0  0  0
  2  1  1  6
  2  3  1  0
  3  4  1  0
  4  5  2  0
  4  9  1  0
  5  6  1  0
  6  7  2  0
  8  7  1  0
  9  8  2  0
 10  2  1  0
 11 10  2  0
 12 10  1  0
 13 12  1  0
 13 14  1  1
 15 14  1  0
 16 13  1  0
 16 26  1  0
 17 16  2  0
 19 18  1  0
 20 19  2  0
 21 19  1  0
 22 21  1  0
 23 22  1  0
 24 23  1  0
 25 26  1  0
 25 24  1  6
 27 25  1  0
 28 27  1  0
 29 27  2  0
M  END
$$$$
