FCR.pdb
     RDKit          3D

 29 29  0  0  1  0  0  0  0  0999 V2000
    6.3374  -18.5337   26.3887 N   0  0  0  0  0  0  0  0  0  0  0  0
    6.9570  -17.2752   26.7579 C   0  0  1  0  0  0  0  0  0  0  0  0
    8.0986  -17.6305   27.6901 C   0  0  0  0  0  0  0  0  0  0  0  0
    8.7167  -16.3626   28.1589 C   0  0  0  0  0  0  0  0  0  0  0  0
    9.9029  -16.3395   28.8472 C   0  0  0  0  0  0  0  0  0  0  0  0
   10.4588  -15.1347   29.2705 C   0  0  0  0  0  0  0  0  0  0  0  0
    9.8456  -13.9254   29.0177 C   0  0  0  0  0  0  0  0  0  0  0  0
    8.6527  -13.9490   28.3255 C   0  0  0  0  0  0  0  0  0  0  0  0
    8.1039  -15.1553   27.9063 C   0  0  0  0  0  0  0  0  0  0  0  0
    7.4277  -16.6211   25.5238 C   0  0  0  0  0  0  0  0  0  0  0  0
    8.0364  -17.2640   24.6602 O   0  0  0  0  0  0  0  0  0  0  0  0
    7.2153  -15.2331   25.2528 N   0  0  0  0  0  0  0  0  0  0  0  0
    7.7457  -14.5550   24.1181 C   0  0  1  0  0  0  0  0  0  0  0  0
    7.1311  -13.2106   23.8471 C   0  0  0  0  0  0  0  0  0  0  0  0
    6.8193  -12.2542   25.3378 S   0  0  0  0  0  0  0  0  0  0  0  0
    9.2407  -14.4490   24.1652 C   0  0  0  0  0  0  0  0  0  0  0  0
    9.8147  -14.0789   25.2216 O   0  0  0  0  0  0  0  0  0  0  0  0
    9.4020  -20.9618   20.4115 N   0  0  0  0  0  0  0  0  0  0  0  0
   10.7399  -20.8812   19.9605 C   0  0  0  0  0  0  0  0  0  0  0  0
   11.5119  -21.9343   19.9020 N   0  0  0  0  0  0  0  0  0  0  0  0
   11.3433  -19.6666   19.5411 N   0  0  0  0  0  0  0  0  0  0  0  0
   10.7829  -18.3551   19.7775 C   0  0  0  0  0  0  0  0  0  0  0  0
   10.9334  -17.9429   21.2434 C   0  0  0  0  0  0  0  0  0  0  0  0
   10.3684  -16.5694   21.4684 C   0  0  0  0  0  0  0  0  0  0  0  0
   10.6085  -16.1094   22.8589 C   0  0  2  0  0  0  0  0  0  0  0  0
   10.0564  -14.7515   23.0562 N   0  0  0  0  0  0  0  0  0  0  0  0
   12.0056  -16.1527   23.2878 C   0  0  0  0  0  0  0  0  0  0  0  0
   12.6600  -17.2961   23.6391 O   0  0  0  0  0  0  0  0  0  0  0  0
   12.7103  -15.0800   23.3605 O   0  0  0  0  0  0  0  0  0  0  0  0
  2  1  1  6
  2  3  1  0
  3  4  1  0
  4  5  2  0
  4  9  1  0
  5  6  1  0
  6  7  2  0
  8  7  1  0
  9  8  2  0
 10  2  1  0
 11 10  2  0
 12 10  1  0
 13 12  1  0
 13 14  1  1
 15 14  1  0
 16 13  1  0
 16 26  1  0
 17 16  2  0
 19 18  1  0
 20 19  2  0
 21 19  1  0
 22 21  1  0
 23 22  1  0
 24 23  1  0
 25 26  1  0
 25 24  1  6
 27 25  1  0
 28 27  1  0
 29 27  2  0
M  END
$$$$
