YYR.pdb
     RDKit          3D

 36 37  0  0  1  0  0  0  0  0999 V2000
   27.7042  -25.7008  -24.5599 O   0  0  0  0  0  0  0  0  0  0  0  0
   27.7681  -25.0057  -23.3566 C   0  0  0  0  0  0  0  0  0  0  0  0
   26.8134  -24.0590  -23.0167 C   0  0  0  0  0  0  0  0  0  0  0  0
   26.8878  -23.3869  -21.8366 C   0  0  0  0  0  0  0  0  0  0  0  0
   27.9408  -23.6620  -20.9667 C   0  0  0  0  0  0  0  0  0  0  0  0
   28.0790  -22.9643  -19.6904 C   0  0  0  0  0  0  0  0  0  0  0  0
   28.7815  -21.6364  -19.7533 C   0  0  2  0  0  0  0  0  0  0  0  0
   30.2132  -21.8832  -19.8680 N   0  0  0  0  0  0  0  0  0  0  0  0
   28.4868  -20.8622  -18.5447 C   0  0  0  0  0  0  0  0  0  0  0  0
   29.2656  -20.9294  -17.5606 O   0  0  0  0  0  0  0  0  0  0  0  0
   28.8986  -24.6131  -21.3099 C   0  0  0  0  0  0  0  0  0  0  0  0
   28.8147  -25.2864  -22.5040 C   0  0  0  0  0  0  0  0  0  0  0  0
   24.8901  -14.4816  -13.6020 O   0  0  0  0  0  0  0  0  0  0  0  0
   25.3281  -15.3284  -14.6312 C   0  0  0  0  0  0  0  0  0  0  0  0
   26.6911  -15.4244  -14.8474 C   0  0  0  0  0  0  0  0  0  0  0  0
   27.0667  -16.2708  -15.8708 C   0  0  0  0  0  0  0  0  0  0  0  0
   26.1844  -16.9848  -16.6428 C   0  0  0  0  0  0  0  0  0  0  0  0
   26.7083  -17.8497  -17.6990 C   0  0  0  0  0  0  0  0  0  0  0  0
   27.1190  -19.2153  -17.2231 C   0  0  2  0  0  0  0  0  0  0  0  0
   27.3540  -20.0260  -18.4197 N   0  0  0  0  0  0  0  0  0  0  0  0
   26.1199  -19.9034  -16.3946 C   0  0  0  0  0  0  0  0  0  0  0  0
   25.0361  -20.2950  -16.9130 O   0  0  0  0  0  0  0  0  0  0  0  0
   24.8397  -16.8619  -16.3967 C   0  0  0  0  0  0  0  0  0  0  0  0
   24.4197  -16.0293  -15.3856 C   0  0  0  0  0  0  0  0  0  0  0  0
   25.1619  -20.3968   -8.0664 N   0  0  0  0  0  0  0  0  0  0  0  0
   24.4194  -20.6667   -9.2787 C   0  0  0  0  0  0  0  0  0  0  0  0
   23.1567  -20.7921   -9.1887 N   0  0  0  0  0  0  0  0  0  0  0  0
   25.0857  -20.7844  -10.5095 N   0  0  0  0  0  0  0  0  0  0  0  0
   26.5100  -20.5858  -10.6918 C   0  0  0  0  0  0  0  0  0  0  0  0
   26.8586  -20.6726  -12.1312 C   0  0  0  0  0  0  0  0  0  0  0  0
   26.0028  -21.4587  -13.0319 C   0  0  0  0  0  0  0  0  0  0  0  0
   25.3237  -20.7668  -14.1255 C   0  0  2  0  0  0  0  0  0  0  0  0
   26.3226  -20.1479  -15.0306 N   0  0  0  0  0  0  0  0  0  0  0  0
   24.2457  -19.8597  -13.9403 C   0  0  0  0  0  0  0  0  0  0  0  0
   24.3585  -18.6062  -13.9379 O   0  0  0  0  0  0  0  0  0  0  0  0
   22.9371  -20.3218  -13.7394 O   0  0  0  0  0  0  0  0  0  0  0  0
  2  1  1  0
  2  3  2  0
  4  3  1  0
  5  4  2  0
  6  5  1  0
  7  6  1  0
  7  8  1  1
  9 20  1  0
  9  7  1  0
 10  9  2  0
 11 12  2  0
 11  5  1  0
 12  2  1  0
 13 14  1  0
 14 15  2  0
 15 16  1  0
 17 16  2  0
 17 18  1  0
 19 18  1  6
 19 20  1  0
 21 19  1  0
 21 33  1  0
 22 21  2  0
 23 17  1  0
 24 14  1  0
 24 23  2  0
 26 27  2  0
 26 25  1  0
 28 26  1  0
 29 28  1  0
 30 29  1  0
 31 30  1  0
 32 33  1  0
 32 31  1  1
 34 32  1  0
 35 34  2  0
 36 34  1  0
M  END
$$$$
