YYR.pdb
     RDKit          3D

 36 37  0  0  1  0  0  0  0  0999 V2000
   24.5399  -13.5771  -24.8032 O   0  0  0  0  0  0  0  0  0  0  0  0
   24.1113  -14.3957  -23.7633 C   0  0  0  0  0  0  0  0  0  0  0  0
   23.9689  -13.9098  -22.4722 C   0  0  0  0  0  0  0  0  0  0  0  0
   23.5485  -14.7212  -21.4648 C   0  0  0  0  0  0  0  0  0  0  0  0
   23.2602  -16.0550  -21.7461 C   0  0  0  0  0  0  0  0  0  0  0  0
   22.8154  -16.9764  -20.7031 C   0  0  0  0  0  0  0  0  0  0  0  0
   23.8231  -17.2670  -19.6256 C   0  0  2  0  0  0  0  0  0  0  0  0
   24.9305  -18.0017  -20.2235 N   0  0  0  0  0  0  0  0  0  0  0  0
   23.1966  -18.0548  -18.5608 C   0  0  0  0  0  0  0  0  0  0  0  0
   23.4281  -19.2877  -18.4842 O   0  0  0  0  0  0  0  0  0  0  0  0
   23.4039  -16.5409  -23.0433 C   0  0  0  0  0  0  0  0  0  0  0  0
   23.8292  -15.7136  -24.0537 C   0  0  0  0  0  0  0  0  0  0  0  0
   19.6940  -19.7590  -10.6456 O   0  0  0  0  0  0  0  0  0  0  0  0
   20.2814  -19.2086  -11.7947 C   0  0  0  0  0  0  0  0  0  0  0  0
   19.7162  -18.0589  -12.3167 C   0  0  0  0  0  0  0  0  0  0  0  0
   20.3332  -17.5601  -13.4461 C   0  0  0  0  0  0  0  0  0  0  0  0
   21.4303  -18.1320  -14.0406 C   0  0  0  0  0  0  0  0  0  0  0  0
   21.9933  -17.5063  -15.2362 C   0  0  0  0  0  0  0  0  0  0  0  0
   21.7760  -18.2940  -16.4981 C   0  0  2  0  0  0  0  0  0  0  0  0
   22.3298  -17.4961  -17.5941 N   0  0  0  0  0  0  0  0  0  0  0  0
   20.3692  -18.5815  -16.8084 C   0  0  0  0  0  0  0  0  0  0  0  0
   19.5908  -17.6385  -17.1270 O   0  0  0  0  0  0  0  0  0  0  0  0
   21.9612  -19.2726  -13.4920 C   0  0  0  0  0  0  0  0  0  0  0  0
   21.3786  -19.8050  -12.3654 C   0  0  0  0  0  0  0  0  0  0  0  0
   19.4554  -25.0287  -14.3370 N   0  0  0  0  0  0  0  0  0  0  0  0
   20.0492  -25.4283  -15.5945 C   0  0  0  0  0  0  0  0  0  0  0  0
   20.1323  -26.6727  -15.8455 N   0  0  0  0  0  0  0  0  0  0  0  0
   20.5153  -24.4613  -16.5002 N   0  0  0  0  0  0  0  0  0  0  0  0
   20.3550  -23.0312  -16.3255 C   0  0  0  0  0  0  0  0  0  0  0  0
   19.2292  -22.5373  -17.1559 C   0  0  0  0  0  0  0  0  0  0  0  0
   18.2241  -21.6514  -16.5506 C   0  0  0  0  0  0  0  0  0  0  0  0
   18.4018  -20.2067  -16.6810 C   0  0  2  0  0  0  0  0  0  0  0  0
   19.8461  -19.8800  -16.7652 N   0  0  0  0  0  0  0  0  0  0  0  0
   17.7616  -19.2517  -15.8458 C   0  0  0  0  0  0  0  0  0  0  0  0
   18.1292  -18.9635  -14.6771 O   0  0  0  0  0  0  0  0  0  0  0  0
   16.6351  -18.5432  -16.2877 O   0  0  0  0  0  0  0  0  0  0  0  0
  2  1  1  0
  2  3  2  0
  4  3  1  0
  5  4  2  0
  6  5  1  0
  7  6  1  0
  7  8  1  6
  9 20  1  0
  9  7  1  0
 10  9  2  0
 11 12  2  0
 11  5  1  0
 12  2  1  0
 13 14  1  0
 14 15  2  0
 15 16  1  0
 17 16  2  0
 17 18  1  0
 19 18  1  1
 19 20  1  0
 21 19  1  0
 21 33  1  0
 22 21  2  0
 23 17  1  0
 24 14  1  0
 24 23  2  0
 26 27  2  0
 26 25  1  0
 28 26  1  0
 29 28  1  0
 30 29  1  0
 31 30  1  0
 32 33  1  0
 32 31  1  1
 34 32  1  0
 35 34  2  0
 36 34  1  0
M  END
$$$$
