YYR.pdb
     RDKit          3D

 36 37  0  0  1  0  0  0  0  0999 V2000
   19.8463  -15.7325  -18.0504 O   0  0  0  0  0  0  0  0  0  0  0  0
   20.0992  -14.5545  -17.3550 C   0  0  0  0  0  0  0  0  0  0  0  0
   21.1748  -14.4440  -16.4867 C   0  0  0  0  0  0  0  0  0  0  0  0
   21.4107  -13.2860  -15.8133 C   0  0  0  0  0  0  0  0  0  0  0  0
   20.5540  -12.2045  -16.0070 C   0  0  0  0  0  0  0  0  0  0  0  0
   20.7506  -10.9392  -15.3033 C   0  0  0  0  0  0  0  0  0  0  0  0
   21.5255   -9.8945  -16.0577 C   0  0  2  0  0  0  0  0  0  0  0  0
   22.8879  -10.3791  -16.2378 N   0  0  0  0  0  0  0  0  0  0  0  0
   21.5207   -8.6360  -15.3072 C   0  0  0  0  0  0  0  0  0  0  0  0
   22.6100   -8.0655  -15.0472 O   0  0  0  0  0  0  0  0  0  0  0  0
   19.4743  -12.3175  -16.8794 C   0  0  0  0  0  0  0  0  0  0  0  0
   19.2446  -13.4911  -17.5547 C   0  0  0  0  0  0  0  0  0  0  0  0
   20.7285   -0.3304  -13.9404 O   0  0  0  0  0  0  0  0  0  0  0  0
   20.8481   -1.6999  -14.2206 C   0  0  0  0  0  0  0  0  0  0  0  0
   20.1387   -2.1989  -15.2983 C   0  0  0  0  0  0  0  0  0  0  0  0
   20.2926   -3.5510  -15.5293 C   0  0  0  0  0  0  0  0  0  0  0  0
   21.0826   -4.3770  -14.7692 C   0  0  0  0  0  0  0  0  0  0  0  0
   21.1628   -5.7951  -15.1167 C   0  0  0  0  0  0  0  0  0  0  0  0
   20.3513   -6.6904  -14.2224 C   0  0  2  0  0  0  0  0  0  0  0  0
   20.3369   -8.0131  -14.8505 N   0  0  0  0  0  0  0  0  0  0  0  0
   18.9595   -6.2635  -14.0252 C   0  0  0  0  0  0  0  0  0  0  0  0
   18.1584   -6.2625  -15.0024 O   0  0  0  0  0  0  0  0  0  0  0  0
   21.7703   -3.8432  -13.7081 C   0  0  0  0  0  0  0  0  0  0  0  0
   21.6469   -2.4995  -13.4409 C   0  0  0  0  0  0  0  0  0  0  0  0
   13.4674   -5.0535   -6.6743 N   0  0  0  0  0  0  0  0  0  0  0  0
   12.8415   -4.9828   -7.9770 C   0  0  0  0  0  0  0  0  0  0  0  0
   11.5775   -5.1121   -8.0386 N   0  0  0  0  0  0  0  0  0  0  0  0
   13.6183   -4.7777   -9.1291 N   0  0  0  0  0  0  0  0  0  0  0  0
   14.9139   -5.3847   -9.3618 C   0  0  0  0  0  0  0  0  0  0  0  0
   15.4116   -5.0262  -10.7126 C   0  0  0  0  0  0  0  0  0  0  0  0
   16.7032   -5.5608  -11.1680 C   0  0  0  0  0  0  0  0  0  0  0  0
   17.1250   -5.2854  -12.5400 C   0  0  2  0  0  0  0  0  0  0  0  0
   18.4755   -5.8509  -12.7774 N   0  0  0  0  0  0  0  0  0  0  0  0
   17.0485   -4.0041  -13.1496 C   0  0  0  0  0  0  0  0  0  0  0  0
   16.4591   -3.7629  -14.2352 O   0  0  0  0  0  0  0  0  0  0  0  0
   17.6493   -2.8838  -12.5578 O   0  0  0  0  0  0  0  0  0  0  0  0
  2  1  1  0
  2  3  2  0
  4  3  1  0
  5  4  2  0
  6  5  1  0
  7  6  1  0
  7  8  1  1
  9 20  1  0
  9  7  1  0
 10  9  2  0
 11 12  2  0
 11  5  1  0
 12  2  1  0
 13 14  1  0
 14 15  2  0
 15 16  1  0
 17 16  2  0
 17 18  1  0
 19 18  1  6
 19 20  1  0
 21 19  1  0
 21 33  1  0
 22 21  2  0
 23 17  1  0
 24 14  1  0
 24 23  2  0
 26 27  2  0
 26 25  1  0
 28 26  1  0
 29 28  1  0
 30 29  1  0
 31 30  1  0
 32 33  1  0
 32 31  1  1
 34 32  1  0
 35 34  2  0
 36 34  1  0
M  END
$$$$
