YYR.pdb
     RDKit          3D

 36 37  0  0  1  0  0  0  0  0999 V2000
   22.5204  -13.3119  -24.0215 O   0  0  0  0  0  0  0  0  0  0  0  0
   22.8504  -14.0726  -22.9045 C   0  0  0  0  0  0  0  0  0  0  0  0
   23.4340  -13.4984  -21.7853 C   0  0  0  0  0  0  0  0  0  0  0  0
   23.7512  -14.2540  -20.6997 C   0  0  0  0  0  0  0  0  0  0  0  0
   23.4811  -15.6206  -20.7245 C   0  0  0  0  0  0  0  0  0  0  0  0
   23.8094  -16.4844  -19.5928 C   0  0  0  0  0  0  0  0  0  0  0  0
   22.6786  -16.7587  -18.6405 C   0  0  2  0  0  0  0  0  0  0  0  0
   22.3031  -15.5022  -18.0051 N   0  0  0  0  0  0  0  0  0  0  0  0
   23.1028  -17.7378  -17.6365 C   0  0  0  0  0  0  0  0  0  0  0  0
   23.5166  -18.8653  -18.0067 O   0  0  0  0  0  0  0  0  0  0  0  0
   22.8950  -16.1953  -21.8496 C   0  0  0  0  0  0  0  0  0  0  0  0
   22.5785  -15.4238  -22.9408 C   0  0  0  0  0  0  0  0  0  0  0  0
   29.4188  -17.9944  -17.5579 O   0  0  0  0  0  0  0  0  0  0  0  0
   28.2362  -17.9962  -16.8031 C   0  0  0  0  0  0  0  0  0  0  0  0
   27.5894  -16.7871  -16.6204 C   0  0  0  0  0  0  0  0  0  0  0  0
   26.4318  -16.8460  -15.8711 C   0  0  0  0  0  0  0  0  0  0  0  0
   25.9237  -17.9997  -15.3281 C   0  0  0  0  0  0  0  0  0  0  0  0
   24.6863  -17.9309  -14.5522 C   0  0  0  0  0  0  0  0  0  0  0  0
   23.4858  -18.4877  -15.2656 C   0  0  2  0  0  0  0  0  0  0  0  0
   23.0739  -17.4816  -16.2467 N   0  0  0  0  0  0  0  0  0  0  0  0
   22.3358  -18.7776  -14.3988 C   0  0  0  0  0  0  0  0  0  0  0  0
   21.6467  -17.8275  -13.9306 O   0  0  0  0  0  0  0  0  0  0  0  0
   26.5955  -19.1791  -15.5320 C   0  0  0  0  0  0  0  0  0  0  0  0
   27.7541  -19.1677  -16.2734 C   0  0  0  0  0  0  0  0  0  0  0  0
   16.4649  -25.5259  -14.0221 N   0  0  0  0  0  0  0  0  0  0  0  0
   16.0334  -24.2098  -13.6033 C   0  0  0  0  0  0  0  0  0  0  0  0
   14.7842  -23.9700  -13.5850 N   0  0  0  0  0  0  0  0  0  0  0  0
   16.9759  -23.2370  -13.2315 N   0  0  0  0  0  0  0  0  0  0  0  0
   18.4109  -23.4417  -13.2410 C   0  0  0  0  0  0  0  0  0  0  0  0
   19.1059  -22.2129  -12.7849 C   0  0  0  0  0  0  0  0  0  0  0  0
   20.2110  -21.6715  -13.5894 C   0  0  0  0  0  0  0  0  0  0  0  0
   20.8599  -20.4412  -13.1408 C   0  0  2  0  0  0  0  0  0  0  0  0
   21.9649  -20.0861  -14.0644 N   0  0  0  0  0  0  0  0  0  0  0  0
   21.2852  -20.2123  -11.8044 C   0  0  0  0  0  0  0  0  0  0  0  0
   20.5163  -19.9388  -10.8463 O   0  0  0  0  0  0  0  0  0  0  0  0
   22.6417  -20.2782  -11.4550 O   0  0  0  0  0  0  0  0  0  0  0  0
  2  1  1  0
  2  3  2  0
  4  3  1  0
  5  4  2  0
  6  5  1  0
  7  6  1  0
  7  8  1  1
  9 20  1  0
  9  7  1  0
 10  9  2  0
 11 12  2  0
 11  5  1  0
 12  2  1  0
 13 14  1  0
 14 15  2  0
 15 16  1  0
 17 16  2  0
 17 18  1  0
 19 18  1  1
 19 20  1  0
 21 19  1  0
 21 33  1  0
 22 21  2  0
 23 17  1  0
 24 14  1  0
 24 23  2  0
 26 27  2  0
 26 25  1  0
 28 26  1  0
 29 28  1  0
 30 29  1  0
 31 30  1  0
 32 33  1  0
 32 31  1  1
 34 32  1  0
 35 34  2  0
 36 34  1  0
M  END
$$$$
