YYR.pdb
     RDKit          3D

 36 37  0  0  1  0  0  0  0  0999 V2000
   20.1959  -10.3871  -19.2945 O   0  0  0  0  0  0  0  0  0  0  0  0
   20.3022  -11.7311  -18.9516 C   0  0  0  0  0  0  0  0  0  0  0  0
   20.7812  -12.1252  -17.7113 C   0  0  0  0  0  0  0  0  0  0  0  0
   20.8796  -13.4430  -17.3889 C   0  0  0  0  0  0  0  0  0  0  0  0
   20.4908  -14.3990  -18.3247 C   0  0  0  0  0  0  0  0  0  0  0  0
   20.5840  -15.8290  -18.0393 C   0  0  0  0  0  0  0  0  0  0  0  0
   21.9651  -16.4166  -18.1290 C   0  0  2  0  0  0  0  0  0  0  0  0
   22.4137  -16.3170  -19.5119 N   0  0  0  0  0  0  0  0  0  0  0  0
   21.9372  -17.8159  -17.6954 C   0  0  0  0  0  0  0  0  0  0  0  0
   21.7622  -18.7248  -18.5456 O   0  0  0  0  0  0  0  0  0  0  0  0
   20.0100  -14.0012  -19.5698 C   0  0  0  0  0  0  0  0  0  0  0  0
   19.9146  -12.6680  -19.8858 C   0  0  0  0  0  0  0  0  0  0  0  0
   24.6054  -25.1224  -13.8401 O   0  0  0  0  0  0  0  0  0  0  0  0
   24.3546  -23.8144  -14.2811 C   0  0  0  0  0  0  0  0  0  0  0  0
   24.1513  -22.8407  -13.3198 C   0  0  0  0  0  0  0  0  0  0  0  0
   23.9093  -21.5726  -13.8081 C   0  0  0  0  0  0  0  0  0  0  0  0
   23.8651  -21.2570  -15.1432 C   0  0  0  0  0  0  0  0  0  0  0  0
   23.5993  -19.8734  -15.5344 C   0  0  0  0  0  0  0  0  0  0  0  0
   22.1795  -19.6203  -15.9588 C   0  0  2  0  0  0  0  0  0  0  0  0
   22.1004  -18.2108  -16.3479 N   0  0  0  0  0  0  0  0  0  0  0  0
   21.1739  -19.8630  -14.9158 C   0  0  0  0  0  0  0  0  0  0  0  0
   21.2390  -19.2338  -13.8219 O   0  0  0  0  0  0  0  0  0  0  0  0
   24.0718  -22.2520  -16.0659 C   0  0  0  0  0  0  0  0  0  0  0  0
   24.3169  -23.5313  -15.6242 C   0  0  0  0  0  0  0  0  0  0  0  0
   16.5763  -26.0639  -11.8297 N   0  0  0  0  0  0  0  0  0  0  0  0
   17.2387  -26.6751  -12.9617 C   0  0  0  0  0  0  0  0  0  0  0  0
   16.8070  -27.8005  -13.3684 N   0  0  0  0  0  0  0  0  0  0  0  0
   18.3236  -26.0341  -13.5820 N   0  0  0  0  0  0  0  0  0  0  0  0
   18.7615  -24.6862  -13.2774 C   0  0  0  0  0  0  0  0  0  0  0  0
   20.0385  -24.3936  -13.9735 C   0  0  0  0  0  0  0  0  0  0  0  0
   20.1532  -23.1701  -14.7806 C   0  0  0  0  0  0  0  0  0  0  0  0
   19.8186  -21.8915  -14.1567 C   0  0  2  0  0  0  0  0  0  0  0  0
   20.1277  -20.7783  -15.0868 N   0  0  0  0  0  0  0  0  0  0  0  0
   20.2212  -21.5212  -12.8452 C   0  0  0  0  0  0  0  0  0  0  0  0
   21.3994  -21.2261  -12.5156 O   0  0  0  0  0  0  0  0  0  0  0  0
   19.2953  -21.4599  -11.7939 O   0  0  0  0  0  0  0  0  0  0  0  0
  2  1  1  0
  2  3  2  0
  4  3  1  0
  5  4  2  0
  6  5  1  0
  7  6  1  0
  7  8  1  6
  9 20  1  0
  9  7  1  0
 10  9  2  0
 11 12  2  0
 11  5  1  0
 12  2  1  0
 13 14  1  0
 14 15  2  0
 15 16  1  0
 17 16  2  0
 17 18  1  0
 19 18  1  1
 19 20  1  0
 21 19  1  0
 21 33  1  0
 22 21  2  0
 23 17  1  0
 24 14  1  0
 24 23  2  0
 26 27  2  0
 26 25  1  0
 28 26  1  0
 29 28  1  0
 30 29  1  0
 31 30  1  0
 32 33  1  0
 32 31  1  6
 34 32  1  0
 35 34  2  0
 36 34  1  0
M  END
$$$$
