YYR.pdb
     RDKit          3D

 36 37  0  0  1  0  0  0  0  0999 V2000
    7.2623  -13.2845  -10.6408 O   0  0  0  0  0  0  0  0  0  0  0  0
    8.4599  -12.7718  -11.1286 C   0  0  0  0  0  0  0  0  0  0  0  0
    8.5614  -12.2746  -12.4192 C   0  0  0  0  0  0  0  0  0  0  0  0
    9.7386  -11.7758  -12.8833 C   0  0  0  0  0  0  0  0  0  0  0  0
   10.8491  -11.7696  -12.0419 C   0  0  0  0  0  0  0  0  0  0  0  0
   12.1423  -11.2568  -12.4883 C   0  0  0  0  0  0  0  0  0  0  0  0
   12.9749  -12.2166  -13.2922 C   0  0  2  0  0  0  0  0  0  0  0  0
   13.4367  -13.2748  -12.4030 N   0  0  0  0  0  0  0  0  0  0  0  0
   14.1123  -11.5089  -13.8859 C   0  0  0  0  0  0  0  0  0  0  0  0
   15.0856  -11.1822  -13.1610 O   0  0  0  0  0  0  0  0  0  0  0  0
   10.7451  -12.2695  -10.7461 C   0  0  0  0  0  0  0  0  0  0  0  0
    9.5519  -12.7710  -10.2869 C   0  0  0  0  0  0  0  0  0  0  0  0
   18.5698  -15.9164  -15.8800 O   0  0  0  0  0  0  0  0  0  0  0  0
   17.8832  -14.7276  -16.1688 C   0  0  0  0  0  0  0  0  0  0  0  0
   16.5095  -14.7989  -16.3150 C   0  0  0  0  0  0  0  0  0  0  0  0
   15.8845  -13.6012  -16.5979 C   0  0  0  0  0  0  0  0  0  0  0  0
   16.5407  -12.4031  -16.7327 C   0  0  0  0  0  0  0  0  0  0  0  0
   15.7640  -11.2014  -17.0337 C   0  0  0  0  0  0  0  0  0  0  0  0
   15.3206  -10.4393  -15.8161 C   0  0  2  0  0  0  0  0  0  0  0  0
   14.1798  -11.1665  -15.2556 N   0  0  0  0  0  0  0  0  0  0  0  0
   14.8973   -9.0570  -16.0770 C   0  0  0  0  0  0  0  0  0  0  0  0
   13.7457   -8.8305  -16.5451 O   0  0  0  0  0  0  0  0  0  0  0  0
   17.9045  -12.3745  -16.5804 C   0  0  0  0  0  0  0  0  0  0  0  0
   18.5692  -13.5450  -16.2974 C   0  0  0  0  0  0  0  0  0  0  0  0
   17.4857   -1.6832  -14.5705 N   0  0  0  0  0  0  0  0  0  0  0  0
   16.1250   -1.2152  -14.4181 C   0  0  0  0  0  0  0  0  0  0  0  0
   15.8864    0.0114  -14.6564 N   0  0  0  0  0  0  0  0  0  0  0  0
   15.1094   -2.0992  -14.0182 N   0  0  0  0  0  0  0  0  0  0  0  0
   15.3179   -3.5003  -13.7101 C   0  0  0  0  0  0  0  0  0  0  0  0
   15.2792   -4.3087  -14.9535 C   0  0  0  0  0  0  0  0  0  0  0  0
   15.4247   -5.7691  -14.8661 C   0  0  0  0  0  0  0  0  0  0  0  0
   15.3778   -6.5477  -16.1020 C   0  0  2  0  0  0  0  0  0  0  0  0
   15.7315   -7.9610  -15.8235 N   0  0  0  0  0  0  0  0  0  0  0  0
   16.0018   -6.1471  -17.3142 C   0  0  0  0  0  0  0  0  0  0  0  0
   16.9258   -6.7817  -17.8864 O   0  0  0  0  0  0  0  0  0  0  0  0
   15.6131   -4.9729  -17.9749 O   0  0  0  0  0  0  0  0  0  0  0  0
  2  1  1  0
  2  3  2  0
  4  3  1  0
  5  4  2  0
  6  5  1  0
  7  6  1  0
  7  8  1  1
  9 20  1  0
  9  7  1  0
 10  9  2  0
 11 12  2  0
 11  5  1  0
 12  2  1  0
 13 14  1  0
 14 15  2  0
 15 16  1  0
 17 16  2  0
 17 18  1  0
 19 18  1  6
 19 20  1  0
 21 19  1  0
 21 33  1  0
 22 21  2  0
 23 17  1  0
 24 14  1  0
 24 23  2  0
 26 27  2  0
 26 25  1  0
 28 26  1  0
 29 28  1  0
 30 29  1  0
 31 30  1  0
 32 33  1  0
 32 31  1  1
 34 32  1  0
 35 34  2  0
 36 34  1  0
M  END
$$$$
