YYR.pdb
     RDKit          3D

 36 37  0  0  1  0  0  0  0  0999 V2000
   29.0568  -19.7398  -20.1093 O   0  0  0  0  0  0  0  0  0  0  0  0
   28.8994  -20.0073  -18.7532 C   0  0  0  0  0  0  0  0  0  0  0  0
   28.9682  -18.9984  -17.8043 C   0  0  0  0  0  0  0  0  0  0  0  0
   28.8121  -19.2740  -16.4816 C   0  0  0  0  0  0  0  0  0  0  0  0
   28.5804  -20.5902  -16.0877 C   0  0  0  0  0  0  0  0  0  0  0  0
   28.4157  -20.9484  -14.6808 C   0  0  0  0  0  0  0  0  0  0  0  0
   27.0121  -21.2863  -14.2606 C   0  0  2  0  0  0  0  0  0  0  0  0
   26.1259  -20.2360  -14.7455 N   0  0  0  0  0  0  0  0  0  0  0  0
   26.9426  -21.3864  -12.8004 C   0  0  0  0  0  0  0  0  0  0  0  0
   27.4754  -22.3658  -12.2204 O   0  0  0  0  0  0  0  0  0  0  0  0
   28.5116  -21.6020  -17.0422 C   0  0  0  0  0  0  0  0  0  0  0  0
   28.6707  -21.3134  -18.3755 C   0  0  0  0  0  0  0  0  0  0  0  0
   27.3248  -19.9083   -4.3077 O   0  0  0  0  0  0  0  0  0  0  0  0
   27.2658  -19.8376   -5.7077 C   0  0  0  0  0  0  0  0  0  0  0  0
   26.5051  -18.8271   -6.2680 C   0  0  0  0  0  0  0  0  0  0  0  0
   26.4821  -18.8036   -7.6478 C   0  0  0  0  0  0  0  0  0  0  0  0
   27.1512  -19.6988   -8.4446 C   0  0  0  0  0  0  0  0  0  0  0  0
   27.0473  -19.5678   -9.8972 C   0  0  0  0  0  0  0  0  0  0  0  0
   26.1627  -20.5981  -10.5420 C   0  0  2  0  0  0  0  0  0  0  0  0
   26.2984  -20.4242  -11.9897 N   0  0  0  0  0  0  0  0  0  0  0  0
   24.7384  -20.4854  -10.2003 C   0  0  0  0  0  0  0  0  0  0  0  0
   24.3891  -20.3799   -8.9905 O   0  0  0  0  0  0  0  0  0  0  0  0
   27.8951  -20.6872   -7.8499 C   0  0  0  0  0  0  0  0  0  0  0  0
   27.9470  -20.7486   -6.4767 C   0  0  0  0  0  0  0  0  0  0  0  0
   18.4787  -17.5624  -15.6149 N   0  0  0  0  0  0  0  0  0  0  0  0
   19.1284  -16.8865  -14.5127 C   0  0  0  0  0  0  0  0  0  0  0  0
   19.2022  -15.6171  -14.5523 N   0  0  0  0  0  0  0  0  0  0  0  0
   19.6569  -17.6221  -13.4393 N   0  0  0  0  0  0  0  0  0  0  0  0
   19.4743  -19.0484  -13.2555 C   0  0  0  0  0  0  0  0  0  0  0  0
   20.1813  -19.5013  -12.0324 C   0  0  0  0  0  0  0  0  0  0  0  0
   21.6310  -19.7395  -12.0868 C   0  0  0  0  0  0  0  0  0  0  0  0
   22.2901  -20.2905  -10.9044 C   0  0  2  0  0  0  0  0  0  0  0  0
   23.7344  -20.4898  -11.1768 N   0  0  0  0  0  0  0  0  0  0  0  0
   21.8010  -21.4066  -10.1735 C   0  0  0  0  0  0  0  0  0  0  0  0
   22.0169  -22.6092  -10.4754 O   0  0  0  0  0  0  0  0  0  0  0  0
   21.0151  -21.2321   -9.0253 O   0  0  0  0  0  0  0  0  0  0  0  0
  2  1  1  0
  2  3  2  0
  4  3  1  0
  5  4  2  0
  6  5  1  0
  7  6  1  0
  7  8  1  1
  9 20  1  0
  9  7  1  0
 10  9  2  0
 11 12  2  0
 11  5  1  0
 12  2  1  0
 13 14  1  0
 14 15  2  0
 15 16  1  0
 17 16  2  0
 17 18  1  0
 19 18  1  1
 19 20  1  0
 21 19  1  0
 21 33  1  0
 22 21  2  0
 23 17  1  0
 24 14  1  0
 24 23  2  0
 26 27  2  0
 26 25  1  0
 28 26  1  0
 29 28  1  0
 30 29  1  0
 31 30  1  0
 32 33  1  0
 32 31  1  6
 34 32  1  0
 35 34  2  0
 36 34  1  0
M  END
$$$$
