YYR.pdb
     RDKit          3D

 36 37  0  0  1  0  0  0  0  0999 V2000
   18.1613  -15.8629  -23.5086 O   0  0  0  0  0  0  0  0  0  0  0  0
   18.9227  -16.5423  -22.5631 C   0  0  0  0  0  0  0  0  0  0  0  0
   18.5829  -16.5326  -21.2186 C   0  0  0  0  0  0  0  0  0  0  0  0
   19.3362  -17.2016  -20.3047 C   0  0  0  0  0  0  0  0  0  0  0  0
   20.4604  -17.9017  -20.7372 C   0  0  0  0  0  0  0  0  0  0  0  0
   21.3135  -18.6296  -19.8006 C   0  0  0  0  0  0  0  0  0  0  0  0
   22.2358  -17.7788  -18.9723 C   0  0  2  0  0  0  0  0  0  0  0  0
   23.2895  -17.2699  -19.8409 N   0  0  0  0  0  0  0  0  0  0  0  0
   22.8054  -18.5791  -17.8851 C   0  0  0  0  0  0  0  0  0  0  0  0
   23.4975  -19.5920  -18.1582 O   0  0  0  0  0  0  0  0  0  0  0  0
   20.7999  -17.9101  -22.0878 C   0  0  0  0  0  0  0  0  0  0  0  0
   20.0329  -17.2314  -23.0029 C   0  0  0  0  0  0  0  0  0  0  0  0
   29.0257  -17.3909  -17.5821 O   0  0  0  0  0  0  0  0  0  0  0  0
   27.8194  -17.5564  -16.8850 C   0  0  0  0  0  0  0  0  0  0  0  0
   27.6596  -18.7138  -16.1444 C   0  0  0  0  0  0  0  0  0  0  0  0
   26.4556  -18.8252  -15.4788 C   0  0  0  0  0  0  0  0  0  0  0  0
   25.4616  -17.8796  -15.5215 C   0  0  0  0  0  0  0  0  0  0  0  0
   24.2290  -18.1148  -14.7709 C   0  0  0  0  0  0  0  0  0  0  0  0
   23.2644  -19.0429  -15.4552 C   0  0  2  0  0  0  0  0  0  0  0  0
   22.6181  -18.2706  -16.5184 N   0  0  0  0  0  0  0  0  0  0  0  0
   22.2144  -19.5886  -14.5847 C   0  0  0  0  0  0  0  0  0  0  0  0
   21.1158  -18.9758  -14.4655 O   0  0  0  0  0  0  0  0  0  0  0  0
   25.6589  -16.7449  -16.2682 C   0  0  0  0  0  0  0  0  0  0  0  0
   26.8447  -16.5914  -16.9482 C   0  0  0  0  0  0  0  0  0  0  0  0
   27.2403  -21.8323  -11.3413 N   0  0  0  0  0  0  0  0  0  0  0  0
   27.0294  -20.4009  -11.3543 C   0  0  0  0  0  0  0  0  0  0  0  0
   27.8102  -19.6899  -12.0637 N   0  0  0  0  0  0  0  0  0  0  0  0
   25.9909  -19.8280  -10.6019 N   0  0  0  0  0  0  0  0  0  0  0  0
   25.1013  -20.5738   -9.7337 C   0  0  0  0  0  0  0  0  0  0  0  0
   23.7546  -20.6765  -10.3477 C   0  0  0  0  0  0  0  0  0  0  0  0
   23.6371  -20.7808  -11.8094 C   0  0  0  0  0  0  0  0  0  0  0  0
   22.3025  -20.8990  -12.3931 C   0  0  2  0  0  0  0  0  0  0  0  0
   22.3834  -20.7807  -13.8694 N   0  0  0  0  0  0  0  0  0  0  0  0
   21.1706  -20.1728  -11.9343 C   0  0  0  0  0  0  0  0  0  0  0  0
   20.9925  -18.9395  -12.1114 O   0  0  0  0  0  0  0  0  0  0  0  0
   20.1406  -20.8087  -11.2264 O   0  0  0  0  0  0  0  0  0  0  0  0
  2  1  1  0
  2  3  2  0
  4  3  1  0
  5  4  2  0
  6  5  1  0
  7  6  1  0
  7  8  1  6
  9 20  1  0
  9  7  1  0
 10  9  2  0
 11 12  2  0
 11  5  1  0
 12  2  1  0
 13 14  1  0
 14 15  2  0
 15 16  1  0
 17 16  2  0
 17 18  1  0
 19 18  1  1
 19 20  1  0
 21 19  1  0
 21 33  1  0
 22 21  2  0
 23 17  1  0
 24 14  1  0
 24 23  2  0
 26 27  2  0
 26 25  1  0
 28 26  1  0
 29 28  1  0
 30 29  1  0
 31 30  1  0
 32 33  1  0
 32 31  1  1
 34 32  1  0
 35 34  2  0
 36 34  1  0
M  END
$$$$
