YYR.pdb
     RDKit          3D

 36 37  0  0  1  0  0  0  0  0999 V2000
   21.2469  -21.9345  -25.2129 O   0  0  0  0  0  0  0  0  0  0  0  0
   21.5168  -21.9399  -23.8482 C   0  0  0  0  0  0  0  0  0  0  0  0
   21.2849  -20.8221  -23.0609 C   0  0  0  0  0  0  0  0  0  0  0  0
   21.5529  -20.8412  -21.7275 C   0  0  0  0  0  0  0  0  0  0  0  0
   22.0663  -22.0042  -21.1574 C   0  0  0  0  0  0  0  0  0  0  0  0
   22.3837  -22.0807  -19.7333 C   0  0  0  0  0  0  0  0  0  0  0  0
   23.5908  -21.2969  -19.2979 C   0  0  2  0  0  0  0  0  0  0  0  0
   24.7756  -21.9400  -19.8512 N   0  0  0  0  0  0  0  0  0  0  0  0
   23.6582  -21.2631  -17.8346 C   0  0  0  0  0  0  0  0  0  0  0  0
   24.3051  -22.1506  -17.2235 O   0  0  0  0  0  0  0  0  0  0  0  0
   22.2985  -23.1257  -21.9499 C   0  0  0  0  0  0  0  0  0  0  0  0
   22.0246  -23.0963  -23.2954 C   0  0  0  0  0  0  0  0  0  0  0  0
   28.9271  -18.1292  -17.8325 O   0  0  0  0  0  0  0  0  0  0  0  0
   27.6594  -18.2733  -17.2491 C   0  0  0  0  0  0  0  0  0  0  0  0
   27.5788  -18.9582  -16.0498 C   0  0  0  0  0  0  0  0  0  0  0  0
   26.3092  -19.0703  -15.5201 C   0  0  0  0  0  0  0  0  0  0  0  0
   25.1812  -18.5545  -16.1078 C   0  0  0  0  0  0  0  0  0  0  0  0
   23.8908  -18.7403  -15.4458 C   0  0  0  0  0  0  0  0  0  0  0  0
   23.3037  -20.1126  -15.6254 C   0  0  2  0  0  0  0  0  0  0  0  0
   23.0253  -20.2686  -17.0546 N   0  0  0  0  0  0  0  0  0  0  0  0
   22.0546  -20.3477  -14.8887 C   0  0  0  0  0  0  0  0  0  0  0  0
   20.9936  -19.7634  -15.2486 O   0  0  0  0  0  0  0  0  0  0  0  0
   25.3034  -17.8817  -17.2980 C   0  0  0  0  0  0  0  0  0  0  0  0
   26.5502  -17.7453  -17.8625 C   0  0  0  0  0  0  0  0  0  0  0  0
   19.0395  -25.3492   -9.2262 N   0  0  0  0  0  0  0  0  0  0  0  0
   17.7861  -24.7971   -9.6930 C   0  0  0  0  0  0  0  0  0  0  0  0
   16.7980  -24.8011   -8.8918 N   0  0  0  0  0  0  0  0  0  0  0  0
   17.6784  -24.2768  -10.9932 N   0  0  0  0  0  0  0  0  0  0  0  0
   18.7816  -24.1743  -11.9280 C   0  0  0  0  0  0  0  0  0  0  0  0
   19.7772  -23.1895  -11.4384 C   0  0  0  0  0  0  0  0  0  0  0  0
   20.8693  -22.7685  -12.3281 C   0  0  0  0  0  0  0  0  0  0  0  0
   20.7669  -21.4684  -12.9877 C   0  0  2  0  0  0  0  0  0  0  0  0
   21.9900  -21.2078  -13.7853 N   0  0  0  0  0  0  0  0  0  0  0  0
   20.3868  -20.2713  -12.3231 C   0  0  0  0  0  0  0  0  0  0  0  0
   21.1932  -19.4122  -11.8805 O   0  0  0  0  0  0  0  0  0  0  0  0
   19.0365  -19.9596  -12.1088 O   0  0  0  0  0  0  0  0  0  0  0  0
  2  1  1  0
  2  3  2  0
  4  3  1  0
  5  4  2  0
  6  5  1  0
  7  6  1  0
  7  8  1  6
  9 20  1  0
  9  7  1  0
 10  9  2  0
 11 12  2  0
 11  5  1  0
 12  2  1  0
 13 14  1  0
 14 15  2  0
 15 16  1  0
 17 16  2  0
 17 18  1  0
 19 18  1  6
 19 20  1  0
 21 19  1  0
 21 33  1  0
 22 21  2  0
 23 17  1  0
 24 14  1  0
 24 23  2  0
 26 27  2  0
 26 25  1  0
 28 26  1  0
 29 28  1  0
 30 29  1  0
 31 30  1  0
 32 33  1  0
 32 31  1  1
 34 32  1  0
 35 34  2  0
 36 34  1  0
M  END
$$$$
