WPP.pdb
     RDKit          3D

 29 32  0  0  1  0  0  0  0  0999 V2000
    6.3513  -17.7556   23.8217 N   0  0  0  0  0  0  0  0  0  0  0  0
    6.7003  -16.3964   23.3796 C   0  0  1  0  0  0  0  0  0  0  0  0
    7.6311  -15.7529   24.3855 C   0  0  0  0  0  0  0  0  0  0  0  0
    6.8918  -14.9750   25.4025 C   0  0  0  0  0  0  0  0  0  0  0  0
    5.7673  -15.3431   26.0976 C   0  0  0  0  0  0  0  0  0  0  0  0
    5.4768  -14.2947   26.9077 N   0  0  0  0  0  0  0  0  0  0  0  0
    6.3773  -13.3045   26.7348 C   0  0  0  0  0  0  0  0  0  0  0  0
    6.5126  -12.0562   27.3148 C   0  0  0  0  0  0  0  0  0  0  0  0
    7.5304  -11.2140   26.9661 C   0  0  0  0  0  0  0  0  0  0  0  0
    8.4545  -11.6161   26.0059 C   0  0  0  0  0  0  0  0  0  0  0  0
    8.3253  -12.8621   25.4225 C   0  0  0  0  0  0  0  0  0  0  0  0
    7.2928  -13.7030   25.7839 C   0  0  0  0  0  0  0  0  0  0  0  0
    7.4298  -16.5586   22.0870 C   0  0  0  0  0  0  0  0  0  0  0  0
    7.7143  -17.7253   21.6744 O   0  0  0  0  0  0  0  0  0  0  0  0
    7.7874  -15.4076   21.3489 N   0  0  0  0  0  0  0  0  0  0  0  0
    7.5392  -14.0345   21.7113 C   0  0  0  0  0  0  0  0  0  0  0  0
    7.3484  -13.3798   20.3301 C   0  0  0  0  0  0  0  0  0  0  0  0
    8.4863  -14.0150   19.5629 C   0  0  0  0  0  0  0  0  0  0  0  0
    8.4751  -15.4399   20.0727 C   0  0  1  0  0  0  0  0  0  0  0  0
    9.8387  -15.9815   20.2276 C   0  0  0  0  0  0  0  0  0  0  0  0
   10.3326  -16.0028   21.4003 O   0  0  0  0  0  0  0  0  0  0  0  0
   10.6113  -16.4713   19.1440 N   0  0  0  0  0  0  0  0  0  0  0  0
   10.2273  -16.5184   17.7540 C   0  0  0  0  0  0  0  0  0  0  0  0
   10.8639  -17.7812   17.2557 C   0  0  0  0  0  0  0  0  0  0  0  0
   11.8110  -18.2632   18.3449 C   0  0  0  0  0  0  0  0  0  0  0  0
   11.9445  -17.0226   19.2120 C   0  0  1  0  0  0  0  0  0  0  0  0
   12.9813  -16.1076   18.7553 C   0  0  0  0  0  0  0  0  0  0  0  0
   12.7571  -15.3307   17.7984 O   0  0  0  0  0  0  0  0  0  0  0  0
   14.2198  -16.0854   19.3687 O   0  0  0  0  0  0  0  0  0  0  0  0
  2  1  1  1
  2 13  1  0
  3  4  1  0
  3  2  1  0
  4 12  1  0
  5  6  1  0
  5  4  2  0
  6  7  1  0
  7 12  2  0
  7  8  1  0
  8  9  2  0
  9 10  1  0
 11 10  2  0
 12 11  1  0
 13 14  2  0
 13 15  1  0
 15 16  1  0
 16 17  1  0
 18 17  1  0
 19 20  1  1
 19 15  1  0
 19 18  1  0
 20 21  2  0
 22 20  1  0
 23 24  1  0
 23 22  1  0
 25 26  1  0
 25 24  1  0
 26 22  1  0
 26 27  1  6
 27 28  2  0
 27 29  1  0
M  END
$$$$
