WPP.pdb
     RDKit          3D

 29 32  0  0  1  0  0  0  0  0999 V2000
    6.1395  -18.0326   24.5975 N   0  0  0  0  0  0  0  0  0  0  0  0
    6.5828  -16.7558   24.0163 C   0  0  1  0  0  0  0  0  0  0  0  0
    7.5485  -16.0704   24.9596 C   0  0  0  0  0  0  0  0  0  0  0  0
    6.8767  -15.0482   25.7902 C   0  0  0  0  0  0  0  0  0  0  0  0
    5.6708  -15.1425   26.4384 C   0  0  0  0  0  0  0  0  0  0  0  0
    5.4949  -13.9508   27.0619 N   0  0  0  0  0  0  0  0  0  0  0  0
    6.5430  -13.1356   26.8204 C   0  0  0  0  0  0  0  0  0  0  0  0
    6.8309  -11.8439   27.2223 C   0  0  0  0  0  0  0  0  0  0  0  0
    7.9827  -11.2172   26.8384 C   0  0  0  0  0  0  0  0  0  0  0  0
    8.8901  -11.8891   26.0243 C   0  0  0  0  0  0  0  0  0  0  0  0
    8.6088  -13.1800   25.6192 C   0  0  0  0  0  0  0  0  0  0  0  0
    7.4419  -13.8013   26.0143 C   0  0  0  0  0  0  0  0  0  0  0  0
    7.3080  -17.1056   22.7590 C   0  0  0  0  0  0  0  0  0  0  0  0
    7.6082  -18.3180   22.5297 O   0  0  0  0  0  0  0  0  0  0  0  0
    7.6442  -16.0777   21.8490 N   0  0  0  0  0  0  0  0  0  0  0  0
    7.3036  -14.6810   21.9556 C   0  0  0  0  0  0  0  0  0  0  0  0
    7.1549  -14.2850   20.4745 C   0  0  0  0  0  0  0  0  0  0  0  0
    8.3657  -14.9702   19.8817 C   0  0  0  0  0  0  0  0  0  0  0  0
    8.4021  -16.2849   20.6303 C   0  0  1  0  0  0  0  0  0  0  0  0
    9.7819  -16.7066   20.9386 C   0  0  0  0  0  0  0  0  0  0  0  0
   10.2149  -16.4852   22.1147 O   0  0  0  0  0  0  0  0  0  0  0  0
   10.6338  -17.3375   19.9965 N   0  0  0  0  0  0  0  0  0  0  0  0
   10.3504  -17.5972   18.6059 C   0  0  0  0  0  0  0  0  0  0  0  0
   11.0307  -18.9081   18.3471 C   0  0  0  0  0  0  0  0  0  0  0  0
   11.9013  -19.2058   19.5591 C   0  0  0  0  0  0  0  0  0  0  0  0
   11.9629  -17.8481   20.2385 C   0  0  1  0  0  0  0  0  0  0  0  0
   13.0225  -16.9922   19.7235 C   0  0  0  0  0  0  0  0  0  0  0  0
   12.8985  -16.4422   18.6048 O   0  0  0  0  0  0  0  0  0  0  0  0
   14.1731  -16.7773   20.4590 O   0  0  0  0  0  0  0  0  0  0  0  0
  2  1  1  1
  2 13  1  0
  3  4  1  0
  3  2  1  0
  4 12  1  0
  5  6  1  0
  5  4  2  0
  6  7  1  0
  7 12  2  0
  7  8  1  0
  8  9  2  0
  9 10  1  0
 11 10  2  0
 12 11  1  0
 13 14  2  0
 13 15  1  0
 15 16  1  0
 16 17  1  0
 18 17  1  0
 19 20  1  1
 19 15  1  0
 19 18  1  0
 20 21  2  0
 22 20  1  0
 23 24  1  0
 23 22  1  0
 25 26  1  0
 25 24  1  0
 26 22  1  0
 26 27  1  6
 27 28  2  0
 27 29  1  0
M  END
$$$$
