WPP.pdb
     RDKit          3D

 29 32  0  0  1  0  0  0  0  0999 V2000
    6.2822  -18.4268   26.8634 N   0  0  0  0  0  0  0  0  0  0  0  0
    7.1186  -17.2269   26.7041 C   0  0  1  0  0  0  0  0  0  0  0  0
    8.5766  -17.6254   26.6177 C   0  0  0  0  0  0  0  0  0  0  0  0
    9.3272  -17.2385   27.8313 C   0  0  0  0  0  0  0  0  0  0  0  0
    9.6838  -18.0295   28.8945 C   0  0  0  0  0  0  0  0  0  0  0  0
   10.3572  -17.2172   29.7469 N   0  0  0  0  0  0  0  0  0  0  0  0
   10.4254  -15.9655   29.2469 C   0  0  0  0  0  0  0  0  0  0  0  0
   10.9943  -14.7999   29.7271 C   0  0  0  0  0  0  0  0  0  0  0  0
   10.9301  -13.6314   29.0219 C   0  0  0  0  0  0  0  0  0  0  0  0
   10.2785  -13.6078   27.7921 C   0  0  0  0  0  0  0  0  0  0  0  0
    9.7080  -14.7689   27.3062 C   0  0  0  0  0  0  0  0  0  0  0  0
    9.7802  -15.9423   28.0286 C   0  0  0  0  0  0  0  0  0  0  0  0
    6.7123  -16.6115   25.4058 C   0  0  0  0  0  0  0  0  0  0  0  0
    6.1808  -17.3389   24.5109 O   0  0  0  0  0  0  0  0  0  0  0  0
    6.9274  -15.2296   25.2014 N   0  0  0  0  0  0  0  0  0  0  0  0
    7.2054  -14.2378   26.2101 C   0  0  0  0  0  0  0  0  0  0  0  0
    6.5343  -12.9886   25.6086 C   0  0  0  0  0  0  0  0  0  0  0  0
    6.9871  -13.0967   24.1698 C   0  0  0  0  0  0  0  0  0  0  0  0
    6.8937  -14.5835   23.9037 C   0  0  1  0  0  0  0  0  0  0  0  0
    7.9997  -15.0626   23.0528 C   0  0  0  0  0  0  0  0  0  0  0  0
    8.8067  -15.9068   23.5584 O   0  0  0  0  0  0  0  0  0  0  0  0
    8.2001  -14.6301   21.7172 N   0  0  0  0  0  0  0  0  0  0  0  0
    7.5592  -13.5179   21.0584 C   0  0  0  0  0  0  0  0  0  0  0  0
    7.3977  -13.9918   19.6450 C   0  0  0  0  0  0  0  0  0  0  0  0
    8.2048  -15.2747   19.5096 C   0  0  0  0  0  0  0  0  0  0  0  0
    9.0906  -15.2161   20.7428 C   0  0  1  0  0  0  0  0  0  0  0  0
   10.3164  -14.4571   20.5377 C   0  0  0  0  0  0  0  0  0  0  0  0
   11.3222  -15.0109   20.0365 O   0  0  0  0  0  0  0  0  0  0  0  0
   10.3852  -13.1228   20.8922 O   0  0  0  0  0  0  0  0  0  0  0  0
  2  1  1  6
  2 13  1  0
  3  4  1  0
  3  2  1  0
  4 12  1  0
  5  6  1  0
  5  4  2  0
  6  7  1  0
  7 12  2  0
  7  8  1  0
  8  9  2  0
  9 10  1  0
 11 10  2  0
 12 11  1  0
 13 14  2  0
 13 15  1  0
 15 16  1  0
 16 17  1  0
 18 17  1  0
 19 20  1  6
 19 15  1  0
 19 18  1  0
 20 21  2  0
 22 20  1  0
 23 24  1  0
 23 22  1  0
 25 26  1  0
 25 24  1  0
 26 22  1  0
 26 27  1  6
 27 28  2  0
 27 29  1  0
M  END
$$$$
