WPP.pdb
     RDKit          3D

 29 32  0  0  1  0  0  0  0  0999 V2000
    5.9570  -16.7686   25.2135 N   0  0  0  0  0  0  0  0  0  0  0  0
    6.9255  -15.8507   24.5935 C   0  0  1  0  0  0  0  0  0  0  0  0
    8.2794  -16.0124   25.2516 C   0  0  0  0  0  0  0  0  0  0  0  0
    8.5254  -14.9701   26.2710 C   0  0  0  0  0  0  0  0  0  0  0  0
    9.4691  -14.9660   27.2672 C   0  0  0  0  0  0  0  0  0  0  0  0
    9.2946  -13.7973   27.9334 N   0  0  0  0  0  0  0  0  0  0  0  0
    8.2848  -13.0903   27.3841 C   0  0  0  0  0  0  0  0  0  0  0  0
    7.7307  -11.8617   27.6946 C   0  0  0  0  0  0  0  0  0  0  0  0
    6.6902  -11.3459   26.9748 C   0  0  0  0  0  0  0  0  0  0  0  0
    6.1720  -12.0690   25.9042 C   0  0  0  0  0  0  0  0  0  0  0  0
    6.7210  -13.2973   25.5884 C   0  0  0  0  0  0  0  0  0  0  0  0
    7.7718  -13.8066   26.3235 C   0  0  0  0  0  0  0  0  0  0  0  0
    7.0340  -16.2705   23.1648 C   0  0  0  0  0  0  0  0  0  0  0  0
    6.7425  -17.4636   22.8422 O   0  0  0  0  0  0  0  0  0  0  0  0
    7.4584  -15.3284   22.2005 N   0  0  0  0  0  0  0  0  0  0  0  0
    7.7400  -13.9316   22.4195 C   0  0  0  0  0  0  0  0  0  0  0  0
    7.3251  -13.3171   21.0694 C   0  0  0  0  0  0  0  0  0  0  0  0
    7.9353  -14.3155   20.1115 C   0  0  0  0  0  0  0  0  0  0  0  0
    7.6752  -15.6376   20.8005 C   0  0  1  0  0  0  0  0  0  0  0  0
    8.8036  -16.5746   20.6410 C   0  0  0  0  0  0  0  0  0  0  0  0
    9.5263  -16.8032   21.6634 O   0  0  0  0  0  0  0  0  0  0  0  0
    9.1137  -17.2213   19.4176 N   0  0  0  0  0  0  0  0  0  0  0  0
    8.4201  -17.0812   18.1603 C   0  0  0  0  0  0  0  0  0  0  0  0
    8.5050  -18.4513   17.5571 C   0  0  0  0  0  0  0  0  0  0  0  0
    9.4862  -19.2507   18.4019 C   0  0  0  0  0  0  0  0  0  0  0  0
   10.1914  -18.1532   19.1810 C   0  0  1  0  0  0  0  0  0  0  0  0
   11.3215  -17.5739   18.4682 C   0  0  0  0  0  0  0  0  0  0  0  0
   11.1292  -16.7130   17.5786 O   0  0  0  0  0  0  0  0  0  0  0  0
   12.6142  -17.9651   18.7627 O   0  0  0  0  0  0  0  0  0  0  0  0
  2  1  1  1
  2 13  1  0
  3  4  1  0
  3  2  1  0
  4 12  1  0
  5  6  1  0
  5  4  2  0
  6  7  1  0
  7 12  2  0
  7  8  1  0
  8  9  2  0
  9 10  1  0
 11 10  2  0
 12 11  1  0
 13 14  2  0
 13 15  1  0
 15 16  1  0
 16 17  1  0
 18 17  1  0
 19 20  1  1
 19 15  1  0
 19 18  1  0
 20 21  2  0
 22 20  1  0
 23 24  1  0
 23 22  1  0
 25 26  1  0
 25 24  1  0
 26 22  1  0
 26 27  1  6
 27 28  2  0
 27 29  1  0
M  END
$$$$
