WPP.pdb
     RDKit          3D

 29 32  0  0  1  0  0  0  0  0999 V2000
    6.1489  -18.4502   24.8384 N   0  0  0  0  0  0  0  0  0  0  0  0
    6.5951  -17.1009   24.4576 C   0  0  1  0  0  0  0  0  0  0  0  0
    7.3939  -16.4867   25.5876 C   0  0  0  0  0  0  0  0  0  0  0  0
    6.7330  -15.2856   26.1413 C   0  0  0  0  0  0  0  0  0  0  0  0
    5.4012  -15.1036   26.4178 C   0  0  0  0  0  0  0  0  0  0  0  0
    5.2971  -13.8433   26.9086 N   0  0  0  0  0  0  0  0  0  0  0  0
    6.5094  -13.2513   26.9425 C   0  0  0  0  0  0  0  0  0  0  0  0
    6.9223  -11.9959   27.3505 C   0  0  0  0  0  0  0  0  0  0  0  0
    8.2346  -11.6207   27.2867 C   0  0  0  0  0  0  0  0  0  0  0  0
    9.1813  -12.5180   26.8006 C   0  0  0  0  0  0  0  0  0  0  0  0
    8.7756  -13.7740   26.3913 C   0  0  0  0  0  0  0  0  0  0  0  0
    7.4471  -14.1402   26.4613 C   0  0  0  0  0  0  0  0  0  0  0  0
    7.4935  -17.2818   23.2788 C   0  0  0  0  0  0  0  0  0  0  0  0
    7.9089  -18.4452   22.9849 O   0  0  0  0  0  0  0  0  0  0  0  0
    7.8615  -16.1519   22.5136 N   0  0  0  0  0  0  0  0  0  0  0  0
    7.4583  -14.7860   22.7367 C   0  0  0  0  0  0  0  0  0  0  0  0
    7.4150  -14.2374   21.2980 C   0  0  0  0  0  0  0  0  0  0  0  0
    8.6963  -14.8171   20.7420 C   0  0  0  0  0  0  0  0  0  0  0  0
    8.7238  -16.2031   21.3489 C   0  0  1  0  0  0  0  0  0  0  0  0
   10.0896  -16.6129   21.7277 C   0  0  0  0  0  0  0  0  0  0  0  0
   10.4199  -16.4962   22.9513 O   0  0  0  0  0  0  0  0  0  0  0  0
   11.0359  -17.1227   20.8027 N   0  0  0  0  0  0  0  0  0  0  0  0
   10.8714  -17.2561   19.3755 C   0  0  0  0  0  0  0  0  0  0  0  0
   11.6208  -18.5136   19.0510 C   0  0  0  0  0  0  0  0  0  0  0  0
   12.4060  -18.8990   20.2962 C   0  0  0  0  0  0  0  0  0  0  0  0
   12.3614  -17.6118   21.1024 C   0  0  1  0  0  0  0  0  0  0  0  0
   13.4232  -16.6770   20.7571 C   0  0  0  0  0  0  0  0  0  0  0  0
   14.5830  -16.8526   21.1971 O   0  0  0  0  0  0  0  0  0  0  0  0
   13.1658  -15.5893   19.9437 O   0  0  0  0  0  0  0  0  0  0  0  0
  2  1  1  1
  2 13  1  0
  3  4  1  0
  3  2  1  0
  4 12  1  0
  5  6  1  0
  5  4  2  0
  6  7  1  0
  7 12  2  0
  7  8  1  0
  8  9  2  0
  9 10  1  0
 11 10  2  0
 12 11  1  0
 13 14  2  0
 13 15  1  0
 15 16  1  0
 16 17  1  0
 18 17  1  0
 19 20  1  1
 19 15  1  0
 19 18  1  0
 20 21  2  0
 22 20  1  0
 23 24  1  0
 23 22  1  0
 25 26  1  0
 25 24  1  0
 26 22  1  0
 26 27  1  6
 27 28  2  0
 27 29  1  0
M  END
$$$$
