WPP.pdb
     RDKit          3D

 29 32  0  0  1  0  0  0  0  0999 V2000
    7.9602  -18.1552   25.4524 N   0  0  0  0  0  0  0  0  0  0  0  0
    6.8730  -17.1652   25.3995 C   0  0  1  0  0  0  0  0  0  0  0  0
    7.1197  -16.0770   26.4228 C   0  0  0  0  0  0  0  0  0  0  0  0
    8.2225  -16.4255   27.3439 C   0  0  0  0  0  0  0  0  0  0  0  0
    8.5906  -17.6693   27.7917 C   0  0  0  0  0  0  0  0  0  0  0  0
    9.6532  -17.4653   28.6097 N   0  0  0  0  0  0  0  0  0  0  0  0
    9.9471  -16.1499   28.6781 C   0  0  0  0  0  0  0  0  0  0  0  0
   10.9212  -15.4471   29.3638 C   0  0  0  0  0  0  0  0  0  0  0  0
   11.0184  -14.0874   29.2711 C   0  0  0  0  0  0  0  0  0  0  0  0
   10.1193  -13.3888   28.4705 C   0  0  0  0  0  0  0  0  0  0  0  0
    9.1435  -14.0848   27.7825 C   0  0  0  0  0  0  0  0  0  0  0  0
    9.0566  -15.4580   27.8848 C   0  0  0  0  0  0  0  0  0  0  0  0
    6.9318  -16.5620   24.0349 C   0  0  0  0  0  0  0  0  0  0  0  0
    6.6059  -17.2646   23.0287 O   0  0  0  0  0  0  0  0  0  0  0  0
    7.3485  -15.2189   23.8930 N   0  0  0  0  0  0  0  0  0  0  0  0
    7.8914  -14.3672   24.9215 C   0  0  0  0  0  0  0  0  0  0  0  0
    7.3751  -12.9841   24.4821 C   0  0  0  0  0  0  0  0  0  0  0  0
    7.6485  -13.0457   22.9961 C   0  0  0  0  0  0  0  0  0  0  0  0
    7.2840  -14.4734   22.6510 C   0  0  1  0  0  0  0  0  0  0  0  0
    8.1992  -15.0497   21.6475 C   0  0  0  0  0  0  0  0  0  0  0  0
    8.5502  -16.2634   21.8010 O   0  0  0  0  0  0  0  0  0  0  0  0
    8.6978  -14.3219   20.5372 N   0  0  0  0  0  0  0  0  0  0  0  0
    8.4733  -12.9280   20.2400 C   0  0  0  0  0  0  0  0  0  0  0  0
    8.4004  -12.8948   18.7427 C   0  0  0  0  0  0  0  0  0  0  0  0
    8.8543  -14.2588   18.2437 C   0  0  0  0  0  0  0  0  0  0  0  0
    9.5356  -14.8296   19.4760 C   0  0  1  0  0  0  0  0  0  0  0  0
   10.9337  -14.4401   19.5955 C   0  0  0  0  0  0  0  0  0  0  0  0
   11.2424  -13.3789   20.1855 O   0  0  0  0  0  0  0  0  0  0  0  0
   11.9328  -15.2325   19.0617 O   0  0  0  0  0  0  0  0  0  0  0  0
  2  1  1  6
  2 13  1  0
  3  4  1  0
  3  2  1  0
  4 12  1  0
  5  6  1  0
  5  4  2  0
  6  7  1  0
  7 12  2  0
  7  8  1  0
  8  9  2  0
  9 10  1  0
 11 10  2  0
 12 11  1  0
 13 14  2  0
 13 15  1  0
 15 16  1  0
 16 17  1  0
 18 17  1  0
 19 20  1  6
 19 15  1  0
 19 18  1  0
 20 21  2  0
 22 20  1  0
 23 24  1  0
 23 22  1  0
 25 26  1  0
 25 24  1  0
 26 22  1  0
 26 27  1  1
 27 28  2  0
 27 29  1  0
M  END
$$$$
