WPP.pdb
     RDKit          3D

 29 32  0  0  1  0  0  0  0  0999 V2000
    5.8373  -18.2817   25.1761 N   0  0  0  0  0  0  0  0  0  0  0  0
    6.5004  -16.9796   25.0037 C   0  0  1  0  0  0  0  0  0  0  0  0
    7.4543  -16.7334   26.1534 C   0  0  0  0  0  0  0  0  0  0  0  0
    7.4075  -15.3307   26.6184 C   0  0  0  0  0  0  0  0  0  0  0  0
    6.4016  -14.4137   26.4436 C   0  0  0  0  0  0  0  0  0  0  0  0
    6.8298  -13.2788   27.0508 N   0  0  0  0  0  0  0  0  0  0  0  0
    8.0536  -13.4669   27.5876 C   0  0  0  0  0  0  0  0  0  0  0  0
    8.8992  -12.6319   28.2952 C   0  0  0  0  0  0  0  0  0  0  0  0
   10.1160  -13.0622   28.7436 C   0  0  0  0  0  0  0  0  0  0  0  0
   10.5189  -14.3693   28.4849 C   0  0  0  0  0  0  0  0  0  0  0  0
    9.6788  -15.2090   27.7786 C   0  0  0  0  0  0  0  0  0  0  0  0
    8.4525  -14.7617   27.3316 C   0  0  0  0  0  0  0  0  0  0  0  0
    7.2894  -17.0836   23.7404 C   0  0  0  0  0  0  0  0  0  0  0  0
    7.5837  -18.2307   23.2823 O   0  0  0  0  0  0  0  0  0  0  0  0
    7.6911  -15.9003   23.0800 N   0  0  0  0  0  0  0  0  0  0  0  0
    7.4812  -14.5456   23.5258 C   0  0  0  0  0  0  0  0  0  0  0  0
    7.3271  -13.7998   22.1869 C   0  0  0  0  0  0  0  0  0  0  0  0
    8.4538  -14.4211   21.3925 C   0  0  0  0  0  0  0  0  0  0  0  0
    8.3925  -15.8741   21.8111 C   0  0  1  0  0  0  0  0  0  0  0  0
    9.7368  -16.4673   21.9449 C   0  0  0  0  0  0  0  0  0  0  0  0
   10.2212  -16.5659   23.1177 O   0  0  0  0  0  0  0  0  0  0  0  0
   10.5011  -16.9247   20.8414 N   0  0  0  0  0  0  0  0  0  0  0  0
   10.1947  -16.7545   19.4418 C   0  0  0  0  0  0  0  0  0  0  0  0
   10.6913  -18.0234   18.8162 C   0  0  0  0  0  0  0  0  0  0  0  0
   11.5044  -18.7543   19.8746 C   0  0  0  0  0  0  0  0  0  0  0  0
   11.7462  -17.6546   20.8949 C   0  0  1  0  0  0  0  0  0  0  0  0
   12.9165  -16.8399   20.5995 C   0  0  0  0  0  0  0  0  0  0  0  0
   14.0657  -17.2869   20.8206 O   0  0  0  0  0  0  0  0  0  0  0  0
   12.7745  -15.5690   20.0743 O   0  0  0  0  0  0  0  0  0  0  0  0
  2  1  1  1
  2 13  1  0
  3  4  1  0
  3  2  1  0
  4 12  1  0
  5  6  1  0
  5  4  2  0
  6  7  1  0
  7 12  2  0
  7  8  1  0
  8  9  2  0
  9 10  1  0
 11 10  2  0
 12 11  1  0
 13 14  2  0
 13 15  1  0
 15 16  1  0
 16 17  1  0
 18 17  1  0
 19 20  1  1
 19 15  1  0
 19 18  1  0
 20 21  2  0
 22 20  1  0
 23 24  1  0
 23 22  1  0
 25 26  1  0
 25 24  1  0
 26 22  1  0
 26 27  1  6
 27 28  2  0
 27 29  1  0
M  END
$$$$
