WPP.pdb
     RDKit          3D

 29 32  0  0  1  0  0  0  0  0999 V2000
    6.0451  -18.5269   24.8991 N   0  0  0  0  0  0  0  0  0  0  0  0
    6.4748  -17.1698   24.5269 C   0  0  1  0  0  0  0  0  0  0  0  0
    7.2618  -16.5511   25.6626 C   0  0  0  0  0  0  0  0  0  0  0  0
    6.6752  -15.2683   26.1058 C   0  0  0  0  0  0  0  0  0  0  0  0
    5.3489  -14.9534   26.2637 C   0  0  0  0  0  0  0  0  0  0  0  0
    5.3254  -13.6650   26.6873 N   0  0  0  0  0  0  0  0  0  0  0  0
    6.5815  -13.1831   26.7940 C   0  0  0  0  0  0  0  0  0  0  0  0
    7.0772  -11.9503   27.1778 C   0  0  0  0  0  0  0  0  0  0  0  0
    8.4198  -11.6981   27.2051 C   0  0  0  0  0  0  0  0  0  0  0  0
    9.3132  -12.7008   26.8390 C   0  0  0  0  0  0  0  0  0  0  0  0
    8.8247  -13.9351   26.4546 C   0  0  0  0  0  0  0  0  0  0  0  0
    7.4664  -14.1765   26.4316 C   0  0  0  0  0  0  0  0  0  0  0  0
    7.3792  -17.3328   23.3501 C   0  0  0  0  0  0  0  0  0  0  0  0
    7.8320  -18.4849   23.0672 O   0  0  0  0  0  0  0  0  0  0  0  0
    7.7113  -16.1989   22.5745 N   0  0  0  0  0  0  0  0  0  0  0  0
    7.2564  -14.8463   22.7788 C   0  0  0  0  0  0  0  0  0  0  0  0
    7.2041  -14.3161   21.3335 C   0  0  0  0  0  0  0  0  0  0  0  0
    8.5100  -14.8544   20.7936 C   0  0  0  0  0  0  0  0  0  0  0  0
    8.5839  -16.2315   21.4168 C   0  0  1  0  0  0  0  0  0  0  0  0
    9.9608  -16.5863   21.8103 C   0  0  0  0  0  0  0  0  0  0  0  0
   10.2566  -16.5110   23.0458 O   0  0  0  0  0  0  0  0  0  0  0  0
   10.9539  -17.0006   20.8866 N   0  0  0  0  0  0  0  0  0  0  0  0
   10.8163  -17.1130   19.4548 C   0  0  0  0  0  0  0  0  0  0  0  0
   11.6636  -18.3017   19.1122 C   0  0  0  0  0  0  0  0  0  0  0  0
   12.4619  -18.6547   20.3586 C   0  0  0  0  0  0  0  0  0  0  0  0
   12.3095  -17.3937   21.1926 C   0  0  1  0  0  0  0  0  0  0  0  0
   13.3003  -16.3727   20.8820 C   0  0  0  0  0  0  0  0  0  0  0  0
   14.4110  -16.3776   21.4616 O   0  0  0  0  0  0  0  0  0  0  0  0
   13.0288  -15.3898   19.9487 O   0  0  0  0  0  0  0  0  0  0  0  0
  2  1  1  1
  2 13  1  0
  3  4  1  0
  3  2  1  0
  4 12  1  0
  5  6  1  0
  5  4  2  0
  6  7  1  0
  7 12  2  0
  7  8  1  0
  8  9  2  0
  9 10  1  0
 11 10  2  0
 12 11  1  0
 13 14  2  0
 13 15  1  0
 15 16  1  0
 16 17  1  0
 18 17  1  0
 19 20  1  1
 19 15  1  0
 19 18  1  0
 20 21  2  0
 22 20  1  0
 23 24  1  0
 23 22  1  0
 25 26  1  0
 25 24  1  0
 26 22  1  0
 26 27  1  6
 27 28  2  0
 27 29  1  0
M  END
$$$$
