WPP.pdb
     RDKit          3D

 29 32  0  0  1  0  0  0  0  0999 V2000
    5.6488  -17.0533   23.5333 N   0  0  0  0  0  0  0  0  0  0  0  0
    6.4530  -15.8781   23.1632 C   0  0  1  0  0  0  0  0  0  0  0  0
    7.5292  -15.6450   24.2022 C   0  0  0  0  0  0  0  0  0  0  0  0
    7.0085  -14.9251   25.3841 C   0  0  0  0  0  0  0  0  0  0  0  0
    6.1394  -15.3856   26.3410 C   0  0  0  0  0  0  0  0  0  0  0  0
    5.9725  -14.3578   27.2104 N   0  0  0  0  0  0  0  0  0  0  0  0
    6.7037  -13.2918   26.8227 C   0  0  0  0  0  0  0  0  0  0  0  0
    6.8688  -12.0291   27.3625 C   0  0  0  0  0  0  0  0  0  0  0  0
    7.6811  -11.1019   26.7730 C   0  0  0  0  0  0  0  0  0  0  0  0
    8.3597  -11.4301   25.6028 C   0  0  0  0  0  0  0  0  0  0  0  0
    8.1993  -12.6900   25.0583 C   0  0  0  0  0  0  0  0  0  0  0  0
    7.3760  -13.6170   25.6638 C   0  0  0  0  0  0  0  0  0  0  0  0
    7.1063  -16.2188   21.8646 C   0  0  0  0  0  0  0  0  0  0  0  0
    7.2151  -17.4368   21.5227 O   0  0  0  0  0  0  0  0  0  0  0  0
    7.5893  -15.1758   21.0422 N   0  0  0  0  0  0  0  0  0  0  0  0
    7.4513  -13.7589   21.2694 C   0  0  0  0  0  0  0  0  0  0  0  0
    7.3664  -13.2214   19.8284 C   0  0  0  0  0  0  0  0  0  0  0  0
    8.4691  -14.0194   19.1697 C   0  0  0  0  0  0  0  0  0  0  0  0
    8.3145  -15.3847   19.8040 C   0  0  1  0  0  0  0  0  0  0  0  0
    9.6188  -16.0236   20.0639 C   0  0  0  0  0  0  0  0  0  0  0  0
   10.0462  -16.0200   21.2627 O   0  0  0  0  0  0  0  0  0  0  0  0
   10.4051  -16.6315   19.0524 N   0  0  0  0  0  0  0  0  0  0  0  0
   10.1024  -16.7064   17.6437 C   0  0  0  0  0  0  0  0  0  0  0  0
   10.6451  -18.0440   17.2379 C   0  0  0  0  0  0  0  0  0  0  0  0
   11.4751  -18.5610   18.4038 C   0  0  0  0  0  0  0  0  0  0  0  0
   11.6734  -17.2997   19.2275 C   0  0  1  0  0  0  0  0  0  0  0  0
   12.8179  -16.5061   18.8021 C   0  0  0  0  0  0  0  0  0  0  0  0
   12.6897  -15.6564   17.8905 O   0  0  0  0  0  0  0  0  0  0  0  0
   14.0541  -16.6800   19.3956 O   0  0  0  0  0  0  0  0  0  0  0  0
  2  1  1  1
  2 13  1  0
  3  4  1  0
  3  2  1  0
  4 12  1  0
  5  6  1  0
  5  4  2  0
  6  7  1  0
  7 12  2  0
  7  8  1  0
  8  9  2  0
  9 10  1  0
 11 10  2  0
 12 11  1  0
 13 14  2  0
 13 15  1  0
 15 16  1  0
 16 17  1  0
 18 17  1  0
 19 20  1  1
 19 15  1  0
 19 18  1  0
 20 21  2  0
 22 20  1  0
 23 24  1  0
 23 22  1  0
 25 26  1  0
 25 24  1  0
 26 22  1  0
 26 27  1  6
 27 28  2  0
 27 29  1  0
M  END
$$$$
