RMR.pdb
     RDKit          3D

 31 30  0  0  1  0  0  0  0  0999 V2000
    8.8815  -13.0329   15.3189 N   0  0  0  0  0  0  0  0  0  0  0  0
    8.0017  -14.1347   15.2542 C   0  0  0  0  0  0  0  0  0  0  0  0
    8.2305  -15.0970   14.3994 N   0  0  0  0  0  0  0  0  0  0  0  0
    6.8797  -14.1797   16.1215 N   0  0  0  0  0  0  0  0  0  0  0  0
    7.0520  -13.7549   17.4900 C   0  0  0  0  0  0  0  0  0  0  0  0
    7.8142  -14.7638   18.3111 C   0  0  0  0  0  0  0  0  0  0  0  0
    8.0304  -14.3304   19.7241 C   0  0  0  0  0  0  0  0  0  0  0  0
    8.8220  -15.3075   20.5601 C   0  0  2  0  0  0  0  0  0  0  0  0
    8.0676  -16.5716   20.5053 N   0  0  0  0  0  0  0  0  0  0  0  0
    8.8794  -14.7983   21.9451 C   0  0  0  0  0  0  0  0  0  0  0  0
    8.6668  -13.5975   22.2465 O   0  0  0  0  0  0  0  0  0  0  0  0
    7.5950  -15.9123   14.4060 C   0  0  0  0  0  0  0  0  0  0  0  0
    7.7434  -12.1488   27.6508 S   0  0  0  0  0  0  0  0  0  0  0  0
    7.0236  -12.5877   26.0486 C   0  0  0  0  0  0  0  0  0  0  0  0
    7.0631  -14.3815   25.8737 C   0  0  0  0  0  0  0  0  0  0  0  0
    7.4579  -14.7911   24.4775 C   0  0  1  0  0  0  0  0  0  0  0  0
    8.8932  -15.2417   24.4183 N   0  0  0  0  0  0  0  0  0  0  0  0
    9.1885  -15.6566   23.0654 C   0  0  0  0  0  0  0  0  0  0  0  0
    9.1867  -16.3043   25.4113 O   0  0  0  0  0  0  0  0  0  0  0  0
    8.3400  -17.2046   25.6391 N   0  0  0  0  0  0  0  0  0  0  0  0
   15.1079  -17.8468   27.8216 C   0  0  0  0  0  0  0  0  0  0  0  0
   15.1730  -18.9707   28.6949 N   0  0  0  0  0  0  0  0  0  0  0  0
   16.2768  -19.2797   29.2920 N   0  0  0  0  0  0  0  0  0  0  0  0
   14.0354  -19.7908   28.9372 C   0  0  0  0  0  0  0  0  0  0  0  0
   12.7048  -19.4828   28.4866 C   0  0  0  0  0  0  0  0  0  0  0  0
   12.1385  -18.2188   29.0567 C   0  0  0  0  0  0  0  0  0  0  0  0
   11.8761  -17.1771   28.0223 C   0  0  1  0  0  0  0  0  0  0  0  0
   10.7473  -17.3662   27.1082 N   0  0  0  0  0  0  0  0  0  0  0  0
   10.4216  -16.3650   26.1505 C   0  0  0  0  0  0  0  0  0  0  0  0
    9.5065  -17.8383   27.8418 O   0  0  0  0  0  0  0  0  0  0  0  0
    8.5647  -16.8967   28.1560 O   0  0  0  0  0  0  0  0  0  0  0  0
  2  3  2  0
  2  1  1  0
  4  2  1  0
  5  6  1  0
  5  4  1  0
  7  8  1  0
  7  6  1  0
  8  9  1  1
 10  8  1  0
 10 17  1  0
 11 10  2  0
 13 12  1  0
 13 14  1  0
 14 15  1  0
 16 15  1  6
 16 17  1  0
 18 16  1  0
 19 18  2  0
 20 21  1  0
 21 23  1  0
 21 22  2  0
 23 24  1  0
 24 25  1  0
 25 26  1  0
 27 26  1  6
 27 28  1  0
 27 29  1  0
 28 18  1  0
 29 31  2  0
 29 30  1  0
M  END
$$$$
