RMR.pdb
     RDKit          3D

 31 30  0  0  1  0  0  0  0  0999 V2000
    2.0802  -23.0359   21.7559 N   0  0  0  0  0  0  0  0  0  0  0  0
    2.4044  -22.4192   20.5284 C   0  0  0  0  0  0  0  0  0  0  0  0
    1.7689  -22.7678   19.4404 N   0  0  0  0  0  0  0  0  0  0  0  0
    3.4184  -21.4272   20.4958 N   0  0  0  0  0  0  0  0  0  0  0  0
    3.5356  -20.5278   21.6184 C   0  0  0  0  0  0  0  0  0  0  0  0
    4.4484  -21.0663   22.6907 C   0  0  0  0  0  0  0  0  0  0  0  0
    4.7093  -20.0872   23.7882 C   0  0  0  0  0  0  0  0  0  0  0  0
    6.1725  -19.8141   24.0431 C   0  0  2  0  0  0  0  0  0  0  0  0
    6.4027  -20.1905   25.4486 N   0  0  0  0  0  0  0  0  0  0  0  0
    6.4197  -18.3715   23.8462 C   0  0  0  0  0  0  0  0  0  0  0  0
    6.3698  -17.8114   22.7229 O   0  0  0  0  0  0  0  0  0  0  0  0
    1.9985  -22.2695   18.5644 C   0  0  0  0  0  0  0  0  0  0  0  0
    6.7711  -11.3377   27.0327 S   0  0  0  0  0  0  0  0  0  0  0  0
    7.3235  -13.0226   27.3984 C   0  0  0  0  0  0  0  0  0  0  0  0
    7.4672  -13.9289   25.8467 C   0  0  0  0  0  0  0  0  0  0  0  0
    7.1055  -15.3820   26.0211 C   0  0  2  0  0  0  0  0  0  0  0  0
    7.1189  -16.1169   24.7071 N   0  0  0  0  0  0  0  0  0  0  0  0
    6.7409  -17.4915   24.9462 C   0  0  0  0  0  0  0  0  0  0  0  0
    8.4273  -16.0033   24.0167 O   0  0  0  0  0  0  0  0  0  0  0  0
    9.3735  -16.7685   24.3305 N   0  0  0  0  0  0  0  0  0  0  0  0
    6.9038  -14.0460   17.5081 C   0  0  0  0  0  0  0  0  0  0  0  0
    8.2868  -13.8784   17.2094 N   0  0  0  0  0  0  0  0  0  0  0  0
    8.7977  -14.3909   16.1384 N   0  0  0  0  0  0  0  0  0  0  0  0
    9.1512  -13.1499   18.0739 C   0  0  0  0  0  0  0  0  0  0  0  0
    8.7493  -12.5898   19.3362 C   0  0  0  0  0  0  0  0  0  0  0  0
    8.5459  -13.6012   20.4221 C   0  0  0  0  0  0  0  0  0  0  0  0
    9.8216  -14.2006   20.9092 C   0  0  2  0  0  0  0  0  0  0  0  0
    9.7783  -15.0917   22.0709 N   0  0  0  0  0  0  0  0  0  0  0  0
    8.6826  -15.0387   22.9777 C   0  0  0  0  0  0  0  0  0  0  0  0
   11.0989  -15.1028   22.8168 O   0  0  0  0  0  0  0  0  0  0  0  0
   12.2253  -15.3969   22.0977 O   0  0  0  0  0  0  0  0  0  0  0  0
  2  3  2  0
  2  1  1  0
  4  2  1  0
  5  6  1  0
  5  4  1  0
  7  8  1  0
  7  6  1  0
  8  9  1  1
 10  8  1  0
 10 17  1  0
 11 10  2  0
 13 12  1  0
 13 14  1  0
 14 15  1  0
 16 15  1  6
 16 17  1  0
 18 16  1  0
 19 18  2  0
 20 21  1  0
 21 23  1  0
 21 22  2  0
 23 24  1  0
 24 25  1  0
 25 26  1  0
 27 26  1  6
 27 28  1  0
 27 29  1  0
 28 18  1  0
 29 31  2  0
 29 30  1  0
M  END
$$$$
