RMR.pdb
     RDKit          3D

 31 30  0  0  1  0  0  0  0  0999 V2000
    8.7288  -11.4987   18.5897 N   0  0  0  0  0  0  0  0  0  0  0  0
    8.5568  -12.4638   17.5742 C   0  0  0  0  0  0  0  0  0  0  0  0
    9.3130  -12.4246   16.5085 N   0  0  0  0  0  0  0  0  0  0  0  0
    7.5624  -13.4642   17.7277 N   0  0  0  0  0  0  0  0  0  0  0  0
    6.7658  -13.4617   18.9312 C   0  0  0  0  0  0  0  0  0  0  0  0
    6.8885  -14.7516   19.7018 C   0  0  0  0  0  0  0  0  0  0  0  0
    8.2857  -15.0440   20.1419 C   0  0  0  0  0  0  0  0  0  0  0  0
    8.4441  -16.3511   20.8814 C   0  0  2  0  0  0  0  0  0  0  0  0
    7.1118  -16.9792   20.8574 N   0  0  0  0  0  0  0  0  0  0  0  0
    8.8527  -16.0561   22.2695 C   0  0  0  0  0  0  0  0  0  0  0  0
    9.9742  -15.5767   22.5699 O   0  0  0  0  0  0  0  0  0  0  0  0
    9.1626  -13.1434   15.7809 C   0  0  0  0  0  0  0  0  0  0  0  0
    7.5730  -11.7063   26.9470 S   0  0  0  0  0  0  0  0  0  0  0  0
    6.4439  -13.0162   26.4112 C   0  0  0  0  0  0  0  0  0  0  0  0
    7.2628  -13.9939   25.1370 C   0  0  0  0  0  0  0  0  0  0  0  0
    7.3991  -15.4370   25.5514 C   0  0  2  0  0  0  0  0  0  0  0  0
    8.4583  -16.1451   24.7494 N   0  0  0  0  0  0  0  0  0  0  0  0
    7.9799  -16.3019   23.3943 C   0  0  0  0  0  0  0  0  0  0  0  0
    8.8521  -17.4378   25.3620 O   0  0  0  0  0  0  0  0  0  0  0  0
    8.1358  -18.4571   25.1969 N   0  0  0  0  0  0  0  0  0  0  0  0
   13.7731  -18.5349   31.6145 C   0  0  0  0  0  0  0  0  0  0  0  0
   13.4903  -19.9313   31.6003 N   0  0  0  0  0  0  0  0  0  0  0  0
   13.4938  -20.6168   32.6961 N   0  0  0  0  0  0  0  0  0  0  0  0
   13.1996  -20.6187   30.3886 C   0  0  0  0  0  0  0  0  0  0  0  0
   13.2867  -20.0262   29.0810 C   0  0  0  0  0  0  0  0  0  0  0  0
   12.0287  -20.1263   28.2742 C   0  0  0  0  0  0  0  0  0  0  0  0
   11.6185  -18.8274   27.6673 C   0  0  2  0  0  0  0  0  0  0  0  0
   10.4189  -18.7943   26.8275 N   0  0  0  0  0  0  0  0  0  0  0  0
   10.0423  -17.5962   26.1579 C   0  0  0  0  0  0  0  0  0  0  0  0
    9.2283  -19.4208   27.5279 O   0  0  0  0  0  0  0  0  0  0  0  0
    9.0028  -20.7535   27.3152 O   0  0  0  0  0  0  0  0  0  0  0  0
  2  3  2  0
  2  1  1  0
  4  2  1  0
  5  6  1  0
  5  4  1  0
  7  8  1  0
  7  6  1  0
  8  9  1  1
 10  8  1  0
 10 17  1  0
 11 10  2  0
 13 12  1  0
 13 14  1  0
 14 15  1  0
 16 15  1  6
 16 17  1  0
 18 16  1  0
 19 18  2  0
 20 21  1  0
 21 23  1  0
 21 22  2  0
 23 24  1  0
 24 25  1  0
 25 26  1  0
 27 26  1  6
 27 28  1  0
 27 29  1  0
 28 18  1  0
 29 31  2  0
 29 30  1  0
M  END
$$$$
