RMR.pdb
     RDKit          3D

 31 30  0  0  1  0  0  0  0  0999 V2000
    6.7903  -13.6345   19.1968 N   0  0  0  0  0  0  0  0  0  0  0  0
    7.9707  -13.0314   18.7120 C   0  0  0  0  0  0  0  0  0  0  0  0
    8.2781  -11.8168   19.0854 N   0  0  0  0  0  0  0  0  0  0  0  0
    8.8073  -13.7563   17.8244 N   0  0  0  0  0  0  0  0  0  0  0  0
    8.9193  -15.1845   17.9987 C   0  0  0  0  0  0  0  0  0  0  0  0
    9.6237  -15.5514   19.2803 C   0  0  0  0  0  0  0  0  0  0  0  0
    9.3065  -16.9328   19.7519 C   0  0  0  0  0  0  0  0  0  0  0  0
    8.3970  -16.9852   20.9562 C   0  0  2  0  0  0  0  0  0  0  0  0
    7.1555  -16.3105   20.5397 N   0  0  0  0  0  0  0  0  0  0  0  0
    9.0417  -16.2474   22.0612 C   0  0  0  0  0  0  0  0  0  0  0  0
   10.1004  -16.6298   22.6189 O   0  0  0  0  0  0  0  0  0  0  0  0
    9.1481  -11.4009   18.7128 C   0  0  0  0  0  0  0  0  0  0  0  0
    5.5525  -11.8122   25.8795 S   0  0  0  0  0  0  0  0  0  0  0  0
    6.9166  -12.8793   26.4070 C   0  0  0  0  0  0  0  0  0  0  0  0
    6.6136  -14.5456   25.7893 C   0  0  0  0  0  0  0  0  0  0  0  0
    6.8703  -14.6393   24.3066 C   0  0  1  0  0  0  0  0  0  0  0  0
    8.3342  -14.8274   24.0096 N   0  0  0  0  0  0  0  0  0  0  0  0
    8.4928  -15.0181   22.5855 C   0  0  0  0  0  0  0  0  0  0  0  0
    8.9260  -15.9371   24.7969 O   0  0  0  0  0  0  0  0  0  0  0  0
    8.2550  -16.9747   25.0258 N   0  0  0  0  0  0  0  0  0  0  0  0
   15.0381  -15.3812   21.2322 C   0  0  0  0  0  0  0  0  0  0  0  0
   13.6802  -15.8054   21.1540 N   0  0  0  0  0  0  0  0  0  0  0  0
   12.8773  -15.2916   20.2811 N   0  0  0  0  0  0  0  0  0  0  0  0
   13.1602  -16.7997   22.0294 C   0  0  0  0  0  0  0  0  0  0  0  0
   12.9075  -16.5927   23.4301 C   0  0  0  0  0  0  0  0  0  0  0  0
   12.2906  -17.7674   24.1250 C   0  0  0  0  0  0  0  0  0  0  0  0
   12.1194  -17.5555   25.5912 C   0  0  2  0  0  0  0  0  0  0  0  0
   10.8795  -16.9399   26.0700 N   0  0  0  0  0  0  0  0  0  0  0  0
   10.2638  -15.8921   25.3293 C   0  0  0  0  0  0  0  0  0  0  0  0
   10.9632  -16.5858   27.5424 O   0  0  0  0  0  0  0  0  0  0  0  0
   10.5589  -15.3319   27.9121 O   0  0  0  0  0  0  0  0  0  0  0  0
  2  3  2  0
  2  1  1  0
  4  2  1  0
  5  6  1  0
  5  4  1  0
  7  8  1  0
  7  6  1  0
  8  9  1  6
 10  8  1  0
 10 17  1  0
 11 10  2  0
 13 12  1  0
 13 14  1  0
 14 15  1  0
 16 15  1  6
 16 17  1  0
 18 16  1  0
 19 18  2  0
 20 21  1  0
 21 23  1  0
 21 22  2  0
 23 24  1  0
 24 25  1  0
 25 26  1  0
 27 26  1  6
 27 28  1  0
 27 29  1  0
 28 18  1  0
 29 31  2  0
 29 30  1  0
M  END
$$$$
