RMR.pdb
     RDKit          3D

 31 30  0  0  1  0  0  0  0  0999 V2000
    8.1876  -13.0371   16.8124 N   0  0  0  0  0  0  0  0  0  0  0  0
    7.6449  -12.9478   18.1123 C   0  0  0  0  0  0  0  0  0  0  0  0
    7.5603  -11.7832   18.7004 N   0  0  0  0  0  0  0  0  0  0  0  0
    7.1984  -14.1279   18.7614 N   0  0  0  0  0  0  0  0  0  0  0  0
    7.6788  -15.4005   18.2793 C   0  0  0  0  0  0  0  0  0  0  0  0
    7.0905  -16.5607   19.0414 C   0  0  0  0  0  0  0  0  0  0  0  0
    7.0605  -16.3403   20.5186 C   0  0  0  0  0  0  0  0  0  0  0  0
    8.2664  -16.8771   21.2521 C   0  0  2  0  0  0  0  0  0  0  0  0
    7.7915  -18.0775   21.9616 N   0  0  0  0  0  0  0  0  0  0  0  0
    8.7221  -15.8534   22.2139 C   0  0  0  0  0  0  0  0  0  0  0  0
    9.6462  -15.0392   21.9666 O   0  0  0  0  0  0  0  0  0  0  0  0
    7.2132  -11.7559   19.6737 C   0  0  0  0  0  0  0  0  0  0  0  0
    6.0964  -11.2350   25.7594 S   0  0  0  0  0  0  0  0  0  0  0  0
    6.8852  -12.2119   27.0637 C   0  0  0  0  0  0  0  0  0  0  0  0
    8.1791  -13.2233   26.3201 C   0  0  0  0  0  0  0  0  0  0  0  0
    7.6341  -14.0901   25.2136 C   0  0  1  0  0  0  0  0  0  0  0  0
    8.7295  -14.8552   24.5198 N   0  0  0  0  0  0  0  0  0  0  0  0
    8.1296  -15.7148   23.5243 C   0  0  0  0  0  0  0  0  0  0  0  0
    9.5785  -15.6069   25.4767 O   0  0  0  0  0  0  0  0  0  0  0  0
    9.0808  -16.0625   26.5369 N   0  0  0  0  0  0  0  0  0  0  0  0
   12.2494  -21.4743   28.4835 C   0  0  0  0  0  0  0  0  0  0  0  0
   12.1292  -20.3977   29.4090 N   0  0  0  0  0  0  0  0  0  0  0  0
   12.6246  -20.4917   30.5991 N   0  0  0  0  0  0  0  0  0  0  0  0
   11.4611  -19.1900   29.0619 C   0  0  0  0  0  0  0  0  0  0  0  0
   10.6429  -19.0255   27.8906 C   0  0  0  0  0  0  0  0  0  0  0  0
   11.3357  -19.3540   26.6040 C   0  0  0  0  0  0  0  0  0  0  0  0
   11.1012  -18.3381   25.5378 C   0  0  2  0  0  0  0  0  0  0  0  0
   11.6854  -17.0047   25.6999 N   0  0  0  0  0  0  0  0  0  0  0  0
   10.9805  -15.8514   25.2540 C   0  0  0  0  0  0  0  0  0  0  0  0
   13.1305  -16.9676   25.2408 O   0  0  0  0  0  0  0  0  0  0  0  0
   14.0025  -17.8379   25.8363 O   0  0  0  0  0  0  0  0  0  0  0  0
  2  3  2  0
  2  1  1  0
  4  2  1  0
  5  6  1  0
  5  4  1  0
  7  8  1  0
  7  6  1  0
  8  9  1  1
 10  8  1  0
 10 17  1  0
 11 10  2  0
 13 12  1  0
 13 14  1  0
 14 15  1  0
 16 15  1  6
 16 17  1  0
 18 16  1  0
 19 18  2  0
 20 21  1  0
 21 23  1  0
 21 22  2  0
 23 24  1  0
 24 25  1  0
 25 26  1  0
 27 26  1  1
 27 28  1  0
 27 29  1  0
 28 18  1  0
 29 31  2  0
 29 30  1  0
M  END
$$$$
