RMR.pdb
     RDKit          3D

 31 30  0  0  1  0  0  0  0  0999 V2000
    9.8576  -12.4271   19.0691 N   0  0  0  0  0  0  0  0  0  0  0  0
    8.4777  -12.4369   18.7721 C   0  0  0  0  0  0  0  0  0  0  0  0
    7.7642  -11.3599   18.9729 N   0  0  0  0  0  0  0  0  0  0  0  0
    7.8860  -13.6198   18.2586 N   0  0  0  0  0  0  0  0  0  0  0  0
    8.7040  -14.8032   18.1446 C   0  0  0  0  0  0  0  0  0  0  0  0
    7.9398  -15.9758   17.5841 C   0  0  0  0  0  0  0  0  0  0  0  0
    7.0659  -16.6458   18.5934 C   0  0  0  0  0  0  0  0  0  0  0  0
    7.8166  -17.4297   19.6434 C   0  0  2  0  0  0  0  0  0  0  0  0
    6.8270  -18.3522   20.2263 N   0  0  0  0  0  0  0  0  0  0  0  0
    8.3106  -16.4862   20.6665 C   0  0  0  0  0  0  0  0  0  0  0  0
    8.2221  -15.2384   20.5523 O   0  0  0  0  0  0  0  0  0  0  0  0
    6.7618  -11.3891   18.7224 C   0  0  0  0  0  0  0  0  0  0  0  0
    6.9470  -12.4857   26.3748 S   0  0  0  0  0  0  0  0  0  0  0  0
    6.7006  -13.3802   24.8202 C   0  0  0  0  0  0  0  0  0  0  0  0
    8.1805  -14.3503   24.4755 C   0  0  0  0  0  0  0  0  0  0  0  0
    8.0187  -15.1784   23.2262 C   0  0  1  0  0  0  0  0  0  0  0  0
    9.2447  -16.0073   22.9494 N   0  0  0  0  0  0  0  0  0  0  0  0
    8.9390  -16.9381   21.8865 C   0  0  0  0  0  0  0  0  0  0  0  0
    9.7461  -16.6879   24.1688 O   0  0  0  0  0  0  0  0  0  0  0  0
    8.9437  -17.0338   25.0720 N   0  0  0  0  0  0  0  0  0  0  0  0
    9.1415  -14.2529   28.4808 C   0  0  0  0  0  0  0  0  0  0  0  0
   10.0725  -14.5954   29.5035 N   0  0  0  0  0  0  0  0  0  0  0  0
    9.9182  -14.1582   30.7101 N   0  0  0  0  0  0  0  0  0  0  0  0
   11.2001  -15.4215   29.2363 C   0  0  0  0  0  0  0  0  0  0  0  0
   12.1969  -15.1331   28.2405 C   0  0  0  0  0  0  0  0  0  0  0  0
   11.8625  -15.6368   26.8701 C   0  0  0  0  0  0  0  0  0  0  0  0
   11.8545  -17.1253   26.7803 C   0  0  2  0  0  0  0  0  0  0  0  0
   11.6508  -17.7470   25.4698 N   0  0  0  0  0  0  0  0  0  0  0  0
   11.1395  -16.9834   24.3829 C   0  0  0  0  0  0  0  0  0  0  0  0
   10.9271  -19.0748   25.5869 O   0  0  0  0  0  0  0  0  0  0  0  0
   11.4808  -20.0235   26.4028 O   0  0  0  0  0  0  0  0  0  0  0  0
  2  3  2  0
  2  1  1  0
  4  2  1  0
  5  6  1  0
  5  4  1  0
  7  8  1  0
  7  6  1  0
  8  9  1  1
 10  8  1  0
 10 17  1  0
 11 10  2  0
 13 12  1  0
 13 14  1  0
 14 15  1  0
 16 15  1  6
 16 17  1  0
 18 16  1  0
 19 18  2  0
 20 21  1  0
 21 23  1  0
 21 22  2  0
 23 24  1  0
 24 25  1  0
 25 26  1  0
 27 26  1  6
 27 28  1  0
 27 29  1  0
 28 18  1  0
 29 31  2  0
 29 30  1  0
M  END
$$$$
