RMR.pdb
     RDKit          3D

 31 30  0  0  1  0  0  0  0  0999 V2000
    9.8823  -14.2617   14.8407 N   0  0  0  0  0  0  0  0  0  0  0  0
    8.8271  -13.7334   15.6150 C   0  0  0  0  0  0  0  0  0  0  0  0
    7.8039  -13.1766   15.0215 N   0  0  0  0  0  0  0  0  0  0  0  0
    8.8947  -13.8159   17.0298 N   0  0  0  0  0  0  0  0  0  0  0  0
    7.6833  -13.6149   17.7881 C   0  0  0  0  0  0  0  0  0  0  0  0
    7.9282  -13.6391   19.2755 C   0  0  0  0  0  0  0  0  0  0  0  0
    9.1246  -14.4455   19.6624 C   0  0  0  0  0  0  0  0  0  0  0  0
    8.8239  -15.5990   20.5894 C   0  0  2  0  0  0  0  0  0  0  0  0
    7.4279  -15.9754   20.3070 N   0  0  0  0  0  0  0  0  0  0  0  0
    8.9615  -15.1273   21.9821 C   0  0  0  0  0  0  0  0  0  0  0  0
   10.0434  -14.7076   22.4630 O   0  0  0  0  0  0  0  0  0  0  0  0
    7.0634  -12.7668   15.6151 C   0  0  0  0  0  0  0  0  0  0  0  0
    6.2001  -10.6329   25.9270 S   0  0  0  0  0  0  0  0  0  0  0  0
    5.8766  -12.2495   26.6751 C   0  0  0  0  0  0  0  0  0  0  0  0
    7.1713  -13.3916   26.1559 C   0  0  0  0  0  0  0  0  0  0  0  0
    6.9718  -13.8405   24.7306 C   0  0  2  0  0  0  0  0  0  0  0  0
    8.0447  -14.8045   24.2990 N   0  0  0  0  0  0  0  0  0  0  0  0
    7.8470  -15.1157   22.9013 C   0  0  0  0  0  0  0  0  0  0  0  0
    8.0779  -16.0204   25.1487 O   0  0  0  0  0  0  0  0  0  0  0  0
    7.4390  -17.0466   24.8050 N   0  0  0  0  0  0  0  0  0  0  0  0
   16.4978  -19.3800   23.9504 C   0  0  0  0  0  0  0  0  0  0  0  0
   15.7152  -18.2319   24.2655 N   0  0  0  0  0  0  0  0  0  0  0  0
   16.0801  -17.0560   23.8722 N   0  0  0  0  0  0  0  0  0  0  0  0
   14.5144  -18.3354   25.0223 C   0  0  0  0  0  0  0  0  0  0  0  0
   13.4115  -17.4180   24.9198 C   0  0  0  0  0  0  0  0  0  0  0  0
   12.2399  -17.7639   25.7865 C   0  0  0  0  0  0  0  0  0  0  0  0
   11.0824  -16.8423   25.5998 C   0  0  2  0  0  0  0  0  0  0  0  0
    9.9919  -16.8805   26.5769 N   0  0  0  0  0  0  0  0  0  0  0  0
    8.8217  -16.0945   26.3801 C   0  0  0  0  0  0  0  0  0  0  0  0
   10.5073  -16.7387   27.9963 O   0  0  0  0  0  0  0  0  0  0  0  0
   10.8026  -17.8888   28.6764 O   0  0  0  0  0  0  0  0  0  0  0  0
  2  3  2  0
  2  1  1  0
  4  2  1  0
  5  6  1  0
  5  4  1  0
  7  8  1  0
  7  6  1  0
  8  9  1  1
 10  8  1  0
 10 17  1  0
 11 10  2  0
 13 12  1  0
 13 14  1  0
 14 15  1  0
 16 15  1  6
 16 17  1  0
 18 16  1  0
 19 18  2  0
 20 21  1  0
 21 23  1  0
 21 22  2  0
 23 24  1  0
 24 25  1  0
 25 26  1  0
 27 26  1  6
 27 28  1  0
 27 29  1  0
 28 18  1  0
 29 31  2  0
 29 30  1  0
M  END
$$$$
