RMR.pdb
     RDKit          3D

 31 30  0  0  1  0  0  0  0  0999 V2000
    7.5713  -12.8618   17.1701 N   0  0  0  0  0  0  0  0  0  0  0  0
    8.7612  -13.2117   17.8439 C   0  0  0  0  0  0  0  0  0  0  0  0
    9.7246  -12.3350   17.9548 N   0  0  0  0  0  0  0  0  0  0  0  0
    8.8921  -14.5140   18.3918 N   0  0  0  0  0  0  0  0  0  0  0  0
    7.7169  -15.3481   18.4685 C   0  0  0  0  0  0  0  0  0  0  0  0
    7.5942  -16.0435   19.8006 C   0  0  0  0  0  0  0  0  0  0  0  0
    8.8312  -16.7821   20.1953 C   0  0  0  0  0  0  0  0  0  0  0  0
    8.7389  -17.4804   21.5311 C   0  0  2  0  0  0  0  0  0  0  0  0
    7.3248  -17.8676   21.6743 N   0  0  0  0  0  0  0  0  0  0  0  0
    9.1229  -16.5219   22.5869 C   0  0  0  0  0  0  0  0  0  0  0  0
   10.2600  -15.9926   22.6558 O   0  0  0  0  0  0  0  0  0  0  0  0
   10.5966  -12.6302   18.4250 C   0  0  0  0  0  0  0  0  0  0  0  0
    6.6319  -11.7883   27.2338 S   0  0  0  0  0  0  0  0  0  0  0  0
    5.8134  -12.4555   25.7632 C   0  0  0  0  0  0  0  0  0  0  0  0
    7.0450  -13.3033   24.7560 C   0  0  0  0  0  0  0  0  0  0  0  0
    7.4037  -14.6468   25.3382 C   0  0  2  0  0  0  0  0  0  0  0  0
    8.6288  -15.2250   24.6814 N   0  0  0  0  0  0  0  0  0  0  0  0
    8.2058  -16.1207   23.6286 C   0  0  0  0  0  0  0  0  0  0  0  0
    9.5269  -15.8876   25.6591 O   0  0  0  0  0  0  0  0  0  0  0  0
    9.9938  -15.2364   26.6273 N   0  0  0  0  0  0  0  0  0  0  0  0
    9.2893  -21.4084   31.9027 C   0  0  0  0  0  0  0  0  0  0  0  0
   10.6294  -21.1033   31.5270 N   0  0  0  0  0  0  0  0  0  0  0  0
   11.5462  -20.9435   32.4239 N   0  0  0  0  0  0  0  0  0  0  0  0
   11.0046  -20.9603   30.1617 C   0  0  0  0  0  0  0  0  0  0  0  0
   11.0994  -19.6996   29.4762 C   0  0  0  0  0  0  0  0  0  0  0  0
   11.4320  -19.8135   28.0202 C   0  0  0  0  0  0  0  0  0  0  0  0
   10.4307  -19.1478   27.1380 C   0  0  1  0  0  0  0  0  0  0  0  0
   10.8245  -17.9299   26.4259 N   0  0  0  0  0  0  0  0  0  0  0  0
    9.9052  -17.2739   25.5596 C   0  0  0  0  0  0  0  0  0  0  0  0
   12.1794  -18.0835   25.7618 O   0  0  0  0  0  0  0  0  0  0  0  0
   13.2367  -18.4249   26.5606 O   0  0  0  0  0  0  0  0  0  0  0  0
  2  3  2  0
  2  1  1  0
  4  2  1  0
  5  6  1  0
  5  4  1  0
  7  8  1  0
  7  6  1  0
  8  9  1  1
 10  8  1  0
 10 17  1  0
 11 10  2  0
 13 12  1  0
 13 14  1  0
 14 15  1  0
 16 15  1  6
 16 17  1  0
 18 16  1  0
 19 18  2  0
 20 21  1  0
 21 23  1  0
 21 22  2  0
 23 24  1  0
 24 25  1  0
 25 26  1  0
 27 26  1  1
 27 28  1  0
 27 29  1  0
 28 18  1  0
 29 31  2  0
 29 30  1  0
M  END
$$$$
