RMR.pdb
     RDKit          3D

 31 30  0  0  1  0  0  0  0  0999 V2000
    6.7553  -12.9099   16.4225 N   0  0  0  0  0  0  0  0  0  0  0  0
    8.1085  -13.2124   16.6862 C   0  0  0  0  0  0  0  0  0  0  0  0
    9.0297  -12.3131   16.4584 N   0  0  0  0  0  0  0  0  0  0  0  0
    8.4476  -14.4922   17.1964 N   0  0  0  0  0  0  0  0  0  0  0  0
    7.4644  -15.2021   17.9788 C   0  0  0  0  0  0  0  0  0  0  0  0
    7.8124  -15.2318   19.4455 C   0  0  0  0  0  0  0  0  0  0  0  0
    8.9770  -16.1140   19.7566 C   0  0  0  0  0  0  0  0  0  0  0  0
    8.7311  -17.0968   20.8764 C   0  0  2  0  0  0  0  0  0  0  0  0
    7.2874  -17.3867   20.8337 N   0  0  0  0  0  0  0  0  0  0  0  0
    9.0917  -16.4495   22.1538 C   0  0  0  0  0  0  0  0  0  0  0  0
   10.2736  -16.1688   22.4738 O   0  0  0  0  0  0  0  0  0  0  0  0
   10.0170  -12.5837   16.6018 C   0  0  0  0  0  0  0  0  0  0  0  0
    6.5003  -12.3158   26.8745 S   0  0  0  0  0  0  0  0  0  0  0  0
    6.2678  -12.3202   25.0790 C   0  0  0  0  0  0  0  0  0  0  0  0
    7.4598  -13.4585   24.3488 C   0  0  0  0  0  0  0  0  0  0  0  0
    7.4442  -14.7953   25.0455 C   0  0  2  0  0  0  0  0  0  0  0  0
    8.4860  -15.7249   24.4822 N   0  0  0  0  0  0  0  0  0  0  0  0
    8.0975  -16.0892   23.1383 C   0  0  0  0  0  0  0  0  0  0  0  0
    8.7038  -16.9103   25.3476 O   0  0  0  0  0  0  0  0  0  0  0  0
    8.1010  -17.9861   25.1055 N   0  0  0  0  0  0  0  0  0  0  0  0
   15.9103  -21.1193   23.4830 C   0  0  0  0  0  0  0  0  0  0  0  0
   15.4557  -21.0990   24.8332 N   0  0  0  0  0  0  0  0  0  0  0  0
   16.2979  -21.1066   25.8136 N   0  0  0  0  0  0  0  0  0  0  0  0
   14.0685  -21.0741   25.1503 C   0  0  0  0  0  0  0  0  0  0  0  0
   13.1954  -19.9645   24.8762 C   0  0  0  0  0  0  0  0  0  0  0  0
   12.3944  -19.5050   26.0553 C   0  0  0  0  0  0  0  0  0  0  0  0
   11.4553  -18.3940   25.7269 C   0  0  2  0  0  0  0  0  0  0  0  0
   10.5521  -17.9079   26.7726 N   0  0  0  0  0  0  0  0  0  0  0  0
    9.5918  -16.8985   26.4817 C   0  0  0  0  0  0  0  0  0  0  0  0
   11.2991  -17.5919   28.0543 O   0  0  0  0  0  0  0  0  0  0  0  0
   11.6266  -18.6427   28.8673 O   0  0  0  0  0  0  0  0  0  0  0  0
  2  3  2  0
  2  1  1  0
  4  2  1  0
  5  6  1  0
  5  4  1  0
  7  8  1  0
  7  6  1  0
  8  9  1  1
 10  8  1  0
 10 17  1  0
 11 10  2  0
 13 12  1  0
 13 14  1  0
 14 15  1  0
 16 15  1  6
 16 17  1  0
 18 16  1  0
 19 18  2  0
 20 21  1  0
 21 23  1  0
 21 22  2  0
 23 24  1  0
 24 25  1  0
 25 26  1  0
 27 26  1  6
 27 28  1  0
 27 29  1  0
 28 18  1  0
 29 31  2  0
 29 30  1  0
M  END
$$$$
