RMR.pdb
     RDKit          3D

 31 30  0  0  1  0  0  0  0  0999 V2000
    6.8128  -14.8500   15.9149 N   0  0  0  0  0  0  0  0  0  0  0  0
    7.4918  -13.9656   16.7805 C   0  0  0  0  0  0  0  0  0  0  0  0
    7.5169  -12.6867   16.5105 N   0  0  0  0  0  0  0  0  0  0  0  0
    8.1379  -14.4815   17.9335 N   0  0  0  0  0  0  0  0  0  0  0  0
    8.2002  -15.9133   18.1031 C   0  0  0  0  0  0  0  0  0  0  0  0
    8.0614  -16.3256   19.5466 C   0  0  0  0  0  0  0  0  0  0  0  0
    6.6403  -16.4619   19.9861 C   0  0  0  0  0  0  0  0  0  0  0  0
    6.4719  -16.9797   21.3946 C   0  0  2  0  0  0  0  0  0  0  0  0
    5.0170  -17.0597   21.6116 N   0  0  0  0  0  0  0  0  0  0  0  0
    7.0818  -16.0089   22.3254 C   0  0  0  0  0  0  0  0  0  0  0  0
    6.8663  -14.7726   22.2694 O   0  0  0  0  0  0  0  0  0  0  0  0
    8.0115  -12.0621   17.1691 C   0  0  0  0  0  0  0  0  0  0  0  0
    7.0446  -11.5095   27.7450 S   0  0  0  0  0  0  0  0  0  0  0  0
    6.4146  -12.6304   26.4704 C   0  0  0  0  0  0  0  0  0  0  0  0
    7.7290  -13.7766   26.0137 C   0  0  0  0  0  0  0  0  0  0  0  0
    7.3244  -14.6440   24.8489 C   0  0  1  0  0  0  0  0  0  0  0  0
    8.4825  -15.4588   24.3375 N   0  0  0  0  0  0  0  0  0  0  0  0
    7.9811  -16.4182   23.3794 C   0  0  0  0  0  0  0  0  0  0  0  0
    9.2411  -16.1036   25.4376 O   0  0  0  0  0  0  0  0  0  0  0  0
    8.6370  -16.5293   26.4541 N   0  0  0  0  0  0  0  0  0  0  0  0
   12.2005  -15.2051   19.2486 C   0  0  0  0  0  0  0  0  0  0  0  0
   13.2420  -14.7555   20.1107 N   0  0  0  0  0  0  0  0  0  0  0  0
   14.1223  -13.9052   19.6949 N   0  0  0  0  0  0  0  0  0  0  0  0
   13.3537  -15.2248   21.4496 C   0  0  0  0  0  0  0  0  0  0  0  0
   12.5048  -16.2317   22.0277 C   0  0  0  0  0  0  0  0  0  0  0  0
   12.9244  -16.6814   23.3934 C   0  0  0  0  0  0  0  0  0  0  0  0
   12.0584  -17.7631   23.9444 C   0  0  1  0  0  0  0  0  0  0  0  0
   11.3370  -17.5145   25.1947 N   0  0  0  0  0  0  0  0  0  0  0  0
   10.6710  -16.2746   25.4067 C   0  0  0  0  0  0  0  0  0  0  0  0
   12.1670  -17.8976   26.4050 O   0  0  0  0  0  0  0  0  0  0  0  0
   12.1596  -17.0390   27.4705 O   0  0  0  0  0  0  0  0  0  0  0  0
  2  3  2  0
  2  1  1  0
  4  2  1  0
  5  6  1  0
  5  4  1  0
  7  8  1  0
  7  6  1  0
  8  9  1  1
 10  8  1  0
 10 17  1  0
 11 10  2  0
 13 12  1  0
 13 14  1  0
 14 15  1  0
 16 15  1  6
 16 17  1  0
 18 16  1  0
 19 18  2  0
 20 21  1  0
 21 23  1  0
 21 22  2  0
 23 24  1  0
 24 25  1  0
 25 26  1  0
 27 26  1  6
 27 28  1  0
 27 29  1  0
 28 18  1  0
 29 31  2  0
 29 30  1  0
M  END
$$$$
