RMR.pdb
     RDKit          3D

 31 30  0  0  1  0  0  0  0  0999 V2000
    4.3145 -102.8319  -17.3821 N   0  0  0  0  0  0  0  0  0  0  0  0
    3.7786 -101.9929  -18.3827 C   0  0  0  0  0  0  0  0  0  0  0  0
    3.6768 -102.4317  -19.6100 N   0  0  0  0  0  0  0  0  0  0  0  0
    3.3575 -100.6824  -18.0383 N   0  0  0  0  0  0  0  0  0  0  0  0
    4.0986  -99.9663  -17.0280 C   0  0  0  0  0  0  0  0  0  0  0  0
    5.5702 -100.2926  -17.0581 C   0  0  0  0  0  0  0  0  0  0  0  0
    6.4434  -99.0856  -16.9489 C   0  0  0  0  0  0  0  0  0  0  0  0
    6.7457  -98.6630  -15.5311 C   0  0  2  0  0  0  0  0  0  0  0  0
    7.3160  -97.3090  -15.6386 N   0  0  0  0  0  0  0  0  0  0  0  0
    7.7380  -99.5995  -14.9659 C   0  0  0  0  0  0  0  0  0  0  0  0
    7.9286 -100.7560  -15.4178 O   0  0  0  0  0  0  0  0  0  0  0  0
    3.7201 -101.7401  -20.3770 C   0  0  0  0  0  0  0  0  0  0  0  0
   10.0936  -99.2793  -10.0649 S   0  0  0  0  0  0  0  0  0  0  0  0
   11.5337  -98.2796  -10.5169 C   0  0  0  0  0  0  0  0  0  0  0  0
   11.6093  -98.1621  -12.3143 C   0  0  0  0  0  0  0  0  0  0  0  0
   10.8034  -99.2529  -12.9727 C   0  0  2  0  0  0  0  0  0  0  0  0
    9.8939  -98.7021  -14.0385 N   0  0  0  0  0  0  0  0  0  0  0  0
    8.5699  -99.2467  -13.8386 C   0  0  0  0  0  0  0  0  0  0  0  0
   10.4113  -98.9635  -15.4044 O   0  0  0  0  0  0  0  0  0  0  0  0
   11.5234  -98.4962  -15.7567 N   0  0  0  0  0  0  0  0  0  0  0  0
    8.3429  -93.7850  -18.6139 C   0  0  0  0  0  0  0  0  0  0  0  0
    9.2962  -94.3308  -19.5214 N   0  0  0  0  0  0  0  0  0  0  0  0
    9.8986  -93.5752  -20.3796 N   0  0  0  0  0  0  0  0  0  0  0  0
    9.6150  -95.7178  -19.5196 C   0  0  0  0  0  0  0  0  0  0  0  0
   10.9507  -96.2411  -19.4162 C   0  0  0  0  0  0  0  0  0  0  0  0
   11.0253  -97.6385  -18.8822 C   0  0  0  0  0  0  0  0  0  0  0  0
    9.7475  -98.0974  -18.2651 C   0  0  1  0  0  0  0  0  0  0  0  0
    9.6614  -99.4749  -17.7748 N   0  0  0  0  0  0  0  0  0  0  0  0
    9.6916  -99.7445  -16.3776 C   0  0  0  0  0  0  0  0  0  0  0  0
   10.6051 -100.3956  -18.5247 O   0  0  0  0  0  0  0  0  0  0  0  0
   10.8328 -100.1226  -19.8461 O   0  0  0  0  0  0  0  0  0  0  0  0
  2  3  2  0
  2  1  1  0
  4  2  1  0
  5  6  1  0
  5  4  1  0
  7  8  1  0
  7  6  1  0
  8  9  1  6
 10  8  1  0
 10 17  1  0
 11 10  2  0
 13 12  1  0
 13 14  1  0
 14 15  1  0
 16 15  1  1
 16 17  1  0
 18 16  1  0
 19 18  2  0
 20 21  1  0
 21 23  1  0
 21 22  2  0
 23 24  1  0
 24 25  1  0
 25 26  1  0
 27 26  1  1
 27 28  1  0
 27 29  1  0
 28 18  1  0
 29 31  2  0
 29 30  1  0
M  END
$$$$
