DII.pdb
     RDKit          3D

 25 24  0  0  1  0  0  0  0  0999 V2000
   17.8571  -15.0318  -17.7947 N   0  0  0  0  0  0  0  0  0  0  0  0
   17.6950  -14.4198  -16.4999 C   0  0  1  0  0  0  0  0  0  0  0  0
   18.5045  -15.1244  -15.4996 C   0  0  0  0  0  0  0  0  0  0  0  0
   18.0522  -16.5073  -15.2494 C   0  0  0  0  0  0  0  0  0  0  0  0
   17.0902  -16.9629  -15.9037 O   0  0  0  0  0  0  0  0  0  0  0  0
   17.8767  -12.9634  -16.6205 C   0  0  0  0  0  0  0  0  0  0  0  0
   18.6167  -12.5635  -17.5584 O   0  0  0  0  0  0  0  0  0  0  0  0
   18.6709  -17.2974  -14.3131 O   0  0  0  0  0  0  0  0  0  0  0  0
   13.6733   -9.7092  -15.8868 C   0  0  0  0  0  0  0  0  0  0  0  0
   14.9997  -10.1291  -16.4277 C   0  0  0  0  0  0  0  0  0  0  0  0
   16.1569   -9.8786  -15.4352 C   0  0  2  0  0  0  0  0  0  0  0  0
   16.3595   -8.3728  -15.5536 C   0  0  0  0  0  0  0  0  0  0  0  0
   17.4126  -10.5667  -15.8926 C   0  0  2  0  0  0  0  0  0  0  0  0
   17.3033  -12.0121  -15.7945 N   0  0  0  0  0  0  0  0  0  0  0  0
   18.5709  -10.1289  -15.1094 C   0  0  0  0  0  0  0  0  0  0  0  0
   18.5899  -10.3898  -13.8318 O   0  0  0  0  0  0  0  0  0  0  0  0
   23.7020  -10.5762  -13.6301 C   0  0  0  0  0  0  0  0  0  0  0  0
   23.3407   -9.7473  -14.7912 C   0  0  0  0  0  0  0  0  0  0  0  0
   22.0325   -9.8461  -15.4247 C   0  0  2  0  0  0  0  0  0  0  0  0
   22.0183   -9.2722  -16.8480 C   0  0  0  0  0  0  0  0  0  0  0  0
   20.8718   -9.2101  -14.7263 C   0  0  2  0  0  0  0  0  0  0  0  0
   19.6701   -9.4556  -15.6227 N   0  0  0  0  0  0  0  0  0  0  0  0
   20.9349   -7.7815  -14.5199 C   0  0  0  0  0  0  0  0  0  0  0  0
   21.2802   -7.1042  -13.3550 O   0  0  0  0  0  0  0  0  0  0  0  0
   20.6428   -6.9799  -15.4829 O   0  0  0  0  0  0  0  0  0  0  0  0
  2  3  1  0
  2  1  1  6
  3  4  1  0
  4  8  1  0
  4  5  2  0
  6  2  1  0
  7  6  2  0
  9 10  1  0
 10 11  1  0
 11 13  1  0
 11 12  1  6
 13 14  1  1
 14  6  1  0
 15 22  1  0
 15 13  1  0
 16 15  2  0
 18 17  1  0
 19 21  1  0
 19 18  1  0
 19 20  1  6
 21 22  1  6
 23 24  1  0
 23 21  1  0
 25 23  2  0
M  END
$$$$
