DII.pdb
     RDKit          3D

 25 24  0  0  1  0  0  0  0  0999 V2000
   27.1788  -20.3183  -16.4965 N   0  0  0  0  0  0  0  0  0  0  0  0
   27.2607  -21.1867  -15.3491 C   0  0  1  0  0  0  0  0  0  0  0  0
   28.6433  -21.6342  -15.1480 C   0  0  0  0  0  0  0  0  0  0  0  0
   29.1383  -22.5090  -16.2293 C   0  0  0  0  0  0  0  0  0  0  0  0
   28.4551  -22.6438  -17.2667 O   0  0  0  0  0  0  0  0  0  0  0  0
   26.5757  -20.5562  -14.2081 C   0  0  0  0  0  0  0  0  0  0  0  0
   26.8171  -19.3356  -14.0101 O   0  0  0  0  0  0  0  0  0  0  0  0
   30.3337  -23.1732  -16.1130 O   0  0  0  0  0  0  0  0  0  0  0  0
   21.4752  -20.4383  -14.1197 C   0  0  0  0  0  0  0  0  0  0  0  0
   22.9153  -20.1688  -13.8336 C   0  0  0  0  0  0  0  0  0  0  0  0
   23.4086  -20.8610  -12.5434 C   0  0  2  0  0  0  0  0  0  0  0  0
   22.6096  -20.1370  -11.4665 C   0  0  0  0  0  0  0  0  0  0  0  0
   24.8698  -20.5912  -12.3165 C   0  0  2  0  0  0  0  0  0  0  0  0
   25.6971  -21.1925  -13.3483 N   0  0  0  0  0  0  0  0  0  0  0  0
   25.3045  -21.0966  -11.0118 C   0  0  0  0  0  0  0  0  0  0  0  0
   25.3605  -22.3874  -10.8342 O   0  0  0  0  0  0  0  0  0  0  0  0
   28.7722  -18.5374   -7.6031 C   0  0  0  0  0  0  0  0  0  0  0  0
   27.9881  -19.6090   -8.2376 C   0  0  0  0  0  0  0  0  0  0  0  0
   26.6551  -19.9628   -7.7679 C   0  0  2  0  0  0  0  0  0  0  0  0
   26.6584  -20.5141   -6.3357 C   0  0  0  0  0  0  0  0  0  0  0  0
   25.8733  -20.9515   -8.5744 C   0  0  2  0  0  0  0  0  0  0  0  0
   25.6745  -20.3044   -9.9345 N   0  0  0  0  0  0  0  0  0  0  0  0
   24.5539  -21.2911   -8.0935 C   0  0  0  0  0  0  0  0  0  0  0  0
   24.1865  -22.3850   -7.3167 O   0  0  0  0  0  0  0  0  0  0  0  0
   23.5506  -20.5409   -8.3867 O   0  0  0  0  0  0  0  0  0  0  0  0
  2  3  1  0
  2  1  1  6
  3  4  1  0
  4  8  1  0
  4  5  2  0
  6  2  1  0
  7  6  2  0
  9 10  1  0
 10 11  1  0
 11 13  1  0
 11 12  1  1
 13 14  1  6
 14  6  1  0
 15 22  1  0
 15 13  1  0
 16 15  2  0
 18 17  1  0
 19 21  1  0
 19 18  1  0
 19 20  1  1
 21 22  1  6
 23 24  1  0
 23 21  1  0
 25 23  2  0
M  END
$$$$
