DII.pdb
     RDKit          3D

 25 24  0  0  1  0  0  0  0  0999 V2000
   18.2292  -12.0440  -17.7847 N   0  0  0  0  0  0  0  0  0  0  0  0
   19.1037  -10.9420  -18.0983 C   0  0  1  0  0  0  0  0  0  0  0  0
   18.3641   -9.8923  -18.8079 C   0  0  0  0  0  0  0  0  0  0  0  0
   17.8863  -10.3117  -20.1403 C   0  0  0  0  0  0  0  0  0  0  0  0
   18.4776  -11.2360  -20.7379 O   0  0  0  0  0  0  0  0  0  0  0  0
   19.8515  -10.5516  -16.8913 C   0  0  0  0  0  0  0  0  0  0  0  0
   19.2679  -10.7197  -15.7875 O   0  0  0  0  0  0  0  0  0  0  0  0
   16.8058   -9.7045  -20.7298 O   0  0  0  0  0  0  0  0  0  0  0  0
   24.6914  -12.2189  -15.6347 C   0  0  0  0  0  0  0  0  0  0  0  0
   23.3176  -11.6402  -15.5573 C   0  0  0  0  0  0  0  0  0  0  0  0
   23.3026  -10.1072  -15.7489 C   0  0  2  0  0  0  0  0  0  0  0  0
   24.0250   -9.6214  -14.4981 C   0  0  0  0  0  0  0  0  0  0  0  0
   21.8957   -9.5785  -15.7235 C   0  0  2  0  0  0  0  0  0  0  0  0
   21.1305  -10.0225  -16.8759 N   0  0  0  0  0  0  0  0  0  0  0  0
   21.8818   -8.1139  -15.6863 C   0  0  0  0  0  0  0  0  0  0  0  0
   22.4390   -7.4633  -16.6697 O   0  0  0  0  0  0  0  0  0  0  0  0
   17.8241   -5.3604  -16.0780 C   0  0  0  0  0  0  0  0  0  0  0  0
   19.2851   -5.5293  -16.0255 C   0  0  0  0  0  0  0  0  0  0  0  0
   20.0366   -5.3147  -14.7959 C   0  0  2  0  0  0  0  0  0  0  0  0
   20.1351   -3.8320  -14.4126 C   0  0  0  0  0  0  0  0  0  0  0  0
   21.4381   -5.8361  -14.7376 C   0  0  2  0  0  0  0  0  0  0  0  0
   21.3101   -7.3488  -14.6799 N   0  0  0  0  0  0  0  0  0  0  0  0
   22.2309   -5.4552  -13.5913 C   0  0  0  0  0  0  0  0  0  0  0  0
   22.3198   -6.1045  -12.3643 O   0  0  0  0  0  0  0  0  0  0  0  0
   22.9600   -4.3963  -13.6379 O   0  0  0  0  0  0  0  0  0  0  0  0
  2  3  1  0
  2  1  1  1
  3  4  1  0
  4  8  1  0
  4  5  2  0
  6  2  1  0
  7  6  2  0
  9 10  1  0
 10 11  1  0
 11 13  1  0
 11 12  1  1
 13 14  1  6
 14  6  1  0
 15 22  1  0
 15 13  1  0
 16 15  2  0
 18 17  1  0
 19 21  1  0
 19 18  1  0
 19 20  1  6
 21 22  1  1
 23 24  1  0
 23 21  1  0
 25 23  2  0
M  END
$$$$
