DII.pdb
     RDKit          3D

 25 24  0  0  1  0  0  0  0  0999 V2000
   27.9626  -21.6539  -16.1638 N   0  0  0  0  0  0  0  0  0  0  0  0
   27.6508  -20.6252  -15.2036 C   0  0  1  0  0  0  0  0  0  0  0  0
   27.2401  -19.3959  -15.8911 C   0  0  0  0  0  0  0  0  0  0  0  0
   28.2976  -18.8229  -16.7472 C   0  0  0  0  0  0  0  0  0  0  0  0
   28.0268  -17.8505  -17.4837 O   0  0  0  0  0  0  0  0  0  0  0  0
   26.7426  -21.1697  -14.1803 C   0  0  0  0  0  0  0  0  0  0  0  0
   26.1660  -22.2548  -14.4581 O   0  0  0  0  0  0  0  0  0  0  0  0
   29.5690  -19.3397  -16.7457 O   0  0  0  0  0  0  0  0  0  0  0  0
   27.4687  -20.5116   -8.7901 C   0  0  0  0  0  0  0  0  0  0  0  0
   26.9802  -21.1424  -10.0517 C   0  0  0  0  0  0  0  0  0  0  0  0
   25.7286  -20.4414  -10.6254 C   0  0  2  0  0  0  0  0  0  0  0  0
   24.6309  -20.9282   -9.6870 C   0  0  0  0  0  0  0  0  0  0  0  0
   25.4260  -20.9369  -12.0119 C   0  0  2  0  0  0  0  0  0  0  0  0
   26.4780  -20.5894  -12.9517 N   0  0  0  0  0  0  0  0  0  0  0  0
   24.1580  -20.3916  -12.5034 C   0  0  0  0  0  0  0  0  0  0  0  0
   24.0605  -19.1017  -12.6691 O   0  0  0  0  0  0  0  0  0  0  0  0
   20.2975  -20.6363  -16.9167 C   0  0  0  0  0  0  0  0  0  0  0  0
   20.4789  -20.3704  -15.4806 C   0  0  0  0  0  0  0  0  0  0  0  0
   21.6769  -20.7957  -14.7689 C   0  0  2  0  0  0  0  0  0  0  0  0
   21.8987  -22.3128  -14.8356 C   0  0  0  0  0  0  0  0  0  0  0  0
   21.7881  -20.4394  -13.3197 C   0  0  2  0  0  0  0  0  0  0  0  0
   23.0368  -21.1453  -12.8192 N   0  0  0  0  0  0  0  0  0  0  0  0
   20.7111  -20.8660  -12.4563 C   0  0  0  0  0  0  0  0  0  0  0  0
   19.5514  -20.1687  -12.1341 O   0  0  0  0  0  0  0  0  0  0  0  0
   20.7684  -22.0133  -11.8770 O   0  0  0  0  0  0  0  0  0  0  0  0
  2  3  1  0
  2  1  1  6
  3  4  1  0
  4  8  1  0
  4  5  2  0
  6  2  1  0
  7  6  2  0
  9 10  1  0
 10 11  1  0
 11 13  1  0
 11 12  1  1
 13 14  1  6
 14  6  1  0
 15 22  1  0
 15 13  1  0
 16 15  2  0
 18 17  1  0
 19 21  1  0
 19 18  1  0
 19 20  1  1
 21 22  1  1
 23 24  1  0
 23 21  1  0
 25 23  2  0
M  END
$$$$
