DII.pdb
     RDKit          3D

 25 24  0  0  1  0  0  0  0  0999 V2000
   28.4730  -21.7834  -15.8846 N   0  0  0  0  0  0  0  0  0  0  0  0
   27.8372  -20.6790  -15.2112 C   0  0  1  0  0  0  0  0  0  0  0  0
   27.3799  -19.6837  -16.1873 C   0  0  0  0  0  0  0  0  0  0  0  0
   28.4849  -19.0123  -16.8999 C   0  0  0  0  0  0  0  0  0  0  0  0
   29.3022  -19.7014  -17.5468 O   0  0  0  0  0  0  0  0  0  0  0  0
   26.8481  -21.1955  -14.2503 C   0  0  0  0  0  0  0  0  0  0  0  0
   26.1289  -22.1531  -14.6413 O   0  0  0  0  0  0  0  0  0  0  0  0
   28.6269  -17.6477  -16.8634 O   0  0  0  0  0  0  0  0  0  0  0  0
   27.7058  -20.8576   -8.8156 C   0  0  0  0  0  0  0  0  0  0  0  0
   27.1888  -21.4210  -10.0976 C   0  0  0  0  0  0  0  0  0  0  0  0
   25.9447  -20.6701  -10.6224 C   0  0  2  0  0  0  0  0  0  0  0  0
   24.8498  -21.1744   -9.6900 C   0  0  0  0  0  0  0  0  0  0  0  0
   25.6128  -21.0988  -12.0245 C   0  0  2  0  0  0  0  0  0  0  0  0
   26.6510  -20.7171  -12.9663 N   0  0  0  0  0  0  0  0  0  0  0  0
   24.3413  -20.5209  -12.4671 C   0  0  0  0  0  0  0  0  0  0  0  0
   24.2727  -19.2296  -12.6365 O   0  0  0  0  0  0  0  0  0  0  0  0
   20.2890  -20.9538  -16.7371 C   0  0  0  0  0  0  0  0  0  0  0  0
   20.5505  -20.5723  -15.3400 C   0  0  0  0  0  0  0  0  0  0  0  0
   21.7753  -20.9652  -14.6557 C   0  0  2  0  0  0  0  0  0  0  0  0
   21.9777  -22.4862  -14.6295 C   0  0  0  0  0  0  0  0  0  0  0  0
   21.9566  -20.5139  -13.2405 C   0  0  2  0  0  0  0  0  0  0  0  0
   23.1877  -21.2447  -12.7323 N   0  0  0  0  0  0  0  0  0  0  0  0
   20.8929  -20.8242  -12.3132 C   0  0  0  0  0  0  0  0  0  0  0  0
   19.8002  -20.0325  -11.9756 O   0  0  0  0  0  0  0  0  0  0  0  0
   20.8969  -21.9461  -11.6834 O   0  0  0  0  0  0  0  0  0  0  0  0
  2  3  1  0
  2  1  1  6
  3  4  1  0
  4  8  1  0
  4  5  2  0
  6  2  1  0
  7  6  2  0
  9 10  1  0
 10 11  1  0
 11 13  1  0
 11 12  1  1
 13 14  1  6
 14  6  1  0
 15 22  1  0
 15 13  1  0
 16 15  2  0
 18 17  1  0
 19 21  1  0
 19 18  1  0
 19 20  1  1
 21 22  1  1
 23 24  1  0
 23 21  1  0
 25 23  2  0
M  END
$$$$
