WDF.pdb
     RDKit          3D

 34 36  0  0  1  0  0  0  0  0999 V2000
    6.6978  -17.7312   24.2041 N   0  0  0  0  0  0  0  0  0  0  0  0
    7.9060  -16.9998   24.0182 C   0  0  1  0  0  0  0  0  0  0  0  0
    8.0182  -15.8883   25.0383 C   0  0  0  0  0  0  0  0  0  0  0  0
    7.2719  -14.7179   24.5711 C   0  0  0  0  0  0  0  0  0  0  0  0
    6.2135  -14.0768   25.1744 C   0  0  0  0  0  0  0  0  0  0  0  0
    5.8443  -13.0547   24.3932 N   0  0  0  0  0  0  0  0  0  0  0  0
    6.6227  -13.0094   23.3080 C   0  0  0  0  0  0  0  0  0  0  0  0
    6.6738  -12.1671   22.1952 C   0  0  0  0  0  0  0  0  0  0  0  0
    7.6014  -12.3471   21.1928 C   0  0  0  0  0  0  0  0  0  0  0  0
    8.4908  -13.3800   21.2996 C   0  0  0  0  0  0  0  0  0  0  0  0
    8.4664  -14.2403   22.3994 C   0  0  0  0  0  0  0  0  0  0  0  0
    7.5180  -14.0357   23.3987 C   0  0  0  0  0  0  0  0  0  0  0  0
    9.0649  -17.9154   24.1394 C   0  0  0  0  0  0  0  0  0  0  0  0
    8.9066  -18.9773   24.8034 O   0  0  0  0  0  0  0  0  0  0  0  0
   10.3188  -17.6240   23.5355 N   0  0  0  0  0  0  0  0  0  0  0  0
   11.5488  -18.3014   23.8979 C   0  0  1  0  0  0  0  0  0  0  0  0
   12.5364  -18.3028   22.7729 C   0  0  0  0  0  0  0  0  0  0  0  0
   12.3368  -17.2007   21.8206 C   0  0  0  0  0  0  0  0  0  0  0  0
   11.3292  -17.1947   21.0777 O   0  0  0  0  0  0  0  0  0  0  0  0
   12.0833  -17.8016   25.1903 C   0  0  0  0  0  0  0  0  0  0  0  0
   13.3323  -17.7764   25.3227 O   0  0  0  0  0  0  0  0  0  0  0  0
   13.2710  -16.1837   21.7617 O   0  0  0  0  0  0  0  0  0  0  0  0
   11.2238  -17.3692   26.2360 N   0  0  0  0  0  0  0  0  0  0  0  0
   11.5627  -17.4450   27.6325 C   0  0  1  0  0  0  0  0  0  0  0  0
   10.4736  -16.8951   28.4942 C   0  0  0  0  0  0  0  0  0  0  0  0
    9.9027  -15.6179   28.0742 C   0  0  0  0  0  0  0  0  0  0  0  0
    8.5556  -15.4543   27.8303 C   0  0  0  0  0  0  0  0  0  0  0  0
    8.1154  -14.2100   27.4413 C   0  0  0  0  0  0  0  0  0  0  0  0
    8.9670  -13.1389   27.2903 C   0  0  0  0  0  0  0  0  0  0  0  0
   10.3116  -13.3044   27.5343 C   0  0  0  0  0  0  0  0  0  0  0  0
   10.7772  -14.5389   27.9246 C   0  0  0  0  0  0  0  0  0  0  0  0
   11.9820  -18.8145   28.0068 C   0  0  0  0  0  0  0  0  0  0  0  0
   11.3857  -19.7928   27.4994 O   0  0  0  0  0  0  0  0  0  0  0  0
   13.0007  -19.0897   28.8934 O   0  0  0  0  0  0  0  0  0  0  0  0
  2  1  1  1
  2  3  1  0
  4  3  1  0
  4  5  2  0
  6  5  1  0
  7  6  1  0
  8  7  2  0
  9  8  1  0
 10  9  2  0
 10 11  1  0
 11 12  2  0
 12  7  1  0
 12  4  1  0
 13  2  1  0
 14 13  2  0
 15 13  1  0
 16 15  1  0
 17 18  1  0
 16 17  1  6
 18 19  2  0
 20 16  1  0
 20 23  1  0
 21 20  2  0
 22 18  1  0
 24 23  1  0
 24 25  1  1
 24 32  1  0
 26 31  1  0
 26 25  1  0
 27 26  2  0
 28 29  2  0
 28 27  1  0
 29 30  1  0
 30 31  2  0
 32 34  1  0
 33 32  2  0
M  END
$$$$
