WDF.pdb
     RDKit          3D

 34 36  0  0  1  0  0  0  0  0999 V2000
    7.3553  -18.3164   21.9575 N   0  0  0  0  0  0  0  0  0  0  0  0
    8.1169  -17.1696   22.3239 C   0  0  1  0  0  0  0  0  0  0  0  0
    7.2056  -16.0316   22.7278 C   0  0  0  0  0  0  0  0  0  0  0  0
    6.8151  -15.2715   21.5384 C   0  0  0  0  0  0  0  0  0  0  0  0
    6.0008  -15.6609   20.4989 C   0  0  0  0  0  0  0  0  0  0  0  0
    5.9205  -14.6467   19.6291 N   0  0  0  0  0  0  0  0  0  0  0  0
    6.6510  -13.6164   20.0655 C   0  0  0  0  0  0  0  0  0  0  0  0
    6.9124  -12.3406   19.5612 C   0  0  0  0  0  0  0  0  0  0  0  0
    7.7230  -11.4497   20.2298 C   0  0  0  0  0  0  0  0  0  0  0  0
    8.2812  -11.8342   21.4173 C   0  0  0  0  0  0  0  0  0  0  0  0
    8.0397  -13.1029   21.9489 C   0  0  0  0  0  0  0  0  0  0  0  0
    7.2162  -13.9840   21.2522 C   0  0  0  0  0  0  0  0  0  0  0  0
    9.0237  -17.5126   23.4447 C   0  0  0  0  0  0  0  0  0  0  0  0
    8.5139  -18.0427   24.4707 O   0  0  0  0  0  0  0  0  0  0  0  0
   10.4218  -17.2604   23.3839 N   0  0  0  0  0  0  0  0  0  0  0  0
   11.3117  -17.4566   24.5121 C   0  0  1  0  0  0  0  0  0  0  0  0
   12.7334  -17.6298   24.0767 C   0  0  0  0  0  0  0  0  0  0  0  0
   12.9880  -17.1474   22.7115 C   0  0  0  0  0  0  0  0  0  0  0  0
   13.3151  -15.9536   22.5240 O   0  0  0  0  0  0  0  0  0  0  0  0
   11.1053  -16.4177   25.5533 C   0  0  0  0  0  0  0  0  0  0  0  0
   11.6795  -15.3134   25.3830 O   0  0  0  0  0  0  0  0  0  0  0  0
   12.8610  -18.0258   21.6519 O   0  0  0  0  0  0  0  0  0  0  0  0
   10.2942  -16.6567   26.6953 N   0  0  0  0  0  0  0  0  0  0  0  0
   10.3697  -15.8824   27.9060 C   0  0  1  0  0  0  0  0  0  0  0  0
    9.1083  -15.1213   28.1526 C   0  0  0  0  0  0  0  0  0  0  0  0
    8.6551  -14.2564   27.0662 C   0  0  0  0  0  0  0  0  0  0  0  0
    7.6985  -14.6524   26.1556 C   0  0  0  0  0  0  0  0  0  0  0  0
    7.3370  -13.7631   25.1697 C   0  0  0  0  0  0  0  0  0  0  0  0
    7.8935  -12.5081   25.0664 C   0  0  0  0  0  0  0  0  0  0  0  0
    8.8485  -12.1149   25.9765 C   0  0  0  0  0  0  0  0  0  0  0  0
    9.2275  -12.9857   26.9722 C   0  0  0  0  0  0  0  0  0  0  0  0
   10.7908  -16.7210   29.0509 C   0  0  0  0  0  0  0  0  0  0  0  0
   10.9781  -16.1789   30.1650 O   0  0  0  0  0  0  0  0  0  0  0  0
   10.9964  -18.0815   28.9709 O   0  0  0  0  0  0  0  0  0  0  0  0
  2  1  1  1
  2  3  1  0
  4  3  1  0
  4  5  2  0
  6  5  1  0
  7  6  1  0
  8  7  2  0
  9  8  1  0
 10  9  2  0
 10 11  1  0
 11 12  2  0
 12  7  1  0
 12  4  1  0
 13  2  1  0
 14 13  2  0
 15 13  1  0
 16 15  1  0
 17 18  1  0
 16 17  1  6
 18 19  2  0
 20 16  1  0
 20 23  1  0
 21 20  2  0
 22 18  1  0
 24 23  1  0
 24 25  1  1
 24 32  1  0
 26 31  1  0
 26 25  1  0
 27 26  2  0
 28 29  2  0
 28 27  1  0
 29 30  1  0
 30 31  2  0
 32 34  1  0
 33 32  2  0
M  END
$$$$
