WDF.pdb
     RDKit          3D

 34 36  0  0  1  0  0  0  0  0999 V2000
    7.6894  -18.2461   22.2121 N   0  0  0  0  0  0  0  0  0  0  0  0
    8.6244  -17.1860   22.3890 C   0  0  1  0  0  0  0  0  0  0  0  0
    7.9571  -15.9882   23.0283 C   0  0  0  0  0  0  0  0  0  0  0  0
    7.2225  -15.2353   22.0092 C   0  0  0  0  0  0  0  0  0  0  0  0
    5.8977  -15.3422   21.6506 C   0  0  0  0  0  0  0  0  0  0  0  0
    5.6569  -14.4589   20.6742 N   0  0  0  0  0  0  0  0  0  0  0  0
    6.7744  -13.7848   20.3873 C   0  0  0  0  0  0  0  0  0  0  0  0
    7.0800  -12.7732   19.4742 C   0  0  0  0  0  0  0  0  0  0  0  0
    8.3466  -12.2394   19.3819 C   0  0  0  0  0  0  0  0  0  0  0  0
    9.3229  -12.7194   20.2101 C   0  0  0  0  0  0  0  0  0  0  0  0
    9.0502  -13.7304   21.1342 C   0  0  0  0  0  0  0  0  0  0  0  0
    7.7608  -14.2523   21.2066 C   0  0  0  0  0  0  0  0  0  0  0  0
    9.7477  -17.6505   23.2367 C   0  0  0  0  0  0  0  0  0  0  0  0
    9.4682  -18.3531   24.2477 O   0  0  0  0  0  0  0  0  0  0  0  0
   11.0992  -17.3257   22.9371 N   0  0  0  0  0  0  0  0  0  0  0  0
   12.1765  -17.4527   23.8997 C   0  0  1  0  0  0  0  0  0  0  0  0
   13.5204  -17.3904   23.2433 C   0  0  0  0  0  0  0  0  0  0  0  0
   13.5773  -18.1089   21.9620 C   0  0  0  0  0  0  0  0  0  0  0  0
   13.3192  -19.3333   21.9230 O   0  0  0  0  0  0  0  0  0  0  0  0
   11.9998  -16.5162   25.0388 C   0  0  0  0  0  0  0  0  0  0  0  0
   12.5861  -15.4076   24.9657 O   0  0  0  0  0  0  0  0  0  0  0  0
   13.9170  -17.4159   20.8154 O   0  0  0  0  0  0  0  0  0  0  0  0
   11.2029  -16.8540   26.1658 N   0  0  0  0  0  0  0  0  0  0  0  0
   11.1961  -16.1041   27.3940 C   0  0  1  0  0  0  0  0  0  0  0  0
   11.0844  -14.6360   27.1423 C   0  0  0  0  0  0  0  0  0  0  0  0
    9.7473  -14.1352   26.8347 C   0  0  0  0  0  0  0  0  0  0  0  0
    9.1681  -14.2874   25.5927 C   0  0  0  0  0  0  0  0  0  0  0  0
    7.9021  -13.7825   25.4034 C   0  0  0  0  0  0  0  0  0  0  0  0
    7.2063  -13.1391   26.4021 C   0  0  0  0  0  0  0  0  0  0  0  0
    7.7864  -12.9881   27.6412 C   0  0  0  0  0  0  0  0  0  0  0  0
    9.0517  -13.4842   27.8563 C   0  0  0  0  0  0  0  0  0  0  0  0
   10.1765  -16.6251   28.3323 C   0  0  0  0  0  0  0  0  0  0  0  0
    9.3134  -17.4281   27.9075 O   0  0  0  0  0  0  0  0  0  0  0  0
   10.1109  -16.2778   29.6645 O   0  0  0  0  0  0  0  0  0  0  0  0
  2  1  1  1
  2  3  1  0
  4  3  1  0
  4  5  2  0
  6  5  1  0
  7  6  1  0
  8  7  2  0
  9  8  1  0
 10  9  2  0
 10 11  1  0
 11 12  2  0
 12  7  1  0
 12  4  1  0
 13  2  1  0
 14 13  2  0
 15 13  1  0
 16 15  1  0
 17 18  1  0
 16 17  1  6
 18 19  2  0
 20 16  1  0
 20 23  1  0
 21 20  2  0
 22 18  1  0
 24 23  1  0
 24 25  1  6
 24 32  1  0
 26 31  1  0
 26 25  1  0
 27 26  2  0
 28 29  2  0
 28 27  1  0
 29 30  1  0
 30 31  2  0
 32 34  1  0
 33 32  2  0
M  END
$$$$
