WDF.pdb
     RDKit          3D

 34 36  0  0  1  0  0  0  0  0999 V2000
    7.1769  -17.1652   21.5058 N   0  0  0  0  0  0  0  0  0  0  0  0
    8.2940  -16.4061   21.9589 C   0  0  1  0  0  0  0  0  0  0  0  0
    7.8756  -14.9920   22.2964 C   0  0  0  0  0  0  0  0  0  0  0  0
    7.6123  -14.2513   21.0606 C   0  0  0  0  0  0  0  0  0  0  0  0
    6.4138  -13.7651   20.5892 C   0  0  0  0  0  0  0  0  0  0  0  0
    6.6421  -13.1531   19.4209 N   0  0  0  0  0  0  0  0  0  0  0  0
    7.9417  -13.2244   19.1183 C   0  0  0  0  0  0  0  0  0  0  0  0
    8.7058  -12.7639   18.0439 C   0  0  0  0  0  0  0  0  0  0  0  0
   10.0650  -12.9783   17.9774 C   0  0  0  0  0  0  0  0  0  0  0  0
   10.6721  -13.6608   18.9948 C   0  0  0  0  0  0  0  0  0  0  0  0
    9.9366  -14.1345   20.0835 C   0  0  0  0  0  0  0  0  0  0  0  0
    8.5637  -13.9038   20.1255 C   0  0  0  0  0  0  0  0  0  0  0  0
    8.8855  -17.0561   23.1521 C   0  0  0  0  0  0  0  0  0  0  0  0
    8.1040  -17.3931   24.0845 O   0  0  0  0  0  0  0  0  0  0  0  0
   10.2822  -17.2996   23.2601 N   0  0  0  0  0  0  0  0  0  0  0  0
   10.9022  -17.8387   24.4552 C   0  0  1  0  0  0  0  0  0  0  0  0
   11.9961  -18.8065   24.1272 C   0  0  0  0  0  0  0  0  0  0  0  0
   12.6489  -19.3733   25.3163 C   0  0  0  0  0  0  0  0  0  0  0  0
   11.9590  -19.9360   26.1965 O   0  0  0  0  0  0  0  0  0  0  0  0
   11.2923  -16.7596   25.3982 C   0  0  0  0  0  0  0  0  0  0  0  0
   12.3680  -16.1546   25.1636 O   0  0  0  0  0  0  0  0  0  0  0  0
   14.0217  -19.2745   25.4427 O   0  0  0  0  0  0  0  0  0  0  0  0
   10.4875  -16.4215   26.5194 N   0  0  0  0  0  0  0  0  0  0  0  0
   10.9732  -15.6936   27.6619 C   0  0  1  0  0  0  0  0  0  0  0  0
   10.3391  -14.3452   27.7663 C   0  0  0  0  0  0  0  0  0  0  0  0
    8.8910  -14.2984   27.5808 C   0  0  0  0  0  0  0  0  0  0  0  0
    8.2354  -15.1014   26.6716 C   0  0  0  0  0  0  0  0  0  0  0  0
    6.8679  -14.9841   26.5736 C   0  0  0  0  0  0  0  0  0  0  0  0
    6.1449  -14.1020   27.3446 C   0  0  0  0  0  0  0  0  0  0  0  0
    6.8014  -13.3012   28.2515 C   0  0  0  0  0  0  0  0  0  0  0  0
    8.1688  -13.3993   28.3689 C   0  0  0  0  0  0  0  0  0  0  0  0
   10.8589  -16.5009   28.8975 C   0  0  0  0  0  0  0  0  0  0  0  0
   10.2455  -17.5927   28.8557 O   0  0  0  0  0  0  0  0  0  0  0  0
   11.3897  -16.1237   30.1123 O   0  0  0  0  0  0  0  0  0  0  0  0
  2  1  1  1
  2  3  1  0
  4  3  1  0
  4  5  2  0
  6  5  1  0
  7  6  1  0
  8  7  2  0
  9  8  1  0
 10  9  2  0
 10 11  1  0
 11 12  2  0
 12  7  1  0
 12  4  1  0
 13  2  1  0
 14 13  2  0
 15 13  1  0
 16 15  1  0
 17 18  1  0
 16 17  1  6
 18 19  2  0
 20 16  1  0
 20 23  1  0
 21 20  2  0
 22 18  1  0
 24 23  1  0
 24 25  1  1
 24 32  1  0
 26 31  1  0
 26 25  1  0
 27 26  2  0
 28 29  2  0
 28 27  1  0
 29 30  1  0
 30 31  2  0
 32 34  1  0
 33 32  2  0
M  END
$$$$
