WDF.pdb
     RDKit          3D

 34 36  0  0  1  0  0  0  0  0999 V2000
    6.7870  -17.5871   24.3195 N   0  0  0  0  0  0  0  0  0  0  0  0
    7.7617  -16.6342   23.9056 C   0  0  1  0  0  0  0  0  0  0  0  0
    8.2080  -15.7857   25.0758 C   0  0  0  0  0  0  0  0  0  0  0  0
    7.0944  -14.9474   25.5254 C   0  0  0  0  0  0  0  0  0  0  0  0
    5.8945  -15.3362   26.0769 C   0  0  0  0  0  0  0  0  0  0  0  0
    5.1785  -14.2357   26.3371 N   0  0  0  0  0  0  0  0  0  0  0  0
    5.8686  -13.1501   25.9755 C   0  0  0  0  0  0  0  0  0  0  0  0
    5.6014  -11.7802   26.0235 C   0  0  0  0  0  0  0  0  0  0  0  0
    6.5109  -10.8487   25.5730 C   0  0  0  0  0  0  0  0  0  0  0  0
    7.7032  -11.2871   25.0675 C   0  0  0  0  0  0  0  0  0  0  0  0
    8.0014  -12.6500   25.0055 C   0  0  0  0  0  0  0  0  0  0  0  0
    7.0638  -13.5704   25.4679 C   0  0  0  0  0  0  0  0  0  0  0  0
    8.9265  -17.3378   23.3187 C   0  0  0  0  0  0  0  0  0  0  0  0
    9.1511  -18.5201   23.7003 O   0  0  0  0  0  0  0  0  0  0  0  0
    9.7726  -16.7184   22.3583 N   0  0  0  0  0  0  0  0  0  0  0  0
   11.1532  -17.1100   22.1493 C   0  0  1  0  0  0  0  0  0  0  0  0
   11.7101  -16.5348   20.8845 C   0  0  0  0  0  0  0  0  0  0  0  0
   13.0330  -17.0712   20.5330 C   0  0  0  0  0  0  0  0  0  0  0  0
   13.1250  -18.1982   19.9957 O   0  0  0  0  0  0  0  0  0  0  0  0
   11.9776  -16.8595   23.3590 C   0  0  0  0  0  0  0  0  0  0  0  0
   12.8519  -15.9607   23.2808 O   0  0  0  0  0  0  0  0  0  0  0  0
   14.1593  -16.3172   20.8034 O   0  0  0  0  0  0  0  0  0  0  0  0
   11.7901  -17.6011   24.5565 N   0  0  0  0  0  0  0  0  0  0  0  0
   12.6694  -17.5208   25.6929 C   0  0  1  0  0  0  0  0  0  0  0  0
   12.9047  -16.1054   26.1082 C   0  0  0  0  0  0  0  0  0  0  0  0
   11.8449  -15.4805   26.8955 C   0  0  0  0  0  0  0  0  0  0  0  0
   11.8727  -15.4406   28.2735 C   0  0  0  0  0  0  0  0  0  0  0  0
   10.8272  -14.8261   28.9237 C   0  0  0  0  0  0  0  0  0  0  0  0
    9.7695  -14.2581   28.2498 C   0  0  0  0  0  0  0  0  0  0  0  0
    9.7437  -14.2991   26.8742 C   0  0  0  0  0  0  0  0  0  0  0  0
   10.7773  -14.9079   26.2001 C   0  0  0  0  0  0  0  0  0  0  0  0
   12.2007  -18.3926   26.7936 C   0  0  0  0  0  0  0  0  0  0  0  0
   11.1059  -18.9899   26.6719 O   0  0  0  0  0  0  0  0  0  0  0  0
   12.8996  -18.5928   27.9646 O   0  0  0  0  0  0  0  0  0  0  0  0
  2  1  1  1
  2  3  1  0
  4  3  1  0
  4  5  2  0
  6  5  1  0
  7  6  1  0
  8  7  2  0
  9  8  1  0
 10  9  2  0
 10 11  1  0
 11 12  2  0
 12  7  1  0
 12  4  1  0
 13  2  1  0
 14 13  2  0
 15 13  1  0
 16 15  1  0
 17 18  1  0
 16 17  1  6
 18 19  2  0
 20 16  1  0
 20 23  1  0
 21 20  2  0
 22 18  1  0
 24 23  1  0
 24 25  1  1
 24 32  1  0
 26 31  1  0
 26 25  1  0
 27 26  2  0
 28 29  2  0
 28 27  1  0
 29 30  1  0
 30 31  2  0
 32 34  1  0
 33 32  2  0
M  END
$$$$
