YVC.pdb
     RDKit          3D

 26 26  0  0  1  0  0  0  0  0999 V2000
   13.4067  -12.8910  -19.5359 O   0  0  0  0  0  0  0  0  0  0  0  0
   14.2103  -12.0758  -18.7515 C   0  0  0  0  0  0  0  0  0  0  0  0
   15.5419  -11.9210  -19.0200 C   0  0  0  0  0  0  0  0  0  0  0  0
   16.3599  -11.1283  -18.2702 C   0  0  0  0  0  0  0  0  0  0  0  0
   15.8609  -10.4286  -17.1760 C   0  0  0  0  0  0  0  0  0  0  0  0
   16.7488   -9.5579  -16.3486 C   0  0  0  0  0  0  0  0  0  0  0  0
   17.6057  -10.5064  -15.5007 C   0  0  2  0  0  0  0  0  0  0  0  0
   16.7115  -11.1801  -14.6056 N   0  0  0  0  0  0  0  0  0  0  0  0
   18.6467   -9.7367  -14.7618 C   0  0  0  0  0  0  0  0  0  0  0  0
   18.4312   -9.2212  -13.6397 O   0  0  0  0  0  0  0  0  0  0  0  0
   14.5183  -10.5810  -16.9003 C   0  0  0  0  0  0  0  0  0  0  0  0
   13.6930  -11.3868  -17.6648 C   0  0  0  0  0  0  0  0  0  0  0  0
   23.4925   -9.0697  -14.5788 C   0  0  0  0  0  0  0  0  0  0  0  0
   22.2293   -9.7764  -14.9524 C   0  0  1  0  0  0  0  0  0  0  0  0
   22.0896  -11.1582  -14.4178 C   0  0  0  0  0  0  0  0  0  0  0  0
   21.0237   -8.8808  -14.7153 C   0  0  2  0  0  0  0  0  0  0  0  0
   19.9102   -9.5876  -15.3489 N   0  0  0  0  0  0  0  0  0  0  0  0
   21.1719   -7.5271  -15.2471 C   0  0  0  0  0  0  0  0  0  0  0  0
   21.4877   -7.3148  -16.4674 O   0  0  0  0  0  0  0  0  0  0  0  0
   20.9676   -6.3999  -14.4210 N   0  0  0  0  0  0  0  0  0  0  0  0
   21.1113   -5.0366  -14.9428 C   0  0  1  0  0  0  0  0  0  0  0  0
   20.0470   -4.1354  -14.3170 C   0  0  0  0  0  0  0  0  0  0  0  0
   18.3973   -4.8143  -14.6052 S   0  0  0  0  0  0  0  0  0  0  0  0
   22.4192   -4.5186  -14.5271 C   0  0  0  0  0  0  0  0  0  0  0  0
   22.9922   -3.3619  -15.0458 O   0  0  0  0  0  0  0  0  0  0  0  0
   23.1169   -5.1168  -13.6459 O   0  0  0  0  0  0  0  0  0  0  0  0
  2  1  1  0
  2  3  2  0
  4  3  1  0
  5  4  2  0
  6  5  1  0
  7  9  1  0
  7  6  1  0
  7  8  1  1
  9 17  1  0
  9 10  2  0
 11 12  2  0
 11  5  1  0
 12  2  1  0
 14 13  1  1
 14 15  1  0
 16 14  1  0
 16 17  1  6
 18 20  1  0
 18 16  1  0
 19 18  2  0
 21 20  1  0
 22 23  1  0
 21 22  1  1
 24 21  1  0
 24 25  1  0
 26 24  2  0
M  END
$$$$
