YVC.pdb
     RDKit          3D

 26 26  0  0  1  0  0  0  0  0999 V2000
   16.1128  -16.3196  -18.4736 O   0  0  0  0  0  0  0  0  0  0  0  0
   16.5536  -15.2443  -17.7152 C   0  0  0  0  0  0  0  0  0  0  0  0
   16.5440  -13.9716  -18.2145 C   0  0  0  0  0  0  0  0  0  0  0  0
   16.9697  -12.8928  -17.4971 C   0  0  0  0  0  0  0  0  0  0  0  0
   17.4421  -13.0472  -16.1975 C   0  0  0  0  0  0  0  0  0  0  0  0
   17.9106  -11.8720  -15.4036 C   0  0  0  0  0  0  0  0  0  0  0  0
   19.2759  -11.4823  -15.9843 C   0  0  2  0  0  0  0  0  0  0  0  0
   20.1859  -12.5344  -15.6385 N   0  0  0  0  0  0  0  0  0  0  0  0
   19.7153  -10.1707  -15.4288 C   0  0  0  0  0  0  0  0  0  0  0  0
   20.0669  -10.0311  -14.2337 O   0  0  0  0  0  0  0  0  0  0  0  0
   17.4541  -14.3289  -15.6886 C   0  0  0  0  0  0  0  0  0  0  0  0
   17.0209  -15.4198  -16.4213 C   0  0  0  0  0  0  0  0  0  0  0  0
   21.7243   -5.9645  -16.5645 C   0  0  0  0  0  0  0  0  0  0  0  0
   21.4092   -7.4255  -16.5966 C   0  0  1  0  0  0  0  0  0  0  0  0
   22.5391   -8.3293  -16.2483 C   0  0  0  0  0  0  0  0  0  0  0  0
   20.1161   -7.7116  -15.8499 C   0  0  2  0  0  0  0  0  0  0  0  0
   19.7336   -9.0571  -16.2791 N   0  0  0  0  0  0  0  0  0  0  0  0
   19.0514   -6.7435  -16.1073 C   0  0  0  0  0  0  0  0  0  0  0  0
   18.4721   -6.6672  -17.2443 O   0  0  0  0  0  0  0  0  0  0  0  0
   18.6242   -5.8536  -15.0971 N   0  0  0  0  0  0  0  0  0  0  0  0
   17.6525   -4.7914  -15.3783 C   0  0  1  0  0  0  0  0  0  0  0  0
   16.3677   -5.0538  -14.5928 C   0  0  0  0  0  0  0  0  0  0  0  0
   15.2700   -3.6212  -14.6827 S   0  0  0  0  0  0  0  0  0  0  0  0
   18.2050   -3.5209  -14.8965 C   0  0  0  0  0  0  0  0  0  0  0  0
   17.9069   -2.2852  -15.4619 O   0  0  0  0  0  0  0  0  0  0  0  0
   19.0080   -3.4818  -13.9092 O   0  0  0  0  0  0  0  0  0  0  0  0
  2  1  1  0
  2  3  2  0
  4  3  1  0
  5  4  2  0
  6  5  1  0
  7  9  1  0
  7  6  1  0
  7  8  1  1
  9 17  1  0
  9 10  2  0
 11 12  2  0
 11  5  1  0
 12  2  1  0
 14 13  1  1
 14 15  1  0
 16 14  1  0
 16 17  1  6
 18 20  1  0
 18 16  1  0
 19 18  2  0
 21 20  1  0
 22 23  1  0
 21 22  1  1
 24 21  1  0
 24 25  1  0
 26 24  2  0
M  END
$$$$
