YVC.pdb
     RDKit          3D

 26 26  0  0  1  0  0  0  0  0999 V2000
   23.4763  -21.5651   -7.8298 O   0  0  0  0  0  0  0  0  0  0  0  0
   24.0155  -21.2324   -9.0644 C   0  0  0  0  0  0  0  0  0  0  0  0
   25.3662  -21.2421   -9.2756 C   0  0  0  0  0  0  0  0  0  0  0  0
   25.9292  -20.9208  -10.4753 C   0  0  0  0  0  0  0  0  0  0  0  0
   25.1333  -20.5617  -11.5586 C   0  0  0  0  0  0  0  0  0  0  0  0
   25.7404  -20.2081  -12.8766 C   0  0  0  0  0  0  0  0  0  0  0  0
   25.1833  -21.2186  -13.8873 C   0  0  2  0  0  0  0  0  0  0  0  0
   25.9615  -22.4140  -13.7461 N   0  0  0  0  0  0  0  0  0  0  0  0
   25.2710  -20.6655  -15.2688 C   0  0  0  0  0  0  0  0  0  0  0  0
   26.3393  -20.6620  -15.9245 O   0  0  0  0  0  0  0  0  0  0  0  0
   23.7699  -20.5502  -11.3514 C   0  0  0  0  0  0  0  0  0  0  0  0
   23.2043  -20.8771  -10.1317 C   0  0  0  0  0  0  0  0  0  0  0  0
   22.9740  -19.9410  -19.3636 C   0  0  0  0  0  0  0  0  0  0  0  0
   23.3320  -20.5363  -18.0399 C   0  0  1  0  0  0  0  0  0  0  0  0
   23.9609  -21.8839  -18.0958 C   0  0  0  0  0  0  0  0  0  0  0  0
   24.0755  -19.5257  -17.1810 C   0  0  2  0  0  0  0  0  0  0  0  0
   24.1131  -20.1315  -15.8496 N   0  0  0  0  0  0  0  0  0  0  0  0
   23.4592  -18.2005  -17.1502 C   0  0  0  0  0  0  0  0  0  0  0  0
   22.2762  -18.0192  -16.7010 O   0  0  0  0  0  0  0  0  0  0  0  0
   24.1591  -17.0669  -17.6194 N   0  0  0  0  0  0  0  0  0  0  0  0
   23.5602  -15.7287  -17.5738 C   0  0  1  0  0  0  0  0  0  0  0  0
   24.6628  -14.6808  -17.4232 C   0  0  0  0  0  0  0  0  0  0  0  0
   24.6653  -14.0048  -15.7473 S   0  0  0  0  0  0  0  0  0  0  0  0
   22.8935  -15.4774  -18.8560 C   0  0  0  0  0  0  0  0  0  0  0  0
   21.7676  -14.6723  -18.9963 O   0  0  0  0  0  0  0  0  0  0  0  0
   23.3221  -15.9970  -19.9365 O   0  0  0  0  0  0  0  0  0  0  0  0
  2  1  1  0
  2  3  2  0
  4  3  1  0
  5  4  2  0
  6  5  1  0
  7  9  1  0
  7  6  1  0
  7  8  1  6
  9 17  1  0
  9 10  2  0
 11 12  2  0
 11  5  1  0
 12  2  1  0
 14 13  1  6
 14 15  1  0
 16 14  1  0
 16 17  1  1
 18 20  1  0
 18 16  1  0
 19 18  2  0
 21 20  1  0
 22 23  1  0
 21 22  1  6
 24 21  1  0
 24 25  1  0
 26 24  2  0
M  END
$$$$
