YVC.pdb
     RDKit          3D

 26 26  0  0  1  0  0  0  0  0999 V2000
   20.4246  -23.0282   -7.8510 O   0  0  0  0  0  0  0  0  0  0  0  0
   21.4348  -22.2626   -8.4159 C   0  0  0  0  0  0  0  0  0  0  0  0
   21.4138  -21.9246   -9.7404 C   0  0  0  0  0  0  0  0  0  0  0  0
   22.3895  -21.1743  -10.3275 C   0  0  0  0  0  0  0  0  0  0  0  0
   23.4714  -20.7115   -9.5849 C   0  0  0  0  0  0  0  0  0  0  0  0
   24.5450  -19.8891  -10.2187 C   0  0  0  0  0  0  0  0  0  0  0  0
   25.4092  -20.8658  -11.0266 C   0  0  2  0  0  0  0  0  0  0  0  0
   26.0927  -21.6934  -10.0766 N   0  0  0  0  0  0  0  0  0  0  0  0
   26.3648  -20.1142  -11.8889 C   0  0  0  0  0  0  0  0  0  0  0  0
   27.5868  -20.0301  -11.6228 O   0  0  0  0  0  0  0  0  0  0  0  0
   23.4979  -21.0494   -8.2482 C   0  0  0  0  0  0  0  0  0  0  0  0
   22.5049  -21.8111   -7.6579 C   0  0  0  0  0  0  0  0  0  0  0  0
   28.1741  -19.9341  -15.8991 C   0  0  0  0  0  0  0  0  0  0  0  0
   27.4584  -20.2254  -14.6194 C   0  0  1  0  0  0  0  0  0  0  0  0
   28.2655  -20.9232  -13.5819 C   0  0  0  0  0  0  0  0  0  0  0  0
   26.7214  -18.9912  -14.1244 C   0  0  2  0  0  0  0  0  0  0  0  0
   25.8725  -19.4809  -13.0378 N   0  0  0  0  0  0  0  0  0  0  0  0
   25.9366  -18.3116  -15.1536 C   0  0  0  0  0  0  0  0  0  0  0  0
   24.9298  -18.8695  -15.7096 O   0  0  0  0  0  0  0  0  0  0  0  0
   26.2689  -17.0033  -15.5695 N   0  0  0  0  0  0  0  0  0  0  0  0
   25.3724  -16.2273  -16.4330 C   0  0  1  0  0  0  0  0  0  0  0  0
   25.6255  -14.7348  -16.2219 C   0  0  0  0  0  0  0  0  0  0  0  0
   25.4629  -14.3089  -14.4732 S   0  0  0  0  0  0  0  0  0  0  0  0
   25.7002  -16.5308  -17.8302 C   0  0  0  0  0  0  0  0  0  0  0  0
   24.8012  -16.3900  -18.8825 O   0  0  0  0  0  0  0  0  0  0  0  0
   26.8558  -16.9502  -18.1615 O   0  0  0  0  0  0  0  0  0  0  0  0
  2  1  1  0
  2  3  2  0
  4  3  1  0
  5  4  2  0
  6  5  1  0
  7  9  1  0
  7  6  1  0
  7  8  1  1
  9 17  1  0
  9 10  2  0
 11 12  2  0
 11  5  1  0
 12  2  1  0
 14 13  1  6
 14 15  1  0
 16 14  1  0
 16 17  1  1
 18 20  1  0
 18 16  1  0
 19 18  2  0
 21 20  1  0
 22 23  1  0
 21 22  1  6
 24 21  1  0
 24 25  1  0
 26 24  2  0
M  END
$$$$
