YVC.pdb
     RDKit          3D

 26 26  0  0  1  0  0  0  0  0999 V2000
   19.5665  -13.8781  -17.9535 O   0  0  0  0  0  0  0  0  0  0  0  0
   20.1092  -15.0479  -17.4407 C   0  0  0  0  0  0  0  0  0  0  0  0
   21.2110  -15.0247  -16.6316 C   0  0  0  0  0  0  0  0  0  0  0  0
   21.7696  -16.1545  -16.1109 C   0  0  0  0  0  0  0  0  0  0  0  0
   21.2283  -17.4059  -16.3884 C   0  0  0  0  0  0  0  0  0  0  0  0
   21.8329  -18.6491  -15.8229 C   0  0  0  0  0  0  0  0  0  0  0  0
   23.1429  -18.8726  -16.5891 C   0  0  2  0  0  0  0  0  0  0  0  0
   22.7865  -19.4340  -17.8590 N   0  0  0  0  0  0  0  0  0  0  0  0
   24.0403  -19.7802  -15.8192 C   0  0  0  0  0  0  0  0  0  0  0  0
   23.8853  -21.0240  -15.8039 O   0  0  0  0  0  0  0  0  0  0  0  0
   20.1167  -17.4353  -17.2040 C   0  0  0  0  0  0  0  0  0  0  0  0
   19.5542  -16.2856  -17.7295 C   0  0  0  0  0  0  0  0  0  0  0  0
   27.6140  -20.0824  -16.0877 C   0  0  0  0  0  0  0  0  0  0  0  0
   27.3851  -19.6155  -14.6862 C   0  0  1  0  0  0  0  0  0  0  0  0
   27.7784  -18.2067  -14.4111 C   0  0  0  0  0  0  0  0  0  0  0  0
   25.9859  -19.9849  -14.2198 C   0  0  2  0  0  0  0  0  0  0  0  0
   25.0938  -19.2157  -15.0879 N   0  0  0  0  0  0  0  0  0  0  0  0
   25.7338  -19.7040  -12.8075 C   0  0  0  0  0  0  0  0  0  0  0  0
   25.4706  -18.5237  -12.3931 O   0  0  0  0  0  0  0  0  0  0  0  0
   25.7724  -20.7386  -11.8468 N   0  0  0  0  0  0  0  0  0  0  0  0
   25.5265  -20.4690  -10.4261 C   0  0  1  0  0  0  0  0  0  0  0  0
   24.4156  -21.3873   -9.9170 C   0  0  0  0  0  0  0  0  0  0  0  0
   22.8608  -21.0253  -10.7638 S   0  0  0  0  0  0  0  0  0  0  0  0
   26.7427  -20.8004   -9.6761 C   0  0  0  0  0  0  0  0  0  0  0  0
   26.9306  -20.4896   -8.3331 O   0  0  0  0  0  0  0  0  0  0  0  0
   27.7161  -21.4061  -10.2300 O   0  0  0  0  0  0  0  0  0  0  0  0
  2  1  1  0
  2  3  2  0
  4  3  1  0
  5  4  2  0
  6  5  1  0
  7  9  1  0
  7  6  1  0
  7  8  1  6
  9 17  1  0
  9 10  2  0
 11 12  2  0
 11  5  1  0
 12  2  1  0
 14 13  1  6
 14 15  1  0
 16 14  1  0
 16 17  1  6
 18 20  1  0
 18 16  1  0
 19 18  2  0
 21 20  1  0
 22 23  1  0
 21 22  1  1
 24 21  1  0
 24 25  1  0
 26 24  2  0
M  END
$$$$
