YVC.pdb
     RDKit          3D

 26 26  0  0  1  0  0  0  0  0999 V2000
   23.5706  -21.2808   -6.9476 O   0  0  0  0  0  0  0  0  0  0  0  0
   24.0943  -20.9799   -8.1970 C   0  0  0  0  0  0  0  0  0  0  0  0
   25.4421  -20.8593   -8.3921 C   0  0  0  0  0  0  0  0  0  0  0  0
   25.9900  -20.5648   -9.6056 C   0  0  0  0  0  0  0  0  0  0  0  0
   25.1807  -20.3705  -10.7206 C   0  0  0  0  0  0  0  0  0  0  0  0
   25.7712  -20.0476  -12.0540 C   0  0  0  0  0  0  0  0  0  0  0  0
   25.0959  -20.9897  -13.0587 C   0  0  2  0  0  0  0  0  0  0  0  0
   25.6328  -22.2975  -12.8219 N   0  0  0  0  0  0  0  0  0  0  0  0
   25.3609  -20.5307  -14.4519 C   0  0  0  0  0  0  0  0  0  0  0  0
   26.4217  -20.8065  -15.0600 O   0  0  0  0  0  0  0  0  0  0  0  0
   23.8202  -20.4909  -10.5298 C   0  0  0  0  0  0  0  0  0  0  0  0
   23.2699  -20.7900   -9.2960 C   0  0  0  0  0  0  0  0  0  0  0  0
   23.1793  -19.1580  -18.5437 C   0  0  0  0  0  0  0  0  0  0  0  0
   23.3297  -19.8181  -17.2109 C   0  0  1  0  0  0  0  0  0  0  0  0
   23.2573  -21.3045  -17.2236 C   0  0  0  0  0  0  0  0  0  0  0  0
   24.5244  -19.2486  -16.4624 C   0  0  2  0  0  0  0  0  0  0  0  0
   24.3839  -19.7630  -15.0998 N   0  0  0  0  0  0  0  0  0  0  0  0
   24.5992  -17.7888  -16.4797 C   0  0  0  0  0  0  0  0  0  0  0  0
   23.6806  -17.0622  -15.9674 O   0  0  0  0  0  0  0  0  0  0  0  0
   25.7005  -17.1285  -17.0679 N   0  0  0  0  0  0  0  0  0  0  0  0
   25.7802  -15.6643  -17.1049 C   0  0  1  0  0  0  0  0  0  0  0  0
   27.2462  -15.2321  -17.0823 C   0  0  0  0  0  0  0  0  0  0  0  0
   28.0569  -15.8307  -15.5823 S   0  0  0  0  0  0  0  0  0  0  0  0
   25.2102  -15.2030  -18.3753 C   0  0  0  0  0  0  0  0  0  0  0  0
   24.6787  -13.9316  -18.5668 O   0  0  0  0  0  0  0  0  0  0  0  0
   25.1713  -15.9625  -19.3965 O   0  0  0  0  0  0  0  0  0  0  0  0
  2  1  1  0
  2  3  2  0
  4  3  1  0
  5  4  2  0
  6  5  1  0
  7  9  1  0
  7  6  1  0
  7  8  1  6
  9 17  1  0
  9 10  2  0
 11 12  2  0
 11  5  1  0
 12  2  1  0
 14 13  1  6
 14 15  1  0
 16 14  1  0
 16 17  1  1
 18 20  1  0
 18 16  1  0
 19 18  2  0
 21 20  1  0
 22 23  1  0
 21 22  1  6
 24 21  1  0
 24 25  1  0
 26 24  2  0
M  END
$$$$
