YVC.pdb
     RDKit          3D

 26 26  0  0  1  0  0  0  0  0999 V2000
   19.4490  -16.6684  -23.5169 O   0  0  0  0  0  0  0  0  0  0  0  0
   19.3940  -15.7995  -22.4362 C   0  0  0  0  0  0  0  0  0  0  0  0
   18.2418  -15.6275  -21.7208 C   0  0  0  0  0  0  0  0  0  0  0  0
   18.1529  -14.7825  -20.6543 C   0  0  0  0  0  0  0  0  0  0  0  0
   19.2572  -14.0436  -20.2412 C   0  0  0  0  0  0  0  0  0  0  0  0
   19.1700  -13.1154  -19.0743 C   0  0  0  0  0  0  0  0  0  0  0  0
   20.0819  -13.7056  -17.9911 C   0  0  2  0  0  0  0  0  0  0  0  0
   19.4802  -14.9374  -17.5725 N   0  0  0  0  0  0  0  0  0  0  0  0
   20.2195  -12.7478  -16.8572 C   0  0  0  0  0  0  0  0  0  0  0  0
   19.3646  -12.6596  -15.9447 O   0  0  0  0  0  0  0  0  0  0  0  0
   20.4224  -14.2130  -20.9591 C   0  0  0  0  0  0  0  0  0  0  0  0
   20.5066  -15.0720  -22.0406 C   0  0  0  0  0  0  0  0  0  0  0  0
   23.4280   -9.7869  -14.6275 C   0  0  0  0  0  0  0  0  0  0  0  0
   22.9916  -10.9912  -15.3982 C   0  0  1  0  0  0  0  0  0  0  0  0
   23.3331  -12.3016  -14.7808 C   0  0  0  0  0  0  0  0  0  0  0  0
   21.5405  -10.8540  -15.8308 C   0  0  2  0  0  0  0  0  0  0  0  0
   21.3483  -11.9187  -16.8160 N   0  0  0  0  0  0  0  0  0  0  0  0
   21.2041   -9.5436  -16.3845 C   0  0  0  0  0  0  0  0  0  0  0  0
   21.7500   -9.1050  -17.4540 O   0  0  0  0  0  0  0  0  0  0  0  0
   20.2547   -8.7128  -15.7493 N   0  0  0  0  0  0  0  0  0  0  0  0
   19.9161   -7.3915  -16.2890 C   0  0  1  0  0  0  0  0  0  0  0  0
   18.4199   -7.1351  -16.1100 C   0  0  0  0  0  0  0  0  0  0  0  0
   18.0235   -5.4163  -16.5023 S   0  0  0  0  0  0  0  0  0  0  0  0
   20.6282   -6.3765  -15.5054 C   0  0  0  0  0  0  0  0  0  0  0  0
   21.2361   -5.2563  -16.0632 O   0  0  0  0  0  0  0  0  0  0  0  0
   20.7299   -6.4703  -14.2397 O   0  0  0  0  0  0  0  0  0  0  0  0
  2  1  1  0
  2  3  2  0
  4  3  1  0
  5  4  2  0
  6  5  1  0
  7  9  1  0
  7  6  1  0
  7  8  1  1
  9 17  1  0
  9 10  2  0
 11 12  2  0
 11  5  1  0
 12  2  1  0
 14 13  1  1
 14 15  1  0
 16 14  1  0
 16 17  1  6
 18 20  1  0
 18 16  1  0
 19 18  2  0
 21 20  1  0
 22 23  1  0
 21 22  1  1
 24 21  1  0
 24 25  1  0
 26 24  2  0
M  END
$$$$
