YVC.pdb
     RDKit          3D

 26 26  0  0  1  0  0  0  0  0999 V2000
   18.2646  -14.8966  -23.1069 O   0  0  0  0  0  0  0  0  0  0  0  0
   18.4503  -14.1573  -21.9472 C   0  0  0  0  0  0  0  0  0  0  0  0
   19.4009  -13.1776  -21.8740 C   0  0  0  0  0  0  0  0  0  0  0  0
   19.6098  -12.4327  -20.7509 C   0  0  0  0  0  0  0  0  0  0  0  0
   18.8460  -12.6445  -19.6074 C   0  0  0  0  0  0  0  0  0  0  0  0
   19.0672  -11.8339  -18.3725 C   0  0  0  0  0  0  0  0  0  0  0  0
   20.4076  -12.3008  -17.7906 C   0  0  2  0  0  0  0  0  0  0  0  0
   20.2506  -13.6854  -17.4545 N   0  0  0  0  0  0  0  0  0  0  0  0
   20.7627  -11.4821  -16.5967 C   0  0  0  0  0  0  0  0  0  0  0  0
   20.2910  -11.7137  -15.4587 O   0  0  0  0  0  0  0  0  0  0  0  0
   17.8855  -13.6316  -19.6755 C   0  0  0  0  0  0  0  0  0  0  0  0
   17.6780  -14.3843  -20.8179 C   0  0  0  0  0  0  0  0  0  0  0  0
   23.8040  -11.0785  -14.9471 C   0  0  0  0  0  0  0  0  0  0  0  0
   23.5320   -9.7190  -15.5063 C   0  0  1  0  0  0  0  0  0  0  0  0
   24.3575   -9.3372  -16.6842 C   0  0  0  0  0  0  0  0  0  0  0  0
   22.0377   -9.5010  -15.6828 C   0  0  2  0  0  0  0  0  0  0  0  0
   21.6572  -10.4159  -16.7595 N   0  0  0  0  0  0  0  0  0  0  0  0
   21.6685   -8.1216  -15.9954 C   0  0  0  0  0  0  0  0  0  0  0  0
   21.8848   -7.6121  -17.1477 O   0  0  0  0  0  0  0  0  0  0  0  0
   21.0538   -7.3003  -15.0246 N   0  0  0  0  0  0  0  0  0  0  0  0
   20.6113   -5.9395  -15.3471 C   0  0  1  0  0  0  0  0  0  0  0  0
   19.1212   -5.8000  -15.0367 C   0  0  0  0  0  0  0  0  0  0  0  0
   18.1618   -6.9870  -16.0042 S   0  0  0  0  0  0  0  0  0  0  0  0
   21.3270   -5.0024  -14.4747 C   0  0  0  0  0  0  0  0  0  0  0  0
   21.2488   -3.6189  -14.5980 O   0  0  0  0  0  0  0  0  0  0  0  0
   22.0774   -5.4176  -13.5336 O   0  0  0  0  0  0  0  0  0  0  0  0
  2  1  1  0
  2  3  2  0
  4  3  1  0
  5  4  2  0
  6  5  1  0
  7  9  1  0
  7  6  1  0
  7  8  1  1
  9 17  1  0
  9 10  2  0
 11 12  2  0
 11  5  1  0
 12  2  1  0
 14 13  1  6
 14 15  1  0
 16 14  1  0
 16 17  1  6
 18 20  1  0
 18 16  1  0
 19 18  2  0
 21 20  1  0
 22 23  1  0
 21 22  1  1
 24 21  1  0
 24 25  1  0
 26 24  2  0
M  END
$$$$
