YVC.pdb
     RDKit          3D

 26 26  0  0  1  0  0  0  0  0999 V2000
   31.5195  -21.7700   -8.1131 O   0  0  0  0  0  0  0  0  0  0  0  0
   30.2313  -21.5181   -8.5635 C   0  0  0  0  0  0  0  0  0  0  0  0
   29.9012  -21.6527   -9.8833 C   0  0  0  0  0  0  0  0  0  0  0  0
   28.6460  -21.4134  -10.3596 C   0  0  0  0  0  0  0  0  0  0  0  0
   27.6264  -21.0131   -9.5015 C   0  0  0  0  0  0  0  0  0  0  0  0
   26.2485  -20.7486  -10.0135 C   0  0  0  0  0  0  0  0  0  0  0  0
   26.2796  -21.0786  -11.5113 C   0  0  2  0  0  0  0  0  0  0  0  0
   27.3959  -20.3706  -12.0658 N   0  0  0  0  0  0  0  0  0  0  0  0
   24.9972  -20.6729  -12.1538 C   0  0  0  0  0  0  0  0  0  0  0  0
   24.5357  -19.5114  -12.0579 O   0  0  0  0  0  0  0  0  0  0  0  0
   27.9536  -20.8757   -8.1689 C   0  0  0  0  0  0  0  0  0  0  0  0
   29.2291  -21.1199   -7.6914 C   0  0  0  0  0  0  0  0  0  0  0  0
   22.3378  -21.4536  -16.0368 C   0  0  0  0  0  0  0  0  0  0  0  0
   23.5131  -21.5610  -15.1193 C   0  0  1  0  0  0  0  0  0  0  0  0
   24.7227  -20.8035  -15.5411 C   0  0  0  0  0  0  0  0  0  0  0  0
   23.0907  -21.3278  -13.6775 C   0  0  2  0  0  0  0  0  0  0  0  0
   24.2867  -21.6299  -12.8904 N   0  0  0  0  0  0  0  0  0  0  0  0
   21.9498  -22.1363  -13.2514 C   0  0  0  0  0  0  0  0  0  0  0  0
   22.1017  -23.3023  -12.7499 O   0  0  0  0  0  0  0  0  0  0  0  0
   20.6304  -21.6492  -13.3809 N   0  0  0  0  0  0  0  0  0  0  0  0
   19.5152  -22.2675  -12.6559 C   0  0  1  0  0  0  0  0  0  0  0  0
   19.6313  -21.9423  -11.1669 C   0  0  0  0  0  0  0  0  0  0  0  0
   18.2496  -22.6655  -10.2540 S   0  0  0  0  0  0  0  0  0  0  0  0
   18.2646  -21.6695  -13.1355 C   0  0  0  0  0  0  0  0  0  0  0  0
   17.0636  -22.3648  -13.2330 O   0  0  0  0  0  0  0  0  0  0  0  0
   18.2118  -20.4499  -13.4974 O   0  0  0  0  0  0  0  0  0  0  0  0
  2  1  1  0
  2  3  2  0
  4  3  1  0
  5  4  2  0
  6  5  1  0
  7  9  1  0
  7  6  1  0
  7  8  1  6
  9 17  1  0
  9 10  2  0
 11 12  2  0
 11  5  1  0
 12  2  1  0
 14 13  1  6
 14 15  1  0
 16 14  1  0
 16 17  1  1
 18 20  1  0
 18 16  1  0
 19 18  2  0
 21 20  1  0
 22 23  1  0
 21 22  1  1
 24 21  1  0
 24 25  1  0
 26 24  2  0
M  END
$$$$
