YVC.pdb
     RDKit          3D

 26 26  0  0  1  0  0  0  0  0999 V2000
   17.4582  -20.6004  -18.7422 O   0  0  0  0  0  0  0  0  0  0  0  0
   18.5459  -20.9902  -17.9736 C   0  0  0  0  0  0  0  0  0  0  0  0
   19.3286  -20.0707  -17.3324 C   0  0  0  0  0  0  0  0  0  0  0  0
   20.4040  -20.4188  -16.5697 C   0  0  0  0  0  0  0  0  0  0  0  0
   20.7567  -21.7551  -16.4092 C   0  0  0  0  0  0  0  0  0  0  0  0
   21.9329  -22.1465  -15.5759 C   0  0  0  0  0  0  0  0  0  0  0  0
   23.1741  -21.6630  -16.3367 C   0  0  2  0  0  0  0  0  0  0  0  0
   23.2958  -22.4954  -17.4973 N   0  0  0  0  0  0  0  0  0  0  0  0
   24.3796  -21.7555  -15.4650 C   0  0  0  0  0  0  0  0  0  0  0  0
   25.0402  -22.8136  -15.3418 O   0  0  0  0  0  0  0  0  0  0  0  0
   19.9708  -22.6871  -17.0537 C   0  0  0  0  0  0  0  0  0  0  0  0
   18.8806  -22.3280  -17.8264 C   0  0  0  0  0  0  0  0  0  0  0  0
   27.7384  -19.0119  -13.2279 C   0  0  0  0  0  0  0  0  0  0  0  0
   26.7291  -19.3699  -14.2709 C   0  0  1  0  0  0  0  0  0  0  0  0
   27.2467  -19.4303  -15.6649 C   0  0  0  0  0  0  0  0  0  0  0  0
   25.9225  -20.5851  -13.8417 C   0  0  2  0  0  0  0  0  0  0  0  0
   24.7838  -20.6139  -14.7601 N   0  0  0  0  0  0  0  0  0  0  0  0
   25.4860  -20.5496  -12.4470 C   0  0  0  0  0  0  0  0  0  0  0  0
   24.4871  -19.8451  -12.0726 O   0  0  0  0  0  0  0  0  0  0  0  0
   26.1604  -21.3010  -11.4593 N   0  0  0  0  0  0  0  0  0  0  0  0
   25.8109  -21.1812  -10.0398 C   0  0  1  0  0  0  0  0  0  0  0  0
   27.0433  -21.4739   -9.1841 C   0  0  0  0  0  0  0  0  0  0  0  0
   26.6851  -21.1727   -7.4388 S   0  0  0  0  0  0  0  0  0  0  0  0
   25.4184  -19.7926   -9.7765 C   0  0  0  0  0  0  0  0  0  0  0  0
   24.2678  -19.4337   -9.0817 O   0  0  0  0  0  0  0  0  0  0  0  0
   26.1295  -18.8171  -10.1812 O   0  0  0  0  0  0  0  0  0  0  0  0
  2  1  1  0
  2  3  2  0
  4  3  1  0
  5  4  2  0
  6  5  1  0
  7  9  1  0
  7  6  1  0
  7  8  1  6
  9 17  1  0
  9 10  2  0
 11 12  2  0
 11  5  1  0
 12  2  1  0
 14 13  1  1
 14 15  1  0
 16 14  1  0
 16 17  1  6
 18 20  1  0
 18 16  1  0
 19 18  2  0
 21 20  1  0
 22 23  1  0
 21 22  1  1
 24 21  1  0
 24 25  1  0
 26 24  2  0
M  END
$$$$
