YVC.pdb
     RDKit          3D

 26 26  0  0  1  0  0  0  0  0999 V2000
   18.3636  -15.8888  -17.9004 O   0  0  0  0  0  0  0  0  0  0  0  0
   19.1989  -16.7876  -17.2520 C   0  0  0  0  0  0  0  0  0  0  0  0
   19.0983  -18.1338  -17.4682 C   0  0  0  0  0  0  0  0  0  0  0  0
   19.9024  -19.0442  -16.8484 C   0  0  0  0  0  0  0  0  0  0  0  0
   20.8807  -18.6303  -15.9497 C   0  0  0  0  0  0  0  0  0  0  0  0
   21.7663  -19.6196  -15.2657 C   0  0  0  0  0  0  0  0  0  0  0  0
   23.0044  -19.7720  -16.1585 C   0  0  2  0  0  0  0  0  0  0  0  0
   22.5885  -20.5057  -17.3175 N   0  0  0  0  0  0  0  0  0  0  0  0
   24.0874  -20.4805  -15.4188 C   0  0  0  0  0  0  0  0  0  0  0  0
   24.0774  -21.7208  -15.2381 O   0  0  0  0  0  0  0  0  0  0  0  0
   20.9867  -17.2734  -15.7276 C   0  0  0  0  0  0  0  0  0  0  0  0
   20.1679  -16.3542  -16.3596 C   0  0  0  0  0  0  0  0  0  0  0  0
   28.5210  -20.0021  -13.3923 C   0  0  0  0  0  0  0  0  0  0  0  0
   27.4584  -19.7184  -14.4047 C   0  0  1  0  0  0  0  0  0  0  0  0
   27.7983  -20.0863  -15.8061 C   0  0  0  0  0  0  0  0  0  0  0  0
   26.1100  -20.2312  -13.9247 C   0  0  2  0  0  0  0  0  0  0  0  0
   25.1527  -19.7261  -14.9094 N   0  0  0  0  0  0  0  0  0  0  0  0
   25.7588  -19.8093  -12.5698 C   0  0  0  0  0  0  0  0  0  0  0  0
   24.8459  -18.9416  -12.3509 O   0  0  0  0  0  0  0  0  0  0  0  0
   26.4230  -20.3536  -11.4485 N   0  0  0  0  0  0  0  0  0  0  0  0
   25.8642  -20.2308  -10.0978 C   0  0  1  0  0  0  0  0  0  0  0  0
   24.5544  -21.0143  -10.0141 C   0  0  0  0  0  0  0  0  0  0  0  0
   23.8595  -20.9047   -8.3496 S   0  0  0  0  0  0  0  0  0  0  0  0
   26.8011  -20.8475   -9.1527 C   0  0  0  0  0  0  0  0  0  0  0  0
   27.0888  -20.3227   -7.8968 O   0  0  0  0  0  0  0  0  0  0  0  0
   27.4166  -21.9243   -9.4403 O   0  0  0  0  0  0  0  0  0  0  0  0
  2  1  1  0
  2  3  2  0
  4  3  1  0
  5  4  2  0
  6  5  1  0
  7  9  1  0
  7  6  1  0
  7  8  1  6
  9 17  1  0
  9 10  2  0
 11 12  2  0
 11  5  1  0
 12  2  1  0
 14 13  1  1
 14 15  1  0
 16 14  1  0
 16 17  1  6
 18 20  1  0
 18 16  1  0
 19 18  2  0
 21 20  1  0
 22 23  1  0
 21 22  1  6
 24 21  1  0
 24 25  1  0
 26 24  2  0
M  END
$$$$
