HDD.pdb
     RDKit          3D

 27 27  0  0  1  0  0  0  0  0999 V2000
   17.7145  -12.9495  -15.4292 N   0  0  0  0  0  0  0  0  0  0  0  0
   17.1742  -11.6268  -15.6560 C   0  0  1  0  0  0  0  0  0  0  0  0
   15.7702  -11.5618  -15.0515 C   0  0  0  0  0  0  0  0  0  0  0  0
   14.8959  -12.4856  -15.8182 C   0  0  0  0  0  0  0  0  0  0  0  0
   14.0171  -12.1293  -16.8195 C   0  0  0  0  0  0  0  0  0  0  0  0
   13.3916  -13.2152  -17.2911 N   0  0  0  0  0  0  0  0  0  0  0  0
   13.8658  -14.2635  -16.5967 C   0  0  0  0  0  0  0  0  0  0  0  0
   14.7805  -13.8147  -15.7019 N   0  0  0  0  0  0  0  0  0  0  0  0
   18.0128  -10.6283  -14.9653 C   0  0  0  0  0  0  0  0  0  0  0  0
   18.4535  -10.8709  -13.8230 O   0  0  0  0  0  0  0  0  0  0  0  0
   18.2839   -9.4167  -15.6443 N   0  0  0  0  0  0  0  0  0  0  0  0
   19.2366   -8.4713  -15.1501 C   0  0  1  0  0  0  0  0  0  0  0  0
   20.6201   -9.0214  -15.0616 C   0  0  0  0  0  0  0  0  0  0  0  0
   21.5190   -8.0147  -14.4067 C   0  0  0  0  0  0  0  0  0  0  0  0
   22.4395   -7.5088  -15.0812 O   0  0  0  0  0  0  0  0  0  0  0  0
   19.2549   -7.1832  -15.9170 C   0  0  0  0  0  0  0  0  0  0  0  0
   19.5801   -7.1415  -17.1473 O   0  0  0  0  0  0  0  0  0  0  0  0
   21.3183   -7.6625  -13.0743 O   0  0  0  0  0  0  0  0  0  0  0  0
   18.8953   -6.0027  -15.2251 N   0  0  0  0  0  0  0  0  0  0  0  0
   18.7077   -4.7785  -15.9628 C   0  0  1  0  0  0  0  0  0  0  0  0
   17.7193   -3.9167  -15.2180 C   0  0  0  0  0  0  0  0  0  0  0  0
   16.3664   -4.4728  -15.1199 C   0  0  0  0  0  0  0  0  0  0  0  0
   15.7750   -4.9139  -16.1202 O   0  0  0  0  0  0  0  0  0  0  0  0
   19.9869   -4.0854  -16.1968 C   0  0  0  0  0  0  0  0  0  0  0  0
   21.1562   -4.5761  -15.6612 O   0  0  0  0  0  0  0  0  0  0  0  0
   15.7272   -4.5122  -13.8977 O   0  0  0  0  0  0  0  0  0  0  0  0
   20.0215   -3.0454  -16.8840 O   0  0  0  0  0  0  0  0  0  0  0  0
  2  1  1  1
  2  3  1  0
  3  4  1  0
  4  8  1  0
  4  5  2  0
  5  6  1  0
  7  6  1  0
  8  7  2  0
  9  2  1  0
  9 11  1  0
 10  9  2  0
 12 11  1  0
 12 16  1  0
 12 13  1  6
 14 13  1  0
 15 14  2  0
 16 19  1  0
 17 16  2  0
 18 14  1  0
 19 20  1  0
 20 21  1  1
 20 24  1  0
 22 26  1  0
 22 21  1  0
 23 22  2  0
 24 25  1  0
 27 24  2  0
M  END
$$$$
