HDD.pdb
     RDKit          3D

 27 27  0  0  1  0  0  0  0  0999 V2000
   23.2281  -11.3183  -17.7317 N   0  0  0  0  0  0  0  0  0  0  0  0
   22.1087  -10.4232  -17.5350 C   0  0  1  0  0  0  0  0  0  0  0  0
   20.9966  -11.1831  -16.8093 C   0  0  0  0  0  0  0  0  0  0  0  0
   20.4967  -12.2460  -17.7181 C   0  0  0  0  0  0  0  0  0  0  0  0
   20.6417  -13.6053  -17.5361 C   0  0  0  0  0  0  0  0  0  0  0  0
   20.0701  -14.2690  -18.5489 N   0  0  0  0  0  0  0  0  0  0  0  0
   19.5606  -13.3414  -19.3771 C   0  0  0  0  0  0  0  0  0  0  0  0
   19.8226  -12.1123  -18.8675 N   0  0  0  0  0  0  0  0  0  0  0  0
   22.5244   -9.2974  -16.6766 C   0  0  0  0  0  0  0  0  0  0  0  0
   23.5500   -9.3991  -15.9725 O   0  0  0  0  0  0  0  0  0  0  0  0
   21.7242   -8.1303  -16.6918 N   0  0  0  0  0  0  0  0  0  0  0  0
   22.1168   -6.9370  -16.0081 C   0  0  1  0  0  0  0  0  0  0  0  0
   23.5282   -6.5395  -16.2811 C   0  0  0  0  0  0  0  0  0  0  0  0
   23.8596   -5.3004  -15.5030 C   0  0  0  0  0  0  0  0  0  0  0  0
   24.7233   -4.5229  -15.9589 O   0  0  0  0  0  0  0  0  0  0  0  0
   21.2072   -5.7732  -16.2648 C   0  0  0  0  0  0  0  0  0  0  0  0
   21.2096   -5.1548  -17.3777 O   0  0  0  0  0  0  0  0  0  0  0  0
   23.2094   -5.0371  -14.3000 O   0  0  0  0  0  0  0  0  0  0  0  0
   20.3360   -5.3791  -15.2219 N   0  0  0  0  0  0  0  0  0  0  0  0
   19.3413   -4.3668  -15.4744 C   0  0  1  0  0  0  0  0  0  0  0  0
   18.0830   -4.7348  -14.7290 C   0  0  0  0  0  0  0  0  0  0  0  0
   17.4172   -5.9513  -15.2044 C   0  0  0  0  0  0  0  0  0  0  0  0
   17.1754   -6.1261  -16.4110 O   0  0  0  0  0  0  0  0  0  0  0  0
   19.8308   -3.0244  -15.1141 C   0  0  0  0  0  0  0  0  0  0  0  0
   21.0618   -2.8655  -14.5188 O   0  0  0  0  0  0  0  0  0  0  0  0
   17.0472   -6.9284  -14.3031 O   0  0  0  0  0  0  0  0  0  0  0  0
   19.1322   -2.0178  -15.3459 O   0  0  0  0  0  0  0  0  0  0  0  0
  2  1  1  1
  2  3  1  0
  3  4  1  0
  4  8  1  0
  4  5  2  0
  5  6  1  0
  7  6  1  0
  8  7  2  0
  9  2  1  0
  9 11  1  0
 10  9  2  0
 12 11  1  0
 12 16  1  0
 12 13  1  6
 14 13  1  0
 15 14  2  0
 16 19  1  0
 17 16  2  0
 18 14  1  0
 19 20  1  0
 20 21  1  1
 20 24  1  0
 22 26  1  0
 22 21  1  0
 23 22  2  0
 24 25  1  0
 27 24  2  0
M  END
$$$$
