HDD.pdb
     RDKit          3D

 27 27  0  0  1  0  0  0  0  0999 V2000
   20.5206  -11.7680  -17.0903 N   0  0  0  0  0  0  0  0  0  0  0  0
   19.9445  -10.6972  -17.8741 C   0  0  1  0  0  0  0  0  0  0  0  0
   18.7195  -11.2377  -18.6144 C   0  0  0  0  0  0  0  0  0  0  0  0
   19.1724  -12.3197  -19.5253 C   0  0  0  0  0  0  0  0  0  0  0  0
   18.8459  -13.6558  -19.4254 C   0  0  0  0  0  0  0  0  0  0  0  0
   19.4289  -14.3473  -20.4127 N   0  0  0  0  0  0  0  0  0  0  0  0
   20.1262  -13.4605  -21.1430 C   0  0  0  0  0  0  0  0  0  0  0  0
   19.9671  -12.2284  -20.5993 N   0  0  0  0  0  0  0  0  0  0  0  0
   19.4924   -9.6181  -16.9750 C   0  0  0  0  0  0  0  0  0  0  0  0
   18.9488   -8.6003  -17.4508 O   0  0  0  0  0  0  0  0  0  0  0  0
   19.7007   -9.7910  -15.5860 N   0  0  0  0  0  0  0  0  0  0  0  0
   19.4016   -8.7576  -14.6435 C   0  0  1  0  0  0  0  0  0  0  0  0
   18.9803   -9.2799  -13.3115 C   0  0  0  0  0  0  0  0  0  0  0  0
   18.5477   -8.1386  -12.4394 C   0  0  0  0  0  0  0  0  0  0  0  0
   18.1724   -7.0801  -12.9845 O   0  0  0  0  0  0  0  0  0  0  0  0
   20.5136   -7.7677  -14.4675 C   0  0  0  0  0  0  0  0  0  0  0  0
   21.6321   -8.1012  -13.9588 O   0  0  0  0  0  0  0  0  0  0  0  0
   18.5698   -8.2722  -11.0533 O   0  0  0  0  0  0  0  0  0  0  0  0
   20.2805   -6.4374  -14.8891 N   0  0  0  0  0  0  0  0  0  0  0  0
   21.3505   -5.4740  -14.8185 C   0  0  1  0  0  0  0  0  0  0  0  0
   21.9624   -5.3360  -16.1899 C   0  0  0  0  0  0  0  0  0  0  0  0
   22.9808   -4.2881  -16.3090 C   0  0  0  0  0  0  0  0  0  0  0  0
   23.7866   -4.0628  -15.3898 O   0  0  0  0  0  0  0  0  0  0  0  0
   20.8828   -4.1829  -14.2838 C   0  0  0  0  0  0  0  0  0  0  0  0
   19.5405   -3.8781  -14.2671 O   0  0  0  0  0  0  0  0  0  0  0  0
   23.0553   -3.5307  -17.4599 O   0  0  0  0  0  0  0  0  0  0  0  0
   21.7012   -3.3530  -13.8405 O   0  0  0  0  0  0  0  0  0  0  0  0
  2  1  1  1
  2  3  1  0
  3  4  1  0
  4  8  1  0
  4  5  2  0
  5  6  1  0
  7  6  1  0
  8  7  2  0
  9  2  1  0
  9 11  1  0
 10  9  2  0
 12 11  1  0
 12 16  1  0
 12 13  1  1
 14 13  1  0
 15 14  2  0
 16 19  1  0
 17 16  2  0
 18 14  1  0
 19 20  1  0
 20 21  1  6
 20 24  1  0
 22 26  1  0
 22 21  1  0
 23 22  2  0
 24 25  1  0
 27 24  2  0
M  END
$$$$
