HDD.pdb
     RDKit          3D

 27 27  0  0  1  0  0  0  0  0999 V2000
   18.5417  -11.2297  -15.9912 N   0  0  0  0  0  0  0  0  0  0  0  0
   19.0477  -10.0713  -16.6947 C   0  0  1  0  0  0  0  0  0  0  0  0
   17.9883   -9.6057  -17.6955 C   0  0  0  0  0  0  0  0  0  0  0  0
   17.8025  -10.6811  -18.7028 C   0  0  0  0  0  0  0  0  0  0  0  0
   16.7285  -11.5423  -18.7835 C   0  0  0  0  0  0  0  0  0  0  0  0
   16.8896  -12.3842  -19.8120 N   0  0  0  0  0  0  0  0  0  0  0  0
   18.0608  -12.0660  -20.3891 C   0  0  0  0  0  0  0  0  0  0  0  0
   18.6125  -11.0294  -19.7108 N   0  0  0  0  0  0  0  0  0  0  0  0
   19.2784   -8.9750  -15.7344 C   0  0  0  0  0  0  0  0  0  0  0  0
   18.5306   -8.8503  -14.7429 O   0  0  0  0  0  0  0  0  0  0  0  0
   20.3593   -8.0975  -15.9877 N   0  0  0  0  0  0  0  0  0  0  0  0
   20.6404   -6.9813  -15.1387 C   0  0  1  0  0  0  0  0  0  0  0  0
   21.8064   -7.2070  -14.2364 C   0  0  0  0  0  0  0  0  0  0  0  0
   21.9535   -6.0398  -13.3057 C   0  0  0  0  0  0  0  0  0  0  0  0
   21.1671   -5.9433  -12.3410 O   0  0  0  0  0  0  0  0  0  0  0  0
   20.8222   -5.6933  -15.8839 C   0  0  0  0  0  0  0  0  0  0  0  0
   21.6021   -5.6044  -16.8863 O   0  0  0  0  0  0  0  0  0  0  0  0
   22.9505   -5.0928  -13.5262 O   0  0  0  0  0  0  0  0  0  0  0  0
   20.0924   -4.5672  -15.4352 N   0  0  0  0  0  0  0  0  0  0  0  0
   20.1957   -3.3230  -16.1558 C   0  0  1  0  0  0  0  0  0  0  0  0
   18.8482   -2.6462  -16.1393 C   0  0  0  0  0  0  0  0  0  0  0  0
   17.7671   -3.4076  -16.7723 C   0  0  0  0  0  0  0  0  0  0  0  0
   17.8530   -3.7941  -17.9506 O   0  0  0  0  0  0  0  0  0  0  0  0
   21.2583   -2.4639  -15.6039 C   0  0  0  0  0  0  0  0  0  0  0  0
   21.9604   -2.8516  -14.4852 O   0  0  0  0  0  0  0  0  0  0  0  0
   16.6269   -3.7068  -16.0552 O   0  0  0  0  0  0  0  0  0  0  0  0
   21.5314   -1.3751  -16.1471 O   0  0  0  0  0  0  0  0  0  0  0  0
  2  1  1  1
  2  3  1  0
  3  4  1  0
  4  8  1  0
  4  5  2  0
  5  6  1  0
  7  6  1  0
  8  7  2  0
  9  2  1  0
  9 11  1  0
 10  9  2  0
 12 11  1  0
 12 16  1  0
 12 13  1  6
 14 13  1  0
 15 14  2  0
 16 19  1  0
 17 16  2  0
 18 14  1  0
 19 20  1  0
 20 21  1  1
 20 24  1  0
 22 26  1  0
 22 21  1  0
 23 22  2  0
 24 25  1  0
 27 24  2  0
M  END
$$$$
