HDD.pdb
     RDKit          3D

 27 27  0  0  1  0  0  0  0  0999 V2000
   24.5222  -13.7171  -18.3006 N   0  0  0  0  0  0  0  0  0  0  0  0
   23.9057  -12.4595  -18.6630 C   0  0  1  0  0  0  0  0  0  0  0  0
   22.3996  -12.6799  -18.8176 C   0  0  0  0  0  0  0  0  0  0  0  0
   22.1879  -13.6600  -19.9131 C   0  0  0  0  0  0  0  0  0  0  0  0
   21.7454  -14.9580  -19.7679 C   0  0  0  0  0  0  0  0  0  0  0  0
   21.6704  -15.5554  -20.9639 N   0  0  0  0  0  0  0  0  0  0  0  0
   22.0625  -14.6463  -21.8726 C   0  0  0  0  0  0  0  0  0  0  0  0
   22.3763  -13.4949  -21.2286 N   0  0  0  0  0  0  0  0  0  0  0  0
   24.1126  -11.4802  -17.5789 C   0  0  0  0  0  0  0  0  0  0  0  0
   23.8835  -11.8057  -16.3959 O   0  0  0  0  0  0  0  0  0  0  0  0
   24.5707  -10.1905  -17.9383 N   0  0  0  0  0  0  0  0  0  0  0  0
   24.7561   -9.1573  -16.9668 C   0  0  1  0  0  0  0  0  0  0  0  0
   26.0741   -8.4690  -17.0839 C   0  0  0  0  0  0  0  0  0  0  0  0
   27.1791   -9.4676  -16.9037 C   0  0  0  0  0  0  0  0  0  0  0  0
   27.8350   -9.8188  -17.9061 O   0  0  0  0  0  0  0  0  0  0  0  0
   23.6555   -8.1395  -16.9578 C   0  0  0  0  0  0  0  0  0  0  0  0
   23.1206   -7.7227  -18.0354 O   0  0  0  0  0  0  0  0  0  0  0  0
   27.4550   -9.9824  -15.6395 O   0  0  0  0  0  0  0  0  0  0  0  0
   23.2238   -7.6512  -15.7020 N   0  0  0  0  0  0  0  0  0  0  0  0
   22.1626   -6.6771  -15.6474 C   0  0  1  0  0  0  0  0  0  0  0  0
   20.9778   -7.2977  -14.9507 C   0  0  0  0  0  0  0  0  0  0  0  0
   19.7785   -6.4557  -14.9038 C   0  0  0  0  0  0  0  0  0  0  0  0
   19.7101   -5.3924  -15.5441 O   0  0  0  0  0  0  0  0  0  0  0  0
   22.6037   -5.4314  -14.9952 C   0  0  0  0  0  0  0  0  0  0  0  0
   22.1051   -4.2146  -15.4024 O   0  0  0  0  0  0  0  0  0  0  0  0
   18.6983   -6.8414  -14.1369 O   0  0  0  0  0  0  0  0  0  0  0  0
   23.4348   -5.4687  -14.0663 O   0  0  0  0  0  0  0  0  0  0  0  0
  2  1  1  1
  2  3  1  0
  3  4  1  0
  4  8  1  0
  4  5  2  0
  5  6  1  0
  7  6  1  0
  8  7  2  0
  9  2  1  0
  9 11  1  0
 10  9  2  0
 12 11  1  0
 12 16  1  0
 12 13  1  6
 14 13  1  0
 15 14  2  0
 16 19  1  0
 17 16  2  0
 18 14  1  0
 19 20  1  0
 20 21  1  1
 20 24  1  0
 22 26  1  0
 22 21  1  0
 23 22  2  0
 24 25  1  0
 27 24  2  0
M  END
$$$$
