HDD.pdb
     RDKit          3D

 27 27  0  0  1  0  0  0  0  0999 V2000
   22.0608  -12.7364  -16.6390 N   0  0  0  0  0  0  0  0  0  0  0  0
   22.2456  -11.6817  -17.6119 C   0  0  1  0  0  0  0  0  0  0  0  0
   21.9777  -12.2507  -19.0067 C   0  0  0  0  0  0  0  0  0  0  0  0
   22.8932  -13.4007  -19.2184 C   0  0  0  0  0  0  0  0  0  0  0  0
   24.2551  -13.3283  -19.4232 C   0  0  0  0  0  0  0  0  0  0  0  0
   24.7635  -14.5573  -19.5775 N   0  0  0  0  0  0  0  0  0  0  0  0
   23.7341  -15.4148  -19.4725 C   0  0  0  0  0  0  0  0  0  0  0  0
   22.5985  -14.7066  -19.2541 N   0  0  0  0  0  0  0  0  0  0  0  0
   21.2657  -10.6069  -17.3639 C   0  0  0  0  0  0  0  0  0  0  0  0
   21.1896   -9.6419  -18.1519 O   0  0  0  0  0  0  0  0  0  0  0  0
   20.4405  -10.7224  -16.2201 N   0  0  0  0  0  0  0  0  0  0  0  0
   19.5295   -9.6878  -15.8389 C   0  0  1  0  0  0  0  0  0  0  0  0
   18.2620  -10.2077  -15.2490 C   0  0  0  0  0  0  0  0  0  0  0  0
   17.5772  -11.1014  -16.2403 C   0  0  0  0  0  0  0  0  0  0  0  0
   17.0971  -10.5896  -17.2728 O   0  0  0  0  0  0  0  0  0  0  0  0
   20.1320   -8.6685  -14.9194 C   0  0  0  0  0  0  0  0  0  0  0  0
   20.5363   -8.9764  -13.7520 O   0  0  0  0  0  0  0  0  0  0  0  0
   17.4869  -12.4701  -15.9999 O   0  0  0  0  0  0  0  0  0  0  0  0
   20.2395   -7.3397  -15.3934 N   0  0  0  0  0  0  0  0  0  0  0  0
   20.7953   -6.3240  -14.5346 C   0  0  1  0  0  0  0  0  0  0  0  0
   22.0371   -5.7711  -15.1876 C   0  0  0  0  0  0  0  0  0  0  0  0
   22.6897   -4.6839  -14.4518 C   0  0  0  0  0  0  0  0  0  0  0  0
   22.3607   -4.4040  -13.2863 O   0  0  0  0  0  0  0  0  0  0  0  0
   19.8089   -5.2721  -14.2310 C   0  0  0  0  0  0  0  0  0  0  0  0
   19.8518   -4.5987  -13.0312 O   0  0  0  0  0  0  0  0  0  0  0  0
   23.6903   -3.9502  -15.0554 O   0  0  0  0  0  0  0  0  0  0  0  0
   18.9244   -4.9819  -15.0607 O   0  0  0  0  0  0  0  0  0  0  0  0
  2  1  1  1
  2  3  1  0
  3  4  1  0
  4  8  1  0
  4  5  2  0
  5  6  1  0
  7  6  1  0
  8  7  2  0
  9  2  1  0
  9 11  1  0
 10  9  2  0
 12 11  1  0
 12 16  1  0
 12 13  1  1
 14 13  1  0
 15 14  2  0
 16 19  1  0
 17 16  2  0
 18 14  1  0
 19 20  1  0
 20 21  1  6
 20 24  1  0
 22 26  1  0
 22 21  1  0
 23 22  2  0
 24 25  1  0
 27 24  2  0
M  END
$$$$
