HDD.pdb
     RDKit          3D

 27 27  0  0  1  0  0  0  0  0999 V2000
   13.4423  -12.5420  -10.6067 N   0  0  0  0  0  0  0  0  0  0  0  0
   14.8011  -12.0663  -10.7498 C   0  0  1  0  0  0  0  0  0  0  0  0
   15.3092  -12.4494  -12.1413 C   0  0  0  0  0  0  0  0  0  0  0  0
   15.2924  -13.9307  -12.2458 C   0  0  0  0  0  0  0  0  0  0  0  0
   14.9414  -14.8120  -11.2449 C   0  0  0  0  0  0  0  0  0  0  0  0
   15.0404  -16.0725  -11.6857 N   0  0  0  0  0  0  0  0  0  0  0  0
   15.4529  -16.0015  -12.9628 C   0  0  0  0  0  0  0  0  0  0  0  0
   15.6048  -14.6966  -13.2989 N   0  0  0  0  0  0  0  0  0  0  0  0
   14.8200  -10.5945  -10.6486 C   0  0  0  0  0  0  0  0  0  0  0  0
   13.7514   -9.9533  -10.7200 O   0  0  0  0  0  0  0  0  0  0  0  0
   16.0750   -9.9649  -10.4717 N   0  0  0  0  0  0  0  0  0  0  0  0
   16.1954   -8.5461  -10.3369 C   0  0  1  0  0  0  0  0  0  0  0  0
   15.4806   -8.0054   -9.1448 C   0  0  0  0  0  0  0  0  0  0  0  0
   15.6510   -6.5160   -9.0908 C   0  0  0  0  0  0  0  0  0  0  0  0
   15.1455   -5.8244   -9.9989 O   0  0  0  0  0  0  0  0  0  0  0  0
   17.6148   -8.0634  -10.3349 C   0  0  0  0  0  0  0  0  0  0  0  0
   18.4281   -8.3805   -9.4080 O   0  0  0  0  0  0  0  0  0  0  0  0
   16.3603   -5.9322   -8.0441 O   0  0  0  0  0  0  0  0  0  0  0  0
   18.0279   -7.2365  -11.4060 N   0  0  0  0  0  0  0  0  0  0  0  0
   19.4069   -6.8256  -11.4926 C   0  0  1  0  0  0  0  0  0  0  0  0
   20.0533   -7.5556  -12.6430 C   0  0  0  0  0  0  0  0  0  0  0  0
   21.4445   -7.1783  -12.9101 C   0  0  0  0  0  0  0  0  0  0  0  0
   22.3385   -7.3675  -12.0675 O   0  0  0  0  0  0  0  0  0  0  0  0
   19.5293   -5.3626  -11.6209 C   0  0  0  0  0  0  0  0  0  0  0  0
   20.7196   -4.7328  -11.3356 O   0  0  0  0  0  0  0  0  0  0  0  0
   21.7796   -6.6008  -14.1177 O   0  0  0  0  0  0  0  0  0  0  0  0
   18.5528   -4.6805  -11.9900 O   0  0  0  0  0  0  0  0  0  0  0  0
  2  1  1  6
  2  3  1  0
  3  4  1  0
  4  8  1  0
  4  5  2  0
  5  6  1  0
  7  6  1  0
  8  7  2  0
  9  2  1  0
  9 11  1  0
 10  9  2  0
 12 11  1  0
 12 16  1  0
 12 13  1  1
 14 13  1  0
 15 14  2  0
 16 19  1  0
 17 16  2  0
 18 14  1  0
 19 20  1  0
 20 21  1  6
 20 24  1  0
 22 26  1  0
 22 21  1  0
 23 22  2  0
 24 25  1  0
 27 24  2  0
M  END
$$$$
