MKD.pdb
     RDKit          3D

 26 25  0  0  1  0  0  0  0  0999 V2000
    6.6606  -10.5001   27.3189 C   0  0  0  0  0  0  0  0  0  0  0  0
    5.7534  -12.0320   27.1113 S   0  0  0  0  0  0  0  0  0  0  0  0
    6.7561  -13.4079   26.5813 C   0  0  0  0  0  0  0  0  0  0  0  0
    6.0145  -14.6775   26.3920 C   0  0  0  0  0  0  0  0  0  0  0  0
    6.8519  -15.8449   25.9825 C   0  0  2  0  0  0  0  0  0  0  0  0
    8.2342  -15.7082   26.4243 N   0  0  0  0  0  0  0  0  0  0  0  0
    6.8491  -15.8907   24.5032 C   0  0  0  0  0  0  0  0  0  0  0  0
    6.1794  -16.7548   23.9110 O   0  0  0  0  0  0  0  0  0  0  0  0
    7.6037  -14.9572   23.7674 N   0  0  0  0  0  0  0  0  0  0  0  0
    8.1688  -15.3846   22.4853 C   0  0  1  0  0  0  0  0  0  0  0  0
    8.0136  -14.2350   21.5459 C   0  0  0  0  0  0  0  0  0  0  0  0
    8.4002  -14.5559   20.1488 C   0  0  0  0  0  0  0  0  0  0  0  0
    8.1846  -13.3537   19.2346 C   0  0  0  0  0  0  0  0  0  0  0  0
    8.5038  -13.8439   17.8192 C   0  0  0  0  0  0  0  0  0  0  0  0
    8.2117  -12.8130   16.8413 N   0  0  0  0  0  0  0  0  0  0  0  0
    9.5753  -15.7663   22.6429 C   0  0  0  0  0  0  0  0  0  0  0  0
   10.3152  -15.1065   23.4032 O   0  0  0  0  0  0  0  0  0  0  0  0
   10.1034  -16.8724   21.9445 N   0  0  0  0  0  0  0  0  0  0  0  0
   11.4978  -17.2207   22.0065 C   0  0  1  0  0  0  0  0  0  0  0  0
   12.3630  -15.9835   22.0935 C   0  0  0  0  0  0  0  0  0  0  0  0
   13.7897  -16.3964   22.0708 C   0  0  0  0  0  0  0  0  0  0  0  0
   14.3990  -16.6997   23.1269 O   0  0  0  0  0  0  0  0  0  0  0  0
   11.7339  -18.1340   23.1558 C   0  0  0  0  0  0  0  0  0  0  0  0
   11.2676  -17.8566   24.4229 O   0  0  0  0  0  0  0  0  0  0  0  0
   14.4263  -16.4352   20.8392 O   0  0  0  0  0  0  0  0  0  0  0  0
   12.3755  -19.1918   22.9791 O   0  0  0  0  0  0  0  0  0  0  0  0
  2  1  1  0
  3  4  1  0
  3  2  1  0
  4  5  1  0
  5  6  1  6
  7  5  1  0
  7  8  2  0
  9  7  1  0
 10  9  1  0
 10 11  1  6
 11 12  1  0
 12 13  1  0
 13 14  1  0
 14 15  1  0
 16 10  1  0
 17 16  2  0
 18 16  1  0
 19 20  1  1
 19 18  1  0
 20 21  1  0
 21 25  1  0
 21 22  2  0
 23 19  1  0
 24 23  1  0
 26 23  2  0
M  END
$$$$
