MKD.pdb
     RDKit          3D

 26 25  0  0  1  0  0  0  0  0999 V2000
    9.8145  -12.3374   18.6616 C   0  0  0  0  0  0  0  0  0  0  0  0
    8.0646  -12.1960   19.0230 S   0  0  0  0  0  0  0  0  0  0  0  0
    7.2994  -13.7230   19.5348 C   0  0  0  0  0  0  0  0  0  0  0  0
    7.9840  -14.4137   20.6538 C   0  0  0  0  0  0  0  0  0  0  0  0
    7.4486  -15.7688   20.9837 C   0  0  2  0  0  0  0  0  0  0  0  0
    6.0880  -15.7077   21.5030 N   0  0  0  0  0  0  0  0  0  0  0  0
    8.3142  -16.3382   22.0405 C   0  0  0  0  0  0  0  0  0  0  0  0
    8.2591  -15.8860   23.1974 O   0  0  0  0  0  0  0  0  0  0  0  0
    9.1989  -17.3904   21.7365 N   0  0  0  0  0  0  0  0  0  0  0  0
   10.0921  -17.8678   22.7948 C   0  0  1  0  0  0  0  0  0  0  0  0
    9.9273  -19.3501   22.8561 C   0  0  0  0  0  0  0  0  0  0  0  0
   10.7384  -19.9923   23.9210 C   0  0  0  0  0  0  0  0  0  0  0  0
   10.6098  -21.5114   23.8616 C   0  0  0  0  0  0  0  0  0  0  0  0
   11.3855  -22.0428   25.0705 C   0  0  0  0  0  0  0  0  0  0  0  0
   11.4006  -23.4934   25.0729 N   0  0  0  0  0  0  0  0  0  0  0  0
   11.4794  -17.4907   22.5084 C   0  0  0  0  0  0  0  0  0  0  0  0
   11.9065  -17.5432   21.3355 O   0  0  0  0  0  0  0  0  0  0  0  0
   12.3388  -17.0682   23.5442 N   0  0  0  0  0  0  0  0  0  0  0  0
   13.7121  -16.7149   23.3018 C   0  0  1  0  0  0  0  0  0  0  0  0
   13.8282  -15.2859   22.8209 C   0  0  0  0  0  0  0  0  0  0  0  0
   14.3389  -15.2918   21.4260 C   0  0  0  0  0  0  0  0  0  0  0  0
   14.5030  -16.3658   20.7949 O   0  0  0  0  0  0  0  0  0  0  0  0
   14.5116  -16.9429   24.5344 C   0  0  0  0  0  0  0  0  0  0  0  0
   14.0220  -16.6587   25.7911 O   0  0  0  0  0  0  0  0  0  0  0  0
   14.6286  -14.0666   20.8443 O   0  0  0  0  0  0  0  0  0  0  0  0
   15.6680  -17.4075   24.4402 O   0  0  0  0  0  0  0  0  0  0  0  0
  2  1  1  0
  3  4  1  0
  3  2  1  0
  4  5  1  0
  5  6  1  1
  7  5  1  0
  7  8  2  0
  9  7  1  0
 10  9  1  0
 10 11  1  6
 11 12  1  0
 12 13  1  0
 13 14  1  0
 14 15  1  0
 16 10  1  0
 17 16  2  0
 18 16  1  0
 19 20  1  1
 19 18  1  0
 20 21  1  0
 21 25  1  0
 21 22  2  0
 23 19  1  0
 24 23  1  0
 26 23  2  0
M  END
$$$$
