MKD.pdb
     RDKit          3D

 26 25  0  0  1  0  0  0  0  0999 V2000
    6.0388  -11.8002   27.1164 C   0  0  0  0  0  0  0  0  0  0  0  0
    7.4326  -12.7125   27.7779 S   0  0  0  0  0  0  0  0  0  0  0  0
    7.5931  -14.3676   27.1343 C   0  0  0  0  0  0  0  0  0  0  0  0
    6.5208  -14.7728   26.1943 C   0  0  0  0  0  0  0  0  0  0  0  0
    6.6114  -16.1792   25.6986 C   0  0  2  0  0  0  0  0  0  0  0  0
    7.3687  -17.0314   26.6068 N   0  0  0  0  0  0  0  0  0  0  0  0
    7.3276  -16.1438   24.4039 C   0  0  0  0  0  0  0  0  0  0  0  0
    8.0097  -17.1197   24.0459 O   0  0  0  0  0  0  0  0  0  0  0  0
    7.2368  -15.0066   23.5787 N   0  0  0  0  0  0  0  0  0  0  0  0
    7.8718  -15.0593   22.2597 C   0  0  1  0  0  0  0  0  0  0  0  0
    7.4879  -13.8032   21.5505 C   0  0  0  0  0  0  0  0  0  0  0  0
    7.5749  -13.9080   20.0721 C   0  0  0  0  0  0  0  0  0  0  0  0
    8.5103  -12.8443   19.5053 C   0  0  0  0  0  0  0  0  0  0  0  0
    8.4110  -12.9710   17.9822 C   0  0  0  0  0  0  0  0  0  0  0  0
    9.0885  -14.1683   17.5219 N   0  0  0  0  0  0  0  0  0  0  0  0
    9.3267  -15.1810   22.3920 C   0  0  0  0  0  0  0  0  0  0  0  0
    9.9345  -14.4757   23.2250 O   0  0  0  0  0  0  0  0  0  0  0  0
   10.0491  -16.0874   21.5878 N   0  0  0  0  0  0  0  0  0  0  0  0
   11.4338  -16.3906   21.8326 C   0  0  1  0  0  0  0  0  0  0  0  0
   11.6764  -17.8830   21.8019 C   0  0  0  0  0  0  0  0  0  0  0  0
   13.1142  -18.1384   22.0742 C   0  0  0  0  0  0  0  0  0  0  0  0
   13.9264  -17.1935   22.2362 O   0  0  0  0  0  0  0  0  0  0  0  0
   12.2838  -15.6788   20.8419 C   0  0  0  0  0  0  0  0  0  0  0  0
   13.4255  -14.9983   21.2072 O   0  0  0  0  0  0  0  0  0  0  0  0
   13.5285  -19.4601   22.1434 O   0  0  0  0  0  0  0  0  0  0  0  0
   11.9621  -15.6909   19.6343 O   0  0  0  0  0  0  0  0  0  0  0  0
  2  1  1  0
  3  4  1  0
  3  2  1  0
  4  5  1  0
  5  6  1  1
  7  5  1  0
  7  8  2  0
  9  7  1  0
 10  9  1  0
 10 11  1  1
 11 12  1  0
 12 13  1  0
 13 14  1  0
 14 15  1  0
 16 10  1  0
 17 16  2  0
 18 16  1  0
 19 20  1  6
 19 18  1  0
 20 21  1  0
 21 25  1  0
 21 22  2  0
 23 19  1  0
 24 23  1  0
 26 23  2  0
M  END
$$$$
