MKD.pdb
     RDKit          3D

 26 25  0  0  1  0  0  0  0  0999 V2000
    8.8356  -11.4467   18.9108 C   0  0  0  0  0  0  0  0  0  0  0  0
    7.7559  -12.6916   18.2056 S   0  0  0  0  0  0  0  0  0  0  0  0
    7.8355  -14.2744   19.0229 C   0  0  0  0  0  0  0  0  0  0  0  0
    9.1131  -14.5449   19.7246 C   0  0  0  0  0  0  0  0  0  0  0  0
    9.1877  -15.8667   20.4168 C   0  0  2  0  0  0  0  0  0  0  0  0
    7.9395  -16.6117   20.3089 N   0  0  0  0  0  0  0  0  0  0  0  0
    9.4354  -15.5986   21.8511 C   0  0  0  0  0  0  0  0  0  0  0  0
   10.5565  -15.2121   22.2248 O   0  0  0  0  0  0  0  0  0  0  0  0
    8.4033  -15.7810   22.7911 N   0  0  0  0  0  0  0  0  0  0  0  0
    8.6501  -15.3687   24.1749 C   0  0  1  0  0  0  0  0  0  0  0  0
    7.4919  -14.5188   24.5803 C   0  0  0  0  0  0  0  0  0  0  0  0
    7.6050  -13.9836   25.9605 C   0  0  0  0  0  0  0  0  0  0  0  0
    6.4006  -13.1136   26.3071 C   0  0  0  0  0  0  0  0  0  0  0  0
    6.7012  -12.5156   27.6846 C   0  0  0  0  0  0  0  0  0  0  0  0
    5.6204  -11.6487   28.1145 N   0  0  0  0  0  0  0  0  0  0  0  0
    8.7904  -16.5401   25.0451 C   0  0  0  0  0  0  0  0  0  0  0  0
    7.8103  -17.2909   25.2365 O   0  0  0  0  0  0  0  0  0  0  0  0
   10.0218  -16.8294   25.6695 N   0  0  0  0  0  0  0  0  0  0  0  0
   10.1992  -17.9810   26.5131 C   0  0  1  0  0  0  0  0  0  0  0  0
   10.7717  -19.1428   25.7325 C   0  0  0  0  0  0  0  0  0  0  0  0
   12.0253  -18.7006   25.0695 C   0  0  0  0  0  0  0  0  0  0  0  0
   12.4483  -17.5237   25.1903 O   0  0  0  0  0  0  0  0  0  0  0  0
   11.0605  -17.6240   27.6712 C   0  0  0  0  0  0  0  0  0  0  0  0
   11.2670  -18.4859   28.7268 O   0  0  0  0  0  0  0  0  0  0  0  0
   12.7134  -19.6357   24.3108 O   0  0  0  0  0  0  0  0  0  0  0  0
   11.6213  -16.5075   27.6996 O   0  0  0  0  0  0  0  0  0  0  0  0
  2  1  1  0
  3  4  1  0
  3  2  1  0
  4  5  1  0
  5  6  1  1
  7  5  1  0
  7  8  2  0
  9  7  1  0
 10  9  1  0
 10 11  1  1
 11 12  1  0
 12 13  1  0
 13 14  1  0
 14 15  1  0
 16 10  1  0
 17 16  2  0
 18 16  1  0
 19 20  1  6
 19 18  1  0
 20 21  1  0
 21 25  1  0
 21 22  2  0
 23 19  1  0
 24 23  1  0
 26 23  2  0
M  END
$$$$
