MKD.pdb
     RDKit          3D

 26 25  0  0  1  0  0  0  0  0999 V2000
    5.0442  -11.5913   27.1460 C   0  0  0  0  0  0  0  0  0  0  0  0
    6.7739  -11.4656   27.5989 S   0  0  0  0  0  0  0  0  0  0  0  0
    7.7799  -12.8195   27.0207 C   0  0  0  0  0  0  0  0  0  0  0  0
    7.0340  -13.8850   26.3093 C   0  0  0  0  0  0  0  0  0  0  0  0
    7.8597  -15.0491   25.8678 C   0  0  2  0  0  0  0  0  0  0  0  0
    9.2841  -14.8193   26.0751 N   0  0  0  0  0  0  0  0  0  0  0  0
    7.6331  -15.2233   24.4156 C   0  0  0  0  0  0  0  0  0  0  0  0
    6.6237  -15.8277   24.0138 O   0  0  0  0  0  0  0  0  0  0  0  0
    8.5594  -14.7054   23.4904 N   0  0  0  0  0  0  0  0  0  0  0  0
    8.5695  -15.2664   22.1373 C   0  0  1  0  0  0  0  0  0  0  0  0
    8.2248  -14.1493   21.2093 C   0  0  0  0  0  0  0  0  0  0  0  0
    8.1517  -14.5637   19.7855 C   0  0  0  0  0  0  0  0  0  0  0  0
    8.3325  -13.3645   18.8597 C   0  0  0  0  0  0  0  0  0  0  0  0
    8.1920  -13.9121   17.4363 C   0  0  0  0  0  0  0  0  0  0  0  0
    8.2632  -12.8378   16.4641 N   0  0  0  0  0  0  0  0  0  0  0  0
    9.8821  -15.8403   21.8264 C   0  0  0  0  0  0  0  0  0  0  0  0
   10.9033  -15.1235   21.8918 O   0  0  0  0  0  0  0  0  0  0  0  0
   10.0051  -17.1954   21.4539 N   0  0  0  0  0  0  0  0  0  0  0  0
   11.2618  -17.8931   21.5122 C   0  0  1  0  0  0  0  0  0  0  0  0
   11.2321  -18.9778   22.5655 C   0  0  0  0  0  0  0  0  0  0  0  0
   12.5441  -19.6742   22.5704 C   0  0  0  0  0  0  0  0  0  0  0  0
   13.4803  -19.3094   21.8160 O   0  0  0  0  0  0  0  0  0  0  0  0
   11.5902  -18.4437   20.1707 C   0  0  0  0  0  0  0  0  0  0  0  0
   10.7242  -18.3434   19.1030 O   0  0  0  0  0  0  0  0  0  0  0  0
   12.6988  -20.7439   23.4395 O   0  0  0  0  0  0  0  0  0  0  0  0
   12.6854  -19.0188   19.9931 O   0  0  0  0  0  0  0  0  0  0  0  0
  2  1  1  0
  3  4  1  0
  3  2  1  0
  4  5  1  0
  5  6  1  6
  7  5  1  0
  7  8  2  0
  9  7  1  0
 10  9  1  0
 10 11  1  6
 11 12  1  0
 12 13  1  0
 13 14  1  0
 14 15  1  0
 16 10  1  0
 17 16  2  0
 18 16  1  0
 19 20  1  1
 19 18  1  0
 20 21  1  0
 21 25  1  0
 21 22  2  0
 23 19  1  0
 24 23  1  0
 26 23  2  0
M  END
$$$$
