MKD.pdb
     RDKit          3D

 26 25  0  0  1  0  0  0  0  0999 V2000
    8.2493  -12.0448   27.5448 C   0  0  0  0  0  0  0  0  0  0  0  0
    7.0549  -11.4996   26.3245 S   0  0  0  0  0  0  0  0  0  0  0  0
    5.9439  -12.7787   25.7686 C   0  0  0  0  0  0  0  0  0  0  0  0
    6.6100  -14.0236   25.3166 C   0  0  0  0  0  0  0  0  0  0  0  0
    7.2946  -13.9303   23.9921 C   0  0  2  0  0  0  0  0  0  0  0  0
    6.3464  -13.7724   22.8963 N   0  0  0  0  0  0  0  0  0  0  0  0
    8.0239  -15.2011   23.7836 C   0  0  0  0  0  0  0  0  0  0  0  0
    7.8200  -16.1646   24.5425 O   0  0  0  0  0  0  0  0  0  0  0  0
    8.9474  -15.3190   22.7274 N   0  0  0  0  0  0  0  0  0  0  0  0
    9.6526  -16.5929   22.5671 C   0  0  1  0  0  0  0  0  0  0  0  0
   10.2723  -16.5700   21.2093 C   0  0  0  0  0  0  0  0  0  0  0  0
   10.9451  -17.8421   20.8442 C   0  0  0  0  0  0  0  0  0  0  0  0
   11.5810  -17.7439   19.4608 C   0  0  0  0  0  0  0  0  0  0  0  0
   12.1219  -19.1427   19.1506 C   0  0  0  0  0  0  0  0  0  0  0  0
   12.7571  -19.1695   17.8467 N   0  0  0  0  0  0  0  0  0  0  0  0
   10.6612  -16.7601   23.6176 C   0  0  0  0  0  0  0  0  0  0  0  0
   11.3109  -15.7702   24.0163 O   0  0  0  0  0  0  0  0  0  0  0  0
   10.9066  -18.0284   24.1844 N   0  0  0  0  0  0  0  0  0  0  0  0
   11.7024  -18.1943   25.3713 C   0  0  1  0  0  0  0  0  0  0  0  0
   11.0553  -19.1721   26.3263 C   0  0  0  0  0  0  0  0  0  0  0  0
   11.9790  -19.4087   27.4654 C   0  0  0  0  0  0  0  0  0  0  0  0
   12.6299  -18.4680   27.9851 O   0  0  0  0  0  0  0  0  0  0  0  0
   13.0752  -18.6246   24.9962 C   0  0  0  0  0  0  0  0  0  0  0  0
   13.4348  -18.8784   23.6900 O   0  0  0  0  0  0  0  0  0  0  0  0
   12.0972  -20.7081   27.9355 O   0  0  0  0  0  0  0  0  0  0  0  0
   13.9408  -18.7643   25.8868 O   0  0  0  0  0  0  0  0  0  0  0  0
  2  1  1  0
  3  4  1  0
  3  2  1  0
  4  5  1  0
  5  6  1  6
  7  5  1  0
  7  8  2  0
  9  7  1  0
 10  9  1  0
 10 11  1  6
 11 12  1  0
 12 13  1  0
 13 14  1  0
 14 15  1  0
 16 10  1  0
 17 16  2  0
 18 16  1  0
 19 20  1  1
 19 18  1  0
 20 21  1  0
 21 25  1  0
 21 22  2  0
 23 19  1  0
 24 23  1  0
 26 23  2  0
M  END
$$$$
