MKD.pdb
     RDKit          3D

 26 25  0  0  1  0  0  0  0  0999 V2000
    6.5582  -11.2730   27.5872 C   0  0  0  0  0  0  0  0  0  0  0  0
    7.0763  -12.4685   26.3562 S   0  0  0  0  0  0  0  0  0  0  0  0
    6.0351  -13.9127   26.2579 C   0  0  0  0  0  0  0  0  0  0  0  0
    6.4493  -14.9059   25.2383 C   0  0  0  0  0  0  0  0  0  0  0  0
    7.8726  -15.3507   25.3292 C   0  0  2  0  0  0  0  0  0  0  0  0
    8.7581  -14.2695   25.7434 N   0  0  0  0  0  0  0  0  0  0  0  0
    8.2852  -15.7839   23.9755 C   0  0  0  0  0  0  0  0  0  0  0  0
    7.7154  -16.7461   23.4320 O   0  0  0  0  0  0  0  0  0  0  0  0
    9.3215  -15.1076   23.3040 N   0  0  0  0  0  0  0  0  0  0  0  0
    9.7712  -15.6404   22.0157 C   0  0  1  0  0  0  0  0  0  0  0  0
    9.9073  -14.4733   21.0951 C   0  0  0  0  0  0  0  0  0  0  0  0
    8.6370  -14.0963   20.4255 C   0  0  0  0  0  0  0  0  0  0  0  0
    8.8624  -13.8326   18.9398 C   0  0  0  0  0  0  0  0  0  0  0  0
    7.5017  -13.4059   18.3812 C   0  0  0  0  0  0  0  0  0  0  0  0
    7.5954  -13.1250   16.9611 N   0  0  0  0  0  0  0  0  0  0  0  0
   11.0404  -16.3577   22.1686 C   0  0  0  0  0  0  0  0  0  0  0  0
   11.9588  -15.8541   22.8497 O   0  0  0  0  0  0  0  0  0  0  0  0
   11.2365  -17.6124   21.5544 N   0  0  0  0  0  0  0  0  0  0  0  0
   12.4797  -18.3286   21.6587 C   0  0  1  0  0  0  0  0  0  0  0  0
   12.3719  -19.4610   22.6552 C   0  0  0  0  0  0  0  0  0  0  0  0
   13.6714  -20.1789   22.7041 C   0  0  0  0  0  0  0  0  0  0  0  0
   14.6447  -19.8174   21.9965 O   0  0  0  0  0  0  0  0  0  0  0  0
   12.8874  -18.8199   20.3159 C   0  0  0  0  0  0  0  0  0  0  0  0
   12.0256  -19.5146   19.4947 O   0  0  0  0  0  0  0  0  0  0  0  0
   13.7719  -21.2649   23.5609 O   0  0  0  0  0  0  0  0  0  0  0  0
   14.0482  -18.6015   19.9074 O   0  0  0  0  0  0  0  0  0  0  0  0
  2  1  1  0
  3  4  1  0
  3  2  1  0
  4  5  1  0
  5  6  1  6
  7  5  1  0
  7  8  2  0
  9  7  1  0
 10  9  1  0
 10 11  1  6
 11 12  1  0
 12 13  1  0
 13 14  1  0
 14 15  1  0
 16 10  1  0
 17 16  2  0
 18 16  1  0
 19 20  1  1
 19 18  1  0
 20 21  1  0
 21 25  1  0
 21 22  2  0
 23 19  1  0
 24 23  1  0
 26 23  2  0
M  END
$$$$
