MKD.pdb
     RDKit          3D

 26 25  0  0  1  0  0  0  0  0999 V2000
    7.7942  -11.4902   27.0277 C   0  0  0  0  0  0  0  0  0  0  0  0
    6.3414  -12.4180   27.5189 S   0  0  0  0  0  0  0  0  0  0  0  0
    6.4659  -14.1738   27.2337 C   0  0  0  0  0  0  0  0  0  0  0  0
    6.1836  -14.5961   25.8410 C   0  0  0  0  0  0  0  0  0  0  0  0
    6.4590  -16.0348   25.5475 C   0  0  2  0  0  0  0  0  0  0  0  0
    7.2601  -16.6622   26.5912 N   0  0  0  0  0  0  0  0  0  0  0  0
    7.2327  -16.0862   24.2869 C   0  0  0  0  0  0  0  0  0  0  0  0
    7.3826  -17.1694   23.6953 O   0  0  0  0  0  0  0  0  0  0  0  0
    7.7982  -14.9102   23.7583 N   0  0  0  0  0  0  0  0  0  0  0  0
    8.4698  -14.9917   22.4590 C   0  0  1  0  0  0  0  0  0  0  0  0
    8.4227  -13.6221   21.8673 C   0  0  0  0  0  0  0  0  0  0  0  0
    7.6724  -13.5555   20.5879 C   0  0  0  0  0  0  0  0  0  0  0  0
    8.6089  -13.7388   19.3976 C   0  0  0  0  0  0  0  0  0  0  0  0
    7.7299  -13.6025   18.1509 C   0  0  0  0  0  0  0  0  0  0  0  0
    8.5063  -13.8357   16.9479 N   0  0  0  0  0  0  0  0  0  0  0  0
    9.8486  -15.4628   22.6195 C   0  0  0  0  0  0  0  0  0  0  0  0
   10.5298  -15.0674   23.5893 O   0  0  0  0  0  0  0  0  0  0  0  0
   10.4156  -16.3594   21.6895 N   0  0  0  0  0  0  0  0  0  0  0  0
   11.6591  -17.0373   21.9417 C   0  0  1  0  0  0  0  0  0  0  0  0
   11.4446  -18.5267   22.0920 C   0  0  0  0  0  0  0  0  0  0  0  0
   12.7666  -19.1858   22.2480 C   0  0  0  0  0  0  0  0  0  0  0  0
   13.6647  -18.6860   22.9707 O   0  0  0  0  0  0  0  0  0  0  0  0
   12.6243  -16.7318   20.8529 C   0  0  0  0  0  0  0  0  0  0  0  0
   12.2147  -16.3865   19.5830 O   0  0  0  0  0  0  0  0  0  0  0  0
   12.9743  -20.3752   21.5656 O   0  0  0  0  0  0  0  0  0  0  0  0
   13.8511  -16.7867   21.0852 O   0  0  0  0  0  0  0  0  0  0  0  0
  2  1  1  0
  3  4  1  0
  3  2  1  0
  4  5  1  0
  5  6  1  1
  7  5  1  0
  7  8  2  0
  9  7  1  0
 10  9  1  0
 10 11  1  1
 11 12  1  0
 12 13  1  0
 13 14  1  0
 14 15  1  0
 16 10  1  0
 17 16  2  0
 18 16  1  0
 19 20  1  6
 19 18  1  0
 20 21  1  0
 21 25  1  0
 21 22  2  0
 23 19  1  0
 24 23  1  0
 26 23  2  0
M  END
$$$$
