MKD.pdb
     RDKit          3D

 26 25  0  0  1  0  0  0  0  0999 V2000
    6.2395  -11.9029   20.4064 C   0  0  0  0  0  0  0  0  0  0  0  0
    7.2462  -13.0394   19.4537 S   0  0  0  0  0  0  0  0  0  0  0  0
    8.6589  -13.6776   20.3348 C   0  0  0  0  0  0  0  0  0  0  0  0
    9.4526  -14.6820   19.5872 C   0  0  0  0  0  0  0  0  0  0  0  0
    9.4233  -16.0631   20.1559 C   0  0  2  0  0  0  0  0  0  0  0  0
    8.0693  -16.5989   20.2214 N   0  0  0  0  0  0  0  0  0  0  0  0
    9.9478  -15.9810   21.5374 C   0  0  0  0  0  0  0  0  0  0  0  0
   11.0679  -15.4836   21.7466 O   0  0  0  0  0  0  0  0  0  0  0  0
    9.1797  -16.4655   22.6132 N   0  0  0  0  0  0  0  0  0  0  0  0
    9.7453  -16.3724   23.9613 C   0  0  1  0  0  0  0  0  0  0  0  0
    8.6445  -16.7116   24.9106 C   0  0  0  0  0  0  0  0  0  0  0  0
    8.6456  -18.1345   25.3341 C   0  0  0  0  0  0  0  0  0  0  0  0
    7.5069  -18.4125   26.3107 C   0  0  0  0  0  0  0  0  0  0  0  0
    7.6400  -19.8886   26.6967 C   0  0  0  0  0  0  0  0  0  0  0  0
    6.6567  -20.2468   27.7013 N   0  0  0  0  0  0  0  0  0  0  0  0
   10.8837  -17.2843   24.1074 C   0  0  0  0  0  0  0  0  0  0  0  0
   10.7808  -18.4700   23.7272 O   0  0  0  0  0  0  0  0  0  0  0  0
   12.0961  -16.8371   24.6732 N   0  0  0  0  0  0  0  0  0  0  0  0
   13.1973  -17.7281   24.9236 C   0  0  1  0  0  0  0  0  0  0  0  0
   14.5135  -16.9837   24.9022 C   0  0  0  0  0  0  0  0  0  0  0  0
   14.7202  -16.4187   23.5441 C   0  0  0  0  0  0  0  0  0  0  0  0
   15.1549  -15.2512   23.3813 O   0  0  0  0  0  0  0  0  0  0  0  0
   12.9879  -18.4299   26.2175 C   0  0  0  0  0  0  0  0  0  0  0  0
   13.8123  -19.4496   26.6424 O   0  0  0  0  0  0  0  0  0  0  0  0
   14.4152  -17.2281   22.4599 O   0  0  0  0  0  0  0  0  0  0  0  0
   12.0355  -18.0925   26.9531 O   0  0  0  0  0  0  0  0  0  0  0  0
  2  1  1  0
  3  4  1  0
  3  2  1  0
  4  5  1  0
  5  6  1  1
  7  5  1  0
  7  8  2  0
  9  7  1  0
 10  9  1  0
 10 11  1  1
 11 12  1  0
 12 13  1  0
 13 14  1  0
 14 15  1  0
 16 10  1  0
 17 16  2  0
 18 16  1  0
 19 20  1  1
 19 18  1  0
 20 21  1  0
 21 25  1  0
 21 22  2  0
 23 19  1  0
 24 23  1  0
 26 23  2  0
M  END
$$$$
