MWW.pdb
     RDKit          3D

 37 40  0  0  1  0  0  0  0  0999 V2000
   11.6726  -19.7602   19.2591 C   0  0  0  0  0  0  0  0  0  0  0  0
   12.6470  -20.8009   20.3791 S   0  0  0  0  0  0  0  0  0  0  0  0
   11.5957  -21.4050   21.7358 C   0  0  0  0  0  0  0  0  0  0  0  0
   12.4545  -22.2036   22.7056 C   0  0  0  0  0  0  0  0  0  0  0  0
   11.5551  -22.6733   23.8169 C   0  0  2  0  0  0  0  0  0  0  0  0
   10.7073  -23.7529   23.4210 N   0  0  0  0  0  0  0  0  0  0  0  0
   10.7873  -21.5415   24.4221 C   0  0  0  0  0  0  0  0  0  0  0  0
    9.5878  -21.3405   24.1347 O   0  0  0  0  0  0  0  0  0  0  0  0
   11.3766  -20.6411   25.3496 N   0  0  0  0  0  0  0  0  0  0  0  0
   10.6639  -19.5044   25.9301 C   0  0  1  0  0  0  0  0  0  0  0  0
   11.5326  -19.0557   27.0863 C   0  0  0  0  0  0  0  0  0  0  0  0
   10.7505  -18.2137   28.0270 C   0  0  0  0  0  0  0  0  0  0  0  0
    9.8113  -18.6516   28.9346 C   0  0  0  0  0  0  0  0  0  0  0  0
    9.3117  -17.5995   29.6103 N   0  0  0  0  0  0  0  0  0  0  0  0
    9.9095  -16.4657   29.1609 C   0  0  0  0  0  0  0  0  0  0  0  0
    9.7600  -15.1424   29.5149 C   0  0  0  0  0  0  0  0  0  0  0  0
   10.5060  -14.1854   28.8859 C   0  0  0  0  0  0  0  0  0  0  0  0
   11.4031  -14.5504   27.9014 C   0  0  0  0  0  0  0  0  0  0  0  0
   11.5662  -15.8678   27.5342 C   0  0  0  0  0  0  0  0  0  0  0  0
   10.8038  -16.8305   28.1795 C   0  0  0  0  0  0  0  0  0  0  0  0
   10.3163  -18.4704   24.9847 C   0  0  0  0  0  0  0  0  0  0  0  0
   11.0694  -18.1899   24.0163 O   0  0  0  0  0  0  0  0  0  0  0  0
    9.1144  -17.7436   25.1243 N   0  0  0  0  0  0  0  0  0  0  0  0
    8.8341  -16.6225   24.2037 C   0  0  1  0  0  0  0  0  0  0  0  0
    7.4606  -16.1332   24.5714 C   0  0  0  0  0  0  0  0  0  0  0  0
    7.0713  -14.8258   24.0180 C   0  0  0  0  0  0  0  0  0  0  0  0
    6.9266  -14.4786   22.6724 C   0  0  0  0  0  0  0  0  0  0  0  0
    6.5919  -13.1854   22.6009 N   0  0  0  0  0  0  0  0  0  0  0  0
    6.5049  -12.6520   23.8279 C   0  0  0  0  0  0  0  0  0  0  0  0
    6.1857  -11.3908   24.2991 C   0  0  0  0  0  0  0  0  0  0  0  0
    6.1723  -11.1845   25.6544 C   0  0  0  0  0  0  0  0  0  0  0  0
    6.4625  -12.1781   26.5590 C   0  0  0  0  0  0  0  0  0  0  0  0
    6.7793  -13.4269   26.0887 C   0  0  0  0  0  0  0  0  0  0  0  0
    6.8040  -13.6726   24.7338 C   0  0  0  0  0  0  0  0  0  0  0  0
    9.9022  -15.6427   24.2084 C   0  0  0  0  0  0  0  0  0  0  0  0
   10.6263  -15.4731   25.2478 O   0  0  0  0  0  0  0  0  0  0  0  0
   10.2183  -14.8438   23.1276 O   0  0  0  0  0  0  0  0  0  0  0  0
  1  2  1  0
  3  2  1  0
  4  3  1  0
  5  4  1  0
  5  6  1  6
  7  5  1  0
  8  7  2  0
  9  7  1  0
 10 21  1  0
 10  9  1  0
 10 11  1  1
 12 13  2  0
 12 11  1  0
 14 13  1  0
 15 20  2  0
 15 14  1  0
 16 15  1  0
 17 18  1  0
 17 16  2  0
 18 19  2  0
 19 20  1  0
 20 12  1  0
 21 22  2  0
 23 24  1  0
 23 21  1  0
 24 25  1  1
 25 26  1  0
 26 27  2  0
 27 28  1  0
 29 30  2  0
 29 28  1  0
 31 30  1  0
 32 31  2  0
 33 32  1  0
 33 34  2  0
 34 26  1  0
 34 29  1  0
 35 37  1  0
 35 24  1  0
 36 35  2  0
M  END
$$$$
