MWW.pdb
     RDKit          3D

 37 40  0  0  1  0  0  0  0  0999 V2000
   10.1109  -22.1088   24.3112 C   0  0  0  0  0  0  0  0  0  0  0  0
    9.4717  -23.2225   23.0314 S   0  0  0  0  0  0  0  0  0  0  0  0
    8.4039  -22.2994   21.8833 C   0  0  0  0  0  0  0  0  0  0  0  0
    8.9421  -20.8830   21.7419 C   0  0  0  0  0  0  0  0  0  0  0  0
    7.8803  -20.0678   21.0542 C   0  0  2  0  0  0  0  0  0  0  0  0
    7.4848  -20.6241   19.7991 N   0  0  0  0  0  0  0  0  0  0  0  0
    8.2761  -18.6303   20.9381 C   0  0  0  0  0  0  0  0  0  0  0  0
    9.1339  -18.2554   20.1101 O   0  0  0  0  0  0  0  0  0  0  0  0
    7.7019  -17.6214   21.7570 N   0  0  0  0  0  0  0  0  0  0  0  0
    8.0856  -16.2126   21.6852 C   0  0  1  0  0  0  0  0  0  0  0  0
    6.8551  -15.4553   22.1379 C   0  0  0  0  0  0  0  0  0  0  0  0
    6.7250  -15.5124   23.6162 C   0  0  0  0  0  0  0  0  0  0  0  0
    6.4014  -16.6191   24.3700 C   0  0  0  0  0  0  0  0  0  0  0  0
    6.3755  -16.2851   25.6741 N   0  0  0  0  0  0  0  0  0  0  0  0
    6.6788  -14.9667   25.7953 C   0  0  0  0  0  0  0  0  0  0  0  0
    6.7860  -14.1429   26.8947 C   0  0  0  0  0  0  0  0  0  0  0  0
    7.1126  -12.8267   26.7244 C   0  0  0  0  0  0  0  0  0  0  0  0
    7.3326  -12.3320   25.4539 C   0  0  0  0  0  0  0  0  0  0  0  0
    7.2300  -13.1402   24.3433 C   0  0  0  0  0  0  0  0  0  0  0  0
    6.8980  -14.4744   24.5282 C   0  0  0  0  0  0  0  0  0  0  0  0
    9.3021  -15.8875   22.3910 C   0  0  0  0  0  0  0  0  0  0  0  0
    9.8583  -14.7671   22.2535 O   0  0  0  0  0  0  0  0  0  0  0  0
    9.9019  -16.8252   23.2591 N   0  0  0  0  0  0  0  0  0  0  0  0
   11.2416  -16.5449   23.8151 C   0  0  1  0  0  0  0  0  0  0  0  0
   11.0556  -15.3784   24.7456 C   0  0  0  0  0  0  0  0  0  0  0  0
   10.7519  -15.7122   26.1468 C   0  0  0  0  0  0  0  0  0  0  0  0
   10.5570  -16.9813   26.6977 C   0  0  0  0  0  0  0  0  0  0  0  0
   10.2719  -16.8411   27.9973 N   0  0  0  0  0  0  0  0  0  0  0  0
   10.2673  -15.5455   28.3421 C   0  0  0  0  0  0  0  0  0  0  0  0
   10.0510  -14.8767   29.5340 C   0  0  0  0  0  0  0  0  0  0  0  0
   10.1423  -13.5088   29.5406 C   0  0  0  0  0  0  0  0  0  0  0  0
   10.4390  -12.7795   28.4137 C   0  0  0  0  0  0  0  0  0  0  0  0
   10.6521  -13.4454   27.2337 C   0  0  0  0  0  0  0  0  0  0  0  0
   10.5683  -14.8192   27.1873 C   0  0  0  0  0  0  0  0  0  0  0  0
   11.8535  -17.7357   24.3707 C   0  0  0  0  0  0  0  0  0  0  0  0
   11.1855  -18.8194   24.4834 O   0  0  0  0  0  0  0  0  0  0  0  0
   13.1630  -17.7974   24.8037 O   0  0  0  0  0  0  0  0  0  0  0  0
  1  2  1  0
  3  2  1  0
  4  3  1  0
  5  4  1  0
  5  6  1  6
  7  5  1  0
  8  7  2  0
  9  7  1  0
 10 21  1  0
 10  9  1  0
 10 11  1  1
 12 13  2  0
 12 11  1  0
 14 13  1  0
 15 20  2  0
 15 14  1  0
 16 15  1  0
 17 18  1  0
 17 16  2  0
 18 19  2  0
 19 20  1  0
 20 12  1  0
 21 22  2  0
 23 24  1  0
 23 21  1  0
 24 25  1  1
 25 26  1  0
 26 27  2  0
 27 28  1  0
 29 30  2  0
 29 28  1  0
 31 30  1  0
 32 31  2  0
 33 32  1  0
 33 34  2  0
 34 26  1  0
 34 29  1  0
 35 37  1  0
 35 24  1  0
 36 35  2  0
M  END
$$$$
