MWW.pdb
     RDKit          3D

 37 40  0  0  1  0  0  0  0  0999 V2000
    9.5368  -16.4468   13.4729 C   0  0  0  0  0  0  0  0  0  0  0  0
    9.6213  -15.5769   15.0613 S   0  0  0  0  0  0  0  0  0  0  0  0
    9.5035  -16.7711   16.4290 C   0  0  0  0  0  0  0  0  0  0  0  0
    9.4856  -16.0098   17.7466 C   0  0  0  0  0  0  0  0  0  0  0  0
    9.6254  -17.0231   18.8505 C   0  0  2  0  0  0  0  0  0  0  0  0
    8.5778  -17.9944   18.8430 N   0  0  0  0  0  0  0  0  0  0  0  0
    9.7819  -16.3676   20.1856 C   0  0  0  0  0  0  0  0  0  0  0  0
   10.5840  -15.4251   20.3587 O   0  0  0  0  0  0  0  0  0  0  0  0
    9.0320  -16.7785   21.3200 N   0  0  0  0  0  0  0  0  0  0  0  0
    9.2226  -16.2169   22.6562 C   0  0  1  0  0  0  0  0  0  0  0  0
    7.8989  -16.4361   23.3579 C   0  0  0  0  0  0  0  0  0  0  0  0
    7.1459  -15.1599   23.4565 C   0  0  0  0  0  0  0  0  0  0  0  0
    6.3348  -14.6081   22.4893 C   0  0  0  0  0  0  0  0  0  0  0  0
    5.8248  -13.4454   22.9376 N   0  0  0  0  0  0  0  0  0  0  0  0
    6.2888  -13.2182   24.1937 C   0  0  0  0  0  0  0  0  0  0  0  0
    6.0740  -12.1880   25.0834 C   0  0  0  0  0  0  0  0  0  0  0  0
    6.6806  -12.2141   26.3079 C   0  0  0  0  0  0  0  0  0  0  0  0
    7.5032  -13.2710   26.6448 C   0  0  0  0  0  0  0  0  0  0  0  0
    7.7297  -14.3094   25.7689 C   0  0  0  0  0  0  0  0  0  0  0  0
    7.1088  -14.2723   24.5289 C   0  0  0  0  0  0  0  0  0  0  0  0
   10.3805  -16.7194   23.3565 C   0  0  0  0  0  0  0  0  0  0  0  0
   10.6740  -17.9430   23.3409 O   0  0  0  0  0  0  0  0  0  0  0  0
   11.2180  -15.8441   24.0810 N   0  0  0  0  0  0  0  0  0  0  0  0
   12.3267  -16.4003   24.8836 C   0  0  1  0  0  0  0  0  0  0  0  0
   11.7211  -17.5178   25.6871 C   0  0  0  0  0  0  0  0  0  0  0  0
   10.7584  -17.1177   26.7265 C   0  0  0  0  0  0  0  0  0  0  0  0
    9.5502  -17.7384   27.0535 C   0  0  0  0  0  0  0  0  0  0  0  0
    8.9649  -17.0397   28.0328 N   0  0  0  0  0  0  0  0  0  0  0  0
    9.7197  -15.9863   28.3766 C   0  0  0  0  0  0  0  0  0  0  0  0
    9.5826  -14.9817   29.3183 C   0  0  0  0  0  0  0  0  0  0  0  0
   10.5779  -14.0446   29.4223 C   0  0  0  0  0  0  0  0  0  0  0  0
   11.7015  -14.0645   28.6307 C   0  0  0  0  0  0  0  0  0  0  0  0
   11.8339  -15.0611   27.6977 C   0  0  0  0  0  0  0  0  0  0  0  0
   10.8548  -16.0201   27.5630 C   0  0  0  0  0  0  0  0  0  0  0  0
   13.4733  -16.7310   24.0609 C   0  0  0  0  0  0  0  0  0  0  0  0
   14.5216  -17.2452   24.5806 O   0  0  0  0  0  0  0  0  0  0  0  0
   13.5245  -16.5302   22.6959 O   0  0  0  0  0  0  0  0  0  0  0  0
  1  2  1  0
  3  2  1  0
  4  3  1  0
  5  4  1  0
  5  6  1  1
  7  5  1  0
  8  7  2  0
  9  7  1  0
 10 21  1  0
 10  9  1  0
 10 11  1  1
 12 13  2  0
 12 11  1  0
 14 13  1  0
 15 20  2  0
 15 14  1  0
 16 15  1  0
 17 18  1  0
 17 16  2  0
 18 19  2  0
 19 20  1  0
 20 12  1  0
 21 22  2  0
 23 24  1  0
 23 21  1  0
 24 25  1  6
 25 26  1  0
 26 27  2  0
 27 28  1  0
 29 30  2  0
 29 28  1  0
 31 30  1  0
 32 31  2  0
 33 32  1  0
 33 34  2  0
 34 26  1  0
 34 29  1  0
 35 37  1  0
 35 24  1  0
 36 35  2  0
M  END
$$$$
