MWW.pdb
     RDKit          3D

 37 40  0  0  1  0  0  0  0  0999 V2000
   14.8094  -17.8383   15.5464 C   0  0  0  0  0  0  0  0  0  0  0  0
   13.3844  -17.0748   16.3669 S   0  0  0  0  0  0  0  0  0  0  0  0
   12.9823  -17.9883   17.8882 C   0  0  0  0  0  0  0  0  0  0  0  0
   11.9796  -17.1788   18.6977 C   0  0  0  0  0  0  0  0  0  0  0  0
   11.6702  -17.9661   19.9424 C   0  0  2  0  0  0  0  0  0  0  0  0
   10.7758  -19.0532   19.6991 N   0  0  0  0  0  0  0  0  0  0  0  0
   11.1995  -17.0817   21.0528 C   0  0  0  0  0  0  0  0  0  0  0  0
   11.8700  -16.0971   21.4304 O   0  0  0  0  0  0  0  0  0  0  0  0
    9.9734  -17.3122   21.7323 N   0  0  0  0  0  0  0  0  0  0  0  0
    9.4995  -16.4830   22.8391 C   0  0  1  0  0  0  0  0  0  0  0  0
    7.9902  -16.5117   22.7224 C   0  0  0  0  0  0  0  0  0  0  0  0
    7.5443  -15.7079   21.5558 C   0  0  0  0  0  0  0  0  0  0  0  0
    6.8694  -16.1722   20.4483 C   0  0  0  0  0  0  0  0  0  0  0  0
    6.6380  -15.1522   19.6004 N   0  0  0  0  0  0  0  0  0  0  0  0
    7.1524  -14.0137   20.1331 C   0  0  0  0  0  0  0  0  0  0  0  0
    7.1828  -12.7140   19.6760 C   0  0  0  0  0  0  0  0  0  0  0  0
    7.7790  -11.7445   20.4328 C   0  0  0  0  0  0  0  0  0  0  0  0
    8.3459  -12.0734   21.6484 C   0  0  0  0  0  0  0  0  0  0  0  0
    8.3252  -13.3667   22.1216 C   0  0  0  0  0  0  0  0  0  0  0  0
    7.7174  -14.3423   21.3450 C   0  0  0  0  0  0  0  0  0  0  0  0
   10.0235  -16.8548   24.1318 C   0  0  0  0  0  0  0  0  0  0  0  0
   10.2806  -18.0542   24.4128 O   0  0  0  0  0  0  0  0  0  0  0  0
   10.2620  -15.8748   25.1194 N   0  0  0  0  0  0  0  0  0  0  0  0
   10.3187  -16.2763   26.5401 C   0  0  1  0  0  0  0  0  0  0  0  0
    8.9126  -16.6639   26.9055 C   0  0  0  0  0  0  0  0  0  0  0  0
    7.8740  -15.6564   26.6351 C   0  0  0  0  0  0  0  0  0  0  0  0
    6.6563  -15.8432   25.9759 C   0  0  0  0  0  0  0  0  0  0  0  0
    6.0220  -14.6669   25.9136 N   0  0  0  0  0  0  0  0  0  0  0  0
    6.7522  -13.7058   26.4972 C   0  0  0  0  0  0  0  0  0  0  0  0
    6.5522  -12.3534   26.7109 C   0  0  0  0  0  0  0  0  0  0  0  0
    7.5209  -11.6476   27.3766 C   0  0  0  0  0  0  0  0  0  0  0  0
    8.6779  -12.2293   27.8377 C   0  0  0  0  0  0  0  0  0  0  0  0
    8.8735  -13.5699   27.6236 C   0  0  0  0  0  0  0  0  0  0  0  0
    7.9234  -14.3121   26.9580 C   0  0  0  0  0  0  0  0  0  0  0  0
   11.3539  -17.2623   26.7796 C   0  0  0  0  0  0  0  0  0  0  0  0
   11.0817  -18.5108   26.7595 O   0  0  0  0  0  0  0  0  0  0  0  0
   12.6734  -16.9462   27.0347 O   0  0  0  0  0  0  0  0  0  0  0  0
  1  2  1  0
  3  2  1  0
  4  3  1  0
  5  4  1  0
  5  6  1  6
  7  5  1  0
  8  7  2  0
  9  7  1  0
 10 21  1  0
 10  9  1  0
 10 11  1  1
 12 13  2  0
 12 11  1  0
 14 13  1  0
 15 20  2  0
 15 14  1  0
 16 15  1  0
 17 18  1  0
 17 16  2  0
 18 19  2  0
 19 20  1  0
 20 12  1  0
 21 22  2  0
 23 24  1  0
 23 21  1  0
 24 25  1  6
 25 26  1  0
 26 27  2  0
 27 28  1  0
 29 30  2  0
 29 28  1  0
 31 30  1  0
 32 31  2  0
 33 32  1  0
 33 34  2  0
 34 26  1  0
 34 29  1  0
 35 37  1  0
 35 24  1  0
 36 35  2  0
M  END
$$$$
