MWW.pdb
     RDKit          3D

 37 40  0  0  1  0  0  0  0  0999 V2000
    6.9630  -12.6292   18.4705 C   0  0  0  0  0  0  0  0  0  0  0  0
    7.2369  -14.1331   17.4957 S   0  0  0  0  0  0  0  0  0  0  0  0
    7.8539  -15.4649   18.5710 C   0  0  0  0  0  0  0  0  0  0  0  0
    8.4117  -14.8492   19.8460 C   0  0  0  0  0  0  0  0  0  0  0  0
    8.9158  -15.9780   20.7043 C   0  0  2  0  0  0  0  0  0  0  0  0
    7.9514  -17.0193   20.8679 N   0  0  0  0  0  0  0  0  0  0  0  0
    9.4443  -15.4835   22.0130 C   0  0  0  0  0  0  0  0  0  0  0  0
   10.3114  -14.5852   22.0680 O   0  0  0  0  0  0  0  0  0  0  0  0
    8.9918  -16.0048   23.2546 N   0  0  0  0  0  0  0  0  0  0  0  0
    9.3109  -15.3978   24.5456 C   0  0  1  0  0  0  0  0  0  0  0  0
    8.2455  -15.9164   25.4883 C   0  0  0  0  0  0  0  0  0  0  0  0
    7.0934  -14.9804   25.5351 C   0  0  0  0  0  0  0  0  0  0  0  0
    5.7675  -15.2996   25.3408 C   0  0  0  0  0  0  0  0  0  0  0  0
    5.0143  -14.1896   25.4570 N   0  0  0  0  0  0  0  0  0  0  0  0
    5.8264  -13.1348   25.7267 C   0  0  0  0  0  0  0  0  0  0  0  0
    5.5630  -11.7982   25.9339 C   0  0  0  0  0  0  0  0  0  0  0  0
    6.5931  -10.9378   26.1925 C   0  0  0  0  0  0  0  0  0  0  0  0
    7.8888  -11.4130   26.2442 C   0  0  0  0  0  0  0  0  0  0  0  0
    8.1713  -12.7455   26.0397 C   0  0  0  0  0  0  0  0  0  0  0  0
    7.1179  -13.6094   25.7781 C   0  0  0  0  0  0  0  0  0  0  0  0
   10.6713  -15.6024   24.9828 C   0  0  0  0  0  0  0  0  0  0  0  0
   11.1652  -14.9257   25.9217 O   0  0  0  0  0  0  0  0  0  0  0  0
   11.4868  -16.5739   24.3632 N   0  0  0  0  0  0  0  0  0  0  0  0
   12.8465  -16.8193   24.8861 C   0  0  1  0  0  0  0  0  0  0  0  0
   12.7073  -17.9670   25.8476 C   0  0  0  0  0  0  0  0  0  0  0  0
   11.6008  -17.8694   26.8137 C   0  0  0  0  0  0  0  0  0  0  0  0
   10.6038  -18.8151   27.0661 C   0  0  0  0  0  0  0  0  0  0  0  0
    9.7757  -18.3222   27.9939 N   0  0  0  0  0  0  0  0  0  0  0  0
   10.1684  -17.0979   28.3741 C   0  0  0  0  0  0  0  0  0  0  0  0
    9.6824  -16.1823   29.2908 C   0  0  0  0  0  0  0  0  0  0  0  0
   10.3549  -14.9982   29.4497 C   0  0  0  0  0  0  0  0  0  0  0  0
   11.4882  -14.6871   28.7366 C   0  0  0  0  0  0  0  0  0  0  0  0
   11.9669  -15.5965   27.8282 C   0  0  0  0  0  0  0  0  0  0  0  0
   11.3182  -16.7966   27.6401 C   0  0  0  0  0  0  0  0  0  0  0  0
   13.8142  -16.9727   23.8178 C   0  0  0  0  0  0  0  0  0  0  0  0
   13.4352  -17.0296   22.5986 O   0  0  0  0  0  0  0  0  0  0  0  0
   15.1770  -17.0614   24.0209 O   0  0  0  0  0  0  0  0  0  0  0  0
  1  2  1  0
  3  2  1  0
  4  3  1  0
  5  4  1  0
  5  6  1  1
  7  5  1  0
  8  7  2  0
  9  7  1  0
 10 21  1  0
 10  9  1  0
 10 11  1  1
 12 13  2  0
 12 11  1  0
 14 13  1  0
 15 20  2  0
 15 14  1  0
 16 15  1  0
 17 18  1  0
 17 16  2  0
 18 19  2  0
 19 20  1  0
 20 12  1  0
 21 22  2  0
 23 24  1  0
 23 21  1  0
 24 25  1  6
 25 26  1  0
 26 27  2  0
 27 28  1  0
 29 30  2  0
 29 28  1  0
 31 30  1  0
 32 31  2  0
 33 32  1  0
 33 34  2  0
 34 26  1  0
 34 29  1  0
 35 37  1  0
 35 24  1  0
 36 35  2  0
M  END
$$$$
