MWW.pdb
     RDKit          3D

 37 40  0  0  1  0  0  0  0  0999 V2000
   11.5162  -21.3059   15.7795 C   0  0  0  0  0  0  0  0  0  0  0  0
   10.5709  -19.7940   16.1074 S   0  0  0  0  0  0  0  0  0  0  0  0
   10.1512  -19.6966   17.8752 C   0  0  0  0  0  0  0  0  0  0  0  0
    9.4252  -18.3850   18.1370 C   0  0  0  0  0  0  0  0  0  0  0  0
    9.0973  -18.3407   19.6051 C   0  0  2  0  0  0  0  0  0  0  0  0
    7.7838  -18.8240   19.8914 N   0  0  0  0  0  0  0  0  0  0  0  0
    9.3416  -16.9840   20.1850 C   0  0  0  0  0  0  0  0  0  0  0  0
    9.7242  -16.0304   19.4735 O   0  0  0  0  0  0  0  0  0  0  0  0
    9.1526  -16.7088   21.5658 N   0  0  0  0  0  0  0  0  0  0  0  0
    9.3560  -15.3876   22.1575 C   0  0  1  0  0  0  0  0  0  0  0  0
    7.9642  -14.8054   22.2860 C   0  0  0  0  0  0  0  0  0  0  0  0
    7.4920  -14.8944   23.6913 C   0  0  0  0  0  0  0  0  0  0  0  0
    7.0521  -16.0274   24.3397 C   0  0  0  0  0  0  0  0  0  0  0  0
    6.7038  -15.7179   25.6030 N   0  0  0  0  0  0  0  0  0  0  0  0
    6.9076  -14.3898   25.8013 C   0  0  0  0  0  0  0  0  0  0  0  0
    6.7138  -13.5816   26.9005 C   0  0  0  0  0  0  0  0  0  0  0  0
    7.0091  -12.2495   26.8212 C   0  0  0  0  0  0  0  0  0  0  0  0
    7.4989  -11.7233   25.6420 C   0  0  0  0  0  0  0  0  0  0  0  0
    7.6992  -12.5154   24.5332 C   0  0  0  0  0  0  0  0  0  0  0  0
    7.3960  -13.8660   24.6253 C   0  0  0  0  0  0  0  0  0  0  0  0
   10.1362  -15.3899   23.3720 C   0  0  0  0  0  0  0  0  0  0  0  0
   10.5149  -14.3161   23.9078 O   0  0  0  0  0  0  0  0  0  0  0  0
   10.4960  -16.6055   23.9927 N   0  0  0  0  0  0  0  0  0  0  0  0
   11.7361  -16.6715   24.7930 C   0  0  1  0  0  0  0  0  0  0  0  0
   11.3980  -17.5154   25.9908 C   0  0  0  0  0  0  0  0  0  0  0  0
   10.2245  -17.0890   26.7707 C   0  0  0  0  0  0  0  0  0  0  0  0
    8.9948  -17.7422   26.8864 C   0  0  0  0  0  0  0  0  0  0  0  0
    8.1931  -17.0044   27.6627 N   0  0  0  0  0  0  0  0  0  0  0  0
    8.8237  -15.8940   28.0714 C   0  0  0  0  0  0  0  0  0  0  0  0
    8.4580  -14.8326   28.8803 C   0  0  0  0  0  0  0  0  0  0  0  0
    9.3780  -13.8437   29.1149 C   0  0  0  0  0  0  0  0  0  0  0  0
   10.6440  -13.8660   28.5798 C   0  0  0  0  0  0  0  0  0  0  0  0
   11.0032  -14.9190   27.7778 C   0  0  0  0  0  0  0  0  0  0  0  0
   10.1061  -15.9312   27.5184 C   0  0  0  0  0  0  0  0  0  0  0  0
   12.8702  -17.0917   23.9941 C   0  0  0  0  0  0  0  0  0  0  0  0
   14.0540  -17.0581   24.4747 O   0  0  0  0  0  0  0  0  0  0  0  0
   12.7690  -17.5515   22.6962 O   0  0  0  0  0  0  0  0  0  0  0  0
  1  2  1  0
  3  2  1  0
  4  3  1  0
  5  4  1  0
  5  6  1  6
  7  5  1  0
  8  7  2  0
  9  7  1  0
 10 21  1  0
 10  9  1  0
 10 11  1  1
 12 13  2  0
 12 11  1  0
 14 13  1  0
 15 20  2  0
 15 14  1  0
 16 15  1  0
 17 18  1  0
 17 16  2  0
 18 19  2  0
 19 20  1  0
 20 12  1  0
 21 22  2  0
 23 24  1  0
 23 21  1  0
 24 25  1  1
 25 26  1  0
 26 27  2  0
 27 28  1  0
 29 30  2  0
 29 28  1  0
 31 30  1  0
 32 31  2  0
 33 32  1  0
 33 34  2  0
 34 26  1  0
 34 29  1  0
 35 37  1  0
 35 24  1  0
 36 35  2  0
M  END
$$$$
