MWW.pdb
     RDKit          3D

 37 40  0  0  1  0  0  0  0  0999 V2000
   11.6240  -22.9116   15.8964 C   0  0  0  0  0  0  0  0  0  0  0  0
   11.9402  -21.8609   17.3397 S   0  0  0  0  0  0  0  0  0  0  0  0
   10.9334  -20.3488   17.2381 C   0  0  0  0  0  0  0  0  0  0  0  0
   11.1597  -19.5216   18.4953 C   0  0  0  0  0  0  0  0  0  0  0  0
   10.2289  -18.3410   18.4274 C   0  0  2  0  0  0  0  0  0  0  0  0
   10.4111  -17.5627   17.2433 N   0  0  0  0  0  0  0  0  0  0  0  0
   10.2991  -17.5100   19.6689 C   0  0  0  0  0  0  0  0  0  0  0  0
   11.2724  -16.7601   19.8969 O   0  0  0  0  0  0  0  0  0  0  0  0
    9.2700  -17.5287   20.6480 N   0  0  0  0  0  0  0  0  0  0  0  0
    9.3579  -16.8143   21.9204 C   0  0  1  0  0  0  0  0  0  0  0  0
    7.9194  -16.6031   22.3432 C   0  0  0  0  0  0  0  0  0  0  0  0
    7.7329  -15.2324   22.8833 C   0  0  0  0  0  0  0  0  0  0  0  0
    7.8454  -14.0514   22.1831 C   0  0  0  0  0  0  0  0  0  0  0  0
    7.6097  -13.0135   23.0079 N   0  0  0  0  0  0  0  0  0  0  0  0
    7.3414  -13.4926   24.2501 C   0  0  0  0  0  0  0  0  0  0  0  0
    7.0385  -12.8601   25.4364 C   0  0  0  0  0  0  0  0  0  0  0  0
    6.8087  -13.6036   26.5600 C   0  0  0  0  0  0  0  0  0  0  0  0
    6.8815  -14.9814   26.4991 C   0  0  0  0  0  0  0  0  0  0  0  0
    7.1827  -15.6311   25.3225 C   0  0  0  0  0  0  0  0  0  0  0  0
    7.4140  -14.8662   24.1885 C   0  0  0  0  0  0  0  0  0  0  0  0
   10.2016  -17.4485   22.9053 C   0  0  0  0  0  0  0  0  0  0  0  0
   10.3848  -18.6935   22.9049 O   0  0  0  0  0  0  0  0  0  0  0  0
   10.8463  -16.6820   23.8999 N   0  0  0  0  0  0  0  0  0  0  0  0
   11.7083  -17.3582   24.8910 C   0  0  1  0  0  0  0  0  0  0  0  0
   12.1222  -16.2874   25.8622 C   0  0  0  0  0  0  0  0  0  0  0  0
   11.2384  -16.0920   27.0232 C   0  0  0  0  0  0  0  0  0  0  0  0
   10.8871  -17.0325   27.9948 C   0  0  0  0  0  0  0  0  0  0  0  0
   10.0393  -16.4579   28.8555 N   0  0  0  0  0  0  0  0  0  0  0  0
    9.8075  -15.1835   28.5095 C   0  0  0  0  0  0  0  0  0  0  0  0
    9.0402  -14.1710   29.0578 C   0  0  0  0  0  0  0  0  0  0  0  0
    9.0422  -12.9451   28.4438 C   0  0  0  0  0  0  0  0  0  0  0  0
    9.7740  -12.6846   27.3097 C   0  0  0  0  0  0  0  0  0  0  0  0
   10.5330  -13.6905   26.7683 C   0  0  0  0  0  0  0  0  0  0  0  0
   10.5559  -14.9357   27.3562 C   0  0  0  0  0  0  0  0  0  0  0  0
   11.0692  -18.5350   25.4458 C   0  0  0  0  0  0  0  0  0  0  0  0
   11.7519  -19.4086   26.0817 O   0  0  0  0  0  0  0  0  0  0  0  0
    9.7178  -18.7979   25.3419 O   0  0  0  0  0  0  0  0  0  0  0  0
  1  2  1  0
  3  2  1  0
  4  3  1  0
  5  4  1  0
  5  6  1  6
  7  5  1  0
  8  7  2  0
  9  7  1  0
 10 21  1  0
 10  9  1  0
 10 11  1  1
 12 13  2  0
 12 11  1  0
 14 13  1  0
 15 20  2  0
 15 14  1  0
 16 15  1  0
 17 18  1  0
 17 16  2  0
 18 19  2  0
 19 20  1  0
 20 12  1  0
 21 22  2  0
 23 24  1  0
 23 21  1  0
 24 25  1  1
 25 26  1  0
 26 27  2  0
 27 28  1  0
 29 30  2  0
 29 28  1  0
 31 30  1  0
 32 31  2  0
 33 32  1  0
 33 34  2  0
 34 26  1  0
 34 29  1  0
 35 37  1  0
 35 24  1  0
 36 35  2  0
M  END
$$$$
