MWW.pdb
     RDKit          3D

 37 40  0  0  1  0  0  0  0  0999 V2000
    8.7180  -23.7515   26.2988 C   0  0  0  0  0  0  0  0  0  0  0  0
    9.7631  -23.4545   24.8474 S   0  0  0  0  0  0  0  0  0  0  0  0
    8.8012  -22.6122   23.5528 C   0  0  0  0  0  0  0  0  0  0  0  0
    7.5864  -21.9548   24.1917 C   0  0  0  0  0  0  0  0  0  0  0  0
    6.8390  -21.2390   23.0991 C   0  0  2  0  0  0  0  0  0  0  0  0
    6.7641  -22.0001   21.8924 N   0  0  0  0  0  0  0  0  0  0  0  0
    7.3791  -19.8634   22.8697 C   0  0  0  0  0  0  0  0  0  0  0  0
    8.2169  -19.6338   21.9713 O   0  0  0  0  0  0  0  0  0  0  0  0
    6.9712  -18.7523   23.6552 N   0  0  0  0  0  0  0  0  0  0  0  0
    7.5776  -17.4264   23.5485 C   0  0  1  0  0  0  0  0  0  0  0  0
    6.4613  -16.4639   23.8955 C   0  0  0  0  0  0  0  0  0  0  0  0
    6.9011  -15.0611   23.6847 C   0  0  0  0  0  0  0  0  0  0  0  0
    7.4398  -14.5338   22.5317 C   0  0  0  0  0  0  0  0  0  0  0  0
    7.7183  -13.2299   22.7189 N   0  0  0  0  0  0  0  0  0  0  0  0
    7.3700  -12.8845   23.9855 C   0  0  0  0  0  0  0  0  0  0  0  0
    7.4470  -11.6907   24.6695 C   0  0  0  0  0  0  0  0  0  0  0  0
    7.0151  -11.6240   25.9646 C   0  0  0  0  0  0  0  0  0  0  0  0
    6.5055  -12.7516   26.5779 C   0  0  0  0  0  0  0  0  0  0  0  0
    6.4208  -13.9533   25.9103 C   0  0  0  0  0  0  0  0  0  0  0  0
    6.8620  -14.0091   24.5963 C   0  0  0  0  0  0  0  0  0  0  0  0
    8.7917  -17.2608   24.3114 C   0  0  0  0  0  0  0  0  0  0  0  0
    8.7643  -17.1203   25.5617 O   0  0  0  0  0  0  0  0  0  0  0  0
   10.0486  -17.2525   23.6690 N   0  0  0  0  0  0  0  0  0  0  0  0
   11.1548  -16.4648   24.2507 C   0  0  1  0  0  0  0  0  0  0  0  0
   11.5557  -17.1962   25.5019 C   0  0  0  0  0  0  0  0  0  0  0  0
   10.6931  -16.9875   26.6764 C   0  0  0  0  0  0  0  0  0  0  0  0
    9.9056  -17.9354   27.3347 C   0  0  0  0  0  0  0  0  0  0  0  0
    9.2536  -17.3273   28.3321 N   0  0  0  0  0  0  0  0  0  0  0  0
    9.5655  -16.0240   28.3741 C   0  0  0  0  0  0  0  0  0  0  0  0
    9.1886  -14.9794   29.1995 C   0  0  0  0  0  0  0  0  0  0  0  0
    9.7257  -13.7392   28.9692 C   0  0  0  0  0  0  0  0  0  0  0  0
   10.6202  -13.4949   27.9544 C   0  0  0  0  0  0  0  0  0  0  0  0
   10.9912  -14.5323   27.1375 C   0  0  0  0  0  0  0  0  0  0  0  0
   10.4724  -15.7923   27.3370 C   0  0  0  0  0  0  0  0  0  0  0  0
   12.1993  -16.2055   23.2797 C   0  0  0  0  0  0  0  0  0  0  0  0
   13.2255  -15.5123   23.5959 O   0  0  0  0  0  0  0  0  0  0  0  0
   12.1759  -16.6734   21.9809 O   0  0  0  0  0  0  0  0  0  0  0  0
  1  2  1  0
  3  2  1  0
  4  3  1  0
  5  4  1  0
  5  6  1  6
  7  5  1  0
  8  7  2  0
  9  7  1  0
 10 21  1  0
 10  9  1  0
 10 11  1  1
 12 13  2  0
 12 11  1  0
 14 13  1  0
 15 20  2  0
 15 14  1  0
 16 15  1  0
 17 18  1  0
 17 16  2  0
 18 19  2  0
 19 20  1  0
 20 12  1  0
 21 22  2  0
 23 24  1  0
 23 21  1  0
 24 25  1  1
 25 26  1  0
 26 27  2  0
 27 28  1  0
 29 30  2  0
 29 28  1  0
 31 30  1  0
 32 31  2  0
 33 32  1  0
 33 34  2  0
 34 26  1  0
 34 29  1  0
 35 37  1  0
 35 24  1  0
 36 35  2  0
M  END
$$$$
