MWW.pdb
     RDKit          3D

 37 40  0  0  1  0  0  0  0  0999 V2000
    7.6211  -13.7871   13.7082 C   0  0  0  0  0  0  0  0  0  0  0  0
    8.2030  -13.5137   15.4033 S   0  0  0  0  0  0  0  0  0  0  0  0
    9.2719  -14.8919   15.9215 C   0  0  0  0  0  0  0  0  0  0  0  0
    9.7254  -14.6511   17.3542 C   0  0  0  0  0  0  0  0  0  0  0  0
    9.5868  -15.9553   18.0922 C   0  0  2  0  0  0  0  0  0  0  0  0
    8.4904  -16.7412   17.6218 N   0  0  0  0  0  0  0  0  0  0  0  0
    9.5438  -15.7503   19.5730 C   0  0  0  0  0  0  0  0  0  0  0  0
   10.4165  -15.0782   20.1634 O   0  0  0  0  0  0  0  0  0  0  0  0
    8.5156  -16.3044   20.3816 N   0  0  0  0  0  0  0  0  0  0  0  0
    8.4619  -16.1467   21.8339 C   0  0  1  0  0  0  0  0  0  0  0  0
    7.0692  -16.5993   22.2188 C   0  0  0  0  0  0  0  0  0  0  0  0
    6.7594  -16.1962   23.6142 C   0  0  0  0  0  0  0  0  0  0  0  0
    6.4350  -17.0341   24.6583 C   0  0  0  0  0  0  0  0  0  0  0  0
    6.2182  -16.3065   25.7703 N   0  0  0  0  0  0  0  0  0  0  0  0
    6.3952  -14.9925   25.4761 C   0  0  0  0  0  0  0  0  0  0  0  0
    6.2957  -13.8540   26.2461 C   0  0  0  0  0  0  0  0  0  0  0  0
    6.5326  -12.6323   25.6811 C   0  0  0  0  0  0  0  0  0  0  0  0
    6.8694  -12.5470   24.3444 C   0  0  0  0  0  0  0  0  0  0  0  0
    6.9736  -13.6738   23.5591 C   0  0  0  0  0  0  0  0  0  0  0  0
    6.7310  -14.9084   24.1434 C   0  0  0  0  0  0  0  0  0  0  0  0
    9.5377  -16.7943   22.5460 C   0  0  0  0  0  0  0  0  0  0  0  0
    9.9718  -17.9209   22.1910 O   0  0  0  0  0  0  0  0  0  0  0  0
   10.1335  -16.1751   23.6659 N   0  0  0  0  0  0  0  0  0  0  0  0
   11.3507  -16.7663   24.2589 C   0  0  1  0  0  0  0  0  0  0  0  0
   11.7599  -15.8266   25.3592 C   0  0  0  0  0  0  0  0  0  0  0  0
   11.1608  -16.0790   26.6800 C   0  0  0  0  0  0  0  0  0  0  0  0
   10.9206  -17.3153   27.2849 C   0  0  0  0  0  0  0  0  0  0  0  0
   10.3345  -17.1026   28.4685 N   0  0  0  0  0  0  0  0  0  0  0  0
   10.1720  -15.7895   28.6852 C   0  0  0  0  0  0  0  0  0  0  0  0
    9.6457  -15.0536   29.7322 C   0  0  0  0  0  0  0  0  0  0  0  0
    9.6502  -13.6861   29.6358 C   0  0  0  0  0  0  0  0  0  0  0  0
   10.1552  -13.0209   28.5439 C   0  0  0  0  0  0  0  0  0  0  0  0
   10.6754  -13.7532   27.5074 C   0  0  0  0  0  0  0  0  0  0  0  0
   10.6878  -15.1290   27.5674 C   0  0  0  0  0  0  0  0  0  0  0  0
   11.1516  -18.1552   24.6230 C   0  0  0  0  0  0  0  0  0  0  0  0
   12.1468  -18.8997   24.9209 O   0  0  0  0  0  0  0  0  0  0  0  0
    9.9147  -18.7657   24.6815 O   0  0  0  0  0  0  0  0  0  0  0  0
  1  2  1  0
  3  2  1  0
  4  3  1  0
  5  4  1  0
  5  6  1  6
  7  5  1  0
  8  7  2  0
  9  7  1  0
 10 21  1  0
 10  9  1  0
 10 11  1  1
 12 13  2  0
 12 11  1  0
 14 13  1  0
 15 20  2  0
 15 14  1  0
 16 15  1  0
 17 18  1  0
 17 16  2  0
 18 19  2  0
 19 20  1  0
 20 12  1  0
 21 22  2  0
 23 24  1  0
 23 21  1  0
 24 25  1  1
 25 26  1  0
 26 27  2  0
 27 28  1  0
 29 30  2  0
 29 28  1  0
 31 30  1  0
 32 31  2  0
 33 32  1  0
 33 34  2  0
 34 26  1  0
 34 29  1  0
 35 37  1  0
 35 24  1  0
 36 35  2  0
M  END
$$$$
