RHC.pdb
     RDKit          3D

 28 28  0  0  1  0  0  0  0  0999 V2000
    6.9493  -13.8111   14.7804 N   0  0  0  0  0  0  0  0  0  0  0  0
    7.4334  -14.9584   15.4550 C   0  0  0  0  0  0  0  0  0  0  0  0
    7.2083  -16.1340   14.9300 N   0  0  0  0  0  0  0  0  0  0  0  0
    8.1468  -14.9179   16.6600 N   0  0  0  0  0  0  0  0  0  0  0  0
    8.4729  -13.6836   17.3381 C   0  0  0  0  0  0  0  0  0  0  0  0
    7.4626  -13.3714   18.4312 C   0  0  0  0  0  0  0  0  0  0  0  0
    7.6418  -14.0995   19.6963 C   0  0  0  0  0  0  0  0  0  0  0  0
    9.0423  -14.3361   20.1669 C   0  0  2  0  0  0  0  0  0  0  0  0
    9.9550  -14.8270   19.1932 N   0  0  0  0  0  0  0  0  0  0  0  0
    9.0826  -15.1840   21.3855 C   0  0  0  0  0  0  0  0  0  0  0  0
    8.0861  -15.9550   21.6077 O   0  0  0  0  0  0  0  0  0  0  0  0
    7.5990  -16.9904   15.3377 N   0  0  0  0  0  0  0  0  0  0  0  0
   10.1661  -15.1645   22.2979 C   0  0  1  0  0  0  0  0  0  0  0  0
   10.0370  -16.0758   23.4544 C   0  0  0  0  0  0  0  0  0  0  0  0
   11.0877  -17.1060   23.2929 C   0  0  0  0  0  0  0  0  0  0  0  0
   10.8602  -18.1403   22.2803 C   0  0  0  0  0  0  0  0  0  0  0  0
   11.3540  -18.3354   21.0376 N   0  0  0  0  0  0  0  0  0  0  0  0
   10.8425  -19.4805   20.5637 C   0  0  0  0  0  0  0  0  0  0  0  0
   10.0418  -19.9925   21.5022 N   0  0  0  0  0  0  0  0  0  0  0  0
   10.0357  -19.2015   22.5525 C   0  0  0  0  0  0  0  0  0  0  0  0
   10.3623  -15.2229   24.6651 O   0  0  0  0  0  0  0  0  0  0  0  0
   11.3841  -14.5349   24.6336 N   0  0  0  0  0  0  0  0  0  0  0  0
    9.5232  -15.2196   25.7964 C   0  0  1  0  0  0  0  0  0  0  0  0
    9.6149  -14.5322   27.0295 C   0  0  0  0  0  0  0  0  0  0  0  0
    8.5058  -13.6061   27.4789 S   0  0  0  0  0  0  0  0  0  0  0  0
    7.6644  -12.8885   26.0285 C   0  0  0  0  0  0  0  0  0  0  0  0
    9.9417  -15.4941   28.1325 O   0  0  0  0  0  0  0  0  0  0  0  0
    9.8669  -16.6863   27.8886 O   0  0  0  0  0  0  0  0  0  0  0  0
  2  1  1  0
  2  3  2  0
  4  5  1  0
  4  2  1  0
  6  5  1  0
  7  6  1  0
  8  9  1  6
  8  7  1  0
 10 11  2  0
 10  8  1  0
 12 10  1  0
 13 20  1  0
 13 12  1  0
 13 14  1  1
 15 14  1  0
 16 15  2  0
 17 16  1  0
 18 17  1  0
 18 19  2  0
 19 15  1  0
 20 22  1  0
 21 20  2  0
 22 23  1  0
 23 26  1  0
 23 24  1  1
 25 24  1  0
 26 27  2  0
 26 28  1  0
M  END
$$$$
