RHC.pdb
     RDKit          3D

 28 28  0  0  1  0  0  0  0  0999 V2000
   12.9905  -24.5846   18.3633 N   0  0  0  0  0  0  0  0  0  0  0  0
   13.5682  -24.0743   19.5514 C   0  0  0  0  0  0  0  0  0  0  0  0
   14.6936  -24.5897   19.9710 N   0  0  0  0  0  0  0  0  0  0  0  0
   13.0093  -23.0415   20.3154 N   0  0  0  0  0  0  0  0  0  0  0  0
   11.6856  -22.5135   20.0729 C   0  0  0  0  0  0  0  0  0  0  0  0
   11.7081  -21.4438   18.9921 C   0  0  0  0  0  0  0  0  0  0  0  0
   12.4092  -20.1981   19.3379 C   0  0  0  0  0  0  0  0  0  0  0  0
   12.4316  -19.1085   18.3127 C   0  0  2  0  0  0  0  0  0  0  0  0
   13.6697  -18.9040   17.6439 N   0  0  0  0  0  0  0  0  0  0  0  0
   11.9207  -17.8243   18.8565 C   0  0  0  0  0  0  0  0  0  0  0  0
   12.7660  -17.0245   19.3880 O   0  0  0  0  0  0  0  0  0  0  0  0
   15.1615  -24.2468   20.8170 N   0  0  0  0  0  0  0  0  0  0  0  0
   10.5516  -17.4632   18.8123 C   0  0  2  0  0  0  0  0  0  0  0  0
   10.2153  -16.1745   19.4531 C   0  0  0  0  0  0  0  0  0  0  0  0
    8.9753  -15.6959   18.8014 C   0  0  0  0  0  0  0  0  0  0  0  0
    8.4334  -14.4125   19.2558 C   0  0  0  0  0  0  0  0  0  0  0  0
    8.8698  -13.4927   20.1444 N   0  0  0  0  0  0  0  0  0  0  0  0
    8.0044  -12.4686   20.1390 C   0  0  0  0  0  0  0  0  0  0  0  0
    7.0426  -12.7478   19.2554 N   0  0  0  0  0  0  0  0  0  0  0  0
    7.2790  -13.9184   18.7053 C   0  0  0  0  0  0  0  0  0  0  0  0
    9.9129  -16.5209   20.8979 O   0  0  0  0  0  0  0  0  0  0  0  0
    9.3938  -17.6126   21.1373 N   0  0  0  0  0  0  0  0  0  0  0  0
   10.2123  -15.6193   21.9378 C   0  0  2  0  0  0  0  0  0  0  0  0
    9.7986  -15.5770   23.2900 C   0  0  0  0  0  0  0  0  0  0  0  0
    8.3279  -15.5898   23.6459 S   0  0  0  0  0  0  0  0  0  0  0  0
    7.8976  -14.0832   24.5795 C   0  0  0  0  0  0  0  0  0  0  0  0
   10.5142  -16.6311   24.0809 O   0  0  0  0  0  0  0  0  0  0  0  0
   10.2094  -16.7678   25.2534 O   0  0  0  0  0  0  0  0  0  0  0  0
  2  1  1  0
  2  3  2  0
  4  5  1  0
  4  2  1  0
  6  5  1  0
  7  6  1  0
  8  9  1  1
  8  7  1  0
 10 11  2  0
 10  8  1  0
 12 10  1  0
 13 20  1  0
 13 12  1  0
 13 14  1  6
 15 14  1  0
 16 15  2  0
 17 16  1  0
 18 17  1  0
 18 19  2  0
 19 15  1  0
 20 22  1  0
 21 20  2  0
 22 23  1  0
 23 26  1  0
 23 24  1  6
 25 24  1  0
 26 27  2  0
 26 28  1  0
M  END
$$$$
