RHC.pdb
     RDKit          3D

 28 28  0  0  1  0  0  0  0  0999 V2000
   14.1826  -17.1680   12.8827 N   0  0  0  0  0  0  0  0  0  0  0  0
   12.8585  -17.5888   12.6080 C   0  0  0  0  0  0  0  0  0  0  0  0
   12.6340  -18.2762   11.5192 N   0  0  0  0  0  0  0  0  0  0  0  0
   11.7607  -17.3162   13.4345 N   0  0  0  0  0  0  0  0  0  0  0  0
   11.8739  -16.5774   14.6719 C   0  0  0  0  0  0  0  0  0  0  0  0
   12.9309  -17.1843   15.5817 C   0  0  0  0  0  0  0  0  0  0  0  0
   12.8642  -16.7862   16.9958 C   0  0  0  0  0  0  0  0  0  0  0  0
   12.7677  -15.3243   17.2999 C   0  0  2  0  0  0  0  0  0  0  0  0
   13.8801  -14.5292   16.9092 N   0  0  0  0  0  0  0  0  0  0  0  0
   12.4305  -15.0749   18.7246 C   0  0  0  0  0  0  0  0  0  0  0  0
   13.3200  -14.5216   19.4591 O   0  0  0  0  0  0  0  0  0  0  0  0
   11.7044  -18.6502   11.2997 N   0  0  0  0  0  0  0  0  0  0  0  0
   11.1804  -15.4277   19.2899 C   0  0  2  0  0  0  0  0  0  0  0  0
   10.9913  -15.0376   20.7029 C   0  0  0  0  0  0  0  0  0  0  0  0
    9.5293  -14.9691   20.9246 C   0  0  0  0  0  0  0  0  0  0  0  0
    8.7834  -13.9654   20.1610 C   0  0  0  0  0  0  0  0  0  0  0  0
    8.8006  -12.6141   20.1551 N   0  0  0  0  0  0  0  0  0  0  0  0
    7.9428  -12.1931   19.2147 C   0  0  0  0  0  0  0  0  0  0  0  0
    7.4006  -13.2704   18.6408 N   0  0  0  0  0  0  0  0  0  0  0  0
    7.8934  -14.3566   19.1942 C   0  0  0  0  0  0  0  0  0  0  0  0
   11.5604  -16.1894   21.5083 O   0  0  0  0  0  0  0  0  0  0  0  0
   11.3634  -17.3359   21.1017 N   0  0  0  0  0  0  0  0  0  0  0  0
   12.2899  -15.9570   22.6905 C   0  0  1  0  0  0  0  0  0  0  0  0
   12.9251  -16.8453   23.5900 C   0  0  0  0  0  0  0  0  0  0  0  0
   14.1855  -16.4325   24.3185 S   0  0  0  0  0  0  0  0  0  0  0  0
   15.0554  -15.1353   23.3766 C   0  0  0  0  0  0  0  0  0  0  0  0
   11.9294  -17.3796   24.5756 O   0  0  0  0  0  0  0  0  0  0  0  0
   10.8130  -16.8896   24.5792 O   0  0  0  0  0  0  0  0  0  0  0  0
  2  1  1  0
  2  3  2  0
  4  5  1  0
  4  2  1  0
  6  5  1  0
  7  6  1  0
  8  9  1  1
  8  7  1  0
 10 11  2  0
 10  8  1  0
 12 10  1  0
 13 20  1  0
 13 12  1  0
 13 14  1  6
 15 14  1  0
 16 15  2  0
 17 16  1  0
 18 17  1  0
 18 19  2  0
 19 15  1  0
 20 22  1  0
 21 20  2  0
 22 23  1  0
 23 26  1  0
 23 24  1  1
 25 24  1  0
 26 27  2  0
 26 28  1  0
M  END
$$$$
