RHC.pdb
     RDKit          3D

 28 28  0  0  1  0  0  0  0  0999 V2000
    6.9965  -14.6646   15.3434 N   0  0  0  0  0  0  0  0  0  0  0  0
    8.2034  -14.3084   15.9934 C   0  0  0  0  0  0  0  0  0  0  0  0
    9.3047  -14.9209   15.6467 N   0  0  0  0  0  0  0  0  0  0  0  0
    8.2978  -13.3318   16.9934 N   0  0  0  0  0  0  0  0  0  0  0  0
    7.3413  -13.2166   18.0711 C   0  0  0  0  0  0  0  0  0  0  0  0
    8.0151  -13.3735   19.4255 C   0  0  0  0  0  0  0  0  0  0  0  0
    8.3230  -14.7529   19.8320 C   0  0  0  0  0  0  0  0  0  0  0  0
    7.7210  -15.2494   21.1087 C   0  0  2  0  0  0  0  0  0  0  0  0
    7.5443  -14.2813   22.1352 N   0  0  0  0  0  0  0  0  0  0  0  0
    8.4409  -16.4360   21.6372 C   0  0  0  0  0  0  0  0  0  0  0  0
    7.7424  -17.4491   21.9874 O   0  0  0  0  0  0  0  0  0  0  0  0
   10.2097  -14.6815   16.0660 N   0  0  0  0  0  0  0  0  0  0  0  0
    9.8506  -16.4817   21.7696 C   0  0  1  0  0  0  0  0  0  0  0  0
   10.3943  -17.7387   22.3254 C   0  0  0  0  0  0  0  0  0  0  0  0
   11.6466  -18.0143   21.5858 C   0  0  0  0  0  0  0  0  0  0  0  0
   12.3963  -19.2151   21.9641 C   0  0  0  0  0  0  0  0  0  0  0  0
   12.0991  -20.2771   22.7451 N   0  0  0  0  0  0  0  0  0  0  0  0
   13.1387  -21.1229   22.7073 C   0  0  0  0  0  0  0  0  0  0  0  0
   14.0704  -20.5937   21.9098 N   0  0  0  0  0  0  0  0  0  0  0  0
   13.6456  -19.4392   21.4455 C   0  0  0  0  0  0  0  0  0  0  0  0
   10.7323  -17.4168   23.7681 O   0  0  0  0  0  0  0  0  0  0  0  0
   10.9482  -16.2407   24.0658 N   0  0  0  0  0  0  0  0  0  0  0  0
   10.8024  -18.4332   24.7406 C   0  0  1  0  0  0  0  0  0  0  0  0
   10.6828  -18.3923   26.1497 C   0  0  0  0  0  0  0  0  0  0  0  0
    9.4755  -17.7541   26.8017 S   0  0  0  0  0  0  0  0  0  0  0  0
    9.6348  -17.8258   28.6171 C   0  0  0  0  0  0  0  0  0  0  0  0
   10.8978  -19.7603   26.7249 O   0  0  0  0  0  0  0  0  0  0  0  0
   10.1875  -20.6654   26.3214 O   0  0  0  0  0  0  0  0  0  0  0  0
  2  1  1  0
  2  3  2  0
  4  5  1  0
  4  2  1  0
  6  5  1  0
  7  6  1  0
  8  9  1  1
  8  7  1  0
 10 11  2  0
 10  8  1  0
 12 10  1  0
 13 20  1  0
 13 12  1  0
 13 14  1  6
 15 14  1  0
 16 15  2  0
 17 16  1  0
 18 17  1  0
 18 19  2  0
 19 15  1  0
 20 22  1  0
 21 20  2  0
 22 23  1  0
 23 26  1  0
 23 24  1  1
 25 24  1  0
 26 27  2  0
 26 28  1  0
M  END
$$$$
