RHC.pdb
     RDKit          3D

 28 28  0  0  1  0  0  0  0  0999 V2000
   12.0417  -20.4511   16.6142 N   0  0  0  0  0  0  0  0  0  0  0  0
   13.1249  -20.9104   15.8259 C   0  0  0  0  0  0  0  0  0  0  0  0
   13.4565  -22.1729   15.8937 N   0  0  0  0  0  0  0  0  0  0  0  0
   13.8727  -20.0941   14.9674 N   0  0  0  0  0  0  0  0  0  0  0  0
   13.5939  -18.6880   14.7805 C   0  0  0  0  0  0  0  0  0  0  0  0
   12.4183  -18.4794   13.8384 C   0  0  0  0  0  0  0  0  0  0  0  0
   12.1306  -17.0846   13.4717 C   0  0  0  0  0  0  0  0  0  0  0  0
   10.7282  -16.5959   13.6536 C   0  0  2  0  0  0  0  0  0  0  0  0
   10.1244  -15.9901   12.5175 N   0  0  0  0  0  0  0  0  0  0  0  0
   10.5980  -15.7118   14.8398 C   0  0  0  0  0  0  0  0  0  0  0  0
   11.1287  -14.5493   14.7772 O   0  0  0  0  0  0  0  0  0  0  0  0
   14.2965  -22.5354   15.4298 N   0  0  0  0  0  0  0  0  0  0  0  0
    9.9223  -16.1070   16.0205 C   0  0  2  0  0  0  0  0  0  0  0  0
    9.8570  -15.0844   17.0856 C   0  0  0  0  0  0  0  0  0  0  0  0
    8.4302  -14.9640   17.4611 C   0  0  0  0  0  0  0  0  0  0  0  0
    8.1163  -14.1660   18.6493 C   0  0  0  0  0  0  0  0  0  0  0  0
    7.6068  -14.4809   19.8606 N   0  0  0  0  0  0  0  0  0  0  0  0
    7.5734  -13.3626   20.5993 C   0  0  0  0  0  0  0  0  0  0  0  0
    8.0591  -12.3645   19.8564 N   0  0  0  0  0  0  0  0  0  0  0  0
    8.3967  -12.8240   18.6716 C   0  0  0  0  0  0  0  0  0  0  0  0
   10.6263  -15.6790   18.2491 O   0  0  0  0  0  0  0  0  0  0  0  0
   10.4692  -16.8754   18.4988 N   0  0  0  0  0  0  0  0  0  0  0  0
   11.4931  -14.8861   19.0262 C   0  0  1  0  0  0  0  0  0  0  0  0
   12.3892  -15.2217   20.0682 C   0  0  0  0  0  0  0  0  0  0  0  0
   13.5097  -14.2804   20.4531 S   0  0  0  0  0  0  0  0  0  0  0  0
   14.2236  -13.5148   18.9595 C   0  0  0  0  0  0  0  0  0  0  0  0
   11.6257  -15.6196   21.2960 O   0  0  0  0  0  0  0  0  0  0  0  0
   10.4186  -15.4478   21.2961 O   0  0  0  0  0  0  0  0  0  0  0  0
  2  1  1  0
  2  3  2  0
  4  5  1  0
  4  2  1  0
  6  5  1  0
  7  6  1  0
  8  9  1  6
  8  7  1  0
 10 11  2  0
 10  8  1  0
 12 10  1  0
 13 20  1  0
 13 12  1  0
 13 14  1  1
 15 14  1  0
 16 15  2  0
 17 16  1  0
 18 17  1  0
 18 19  2  0
 19 15  1  0
 20 22  1  0
 21 20  2  0
 22 23  1  0
 23 26  1  0
 23 24  1  1
 25 24  1  0
 26 27  2  0
 26 28  1  0
M  END
$$$$
