RHC.pdb
     RDKit          3D

 28 28  0  0  1  0  0  0  0  0999 V2000
    9.3533  -15.9686   14.5461 N   0  0  0  0  0  0  0  0  0  0  0  0
    7.9603  -16.2121   14.6236 C   0  0  0  0  0  0  0  0  0  0  0  0
    7.2655  -16.2266   13.5167 N   0  0  0  0  0  0  0  0  0  0  0  0
    7.2691  -16.4426   15.8202 N   0  0  0  0  0  0  0  0  0  0  0  0
    7.8989  -16.3616   17.1188 C   0  0  0  0  0  0  0  0  0  0  0  0
    8.6282  -15.0388   17.2964 C   0  0  0  0  0  0  0  0  0  0  0  0
    9.2143  -14.8036   18.6245 C   0  0  0  0  0  0  0  0  0  0  0  0
    8.4459  -13.9442   19.5783 C   0  0  2  0  0  0  0  0  0  0  0  0
    8.4260  -12.5520   19.2895 N   0  0  0  0  0  0  0  0  0  0  0  0
    8.8576  -14.1729   20.9868 C   0  0  0  0  0  0  0  0  0  0  0  0
    9.9464  -13.6315   21.3844 O   0  0  0  0  0  0  0  0  0  0  0  0
    6.2725  -16.4838   13.5067 N   0  0  0  0  0  0  0  0  0  0  0  0
    8.1013  -14.9615   21.8885 C   0  0  2  0  0  0  0  0  0  0  0  0
    8.7301  -15.1972   23.2051 C   0  0  0  0  0  0  0  0  0  0  0  0
    7.6258  -15.2636   24.1888 C   0  0  0  0  0  0  0  0  0  0  0  0
    7.1475  -13.9948   24.7440 C   0  0  0  0  0  0  0  0  0  0  0  0
    7.5854  -12.7208   24.6374 N   0  0  0  0  0  0  0  0  0  0  0  0
    6.7375  -11.9334   25.3147 C   0  0  0  0  0  0  0  0  0  0  0  0
    5.7822  -12.7090   25.8341 N   0  0  0  0  0  0  0  0  0  0  0  0
    6.0058  -13.9615   25.5024 C   0  0  0  0  0  0  0  0  0  0  0  0
    9.3759  -16.5645   23.0932 O   0  0  0  0  0  0  0  0  0  0  0  0
    9.3964  -17.1088   21.9878 N   0  0  0  0  0  0  0  0  0  0  0  0
    9.9330  -17.1979   24.2212 C   0  0  1  0  0  0  0  0  0  0  0  0
   11.0948  -17.9907   24.3727 C   0  0  0  0  0  0  0  0  0  0  0  0
   12.4402  -17.4829   23.9017 S   0  0  0  0  0  0  0  0  0  0  0  0
   13.7055  -18.7800   24.1094 C   0  0  0  0  0  0  0  0  0  0  0  0
   11.2091  -18.4720   25.7883 O   0  0  0  0  0  0  0  0  0  0  0  0
   10.4739  -17.9696   26.6212 O   0  0  0  0  0  0  0  0  0  0  0  0
  2  1  1  0
  2  3  2  0
  4  5  1  0
  4  2  1  0
  6  5  1  0
  7  6  1  0
  8  9  1  6
  8  7  1  0
 10 11  2  0
 10  8  1  0
 12 10  1  0
 13 20  1  0
 13 12  1  0
 13 14  1  6
 15 14  1  0
 16 15  2  0
 17 16  1  0
 18 17  1  0
 18 19  2  0
 19 15  1  0
 20 22  1  0
 21 20  2  0
 22 23  1  0
 23 26  1  0
 23 24  1  1
 25 24  1  0
 26 27  2  0
 26 28  1  0
M  END
$$$$
