DMI.pdb
     RDKit          3D

 25 24  0  0  1  0  0  0  0  0999 V2000
    8.1808  -17.5919   20.6453 N   0  0  0  0  0  0  0  0  0  0  0  0
    9.4777  -17.0229   20.8256 C   0  0  1  0  0  0  0  0  0  0  0  0
    9.9341  -16.1952   19.6444 C   0  0  0  0  0  0  0  0  0  0  0  0
   10.1914  -16.9931   18.4391 C   0  0  0  0  0  0  0  0  0  0  0  0
    9.2748  -17.2016   17.6192 O   0  0  0  0  0  0  0  0  0  0  0  0
    9.6297  -16.2283   22.0599 C   0  0  0  0  0  0  0  0  0  0  0  0
   10.6550  -15.5249   22.2577 O   0  0  0  0  0  0  0  0  0  0  0  0
   11.4417  -17.5200   18.1974 O   0  0  0  0  0  0  0  0  0  0  0  0
    6.8116  -11.7045   25.9530 C   0  0  0  0  0  0  0  0  0  0  0  0
    5.7534  -13.0527   25.3942 S   0  0  0  0  0  0  0  0  0  0  0  0
    6.6193  -14.0827   24.1446 C   0  0  0  0  0  0  0  0  0  0  0  0
    7.4709  -15.0467   24.9046 C   0  0  0  0  0  0  0  0  0  0  0  0
    8.7955  -15.3562   24.2877 C   0  0  2  0  0  0  0  0  0  0  0  0
    8.6549  -16.1889   23.1113 N   0  0  0  0  0  0  0  0  0  0  0  0
    9.5579  -16.1401   25.3350 C   0  0  0  0  0  0  0  0  0  0  0  0
    9.9262  -17.3269   25.0579 O   0  0  0  0  0  0  0  0  0  0  0  0
   11.0292  -14.0269   30.6466 C   0  0  0  0  0  0  0  0  0  0  0  0
   10.4676  -14.9447   29.6166 C   0  0  0  0  0  0  0  0  0  0  0  0
   11.3537  -15.3380   28.5102 C   0  0  2  0  0  0  0  0  0  0  0  0
   12.0166  -14.0980   27.9043 C   0  0  0  0  0  0  0  0  0  0  0  0
   10.8404  -16.2248   27.4420 C   0  0  2  0  0  0  0  0  0  0  0  0
    9.8545  -15.5655   26.5952 N   0  0  0  0  0  0  0  0  0  0  0  0
   10.1875  -17.4349   27.9595 C   0  0  0  0  0  0  0  0  0  0  0  0
    8.8040  -17.5545   27.8205 O   0  0  0  0  0  0  0  0  0  0  0  0
   10.7859  -18.3801   28.5273 O   0  0  0  0  0  0  0  0  0  0  0  0
  2  1  1  6
  2  3  1  0
  4  3  1  0
  4  8  1  0
  5  4  2  0
  6  2  1  0
  7  6  2  0
  9 10  1  0
 10 11  1  0
 12 11  1  0
 13 12  1  1
 13 14  1  0
 14  6  1  0
 15 22  1  0
 15 13  1  0
 16 15  2  0
 18 17  1  0
 18 19  1  0
 19 20  1  6
 21 19  1  0
 21 23  1  0
 21 22  1  1
 23 24  1  0
 25 23  2  0
M  END
$$$$
