DMI.pdb
     RDKit          3D

 25 24  0  0  1  0  0  0  0  0999 V2000
    7.5371  -18.8891   21.9210 N   0  0  0  0  0  0  0  0  0  0  0  0
    8.9148  -18.6352   21.6458 C   0  0  1  0  0  0  0  0  0  0  0  0
    9.2753  -18.8227   20.1885 C   0  0  0  0  0  0  0  0  0  0  0  0
    9.4435  -20.2305   19.8069 C   0  0  0  0  0  0  0  0  0  0  0  0
    9.1952  -21.1354   20.6286 O   0  0  0  0  0  0  0  0  0  0  0  0
    9.3941  -17.3139   22.0958 C   0  0  0  0  0  0  0  0  0  0  0  0
   10.5702  -16.9334   21.8569 O   0  0  0  0  0  0  0  0  0  0  0  0
    9.8755  -20.5704   18.5431 O   0  0  0  0  0  0  0  0  0  0  0  0
    6.0111  -12.7632   27.1959 C   0  0  0  0  0  0  0  0  0  0  0  0
    6.4171  -12.8833   25.4437 S   0  0  0  0  0  0  0  0  0  0  0  0
    7.7214  -14.1454   25.1643 C   0  0  0  0  0  0  0  0  0  0  0  0
    7.9604  -14.1907   23.6903 C   0  0  0  0  0  0  0  0  0  0  0  0
    9.0760  -15.0804   23.2489 C   0  0  2  0  0  0  0  0  0  0  0  0
    8.5890  -16.3761   22.8236 N   0  0  0  0  0  0  0  0  0  0  0  0
    9.9454  -15.2789   24.4726 C   0  0  0  0  0  0  0  0  0  0  0  0
   11.0763  -14.6958   24.5162 O   0  0  0  0  0  0  0  0  0  0  0  0
    9.5687  -13.2397   28.9349 C   0  0  0  0  0  0  0  0  0  0  0  0
   10.0699  -14.0087   27.7617 C   0  0  0  0  0  0  0  0  0  0  0  0
   10.0271  -15.4763   27.8504 C   0  0  2  0  0  0  0  0  0  0  0  0
   10.7813  -15.9477   29.0967 C   0  0  0  0  0  0  0  0  0  0  0  0
   10.4085  -16.2915   26.6752 C   0  0  2  0  0  0  0  0  0  0  0  0
    9.5098  -16.0954   25.5449 N   0  0  0  0  0  0  0  0  0  0  0  0
   10.4090  -17.7349   26.9486 C   0  0  0  0  0  0  0  0  0  0  0  0
   11.5336  -18.2959   27.5555 O   0  0  0  0  0  0  0  0  0  0  0  0
    9.4647  -18.5130   26.6716 O   0  0  0  0  0  0  0  0  0  0  0  0
  2  1  1  6
  2  3  1  0
  4  3  1  0
  4  8  1  0
  5  4  2  0
  6  2  1  0
  7  6  2  0
  9 10  1  0
 10 11  1  0
 12 11  1  0
 13 12  1  1
 13 14  1  0
 14  6  1  0
 15 22  1  0
 15 13  1  0
 16 15  2  0
 18 17  1  0
 18 19  1  0
 19 20  1  1
 21 19  1  0
 21 23  1  0
 21 22  1  6
 23 24  1  0
 25 23  2  0
M  END
$$$$
