DMI.pdb
     RDKit          3D

 25 24  0  0  1  0  0  0  0  0999 V2000
    8.7529  -17.4825   20.1999 N   0  0  0  0  0  0  0  0  0  0  0  0
   10.0900  -17.2108   20.6200 C   0  0  1  0  0  0  0  0  0  0  0  0
   10.9721  -16.6971   19.5035 C   0  0  0  0  0  0  0  0  0  0  0  0
   10.8769  -17.4929   18.2733 C   0  0  0  0  0  0  0  0  0  0  0  0
   11.0131  -18.7320   18.3177 O   0  0  0  0  0  0  0  0  0  0  0  0
   10.1935  -16.2990   21.7759 C   0  0  0  0  0  0  0  0  0  0  0  0
   11.3106  -15.8692   22.1664 O   0  0  0  0  0  0  0  0  0  0  0  0
   10.6373  -16.8864   17.0593 O   0  0  0  0  0  0  0  0  0  0  0  0
    5.0445  -13.7133   25.8017 C   0  0  0  0  0  0  0  0  0  0  0  0
    6.3268  -12.5550   25.2882 S   0  0  0  0  0  0  0  0  0  0  0  0
    7.9613  -13.3882   25.2106 C   0  0  0  0  0  0  0  0  0  0  0  0
    7.9097  -14.3178   24.0422 C   0  0  0  0  0  0  0  0  0  0  0  0
    9.1955  -15.0011   23.7095 C   0  0  2  0  0  0  0  0  0  0  0  0
    9.0670  -15.8372   22.5342 N   0  0  0  0  0  0  0  0  0  0  0  0
    9.5000  -15.8928   24.8947 C   0  0  0  0  0  0  0  0  0  0  0  0
    9.5917  -17.1482   24.7036 O   0  0  0  0  0  0  0  0  0  0  0  0
   10.5634  -12.9798   29.3641 C   0  0  0  0  0  0  0  0  0  0  0  0
   11.1153  -13.8865   28.3190 C   0  0  0  0  0  0  0  0  0  0  0  0
   10.7348  -15.3057   28.3896 C   0  0  2  0  0  0  0  0  0  0  0  0
   11.6970  -16.0605   29.3108 C   0  0  0  0  0  0  0  0  0  0  0  0
   10.5114  -16.0660   27.1394 C   0  0  2  0  0  0  0  0  0  0  0  0
    9.6785  -15.3421   26.1875 N   0  0  0  0  0  0  0  0  0  0  0  0
    9.8480  -17.3582   27.3595 C   0  0  0  0  0  0  0  0  0  0  0  0
    8.4529  -17.3978   27.3575 O   0  0  0  0  0  0  0  0  0  0  0  0
   10.4474  -18.4428   27.5550 O   0  0  0  0  0  0  0  0  0  0  0  0
  2  1  1  6
  2  3  1  0
  4  3  1  0
  4  8  1  0
  5  4  2  0
  6  2  1  0
  7  6  2  0
  9 10  1  0
 10 11  1  0
 12 11  1  0
 13 12  1  1
 13 14  1  0
 14  6  1  0
 15 22  1  0
 15 13  1  0
 16 15  2  0
 18 17  1  0
 18 19  1  0
 19 20  1  6
 21 19  1  0
 21 23  1  0
 21 22  1  6
 23 24  1  0
 25 23  2  0
M  END
$$$$
