DMI.pdb
     RDKit          3D

 25 24  0  0  1  0  0  0  0  0999 V2000
   10.4428  -16.3359   19.5317 N   0  0  0  0  0  0  0  0  0  0  0  0
    9.9425  -17.0385   20.6694 C   0  0  1  0  0  0  0  0  0  0  0  0
   10.7784  -18.2439   21.0396 C   0  0  0  0  0  0  0  0  0  0  0  0
   10.7799  -19.2899   20.0094 C   0  0  0  0  0  0  0  0  0  0  0  0
   11.3224  -20.3901   20.2356 O   0  0  0  0  0  0  0  0  0  0  0  0
    9.7469  -16.1997   21.8678 C   0  0  0  0  0  0  0  0  0  0  0  0
   10.5876  -15.3194   22.1890 O   0  0  0  0  0  0  0  0  0  0  0  0
   10.1858  -19.0730   18.7850 O   0  0  0  0  0  0  0  0  0  0  0  0
    7.2854  -12.0912   24.2187 C   0  0  0  0  0  0  0  0  0  0  0  0
    6.0343  -13.0448   25.0990 S   0  0  0  0  0  0  0  0  0  0  0  0
    6.6901  -14.6921   25.5765 C   0  0  0  0  0  0  0  0  0  0  0  0
    6.9732  -15.4222   24.3042 C   0  0  0  0  0  0  0  0  0  0  0  0
    8.4021  -15.4221   23.8694 C   0  0  2  0  0  0  0  0  0  0  0  0
    8.6184  -16.3101   22.7462 N   0  0  0  0  0  0  0  0  0  0  0  0
    9.1861  -15.9526   25.0511 C   0  0  0  0  0  0  0  0  0  0  0  0
    9.5489  -17.1730   25.0416 O   0  0  0  0  0  0  0  0  0  0  0  0
   11.3978  -14.0609   30.5923 C   0  0  0  0  0  0  0  0  0  0  0  0
   11.3336  -15.0562   29.4858 C   0  0  0  0  0  0  0  0  0  0  0  0
   10.6596  -14.6419   28.2457 C   0  0  2  0  0  0  0  0  0  0  0  0
    9.4403  -13.7771   28.5764 C   0  0  0  0  0  0  0  0  0  0  0  0
   10.3126  -15.6584   27.2273 C   0  0  2  0  0  0  0  0  0  0  0  0
    9.5084  -15.1098   26.1428 N   0  0  0  0  0  0  0  0  0  0  0  0
    9.5441  -16.7850   27.7736 C   0  0  0  0  0  0  0  0  0  0  0  0
   10.2388  -17.8253   28.3924 O   0  0  0  0  0  0  0  0  0  0  0  0
    8.2947  -16.8866   27.7229 O   0  0  0  0  0  0  0  0  0  0  0  0
  2  1  1  6
  2  3  1  0
  4  3  1  0
  4  8  1  0
  5  4  2  0
  6  2  1  0
  7  6  2  0
  9 10  1  0
 10 11  1  0
 12 11  1  0
 13 12  1  1
 13 14  1  0
 14  6  1  0
 15 22  1  0
 15 13  1  0
 16 15  2  0
 18 17  1  0
 18 19  1  0
 19 20  1  1
 21 19  1  0
 21 23  1  0
 21 22  1  6
 23 24  1  0
 25 23  2  0
M  END
$$$$
