DMI.pdb
     RDKit          3D

 25 24  0  0  1  0  0  0  0  0999 V2000
    9.4913  -16.0701   19.3598 N   0  0  0  0  0  0  0  0  0  0  0  0
    9.4993  -16.8994   20.5219 C   0  0  1  0  0  0  0  0  0  0  0  0
   10.5755  -17.9621   20.4875 C   0  0  0  0  0  0  0  0  0  0  0  0
   10.2884  -19.0511   19.5454 C   0  0  0  0  0  0  0  0  0  0  0  0
    9.1159  -19.4433   19.3810 O   0  0  0  0  0  0  0  0  0  0  0  0
    9.5888  -16.1624   21.7974 C   0  0  0  0  0  0  0  0  0  0  0  0
   10.5800  -15.4309   22.0570 O   0  0  0  0  0  0  0  0  0  0  0  0
   11.3039  -19.6520   18.8335 O   0  0  0  0  0  0  0  0  0  0  0  0
    5.8886  -11.6207   25.0433 C   0  0  0  0  0  0  0  0  0  0  0  0
    5.6849  -13.2563   25.7734 S   0  0  0  0  0  0  0  0  0  0  0  0
    7.2692  -14.1841   25.7405 C   0  0  0  0  0  0  0  0  0  0  0  0
    7.3189  -14.8942   24.4269 C   0  0  0  0  0  0  0  0  0  0  0  0
    8.6587  -15.4263   24.0363 C   0  0  2  0  0  0  0  0  0  0  0  0
    8.5873  -16.2135   22.8230 N   0  0  0  0  0  0  0  0  0  0  0  0
    9.0794  -16.3384   25.1692 C   0  0  0  0  0  0  0  0  0  0  0  0
    9.0997  -17.5946   24.9630 O   0  0  0  0  0  0  0  0  0  0  0  0
   10.5593  -13.9876   30.1098 C   0  0  0  0  0  0  0  0  0  0  0  0
   10.1528  -15.2488   29.4292 C   0  0  0  0  0  0  0  0  0  0  0  0
   10.9933  -15.7137   28.3151 C   0  0  2  0  0  0  0  0  0  0  0  0
   11.7604  -14.5347   27.7105 C   0  0  0  0  0  0  0  0  0  0  0  0
   10.3963  -16.5457   27.2463 C   0  0  2  0  0  0  0  0  0  0  0  0
    9.4421  -15.8056   26.4305 N   0  0  0  0  0  0  0  0  0  0  0  0
    9.6703  -17.7145   27.7613 C   0  0  0  0  0  0  0  0  0  0  0  0
   10.3935  -18.7064   28.4252 O   0  0  0  0  0  0  0  0  0  0  0  0
    8.4339  -17.8933   27.6456 O   0  0  0  0  0  0  0  0  0  0  0  0
  2  1  1  6
  2  3  1  0
  4  3  1  0
  4  8  1  0
  5  4  2  0
  6  2  1  0
  7  6  2  0
  9 10  1  0
 10 11  1  0
 12 11  1  0
 13 12  1  1
 13 14  1  0
 14  6  1  0
 15 22  1  0
 15 13  1  0
 16 15  2  0
 18 17  1  0
 18 19  1  0
 19 20  1  6
 21 19  1  0
 21 23  1  0
 21 22  1  1
 23 24  1  0
 25 23  2  0
M  END
$$$$
