RIN.pdb
     RDKit          3D

 28 27  0  0  1  0  0  0  0  0999 V2000
    9.9699  -22.5637   14.8403 N   0  0  0  0  0  0  0  0  0  0  0  0
   10.6040  -21.8461   13.7870 C   0  0  0  0  0  0  0  0  0  0  0  0
   10.6557  -22.3361   12.5802 N   0  0  0  0  0  0  0  0  0  0  0  0
   11.2059  -20.5760   13.9912 N   0  0  0  0  0  0  0  0  0  0  0  0
   11.3011  -19.9923   15.3111 C   0  0  0  0  0  0  0  0  0  0  0  0
   10.0010  -19.2743   15.5754 C   0  0  0  0  0  0  0  0  0  0  0  0
    9.9333  -18.6889   16.9751 C   0  0  0  0  0  0  0  0  0  0  0  0
    9.3799  -17.2838   16.8156 C   0  0  2  0  0  0  0  0  0  0  0  0
    9.8445  -16.6778   15.5877 N   0  0  0  0  0  0  0  0  0  0  0  0
    9.7376  -16.3966   17.9485 C   0  0  0  0  0  0  0  0  0  0  0  0
   10.9039  -15.9145   18.0438 O   0  0  0  0  0  0  0  0  0  0  0  0
   11.1003  -21.9005   11.7718 C   0  0  0  0  0  0  0  0  0  0  0  0
    6.0847  -13.0570   20.1348 C   0  0  0  0  0  0  0  0  0  0  0  0
    7.4137  -13.5922   19.7125 C   0  0  2  0  0  0  0  0  0  0  0  0
    8.0148  -14.5801   20.7065 C   0  0  0  0  0  0  0  0  0  0  0  0
    8.3069  -13.8127   21.9545 C   0  0  2  0  0  0  0  0  0  0  0  0
    9.2299  -15.1979   20.0963 N   0  0  0  0  0  0  0  0  0  0  0  0
    8.8231  -16.0421   18.9672 C   0  0  0  0  0  0  0  0  0  0  0  0
   10.0426  -16.0133   21.0428 O   0  0  0  0  0  0  0  0  0  0  0  0
    9.6378  -17.2066   21.2673 N   0  0  0  0  0  0  0  0  0  0  0  0
   14.8024  -16.2317   24.5133 C   0  0  0  0  0  0  0  0  0  0  0  0
   14.2553  -16.9393   23.4070 O   0  0  0  0  0  0  0  0  0  0  0  0
   14.6237  -18.1353   23.2924 C   0  0  0  0  0  0  0  0  0  0  0  0
   13.3417  -16.2089   22.5423 C   0  0  2  0  0  0  0  0  0  0  0  0
   11.9023  -16.5564   22.6122 N   0  0  0  0  0  0  0  0  0  0  0  0
   11.2008  -15.6249   21.7127 C   0  0  0  0  0  0  0  0  0  0  0  0
   11.3587  -16.4320   23.9794 O   0  0  0  0  0  0  0  0  0  0  0  0
   11.4946  -17.5413   24.8398 O   0  0  0  0  0  0  0  0  0  0  0  0
  2  1  1  0
  3  2  2  0
  4  2  1  0
  5  4  1  0
  6  5  1  0
  7  6  1  0
  8  7  1  0
  8  9  1  6
 10 17  1  0
 10  8  1  0
 11 10  2  0
 13 12  1  0
 14 13  1  0
 14 16  1  0
 14 15  1  1
 16 17  1  6
 18 25  1  0
 18 16  1  0
 19 18  2  0
 20 21  1  0
 21 22  2  0
 23 21  1  0
 24 23  1  6
 24 26  1  0
 24 25  1  0
 26 27  1  0
 28 26  2  0
M  END
$$$$
