RIN.pdb
     RDKit          3D

 28 27  0  0  1  0  0  0  0  0999 V2000
    9.3769  -13.1711   18.0002 N   0  0  0  0  0  0  0  0  0  0  0  0
    8.6381  -13.9434   17.0598 C   0  0  0  0  0  0  0  0  0  0  0  0
    8.1442  -13.3953   15.9853 N   0  0  0  0  0  0  0  0  0  0  0  0
    8.4030  -15.3324   17.2390 N   0  0  0  0  0  0  0  0  0  0  0  0
    8.8287  -16.0187   18.4388 C   0  0  0  0  0  0  0  0  0  0  0  0
    7.9436  -15.5410   19.5630 C   0  0  0  0  0  0  0  0  0  0  0  0
    8.2018  -16.2830   20.8628 C   0  0  0  0  0  0  0  0  0  0  0  0
    7.1730  -15.7655   21.8525 C   0  0  2  0  0  0  0  0  0  0  0  0
    6.2496  -14.8538   21.2144 N   0  0  0  0  0  0  0  0  0  0  0  0
    7.7908  -15.0808   23.0136 C   0  0  0  0  0  0  0  0  0  0  0  0
    8.8545  -14.4097   22.8725 O   0  0  0  0  0  0  0  0  0  0  0  0
    7.6108  -13.8710   15.2571 C   0  0  0  0  0  0  0  0  0  0  0  0
    5.1589  -11.9429   25.9617 C   0  0  0  0  0  0  0  0  0  0  0  0
    6.2963  -12.6747   25.3279 C   0  0  2  0  0  0  0  0  0  0  0  0
    6.9358  -13.7137   26.2426 C   0  0  0  0  0  0  0  0  0  0  0  0
    7.5487  -12.9666   27.3819 C   0  0  2  0  0  0  0  0  0  0  0  0
    7.9279  -14.5039   25.4541 N   0  0  0  0  0  0  0  0  0  0  0  0
    7.2455  -15.1326   24.3173 C   0  0  0  0  0  0  0  0  0  0  0  0
    8.6334  -15.5568   26.2382 O   0  0  0  0  0  0  0  0  0  0  0  0
    9.3485  -15.1585   27.2221 N   0  0  0  0  0  0  0  0  0  0  0  0
    6.2789  -19.2532   26.3111 C   0  0  0  0  0  0  0  0  0  0  0  0
    7.2690  -19.1117   27.3228 O   0  0  0  0  0  0  0  0  0  0  0  0
    6.8327  -18.9794   28.4939 C   0  0  0  0  0  0  0  0  0  0  0  0
    8.6589  -19.1358   26.8946 C   0  0  2  0  0  0  0  0  0  0  0  0
    9.3921  -17.8477   26.8650 N   0  0  0  0  0  0  0  0  0  0  0  0
    8.6013  -16.9332   26.0241 C   0  0  0  0  0  0  0  0  0  0  0  0
   10.7519  -17.9864   26.3065 O   0  0  0  0  0  0  0  0  0  0  0  0
   11.6882  -18.7383   27.0463 O   0  0  0  0  0  0  0  0  0  0  0  0
  2  1  1  0
  3  2  2  0
  4  2  1  0
  5  4  1  0
  6  5  1  0
  7  6  1  0
  8  7  1  0
  8  9  1  6
 10 17  1  0
 10  8  1  0
 11 10  2  0
 13 12  1  0
 14 13  1  0
 14 16  1  0
 14 15  1  1
 16 17  1  6
 18 25  1  0
 18 16  1  0
 19 18  2  0
 20 21  1  0
 21 22  2  0
 23 21  1  0
 24 23  1  1
 24 26  1  0
 24 25  1  0
 26 27  1  0
 28 26  2  0
M  END
$$$$
