RIN.pdb
     RDKit          3D

 28 27  0  0  1  0  0  0  0  0999 V2000
    6.1700  -20.0060   18.2309 N   0  0  0  0  0  0  0  0  0  0  0  0
    6.2666  -18.9789   17.2499 C   0  0  0  0  0  0  0  0  0  0  0  0
    5.6662  -19.0948   16.0988 N   0  0  0  0  0  0  0  0  0  0  0  0
    7.0115  -17.7898   17.4693 N   0  0  0  0  0  0  0  0  0  0  0  0
    7.8037  -17.6085   18.6658 C   0  0  0  0  0  0  0  0  0  0  0  0
    6.9490  -16.8573   19.6562 C   0  0  0  0  0  0  0  0  0  0  0  0
    7.6468  -16.6523   20.9895 C   0  0  0  0  0  0  0  0  0  0  0  0
    7.6324  -15.1554   21.2444 C   0  0  2  0  0  0  0  0  0  0  0  0
    8.3347  -14.4429   20.2004 N   0  0  0  0  0  0  0  0  0  0  0  0
    8.2298  -14.7925   22.5521 C   0  0  0  0  0  0  0  0  0  0  0  0
    9.4848  -14.6890   22.6787 O   0  0  0  0  0  0  0  0  0  0  0  0
    5.6420  -18.3929   15.3587 C   0  0  0  0  0  0  0  0  0  0  0  0
    5.9127  -11.3942   25.9594 C   0  0  0  0  0  0  0  0  0  0  0  0
    6.9703  -12.2021   25.2813 C   0  0  2  0  0  0  0  0  0  0  0  0
    7.1738  -13.5801   25.9016 C   0  0  0  0  0  0  0  0  0  0  0  0
    7.7210  -13.3590   27.2740 C   0  0  2  0  0  0  0  0  0  0  0  0
    8.0856  -14.3733   25.0241 N   0  0  0  0  0  0  0  0  0  0  0  0
    7.4563  -14.5457   23.7099 C   0  0  0  0  0  0  0  0  0  0  0  0
    8.4458  -15.7132   25.5683 O   0  0  0  0  0  0  0  0  0  0  0  0
    7.4961  -16.5646   25.6748 N   0  0  0  0  0  0  0  0  0  0  0  0
   12.6129  -19.8724   25.4881 C   0  0  0  0  0  0  0  0  0  0  0  0
   11.2993  -19.5208   25.9061 O   0  0  0  0  0  0  0  0  0  0  0  0
   10.6796  -20.4054   26.5486 C   0  0  0  0  0  0  0  0  0  0  0  0
   10.8255  -18.1931   25.5478 C   0  0  2  0  0  0  0  0  0  0  0  0
    9.9030  -17.5146   26.4893 N   0  0  0  0  0  0  0  0  0  0  0  0
    9.7055  -16.1493   25.9736 C   0  0  0  0  0  0  0  0  0  0  0  0
   10.4434  -17.4544   27.8621 O   0  0  0  0  0  0  0  0  0  0  0  0
   10.4210  -18.6403   28.6253 O   0  0  0  0  0  0  0  0  0  0  0  0
  2  1  1  0
  3  2  2  0
  4  2  1  0
  5  4  1  0
  6  5  1  0
  7  6  1  0
  8  7  1  0
  8  9  1  6
 10 17  1  0
 10  8  1  0
 11 10  2  0
 13 12  1  0
 14 13  1  0
 14 16  1  0
 14 15  1  6
 16 17  1  6
 18 25  1  0
 18 16  1  0
 19 18  2  0
 20 21  1  0
 21 22  2  0
 23 21  1  0
 24 23  1  6
 24 26  1  0
 24 25  1  0
 26 27  1  0
 28 26  2  0
M  END
$$$$
