RIN.pdb
     RDKit          3D

 28 27  0  0  1  0  0  0  0  0999 V2000
    7.1432  -18.4089   17.9839 N   0  0  0  0  0  0  0  0  0  0  0  0
    7.2827  -17.5690   16.8429 C   0  0  0  0  0  0  0  0  0  0  0  0
    7.6704  -18.0556   15.6975 N   0  0  0  0  0  0  0  0  0  0  0  0
    7.0109  -16.1759   16.8904 N   0  0  0  0  0  0  0  0  0  0  0  0
    7.6411  -15.3196   17.8710 C   0  0  0  0  0  0  0  0  0  0  0  0
    6.9246  -15.5392   19.1802 C   0  0  0  0  0  0  0  0  0  0  0  0
    7.8514  -15.4233   20.3777 C   0  0  0  0  0  0  0  0  0  0  0  0
    7.4300  -14.1636   21.1136 C   0  0  2  0  0  0  0  0  0  0  0  0
    7.7649  -12.9801   20.3534 N   0  0  0  0  0  0  0  0  0  0  0  0
    8.0450  -14.0545   22.4584 C   0  0  0  0  0  0  0  0  0  0  0  0
    9.2419  -13.6639   22.5879 O   0  0  0  0  0  0  0  0  0  0  0  0
    7.8464  -17.5229   14.8453 C   0  0  0  0  0  0  0  0  0  0  0  0
    5.8174  -11.5954   26.4371 C   0  0  0  0  0  0  0  0  0  0  0  0
    6.8486  -12.2619   25.5866 C   0  0  2  0  0  0  0  0  0  0  0  0
    7.0918  -13.7209   25.9574 C   0  0  0  0  0  0  0  0  0  0  0  0
    7.6392  -13.7274   27.3474 C   0  0  2  0  0  0  0  0  0  0  0  0
    8.0204  -14.3241   24.9552 N   0  0  0  0  0  0  0  0  0  0  0  0
    7.3522  -14.3713   23.6498 C   0  0  0  0  0  0  0  0  0  0  0  0
    8.4946  -15.6926   25.3065 O   0  0  0  0  0  0  0  0  0  0  0  0
    7.6073  -16.6138   25.3541 N   0  0  0  0  0  0  0  0  0  0  0  0
   12.3925  -16.7244   23.4147 C   0  0  0  0  0  0  0  0  0  0  0  0
   11.5326  -17.7301   23.9372 O   0  0  0  0  0  0  0  0  0  0  0  0
   10.9594  -18.4514   23.0824 C   0  0  0  0  0  0  0  0  0  0  0  0
   11.4139  -17.8108   25.3847 C   0  0  2  0  0  0  0  0  0  0  0  0
   10.1024  -17.4726   25.9873 N   0  0  0  0  0  0  0  0  0  0  0  0
    9.8009  -16.0876   25.5875 C   0  0  0  0  0  0  0  0  0  0  0  0
   10.1169  -17.5731   27.4604 O   0  0  0  0  0  0  0  0  0  0  0  0
   10.2598  -18.8573   28.0260 O   0  0  0  0  0  0  0  0  0  0  0  0
  2  1  1  0
  3  2  2  0
  4  2  1  0
  5  4  1  0
  6  5  1  0
  7  6  1  0
  8  7  1  0
  8  9  1  6
 10 17  1  0
 10  8  1  0
 11 10  2  0
 13 12  1  0
 14 13  1  0
 14 16  1  0
 14 15  1  6
 16 17  1  6
 18 25  1  0
 18 16  1  0
 19 18  2  0
 20 21  1  0
 21 22  2  0
 23 21  1  0
 24 23  1  6
 24 26  1  0
 24 25  1  0
 26 27  1  0
 28 26  2  0
M  END
$$$$
