RIN.pdb
     RDKit          3D

 28 27  0  0  1  0  0  0  0  0999 V2000
    8.0188  -12.1400   17.9415 N   0  0  0  0  0  0  0  0  0  0  0  0
    8.0707  -13.4254   17.3317 C   0  0  0  0  0  0  0  0  0  0  0  0
    8.3528  -13.5541   16.0656 N   0  0  0  0  0  0  0  0  0  0  0  0
    7.8217  -14.6193   18.0592 N   0  0  0  0  0  0  0  0  0  0  0  0
    6.7268  -14.7125   18.9997 C   0  0  0  0  0  0  0  0  0  0  0  0
    7.0062  -15.8957   19.8927 C   0  0  0  0  0  0  0  0  0  0  0  0
    8.1588  -15.6439   20.8492 C   0  0  0  0  0  0  0  0  0  0  0  0
    7.8255  -16.4090   22.1178 C   0  0  2  0  0  0  0  0  0  0  0  0
    6.3976  -16.4473   22.3426 N   0  0  0  0  0  0  0  0  0  0  0  0
    8.4806  -15.8372   23.3189 C   0  0  0  0  0  0  0  0  0  0  0  0
    9.7298  -15.6347   23.3345 O   0  0  0  0  0  0  0  0  0  0  0  0
    8.4365  -14.4325   15.5534 C   0  0  0  0  0  0  0  0  0  0  0  0
    6.0943  -12.0775   25.9790 C   0  0  0  0  0  0  0  0  0  0  0  0
    7.2379  -12.9074   25.4947 C   0  0  2  0  0  0  0  0  0  0  0  0
    7.5880  -14.0627   26.4263 C   0  0  0  0  0  0  0  0  0  0  0  0
    8.2404  -13.4643   27.6296 C   0  0  2  0  0  0  0  0  0  0  0  0
    8.4681  -15.0219   25.6943 N   0  0  0  0  0  0  0  0  0  0  0  0
    7.7705  -15.4909   24.4917 C   0  0  0  0  0  0  0  0  0  0  0  0
    8.8907  -16.2020   26.5005 O   0  0  0  0  0  0  0  0  0  0  0  0
    7.9593  -16.9653   26.9339 N   0  0  0  0  0  0  0  0  0  0  0  0
   13.7991  -17.9859   27.3361 C   0  0  0  0  0  0  0  0  0  0  0  0
   12.6577  -17.9134   26.4901 O   0  0  0  0  0  0  0  0  0  0  0  0
   12.8161  -17.2753   25.4191 C   0  0  0  0  0  0  0  0  0  0  0  0
   11.4493  -18.5778   26.9529 C   0  0  1  0  0  0  0  0  0  0  0  0
   10.4463  -17.7578   27.6736 N   0  0  0  0  0  0  0  0  0  0  0  0
   10.1909  -16.5739   26.8357 C   0  0  0  0  0  0  0  0  0  0  0  0
   10.9197  -17.3316   29.0057 O   0  0  0  0  0  0  0  0  0  0  0  0
   11.2297  -18.3399   29.9420 O   0  0  0  0  0  0  0  0  0  0  0  0
  2  1  1  0
  3  2  2  0
  4  2  1  0
  5  4  1  0
  6  5  1  0
  7  6  1  0
  8  7  1  0
  8  9  1  1
 10 17  1  0
 10  8  1  0
 11 10  2  0
 13 12  1  0
 14 13  1  0
 14 16  1  0
 14 15  1  1
 16 17  1  6
 18 25  1  0
 18 16  1  0
 19 18  2  0
 20 21  1  0
 21 22  2  0
 23 21  1  0
 24 23  1  6
 24 26  1  0
 24 25  1  0
 26 27  1  0
 28 26  2  0
M  END
$$$$
