TMN.pdb
     RDKit          3D

 24 23  0  0  1  0  0  0  0  0999 V2000
   18.6367  -10.7830  -21.6642 C   0  0  0  0  0  0  0  0  0  0  0  0
   19.5121  -10.3291  -20.5239 C   0  0  1  0  0  0  0  0  0  0  0  0
   18.7697   -9.8588  -19.4734 O   0  0  0  0  0  0  0  0  0  0  0  0
   20.4800  -11.3984  -20.0864 C   0  0  2  0  0  0  0  0  0  0  0  0
   19.7473  -12.5731  -19.6300 N   0  0  0  0  0  0  0  0  0  0  0  0
   21.3180  -10.9748  -18.9349 C   0  0  0  0  0  0  0  0  0  0  0  0
   21.0716  -11.2870  -17.7388 O   0  0  0  0  0  0  0  0  0  0  0  0
   27.2843  -10.3588  -14.7060 C   0  0  0  0  0  0  0  0  0  0  0  0
   26.1872  -10.7984  -16.0074 S   0  0  0  0  0  0  0  0  0  0  0  0
   25.8801   -9.6753  -17.3201 C   0  0  0  0  0  0  0  0  0  0  0  0
   24.8399   -9.8944  -18.3106 C   0  0  0  0  0  0  0  0  0  0  0  0
   23.3971   -9.8240  -18.0726 C   0  0  2  0  0  0  0  0  0  0  0  0
   22.4895  -10.1632  -19.1240 N   0  0  0  0  0  0  0  0  0  0  0  0
   22.9641   -8.5987  -17.3346 C   0  0  0  0  0  0  0  0  0  0  0  0
   23.6495   -8.1581  -16.3583 O   0  0  0  0  0  0  0  0  0  0  0  0
   22.1582   -5.1660  -13.8231 N   0  0  0  0  0  0  0  0  0  0  0  0
   21.1195   -5.8388  -14.5428 C   0  0  0  0  0  0  0  0  0  0  0  0
   19.9629   -5.4264  -14.3781 O   0  0  0  0  0  0  0  0  0  0  0  0
   21.5001   -6.9611  -15.4174 C   0  0  0  0  0  0  0  0  0  0  0  0
   21.3540   -6.6825  -16.8961 C   0  0  2  0  0  0  0  0  0  0  0  0
   21.8036   -7.8665  -17.6567 N   0  0  0  0  0  0  0  0  0  0  0  0
   22.2852   -5.6112  -17.2778 C   0  0  0  0  0  0  0  0  0  0  0  0
   21.8529   -4.5523  -18.0411 O   0  0  0  0  0  0  0  0  0  0  0  0
   23.4750   -5.6378  -16.9225 O   0  0  0  0  0  0  0  0  0  0  0  0
  2  1  1  6
  2  3  1  0
  4  2  1  0
  4  5  1  1
  6  4  1  0
  7  6  2  0
  8  9  1  0
  9 10  1  0
 11 10  1  0
 12 11  1  6
 12 13  1  0
 13  6  1  0
 14 12  1  0
 14 15  2  0
 16 17  1  0
 17 19  1  0
 18 17  2  0
 20 19  1  1
 20 21  1  0
 21 14  1  0
 22 20  1  0
 23 22  1  0
 24 22  2  0
M  END
$$$$
