TMN.pdb
     RDKit          3D

 24 23  0  0  1  0  0  0  0  0999 V2000
   27.6927   -9.9953  -19.4716 C   0  0  0  0  0  0  0  0  0  0  0  0
   27.2097  -10.7854  -18.2819 C   0  0  1  0  0  0  0  0  0  0  0  0
   25.9692  -11.3228  -18.5024 O   0  0  0  0  0  0  0  0  0  0  0  0
   28.2023  -11.8351  -17.8525 C   0  0  2  0  0  0  0  0  0  0  0  0
   27.6633  -12.5984  -16.7336 N   0  0  0  0  0  0  0  0  0  0  0  0
   29.4774  -11.2501  -17.3629 C   0  0  0  0  0  0  0  0  0  0  0  0
   29.6265  -10.7657  -16.2088 O   0  0  0  0  0  0  0  0  0  0  0  0
   32.9151  -15.2835  -19.1196 C   0  0  0  0  0  0  0  0  0  0  0  0
   32.5865  -14.0235  -17.9383 S   0  0  0  0  0  0  0  0  0  0  0  0
   33.6128  -12.6029  -17.8547 C   0  0  0  0  0  0  0  0  0  0  0  0
   33.1458  -11.2771  -18.2228 C   0  0  0  0  0  0  0  0  0  0  0  0
   31.8974  -10.6519  -17.7824 C   0  0  2  0  0  0  0  0  0  0  0  0
   30.6454  -11.2021  -18.1996 N   0  0  0  0  0  0  0  0  0  0  0  0
   31.9063   -9.1596  -17.8625 C   0  0  0  0  0  0  0  0  0  0  0  0
   31.5314   -8.5687  -18.9243 O   0  0  0  0  0  0  0  0  0  0  0  0
   32.8835   -4.1924  -14.2096 N   0  0  0  0  0  0  0  0  0  0  0  0
   32.3437   -4.8296  -15.3723 C   0  0  0  0  0  0  0  0  0  0  0  0
   31.8272   -4.0964  -16.2270 O   0  0  0  0  0  0  0  0  0  0  0  0
   32.4416   -6.2963  -15.4648 C   0  0  0  0  0  0  0  0  0  0  0  0
   32.2542   -6.8515  -16.8584 C   0  0  2  0  0  0  0  0  0  0  0  0
   32.3166   -8.3265  -16.8023 N   0  0  0  0  0  0  0  0  0  0  0  0
   33.3984   -6.4555  -17.6918 C   0  0  0  0  0  0  0  0  0  0  0  0
   33.2738   -5.4364  -18.6064 O   0  0  0  0  0  0  0  0  0  0  0  0
   34.4958   -7.0282  -17.5897 O   0  0  0  0  0  0  0  0  0  0  0  0
  2  1  1  6
  2  3  1  0
  4  2  1  0
  4  5  1  1
  6  4  1  0
  7  6  2  0
  8  9  1  0
  9 10  1  0
 11 10  1  0
 12 11  1  6
 12 13  1  0
 13  6  1  0
 14 12  1  0
 14 15  2  0
 16 17  1  0
 17 19  1  0
 18 17  2  0
 20 19  1  1
 20 21  1  0
 21 14  1  0
 22 20  1  0
 23 22  1  0
 24 22  2  0
M  END
$$$$
