TMN.pdb
     RDKit          3D

 24 23  0  0  1  0  0  0  0  0999 V2000
   27.0591  -17.6329  -14.0344 C   0  0  0  0  0  0  0  0  0  0  0  0
   27.2798  -18.7591  -15.0121 C   0  0  1  0  0  0  0  0  0  0  0  0
   27.9081  -18.3252  -16.1491 O   0  0  0  0  0  0  0  0  0  0  0  0
   28.0030  -19.9243  -14.3869 C   0  0  2  0  0  0  0  0  0  0  0  0
   28.3917  -20.8776  -15.4190 N   0  0  0  0  0  0  0  0  0  0  0  0
   27.1492  -20.6849  -13.4381 C   0  0  0  0  0  0  0  0  0  0  0  0
   27.3699  -21.8798  -13.1029 O   0  0  0  0  0  0  0  0  0  0  0  0
   26.6957  -20.3545   -5.9937 C   0  0  0  0  0  0  0  0  0  0  0  0
   27.1127  -19.9225   -7.6461 S   0  0  0  0  0  0  0  0  0  0  0  0
   26.0713  -20.4039   -8.9737 C   0  0  0  0  0  0  0  0  0  0  0  0
   26.3622  -20.0699  -10.3575 C   0  0  0  0  0  0  0  0  0  0  0  0
   25.5317  -20.4041  -11.5158 C   0  0  2  0  0  0  0  0  0  0  0  0
   25.9919  -20.0855  -12.8316 N   0  0  0  0  0  0  0  0  0  0  0  0
   24.0839  -20.0799  -11.3367 C   0  0  0  0  0  0  0  0  0  0  0  0
   23.4687  -20.4372  -10.2827 O   0  0  0  0  0  0  0  0  0  0  0  0
   21.1018  -20.9594  -15.4044 N   0  0  0  0  0  0  0  0  0  0  0  0
   22.0469  -21.8185  -14.7578 C   0  0  0  0  0  0  0  0  0  0  0  0
   22.3348  -22.8752  -15.3372 O   0  0  0  0  0  0  0  0  0  0  0  0
   22.6015  -21.3861  -13.4637 C   0  0  0  0  0  0  0  0  0  0  0  0
   22.2076  -19.9870  -13.0478 C   0  0  2  0  0  0  0  0  0  0  0  0
   23.3205  -19.3776  -12.2911 N   0  0  0  0  0  0  0  0  0  0  0  0
   21.0961  -20.0653  -12.0892 C   0  0  0  0  0  0  0  0  0  0  0  0
   21.1655  -20.9153  -11.0106 O   0  0  0  0  0  0  0  0  0  0  0  0
   20.0762  -19.3706  -12.2305 O   0  0  0  0  0  0  0  0  0  0  0  0
  2  1  1  1
  2  3  1  0
  4  2  1  0
  4  5  1  6
  6  4  1  0
  7  6  2  0
  8  9  1  0
  9 10  1  0
 11 10  1  0
 12 11  1  1
 12 13  1  0
 13  6  1  0
 14 12  1  0
 14 15  2  0
 16 17  1  0
 17 19  1  0
 18 17  2  0
 20 19  1  1
 20 21  1  0
 21 14  1  0
 22 20  1  0
 23 22  1  0
 24 22  2  0
M  END
$$$$
