TMN.pdb
     RDKit          3D

 24 23  0  0  1  0  0  0  0  0999 V2000
   18.7301  -24.4412  -10.7790 C   0  0  0  0  0  0  0  0  0  0  0  0
   19.7609  -23.4072  -11.1548 C   0  0  1  0  0  0  0  0  0  0  0  0
   19.7237  -23.1203  -12.4936 O   0  0  0  0  0  0  0  0  0  0  0  0
   19.6511  -22.1603  -10.3154 C   0  0  2  0  0  0  0  0  0  0  0  0
   18.4639  -21.4070  -10.7001 N   0  0  0  0  0  0  0  0  0  0  0  0
   20.7963  -21.2346  -10.5139 C   0  0  0  0  0  0  0  0  0  0  0  0
   20.7596  -20.2306  -11.2751 O   0  0  0  0  0  0  0  0  0  0  0  0
   26.8718  -19.3113   -6.9205 C   0  0  0  0  0  0  0  0  0  0  0  0
   26.9712  -20.3134   -8.3615 S   0  0  0  0  0  0  0  0  0  0  0  0
   25.6955  -20.2576   -9.5649 C   0  0  0  0  0  0  0  0  0  0  0  0
   24.4926  -21.0670   -9.4686 C   0  0  0  0  0  0  0  0  0  0  0  0
   23.2975  -20.9341  -10.3036 C   0  0  2  0  0  0  0  0  0  0  0  0
   22.0450  -21.4362   -9.8307 N   0  0  0  0  0  0  0  0  0  0  0  0
   23.5245  -21.2654  -11.7431 C   0  0  0  0  0  0  0  0  0  0  0  0
   22.8818  -22.2134  -12.2956 O   0  0  0  0  0  0  0  0  0  0  0  0
   22.6523  -20.8913  -16.2350 N   0  0  0  0  0  0  0  0  0  0  0  0
   22.0921  -19.9481  -15.3153 C   0  0  0  0  0  0  0  0  0  0  0  0
   20.9513  -19.5320  -15.5613 O   0  0  0  0  0  0  0  0  0  0  0  0
   22.9064  -19.5464  -14.1557 C   0  0  0  0  0  0  0  0  0  0  0  0
   24.1996  -20.3138  -14.0004 C   0  0  2  0  0  0  0  0  0  0  0  0
   24.4367  -20.5740  -12.5655 N   0  0  0  0  0  0  0  0  0  0  0  0
   25.3194  -19.4592  -14.4203 C   0  0  0  0  0  0  0  0  0  0  0  0
   25.7711  -19.4917  -15.7186 O   0  0  0  0  0  0  0  0  0  0  0  0
   25.8790  -18.6939  -13.6180 O   0  0  0  0  0  0  0  0  0  0  0  0
  2  1  1  1
  2  3  1  0
  4  2  1  0
  4  5  1  6
  6  4  1  0
  7  6  2  0
  8  9  1  0
  9 10  1  0
 11 10  1  0
 12 11  1  1
 12 13  1  0
 13  6  1  0
 14 12  1  0
 14 15  2  0
 16 17  1  0
 17 19  1  0
 18 17  2  0
 20 19  1  1
 20 21  1  0
 21 14  1  0
 22 20  1  0
 23 22  1  0
 24 22  2  0
M  END
$$$$
