TMN.pdb
     RDKit          3D

 24 23  0  0  1  0  0  0  0  0999 V2000
   19.4358  -19.8893  -11.3614 C   0  0  0  0  0  0  0  0  0  0  0  0
   20.8852  -19.5048  -11.2055 C   0  0  1  0  0  0  0  0  0  0  0  0
   21.0852  -18.7284  -10.0950 O   0  0  0  0  0  0  0  0  0  0  0  0
   21.7984  -20.7038  -11.2178 C   0  0  2  0  0  0  0  0  0  0  0  0
   21.6080  -21.4840  -10.0012 N   0  0  0  0  0  0  0  0  0  0  0  0
   23.2357  -20.3278  -11.2334 C   0  0  0  0  0  0  0  0  0  0  0  0
   23.7709  -19.6498  -12.1514 O   0  0  0  0  0  0  0  0  0  0  0  0
   28.4865  -20.0171   -6.3118 C   0  0  0  0  0  0  0  0  0  0  0  0
   26.8782  -19.3091   -6.3628 S   0  0  0  0  0  0  0  0  0  0  0  0
   25.8918  -19.4623   -7.8058 C   0  0  0  0  0  0  0  0  0  0  0  0
   26.2440  -20.3453   -8.9046 C   0  0  0  0  0  0  0  0  0  0  0  0
   25.5278  -20.4644  -10.1759 C   0  0  2  0  0  0  0  0  0  0  0  0
   24.1221  -20.7258  -10.1739 N   0  0  0  0  0  0  0  0  0  0  0  0
   26.2461  -21.2800  -11.2016 C   0  0  0  0  0  0  0  0  0  0  0  0
   26.3564  -22.5393  -11.0626 O   0  0  0  0  0  0  0  0  0  0  0  0
   26.6556  -22.7322  -16.0957 N   0  0  0  0  0  0  0  0  0  0  0  0
   25.4444  -22.5763  -15.3487 C   0  0  0  0  0  0  0  0  0  0  0  0
   24.4067  -23.0188  -15.8609 O   0  0  0  0  0  0  0  0  0  0  0  0
   25.5215  -21.9074  -14.0388 C   0  0  0  0  0  0  0  0  0  0  0  0
   26.9080  -21.4475  -13.6492 C   0  0  2  0  0  0  0  0  0  0  0  0
   26.8338  -20.7312  -12.3593 N   0  0  0  0  0  0  0  0  0  0  0  0
   27.3700  -20.4408  -14.6154 C   0  0  0  0  0  0  0  0  0  0  0  0
   28.2508  -20.7862  -15.6132 O   0  0  0  0  0  0  0  0  0  0  0  0
   26.9783  -19.2638  -14.5532 O   0  0  0  0  0  0  0  0  0  0  0  0
  2  1  1  1
  2  3  1  0
  4  2  1  0
  4  5  1  1
  6  4  1  0
  7  6  2  0
  8  9  1  0
  9 10  1  0
 11 10  1  0
 12 11  1  1
 12 13  1  0
 13  6  1  0
 14 12  1  0
 14 15  2  0
 16 17  1  0
 17 19  1  0
 18 17  2  0
 20 19  1  6
 20 21  1  0
 21 14  1  0
 22 20  1  0
 23 22  1  0
 24 22  2  0
M  END
$$$$
