TMN.pdb
     RDKit          3D

 24 23  0  0  1  0  0  0  0  0999 V2000
   20.1879  -10.6385  -20.1391 C   0  0  0  0  0  0  0  0  0  0  0  0
   20.3633  -12.0362  -19.6019 C   0  0  1  0  0  0  0  0  0  0  0  0
   19.9809  -12.9807  -20.5171 O   0  0  0  0  0  0  0  0  0  0  0  0
   21.7625  -12.2832  -19.0991 C   0  0  2  0  0  0  0  0  0  0  0  0
   21.8792  -13.6518  -18.6111 N   0  0  0  0  0  0  0  0  0  0  0  0
   22.1180  -11.4141  -17.9476 C   0  0  0  0  0  0  0  0  0  0  0  0
   21.6491  -11.5647  -16.7873 O   0  0  0  0  0  0  0  0  0  0  0  0
   27.9523  -11.9861  -14.8310 C   0  0  0  0  0  0  0  0  0  0  0  0
   27.1643  -10.5488  -15.4663 S   0  0  0  0  0  0  0  0  0  0  0  0
   25.5041  -10.6281  -16.0287 C   0  0  0  0  0  0  0  0  0  0  0  0
   24.7884   -9.4640  -16.5224 C   0  0  0  0  0  0  0  0  0  0  0  0
   23.4137   -9.4490  -17.0255 C   0  0  2  0  0  0  0  0  0  0  0  0
   23.0423  -10.3229  -18.0946 N   0  0  0  0  0  0  0  0  0  0  0  0
   22.8489   -8.0769  -17.2039 C   0  0  0  0  0  0  0  0  0  0  0  0
   23.0732   -7.4208  -18.2699 O   0  0  0  0  0  0  0  0  0  0  0  0
   20.1350   -3.6582  -16.4914 N   0  0  0  0  0  0  0  0  0  0  0  0
   19.3283   -4.8159  -16.2498 C   0  0  0  0  0  0  0  0  0  0  0  0
   18.1116   -4.6332  -16.1041 O   0  0  0  0  0  0  0  0  0  0  0  0
   19.9989   -6.1260  -16.1931 C   0  0  0  0  0  0  0  0  0  0  0  0
   21.4931   -6.0769  -16.4177 C   0  0  2  0  0  0  0  0  0  0  0  0
   22.0529   -7.4319  -16.2359 N   0  0  0  0  0  0  0  0  0  0  0  0
   22.1121   -5.2663  -15.3593 C   0  0  0  0  0  0  0  0  0  0  0  0
   21.8877   -3.9110  -15.2992 O   0  0  0  0  0  0  0  0  0  0  0  0
   22.8466   -5.7831  -14.5014 O   0  0  0  0  0  0  0  0  0  0  0  0
  2  1  1  6
  2  3  1  0
  4  2  1  0
  4  5  1  1
  6  4  1  0
  7  6  2  0
  8  9  1  0
  9 10  1  0
 11 10  1  0
 12 11  1  6
 12 13  1  0
 13  6  1  0
 14 12  1  0
 14 15  2  0
 16 17  1  0
 17 19  1  0
 18 17  2  0
 20 19  1  1
 20 21  1  0
 21 14  1  0
 22 20  1  0
 23 22  1  0
 24 22  2  0
M  END
$$$$
