TMN.pdb
     RDKit          3D

 24 23  0  0  1  0  0  0  0  0999 V2000
   27.0956  -18.8972  -14.8358 C   0  0  0  0  0  0  0  0  0  0  0  0
   27.4148  -20.1902  -15.5424 C   0  0  1  0  0  0  0  0  0  0  0  0
   28.5511  -20.0847  -16.2998 O   0  0  0  0  0  0  0  0  0  0  0  0
   27.4861  -21.3577  -14.5919 C   0  0  2  0  0  0  0  0  0  0  0  0
   27.6349  -22.5988  -15.3420 N   0  0  0  0  0  0  0  0  0  0  0  0
   26.2456  -21.5189  -13.7902 C   0  0  0  0  0  0  0  0  0  0  0  0
   25.2795  -22.2506  -14.1367 O   0  0  0  0  0  0  0  0  0  0  0  0
   27.8579  -20.1853   -7.1780 C   0  0  0  0  0  0  0  0  0  0  0  0
   26.5800  -19.6943   -8.2810 S   0  0  0  0  0  0  0  0  0  0  0  0
   25.9063  -20.8466   -9.4200 C   0  0  0  0  0  0  0  0  0  0  0  0
   24.8688  -20.4902  -10.3727 C   0  0  0  0  0  0  0  0  0  0  0  0
   24.8511  -20.8373  -11.7948 C   0  0  2  0  0  0  0  0  0  0  0  0
   26.0716  -20.8316  -12.5396 N   0  0  0  0  0  0  0  0  0  0  0  0
   23.7287  -20.2108  -12.5572 C   0  0  0  0  0  0  0  0  0  0  0  0
   23.9388  -19.2003  -13.3001 O   0  0  0  0  0  0  0  0  0  0  0  0
   20.4183  -19.2410  -16.2728 N   0  0  0  0  0  0  0  0  0  0  0  0
   20.7361  -20.5856  -15.8978 C   0  0  0  0  0  0  0  0  0  0  0  0
   20.1256  -21.4918  -16.4820 O   0  0  0  0  0  0  0  0  0  0  0  0
   21.7560  -20.7895  -14.8550 C   0  0  0  0  0  0  0  0  0  0  0  0
   21.3645  -20.2817  -13.4859 C   0  0  2  0  0  0  0  0  0  0  0  0
   22.4000  -20.6790  -12.5100 N   0  0  0  0  0  0  0  0  0  0  0  0
   20.1447  -20.9742  -13.0468 C   0  0  0  0  0  0  0  0  0  0  0  0
   20.1990  -21.9084  -12.0393 O   0  0  0  0  0  0  0  0  0  0  0  0
   19.0452  -20.7333  -13.5718 O   0  0  0  0  0  0  0  0  0  0  0  0
  2  1  1  1
  2  3  1  0
  4  2  1  0
  4  5  1  6
  6  4  1  0
  7  6  2  0
  8  9  1  0
  9 10  1  0
 11 10  1  0
 12 11  1  1
 12 13  1  0
 13  6  1  0
 14 12  1  0
 14 15  2  0
 16 17  1  0
 17 19  1  0
 18 17  2  0
 20 19  1  6
 20 21  1  0
 21 14  1  0
 22 20  1  0
 23 22  1  0
 24 22  2  0
M  END
$$$$
