TMN.pdb
     RDKit          3D

 24 23  0  0  1  0  0  0  0  0999 V2000
   28.7623  -19.1900  -16.3162 C   0  0  0  0  0  0  0  0  0  0  0  0
   27.6522  -19.6401  -15.4008 C   0  0  1  0  0  0  0  0  0  0  0  0
   26.4215  -19.4671  -15.9765 O   0  0  0  0  0  0  0  0  0  0  0  0
   27.8473  -21.0549  -14.9194 C   0  0  2  0  0  0  0  0  0  0  0  0
   27.6317  -21.9867  -16.0195 N   0  0  0  0  0  0  0  0  0  0  0  0
   26.8708  -21.4411  -13.8682 C   0  0  0  0  0  0  0  0  0  0  0  0
   25.8617  -22.1651  -14.0837 O   0  0  0  0  0  0  0  0  0  0  0  0
   27.3780  -20.4408   -6.8377 C   0  0  0  0  0  0  0  0  0  0  0  0
   25.7313  -20.2353   -7.4181 S   0  0  0  0  0  0  0  0  0  0  0  0
   25.3048  -20.7152   -9.0511 C   0  0  0  0  0  0  0  0  0  0  0  0
   26.2600  -20.7007  -10.1459 C   0  0  0  0  0  0  0  0  0  0  0  0
   25.9681  -21.0128  -11.5461 C   0  0  2  0  0  0  0  0  0  0  0  0
   27.0252  -20.9998  -12.5088 N   0  0  0  0  0  0  0  0  0  0  0  0
   24.7300  -20.3578  -12.0672 C   0  0  0  0  0  0  0  0  0  0  0  0
   24.7422  -19.1316  -12.4042 O   0  0  0  0  0  0  0  0  0  0  0  0
   20.8547  -20.1078  -16.0974 N   0  0  0  0  0  0  0  0  0  0  0  0
   20.7553  -20.6797  -14.7887 C   0  0  0  0  0  0  0  0  0  0  0  0
   19.6216  -20.7640  -14.2963 O   0  0  0  0  0  0  0  0  0  0  0  0
   21.9972  -21.1213  -14.1314 C   0  0  0  0  0  0  0  0  0  0  0  0
   22.3080  -20.4103  -12.8339 C   0  0  2  0  0  0  0  0  0  0  0  0
   23.5000  -21.0292  -12.2184 N   0  0  0  0  0  0  0  0  0  0  0  0
   21.2182  -20.6550  -11.8784 C   0  0  0  0  0  0  0  0  0  0  0  0
   20.2730  -19.6859  -11.6373 O   0  0  0  0  0  0  0  0  0  0  0  0
   21.1268  -21.7347  -11.2714 O   0  0  0  0  0  0  0  0  0  0  0  0
  2  1  1  6
  2  3  1  0
  4  2  1  0
  4  5  1  6
  6  4  1  0
  7  6  2  0
  8  9  1  0
  9 10  1  0
 11 10  1  0
 12 11  1  1
 12 13  1  0
 13  6  1  0
 14 12  1  0
 14 15  2  0
 16 17  1  0
 17 19  1  0
 18 17  2  0
 20 19  1  6
 20 21  1  0
 21 14  1  0
 22 20  1  0
 23 22  1  0
 24 22  2  0
M  END
$$$$
