LEP.pdb
     RDKit          3D

 25 25  0  0  1  0  0  0  0  0999 V2000
   27.0466  -13.0291  -15.7116 C   0  0  0  0  0  0  0  0  0  0  0  0
   27.3507  -12.0571  -16.8471 C   0  0  2  0  0  0  0  0  0  0  0  0
   28.6947  -11.4625  -16.6034 C   0  0  0  0  0  0  0  0  0  0  0  0
   26.2298  -11.0497  -16.8657 C   0  0  0  0  0  0  0  0  0  0  0  0
   24.8915  -11.6794  -17.1706 C   0  0  2  0  0  0  0  0  0  0  0  0
   24.8488  -12.3397  -18.4322 N   0  0  0  0  0  0  0  0  0  0  0  0
   23.8822  -10.5923  -17.1574 C   0  0  0  0  0  0  0  0  0  0  0  0
   24.0508   -9.6139  -17.9457 O   0  0  0  0  0  0  0  0  0  0  0  0
   22.7547  -10.5799  -16.3280 N   0  0  0  0  0  0  0  0  0  0  0  0
   21.8203   -9.4100  -16.3696 C   0  0  1  0  0  0  0  0  0  0  0  0
   20.5640  -10.0217  -15.7506 C   0  0  0  0  0  0  0  0  0  0  0  0
   19.4563   -9.0409  -15.5792 C   0  0  0  0  0  0  0  0  0  0  0  0
   18.2664   -9.7182  -14.9529 C   0  0  0  0  0  0  0  0  0  0  0  0
   18.3022  -10.9269  -14.6516 O   0  0  0  0  0  0  0  0  0  0  0  0
   22.3623   -8.3301  -15.5534 C   0  0  0  0  0  0  0  0  0  0  0  0
   23.1780   -8.6549  -14.6324 O   0  0  0  0  0  0  0  0  0  0  0  0
   17.1430   -8.9669  -14.7239 O   0  0  0  0  0  0  0  0  0  0  0  0
   22.0435   -6.9831  -15.7264 N   0  0  0  0  0  0  0  0  0  0  0  0
   21.0979   -6.4948  -16.7473 C   0  0  0  0  0  0  0  0  0  0  0  0
   21.8478   -5.2946  -17.2851 C   0  0  0  0  0  0  0  0  0  0  0  0
   22.6399   -4.7793  -16.1036 C   0  0  0  0  0  0  0  0  0  0  0  0
   22.4388   -5.8006  -15.0109 C   0  0  1  0  0  0  0  0  0  0  0  0
   21.3058   -5.3065  -14.1554 C   0  0  0  0  0  0  0  0  0  0  0  0
   21.4361   -4.3671  -13.1618 O   0  0  0  0  0  0  0  0  0  0  0  0
   20.1696   -5.7946  -14.3775 O   0  0  0  0  0  0  0  0  0  0  0  0
  2  1  1  1
  2  3  1  0
  4  2  1  0
  5  4  1  0
  5  7  1  0
  5  6  1  6
  7  8  2  0
  9  7  1  0
  9 10  1  0
 10 11  1  1
 11 12  1  0
 12 13  1  0
 13 17  1  0
 14 13  2  0
 15 10  1  0
 15 16  2  0
 18 15  1  0
 19 18  1  0
 20 19  1  0
 21 22  1  0
 21 20  1  0
 22 18  1  0
 22 23  1  1
 24 23  1  0
 25 23  2  0
M  END
$$$$
