LEP.pdb
     RDKit          3D

 25 25  0  0  1  0  0  0  0  0999 V2000
   25.4024  -20.4267   -8.0238 C   0  0  0  0  0  0  0  0  0  0  0  0
   26.7619  -20.0407   -8.5978 C   0  0  2  0  0  0  0  0  0  0  0  0
   27.1301  -18.7005   -8.0615 C   0  0  0  0  0  0  0  0  0  0  0  0
   26.6259  -20.0834  -10.0982 C   0  0  0  0  0  0  0  0  0  0  0  0
   26.2383  -21.4522  -10.6048 C   0  0  2  0  0  0  0  0  0  0  0  0
   27.3534  -22.3061  -10.8432 N   0  0  0  0  0  0  0  0  0  0  0  0
   25.4971  -21.2560  -11.8748 C   0  0  0  0  0  0  0  0  0  0  0  0
   26.1692  -21.0784  -12.9349 O   0  0  0  0  0  0  0  0  0  0  0  0
   24.1009  -21.2547  -11.9750 N   0  0  0  0  0  0  0  0  0  0  0  0
   23.4574  -21.1213  -13.3209 C   0  0  1  0  0  0  0  0  0  0  0  0
   22.0011  -21.4318  -12.9768 C   0  0  0  0  0  0  0  0  0  0  0  0
   21.0986  -21.4027  -14.1611 C   0  0  0  0  0  0  0  0  0  0  0  0
   19.7102  -21.8213  -13.7560 C   0  0  0  0  0  0  0  0  0  0  0  0
   18.8352  -20.9729  -13.4963 O   0  0  0  0  0  0  0  0  0  0  0  0
   23.6264  -19.7559  -13.8036 C   0  0  0  0  0  0  0  0  0  0  0  0
   23.6141  -18.8289  -12.9320 O   0  0  0  0  0  0  0  0  0  0  0  0
   19.4369  -23.1625  -13.6810 O   0  0  0  0  0  0  0  0  0  0  0  0
   23.8013  -19.4165  -15.1453 N   0  0  0  0  0  0  0  0  0  0  0  0
   23.7356  -20.3939  -16.2477 C   0  0  0  0  0  0  0  0  0  0  0  0
   24.9260  -19.9695  -17.0812 C   0  0  0  0  0  0  0  0  0  0  0  0
   25.0284  -18.4754  -16.8668 C   0  0  0  0  0  0  0  0  0  0  0  0
   24.0111  -18.1538  -15.7996 C   0  0  1  0  0  0  0  0  0  0  0  0
   22.7582  -17.7198  -16.5080 C   0  0  0  0  0  0  0  0  0  0  0  0
   22.5551  -16.4642  -17.0263 O   0  0  0  0  0  0  0  0  0  0  0  0
   21.8458  -18.5753  -16.6267 O   0  0  0  0  0  0  0  0  0  0  0  0
  2  1  1  1
  2  3  1  0
  4  2  1  0
  5  4  1  0
  5  7  1  0
  5  6  1  6
  7  8  2  0
  9  7  1  0
  9 10  1  0
 10 11  1  1
 11 12  1  0
 12 13  1  0
 13 17  1  0
 14 13  2  0
 15 10  1  0
 15 16  2  0
 18 15  1  0
 19 18  1  0
 20 19  1  0
 21 22  1  0
 21 20  1  0
 22 18  1  0
 22 23  1  6
 24 23  1  0
 25 23  2  0
M  END
$$$$
