LEP.pdb
     RDKit          3D

 25 25  0  0  1  0  0  0  0  0999 V2000
   22.5474  -13.4331  -15.3923 C   0  0  0  0  0  0  0  0  0  0  0  0
   22.1246  -13.4241  -16.8579 C   0  0  2  0  0  0  0  0  0  0  0  0
   23.3244  -13.7190  -17.6902 C   0  0  0  0  0  0  0  0  0  0  0  0
   21.5126  -12.0726  -17.1232 C   0  0  0  0  0  0  0  0  0  0  0  0
   20.2942  -11.8121  -16.2698 C   0  0  2  0  0  0  0  0  0  0  0  0
   19.1499  -12.5601  -16.6704 N   0  0  0  0  0  0  0  0  0  0  0  0
   19.9880  -10.3642  -16.3731 C   0  0  0  0  0  0  0  0  0  0  0  0
   19.5919   -9.9180  -17.4916 O   0  0  0  0  0  0  0  0  0  0  0  0
   20.1095   -9.4600  -15.3115 N   0  0  0  0  0  0  0  0  0  0  0  0
   19.7812   -8.0152  -15.5311 C   0  0  1  0  0  0  0  0  0  0  0  0
   18.3177   -7.9818  -15.0919 C   0  0  0  0  0  0  0  0  0  0  0  0
   17.7006   -6.6312  -15.2070 C   0  0  0  0  0  0  0  0  0  0  0  0
   16.2766   -6.6768  -14.7200 C   0  0  0  0  0  0  0  0  0  0  0  0
   15.4376   -7.4222  -15.2617 O   0  0  0  0  0  0  0  0  0  0  0  0
   20.6280   -7.1924  -14.6757 C   0  0  0  0  0  0  0  0  0  0  0  0
   21.0123   -7.7058  -13.5766 O   0  0  0  0  0  0  0  0  0  0  0  0
   15.9301   -5.8749  -13.6636 O   0  0  0  0  0  0  0  0  0  0  0  0
   21.0357   -5.8965  -14.9925 N   0  0  0  0  0  0  0  0  0  0  0  0
   20.4872   -5.1237  -16.1225 C   0  0  0  0  0  0  0  0  0  0  0  0
   21.7512   -4.5293  -16.7065 C   0  0  0  0  0  0  0  0  0  0  0  0
   22.6699   -4.3449  -15.5188 C   0  0  0  0  0  0  0  0  0  0  0  0
   21.9582   -4.9950  -14.3576 C   0  0  1  0  0  0  0  0  0  0  0  0
   21.2112   -3.9063  -13.6390 C   0  0  0  0  0  0  0  0  0  0  0  0
   21.7778   -3.0455  -12.7310 O   0  0  0  0  0  0  0  0  0  0  0  0
   19.9877   -3.7882  -13.8986 O   0  0  0  0  0  0  0  0  0  0  0  0
  2  1  1  1
  2  3  1  0
  4  2  1  0
  5  4  1  0
  5  7  1  0
  5  6  1  6
  7  8  2  0
  9  7  1  0
  9 10  1  0
 10 11  1  1
 11 12  1  0
 12 13  1  0
 13 17  1  0
 14 13  2  0
 15 10  1  0
 15 16  2  0
 18 15  1  0
 19 18  1  0
 20 19  1  0
 21 22  1  0
 21 20  1  0
 22 18  1  0
 22 23  1  6
 24 23  1  0
 25 23  2  0
M  END
$$$$
