LEP.pdb
     RDKit          3D

 25 25  0  0  1  0  0  0  0  0999 V2000
   24.4976  -32.0333  -14.8798 C   0  0  0  0  0  0  0  0  0  0  0  0
   25.1291  -33.3337  -15.3666 C   0  0  2  0  0  0  0  0  0  0  0  0
   24.0800  -34.1273  -16.0658 C   0  0  0  0  0  0  0  0  0  0  0  0
   25.7051  -34.0158  -14.1523 C   0  0  0  0  0  0  0  0  0  0  0  0
   26.7367  -33.1674  -13.4475 C   0  0  2  0  0  0  0  0  0  0  0  0
   27.9415  -33.0047  -14.1900 N   0  0  0  0  0  0  0  0  0  0  0  0
   27.0469  -33.8344  -12.1593 C   0  0  0  0  0  0  0  0  0  0  0  0
   27.8092  -34.8470  -12.1817 O   0  0  0  0  0  0  0  0  0  0  0  0
   26.5497  -33.4147  -10.9199 N   0  0  0  0  0  0  0  0  0  0  0  0
   26.8537  -34.2172   -9.6923 C   0  0  1  0  0  0  0  0  0  0  0  0
   26.5548  -33.1940   -8.5971 C   0  0  0  0  0  0  0  0  0  0  0  0
   26.6100  -33.7695   -7.2246 C   0  0  0  0  0  0  0  0  0  0  0  0
   26.3447  -32.6916   -6.2074 C   0  0  0  0  0  0  0  0  0  0  0  0
   25.4451  -31.8482   -6.3873 O   0  0  0  0  0  0  0  0  0  0  0  0
   25.9548  -35.3635   -9.6301 C   0  0  0  0  0  0  0  0  0  0  0  0
   24.8251  -35.2442  -10.2035 O   0  0  0  0  0  0  0  0  0  0  0  0
   27.1213  -32.6650   -5.0781 O   0  0  0  0  0  0  0  0  0  0  0  0
   26.2618  -36.5645   -8.9904 N   0  0  0  0  0  0  0  0  0  0  0  0
   27.4587  -36.7570   -8.1506 C   0  0  0  0  0  0  0  0  0  0  0  0
   27.9304  -38.1145   -8.6268 C   0  0  0  0  0  0  0  0  0  0  0  0
   26.6631  -38.8434   -9.0162 C   0  0  0  0  0  0  0  0  0  0  0  0
   25.5618  -37.8174   -8.9072 C   0  0  1  0  0  0  0  0  0  0  0  0
   24.9468  -37.9808   -7.5452 C   0  0  0  0  0  0  0  0  0  0  0  0
   25.0015  -37.0351   -6.5506 O   0  0  0  0  0  0  0  0  0  0  0  0
   24.3450  -39.0599   -7.3179 O   0  0  0  0  0  0  0  0  0  0  0  0
  2  1  1  1
  2  3  1  0
  4  2  1  0
  5  4  1  0
  5  7  1  0
  5  6  1  6
  7  8  2  0
  9  7  1  0
  9 10  1  0
 10 11  1  1
 11 12  1  0
 12 13  1  0
 13 17  1  0
 14 13  2  0
 15 10  1  0
 15 16  2  0
 18 15  1  0
 19 18  1  0
 20 19  1  0
 21 22  1  0
 21 20  1  0
 22 18  1  0
 22 23  1  1
 24 23  1  0
 25 23  2  0
M  END
$$$$
