LEP.pdb
     RDKit          3D

 25 25  0  0  1  0  0  0  0  0999 V2000
   18.3548  -30.3925  -11.6657 C   0  0  0  0  0  0  0  0  0  0  0  0
   17.6322  -30.0510  -10.3665 C   0  0  2  0  0  0  0  0  0  0  0  0
   17.7333  -28.5805  -10.1503 C   0  0  0  0  0  0  0  0  0  0  0  0
   18.2788  -30.8750   -9.2826 C   0  0  0  0  0  0  0  0  0  0  0  0
   18.1925  -32.3579   -9.5546 C   0  0  2  0  0  0  0  0  0  0  0  0
   16.8691  -32.8765   -9.4602 N   0  0  0  0  0  0  0  0  0  0  0  0
   19.0525  -33.0377   -8.5552 C   0  0  0  0  0  0  0  0  0  0  0  0
   18.6722  -33.0398   -7.3459 O   0  0  0  0  0  0  0  0  0  0  0  0
   20.2585  -33.6773   -8.8649 N   0  0  0  0  0  0  0  0  0  0  0  0
   21.0282  -34.3669   -7.7807 C   0  0  1  0  0  0  0  0  0  0  0  0
   21.6501  -35.5252   -8.5600 C   0  0  0  0  0  0  0  0  0  0  0  0
   21.1172  -36.8566   -8.1582 C   0  0  0  0  0  0  0  0  0  0  0  0
   21.7767  -37.9379   -8.9723 C   0  0  0  0  0  0  0  0  0  0  0  0
   21.9566  -37.7980  -10.1975 O   0  0  0  0  0  0  0  0  0  0  0  0
   22.0386  -33.4577   -7.2530 C   0  0  0  0  0  0  0  0  0  0  0  0
   22.3761  -32.4772   -7.9906 O   0  0  0  0  0  0  0  0  0  0  0  0
   22.1735  -39.0802   -8.3268 O   0  0  0  0  0  0  0  0  0  0  0  0
   22.6425  -33.5995   -6.0035 N   0  0  0  0  0  0  0  0  0  0  0  0
   22.3516  -34.7121   -5.0802 C   0  0  0  0  0  0  0  0  0  0  0  0
   22.2374  -33.9727   -3.7640 C   0  0  0  0  0  0  0  0  0  0  0  0
   23.1870  -32.8029   -3.9002 C   0  0  0  0  0  0  0  0  0  0  0  0
   23.6592  -32.8356   -5.3332 C   0  0  1  0  0  0  0  0  0  0  0  0
   24.9641  -33.5817   -5.3454 C   0  0  0  0  0  0  0  0  0  0  0  0
   26.1530  -33.0733   -4.8821 O   0  0  0  0  0  0  0  0  0  0  0  0
   24.9491  -34.7478   -5.8128 O   0  0  0  0  0  0  0  0  0  0  0  0
  2  1  1  6
  2  3  1  0
  4  2  1  0
  5  4  1  0
  5  7  1  0
  5  6  1  1
  7  8  2  0
  9  7  1  0
  9 10  1  0
 10 11  1  6
 11 12  1  0
 12 13  1  0
 13 17  1  0
 14 13  2  0
 15 10  1  0
 15 16  2  0
 18 15  1  0
 19 18  1  0
 20 19  1  0
 21 22  1  0
 21 20  1  0
 22 18  1  0
 22 23  1  1
 24 23  1  0
 25 23  2  0
M  END
$$$$
