FAS.pdb
     RDKit          3D

 23 23  0  0  1  0  0  0  0  0999 V2000
   24.8433  -20.7569   -7.9108 N   0  0  0  0  0  0  0  0  0  0  0  0
   25.9247  -20.1298   -8.5967 C   0  0  1  0  0  0  0  0  0  0  0  0
   27.2314  -20.7845   -8.2113 C   0  0  0  0  0  0  0  0  0  0  0  0
   27.6383  -20.2277   -6.8951 C   0  0  0  0  0  0  0  0  0  0  0  0
   27.6966  -18.8719   -6.6279 C   0  0  0  0  0  0  0  0  0  0  0  0
   28.0763  -18.3787   -5.4020 C   0  0  0  0  0  0  0  0  0  0  0  0
   28.4127  -19.2578   -4.3969 C   0  0  0  0  0  0  0  0  0  0  0  0
   28.3720  -20.6308   -4.6097 C   0  0  0  0  0  0  0  0  0  0  0  0
   27.9833  -21.0722   -5.8606 C   0  0  0  0  0  0  0  0  0  0  0  0
   25.6640  -20.2074  -10.0483 C   0  0  0  0  0  0  0  0  0  0  0  0
   24.7714  -20.9705  -10.4827 O   0  0  0  0  0  0  0  0  0  0  0  0
   27.0197  -18.4331  -13.1251 C   0  0  0  0  0  0  0  0  0  0  0  0
   26.1533  -19.4503  -12.4030 C   0  0  2  0  0  0  0  0  0  0  0  0
   26.4101  -19.4300  -10.9592 N   0  0  0  0  0  0  0  0  0  0  0  0
   26.4350  -20.8330  -12.8701 C   0  0  0  0  0  0  0  0  0  0  0  0
   27.4219  -21.4981  -12.4401 O   0  0  0  0  0  0  0  0  0  0  0  0
   23.6998  -22.9263  -15.1696 O   0  0  0  0  0  0  0  0  0  0  0  0
   24.6192  -23.6016  -14.3910 C   0  0  0  0  0  0  0  0  0  0  0  0
   25.9204  -22.8359  -14.3081 C   0  0  2  0  0  0  0  0  0  0  0  0
   25.6178  -21.4968  -13.8265 N   0  0  0  0  0  0  0  0  0  0  0  0
   26.5188  -22.6718  -15.6684 C   0  0  0  0  0  0  0  0  0  0  0  0
   26.4970  -21.5462  -16.2301 O   0  0  0  0  0  0  0  0  0  0  0  0
   27.1097  -23.7155  -16.3602 O   0  0  0  0  0  0  0  0  0  0  0  0
  2  1  1  1
  2 10  1  0
  3  2  1  0
  4  5  2  0
  4  3  1  0
  6  5  1  0
  7  6  2  0
  8  7  1  0
  8  9  2  0
  9  4  1  0
 10 11  2  0
 10 14  1  0
 13 15  1  0
 13 12  1  6
 14 13  1  0
 15 16  2  0
 18 17  1  0
 19 18  1  6
 20 19  1  0
 20 15  1  0
 21 19  1  0
 22 21  2  0
 23 21  1  0
M  END
$$$$
