FAS.pdb
     RDKit          3D

 23 23  0  0  1  0  0  0  0  0999 V2000
   15.3118   -9.6297  -10.4656 N   0  0  0  0  0  0  0  0  0  0  0  0
   15.4559   -8.2239  -10.6562 C   0  0  1  0  0  0  0  0  0  0  0  0
   15.9239   -7.5731   -9.3748 C   0  0  0  0  0  0  0  0  0  0  0  0
   14.7184   -7.2805   -8.5568 C   0  0  0  0  0  0  0  0  0  0  0  0
   14.1178   -8.2102   -7.7275 C   0  0  0  0  0  0  0  0  0  0  0  0
   13.0022   -7.9174   -6.9793 C   0  0  0  0  0  0  0  0  0  0  0  0
   12.4550   -6.6558   -7.0509 C   0  0  0  0  0  0  0  0  0  0  0  0
   13.0173   -5.6820   -7.8679 C   0  0  0  0  0  0  0  0  0  0  0  0
   14.1380   -6.0300   -8.5983 C   0  0  0  0  0  0  0  0  0  0  0  0
   16.3926   -7.9986  -11.7755 C   0  0  0  0  0  0  0  0  0  0  0  0
   17.3289   -8.8048  -11.9784 O   0  0  0  0  0  0  0  0  0  0  0  0
   16.3932   -5.8137  -14.8378 C   0  0  0  0  0  0  0  0  0  0  0  0
   17.0956   -6.6774  -13.8047 C   0  0  2  0  0  0  0  0  0  0  0  0
   16.2478   -6.8818  -12.6255 N   0  0  0  0  0  0  0  0  0  0  0  0
   18.3504   -6.0404  -13.3265 C   0  0  0  0  0  0  0  0  0  0  0  0
   18.3621   -5.2246  -12.3592 O   0  0  0  0  0  0  0  0  0  0  0  0
   21.7679   -7.9602  -12.9606 O   0  0  0  0  0  0  0  0  0  0  0  0
   21.9490   -6.7919  -13.6746 C   0  0  0  0  0  0  0  0  0  0  0  0
   20.8570   -5.7942  -13.3609 C   0  0  2  0  0  0  0  0  0  0  0  0
   19.6152   -6.3042  -13.9216 N   0  0  0  0  0  0  0  0  0  0  0  0
   21.1264   -4.4914  -14.0431 C   0  0  0  0  0  0  0  0  0  0  0  0
   22.0084   -3.7176  -13.5886 O   0  0  0  0  0  0  0  0  0  0  0  0
   20.4423   -4.0799  -15.1743 O   0  0  0  0  0  0  0  0  0  0  0  0
  2  1  1  1
  2 10  1  0
  3  2  1  0
  4  5  2  0
  4  3  1  0
  6  5  1  0
  7  6  2  0
  8  7  1  0
  8  9  2  0
  9  4  1  0
 10 11  2  0
 10 14  1  0
 13 15  1  0
 13 12  1  6
 14 13  1  0
 15 16  2  0
 18 17  1  0
 19 18  1  6
 20 19  1  0
 20 15  1  0
 21 19  1  0
 22 21  2  0
 23 21  1  0
M  END
$$$$
