FAS.pdb
     RDKit          3D

 23 23  0  0  1  0  0  0  0  0999 V2000
   24.1843  -12.1104  -17.2245 N   0  0  0  0  0  0  0  0  0  0  0  0
   24.5045  -11.1444  -16.2258 C   0  0  1  0  0  0  0  0  0  0  0  0
   25.7887  -10.4334  -16.5863 C   0  0  0  0  0  0  0  0  0  0  0  0
   26.8864  -11.4324  -16.5169 C   0  0  0  0  0  0  0  0  0  0  0  0
   27.2658  -12.0657  -15.3474 C   0  0  0  0  0  0  0  0  0  0  0  0
   28.2852  -12.9874  -15.3063 C   0  0  0  0  0  0  0  0  0  0  0  0
   28.9594  -13.2984  -16.4661 C   0  0  0  0  0  0  0  0  0  0  0  0
   28.6203  -12.6924  -17.6702 C   0  0  0  0  0  0  0  0  0  0  0  0
   27.5879  -11.7734  -17.6545 C   0  0  0  0  0  0  0  0  0  0  0  0
   23.3651  -10.2141  -16.0943 C   0  0  0  0  0  0  0  0  0  0  0  0
   22.8034   -9.7656  -17.1197 O   0  0  0  0  0  0  0  0  0  0  0  0
   21.2884   -8.8715  -13.2199 C   0  0  0  0  0  0  0  0  0  0  0  0
   21.7909   -8.8716  -14.6531 C   0  0  2  0  0  0  0  0  0  0  0  0
   22.8964   -9.8203  -14.8231 N   0  0  0  0  0  0  0  0  0  0  0  0
   22.3073   -7.5349  -15.0478 C   0  0  0  0  0  0  0  0  0  0  0  0
   23.5327   -7.2340  -14.9512 O   0  0  0  0  0  0  0  0  0  0  0  0
   21.0245   -5.5138  -18.1739 O   0  0  0  0  0  0  0  0  0  0  0  0
   21.0401   -4.6934  -17.0630 C   0  0  0  0  0  0  0  0  0  0  0  0
   21.9838   -5.2299  -16.0105 C   0  0  2  0  0  0  0  0  0  0  0  0
   21.4625   -6.5105  -15.5578 N   0  0  0  0  0  0  0  0  0  0  0  0
   21.9994   -4.3323  -14.8149 C   0  0  0  0  0  0  0  0  0  0  0  0
   21.2876   -4.6092  -13.8150 O   0  0  0  0  0  0  0  0  0  0  0  0
   22.7727   -3.1858  -14.7461 O   0  0  0  0  0  0  0  0  0  0  0  0
  2  1  1  6
  2 10  1  0
  3  2  1  0
  4  5  2  0
  4  3  1  0
  6  5  1  0
  7  6  2  0
  8  7  1  0
  8  9  2  0
  9  4  1  0
 10 11  2  0
 10 14  1  0
 13 15  1  0
 13 12  1  1
 14 13  1  0
 15 16  2  0
 18 17  1  0
 19 18  1  6
 20 19  1  0
 20 15  1  0
 21 19  1  0
 22 21  2  0
 23 21  1  0
M  END
$$$$
