FAS.pdb
     RDKit          3D

 23 23  0  0  1  0  0  0  0  0999 V2000
   28.1626  -21.3195  -14.8466 N   0  0  0  0  0  0  0  0  0  0  0  0
   27.1438  -20.7755  -14.0102 C   0  0  1  0  0  0  0  0  0  0  0  0
   27.7344  -19.7379  -13.0833 C   0  0  0  0  0  0  0  0  0  0  0  0
   28.6281  -20.4471  -12.1312 C   0  0  0  0  0  0  0  0  0  0  0  0
   30.0082  -20.4139  -12.2146 C   0  0  0  0  0  0  0  0  0  0  0  0
   30.8160  -21.0783  -11.3222 C   0  0  0  0  0  0  0  0  0  0  0  0
   30.2402  -21.8060  -10.3048 C   0  0  0  0  0  0  0  0  0  0  0  0
   28.8582  -21.8743  -10.1732 C   0  0  0  0  0  0  0  0  0  0  0  0
   28.0936  -21.1876  -11.0975 C   0  0  0  0  0  0  0  0  0  0  0  0
   26.0808  -20.2195  -14.8715 C   0  0  0  0  0  0  0  0  0  0  0  0
   26.3845  -19.5664  -15.8958 O   0  0  0  0  0  0  0  0  0  0  0  0
   22.3557  -20.7577  -15.1487 C   0  0  0  0  0  0  0  0  0  0  0  0
   23.6381  -20.0054  -15.4588 C   0  0  2  0  0  0  0  0  0  0  0  0
   24.7194  -20.4141  -14.5561 N   0  0  0  0  0  0  0  0  0  0  0  0
   23.4639  -18.5397  -15.2846 C   0  0  0  0  0  0  0  0  0  0  0  0
   23.5109  -17.9893  -14.1461 O   0  0  0  0  0  0  0  0  0  0  0  0
   24.2476  -15.9631  -18.2820 O   0  0  0  0  0  0  0  0  0  0  0  0
   24.2355  -15.5636  -16.9600 C   0  0  0  0  0  0  0  0  0  0  0  0
   23.1023  -16.2243  -16.2080 C   0  0  2  0  0  0  0  0  0  0  0  0
   23.2338  -17.6629  -16.3807 N   0  0  0  0  0  0  0  0  0  0  0  0
   21.7856  -15.8444  -16.8059 C   0  0  0  0  0  0  0  0  0  0  0  0
   21.0894  -16.7143  -17.3905 O   0  0  0  0  0  0  0  0  0  0  0  0
   21.2783  -14.5573  -16.7502 O   0  0  0  0  0  0  0  0  0  0  0  0
  2  1  1  6
  2 10  1  0
  3  2  1  0
  4  5  2  0
  4  3  1  0
  6  5  1  0
  7  6  2  0
  8  7  1  0
  8  9  2  0
  9  4  1  0
 10 11  2  0
 10 14  1  0
 13 15  1  0
 13 12  1  1
 14 13  1  0
 15 16  2  0
 18 17  1  0
 19 18  1  6
 20 19  1  0
 20 15  1  0
 21 19  1  0
 22 21  2  0
 23 21  1  0
M  END
$$$$
