FAS.pdb
     RDKit          3D

 23 23  0  0  1  0  0  0  0  0999 V2000
   22.1764  -14.1185  -18.6031 N   0  0  0  0  0  0  0  0  0  0  0  0
   21.1453  -13.1784  -18.8966 C   0  0  1  0  0  0  0  0  0  0  0  0
   19.8700  -13.5702  -18.1860 C   0  0  0  0  0  0  0  0  0  0  0  0
   19.3233  -14.7663  -18.8776 C   0  0  0  0  0  0  0  0  0  0  0  0
   18.8833  -14.7522  -20.1887 C   0  0  0  0  0  0  0  0  0  0  0  0
   18.3807  -15.8716  -20.8088 C   0  0  0  0  0  0  0  0  0  0  0  0
   18.3084  -17.0548  -20.1081 C   0  0  0  0  0  0  0  0  0  0  0  0
   18.7366  -17.1267  -18.7877 C   0  0  0  0  0  0  0  0  0  0  0  0
   19.2330  -15.9717  -18.2132 C   0  0  0  0  0  0  0  0  0  0  0  0
   21.6153  -11.8337  -18.5068 C   0  0  0  0  0  0  0  0  0  0  0  0
   22.2021  -11.6699  -17.4129 O   0  0  0  0  0  0  0  0  0  0  0  0
   21.8501   -8.4681  -20.2355 C   0  0  0  0  0  0  0  0  0  0  0  0
   21.9122   -9.3842  -19.0257 C   0  0  2  0  0  0  0  0  0  0  0  0
   21.4122  -10.7235  -19.3535 N   0  0  0  0  0  0  0  0  0  0  0  0
   21.0709   -8.8721  -17.9126 C   0  0  0  0  0  0  0  0  0  0  0  0
   19.8262   -9.0930  -17.8562 O   0  0  0  0  0  0  0  0  0  0  0  0
   22.4436   -8.3980  -14.1933 O   0  0  0  0  0  0  0  0  0  0  0  0
   21.1091   -8.5061  -14.5323 C   0  0  0  0  0  0  0  0  0  0  0  0
   20.7865   -7.6440  -15.7318 C   0  0  2  0  0  0  0  0  0  0  0  0
   21.6066   -8.1034  -16.8423 N   0  0  0  0  0  0  0  0  0  0  0  0
   21.1770   -6.2237  -15.4760 C   0  0  0  0  0  0  0  0  0  0  0  0
   20.5725   -5.5571  -14.5965 O   0  0  0  0  0  0  0  0  0  0  0  0
   22.1915   -5.5865  -16.1703 O   0  0  0  0  0  0  0  0  0  0  0  0
  2  1  1  1
  2 10  1  0
  3  2  1  0
  4  5  2  0
  4  3  1  0
  6  5  1  0
  7  6  2  0
  8  7  1  0
  8  9  2  0
  9  4  1  0
 10 11  2  0
 10 14  1  0
 13 15  1  0
 13 12  1  6
 14 13  1  0
 15 16  2  0
 18 17  1  0
 19 18  1  1
 20 19  1  0
 20 15  1  0
 21 19  1  0
 22 21  2  0
 23 21  1  0
M  END
$$$$
