FAS.pdb
     RDKit          3D

 23 23  0  0  1  0  0  0  0  0999 V2000
   22.8689  -11.4428  -18.7073 N   0  0  0  0  0  0  0  0  0  0  0  0
   22.5969  -11.0237  -17.3718 C   0  0  1  0  0  0  0  0  0  0  0  0
   23.8501  -11.1235  -16.5326 C   0  0  0  0  0  0  0  0  0  0  0  0
   24.1760  -12.5659  -16.3872 C   0  0  0  0  0  0  0  0  0  0  0  0
   23.4960  -13.4174  -15.5356 C   0  0  0  0  0  0  0  0  0  0  0  0
   23.8149  -14.7495  -15.4169 C   0  0  0  0  0  0  0  0  0  0  0  0
   24.8471  -15.2647  -16.1688 C   0  0  0  0  0  0  0  0  0  0  0  0
   25.5648  -14.4547  -17.0410 C   0  0  0  0  0  0  0  0  0  0  0  0
   25.2022  -13.1233  -17.1212 C   0  0  0  0  0  0  0  0  0  0  0  0
   22.0576   -9.6495  -17.4149 C   0  0  0  0  0  0  0  0  0  0  0  0
   22.4887   -8.8356  -18.2631 O   0  0  0  0  0  0  0  0  0  0  0  0
   19.0325   -7.9124  -16.0602 C   0  0  0  0  0  0  0  0  0  0  0  0
   20.4716   -7.8928  -16.5453 C   0  0  2  0  0  0  0  0  0  0  0  0
   21.0574   -9.2369  -16.5092 N   0  0  0  0  0  0  0  0  0  0  0  0
   21.3231   -7.0298  -15.6856 C   0  0  0  0  0  0  0  0  0  0  0  0
   21.8907   -7.4718  -14.6445 O   0  0  0  0  0  0  0  0  0  0  0  0
   23.7024   -4.0468  -17.0573 O   0  0  0  0  0  0  0  0  0  0  0  0
   22.8720   -3.6541  -16.0260 C   0  0  0  0  0  0  0  0  0  0  0  0
   22.4627   -4.8405  -15.1827 C   0  0  2  0  0  0  0  0  0  0  0  0
   21.5554   -5.6565  -15.9748 N   0  0  0  0  0  0  0  0  0  0  0  0
   21.6904   -4.3895  -13.9845 C   0  0  0  0  0  0  0  0  0  0  0  0
   20.4586   -4.1539  -14.0861 O   0  0  0  0  0  0  0  0  0  0  0  0
   22.2703   -4.2127  -12.7397 O   0  0  0  0  0  0  0  0  0  0  0  0
  2  1  1  6
  2 10  1  0
  3  2  1  0
  4  5  2  0
  4  3  1  0
  6  5  1  0
  7  6  2  0
  8  7  1  0
  8  9  2  0
  9  4  1  0
 10 11  2  0
 10 14  1  0
 13 15  1  0
 13 12  1  1
 14 13  1  0
 15 16  2  0
 18 17  1  0
 19 18  1  6
 20 19  1  0
 20 15  1  0
 21 19  1  0
 22 21  2  0
 23 21  1  0
M  END
$$$$
