FAS.pdb
     RDKit          3D

 23 23  0  0  1  0  0  0  0  0999 V2000
   16.3517   -7.5750   -8.6554 N   0  0  0  0  0  0  0  0  0  0  0  0
   15.5301   -7.2346   -9.7700 C   0  0  1  0  0  0  0  0  0  0  0  0
   14.6020   -6.1000   -9.4015 C   0  0  0  0  0  0  0  0  0  0  0  0
   13.5609   -6.6514   -8.4960 C   0  0  0  0  0  0  0  0  0  0  0  0
   13.3608   -6.2013   -7.2036 C   0  0  0  0  0  0  0  0  0  0  0  0
   12.3909   -6.7265   -6.3829 C   0  0  0  0  0  0  0  0  0  0  0  0
   11.5840   -7.7377   -6.8548 C   0  0  0  0  0  0  0  0  0  0  0  0
   11.7407   -8.2287   -8.1457 C   0  0  0  0  0  0  0  0  0  0  0  0
   12.7310   -7.6648   -8.9280 C   0  0  0  0  0  0  0  0  0  0  0  0
   16.4067   -6.8960  -10.9093 C   0  0  0  0  0  0  0  0  0  0  0  0
   17.3895   -6.1393  -10.7380 O   0  0  0  0  0  0  0  0  0  0  0  0
   16.8643   -8.0893  -14.4536 C   0  0  0  0  0  0  0  0  0  0  0  0
   16.9429   -7.0286  -13.3695 C   0  0  2  0  0  0  0  0  0  0  0  0
   16.1523   -7.4154  -12.1963 N   0  0  0  0  0  0  0  0  0  0  0  0
   16.4018   -5.7275  -13.8422 C   0  0  0  0  0  0  0  0  0  0  0  0
   15.1587   -5.5194  -13.9554 O   0  0  0  0  0  0  0  0  0  0  0  0
   18.2581   -2.2597  -13.2863 O   0  0  0  0  0  0  0  0  0  0  0  0
   16.9274   -2.3225  -13.6508 C   0  0  0  0  0  0  0  0  0  0  0  0
   16.7078   -3.3817  -14.7073 C   0  0  2  0  0  0  0  0  0  0  0  0
   17.2412   -4.6353  -14.1969 N   0  0  0  0  0  0  0  0  0  0  0  0
   17.4883   -3.0601  -15.9412 C   0  0  0  0  0  0  0  0  0  0  0  0
   17.2215   -2.0202  -16.5973 O   0  0  0  0  0  0  0  0  0  0  0  0
   18.5130   -3.8631  -16.4127 O   0  0  0  0  0  0  0  0  0  0  0  0
  2  1  1  1
  2 10  1  0
  3  2  1  0
  4  5  2  0
  4  3  1  0
  6  5  1  0
  7  6  2  0
  8  7  1  0
  8  9  2  0
  9  4  1  0
 10 11  2  0
 10 14  1  0
 13 15  1  0
 13 12  1  6
 14 13  1  0
 15 16  2  0
 18 17  1  0
 19 18  1  1
 20 19  1  0
 20 15  1  0
 21 19  1  0
 22 21  2  0
 23 21  1  0
M  END
$$$$
