FAS.pdb
     RDKit          3D

 23 23  0  0  1  0  0  0  0  0999 V2000
   20.4298  -11.1381  -19.9021 N   0  0  0  0  0  0  0  0  0  0  0  0
   21.6136  -10.3913  -19.6299 C   0  0  1  0  0  0  0  0  0  0  0  0
   21.7398   -9.2464  -20.6086 C   0  0  0  0  0  0  0  0  0  0  0  0
   22.1335   -9.8222  -21.9206 C   0  0  0  0  0  0  0  0  0  0  0  0
   23.4078  -10.2829  -22.1976 C   0  0  0  0  0  0  0  0  0  0  0  0
   23.7500  -10.8121  -23.4195 C   0  0  0  0  0  0  0  0  0  0  0  0
   22.7971  -10.8909  -24.4103 C   0  0  0  0  0  0  0  0  0  0  0  0
   21.5003  -10.4429  -24.1872 C   0  0  0  0  0  0  0  0  0  0  0  0
   21.2106   -9.9200  -22.9409 C   0  0  0  0  0  0  0  0  0  0  0  0
   21.5617   -9.9292  -18.2282 C   0  0  0  0  0  0  0  0  0  0  0  0
   20.5352   -9.3562  -17.7970 O   0  0  0  0  0  0  0  0  0  0  0  0
   23.7658  -10.3969  -15.1811 C   0  0  0  0  0  0  0  0  0  0  0  0
   22.6058   -9.7743  -15.9384 C   0  0  2  0  0  0  0  0  0  0  0  0
   22.6578  -10.1246  -17.3616 N   0  0  0  0  0  0  0  0  0  0  0  0
   22.6395   -8.2905  -15.8597 C   0  0  0  0  0  0  0  0  0  0  0  0
   23.3200   -7.5914  -16.6656 O   0  0  0  0  0  0  0  0  0  0  0  0
   19.5893   -6.2083  -14.3864 O   0  0  0  0  0  0  0  0  0  0  0  0
   20.5483   -5.6144  -15.1834 C   0  0  0  0  0  0  0  0  0  0  0  0
   21.9308   -6.1079  -14.8210 C   0  0  2  0  0  0  0  0  0  0  0  0
   21.9125   -7.5616  -14.8781 N   0  0  0  0  0  0  0  0  0  0  0  0
   22.2635   -5.7435  -13.4096 C   0  0  0  0  0  0  0  0  0  0  0  0
   22.4074   -6.6480  -12.5470 O   0  0  0  0  0  0  0  0  0  0  0  0
   22.4259   -4.4340  -12.9901 O   0  0  0  0  0  0  0  0  0  0  0  0
  2  1  1  6
  2 10  1  0
  3  2  1  0
  4  5  2  0
  4  3  1  0
  6  5  1  0
  7  6  2  0
  8  7  1  0
  8  9  2  0
  9  4  1  0
 10 11  2  0
 10 14  1  0
 13 15  1  0
 13 12  1  1
 14 13  1  0
 15 16  2  0
 18 17  1  0
 19 18  1  1
 20 19  1  0
 20 15  1  0
 21 19  1  0
 22 21  2  0
 23 21  1  0
M  END
$$$$
