FAS.pdb
     RDKit          3D

 23 23  0  0  1  0  0  0  0  0999 V2000
   18.3790   -9.2762  -15.2514 N   0  0  0  0  0  0  0  0  0  0  0  0
   19.4236   -8.4810  -15.8077 C   0  0  1  0  0  0  0  0  0  0  0  0
   19.1327   -8.1879  -17.2617 C   0  0  0  0  0  0  0  0  0  0  0  0
   19.2715   -9.4639  -18.0105 C   0  0  0  0  0  0  0  0  0  0  0  0
   18.1960  -10.2544  -18.3726 C   0  0  0  0  0  0  0  0  0  0  0  0
   18.3479  -11.4320  -19.0655 C   0  0  0  0  0  0  0  0  0  0  0  0
   19.6125  -11.8488  -19.4167 C   0  0  0  0  0  0  0  0  0  0  0  0
   20.7295  -11.0938  -19.0787 C   0  0  0  0  0  0  0  0  0  0  0  0
   20.5195   -9.9186  -18.3821 C   0  0  0  0  0  0  0  0  0  0  0  0
   19.5528   -7.2504  -15.0015 C   0  0  0  0  0  0  0  0  0  0  0  0
   18.5457   -6.7638  -14.4386 O   0  0  0  0  0  0  0  0  0  0  0  0
   22.4341   -5.1150  -13.7798 C   0  0  0  0  0  0  0  0  0  0  0  0
   20.9673   -5.3833  -14.0684 C   0  0  2  0  0  0  0  0  0  0  0  0
   20.8016   -6.6103  -14.8546 N   0  0  0  0  0  0  0  0  0  0  0  0
   20.3586   -4.2813  -14.8586 C   0  0  0  0  0  0  0  0  0  0  0  0
   20.4165   -4.2508  -16.1223 O   0  0  0  0  0  0  0  0  0  0  0  0
   16.8841   -2.6279  -14.1703 O   0  0  0  0  0  0  0  0  0  0  0  0
   17.8469   -1.6419  -14.2609 C   0  0  0  0  0  0  0  0  0  0  0  0
   19.0519   -2.1348  -15.0298 C   0  0  2  0  0  0  0  0  0  0  0  0
   19.6740   -3.1934  -14.2495 N   0  0  0  0  0  0  0  0  0  0  0  0
   20.0710   -1.0485  -15.1586 C   0  0  0  0  0  0  0  0  0  0  0  0
   19.7963   -0.0064  -15.8080 O   0  0  0  0  0  0  0  0  0  0  0  0
   21.3304   -1.1283  -14.5888 O   0  0  0  0  0  0  0  0  0  0  0  0
  2  1  1  1
  2 10  1  0
  3  2  1  0
  4  5  2  0
  4  3  1  0
  6  5  1  0
  7  6  2  0
  8  7  1  0
  8  9  2  0
  9  4  1  0
 10 11  2  0
 10 14  1  0
 13 15  1  0
 13 12  1  6
 14 13  1  0
 15 16  2  0
 18 17  1  0
 19 18  1  1
 20 19  1  0
 20 15  1  0
 21 19  1  0
 22 21  2  0
 23 21  1  0
M  END
$$$$
