FAS.pdb
     RDKit          3D

 23 23  0  0  1  0  0  0  0  0999 V2000
   28.4408  -21.3743   -9.1101 N   0  0  0  0  0  0  0  0  0  0  0  0
   27.1319  -20.8150   -9.0254 C   0  0  1  0  0  0  0  0  0  0  0  0
   27.1784  -19.4993   -8.2828 C   0  0  0  0  0  0  0  0  0  0  0  0
   27.7116  -19.7731   -6.9231 C   0  0  0  0  0  0  0  0  0  0  0  0
   28.9838  -19.4124   -6.5180 C   0  0  0  0  0  0  0  0  0  0  0  0
   29.4567  -19.6760   -5.2542 C   0  0  0  0  0  0  0  0  0  0  0  0
   28.6421  -20.3222   -4.3513 C   0  0  0  0  0  0  0  0  0  0  0  0
   27.3542  -20.7077   -4.7044 C   0  0  0  0  0  0  0  0  0  0  0  0
   26.9297  -20.4179   -5.9875 C   0  0  0  0  0  0  0  0  0  0  0  0
   26.5976  -20.6689  -10.3944 C   0  0  0  0  0  0  0  0  0  0  0  0
   27.3615  -20.3434  -11.3317 O   0  0  0  0  0  0  0  0  0  0  0  0
   25.2617  -21.8439  -12.9336 C   0  0  0  0  0  0  0  0  0  0  0  0
   24.6704  -20.7881  -12.0158 C   0  0  2  0  0  0  0  0  0  0  0  0
   25.2308  -20.8918  -10.6644 N   0  0  0  0  0  0  0  0  0  0  0  0
   23.1984  -20.9459  -11.8837 C   0  0  0  0  0  0  0  0  0  0  0  0
   22.6823  -21.7799  -11.0840 O   0  0  0  0  0  0  0  0  0  0  0  0
   20.3406  -18.0286  -12.0199 O   0  0  0  0  0  0  0  0  0  0  0  0
   20.1958  -19.0275  -12.9626 C   0  0  0  0  0  0  0  0  0  0  0  0
   20.8368  -20.3123  -12.4888 C   0  0  2  0  0  0  0  0  0  0  0  0
   22.2768  -20.1736  -12.6436 N   0  0  0  0  0  0  0  0  0  0  0  0
   20.4250  -21.4552  -13.3602 C   0  0  0  0  0  0  0  0  0  0  0  0
   21.0778  -21.7128  -14.4046 O   0  0  0  0  0  0  0  0  0  0  0  0
   19.3389  -22.2650  -13.0741 O   0  0  0  0  0  0  0  0  0  0  0  0
  2  1  1  6
  2 10  1  0
  3  2  1  0
  4  5  2  0
  4  3  1  0
  6  5  1  0
  7  6  2  0
  8  7  1  0
  8  9  2  0
  9  4  1  0
 10 11  2  0
 10 14  1  0
 13 15  1  0
 13 12  1  6
 14 13  1  0
 15 16  2  0
 18 17  1  0
 19 18  1  6
 20 19  1  0
 20 15  1  0
 21 19  1  0
 22 21  2  0
 23 21  1  0
M  END
$$$$
