FAS.pdb
     RDKit          3D

 23 23  0  0  1  0  0  0  0  0999 V2000
   21.1289  -11.7042  -16.3048 N   0  0  0  0  0  0  0  0  0  0  0  0
   20.2646  -10.6728  -16.7763 C   0  0  1  0  0  0  0  0  0  0  0  0
   18.9936  -10.6485  -15.9585 C   0  0  0  0  0  0  0  0  0  0  0  0
   18.2040  -11.8525  -16.3255 C   0  0  0  0  0  0  0  0  0  0  0  0
   17.5516  -11.9943  -17.5367 C   0  0  0  0  0  0  0  0  0  0  0  0
   16.8260  -13.1179  -17.8552 C   0  0  0  0  0  0  0  0  0  0  0  0
   16.7393  -14.1451  -16.9423 C   0  0  0  0  0  0  0  0  0  0  0  0
   17.3751  -14.0564  -15.7094 C   0  0  0  0  0  0  0  0  0  0  0  0
   18.0909  -12.9048  -15.4410 C   0  0  0  0  0  0  0  0  0  0  0  0
   20.9944   -9.3901  -16.7186 C   0  0  0  0  0  0  0  0  0  0  0  0
   21.6955   -9.1148  -15.7184 O   0  0  0  0  0  0  0  0  0  0  0  0
   21.5492   -6.4890  -19.1033 C   0  0  0  0  0  0  0  0  0  0  0  0
   21.6001   -7.1686  -17.7460 C   0  0  2  0  0  0  0  0  0  0  0  0
   20.9133   -8.4641  -17.7800 N   0  0  0  0  0  0  0  0  0  0  0  0
   20.9253   -6.3518  -16.7037 C   0  0  0  0  0  0  0  0  0  0  0  0
   19.6653   -6.2506  -16.6423 O   0  0  0  0  0  0  0  0  0  0  0  0
   23.0230   -4.8587  -13.4193 O   0  0  0  0  0  0  0  0  0  0  0  0
   21.6908   -5.2168  -13.3508 C   0  0  0  0  0  0  0  0  0  0  0  0
   20.9802   -4.8987  -14.6470 C   0  0  2  0  0  0  0  0  0  0  0  0
   21.6474   -5.6332  -15.7110 N   0  0  0  0  0  0  0  0  0  0  0  0
   21.1225   -3.4481  -14.9797 C   0  0  0  0  0  0  0  0  0  0  0  0
   20.5969   -2.5807  -14.2351 O   0  0  0  0  0  0  0  0  0  0  0  0
   21.8176   -2.9962  -16.0887 O   0  0  0  0  0  0  0  0  0  0  0  0
  2  1  1  1
  2 10  1  0
  3  2  1  0
  4  5  2  0
  4  3  1  0
  6  5  1  0
  7  6  2  0
  8  7  1  0
  8  9  2  0
  9  4  1  0
 10 11  2  0
 10 14  1  0
 13 15  1  0
 13 12  1  6
 14 13  1  0
 15 16  2  0
 18 17  1  0
 19 18  1  1
 20 19  1  0
 20 15  1  0
 21 19  1  0
 22 21  2  0
 23 21  1  0
M  END
$$$$
