FAS.pdb
     RDKit          3D

 23 23  0  0  1  0  0  0  0  0999 V2000
   25.4401  -21.0387   -7.1606 N   0  0  0  0  0  0  0  0  0  0  0  0
   26.1850  -20.3731   -8.1780 C   0  0  1  0  0  0  0  0  0  0  0  0
   27.6657  -20.5768   -7.9526 C   0  0  0  0  0  0  0  0  0  0  0  0
   28.0202  -19.9000   -6.6782 C   0  0  0  0  0  0  0  0  0  0  0  0
   27.8220  -18.5499   -6.4530 C   0  0  0  0  0  0  0  0  0  0  0  0
   28.1579  -17.9443   -5.2653 C   0  0  0  0  0  0  0  0  0  0  0  0
   28.7124  -18.7004   -4.2568 C   0  0  0  0  0  0  0  0  0  0  0  0
   28.9340  -20.0618   -4.4282 C   0  0  0  0  0  0  0  0  0  0  0  0
   28.5778  -20.6194   -5.6418 C   0  0  0  0  0  0  0  0  0  0  0  0
   25.7411  -20.8836   -9.4908 C   0  0  0  0  0  0  0  0  0  0  0  0
   26.1335  -22.0034   -9.8907 O   0  0  0  0  0  0  0  0  0  0  0  0
   23.2917  -19.8096  -12.1634 C   0  0  0  0  0  0  0  0  0  0  0  0
   24.5455  -20.5177  -11.6803 C   0  0  2  0  0  0  0  0  0  0  0  0
   24.8760  -20.1242  -10.3066 N   0  0  0  0  0  0  0  0  0  0  0  0
   25.7220  -20.1732  -12.5207 C   0  0  0  0  0  0  0  0  0  0  0  0
   26.3800  -19.1061  -12.3483 O   0  0  0  0  0  0  0  0  0  0  0  0
   27.3260  -22.9354  -15.1236 O   0  0  0  0  0  0  0  0  0  0  0  0
   28.1290  -21.9221  -14.6378 C   0  0  0  0  0  0  0  0  0  0  0  0
   27.3245  -20.6639  -14.4011 C   0  0  2  0  0  0  0  0  0  0  0  0
   26.1840  -21.0160  -13.5693 N   0  0  0  0  0  0  0  0  0  0  0  0
   26.7668  -20.1490  -15.6892 C   0  0  0  0  0  0  0  0  0  0  0  0
   25.5223  -20.1432  -15.8743 O   0  0  0  0  0  0  0  0  0  0  0  0
   27.5637  -19.6669  -16.7137 O   0  0  0  0  0  0  0  0  0  0  0  0
  2  1  1  1
  2 10  1  0
  3  2  1  0
  4  5  2  0
  4  3  1  0
  6  5  1  0
  7  6  2  0
  8  7  1  0
  8  9  2  0
  9  4  1  0
 10 11  2  0
 10 14  1  0
 13 15  1  0
 13 12  1  6
 14 13  1  0
 15 16  2  0
 18 17  1  0
 19 18  1  6
 20 19  1  0
 20 15  1  0
 21 19  1  0
 22 21  2  0
 23 21  1  0
M  END
$$$$
