GQS.pdb
     RDKit          3D

 20 19  0  0  1  0  0  0  0  0999 V2000
   44.6085  -10.1590   -5.4582 N   0  0  0  0  0  0  0  0  0  0  0  0
   43.1899  -10.2409   -5.5947 C   0  0  0  0  0  0  0  0  0  0  0  0
   42.7110   -9.5846   -6.8644 C   0  0  0  0  0  0  0  0  0  0  0  0
   43.4808   -8.7791   -7.3926 O   0  0  0  0  0  0  0  0  0  0  0  0
   38.5040   -9.8324  -12.9263 N   0  0  0  0  0  0  0  0  0  0  0  0
   39.0455  -10.4039  -11.7422 C   0  0  0  0  0  0  0  0  0  0  0  0
   38.9879  -11.6208  -11.5756 O   0  0  0  0  0  0  0  0  0  0  0  0
   39.6690   -9.4834  -10.7477 C   0  0  0  0  0  0  0  0  0  0  0  0
   40.2044  -10.2119   -9.5520 C   0  0  0  0  0  0  0  0  0  0  0  0
   40.8166   -9.2766   -8.5394 C   0  0  2  0  0  0  0  0  0  0  0  0
   41.4418   -9.8840   -7.4141 N   0  0  0  0  0  0  0  0  0  0  0  0
   40.0312   -8.0627   -8.2749 C   0  0  0  0  0  0  0  0  0  0  0  0
   39.0166   -8.1575   -7.5397 O   0  0  0  0  0  0  0  0  0  0  0  0
   41.3096   -4.5521   -7.3280 O   0  0  0  0  0  0  0  0  0  0  0  0
   40.4209   -4.3545   -8.3806 C   0  0  0  0  0  0  0  0  0  0  0  0
   39.5729   -5.5990   -8.5246 C   0  0  2  0  0  0  0  0  0  0  0  0
   40.3545   -6.7692   -8.8081 N   0  0  0  0  0  0  0  0  0  0  0  0
   38.6120   -5.3780   -9.6235 C   0  0  0  0  0  0  0  0  0  0  0  0
   37.7655   -4.4601   -9.5195 O   0  0  0  0  0  0  0  0  0  0  0  0
   38.6086   -6.1473  -10.7685 O   0  0  0  0  0  0  0  0  0  0  0  0
  2  1  1  0
  3  2  1  0
  4  3  2  0
  6  8  1  0
  6  5  1  0
  7  6  2  0
  9  8  1  0
 10  9  1  1
 10 11  1  0
 11  3  1  0
 12 17  1  0
 12 10  1  0
 13 12  2  0
 15 14  1  0
 16 15  1  6
 16 17  1  0
 18 16  1  0
 18 20  1  0
 19 18  2  0
M  END
$$$$
