GQS.pdb
     RDKit          3D

 20 19  0  0  1  0  0  0  0  0999 V2000
   18.7755  -12.7824  -16.7353 N   0  0  0  0  0  0  0  0  0  0  0  0
   19.1617  -11.5043  -17.2403 C   0  0  0  0  0  0  0  0  0  0  0  0
   20.2048  -10.8507  -16.3704 C   0  0  0  0  0  0  0  0  0  0  0  0
   19.9408  -10.7566  -15.1696 O   0  0  0  0  0  0  0  0  0  0  0  0
   26.9427  -10.3795  -14.8517 N   0  0  0  0  0  0  0  0  0  0  0  0
   26.2355   -9.7238  -15.8967 C   0  0  0  0  0  0  0  0  0  0  0  0
   26.7959   -9.5188  -16.9718 O   0  0  0  0  0  0  0  0  0  0  0  0
   24.8257   -9.3144  -15.6322 C   0  0  0  0  0  0  0  0  0  0  0  0
   23.8559   -9.9652  -16.5720 C   0  0  0  0  0  0  0  0  0  0  0  0
   22.4253   -9.6074  -16.2556 C   0  0  2  0  0  0  0  0  0  0  0  0
   21.4214  -10.3730  -16.9131 N   0  0  0  0  0  0  0  0  0  0  0  0
   22.1693   -8.1656  -16.1282 C   0  0  0  0  0  0  0  0  0  0  0  0
   22.0480   -7.4866  -17.1785 O   0  0  0  0  0  0  0  0  0  0  0  0
   19.6905   -6.4342  -13.6658 O   0  0  0  0  0  0  0  0  0  0  0  0
   20.9012   -5.7563  -13.5594 C   0  0  0  0  0  0  0  0  0  0  0  0
   21.7367   -6.0850  -14.7769 C   0  0  2  0  0  0  0  0  0  0  0  0
   22.0488   -7.4830  -14.8707 N   0  0  0  0  0  0  0  0  0  0  0  0
   22.9914   -5.3108  -14.6983 C   0  0  0  0  0  0  0  0  0  0  0  0
   22.9346   -4.0722  -14.5176 O   0  0  0  0  0  0  0  0  0  0  0  0
   24.2328   -5.9005  -14.8166 O   0  0  0  0  0  0  0  0  0  0  0  0
  2  1  1  0
  3  2  1  0
  4  3  2  0
  6  8  1  0
  6  5  1  0
  7  6  2  0
  9  8  1  0
 10  9  1  6
 10 11  1  0
 11  3  1  0
 12 17  1  0
 12 10  1  0
 13 12  2  0
 15 14  1  0
 16 15  1  1
 16 17  1  0
 18 16  1  0
 18 20  1  0
 19 18  2  0
M  END
$$$$
