GQS.pdb
     RDKit          3D

 20 19  0  0  1  0  0  0  0  0999 V2000
   19.8968  -13.2262  -15.7567 N   0  0  0  0  0  0  0  0  0  0  0  0
   19.3982  -12.0894  -15.0518 C   0  0  0  0  0  0  0  0  0  0  0  0
   19.7248  -10.8018  -15.7640 C   0  0  0  0  0  0  0  0  0  0  0  0
   20.4714  -10.8869  -16.7417 O   0  0  0  0  0  0  0  0  0  0  0  0
   16.8012   -6.7627  -18.7803 N   0  0  0  0  0  0  0  0  0  0  0  0
   16.6250   -8.1443  -18.4932 C   0  0  0  0  0  0  0  0  0  0  0  0
   15.8584   -8.8135  -19.1833 O   0  0  0  0  0  0  0  0  0  0  0  0
   17.3943   -8.7214  -17.3530 C   0  0  0  0  0  0  0  0  0  0  0  0
   18.1962   -7.6865  -16.6228 C   0  0  0  0  0  0  0  0  0  0  0  0
   19.3866   -8.2813  -15.9130 C   0  0  2  0  0  0  0  0  0  0  0  0
   19.1971   -9.5641  -15.3257 N   0  0  0  0  0  0  0  0  0  0  0  0
   20.1802   -7.3178  -15.1369 C   0  0  0  0  0  0  0  0  0  0  0  0
   20.0191   -7.2788  -13.8914 O   0  0  0  0  0  0  0  0  0  0  0  0
   23.7180   -3.9929  -14.8772 O   0  0  0  0  0  0  0  0  0  0  0  0
   23.0648   -4.9028  -15.7031 C   0  0  0  0  0  0  0  0  0  0  0  0
   21.9055   -5.4946  -14.9324 C   0  0  2  0  0  0  0  0  0  0  0  0
   21.1327   -6.4142  -15.7185 N   0  0  0  0  0  0  0  0  0  0  0  0
   21.0365   -4.3883  -14.4843 C   0  0  0  0  0  0  0  0  0  0  0  0
   20.0994   -4.0092  -15.2246 O   0  0  0  0  0  0  0  0  0  0  0  0
   21.2162   -3.7506  -13.2744 O   0  0  0  0  0  0  0  0  0  0  0  0
  2  1  1  0
  3  2  1  0
  4  3  2  0
  6  8  1  0
  6  5  1  0
  7  6  2  0
  9  8  1  0
 10  9  1  1
 10 11  1  0
 11  3  1  0
 12 17  1  0
 12 10  1  0
 13 12  2  0
 15 14  1  0
 16 15  1  6
 16 17  1  0
 18 16  1  0
 18 20  1  0
 19 18  2  0
M  END
$$$$
