GQS.pdb
     RDKit          3D

 20 19  0  0  1  0  0  0  0  0999 V2000
   10.6579  -11.2405   -9.5282 N   0  0  0  0  0  0  0  0  0  0  0  0
   11.4486  -10.9155  -10.6715 C   0  0  0  0  0  0  0  0  0  0  0  0
   12.7492  -10.2594  -10.2842 C   0  0  0  0  0  0  0  0  0  0  0  0
   12.9003   -9.9986   -9.0886 O   0  0  0  0  0  0  0  0  0  0  0  0
   18.0465  -10.0700  -13.8064 N   0  0  0  0  0  0  0  0  0  0  0  0
   17.3305  -11.1890  -13.2990 C   0  0  0  0  0  0  0  0  0  0  0  0
   17.6336  -12.3213  -13.6704 O   0  0  0  0  0  0  0  0  0  0  0  0
   16.2325  -10.9281  -12.3237 C   0  0  0  0  0  0  0  0  0  0  0  0
   16.0472   -9.4660  -12.0496 C   0  0  0  0  0  0  0  0  0  0  0  0
   14.9313   -9.2049  -11.0690 C   0  0  2  0  0  0  0  0  0  0  0  0
   13.7397   -9.9620  -11.2503 N   0  0  0  0  0  0  0  0  0  0  0  0
   14.7589   -7.7924  -10.7006 C   0  0  0  0  0  0  0  0  0  0  0  0
   13.9407   -7.1008  -11.3571 O   0  0  0  0  0  0  0  0  0  0  0  0
   15.3995   -4.1171   -7.6216 O   0  0  0  0  0  0  0  0  0  0  0  0
   15.5875   -5.4783   -7.8417 C   0  0  0  0  0  0  0  0  0  0  0  0
   15.2818   -5.7698   -9.2943 C   0  0  2  0  0  0  0  0  0  0  0  0
   15.4719   -7.1522   -9.6312 N   0  0  0  0  0  0  0  0  0  0  0  0
   16.1721   -4.9389  -10.1290 C   0  0  0  0  0  0  0  0  0  0  0  0
   17.2846   -5.3969  -10.4789 O   0  0  0  0  0  0  0  0  0  0  0  0
   15.8257   -3.6692  -10.5423 O   0  0  0  0  0  0  0  0  0  0  0  0
  2  1  1  0
  3  2  1  0
  4  3  2  0
  6  8  1  0
  6  5  1  0
  7  6  2  0
  9  8  1  0
 10  9  1  6
 10 11  1  0
 11  3  1  0
 12 17  1  0
 12 10  1  0
 13 12  2  0
 15 14  1  0
 16 15  1  1
 16 17  1  0
 18 16  1  0
 18 20  1  0
 19 18  2  0
M  END
$$$$
