GQS.pdb
     RDKit          3D

 20 19  0  0  1  0  0  0  0  0999 V2000
   18.9152  -15.0125  -16.4015 N   0  0  0  0  0  0  0  0  0  0  0  0
   19.4096  -14.1093  -15.4127 C   0  0  0  0  0  0  0  0  0  0  0  0
   19.2297  -12.6716  -15.8281 C   0  0  0  0  0  0  0  0  0  0  0  0
   20.1026  -12.1954  -16.5574 O   0  0  0  0  0  0  0  0  0  0  0  0
   14.0002  -11.4181  -15.0270 N   0  0  0  0  0  0  0  0  0  0  0  0
   14.3452  -11.6291  -16.3903 C   0  0  0  0  0  0  0  0  0  0  0  0
   13.5896  -12.2757  -17.1135 O   0  0  0  0  0  0  0  0  0  0  0  0
   15.6254  -11.0428  -16.8826 C   0  0  0  0  0  0  0  0  0  0  0  0
   16.3253  -10.2350  -15.8315 C   0  0  0  0  0  0  0  0  0  0  0  0
   17.7927  -10.5703  -15.7353 C   0  0  2  0  0  0  0  0  0  0  0  0
   18.1135  -11.9155  -15.3982 N   0  0  0  0  0  0  0  0  0  0  0  0
   18.6193   -9.5256  -15.1141 C   0  0  0  0  0  0  0  0  0  0  0  0
   18.5813   -9.3999  -13.8645 O   0  0  0  0  0  0  0  0  0  0  0  0
   22.3052   -6.4483  -15.1910 O   0  0  0  0  0  0  0  0  0  0  0  0
   21.5927   -7.4054  -15.9073 C   0  0  0  0  0  0  0  0  0  0  0  0
   20.2638   -7.6212  -15.2175 C   0  0  2  0  0  0  0  0  0  0  0  0
   19.4714   -8.6360  -15.8520 N   0  0  0  0  0  0  0  0  0  0  0  0
   19.5227   -6.3444  -15.2338 C   0  0  0  0  0  0  0  0  0  0  0  0
   19.4777   -5.6508  -14.1912 O   0  0  0  0  0  0  0  0  0  0  0  0
   18.8730   -5.8809  -16.3589 O   0  0  0  0  0  0  0  0  0  0  0  0
  2  1  1  0
  3  2  1  0
  4  3  2  0
  6  8  1  0
  6  5  1  0
  7  6  2  0
  9  8  1  0
 10  9  1  1
 10 11  1  0
 11  3  1  0
 12 17  1  0
 12 10  1  0
 13 12  2  0
 15 14  1  0
 16 15  1  6
 16 17  1  0
 18 16  1  0
 18 20  1  0
 19 18  2  0
M  END
$$$$
