GQS.pdb
     RDKit          3D

 20 19  0  0  1  0  0  0  0  0999 V2000
   28.4816  -21.2447  -16.0370 N   0  0  0  0  0  0  0  0  0  0  0  0
   27.7722  -20.3536  -15.1765 C   0  0  0  0  0  0  0  0  0  0  0  0
   26.4722  -20.9506  -14.7016 C   0  0  0  0  0  0  0  0  0  0  0  0
   26.0947  -21.9755  -15.2741 O   0  0  0  0  0  0  0  0  0  0  0  0
   24.2515  -20.7771   -8.8622 N   0  0  0  0  0  0  0  0  0  0  0  0
   25.5356  -21.0490   -9.4094 C   0  0  0  0  0  0  0  0  0  0  0  0
   26.4845  -21.2544   -8.6550 O   0  0  0  0  0  0  0  0  0  0  0  0
   25.6673  -21.0748  -10.8950 C   0  0  0  0  0  0  0  0  0  0  0  0
   24.3839  -20.7296  -11.5884 C   0  0  0  0  0  0  0  0  0  0  0  0
   24.5045  -20.8134  -13.0895 C   0  0  2  0  0  0  0  0  0  0  0  0
   25.7303  -20.3583  -13.6521 N   0  0  0  0  0  0  0  0  0  0  0  0
   23.2791  -20.4634  -13.8220 C   0  0  0  0  0  0  0  0  0  0  0  0
   23.0650  -19.2528  -14.0815 O   0  0  0  0  0  0  0  0  0  0  0  0
   19.4635  -21.7115  -16.5114 O   0  0  0  0  0  0  0  0  0  0  0  0
   20.5213  -22.2023  -15.7520 C   0  0  0  0  0  0  0  0  0  0  0  0
   21.1160  -21.0525  -14.9693 C   0  0  2  0  0  0  0  0  0  0  0  0
   22.3076  -21.4254  -14.2608 N   0  0  0  0  0  0  0  0  0  0  0  0
   20.1043  -20.5792  -14.0038 C   0  0  0  0  0  0  0  0  0  0  0  0
   20.0912  -21.0608  -12.8471 O   0  0  0  0  0  0  0  0  0  0  0  0
   19.1658  -19.6210  -14.3263 O   0  0  0  0  0  0  0  0  0  0  0  0
  2  1  1  0
  3  2  1  0
  4  3  2  0
  6  8  1  0
  6  5  1  0
  7  6  2  0
  9  8  1  0
 10  9  1  1
 10 11  1  0
 11  3  1  0
 12 17  1  0
 12 10  1  0
 13 12  2  0
 15 14  1  0
 16 15  1  1
 16 17  1  0
 18 16  1  0
 18 20  1  0
 19 18  2  0
M  END
$$$$
