WDN.pdb
     RDKit          3D

 31 32  0  0  1  0  0  0  0  0999 V2000
   15.5337  -14.8591    6.8413 N   0  0  0  0  0  0  0  0  0  0  0  0
   16.5816  -15.7823    6.3541 C   0  0  1  0  0  0  0  0  0  0  0  0
   17.9307  -15.2078    6.5944 C   0  0  0  0  0  0  0  0  0  0  0  0
   18.3589  -14.1536    5.6679 C   0  0  0  0  0  0  0  0  0  0  0  0
   18.6424  -12.8426    5.9965 C   0  0  0  0  0  0  0  0  0  0  0  0
   18.9731  -12.1548    4.9106 N   0  0  0  0  0  0  0  0  0  0  0  0
   18.9206  -12.9837    3.8312 C   0  0  0  0  0  0  0  0  0  0  0  0
   19.1815  -12.7714    2.4883 C   0  0  0  0  0  0  0  0  0  0  0  0
   19.0706  -13.7994    1.5635 C   0  0  0  0  0  0  0  0  0  0  0  0
   18.6874  -15.0559    2.0292 C   0  0  0  0  0  0  0  0  0  0  0  0
   18.4319  -15.2473    3.3671 C   0  0  0  0  0  0  0  0  0  0  0  0
   18.5392  -14.2273    4.2988 C   0  0  0  0  0  0  0  0  0  0  0  0
   16.2943  -17.0982    6.9431 C   0  0  0  0  0  0  0  0  0  0  0  0
   16.0714  -17.2466    8.1947 O   0  0  0  0  0  0  0  0  0  0  0  0
   16.2413  -18.2986    6.1787 N   0  0  0  0  0  0  0  0  0  0  0  0
   16.3997  -19.6187    6.8319 C   0  0  1  0  0  0  0  0  0  0  0  0
   15.8456  -20.6759    5.9142 C   0  0  0  0  0  0  0  0  0  0  0  0
   15.8305  -22.0357    6.4085 C   0  0  0  0  0  0  0  0  0  0  0  0
   16.1482  -22.2266    7.6329 O   0  0  0  0  0  0  0  0  0  0  0  0
   17.8034  -19.8039    7.2266 C   0  0  0  0  0  0  0  0  0  0  0  0
   18.7054  -19.4804    6.4133 O   0  0  0  0  0  0  0  0  0  0  0  0
   15.4922  -23.1405    5.6320 O   0  0  0  0  0  0  0  0  0  0  0  0
   21.8974  -18.2447   10.5129 N   0  0  0  0  0  0  0  0  0  0  0  0
   21.5187  -18.9784    9.3647 C   0  0  0  0  0  0  0  0  0  0  0  0
   22.3923  -19.5884    8.7218 O   0  0  0  0  0  0  0  0  0  0  0  0
   20.0736  -18.9759    8.9903 C   0  0  0  0  0  0  0  0  0  0  0  0
   19.5791  -20.4277    8.8896 C   0  0  2  0  0  0  0  0  0  0  0  0
   18.1909  -20.3193    8.4655 N   0  0  0  0  0  0  0  0  0  0  0  0
   19.7796  -21.1522   10.1389 C   0  0  0  0  0  0  0  0  0  0  0  0
   20.9178  -21.8491   10.5095 O   0  0  0  0  0  0  0  0  0  0  0  0
   18.8418  -21.1684   10.9946 O   0  0  0  0  0  0  0  0  0  0  0  0
  2  1  1  1
  2 13  1  0
  2  3  1  0
  3  4  1  0
  4 12  1  0
  4  5  2  0
  5  6  1  0
  7  6  1  0
  7  8  2  0
  9  8  1  0
 10  9  2  0
 11 12  2  0
 11 10  1  0
 12  7  1  0
 13 14  2  0
 15 16  1  0
 15 13  1  0
 17 18  1  0
 16 17  1  6
 18 19  2  0
 20 16  1  0
 20 21  2  0
 22 18  1  0
 23 24  1  0
 24 25  2  0
 24 26  1  0
 27 26  1  1
 27 28  1  0
 28 20  1  0
 29 27  1  0
 29 30  1  0
 31 29  2  0
M  END
$$$$
