WDN.pdb
     RDKit          3D

 31 32  0  0  1  0  0  0  0  0999 V2000
   28.1591  -20.9284  -15.5111 N   0  0  0  0  0  0  0  0  0  0  0  0
   27.0911  -20.0271  -15.0267 C   0  0  1  0  0  0  0  0  0  0  0  0
   26.4605  -19.3117  -16.1661 C   0  0  0  0  0  0  0  0  0  0  0  0
   27.2917  -18.3067  -16.8383 C   0  0  0  0  0  0  0  0  0  0  0  0
   28.0167  -18.4897  -17.9994 C   0  0  0  0  0  0  0  0  0  0  0  0
   28.6766  -17.3815  -18.3122 N   0  0  0  0  0  0  0  0  0  0  0  0
   28.4115  -16.4311  -17.3732 C   0  0  0  0  0  0  0  0  0  0  0  0
   28.8316  -15.1186  -17.2413 C   0  0  0  0  0  0  0  0  0  0  0  0
   28.4028  -14.3298  -16.1838 C   0  0  0  0  0  0  0  0  0  0  0  0
   27.5337  -14.9008  -15.2558 C   0  0  0  0  0  0  0  0  0  0  0  0
   27.1278  -16.2067  -15.4035 C   0  0  0  0  0  0  0  0  0  0  0  0
   27.5506  -17.0032  -16.4555 C   0  0  0  0  0  0  0  0  0  0  0  0
   26.2125  -20.8343  -14.1678 C   0  0  0  0  0  0  0  0  0  0  0  0
   25.8070  -21.9975  -14.5156 O   0  0  0  0  0  0  0  0  0  0  0  0
   25.7477  -20.3933  -12.8961 N   0  0  0  0  0  0  0  0  0  0  0  0
   24.5152  -20.9617  -12.3026 C   0  0  1  0  0  0  0  0  0  0  0  0
   24.4431  -20.5435  -10.8579 C   0  0  0  0  0  0  0  0  0  0  0  0
   23.3518  -21.0762  -10.0713 C   0  0  0  0  0  0  0  0  0  0  0  0
   22.5946  -21.9492  -10.6198 O   0  0  0  0  0  0  0  0  0  0  0  0
   23.3567  -20.5821  -13.1238 C   0  0  0  0  0  0  0  0  0  0  0  0
   23.3053  -19.4161  -13.5902 O   0  0  0  0  0  0  0  0  0  0  0  0
   23.0811  -20.6945   -8.7602 O   0  0  0  0  0  0  0  0  0  0  0  0
   18.8630  -22.0179  -15.9503 N   0  0  0  0  0  0  0  0  0  0  0  0
   20.1039  -21.5010  -16.3897 C   0  0  0  0  0  0  0  0  0  0  0  0
   20.1461  -20.8480  -17.4481 O   0  0  0  0  0  0  0  0  0  0  0  0
   21.3033  -21.7746  -15.5438 C   0  0  0  0  0  0  0  0  0  0  0  0
   21.1350  -21.0651  -14.1908 C   0  0  2  0  0  0  0  0  0  0  0  0
   22.3061  -21.4539  -13.4187 N   0  0  0  0  0  0  0  0  0  0  0  0
   19.8583  -21.3919  -13.5671 C   0  0  0  0  0  0  0  0  0  0  0  0
   18.7018  -20.6312  -13.6179 O   0  0  0  0  0  0  0  0  0  0  0  0
   19.7587  -22.4703  -12.9045 O   0  0  0  0  0  0  0  0  0  0  0  0
  2  1  1  6
  2 13  1  0
  2  3  1  0
  3  4  1  0
  4 12  1  0
  4  5  2  0
  5  6  1  0
  7  6  1  0
  7  8  2  0
  9  8  1  0
 10  9  2  0
 11 12  2  0
 11 10  1  0
 12  7  1  0
 13 14  2  0
 15 16  1  0
 15 13  1  0
 17 18  1  0
 16 17  1  1
 18 19  2  0
 20 16  1  0
 20 21  2  0
 22 18  1  0
 23 24  1  0
 24 25  2  0
 24 26  1  0
 27 26  1  6
 27 28  1  0
 28 20  1  0
 29 27  1  0
 29 30  1  0
 31 29  2  0
M  END
$$$$
