WDN.pdb
     RDKit          3D

 31 32  0  0  1  0  0  0  0  0999 V2000
   25.6702  -22.2918  -11.9970 N   0  0  0  0  0  0  0  0  0  0  0  0
   25.1968  -21.1159  -11.2348 C   0  0  1  0  0  0  0  0  0  0  0  0
   26.3117  -20.1588  -11.0136 C   0  0  0  0  0  0  0  0  0  0  0  0
   27.4522  -20.6623  -10.2399 C   0  0  0  0  0  0  0  0  0  0  0  0
   28.4617  -21.4792  -10.7097 C   0  0  0  0  0  0  0  0  0  0  0  0
   29.3166  -21.7650   -9.7356 N   0  0  0  0  0  0  0  0  0  0  0  0
   28.9041  -21.1492   -8.5929 C   0  0  0  0  0  0  0  0  0  0  0  0
   29.4383  -21.1146   -7.3161 C   0  0  0  0  0  0  0  0  0  0  0  0
   28.8303  -20.3888   -6.3023 C   0  0  0  0  0  0  0  0  0  0  0  0
   27.6621  -19.6934   -6.6094 C   0  0  0  0  0  0  0  0  0  0  0  0
   27.1462  -19.7403   -7.8837 C   0  0  0  0  0  0  0  0  0  0  0  0
   27.7452  -20.4626   -8.9032 C   0  0  0  0  0  0  0  0  0  0  0  0
   24.0037  -20.6123  -11.9303 C   0  0  0  0  0  0  0  0  0  0  0  0
   23.2862  -19.6682  -11.4486 O   0  0  0  0  0  0  0  0  0  0  0  0
   23.5554  -21.1273  -13.1801 N   0  0  0  0  0  0  0  0  0  0  0  0
   22.7639  -20.2839  -14.1055 C   0  0  1  0  0  0  0  0  0  0  0  0
   23.6063  -19.9818  -15.3163 C   0  0  0  0  0  0  0  0  0  0  0  0
   22.9994  -19.1829  -16.3589 C   0  0  0  0  0  0  0  0  0  0  0  0
   22.0775  -18.3637  -16.0193 O   0  0  0  0  0  0  0  0  0  0  0  0
   21.4773  -20.9377  -14.3840 C   0  0  0  0  0  0  0  0  0  0  0  0
   20.7876  -20.5230  -15.3495 O   0  0  0  0  0  0  0  0  0  0  0  0
   23.3596  -19.2553  -17.7016 O   0  0  0  0  0  0  0  0  0  0  0  0
   19.3270  -24.7405  -13.4347 N   0  0  0  0  0  0  0  0  0  0  0  0
   19.5095  -24.3091  -12.1003 C   0  0  0  0  0  0  0  0  0  0  0  0
   19.5535  -25.1578  -11.1912 O   0  0  0  0  0  0  0  0  0  0  0  0
   19.6406  -22.8412  -11.8619 C   0  0  0  0  0  0  0  0  0  0  0  0
   19.5893  -22.1075  -13.2115 C   0  0  2  0  0  0  0  0  0  0  0  0
   20.9791  -22.0037  -13.6316 N   0  0  0  0  0  0  0  0  0  0  0  0
   18.8884  -20.8334  -13.1048 C   0  0  0  0  0  0  0  0  0  0  0  0
   17.6643  -20.5204  -13.6723 O   0  0  0  0  0  0  0  0  0  0  0  0
   19.4212  -19.8958  -12.4348 O   0  0  0  0  0  0  0  0  0  0  0  0
  2  1  1  6
  2 13  1  0
  2  3  1  0
  3  4  1  0
  4 12  1  0
  4  5  2  0
  5  6  1  0
  7  6  1  0
  7  8  2  0
  9  8  1  0
 10  9  2  0
 11 12  2  0
 11 10  1  0
 12  7  1  0
 13 14  2  0
 15 16  1  0
 15 13  1  0
 17 18  1  0
 16 17  1  6
 18 19  2  0
 20 16  1  0
 20 21  2  0
 22 18  1  0
 23 24  1  0
 24 25  2  0
 24 26  1  0
 27 26  1  1
 27 28  1  0
 28 20  1  0
 29 27  1  0
 29 30  1  0
 31 29  2  0
M  END
$$$$
