WDN.pdb
     RDKit          3D

 31 32  0  0  1  0  0  0  0  0999 V2000
   26.1180  -18.9347   -9.2190 N   0  0  0  0  0  0  0  0  0  0  0  0
   26.2988  -20.3083   -9.7369 C   0  0  1  0  0  0  0  0  0  0  0  0
   25.8485  -21.3048   -8.7309 C   0  0  0  0  0  0  0  0  0  0  0  0
   26.0658  -20.9474   -7.3245 C   0  0  0  0  0  0  0  0  0  0  0  0
   25.0963  -20.8561   -6.3453 C   0  0  0  0  0  0  0  0  0  0  0  0
   25.6372  -20.4828   -5.1922 N   0  0  0  0  0  0  0  0  0  0  0  0
   26.9775  -20.3156   -5.3681 C   0  0  0  0  0  0  0  0  0  0  0  0
   27.9868  -19.9508   -4.4936 C   0  0  0  0  0  0  0  0  0  0  0  0
   29.3055  -19.8624   -4.9150 C   0  0  0  0  0  0  0  0  0  0  0  0
   29.5838  -20.1531   -6.2494 C   0  0  0  0  0  0  0  0  0  0  0  0
   28.5674  -20.5132   -7.1034 C   0  0  0  0  0  0  0  0  0  0  0  0
   27.2471  -20.6038   -6.6928 C   0  0  0  0  0  0  0  0  0  0  0  0
   25.6600  -20.3498  -11.0602 C   0  0  0  0  0  0  0  0  0  0  0  0
   24.7214  -19.5427  -11.3854 O   0  0  0  0  0  0  0  0  0  0  0  0
   26.0291  -21.2791  -12.0742 N   0  0  0  0  0  0  0  0  0  0  0  0
   25.3967  -21.2286  -13.4128 C   0  0  1  0  0  0  0  0  0  0  0  0
   26.4003  -21.6949  -14.4338 C   0  0  0  0  0  0  0  0  0  0  0  0
   27.6480  -20.9665  -14.5121 C   0  0  0  0  0  0  0  0  0  0  0  0
   27.5875  -19.6917  -14.5998 O   0  0  0  0  0  0  0  0  0  0  0  0
   24.1339  -21.9803  -13.3860 C   0  0  0  0  0  0  0  0  0  0  0  0
   24.0661  -23.0188  -12.6812 O   0  0  0  0  0  0  0  0  0  0  0  0
   28.9021  -21.5706  -14.4977 O   0  0  0  0  0  0  0  0  0  0  0  0
   19.8124  -23.5950  -11.6490 N   0  0  0  0  0  0  0  0  0  0  0  0
   20.0068  -22.2460  -12.0265 C   0  0  0  0  0  0  0  0  0  0  0  0
   19.0268  -21.4799  -12.0584 O   0  0  0  0  0  0  0  0  0  0  0  0
   21.3961  -21.8188  -12.3674 C   0  0  0  0  0  0  0  0  0  0  0  0
   21.6698  -22.1365  -13.8460 C   0  0  2  0  0  0  0  0  0  0  0  0
   22.9976  -21.5982  -14.1026 N   0  0  0  0  0  0  0  0  0  0  0  0
   20.6215  -21.6107  -14.7123 C   0  0  0  0  0  0  0  0  0  0  0  0
   20.4735  -20.2936  -15.1146 O   0  0  0  0  0  0  0  0  0  0  0  0
   19.7407  -22.4077  -15.1607 O   0  0  0  0  0  0  0  0  0  0  0  0
  2  1  1  1
  2 13  1  0
  2  3  1  0
  3  4  1  0
  4 12  1  0
  4  5  2  0
  5  6  1  0
  7  6  1  0
  7  8  2  0
  9  8  1  0
 10  9  2  0
 11 12  2  0
 11 10  1  0
 12  7  1  0
 13 14  2  0
 15 16  1  0
 15 13  1  0
 17 18  1  0
 16 17  1  6
 18 19  2  0
 20 16  1  0
 20 21  2  0
 22 18  1  0
 23 24  1  0
 24 25  2  0
 24 26  1  0
 27 26  1  1
 27 28  1  0
 28 20  1  0
 29 27  1  0
 29 30  1  0
 31 29  2  0
M  END
$$$$
