WDN.pdb
     RDKit          3D

 31 32  0  0  1  0  0  0  0  0999 V2000
   27.4078  -21.8525  -14.1560 N   0  0  0  0  0  0  0  0  0  0  0  0
   26.3441  -21.6056  -13.1584 C   0  0  1  0  0  0  0  0  0  0  0  0
   26.6715  -20.4118  -12.3366 C   0  0  0  0  0  0  0  0  0  0  0  0
   27.7417  -20.5816  -11.3472 C   0  0  0  0  0  0  0  0  0  0  0  0
   29.0861  -20.7447  -11.6175 C   0  0  0  0  0  0  0  0  0  0  0  0
   29.7692  -20.8980  -10.4899 N   0  0  0  0  0  0  0  0  0  0  0  0
   28.9040  -20.8411   -9.4395 C   0  0  0  0  0  0  0  0  0  0  0  0
   29.1019  -20.9308   -8.0723 C   0  0  0  0  0  0  0  0  0  0  0  0
   28.0413  -20.8253   -7.1844 C   0  0  0  0  0  0  0  0  0  0  0  0
   26.7671  -20.6255   -7.7125 C   0  0  0  0  0  0  0  0  0  0  0  0
   26.5903  -20.5396   -9.0739 C   0  0  0  0  0  0  0  0  0  0  0  0
   27.6426  -20.6443   -9.9693 C   0  0  0  0  0  0  0  0  0  0  0  0
   25.0702  -21.5908  -13.8919 C   0  0  0  0  0  0  0  0  0  0  0  0
   24.8522  -20.7767  -14.8552 O   0  0  0  0  0  0  0  0  0  0  0  0
   23.9899  -22.4695  -13.5940 N   0  0  0  0  0  0  0  0  0  0  0  0
   22.7195  -22.3902  -14.3517 C   0  0  1  0  0  0  0  0  0  0  0  0
   22.2094  -23.7886  -14.5780 C   0  0  0  0  0  0  0  0  0  0  0  0
   20.9847  -23.9290  -15.3354 C   0  0  0  0  0  0  0  0  0  0  0  0
   20.1913  -24.8789  -15.0118 O   0  0  0  0  0  0  0  0  0  0  0  0
   21.7903  -21.4886  -13.6559 C   0  0  0  0  0  0  0  0  0  0  0  0
   21.8129  -21.4530  -12.3997 O   0  0  0  0  0  0  0  0  0  0  0  0
   20.6235  -23.0944  -16.3894 O   0  0  0  0  0  0  0  0  0  0  0  0
   18.1654  -18.0452  -12.7158 N   0  0  0  0  0  0  0  0  0  0  0  0
   19.2334  -17.4692  -13.4422 C   0  0  0  0  0  0  0  0  0  0  0  0
   19.2881  -16.2313  -13.5571 O   0  0  0  0  0  0  0  0  0  0  0  0
   20.2438  -18.3954  -14.0339 C   0  0  0  0  0  0  0  0  0  0  0  0
   19.8975  -19.8380  -13.6322 C   0  0  2  0  0  0  0  0  0  0  0  0
   20.8811  -20.6618  -14.3196 N   0  0  0  0  0  0  0  0  0  0  0  0
   18.5096  -20.1633  -13.9384 C   0  0  0  0  0  0  0  0  0  0  0  0
   17.4160  -19.9489  -13.1159 O   0  0  0  0  0  0  0  0  0  0  0  0
   18.2384  -20.6962  -15.0584 O   0  0  0  0  0  0  0  0  0  0  0  0
  2  1  1  6
  2 13  1  0
  2  3  1  0
  3  4  1  0
  4 12  1  0
  4  5  2  0
  5  6  1  0
  7  6  1  0
  7  8  2  0
  9  8  1  0
 10  9  2  0
 11 12  2  0
 11 10  1  0
 12  7  1  0
 13 14  2  0
 15 16  1  0
 15 13  1  0
 17 18  1  0
 16 17  1  1
 18 19  2  0
 20 16  1  0
 20 21  2  0
 22 18  1  0
 23 24  1  0
 24 25  2  0
 24 26  1  0
 27 26  1  6
 27 28  1  0
 28 20  1  0
 29 27  1  0
 29 30  1  0
 31 29  2  0
M  END
$$$$
