WDN.pdb
     RDKit          3D

 31 32  0  0  1  0  0  0  0  0999 V2000
   20.1657  -15.1492  -17.4495 N   0  0  0  0  0  0  0  0  0  0  0  0
   20.2787  -14.5343  -18.7900 C   0  0  1  0  0  0  0  0  0  0  0  0
   19.1779  -15.0046  -19.6702 C   0  0  0  0  0  0  0  0  0  0  0  0
   19.5200  -16.0684  -20.6211 C   0  0  0  0  0  0  0  0  0  0  0  0
   19.4080  -17.4273  -20.4021 C   0  0  0  0  0  0  0  0  0  0  0  0
   19.8306  -18.1032  -21.4633 N   0  0  0  0  0  0  0  0  0  0  0  0
   20.2343  -17.2185  -22.4169 C   0  0  0  0  0  0  0  0  0  0  0  0
   20.7395  -17.4003  -23.6930 C   0  0  0  0  0  0  0  0  0  0  0  0
   21.0702  -16.3184  -24.4958 C   0  0  0  0  0  0  0  0  0  0  0  0
   20.8776  -15.0393  -23.9768 C   0  0  0  0  0  0  0  0  0  0  0  0
   20.3751  -14.8787  -22.7065 C   0  0  0  0  0  0  0  0  0  0  0  0
   20.0423  -15.9525  -21.8964 C   0  0  0  0  0  0  0  0  0  0  0  0
   20.4034  -13.0844  -18.5821 C   0  0  0  0  0  0  0  0  0  0  0  0
   19.7669  -12.4756  -17.6533 O   0  0  0  0  0  0  0  0  0  0  0  0
   21.2315  -12.2508  -19.3865 N   0  0  0  0  0  0  0  0  0  0  0  0
   21.2284  -10.7806  -19.2050 C   0  0  1  0  0  0  0  0  0  0  0  0
   22.6315  -10.2713  -19.4026 C   0  0  0  0  0  0  0  0  0  0  0  0
   22.8235   -8.8377  -19.3660 C   0  0  0  0  0  0  0  0  0  0  0  0
   23.2536   -8.2683  -20.4278 O   0  0  0  0  0  0  0  0  0  0  0  0
   20.2141  -10.1813  -20.0839 C   0  0  0  0  0  0  0  0  0  0  0  0
   19.9945  -10.7141  -21.2009 O   0  0  0  0  0  0  0  0  0  0  0  0
   22.5686   -8.0484  -18.2480 O   0  0  0  0  0  0  0  0  0  0  0  0
   16.3891   -8.9740  -22.9856 N   0  0  0  0  0  0  0  0  0  0  0  0
   16.2669   -9.0563  -21.5791 C   0  0  0  0  0  0  0  0  0  0  0  0
   15.2085   -8.6834  -21.0413 O   0  0  0  0  0  0  0  0  0  0  0  0
   17.4321   -9.5938  -20.8160 C   0  0  0  0  0  0  0  0  0  0  0  0
   18.4539   -8.4660  -20.6008 C   0  0  2  0  0  0  0  0  0  0  0  0
   19.4742   -9.0475  -19.7408 N   0  0  0  0  0  0  0  0  0  0  0  0
   17.8236   -7.2629  -20.0706 C   0  0  0  0  0  0  0  0  0  0  0  0
   18.0734   -6.6807  -18.8389 O   0  0  0  0  0  0  0  0  0  0  0  0
   16.9564   -6.6635  -20.7780 O   0  0  0  0  0  0  0  0  0  0  0  0
  2  1  1  1
  2 13  1  0
  2  3  1  0
  3  4  1  0
  4 12  1  0
  4  5  2  0
  5  6  1  0
  7  6  1  0
  7  8  2  0
  9  8  1  0
 10  9  2  0
 11 12  2  0
 11 10  1  0
 12  7  1  0
 13 14  2  0
 15 16  1  0
 15 13  1  0
 17 18  1  0
 16 17  1  6
 18 19  2  0
 20 16  1  0
 20 21  2  0
 22 18  1  0
 23 24  1  0
 24 25  2  0
 24 26  1  0
 27 26  1  1
 27 28  1  0
 28 20  1  0
 29 27  1  0
 29 30  1  0
 31 29  2  0
M  END
$$$$
