WDN.pdb
     RDKit          3D

 31 32  0  0  1  0  0  0  0  0999 V2000
   26.8819  -20.6885  -12.4578 N   0  0  0  0  0  0  0  0  0  0  0  0
   25.7756  -21.1089  -11.5705 C   0  0  1  0  0  0  0  0  0  0  0  0
   26.0072  -20.6204  -10.1866 C   0  0  0  0  0  0  0  0  0  0  0  0
   27.3361  -20.8822   -9.6223 C   0  0  0  0  0  0  0  0  0  0  0  0
   28.3896  -21.5013  -10.2657 C   0  0  0  0  0  0  0  0  0  0  0  0
   29.4344  -21.5997   -9.4531 N   0  0  0  0  0  0  0  0  0  0  0  0
   29.1096  -21.0508   -8.2497 C   0  0  0  0  0  0  0  0  0  0  0  0
   29.8338  -20.8897   -7.0808 C   0  0  0  0  0  0  0  0  0  0  0  0
   29.2773  -20.2726   -5.9701 C   0  0  0  0  0  0  0  0  0  0  0  0
   27.9632  -19.8184   -6.0673 C   0  0  0  0  0  0  0  0  0  0  0  0
   27.2594  -19.9881   -7.2369 C   0  0  0  0  0  0  0  0  0  0  0  0
   27.8057  -20.6036   -8.3517 C   0  0  0  0  0  0  0  0  0  0  0  0
   24.5260  -20.7019  -12.2292 C   0  0  0  0  0  0  0  0  0  0  0  0
   24.1390  -19.4822  -12.2541 O   0  0  0  0  0  0  0  0  0  0  0  0
   23.6564  -21.6198  -12.8843 N   0  0  0  0  0  0  0  0  0  0  0  0
   22.2625  -21.2394  -13.2109 C   0  0  1  0  0  0  0  0  0  0  0  0
   22.1186  -21.1898  -14.7089 C   0  0  0  0  0  0  0  0  0  0  0  0
   20.8202  -20.8279  -15.2347 C   0  0  0  0  0  0  0  0  0  0  0  0
   20.1600  -21.7280  -15.8596 O   0  0  0  0  0  0  0  0  0  0  0  0
   21.3335  -22.1463  -12.5215 C   0  0  0  0  0  0  0  0  0  0  0  0
   21.7898  -22.9239  -11.6457 O   0  0  0  0  0  0  0  0  0  0  0  0
   20.2527  -19.5638  -15.1001 O   0  0  0  0  0  0  0  0  0  0  0  0
   17.6042  -24.6683  -10.5301 N   0  0  0  0  0  0  0  0  0  0  0  0
   18.3519  -23.7006   -9.8197 C   0  0  0  0  0  0  0  0  0  0  0  0
   18.2543  -23.6516   -8.5802 O   0  0  0  0  0  0  0  0  0  0  0  0
   19.2250  -22.7853  -10.6127 C   0  0  0  0  0  0  0  0  0  0  0  0
   19.0428  -23.0892  -12.1083 C   0  0  2  0  0  0  0  0  0  0  0  0
   19.9628  -22.1875  -12.7859 N   0  0  0  0  0  0  0  0  0  0  0  0
   17.6495  -22.9589  -12.5179 C   0  0  0  0  0  0  0  0  0  0  0  0
   16.8556  -21.8324  -12.3792 O   0  0  0  0  0  0  0  0  0  0  0  0
   17.0743  -23.9538  -13.0575 O   0  0  0  0  0  0  0  0  0  0  0  0
  2  1  1  6
  2 13  1  0
  2  3  1  0
  3  4  1  0
  4 12  1  0
  4  5  2  0
  5  6  1  0
  7  6  1  0
  7  8  2  0
  9  8  1  0
 10  9  2  0
 11 12  2  0
 11 10  1  0
 12  7  1  0
 13 14  2  0
 15 16  1  0
 15 13  1  0
 17 18  1  0
 16 17  1  6
 18 19  2  0
 20 16  1  0
 20 21  2  0
 22 18  1  0
 23 24  1  0
 24 25  2  0
 24 26  1  0
 27 26  1  1
 27 28  1  0
 28 20  1  0
 29 27  1  0
 29 30  1  0
 31 29  2  0
M  END
$$$$
