WDN.pdb
     RDKit          3D

 31 32  0  0  1  0  0  0  0  0999 V2000
   28.9157  -21.0322  -12.0449 N   0  0  0  0  0  0  0  0  0  0  0  0
   27.6338  -21.7556  -11.8993 C   0  0  1  0  0  0  0  0  0  0  0  0
   27.4645  -22.2337  -10.5027 C   0  0  0  0  0  0  0  0  0  0  0  0
   28.3060  -21.5852   -9.4907 C   0  0  0  0  0  0  0  0  0  0  0  0
   29.6850  -21.5109   -9.5001 C   0  0  0  0  0  0  0  0  0  0  0  0
   30.1214  -20.8775   -8.4186 N   0  0  0  0  0  0  0  0  0  0  0  0
   29.0508  -20.5120   -7.6600 C   0  0  0  0  0  0  0  0  0  0  0  0
   28.9577  -19.8282   -6.4599 C   0  0  0  0  0  0  0  0  0  0  0  0
   27.7266  -19.5574   -5.8809 C   0  0  0  0  0  0  0  0  0  0  0  0
   26.5832  -19.9959   -6.5463 C   0  0  0  0  0  0  0  0  0  0  0  0
   26.6959  -20.6744   -7.7376 C   0  0  0  0  0  0  0  0  0  0  0  0
   27.9206  -20.9505   -8.3240 C   0  0  0  0  0  0  0  0  0  0  0  0
   26.5876  -20.8776  -12.4431 C   0  0  0  0  0  0  0  0  0  0  0  0
   26.5635  -19.6211  -12.2005 O   0  0  0  0  0  0  0  0  0  0  0  0
   25.5302  -21.3479  -13.2729 N   0  0  0  0  0  0  0  0  0  0  0  0
   24.6209  -20.3956  -13.9517 C   0  0  1  0  0  0  0  0  0  0  0  0
   24.9727  -20.3587  -15.4152 C   0  0  0  0  0  0  0  0  0  0  0  0
   24.1749  -19.4999  -16.2634 C   0  0  0  0  0  0  0  0  0  0  0  0
   23.2650  -18.7938  -15.7065 O   0  0  0  0  0  0  0  0  0  0  0  0
   23.2268  -20.7513  -13.6506 C   0  0  0  0  0  0  0  0  0  0  0  0
   22.9143  -21.9674  -13.5942 O   0  0  0  0  0  0  0  0  0  0  0  0
   24.3403  -19.3996  -17.6420 O   0  0  0  0  0  0  0  0  0  0  0  0
   19.1718  -21.0389  -11.2795 N   0  0  0  0  0  0  0  0  0  0  0  0
   19.4372  -19.6532  -11.1815 C   0  0  0  0  0  0  0  0  0  0  0  0
   18.9246  -19.0038  -10.2519 O   0  0  0  0  0  0  0  0  0  0  0  0
   20.3290  -19.0471  -12.2139 C   0  0  0  0  0  0  0  0  0  0  0  0
   20.8392  -20.1553  -13.1488 C   0  0  2  0  0  0  0  0  0  0  0  0
   22.2260  -19.8051  -13.4186 N   0  0  0  0  0  0  0  0  0  0  0  0
   20.0020  -20.2859  -14.3354 C   0  0  0  0  0  0  0  0  0  0  0  0
   19.0147  -21.2350  -14.5424 O   0  0  0  0  0  0  0  0  0  0  0  0
   20.1651  -19.4681  -15.2928 O   0  0  0  0  0  0  0  0  0  0  0  0
  2  1  1  1
  2 13  1  0
  2  3  1  0
  3  4  1  0
  4 12  1  0
  4  5  2  0
  5  6  1  0
  7  6  1  0
  7  8  2  0
  9  8  1  0
 10  9  2  0
 11 12  2  0
 11 10  1  0
 12  7  1  0
 13 14  2  0
 15 16  1  0
 15 13  1  0
 17 18  1  0
 16 17  1  6
 18 19  2  0
 20 16  1  0
 20 21  2  0
 22 18  1  0
 23 24  1  0
 24 25  2  0
 24 26  1  0
 27 26  1  1
 27 28  1  0
 28 20  1  0
 29 27  1  0
 29 30  1  0
 31 29  2  0
M  END
$$$$
