WDN.pdb
     RDKit          3D

 31 32  0  0  1  0  0  0  0  0999 V2000
   27.5436  -22.4573  -13.1985 N   0  0  0  0  0  0  0  0  0  0  0  0
   26.5328  -21.6781  -12.4510 C   0  0  1  0  0  0  0  0  0  0  0  0
   27.1592  -20.4882  -11.8190 C   0  0  0  0  0  0  0  0  0  0  0  0
   28.1037  -20.7571  -10.7288 C   0  0  0  0  0  0  0  0  0  0  0  0
   29.4137  -21.1720  -10.8662 C   0  0  0  0  0  0  0  0  0  0  0  0
   29.9711  -21.3463   -9.6743 N   0  0  0  0  0  0  0  0  0  0  0  0
   29.0531  -21.0534   -8.7117 C   0  0  0  0  0  0  0  0  0  0  0  0
   29.1277  -21.0615   -7.3293 C   0  0  0  0  0  0  0  0  0  0  0  0
   28.0391  -20.7006   -6.5489 C   0  0  0  0  0  0  0  0  0  0  0  0
   26.8649  -20.3285   -7.2011 C   0  0  0  0  0  0  0  0  0  0  0  0
   26.8098  -20.3273   -8.5755 C   0  0  0  0  0  0  0  0  0  0  0  0
   27.8911  -20.6865   -9.3641 C   0  0  0  0  0  0  0  0  0  0  0  0
   25.4132  -21.4409  -13.3736 C   0  0  0  0  0  0  0  0  0  0  0  0
   25.5949  -20.9939  -14.5591 O   0  0  0  0  0  0  0  0  0  0  0  0
   24.0537  -21.6860  -13.0276 N   0  0  0  0  0  0  0  0  0  0  0  0
   22.9706  -21.4645  -14.0136 C   0  0  1  0  0  0  0  0  0  0  0  0
   23.0496  -22.5429  -15.0613 C   0  0  0  0  0  0  0  0  0  0  0  0
   23.0433  -23.9136  -14.5981 C   0  0  0  0  0  0  0  0  0  0  0  0
   21.9102  -24.4487  -14.3404 O   0  0  0  0  0  0  0  0  0  0  0  0
   21.6830  -21.3651  -13.3117 C   0  0  0  0  0  0  0  0  0  0  0  0
   21.4919  -22.0848  -12.2991 O   0  0  0  0  0  0  0  0  0  0  0  0
   24.1929  -24.6778  -14.4181 O   0  0  0  0  0  0  0  0  0  0  0  0
   19.6067  -17.7375  -11.6238 N   0  0  0  0  0  0  0  0  0  0  0  0
   19.6287  -18.0377  -13.0057 C   0  0  0  0  0  0  0  0  0  0  0  0
   20.3809  -17.3872  -13.7537 O   0  0  0  0  0  0  0  0  0  0  0  0
   18.7355  -19.1324  -13.4878 C   0  0  0  0  0  0  0  0  0  0  0  0
   19.3408  -20.4870  -13.0863 C   0  0  2  0  0  0  0  0  0  0  0  0
   20.6561  -20.5061  -13.7096 N   0  0  0  0  0  0  0  0  0  0  0  0
   18.4727  -21.5966  -13.4617 C   0  0  0  0  0  0  0  0  0  0  0  0
   18.7122  -22.5235  -14.4627 O   0  0  0  0  0  0  0  0  0  0  0  0
   17.3823  -21.7609  -12.8323 O   0  0  0  0  0  0  0  0  0  0  0  0
  2  1  1  6
  2 13  1  0
  2  3  1  0
  3  4  1  0
  4 12  1  0
  4  5  2  0
  5  6  1  0
  7  6  1  0
  7  8  2  0
  9  8  1  0
 10  9  2  0
 11 12  2  0
 11 10  1  0
 12  7  1  0
 13 14  2  0
 15 16  1  0
 15 13  1  0
 17 18  1  0
 16 17  1  6
 18 19  2  0
 20 16  1  0
 20 21  2  0
 22 18  1  0
 23 24  1  0
 24 25  2  0
 24 26  1  0
 27 26  1  6
 27 28  1  0
 28 20  1  0
 29 27  1  0
 29 30  1  0
 31 29  2  0
M  END
$$$$
