WDN.pdb
     RDKit          3D

 31 32  0  0  1  0  0  0  0  0999 V2000
   21.7607  -21.5961  -61.3590 N   0  0  0  0  0  0  0  0  0  0  0  0
   21.4520  -22.4439  -62.5310 C   0  0  1  0  0  0  0  0  0  0  0  0
   21.6524  -21.6805  -63.7899 C   0  0  0  0  0  0  0  0  0  0  0  0
   21.3083  -20.2549  -63.7432 C   0  0  0  0  0  0  0  0  0  0  0  0
   20.0924  -19.7195  -63.3662 C   0  0  0  0  0  0  0  0  0  0  0  0
   20.1184  -18.3964  -63.4670 N   0  0  0  0  0  0  0  0  0  0  0  0
   21.3473  -18.0126  -63.9115 C   0  0  0  0  0  0  0  0  0  0  0  0
   21.8896  -16.7652  -64.1697 C   0  0  0  0  0  0  0  0  0  0  0  0
   23.1979  -16.6275  -64.6098 C   0  0  0  0  0  0  0  0  0  0  0  0
   23.9517  -17.7868  -64.7845 C   0  0  0  0  0  0  0  0  0  0  0  0
   23.3953  -19.0173  -64.5234 C   0  0  0  0  0  0  0  0  0  0  0  0
   22.0895  -19.1658  -64.0841 C   0  0  0  0  0  0  0  0  0  0  0  0
   22.2178  -23.6881  -62.3676 C   0  0  0  0  0  0  0  0  0  0  0  0
   21.6771  -24.8399  -62.5059 O   0  0  0  0  0  0  0  0  0  0  0  0
   23.6050  -23.7122  -62.0465 N   0  0  0  0  0  0  0  0  0  0  0  0
   24.4106  -22.4696  -62.0798 C   0  0  1  0  0  0  0  0  0  0  0  0
   24.1614  -21.7036  -60.8077 C   0  0  0  0  0  0  0  0  0  0  0  0
   23.1263  -20.6931  -60.8388 C   0  0  0  0  0  0  0  0  0  0  0  0
   22.8725  -20.0686  -59.7516 O   0  0  0  0  0  0  0  0  0  0  0  0
   25.8170  -22.8053  -62.3443 C   0  0  0  0  0  0  0  0  0  0  0  0
   26.6254  -22.8138  -61.3818 O   0  0  0  0  0  0  0  0  0  0  0  0
   22.3958  -20.3647  -61.9774 O   0  0  0  0  0  0  0  0  0  0  0  0
   28.2513  -26.1202  -63.4138 N   0  0  0  0  0  0  0  0  0  0  0  0
   28.5722  -25.2759  -62.3256 C   0  0  0  0  0  0  0  0  0  0  0  0
   29.0979  -25.7699  -61.3117 O   0  0  0  0  0  0  0  0  0  0  0  0
   28.2564  -23.8233  -62.4633 C   0  0  0  0  0  0  0  0  0  0  0  0
   27.6684  -23.5681  -63.8602 C   0  0  2  0  0  0  0  0  0  0  0  0
   26.3052  -23.1212  -63.6141 N   0  0  0  0  0  0  0  0  0  0  0  0
   27.7789  -24.7451  -64.7136 C   0  0  0  0  0  0  0  0  0  0  0  0
   28.0239  -24.7501  -66.0768 O   0  0  0  0  0  0  0  0  0  0  0  0
   27.6426  -25.8946  -64.1919 O   0  0  0  0  0  0  0  0  0  0  0  0
  2  1  1  1
  2 13  1  0
  2  3  1  0
  3  4  1  0
  4 12  1  0
  4  5  2  0
  5  6  1  0
  7  6  1  0
  7  8  2  0
  9  8  1  0
 10  9  2  0
 11 12  2  0
 11 10  1  0
 12  7  1  0
 13 14  2  0
 15 16  1  0
 15 13  1  0
 17 18  1  0
 16 17  1  1
 18 19  2  0
 20 16  1  0
 20 21  2  0
 22 18  1  0
 23 24  1  0
 24 25  2  0
 24 26  1  0
 27 26  1  1
 27 28  1  0
 28 20  1  0
 29 27  1  0
 29 30  1  0
 31 29  2  0
M  END
$$$$
