WDN.pdb
     RDKit          3D

 31 32  0  0  1  0  0  0  0  0999 V2000
   23.8758  -19.0890  -18.2106 N   0  0  0  0  0  0  0  0  0  0  0  0
   23.2028  -20.2325  -17.5570 C   0  0  1  0  0  0  0  0  0  0  0  0
   23.8493  -20.5388  -16.2547 C   0  0  0  0  0  0  0  0  0  0  0  0
   24.9951  -21.4542  -16.3012 C   0  0  0  0  0  0  0  0  0  0  0  0
   26.3253  -21.1056  -16.1742 C   0  0  0  0  0  0  0  0  0  0  0  0
   27.0980  -22.1783  -16.2925 N   0  0  0  0  0  0  0  0  0  0  0  0
   26.3088  -23.2687  -16.5002 C   0  0  0  0  0  0  0  0  0  0  0  0
   26.6097  -24.6090  -16.6726 C   0  0  0  0  0  0  0  0  0  0  0  0
   25.6092  -25.5522  -16.8563 C   0  0  0  0  0  0  0  0  0  0  0  0
   24.2882  -25.1078  -16.8618 C   0  0  0  0  0  0  0  0  0  0  0  0
   24.0090  -23.7720  -16.6896 C   0  0  0  0  0  0  0  0  0  0  0  0
   25.0008  -22.8219  -16.5060 C   0  0  0  0  0  0  0  0  0  0  0  0
   21.7653  -19.9253  -17.5405 C   0  0  0  0  0  0  0  0  0  0  0  0
   21.3262  -18.7496  -17.2891 O   0  0  0  0  0  0  0  0  0  0  0  0
   20.7581  -20.8981  -17.7996 N   0  0  0  0  0  0  0  0  0  0  0  0
   19.3299  -20.5100  -17.8622 C   0  0  1  0  0  0  0  0  0  0  0  0
   18.8469  -20.6895  -19.2769 C   0  0  0  0  0  0  0  0  0  0  0  0
   19.3696  -19.7788  -20.2724 C   0  0  0  0  0  0  0  0  0  0  0  0
   19.7922  -18.6396  -19.8722 O   0  0  0  0  0  0  0  0  0  0  0  0
   18.5758  -21.2536  -16.8429 C   0  0  0  0  0  0  0  0  0  0  0  0
   17.3438  -21.0336  -16.7255 O   0  0  0  0  0  0  0  0  0  0  0  0
   19.4379  -20.0703  -21.6319 O   0  0  0  0  0  0  0  0  0  0  0  0
   18.5701  -24.6249  -13.0301 N   0  0  0  0  0  0  0  0  0  0  0  0
   19.7185  -23.8122  -12.8860 C   0  0  0  0  0  0  0  0  0  0  0  0
   20.5855  -24.1331  -12.0529 O   0  0  0  0  0  0  0  0  0  0  0  0
   19.8210  -22.6028  -13.7551 C   0  0  0  0  0  0  0  0  0  0  0  0
   18.6070  -22.5576  -14.6967 C   0  0  2  0  0  0  0  0  0  0  0  0
   19.1571  -22.1999  -15.9960 N   0  0  0  0  0  0  0  0  0  0  0  0
   17.5758  -21.6534  -14.2020 C   0  0  0  0  0  0  0  0  0  0  0  0
   16.2621  -21.9857  -13.9152 O   0  0  0  0  0  0  0  0  0  0  0  0
   17.8736  -20.4354  -14.0028 O   0  0  0  0  0  0  0  0  0  0  0  0
  2  1  1  1
  2 13  1  0
  2  3  1  0
  3  4  1  0
  4 12  1  0
  4  5  2  0
  5  6  1  0
  7  6  1  0
  7  8  2  0
  9  8  1  0
 10  9  2  0
 11 12  2  0
 11 10  1  0
 12  7  1  0
 13 14  2  0
 15 16  1  0
 15 13  1  0
 17 18  1  0
 16 17  1  6
 18 19  2  0
 20 16  1  0
 20 21  2  0
 22 18  1  0
 23 24  1  0
 24 25  2  0
 24 26  1  0
 27 26  1  1
 27 28  1  0
 28 20  1  0
 29 27  1  0
 29 30  1  0
 31 29  2  0
M  END
$$$$
