WDN.pdb
     RDKit          3D

 31 32  0  0  1  0  0  0  0  0999 V2000
   24.1236  -20.0627  -11.8206 N   0  0  0  0  0  0  0  0  0  0  0  0
   25.5649  -19.7637  -11.9657 C   0  0  1  0  0  0  0  0  0  0  0  0
   26.3790  -20.7738  -11.2413 C   0  0  0  0  0  0  0  0  0  0  0  0
   26.1588  -20.8641   -9.7935 C   0  0  0  0  0  0  0  0  0  0  0  0
   25.1838  -21.6091   -9.1600 C   0  0  0  0  0  0  0  0  0  0  0  0
   25.2526  -21.4390   -7.8456 N   0  0  0  0  0  0  0  0  0  0  0  0
   26.2716  -20.5798   -7.5654 C   0  0  0  0  0  0  0  0  0  0  0  0
   26.7645  -20.0881   -6.3688 C   0  0  0  0  0  0  0  0  0  0  0  0
   27.8446  -19.2181   -6.3398 C   0  0  0  0  0  0  0  0  0  0  0  0
   28.4199  -18.8533   -7.5558 C   0  0  0  0  0  0  0  0  0  0  0  0
   27.9158  -19.3517   -8.7346 C   0  0  0  0  0  0  0  0  0  0  0  0
   26.8372  -20.2206   -8.7745 C   0  0  0  0  0  0  0  0  0  0  0  0
   25.8205  -19.5969  -13.4037 C   0  0  0  0  0  0  0  0  0  0  0  0
   25.4699  -20.4800  -14.2614 O   0  0  0  0  0  0  0  0  0  0  0  0
   26.4701  -18.4543  -13.9517 N   0  0  0  0  0  0  0  0  0  0  0  0
   26.7270  -18.3558  -15.4072 C   0  0  1  0  0  0  0  0  0  0  0  0
   27.0110  -16.9166  -15.7466 C   0  0  0  0  0  0  0  0  0  0  0  0
   25.8857  -16.0072  -15.7563 C   0  0  0  0  0  0  0  0  0  0  0  0
   24.8023  -16.4082  -16.3057 O   0  0  0  0  0  0  0  0  0  0  0  0
   27.7810  -19.3087  -15.7836 C   0  0  0  0  0  0  0  0  0  0  0  0
   28.9603  -19.0789  -15.4145 O   0  0  0  0  0  0  0  0  0  0  0  0
   25.9155  -14.7291  -15.2055 O   0  0  0  0  0  0  0  0  0  0  0  0
   30.7548  -23.5587  -15.8981 N   0  0  0  0  0  0  0  0  0  0  0  0
   29.4061  -23.6467  -16.3145 C   0  0  0  0  0  0  0  0  0  0  0  0
   29.0467  -24.6227  -16.9976 O   0  0  0  0  0  0  0  0  0  0  0  0
   28.4839  -22.5475  -15.9021 C   0  0  0  0  0  0  0  0  0  0  0  0
   28.5859  -21.3993  -16.9188 C   0  0  2  0  0  0  0  0  0  0  0  0
   27.5403  -20.4642  -16.5302 N   0  0  0  0  0  0  0  0  0  0  0  0
   28.4897  -21.8851  -18.2902 C   0  0  0  0  0  0  0  0  0  0  0  0
   27.3231  -22.1783  -18.9768 O   0  0  0  0  0  0  0  0  0  0  0  0
   29.5582  -22.0696  -18.9508 O   0  0  0  0  0  0  0  0  0  0  0  0
  2  1  1  6
  2 13  1  0
  2  3  1  0
  3  4  1  0
  4 12  1  0
  4  5  2  0
  5  6  1  0
  7  6  1  0
  7  8  2  0
  9  8  1  0
 10  9  2  0
 11 12  2  0
 11 10  1  0
 12  7  1  0
 13 14  2  0
 15 16  1  0
 15 13  1  0
 17 18  1  0
 16 17  1  1
 18 19  2  0
 20 16  1  0
 20 21  2  0
 22 18  1  0
 23 24  1  0
 24 25  2  0
 24 26  1  0
 27 26  1  1
 27 28  1  0
 28 20  1  0
 29 27  1  0
 29 30  1  0
 31 29  2  0
M  END
$$$$
