WDN.pdb
     RDKit          3D

 31 32  0  0  1  0  0  0  0  0999 V2000
   28.4803  -21.2397  -10.5951 N   0  0  0  0  0  0  0  0  0  0  0  0
   27.1105  -21.1941  -10.0391 C   0  0  1  0  0  0  0  0  0  0  0  0
   27.0582  -20.2862   -8.8640 C   0  0  0  0  0  0  0  0  0  0  0  0
   28.1392  -20.4354   -7.8831 C   0  0  0  0  0  0  0  0  0  0  0  0
   29.3777  -21.0021   -8.1117 C   0  0  0  0  0  0  0  0  0  0  0  0
   30.1001  -20.9995   -6.9983 N   0  0  0  0  0  0  0  0  0  0  0  0
   29.3679  -20.4327   -5.9995 C   0  0  0  0  0  0  0  0  0  0  0  0
   29.6568  -20.1812   -4.6691 C   0  0  0  0  0  0  0  0  0  0  0  0
   28.7329  -19.5657   -3.8371 C   0  0  0  0  0  0  0  0  0  0  0  0
   27.5017  -19.2075   -4.3833 C   0  0  0  0  0  0  0  0  0  0  0  0
   27.2328  -19.4662   -5.7072 C   0  0  0  0  0  0  0  0  0  0  0  0
   28.1482  -20.0808   -6.5464 C   0  0  0  0  0  0  0  0  0  0  0  0
   26.2075  -20.8981  -11.1607 C   0  0  0  0  0  0  0  0  0  0  0  0
   26.4304  -19.9357  -11.9746 O   0  0  0  0  0  0  0  0  0  0  0  0
   25.0272  -21.6483  -11.4290 N   0  0  0  0  0  0  0  0  0  0  0  0
   24.2030  -21.3594  -12.6255 C   0  0  1  0  0  0  0  0  0  0  0  0
   24.2372  -22.5614  -13.5315 C   0  0  0  0  0  0  0  0  0  0  0  0
   25.3666  -22.6788  -14.4283 C   0  0  0  0  0  0  0  0  0  0  0  0
   25.9330  -21.5991  -14.8154 O   0  0  0  0  0  0  0  0  0  0  0  0
   22.8620  -20.9299  -12.2037 C   0  0  0  0  0  0  0  0  0  0  0  0
   22.7206  -20.4370  -11.0562 O   0  0  0  0  0  0  0  0  0  0  0  0
   25.8680  -23.8924  -14.8907 O   0  0  0  0  0  0  0  0  0  0  0  0
   19.4589  -18.0532  -11.7368 N   0  0  0  0  0  0  0  0  0  0  0  0
   20.5248  -17.6631  -12.5804 C   0  0  0  0  0  0  0  0  0  0  0  0
   20.8201  -16.4570  -12.6631 O   0  0  0  0  0  0  0  0  0  0  0  0
   21.2402  -18.7381  -13.3296 C   0  0  0  0  0  0  0  0  0  0  0  0
   20.6199  -20.0977  -12.9704 C   0  0  2  0  0  0  0  0  0  0  0  0
   21.7308  -21.0371  -13.0159 N   0  0  0  0  0  0  0  0  0  0  0  0
   19.5052  -20.4295  -13.8497 C   0  0  0  0  0  0  0  0  0  0  0  0
   19.5708  -20.6256  -15.2193 O   0  0  0  0  0  0  0  0  0  0  0  0
   18.3465  -20.5592  -13.3471 O   0  0  0  0  0  0  0  0  0  0  0  0
  2  1  1  6
  2 13  1  0
  2  3  1  0
  3  4  1  0
  4 12  1  0
  4  5  2  0
  5  6  1  0
  7  6  1  0
  7  8  2  0
  9  8  1  0
 10  9  2  0
 11 12  2  0
 11 10  1  0
 12  7  1  0
 13 14  2  0
 15 16  1  0
 15 13  1  0
 17 18  1  0
 16 17  1  6
 18 19  2  0
 20 16  1  0
 20 21  2  0
 22 18  1  0
 23 24  1  0
 24 25  2  0
 24 26  1  0
 27 26  1  6
 27 28  1  0
 28 20  1  0
 29 27  1  0
 29 30  1  0
 31 29  2  0
M  END
$$$$
