WDN.pdb
     RDKit          3D

 31 32  0  0  1  0  0  0  0  0999 V2000
   26.8327  -22.1075  -12.5483 N   0  0  0  0  0  0  0  0  0  0  0  0
   26.4294  -21.1793  -11.4696 C   0  0  1  0  0  0  0  0  0  0  0  0
   27.5085  -20.1929  -11.2046 C   0  0  0  0  0  0  0  0  0  0  0  0
   28.8294  -20.7487  -10.8893 C   0  0  0  0  0  0  0  0  0  0  0  0
   29.8099  -21.0922  -11.7992 C   0  0  0  0  0  0  0  0  0  0  0  0
   30.8683  -21.5906  -11.1725 N   0  0  0  0  0  0  0  0  0  0  0  0
   30.6257  -21.5934   -9.8322 C   0  0  0  0  0  0  0  0  0  0  0  0
   31.3965  -21.9921   -8.7535 C   0  0  0  0  0  0  0  0  0  0  0  0
   30.9255  -21.8800   -7.4535 C   0  0  0  0  0  0  0  0  0  0  0  0
   29.6493  -21.3522   -7.2662 C   0  0  0  0  0  0  0  0  0  0  0  0
   28.8982  -20.9621   -8.3506 C   0  0  0  0  0  0  0  0  0  0  0  0
   29.3589  -21.0703   -9.6529 C   0  0  0  0  0  0  0  0  0  0  0  0
   25.1079  -20.6507  -11.8373 C   0  0  0  0  0  0  0  0  0  0  0  0
   24.4892  -19.8029  -11.1046 O   0  0  0  0  0  0  0  0  0  0  0  0
   24.4182  -21.0340  -13.0227 N   0  0  0  0  0  0  0  0  0  0  0  0
   23.0810  -20.4775  -13.3332 C   0  0  1  0  0  0  0  0  0  0  0  0
   23.0601  -20.0614  -14.7801 C   0  0  0  0  0  0  0  0  0  0  0  0
   23.4456  -18.6994  -15.0798 C   0  0  0  0  0  0  0  0  0  0  0  0
   22.7614  -17.7576  -14.5493 O   0  0  0  0  0  0  0  0  0  0  0  0
   22.0458  -21.4458  -12.9442 C   0  0  0  0  0  0  0  0  0  0  0  0
   22.3850  -22.4529  -12.2729 O   0  0  0  0  0  0  0  0  0  0  0  0
   24.5116  -18.3584  -15.9076 O   0  0  0  0  0  0  0  0  0  0  0  0
   17.8456  -23.7057  -11.5663 N   0  0  0  0  0  0  0  0  0  0  0  0
   18.7235  -23.0424  -10.6779 C   0  0  0  0  0  0  0  0  0  0  0  0
   18.6219  -23.2553   -9.4560 O   0  0  0  0  0  0  0  0  0  0  0  0
   19.7326  -22.1149  -11.2698 C   0  0  0  0  0  0  0  0  0  0  0  0
   19.6548  -22.2011  -12.8024 C   0  0  2  0  0  0  0  0  0  0  0  0
   20.6973  -21.3040  -13.2789 N   0  0  0  0  0  0  0  0  0  0  0  0
   18.3160  -21.8934  -13.2912 C   0  0  0  0  0  0  0  0  0  0  0  0
   17.7115  -20.6472  -13.2983 O   0  0  0  0  0  0  0  0  0  0  0  0
   17.6054  -22.8337  -13.7632 O   0  0  0  0  0  0  0  0  0  0  0  0
  2  1  1  6
  2 13  1  0
  2  3  1  0
  3  4  1  0
  4 12  1  0
  4  5  2  0
  5  6  1  0
  7  6  1  0
  7  8  2  0
  9  8  1  0
 10  9  2  0
 11 12  2  0
 11 10  1  0
 12  7  1  0
 13 14  2  0
 15 16  1  0
 15 13  1  0
 17 18  1  0
 16 17  1  6
 18 19  2  0
 20 16  1  0
 20 21  2  0
 22 18  1  0
 23 24  1  0
 24 25  2  0
 24 26  1  0
 27 26  1  1
 27 28  1  0
 28 20  1  0
 29 27  1  0
 29 30  1  0
 31 29  2  0
M  END
$$$$
