QTI.pdb
     RDKit          3D

 25 24  0  0  1  0  0  0  0  0999 V2000
   20.2010  -17.4861  -15.5784 N   0  0  0  0  0  0  0  0  0  0  0  0
   18.8296  -17.7211  -15.7968 C   0  0  0  0  0  0  0  0  0  0  0  0
   18.2738  -18.7458  -15.3008 O   0  0  0  0  0  0  0  0  0  0  0  0
   18.0740  -16.7292  -16.6224 C   0  0  0  0  0  0  0  0  0  0  0  0
   18.9809  -15.5477  -16.8447 C   0  0  0  0  0  0  0  0  0  0  0  0
   18.3641  -14.5127  -17.7504 C   0  0  2  0  0  0  0  0  0  0  0  0
   18.1506  -15.1306  -19.0426 N   0  0  0  0  0  0  0  0  0  0  0  0
   19.3072  -13.3585  -17.8518 C   0  0  0  0  0  0  0  0  0  0  0  0
   20.4152  -13.4879  -18.4382 O   0  0  0  0  0  0  0  0  0  0  0  0
   18.9024  -10.2017  -19.6576 C   0  0  0  0  0  0  0  0  0  0  0  0
   19.2635   -9.8286  -18.2572 C   0  0  1  0  0  0  0  0  0  0  0  0
   18.1689   -9.4412  -17.4858 O   0  0  0  0  0  0  0  0  0  0  0  0
   19.9282  -10.9853  -17.5016 C   0  0  2  0  0  0  0  0  0  0  0  0
   19.0257  -12.0748  -17.3094 N   0  0  0  0  0  0  0  0  0  0  0  0
   20.5301  -10.4824  -16.2464 C   0  0  0  0  0  0  0  0  0  0  0  0
   19.8672  -10.6624  -15.1899 O   0  0  0  0  0  0  0  0  0  0  0  0
   25.9811  -10.2128  -15.2493 C   0  0  0  0  0  0  0  0  0  0  0  0
   24.6737   -9.5349  -15.6001 C   0  0  0  0  0  0  0  0  0  0  0  0
   23.6433   -9.9597  -14.5771 C   0  0  2  0  0  0  0  0  0  0  0  0
   23.6285  -11.4532  -14.4855 C   0  0  0  0  0  0  0  0  0  0  0  0
   22.2814   -9.3778  -14.8802 C   0  0  2  0  0  0  0  0  0  0  0  0
   21.7658   -9.8303  -16.1509 N   0  0  0  0  0  0  0  0  0  0  0  0
   22.4222   -7.8840  -14.8644 C   0  0  0  0  0  0  0  0  0  0  0  0
   22.5456   -7.1678  -13.6824 O   0  0  0  0  0  0  0  0  0  0  0  0
   22.4316   -7.2370  -15.9422 O   0  0  0  0  0  0  0  0  0  0  0  0
  2  1  1  0
  3  2  2  0
  4  2  1  0
  5  4  1  0
  6  5  1  0
  6  7  1  6
  8  9  2  0
  8  6  1  0
 11 10  1  6
 11 12  1  0
 13 11  1  0
 13 14  1  1
 14  8  1  0
 15 13  1  0
 15 16  2  0
 18 19  1  0
 18 17  1  0
 19 21  1  0
 19 20  1  6
 21 22  1  6
 21 23  1  0
 22 15  1  0
 23 25  2  0
 23 24  1  0
M  END
$$$$
