QTI.pdb
     RDKit          3D

 25 24  0  0  1  0  0  0  0  0999 V2000
   18.3213  -21.0552  -10.6302 N   0  0  0  0  0  0  0  0  0  0  0  0
   18.6594  -20.0267  -11.5312 C   0  0  0  0  0  0  0  0  0  0  0  0
   18.9106  -18.8622  -11.1006 O   0  0  0  0  0  0  0  0  0  0  0  0
   18.7078  -20.3626  -12.9877 C   0  0  0  0  0  0  0  0  0  0  0  0
   19.7378  -21.4469  -13.1637 C   0  0  0  0  0  0  0  0  0  0  0  0
   19.8781  -21.8779  -14.6012 C   0  0  2  0  0  0  0  0  0  0  0  0
   19.3071  -23.2034  -14.7204 N   0  0  0  0  0  0  0  0  0  0  0  0
   21.3311  -21.8814  -14.9486 C   0  0  0  0  0  0  0  0  0  0  0  0
   22.0548  -22.8723  -14.6608 O   0  0  0  0  0  0  0  0  0  0  0  0
   25.0543  -20.3941  -17.7482 C   0  0  0  0  0  0  0  0  0  0  0  0
   23.6057  -20.3718  -17.3853 C   0  0  1  0  0  0  0  0  0  0  0  0
   22.8127  -21.1617  -18.2163 O   0  0  0  0  0  0  0  0  0  0  0  0
   23.3574  -20.8737  -15.9580 C   0  0  2  0  0  0  0  0  0  0  0  0
   21.9753  -20.7988  -15.6077 N   0  0  0  0  0  0  0  0  0  0  0  0
   24.2497  -20.1623  -15.0154 C   0  0  0  0  0  0  0  0  0  0  0  0
   23.8413  -19.0532  -14.5783 O   0  0  0  0  0  0  0  0  0  0  0  0
   28.0430  -20.7411  -10.4002 C   0  0  0  0  0  0  0  0  0  0  0  0
   27.6464  -19.8496  -11.5578 C   0  0  0  0  0  0  0  0  0  0  0  0
   26.8403  -20.6836  -12.5290 C   0  0  2  0  0  0  0  0  0  0  0  0
   27.6669  -21.8455  -12.9826 C   0  0  0  0  0  0  0  0  0  0  0  0
   26.3161  -19.8532  -13.6783 C   0  0  2  0  0  0  0  0  0  0  0  0
   25.4972  -20.6275  -14.5812 N   0  0  0  0  0  0  0  0  0  0  0  0
   27.5053  -19.2833  -14.3942 C   0  0  0  0  0  0  0  0  0  0  0  0
   28.1064  -18.0976  -13.9968 O   0  0  0  0  0  0  0  0  0  0  0  0
   27.9918  -19.8793  -15.3886 O   0  0  0  0  0  0  0  0  0  0  0  0
  2  1  1  0
  3  2  2  0
  4  2  1  0
  5  4  1  0
  6  5  1  0
  6  7  1  1
  8  9  2  0
  8  6  1  0
 11 10  1  6
 11 12  1  0
 13 11  1  0
 13 14  1  1
 14  8  1  0
 15 13  1  0
 15 16  2  0
 18 19  1  0
 18 17  1  0
 19 21  1  0
 19 20  1  6
 21 22  1  6
 21 23  1  0
 22 15  1  0
 23 25  2  0
 23 24  1  0
M  END
$$$$
