QTI.pdb
     RDKit          3D

 25 24  0  0  1  0  0  0  0  0999 V2000
   15.1212  -16.5794  -20.6521 N   0  0  0  0  0  0  0  0  0  0  0  0
   14.7482  -16.3704  -19.3101 C   0  0  0  0  0  0  0  0  0  0  0  0
   13.5284  -16.2125  -19.0070 O   0  0  0  0  0  0  0  0  0  0  0  0
   15.8324  -16.3436  -18.2802 C   0  0  0  0  0  0  0  0  0  0  0  0
   16.5642  -15.0365  -18.4338 C   0  0  0  0  0  0  0  0  0  0  0  0
   17.0320  -14.4816  -17.1127 C   0  0  2  0  0  0  0  0  0  0  0  0
   15.8572  -14.1885  -16.3183 N   0  0  0  0  0  0  0  0  0  0  0  0
   17.8268  -13.2452  -17.3799 C   0  0  0  0  0  0  0  0  0  0  0  0
   18.8858  -13.3006  -18.0610 O   0  0  0  0  0  0  0  0  0  0  0  0
   16.7212  -10.0615  -19.1008 C   0  0  0  0  0  0  0  0  0  0  0  0
   17.3407   -9.6846  -17.7951 C   0  0  1  0  0  0  0  0  0  0  0  0
   16.4077   -9.3846  -16.8037 O   0  0  0  0  0  0  0  0  0  0  0  0
   18.2209  -10.8036  -17.2261 C   0  0  2  0  0  0  0  0  0  0  0  0
   17.4524  -11.9611  -16.8977 N   0  0  0  0  0  0  0  0  0  0  0  0
   19.0244  -10.2828  -16.0974 C   0  0  0  0  0  0  0  0  0  0  0  0
   18.5586  -10.4644  -14.9407 O   0  0  0  0  0  0  0  0  0  0  0  0
   23.7937  -11.5946  -14.8805 C   0  0  0  0  0  0  0  0  0  0  0  0
   22.3494  -11.1407  -14.8861 C   0  0  0  0  0  0  0  0  0  0  0  0
   22.3399   -9.6289  -14.9408 C   0  0  2  0  0  0  0  0  0  0  0  0
   23.0661   -9.0895  -13.7489 C   0  0  0  0  0  0  0  0  0  0  0  0
   20.9360   -9.0827  -15.0682 C   0  0  2  0  0  0  0  0  0  0  0  0
   20.2478   -9.6125  -16.2219 N   0  0  0  0  0  0  0  0  0  0  0  0
   21.0458   -7.5887  -15.1536 C   0  0  0  0  0  0  0  0  0  0  0  0
   20.9732   -6.9122  -16.3629 O   0  0  0  0  0  0  0  0  0  0  0  0
   21.2091   -6.9047  -14.1115 O   0  0  0  0  0  0  0  0  0  0  0  0
  2  1  1  0
  3  2  2  0
  4  2  1  0
  5  4  1  0
  6  5  1  0
  6  7  1  1
  8  9  2  0
  8  6  1  0
 11 10  1  6
 11 12  1  0
 13 11  1  0
 13 14  1  1
 14  8  1  0
 15 13  1  0
 15 16  2  0
 18 19  1  0
 18 17  1  0
 19 21  1  0
 19 20  1  1
 21 22  1  6
 21 23  1  0
 22 15  1  0
 23 25  2  0
 23 24  1  0
M  END
$$$$
