QTI.pdb
     RDKit          3D

 25 24  0  0  1  0  0  0  0  0999 V2000
   15.3443  -20.1447  -15.3075 N   0  0  0  0  0  0  0  0  0  0  0  0
   15.6048  -18.9588  -14.5937 C   0  0  0  0  0  0  0  0  0  0  0  0
   14.9159  -17.9192  -14.8160 O   0  0  0  0  0  0  0  0  0  0  0  0
   16.7070  -18.9800  -13.5831 C   0  0  0  0  0  0  0  0  0  0  0  0
   17.2743  -20.3748  -13.5678 C   0  0  0  0  0  0  0  0  0  0  0  0
   18.2551  -20.6083  -14.6882 C   0  0  2  0  0  0  0  0  0  0  0  0
   17.6175  -21.4756  -15.6569 N   0  0  0  0  0  0  0  0  0  0  0  0
   19.4782  -21.2456  -14.1139 C   0  0  0  0  0  0  0  0  0  0  0  0
   19.3972  -21.9787  -13.0919 O   0  0  0  0  0  0  0  0  0  0  0  0
   21.1955  -23.9474  -15.5262 C   0  0  0  0  0  0  0  0  0  0  0  0
   22.2539  -22.9138  -15.3204 C   0  0  1  0  0  0  0  0  0  0  0  0
   22.5400  -22.1757  -16.4679 O   0  0  0  0  0  0  0  0  0  0  0  0
   21.8665  -21.8930  -14.2440 C   0  0  2  0  0  0  0  0  0  0  0  0
   20.7770  -21.0724  -14.6657 N   0  0  0  0  0  0  0  0  0  0  0  0
   23.0625  -21.1267  -13.8279 C   0  0  0  0  0  0  0  0  0  0  0  0
   23.0673  -19.8958  -14.0978 O   0  0  0  0  0  0  0  0  0  0  0  0
   25.2541  -20.8863   -9.0456 C   0  0  0  0  0  0  0  0  0  0  0  0
   24.7208  -20.6259  -10.4384 C   0  0  0  0  0  0  0  0  0  0  0  0
   25.7880  -21.0404  -11.4274 C   0  0  2  0  0  0  0  0  0  0  0  0
   27.0526  -20.3001  -11.1247 C   0  0  0  0  0  0  0  0  0  0  0  0
   25.3287  -20.8560  -12.8558 C   0  0  2  0  0  0  0  0  0  0  0  0
   24.1730  -21.6646  -13.1654 N   0  0  0  0  0  0  0  0  0  0  0  0
   26.4831  -21.2153  -13.7444 C   0  0  0  0  0  0  0  0  0  0  0  0
   27.4667  -20.2968  -14.0825 O   0  0  0  0  0  0  0  0  0  0  0  0
   26.5861  -22.3784  -14.2105 O   0  0  0  0  0  0  0  0  0  0  0  0
  2  1  1  0
  3  2  2  0
  4  2  1  0
  5  4  1  0
  6  5  1  0
  6  7  1  6
  8  9  2  0
  8  6  1  0
 11 10  1  6
 11 12  1  0
 13 11  1  0
 13 14  1  6
 14  8  1  0
 15 13  1  0
 15 16  2  0
 18 19  1  0
 18 17  1  0
 19 21  1  0
 19 20  1  1
 21 22  1  6
 21 23  1  0
 22 15  1  0
 23 25  2  0
 23 24  1  0
M  END
$$$$
