QTI.pdb
     RDKit          3D

 25 24  0  0  1  0  0  0  0  0999 V2000
   27.3122  -23.8901  -16.8657 N   0  0  0  0  0  0  0  0  0  0  0  0
   28.6165  -23.9076  -17.3971 C   0  0  0  0  0  0  0  0  0  0  0  0
   28.9957  -24.8776  -18.1184 O   0  0  0  0  0  0  0  0  0  0  0  0
   29.5153  -22.7553  -17.0793 C   0  0  0  0  0  0  0  0  0  0  0  0
   28.7415  -21.8139  -16.1946 C   0  0  0  0  0  0  0  0  0  0  0  0
   27.8135  -20.9215  -16.9785 C   0  0  2  0  0  0  0  0  0  0  0  0
   28.6286  -20.0758  -17.8256 N   0  0  0  0  0  0  0  0  0  0  0  0
   27.0166  -20.1098  -16.0101 C   0  0  0  0  0  0  0  0  0  0  0  0
   26.9621  -18.8554  -16.1201 O   0  0  0  0  0  0  0  0  0  0  0  0
   22.7677  -19.3655  -14.7940 C   0  0  0  0  0  0  0  0  0  0  0  0
   24.0571  -19.7928  -15.4149 C   0  0  1  0  0  0  0  0  0  0  0  0
   24.5648  -18.8720  -16.3302 O   0  0  0  0  0  0  0  0  0  0  0  0
   25.1600  -20.0081  -14.3720 C   0  0  2  0  0  0  0  0  0  0  0  0
   26.2879  -20.6815  -14.9314 N   0  0  0  0  0  0  0  0  0  0  0  0
   24.5966  -20.6804  -13.1797 C   0  0  0  0  0  0  0  0  0  0  0  0
   24.0448  -21.7974  -13.3686 O   0  0  0  0  0  0  0  0  0  0  0  0
   26.6654  -19.5905   -8.2820 C   0  0  0  0  0  0  0  0  0  0  0  0
   26.2050  -20.3933   -9.4802 C   0  0  0  0  0  0  0  0  0  0  0  0
   24.6941  -20.4588   -9.4403 C   0  0  2  0  0  0  0  0  0  0  0  0
   24.2696  -21.3118   -8.2866 C   0  0  0  0  0  0  0  0  0  0  0  0
   24.1197  -20.9271  -10.7579 C   0  0  2  0  0  0  0  0  0  0  0  0
   24.6328  -20.1706  -11.8758 N   0  0  0  0  0  0  0  0  0  0  0  0
   22.6280  -20.7944  -10.6652 C   0  0  0  0  0  0  0  0  0  0  0  0
   21.8041  -21.8858  -10.4300 O   0  0  0  0  0  0  0  0  0  0  0  0
   22.0821  -19.6701  -10.8014 O   0  0  0  0  0  0  0  0  0  0  0  0
  2  1  1  0
  3  2  2  0
  4  2  1  0
  5  4  1  0
  6  5  1  0
  6  7  1  6
  8  9  2  0
  8  6  1  0
 11 10  1  1
 11 12  1  0
 13 11  1  0
 13 14  1  6
 14  8  1  0
 15 13  1  0
 15 16  2  0
 18 19  1  0
 18 17  1  0
 19 21  1  0
 19 20  1  1
 21 22  1  6
 21 23  1  0
 22 15  1  0
 23 25  2  0
 23 24  1  0
M  END
$$$$
