QTI.pdb
     RDKit          3D

 25 24  0  0  1  0  0  0  0  0999 V2000
   19.2002  -25.7342   -6.6708 N   0  0  0  0  0  0  0  0  0  0  0  0
   18.3225  -24.7308   -6.2164 C   0  0  0  0  0  0  0  0  0  0  0  0
   17.7916  -24.8227   -5.0699 O   0  0  0  0  0  0  0  0  0  0  0  0
   18.0503  -23.5764   -7.1275 C   0  0  0  0  0  0  0  0  0  0  0  0
   18.8054  -23.8267   -8.4060 C   0  0  0  0  0  0  0  0  0  0  0  0
   17.8914  -23.9504   -9.5981 C   0  0  2  0  0  0  0  0  0  0  0  0
   17.2503  -25.2471   -9.5277 N   0  0  0  0  0  0  0  0  0  0  0  0
   18.7174  -23.8218  -10.8362 C   0  0  0  0  0  0  0  0  0  0  0  0
   19.4582  -24.7697  -11.2118 O   0  0  0  0  0  0  0  0  0  0  0  0
   19.2032  -22.3033  -15.3733 C   0  0  0  0  0  0  0  0  0  0  0  0
   18.4750  -22.4027  -14.0731 C   0  0  1  0  0  0  0  0  0  0  0  0
   17.5489  -23.4439  -14.0333 O   0  0  0  0  0  0  0  0  0  0  0  0
   19.4252  -22.6333  -12.8922 C   0  0  2  0  0  0  0  0  0  0  0  0
   18.7229  -22.6555  -11.6493 N   0  0  0  0  0  0  0  0  0  0  0  0
   20.5265  -21.6454  -12.9360 C   0  0  0  0  0  0  0  0  0  0  0  0
   20.2867  -20.5095  -12.4459 O   0  0  0  0  0  0  0  0  0  0  0  0
   25.8612  -22.5818  -12.3030 C   0  0  0  0  0  0  0  0  0  0  0  0
   24.4604  -22.0114  -12.2372 C   0  0  0  0  0  0  0  0  0  0  0  0
   24.1831  -21.3130  -13.5502 C   0  0  2  0  0  0  0  0  0  0  0  0
   25.1912  -20.2256  -13.7508 C   0  0  0  0  0  0  0  0  0  0  0  0
   22.7586  -20.8131  -13.6278 C   0  0  2  0  0  0  0  0  0  0  0  0
   21.7974  -21.8800  -13.4754 N   0  0  0  0  0  0  0  0  0  0  0  0
   22.5963  -20.1364  -14.9572 C   0  0  0  0  0  0  0  0  0  0  0  0
   22.6411  -18.7561  -15.0920 O   0  0  0  0  0  0  0  0  0  0  0  0
   22.4126  -20.8184  -15.9972 O   0  0  0  0  0  0  0  0  0  0  0  0
  2  1  1  0
  3  2  2  0
  4  2  1  0
  5  4  1  0
  6  5  1  0
  6  7  1  6
  8  9  2  0
  8  6  1  0
 11 10  1  6
 11 12  1  0
 13 11  1  0
 13 14  1  1
 14  8  1  0
 15 13  1  0
 15 16  2  0
 18 19  1  0
 18 17  1  0
 19 21  1  0
 19 20  1  1
 21 22  1  6
 21 23  1  0
 22 15  1  0
 23 25  2  0
 23 24  1  0
M  END
$$$$
