QTI.pdb
     RDKit          3D

 25 24  0  0  1  0  0  0  0  0999 V2000
   25.6100  -21.3995  -10.1187 N   0  0  0  0  0  0  0  0  0  0  0  0
   24.3809  -21.3951   -9.4308 C   0  0  0  0  0  0  0  0  0  0  0  0
   24.3510  -21.6063   -8.1821 O   0  0  0  0  0  0  0  0  0  0  0  0
   23.1388  -21.1357  -10.2224 C   0  0  0  0  0  0  0  0  0  0  0  0
   23.5561  -20.9189  -11.6530 C   0  0  0  0  0  0  0  0  0  0  0  0
   22.3886  -20.5919  -12.5485 C   0  0  2  0  0  0  0  0  0  0  0  0
   21.5670  -21.7800  -12.6509 N   0  0  0  0  0  0  0  0  0  0  0  0
   22.9225  -20.1866  -13.8836 C   0  0  0  0  0  0  0  0  0  0  0  0
   23.3316  -21.0560  -14.6993 O   0  0  0  0  0  0  0  0  0  0  0  0
   22.3332  -18.5005  -17.9980 C   0  0  0  0  0  0  0  0  0  0  0  0
   22.2050  -19.0525  -16.6161 C   0  0  1  0  0  0  0  0  0  0  0  0
   22.3057  -20.4418  -16.5614 O   0  0  0  0  0  0  0  0  0  0  0  0
   23.2848  -18.5104  -15.6723 C   0  0  2  0  0  0  0  0  0  0  0  0
   23.0024  -18.8328  -14.3104 N   0  0  0  0  0  0  0  0  0  0  0  0
   23.4790  -17.0629  -15.9133 C   0  0  0  0  0  0  0  0  0  0  0  0
   22.4836  -16.3175  -15.7098 O   0  0  0  0  0  0  0  0  0  0  0  0
   27.9658  -12.9009  -15.7114 C   0  0  0  0  0  0  0  0  0  0  0  0
   26.5099  -13.1723  -16.0256 C   0  0  0  0  0  0  0  0  0  0  0  0
   26.3041  -14.6710  -16.0067 C   0  0  2  0  0  0  0  0  0  0  0  0
   27.2673  -15.3112  -16.9561 C   0  0  0  0  0  0  0  0  0  0  0  0
   24.8666  -15.0418  -16.2916 C   0  0  2  0  0  0  0  0  0  0  0  0
   24.6729  -16.4718  -16.3451 N   0  0  0  0  0  0  0  0  0  0  0  0
   24.4932  -14.4049  -17.5979 C   0  0  0  0  0  0  0  0  0  0  0  0
   24.0438  -13.0945  -17.6771 O   0  0  0  0  0  0  0  0  0  0  0  0
   24.5812  -15.0571  -18.6690 O   0  0  0  0  0  0  0  0  0  0  0  0
  2  1  1  0
  3  2  2  0
  4  2  1  0
  5  4  1  0
  6  5  1  0
  6  7  1  6
  8  9  2  0
  8  6  1  0
 11 10  1  6
 11 12  1  0
 13 11  1  0
 13 14  1  1
 14  8  1  0
 15 13  1  0
 15 16  2  0
 18 19  1  0
 18 17  1  0
 19 21  1  0
 19 20  1  6
 21 22  1  6
 21 23  1  0
 22 15  1  0
 23 25  2  0
 23 24  1  0
M  END
$$$$
