QTI.pdb
     RDKit          3D

 25 24  0  0  1  0  0  0  0  0999 V2000
   15.3252  -17.1252  -14.5748 N   0  0  0  0  0  0  0  0  0  0  0  0
   15.6678  -15.7590  -14.5804 C   0  0  0  0  0  0  0  0  0  0  0  0
   16.4414  -15.2944  -13.6914 O   0  0  0  0  0  0  0  0  0  0  0  0
   15.0904  -14.8990  -15.6591 C   0  0  0  0  0  0  0  0  0  0  0  0
   16.1076  -13.8350  -15.9766 C   0  0  0  0  0  0  0  0  0  0  0  0
   15.6166  -12.8642  -17.0200 C   0  0  2  0  0  0  0  0  0  0  0  0
   15.4754  -13.5909  -18.2646 N   0  0  0  0  0  0  0  0  0  0  0  0
   16.6210  -11.7655  -17.1459 C   0  0  0  0  0  0  0  0  0  0  0  0
   17.5352  -11.8312  -18.0110 O   0  0  0  0  0  0  0  0  0  0  0  0
   15.8174   -8.1366  -17.7841 C   0  0  0  0  0  0  0  0  0  0  0  0
   16.7851   -8.1849  -16.6476 C   0  0  1  0  0  0  0  0  0  0  0  0
   16.1892   -7.9930  -15.4020 O   0  0  0  0  0  0  0  0  0  0  0  0
   17.5175   -9.5294  -16.5659 C   0  0  2  0  0  0  0  0  0  0  0  0
   16.6128  -10.6067  -16.3223 N   0  0  0  0  0  0  0  0  0  0  0  0
   18.6171   -9.4408  -15.5790 C   0  0  0  0  0  0  0  0  0  0  0  0
   18.3693   -9.8620  -14.4175 O   0  0  0  0  0  0  0  0  0  0  0  0
   24.3628  -10.4241  -14.4998 C   0  0  0  0  0  0  0  0  0  0  0  0
   23.1974   -9.5497  -14.0883 C   0  0  0  0  0  0  0  0  0  0  0  0
   22.1245   -9.6805  -15.1468 C   0  0  2  0  0  0  0  0  0  0  0  0
   22.7059   -9.3336  -16.4812 C   0  0  0  0  0  0  0  0  0  0  0  0
   20.9019   -8.8582  -14.8086 C   0  0  2  0  0  0  0  0  0  0  0  0
   19.8944   -8.9297  -15.8407 N   0  0  0  0  0  0  0  0  0  0  0  0
   21.3589   -7.4432  -14.6081 C   0  0  0  0  0  0  0  0  0  0  0  0
   21.8596   -6.9954  -13.3940 O   0  0  0  0  0  0  0  0  0  0  0  0
   21.2969   -6.6171  -15.5538 O   0  0  0  0  0  0  0  0  0  0  0  0
  2  1  1  0
  3  2  2  0
  4  2  1  0
  5  4  1  0
  6  5  1  0
  6  7  1  6
  8  9  2  0
  8  6  1  0
 11 10  1  6
 11 12  1  0
 13 11  1  0
 13 14  1  1
 14  8  1  0
 15 13  1  0
 15 16  2  0
 18 19  1  0
 18 17  1  0
 19 21  1  0
 19 20  1  6
 21 22  1  6
 21 23  1  0
 22 15  1  0
 23 25  2  0
 23 24  1  0
M  END
$$$$
