NAP.pdb
     RDKit          3D

 21 21  0  0  1  0  0  0  0  0999 V2000
   12.4778  -19.3599   21.3702 N   0  0  0  0  0  0  0  0  0  0  0  0
   12.9807  -18.0534   21.4833 C   0  0  0  0  0  0  0  0  0  0  0  0
   14.1220  -17.7609   21.0596 O   0  0  0  0  0  0  0  0  0  0  0  0
   12.1902  -16.9440   22.1107 C   0  0  0  0  0  0  0  0  0  0  0  0
   10.9527  -16.7113   21.3141 C   0  0  2  0  0  0  0  0  0  0  0  0
   11.3424  -16.2717   19.9663 N   0  0  0  0  0  0  0  0  0  0  0  0
   10.1040  -15.6617   21.8951 C   0  0  0  0  0  0  0  0  0  0  0  0
   10.6072  -14.6028   22.3650 O   0  0  0  0  0  0  0  0  0  0  0  0
    6.4125  -15.1341   22.4991 C   0  0  0  0  0  0  0  0  0  0  0  0
    7.8973  -14.8126   22.7395 C   0  0  2  0  0  0  0  0  0  0  0  0
    8.6665  -15.7425   21.9764 N   0  0  0  0  0  0  0  0  0  0  0  0
    8.1911  -14.6624   24.1527 C   0  0  0  0  0  0  0  0  0  0  0  0
    9.2128  -15.3387   24.6154 O   0  0  0  0  0  0  0  0  0  0  0  0
    7.5512  -13.8961   25.1451 N   0  0  0  0  0  0  0  0  0  0  0  0
    6.3401  -13.1564   25.0709 C   0  0  0  0  0  0  0  0  0  0  0  0
    6.7478  -11.8441   25.7556 C   0  0  0  0  0  0  0  0  0  0  0  0
    7.7732  -12.2406   26.7683 C   0  0  0  0  0  0  0  0  0  0  0  0
    8.0173  -13.6846   26.5315 C   0  0  1  0  0  0  0  0  0  0  0  0
    7.2599  -14.5102   27.4845 C   0  0  0  0  0  0  0  0  0  0  0  0
    7.7260  -14.7204   28.7755 O   0  0  0  0  0  0  0  0  0  0  0  0
    6.1726  -15.0524   27.1723 O   0  0  0  0  0  0  0  0  0  0  0  0
  2  3  2  0
  2  1  1  0
  4  2  1  0
  5  4  1  0
  5  6  1  6
  5  7  1  0
  7  8  2  0
 10  9  1  1
 10 12  1  0
 11  7  1  0
 11 10  1  0
 12 14  1  0
 13 12  2  0
 14 15  1  0
 14 18  1  0
 15 16  1  0
 16 17  1  0
 18 17  1  0
 19 20  1  0
 18 19  1  1
 21 19  2  0
M  END
$$$$
