NAP.pdb
     RDKit          3D

 21 21  0  0  1  0  0  0  0  0999 V2000
    8.7460  -12.7867   16.9978 N   0  0  0  0  0  0  0  0  0  0  0  0
    8.1542  -13.9258   17.5679 C   0  0  0  0  0  0  0  0  0  0  0  0
    8.2384  -15.0448   17.0127 O   0  0  0  0  0  0  0  0  0  0  0  0
    7.3953  -13.8704   18.8603 C   0  0  0  0  0  0  0  0  0  0  0  0
    8.3277  -14.1455   19.9895 C   0  0  2  0  0  0  0  0  0  0  0  0
    8.8845  -15.4950   19.8153 N   0  0  0  0  0  0  0  0  0  0  0  0
    7.6510  -14.1096   21.2935 C   0  0  0  0  0  0  0  0  0  0  0  0
    7.2738  -13.0165   21.8018 O   0  0  0  0  0  0  0  0  0  0  0  0
    6.4250  -16.5865   23.8552 C   0  0  0  0  0  0  0  0  0  0  0  0
    6.9216  -15.1918   23.4384 C   0  0  2  0  0  0  0  0  0  0  0  0
    7.3640  -15.2812   22.0837 N   0  0  0  0  0  0  0  0  0  0  0  0
    7.8207  -14.6256   24.4269 C   0  0  0  0  0  0  0  0  0  0  0  0
    9.0990  -14.6543   24.1431 O   0  0  0  0  0  0  0  0  0  0  0  0
    7.5536  -14.0344   25.6761 N   0  0  0  0  0  0  0  0  0  0  0  0
    6.3064  -13.8157   26.3211 C   0  0  0  0  0  0  0  0  0  0  0  0
    6.4724  -12.3708   26.8129 C   0  0  0  0  0  0  0  0  0  0  0  0
    7.9335  -12.2246   27.0921 C   0  0  0  0  0  0  0  0  0  0  0  0
    8.5487  -13.4908   26.6239 C   0  0  1  0  0  0  0  0  0  0  0  0
    8.7791  -14.4116   27.7475 C   0  0  0  0  0  0  0  0  0  0  0  0
    9.8481  -14.2274   28.6144 O   0  0  0  0  0  0  0  0  0  0  0  0
    8.0263  -15.3909   27.9658 O   0  0  0  0  0  0  0  0  0  0  0  0
  2  3  2  0
  2  1  1  0
  4  2  1  0
  5  4  1  0
  5  6  1  6
  5  7  1  0
  7  8  2  0
 10  9  1  1
 10 12  1  0
 11  7  1  0
 11 10  1  0
 12 14  1  0
 13 12  2  0
 14 15  1  0
 14 18  1  0
 15 16  1  0
 16 17  1  0
 18 17  1  0
 19 20  1  0
 18 19  1  1
 21 19  2  0
M  END
$$$$
