NAP.pdb
     RDKit          3D

 21 21  0  0  1  0  0  0  0  0999 V2000
   13.9180  -17.6418   19.9625 N   0  0  0  0  0  0  0  0  0  0  0  0
   12.5432  -17.5356   19.6957 C   0  0  0  0  0  0  0  0  0  0  0  0
   11.9509  -18.3936   19.0024 O   0  0  0  0  0  0  0  0  0  0  0  0
   11.7124  -16.4019   20.2189 C   0  0  0  0  0  0  0  0  0  0  0  0
   10.8161  -16.9065   21.2969 C   0  0  2  0  0  0  0  0  0  0  0  0
    9.8469  -17.8365   20.6992 N   0  0  0  0  0  0  0  0  0  0  0  0
   10.0557  -15.8268   21.9416 C   0  0  0  0  0  0  0  0  0  0  0  0
   10.6409  -14.9193   22.5968 O   0  0  0  0  0  0  0  0  0  0  0  0
    6.4258  -14.8331   22.2636 C   0  0  0  0  0  0  0  0  0  0  0  0
    7.9048  -14.7627   22.6797 C   0  0  2  0  0  0  0  0  0  0  0  0
    8.6197  -15.7086   21.8841 N   0  0  0  0  0  0  0  0  0  0  0  0
    8.0587  -14.8106   24.1219 C   0  0  0  0  0  0  0  0  0  0  0  0
    8.8586  -15.7324   24.5970 O   0  0  0  0  0  0  0  0  0  0  0  0
    7.4808  -14.0183   25.1317 N   0  0  0  0  0  0  0  0  0  0  0  0
    6.3929  -13.1076   25.0505 C   0  0  0  0  0  0  0  0  0  0  0  0
    6.9449  -11.9103   25.8373 C   0  0  0  0  0  0  0  0  0  0  0  0
    7.8466  -12.5093   26.8678 C   0  0  0  0  0  0  0  0  0  0  0  0
    7.8957  -13.9573   26.5489 C   0  0  1  0  0  0  0  0  0  0  0  0
    6.9777  -14.7180   27.4104 C   0  0  0  0  0  0  0  0  0  0  0  0
    5.7587  -15.1750   26.9275 O   0  0  0  0  0  0  0  0  0  0  0  0
    7.2565  -14.9819   28.6045 O   0  0  0  0  0  0  0  0  0  0  0  0
  2  3  2  0
  2  1  1  0
  4  2  1  0
  5  4  1  0
  5  6  1  6
  5  7  1  0
  7  8  2  0
 10  9  1  1
 10 12  1  0
 11  7  1  0
 11 10  1  0
 12 14  1  0
 13 12  2  0
 14 15  1  0
 14 18  1  0
 15 16  1  0
 16 17  1  0
 18 17  1  0
 19 20  1  0
 18 19  1  1
 21 19  2  0
M  END
$$$$
