NAP.pdb
     RDKit          3D

 21 21  0  0  1  0  0  0  0  0999 V2000
   11.4540  -16.8558   16.4491 N   0  0  0  0  0  0  0  0  0  0  0  0
   11.9668  -17.0373   17.7441 C   0  0  0  0  0  0  0  0  0  0  0  0
   13.0958  -17.5465   17.9269 O   0  0  0  0  0  0  0  0  0  0  0  0
   11.2018  -16.6368   18.9703 C   0  0  0  0  0  0  0  0  0  0  0  0
    9.8542  -16.1436   18.5691 C   0  0  2  0  0  0  0  0  0  0  0  0
   10.0118  -15.2425   17.4181 N   0  0  0  0  0  0  0  0  0  0  0  0
    9.1962  -15.3835   19.6409 C   0  0  0  0  0  0  0  0  0  0  0  0
    9.8168  -14.4882   20.2802 O   0  0  0  0  0  0  0  0  0  0  0  0
    5.7432  -15.1536   21.1402 C   0  0  0  0  0  0  0  0  0  0  0  0
    7.2609  -14.9059   21.1675 C   0  0  2  0  0  0  0  0  0  0  0  0
    7.8263  -15.5831   20.0448 N   0  0  0  0  0  0  0  0  0  0  0  0
    7.8209  -15.1544   22.4830 C   0  0  0  0  0  0  0  0  0  0  0  0
    8.8560  -15.9549   22.5392 O   0  0  0  0  0  0  0  0  0  0  0  0
    7.4352  -14.6739   23.7486 N   0  0  0  0  0  0  0  0  0  0  0  0
    6.3735  -13.7943   24.0931 C   0  0  0  0  0  0  0  0  0  0  0  0
    7.0773  -12.8438   25.0721 C   0  0  0  0  0  0  0  0  0  0  0  0
    8.1169  -13.6825   25.7429 C   0  0  0  0  0  0  0  0  0  0  0  0
    8.0746  -14.9899   25.0430 C   0  0  1  0  0  0  0  0  0  0  0  0
    7.2872  -15.9706   25.8057 C   0  0  0  0  0  0  0  0  0  0  0  0
    7.8374  -16.6397   26.8909 O   0  0  0  0  0  0  0  0  0  0  0  0
    6.0984  -16.2394   25.5094 O   0  0  0  0  0  0  0  0  0  0  0  0
  2  3  2  0
  2  1  1  0
  4  2  1  0
  5  4  1  0
  5  6  1  6
  5  7  1  0
  7  8  2  0
 10  9  1  1
 10 12  1  0
 11  7  1  0
 11 10  1  0
 12 14  1  0
 13 12  2  0
 14 15  1  0
 14 18  1  0
 15 16  1  0
 16 17  1  0
 18 17  1  0
 19 20  1  0
 18 19  1  1
 21 19  2  0
M  END
$$$$
