NAP.pdb
     RDKit          3D

 21 21  0  0  1  0  0  0  0  0999 V2000
   12.1450  -18.7585   20.6952 N   0  0  0  0  0  0  0  0  0  0  0  0
   11.7707  -17.5111   20.1691 C   0  0  0  0  0  0  0  0  0  0  0  0
   12.0385  -17.2017   18.9858 O   0  0  0  0  0  0  0  0  0  0  0  0
   11.0367  -16.4877   20.9834 C   0  0  0  0  0  0  0  0  0  0  0  0
    9.5698  -16.7078   20.8422 C   0  0  2  0  0  0  0  0  0  0  0  0
    9.1428  -16.1778   19.5390 N   0  0  0  0  0  0  0  0  0  0  0  0
    8.7982  -16.0094   21.8797 C   0  0  0  0  0  0  0  0  0  0  0  0
    8.6781  -14.7521   21.8668 O   0  0  0  0  0  0  0  0  0  0  0  0
    6.4905  -16.9772   24.6870 C   0  0  0  0  0  0  0  0  0  0  0  0
    7.3717  -15.9580   23.9452 C   0  0  2  0  0  0  0  0  0  0  0  0
    8.1283  -16.6751   22.9694 N   0  0  0  0  0  0  0  0  0  0  0  0
    8.0760  -15.0868   24.8676 C   0  0  0  0  0  0  0  0  0  0  0  0
    9.3839  -15.0937   24.7998 O   0  0  0  0  0  0  0  0  0  0  0  0
    7.5868  -14.2099   25.8541 N   0  0  0  0  0  0  0  0  0  0  0  0
    6.2453  -13.9542   26.2472 C   0  0  0  0  0  0  0  0  0  0  0  0
    6.2433  -12.4209   26.3270 C   0  0  0  0  0  0  0  0  0  0  0  0
    7.6334  -12.0548   26.7365 C   0  0  0  0  0  0  0  0  0  0  0  0
    8.3912  -13.3302   26.7277 C   0  0  1  0  0  0  0  0  0  0  0  0
    8.5078  -13.8831   28.0857 C   0  0  0  0  0  0  0  0  0  0  0  0
    9.4067  -13.3494   28.9996 O   0  0  0  0  0  0  0  0  0  0  0  0
    7.8065  -14.8498   28.4693 O   0  0  0  0  0  0  0  0  0  0  0  0
  2  3  2  0
  2  1  1  0
  4  2  1  0
  5  4  1  0
  5  6  1  6
  5  7  1  0
  7  8  2  0
 10  9  1  1
 10 12  1  0
 11  7  1  0
 11 10  1  0
 12 14  1  0
 13 12  2  0
 14 15  1  0
 14 18  1  0
 15 16  1  0
 16 17  1  0
 18 17  1  0
 19 20  1  0
 18 19  1  1
 21 19  2  0
M  END
$$$$
