IKG.pdb
     RDKit          3D

 22 21  0  0  1  0  0  0  0  0999 V2000
    6.4342  -12.0134   28.0844 C   0  0  0  0  0  0  0  0  0  0  0  0
    5.9087  -13.2630   27.3727 C   0  0  0  0  0  0  0  0  0  0  0  0
    6.8793  -13.6882   26.2970 C   0  0  2  0  0  0  0  0  0  0  0  0
    7.2955  -12.5179   25.4692 C   0  0  0  0  0  0  0  0  0  0  0  0
    6.3913  -14.8561   25.4792 C   0  0  2  0  0  0  0  0  0  0  0  0
    6.1523  -16.0125   26.3368 N   0  0  0  0  0  0  0  0  0  0  0  0
    7.2799  -15.2581   24.3907 C   0  0  0  0  0  0  0  0  0  0  0  0
    8.1191  -16.1993   24.5060 O   0  0  0  0  0  0  0  0  0  0  0  0
    7.2324  -14.5919   23.1365 N   0  0  0  0  0  0  0  0  0  0  0  0
    8.0476  -15.0157   21.9807 C   0  0  1  0  0  0  0  0  0  0  0  0
    7.7263  -14.1503   20.7934 C   0  0  0  0  0  0  0  0  0  0  0  0
    8.4382  -14.5132   19.5260 C   0  0  0  0  0  0  0  0  0  0  0  0
    7.8886  -13.6805   18.3573 C   0  0  0  0  0  0  0  0  0  0  0  0
    8.4913  -14.1522   17.0509 C   0  0  0  0  0  0  0  0  0  0  0  0
    7.8914  -13.4136   15.9566 N   0  0  0  0  0  0  0  0  0  0  0  0
    9.4796  -14.9665   22.3304 C   0  0  0  0  0  0  0  0  0  0  0  0
    9.9741  -14.1100   23.0882 O   0  0  0  0  0  0  0  0  0  0  0  0
   10.4224  -15.9277   21.8067 N   0  0  0  0  0  0  0  0  0  0  0  0
   11.8354  -15.8264   22.0530 C   0  0  0  0  0  0  0  0  0  0  0  0
   12.6155  -16.9134   21.4563 C   0  0  0  0  0  0  0  0  0  0  0  0
   13.8484  -17.2207   22.0117 O   0  0  0  0  0  0  0  0  0  0  0  0
   12.2392  -17.5905   20.4680 O   0  0  0  0  0  0  0  0  0  0  0  0
  2  1  1  0
  3  2  1  0
  3  5  1  0
  3  4  1  6
  5  6  1  1
  7  5  1  0
  7  8  2  0
  9  7  1  0
 10  9  1  0
 10 11  1  6
 12 11  1  0
 12 13  1  0
 13 14  1  0
 14 15  1  0
 16 10  1  0
 17 16  2  0
 18 16  1  0
 19 20  1  0
 19 18  1  0
 20 21  1  0
 22 20  2  0
M  END
$$$$
