IKG.pdb
     RDKit          3D

 22 21  0  0  1  0  0  0  0  0999 V2000
    6.7913   -9.9549   25.6698 C   0  0  0  0  0  0  0  0  0  0  0  0
    6.1734  -11.2285   26.2533 C   0  0  0  0  0  0  0  0  0  0  0  0
    6.9967  -12.4292   25.8529 C   0  0  2  0  0  0  0  0  0  0  0  0
    7.1962  -12.4628   24.3739 C   0  0  0  0  0  0  0  0  0  0  0  0
    6.4752  -13.7262   26.4158 C   0  0  2  0  0  0  0  0  0  0  0  0
    6.2123  -13.5907   27.8449 N   0  0  0  0  0  0  0  0  0  0  0  0
    7.3475  -14.8805   26.2091 C   0  0  0  0  0  0  0  0  0  0  0  0
    8.3987  -15.0728   26.8884 O   0  0  0  0  0  0  0  0  0  0  0  0
    7.0397  -15.8495   25.2165 N   0  0  0  0  0  0  0  0  0  0  0  0
    7.9037  -17.0171   24.9514 C   0  0  1  0  0  0  0  0  0  0  0  0
    7.0516  -18.2023   24.5892 C   0  0  0  0  0  0  0  0  0  0  0  0
    7.7996  -19.4777   24.3472 C   0  0  0  0  0  0  0  0  0  0  0  0
    7.9856  -20.2373   25.6700 C   0  0  0  0  0  0  0  0  0  0  0  0
    8.8598  -21.4546   25.4549 C   0  0  0  0  0  0  0  0  0  0  0  0
    9.1393  -22.0716   26.7372 N   0  0  0  0  0  0  0  0  0  0  0  0
    8.8781  -16.6916   23.8932 C   0  0  0  0  0  0  0  0  0  0  0  0
    8.6450  -15.8948   22.9642 O   0  0  0  0  0  0  0  0  0  0  0  0
   10.1939  -17.2873   23.8635 N   0  0  0  0  0  0  0  0  0  0  0  0
   11.1455  -16.9902   22.8272 C   0  0  0  0  0  0  0  0  0  0  0  0
   12.4432  -16.5366   23.3334 C   0  0  0  0  0  0  0  0  0  0  0  0
   13.4152  -16.1674   22.4158 O   0  0  0  0  0  0  0  0  0  0  0  0
   12.7364  -16.4593   24.5520 O   0  0  0  0  0  0  0  0  0  0  0  0
  2  1  1  0
  3  2  1  0
  3  5  1  0
  3  4  1  6
  5  6  1  1
  7  5  1  0
  7  8  2  0
  9  7  1  0
 10  9  1  0
 10 11  1  6
 12 11  1  0
 12 13  1  0
 13 14  1  0
 14 15  1  0
 16 10  1  0
 17 16  2  0
 18 16  1  0
 19 20  1  0
 19 18  1  0
 20 21  1  0
 22 20  2  0
M  END
$$$$
