IKG.pdb
     RDKit          3D

 22 21  0  0  1  0  0  0  0  0999 V2000
    6.3977  -11.4479   27.2548 C   0  0  0  0  0  0  0  0  0  0  0  0
    5.8891  -12.7488   26.6277 C   0  0  0  0  0  0  0  0  0  0  0  0
    7.0404  -13.5062   26.0104 C   0  0  2  0  0  0  0  0  0  0  0  0
    7.8426  -12.6145   25.1219 C   0  0  0  0  0  0  0  0  0  0  0  0
    6.6221  -14.7928   25.3467 C   0  0  2  0  0  0  0  0  0  0  0  0
    5.8756  -15.6279   26.2822 N   0  0  0  0  0  0  0  0  0  0  0  0
    7.7190  -15.5817   24.7896 C   0  0  0  0  0  0  0  0  0  0  0  0
    8.3780  -16.4165   25.4770 O   0  0  0  0  0  0  0  0  0  0  0  0
    8.0932  -15.4365   23.4266 N   0  0  0  0  0  0  0  0  0  0  0  0
    9.2381  -16.1580   22.8360 C   0  0  1  0  0  0  0  0  0  0  0  0
    9.0791  -16.2178   21.3417 C   0  0  0  0  0  0  0  0  0  0  0  0
    8.0528  -17.1902   20.8460 C   0  0  0  0  0  0  0  0  0  0  0  0
    8.0398  -17.2033   19.3095 C   0  0  0  0  0  0  0  0  0  0  0  0
    7.0350  -18.2171   18.8042 C   0  0  0  0  0  0  0  0  0  0  0  0
    6.9790  -18.1499   17.3567 N   0  0  0  0  0  0  0  0  0  0  0  0
   10.5010  -15.5078   23.2330 C   0  0  0  0  0  0  0  0  0  0  0  0
   10.6001  -14.2912   23.4828 O   0  0  0  0  0  0  0  0  0  0  0  0
   11.7315  -16.2539   23.3608 N   0  0  0  0  0  0  0  0  0  0  0  0
   12.9914  -15.6130   23.6245 C   0  0  0  0  0  0  0  0  0  0  0  0
   14.1378  -16.5230   23.5635 C   0  0  0  0  0  0  0  0  0  0  0  0
   15.4068  -15.9968   23.7523 O   0  0  0  0  0  0  0  0  0  0  0  0
   14.0472  -17.7572   23.3502 O   0  0  0  0  0  0  0  0  0  0  0  0
  2  1  1  0
  3  2  1  0
  3  5  1  0
  3  4  1  6
  5  6  1  1
  7  5  1  0
  7  8  2  0
  9  7  1  0
 10  9  1  0
 10 11  1  6
 12 11  1  0
 12 13  1  0
 13 14  1  0
 14 15  1  0
 16 10  1  0
 17 16  2  0
 18 16  1  0
 19 20  1  0
 19 18  1  0
 20 21  1  0
 22 20  2  0
M  END
$$$$
