IKG.pdb
     RDKit          3D

 22 21  0  0  1  0  0  0  0  0999 V2000
    6.5397  -11.9161   27.9258 C   0  0  0  0  0  0  0  0  0  0  0  0
    5.8938  -12.9294   26.9769 C   0  0  0  0  0  0  0  0  0  0  0  0
    6.9563  -13.5952   26.1355 C   0  0  2  0  0  0  0  0  0  0  0  0
    7.8303  -12.5749   25.4848 C   0  0  0  0  0  0  0  0  0  0  0  0
    6.4042  -14.6127   25.1707 C   0  0  2  0  0  0  0  0  0  0  0  0
    5.6909  -15.6621   25.8918 N   0  0  0  0  0  0  0  0  0  0  0  0
    7.3986  -15.2374   24.3007 C   0  0  0  0  0  0  0  0  0  0  0  0
    7.8768  -16.3881   24.5259 O   0  0  0  0  0  0  0  0  0  0  0  0
    7.8745  -14.5604   23.1457 N   0  0  0  0  0  0  0  0  0  0  0  0
    8.8752  -15.1510   22.2347 C   0  0  1  0  0  0  0  0  0  0  0  0
    9.1308  -14.2105   21.0893 C   0  0  0  0  0  0  0  0  0  0  0  0
    8.0478  -14.1522   20.0557 C   0  0  0  0  0  0  0  0  0  0  0  0
    8.6495  -13.8171   18.6820 C   0  0  0  0  0  0  0  0  0  0  0  0
    7.5601  -13.7708   17.6316 C   0  0  0  0  0  0  0  0  0  0  0  0
    8.1327  -13.3382   16.3715 N   0  0  0  0  0  0  0  0  0  0  0  0
   10.1091  -15.4653   22.9790 C   0  0  0  0  0  0  0  0  0  0  0  0
   10.6806  -14.6580   23.7367 O   0  0  0  0  0  0  0  0  0  0  0  0
   10.7495  -16.7562   22.8766 N   0  0  0  0  0  0  0  0  0  0  0  0
   11.9319  -17.0857   23.6256 C   0  0  0  0  0  0  0  0  0  0  0  0
   13.1769  -16.8649   22.8856 C   0  0  0  0  0  0  0  0  0  0  0  0
   14.3773  -17.1600   23.5139 O   0  0  0  0  0  0  0  0  0  0  0  0
   13.2298  -16.4229   21.7114 O   0  0  0  0  0  0  0  0  0  0  0  0
  2  1  1  0
  3  2  1  0
  3  5  1  0
  3  4  1  6
  5  6  1  1
  7  5  1  0
  7  8  2  0
  9  7  1  0
 10  9  1  0
 10 11  1  6
 12 11  1  0
 12 13  1  0
 13 14  1  0
 14 15  1  0
 16 10  1  0
 17 16  2  0
 18 16  1  0
 19 20  1  0
 19 18  1  0
 20 21  1  0
 22 20  2  0
M  END
$$$$
