IKG.pdb
     RDKit          3D

 22 21  0  0  1  0  0  0  0  0999 V2000
    8.4747  -11.8719   20.4141 C   0  0  0  0  0  0  0  0  0  0  0  0
    7.8737  -13.0857   21.1281 C   0  0  0  0  0  0  0  0  0  0  0  0
    7.9839  -14.3068   20.2469 C   0  0  2  0  0  0  0  0  0  0  0  0
    7.3793  -14.0471   18.9071 C   0  0  0  0  0  0  0  0  0  0  0  0
    7.4715  -15.5641   20.9008 C   0  0  2  0  0  0  0  0  0  0  0  0
    6.0618  -15.4176   21.2488 N   0  0  0  0  0  0  0  0  0  0  0  0
    8.2060  -15.9793   22.0942 C   0  0  0  0  0  0  0  0  0  0  0  0
    7.7934  -15.7418   23.2675 O   0  0  0  0  0  0  0  0  0  0  0  0
    9.4367  -16.6798   21.9771 N   0  0  0  0  0  0  0  0  0  0  0  0
   10.2160  -17.1181   23.1521 C   0  0  1  0  0  0  0  0  0  0  0  0
    9.9350  -18.5692   23.4302 C   0  0  0  0  0  0  0  0  0  0  0  0
   10.6276  -19.1360   24.6317 C   0  0  0  0  0  0  0  0  0  0  0  0
   10.4520  -20.6622   24.6684 C   0  0  0  0  0  0  0  0  0  0  0  0
   11.2158  -21.2479   25.8372 C   0  0  0  0  0  0  0  0  0  0  0  0
   11.0907  -22.6924   25.8108 N   0  0  0  0  0  0  0  0  0  0  0  0
   11.6514  -16.8655   22.9261 C   0  0  0  0  0  0  0  0  0  0  0  0
   12.3969  -17.6428   22.2997 O   0  0  0  0  0  0  0  0  0  0  0  0
   12.3009  -15.6759   23.4263 N   0  0  0  0  0  0  0  0  0  0  0  0
   13.4792  -15.7352   24.2482 C   0  0  0  0  0  0  0  0  0  0  0  0
   14.6013  -16.4346   23.6173 C   0  0  0  0  0  0  0  0  0  0  0  0
   15.6732  -15.6823   23.1612 O   0  0  0  0  0  0  0  0  0  0  0  0
   14.6575  -17.6792   23.4608 O   0  0  0  0  0  0  0  0  0  0  0  0
  2  1  1  0
  3  2  1  0
  3  5  1  0
  3  4  1  6
  5  6  1  1
  7  5  1  0
  7  8  2  0
  9  7  1  0
 10  9  1  0
 10 11  1  6
 12 11  1  0
 12 13  1  0
 13 14  1  0
 14 15  1  0
 16 10  1  0
 17 16  2  0
 18 16  1  0
 19 20  1  0
 19 18  1  0
 20 21  1  0
 22 20  2  0
M  END
$$$$
