IKG.pdb
     RDKit          3D

 22 21  0  0  1  0  0  0  0  0999 V2000
    6.8181  -10.8744   26.0341 C   0  0  0  0  0  0  0  0  0  0  0  0
    7.5061  -12.2361   25.9045 C   0  0  0  0  0  0  0  0  0  0  0  0
    6.5462  -13.3357   26.2908 C   0  0  2  0  0  0  0  0  0  0  0  0
    6.0823  -13.1608   27.6987 C   0  0  0  0  0  0  0  0  0  0  0  0
    7.0729  -14.7178   26.0018 C   0  0  2  0  0  0  0  0  0  0  0  0
    8.4261  -14.8661   26.5277 N   0  0  0  0  0  0  0  0  0  0  0  0
    7.0780  -15.0903   24.5886 C   0  0  0  0  0  0  0  0  0  0  0  0
    6.1596  -15.7850   24.0618 O   0  0  0  0  0  0  0  0  0  0  0  0
    8.1375  -14.6769   23.7368 N   0  0  0  0  0  0  0  0  0  0  0  0
    8.2692  -15.1521   22.3451 C   0  0  1  0  0  0  0  0  0  0  0  0
    8.0097  -14.0134   21.3974 C   0  0  0  0  0  0  0  0  0  0  0  0
    7.8885  -14.3973   19.9543 C   0  0  0  0  0  0  0  0  0  0  0  0
    8.2293  -13.1950   19.0600 C   0  0  0  0  0  0  0  0  0  0  0  0
    8.1199  -13.5820   17.6004 C   0  0  0  0  0  0  0  0  0  0  0  0
    8.3184  -12.4028   16.7799 N   0  0  0  0  0  0  0  0  0  0  0  0
    9.6026  -15.7488   22.1417 C   0  0  0  0  0  0  0  0  0  0  0  0
   10.0243  -16.1300   21.0330 O   0  0  0  0  0  0  0  0  0  0  0  0
   10.5263  -15.9344   23.2368 N   0  0  0  0  0  0  0  0  0  0  0  0
   11.8674  -16.4121   23.0345 C   0  0  0  0  0  0  0  0  0  0  0  0
   11.9830  -17.8721   23.0710 C   0  0  0  0  0  0  0  0  0  0  0  0
   13.2373  -18.4283   23.2719 O   0  0  0  0  0  0  0  0  0  0  0  0
   11.0147  -18.6594   22.9313 O   0  0  0  0  0  0  0  0  0  0  0  0
  2  1  1  0
  3  2  1  0
  3  5  1  0
  3  4  1  1
  5  6  1  6
  7  5  1  0
  7  8  2  0
  9  7  1  0
 10  9  1  0
 10 11  1  6
 12 11  1  0
 12 13  1  0
 13 14  1  0
 14 15  1  0
 16 10  1  0
 17 16  2  0
 18 16  1  0
 19 20  1  0
 19 18  1  0
 20 21  1  0
 22 20  2  0
M  END
$$$$
