IKG.pdb
     RDKit          3D

 22 21  0  0  1  0  0  0  0  0999 V2000
    6.8201  -12.1746   28.0133 C   0  0  0  0  0  0  0  0  0  0  0  0
    6.1831  -13.3159   27.2159 C   0  0  0  0  0  0  0  0  0  0  0  0
    7.0731  -13.6912   26.0553 C   0  0  2  0  0  0  0  0  0  0  0  0
    7.5089  -12.4740   25.3093 C   0  0  0  0  0  0  0  0  0  0  0  0
    6.4816  -14.7565   25.1685 C   0  0  2  0  0  0  0  0  0  0  0  0
    6.2697  -15.9868   25.9243 N   0  0  0  0  0  0  0  0  0  0  0  0
    7.2677  -15.0702   23.9770 C   0  0  0  0  0  0  0  0  0  0  0  0
    8.0798  -16.0407   23.9303 O   0  0  0  0  0  0  0  0  0  0  0  0
    7.1455  -14.2796   22.8027 N   0  0  0  0  0  0  0  0  0  0  0  0
    7.9387  -14.5388   21.5846 C   0  0  1  0  0  0  0  0  0  0  0  0
    7.6687  -13.4627   20.5693 C   0  0  0  0  0  0  0  0  0  0  0  0
    8.5225  -13.5152   19.3392 C   0  0  0  0  0  0  0  0  0  0  0  0
    7.8658  -14.4160   18.2815 C   0  0  0  0  0  0  0  0  0  0  0  0
    8.7566  -14.5246   17.0620 C   0  0  0  0  0  0  0  0  0  0  0  0
    8.1842  -15.4859   16.1394 N   0  0  0  0  0  0  0  0  0  0  0  0
    9.3704  -14.6305   21.9270 C   0  0  0  0  0  0  0  0  0  0  0  0
    9.9498  -13.8285   22.6842 O   0  0  0  0  0  0  0  0  0  0  0  0
   10.2124  -15.6775   21.3961 N   0  0  0  0  0  0  0  0  0  0  0  0
   11.6050  -15.7868   21.7373 C   0  0  0  0  0  0  0  0  0  0  0  0
   12.2961  -16.8769   21.0442 C   0  0  0  0  0  0  0  0  0  0  0  0
   13.3184  -16.5542   20.1647 O   0  0  0  0  0  0  0  0  0  0  0  0
   12.0222  -18.0931   21.1946 O   0  0  0  0  0  0  0  0  0  0  0  0
  2  1  1  0
  3  2  1  0
  3  5  1  0
  3  4  1  6
  5  6  1  1
  7  5  1  0
  7  8  2  0
  9  7  1  0
 10  9  1  0
 10 11  1  6
 12 11  1  0
 12 13  1  0
 13 14  1  0
 14 15  1  0
 16 10  1  0
 17 16  2  0
 18 16  1  0
 19 20  1  0
 19 18  1  0
 20 21  1  0
 22 20  2  0
M  END
$$$$
