IKG.pdb
     RDKit          3D

 22 21  0  0  1  0  0  0  0  0999 V2000
    6.5450  -12.4016   18.6781 C   0  0  0  0  0  0  0  0  0  0  0  0
    7.7852  -13.2852   18.5189 C   0  0  0  0  0  0  0  0  0  0  0  0
    8.1568  -13.8941   19.8497 C   0  0  2  0  0  0  0  0  0  0  0  0
    8.3691  -12.8308   20.8756 C   0  0  0  0  0  0  0  0  0  0  0  0
    9.2968  -14.8755   19.7606 C   0  0  2  0  0  0  0  0  0  0  0  0
    8.9863  -15.9294   18.8000 N   0  0  0  0  0  0  0  0  0  0  0  0
    9.6737  -15.4964   21.0289 C   0  0  0  0  0  0  0  0  0  0  0  0
   10.0283  -14.8225   22.0406 O   0  0  0  0  0  0  0  0  0  0  0  0
    9.6551  -16.9097   21.1745 N   0  0  0  0  0  0  0  0  0  0  0  0
   10.1032  -17.5870   22.4076 C   0  0  1  0  0  0  0  0  0  0  0  0
    9.8107  -19.0589   22.3085 C   0  0  0  0  0  0  0  0  0  0  0  0
   10.2212  -19.8741   23.4967 C   0  0  0  0  0  0  0  0  0  0  0  0
    9.8603  -21.3506   23.2713 C   0  0  0  0  0  0  0  0  0  0  0  0
   10.3518  -22.1914   24.4306 C   0  0  0  0  0  0  0  0  0  0  0  0
   10.1999  -23.5947   24.0981 N   0  0  0  0  0  0  0  0  0  0  0  0
   11.5361  -17.3213   22.6348 C   0  0  0  0  0  0  0  0  0  0  0  0
   12.4056  -17.4316   21.7494 O   0  0  0  0  0  0  0  0  0  0  0  0
   12.0360  -16.9072   23.9254 N   0  0  0  0  0  0  0  0  0  0  0  0
   13.4106  -16.5391   24.1317 C   0  0  0  0  0  0  0  0  0  0  0  0
   14.2618  -17.6560   24.5490 C   0  0  0  0  0  0  0  0  0  0  0  0
   15.4814  -17.3681   25.1428 O   0  0  0  0  0  0  0  0  0  0  0  0
   13.9584  -18.8659   24.4036 O   0  0  0  0  0  0  0  0  0  0  0  0
  2  1  1  0
  3  2  1  0
  3  5  1  0
  3  4  1  1
  5  6  1  6
  7  5  1  0
  7  8  2  0
  9  7  1  0
 10  9  1  0
 10 11  1  6
 12 11  1  0
 12 13  1  0
 13 14  1  0
 14 15  1  0
 16 10  1  0
 17 16  2  0
 18 16  1  0
 19 20  1  0
 19 18  1  0
 20 21  1  0
 22 20  2  0
M  END
$$$$
