IKG.pdb
     RDKit          3D

 22 21  0  0  1  0  0  0  0  0999 V2000
    6.8595  -11.0821   27.1502 C   0  0  0  0  0  0  0  0  0  0  0  0
    7.4183  -12.5068   27.1046 C   0  0  0  0  0  0  0  0  0  0  0  0
    6.7793  -13.2735   25.9716 C   0  0  2  0  0  0  0  0  0  0  0  0
    5.2924  -13.2671   26.1027 C   0  0  0  0  0  0  0  0  0  0  0  0
    7.3572  -14.6523   25.7820 C   0  0  2  0  0  0  0  0  0  0  0  0
    8.6733  -14.7419   26.4062 N   0  0  0  0  0  0  0  0  0  0  0  0
    7.4701  -15.0852   24.3907 C   0  0  0  0  0  0  0  0  0  0  0  0
    6.5876  -15.7928   23.8215 O   0  0  0  0  0  0  0  0  0  0  0  0
    8.5996  -14.7191   23.6101 N   0  0  0  0  0  0  0  0  0  0  0  0
    8.7246  -15.0691   22.1811 C   0  0  1  0  0  0  0  0  0  0  0  0
    9.0369  -13.8319   21.3850 C   0  0  0  0  0  0  0  0  0  0  0  0
    7.9310  -13.3454   20.4990 C   0  0  0  0  0  0  0  0  0  0  0  0
    8.3314  -13.5029   19.0237 C   0  0  0  0  0  0  0  0  0  0  0  0
    7.1806  -13.1034   18.1246 C   0  0  0  0  0  0  0  0  0  0  0  0
    7.5971  -13.2179   16.7403 N   0  0  0  0  0  0  0  0  0  0  0  0
    9.7516  -16.1133   22.0072 C   0  0  0  0  0  0  0  0  0  0  0  0
   10.1070  -16.5511   20.8963 O   0  0  0  0  0  0  0  0  0  0  0  0
   10.4268  -16.7094   23.1367 N   0  0  0  0  0  0  0  0  0  0  0  0
   11.3784  -17.7766   22.9837 C   0  0  0  0  0  0  0  0  0  0  0  0
   11.9085  -18.2780   24.2540 C   0  0  0  0  0  0  0  0  0  0  0  0
   11.2278  -19.3037   24.8924 O   0  0  0  0  0  0  0  0  0  0  0  0
   12.9460  -17.8374   24.8076 O   0  0  0  0  0  0  0  0  0  0  0  0
  2  1  1  0
  3  2  1  0
  3  5  1  0
  3  4  1  1
  5  6  1  6
  7  5  1  0
  7  8  2  0
  9  7  1  0
 10  9  1  0
 10 11  1  6
 12 11  1  0
 12 13  1  0
 13 14  1  0
 14 15  1  0
 16 10  1  0
 17 16  2  0
 18 16  1  0
 19 20  1  0
 19 18  1  0
 20 21  1  0
 22 20  2  0
M  END
$$$$
