IKG.pdb
     RDKit          3D

 22 21  0  0  1  0  0  0  0  0999 V2000
    6.7458  -11.4930   27.7195 C   0  0  0  0  0  0  0  0  0  0  0  0
    6.0453  -12.7264   27.1430 C   0  0  0  0  0  0  0  0  0  0  0  0
    7.0018  -13.4970   26.2648 C   0  0  2  0  0  0  0  0  0  0  0  0
    7.6954  -12.5826   25.3105 C   0  0  0  0  0  0  0  0  0  0  0  0
    6.3702  -14.6912   25.5971 C   0  0  2  0  0  0  0  0  0  0  0  0
    5.7466  -15.5586   26.5913 N   0  0  0  0  0  0  0  0  0  0  0  0
    7.2814  -15.4937   24.7836 C   0  0  0  0  0  0  0  0  0  0  0  0
    8.0459  -16.3728   25.2797 O   0  0  0  0  0  0  0  0  0  0  0  0
    7.3429  -15.3116   23.3758 N   0  0  0  0  0  0  0  0  0  0  0  0
    8.3172  -16.0233   22.5246 C   0  0  1  0  0  0  0  0  0  0  0  0
    8.0116  -15.7550   21.0767 C   0  0  0  0  0  0  0  0  0  0  0  0
    8.8942  -16.4633   20.0948 C   0  0  0  0  0  0  0  0  0  0  0  0
    8.2872  -16.3782   18.6856 C   0  0  0  0  0  0  0  0  0  0  0  0
    9.2157  -17.0212   17.6773 C   0  0  0  0  0  0  0  0  0  0  0  0
    8.6363  -16.9008   16.3533 N   0  0  0  0  0  0  0  0  0  0  0  0
    9.6891  -15.6192   22.8851 C   0  0  0  0  0  0  0  0  0  0  0  0
   10.0652  -14.4327   22.9408 O   0  0  0  0  0  0  0  0  0  0  0  0
   10.7081  -16.5925   23.2037 N   0  0  0  0  0  0  0  0  0  0  0  0
   12.0631  -16.2131   23.4998 C   0  0  0  0  0  0  0  0  0  0  0  0
   13.0308  -16.6560   22.4930 C   0  0  0  0  0  0  0  0  0  0  0  0
   13.6404  -15.6964   21.6990 O   0  0  0  0  0  0  0  0  0  0  0  0
   13.3473  -17.8557   22.2997 O   0  0  0  0  0  0  0  0  0  0  0  0
  2  1  1  0
  3  2  1  0
  3  5  1  0
  3  4  1  6
  5  6  1  1
  7  5  1  0
  7  8  2  0
  9  7  1  0
 10  9  1  0
 10 11  1  6
 12 11  1  0
 12 13  1  0
 13 14  1  0
 14 15  1  0
 16 10  1  0
 17 16  2  0
 18 16  1  0
 19 20  1  0
 19 18  1  0
 20 21  1  0
 22 20  2  0
M  END
$$$$
