IKG.pdb
     RDKit          3D

 22 21  0  0  1  0  0  0  0  0999 V2000
    6.4681  -11.2234   27.2606 C   0  0  0  0  0  0  0  0  0  0  0  0
    5.9221  -12.5885   26.8333 C   0  0  0  0  0  0  0  0  0  0  0  0
    6.9854  -13.3559   26.0848 C   0  0  2  0  0  0  0  0  0  0  0  0
    7.5904  -12.5108   25.0133 C   0  0  0  0  0  0  0  0  0  0  0  0
    6.5171  -14.7011   25.5927 C   0  0  2  0  0  0  0  0  0  0  0  0
    5.9952  -15.4941   26.7011 N   0  0  0  0  0  0  0  0  0  0  0  0
    7.5318  -15.4871   24.8937 C   0  0  0  0  0  0  0  0  0  0  0  0
    8.3882  -16.1935   25.5028 O   0  0  0  0  0  0  0  0  0  0  0  0
    7.5945  -15.4861   23.4742 N   0  0  0  0  0  0  0  0  0  0  0  0
    8.5729  -16.2966   22.7218 C   0  0  1  0  0  0  0  0  0  0  0  0
    8.1820  -16.3385   21.2702 C   0  0  0  0  0  0  0  0  0  0  0  0
    9.0589  -17.1818   20.3957 C   0  0  0  0  0  0  0  0  0  0  0  0
    8.5736  -17.1103   18.9394 C   0  0  0  0  0  0  0  0  0  0  0  0
    9.4586  -17.9594   18.0516 C   0  0  0  0  0  0  0  0  0  0  0  0
    8.9475  -19.3163   18.0293 N   0  0  0  0  0  0  0  0  0  0  0  0
    9.9302  -15.7526   22.9143 C   0  0  0  0  0  0  0  0  0  0  0  0
   10.1913  -14.5344   22.9055 O   0  0  0  0  0  0  0  0  0  0  0  0
   11.0697  -16.6140   23.1301 N   0  0  0  0  0  0  0  0  0  0  0  0
   12.4065  -16.0987   23.2531 C   0  0  0  0  0  0  0  0  0  0  0  0
   13.4174  -17.1349   23.4777 C   0  0  0  0  0  0  0  0  0  0  0  0
   13.6095  -18.0917   22.4925 O   0  0  0  0  0  0  0  0  0  0  0  0
   14.1270  -17.2151   24.5106 O   0  0  0  0  0  0  0  0  0  0  0  0
  2  1  1  0
  3  2  1  0
  3  5  1  0
  3  4  1  6
  5  6  1  1
  7  5  1  0
  7  8  2  0
  9  7  1  0
 10  9  1  0
 10 11  1  6
 12 11  1  0
 12 13  1  0
 13 14  1  0
 14 15  1  0
 16 10  1  0
 17 16  2  0
 18 16  1  0
 19 20  1  0
 19 18  1  0
 20 21  1  0
 22 20  2  0
M  END
$$$$
