IKG.pdb
     RDKit          3D

 22 21  0  0  1  0  0  0  0  0999 V2000
    6.6513  -11.9636   28.0224 C   0  0  0  0  0  0  0  0  0  0  0  0
    5.9985  -13.0907   27.2175 C   0  0  0  0  0  0  0  0  0  0  0  0
    6.9738  -13.6238   26.1955 C   0  0  2  0  0  0  0  0  0  0  0  0
    7.5420  -12.5117   25.3779 C   0  0  0  0  0  0  0  0  0  0  0  0
    6.4141  -14.7505   25.3660 C   0  0  2  0  0  0  0  0  0  0  0  0
    6.0173  -15.8636   26.2224 N   0  0  0  0  0  0  0  0  0  0  0  0
    7.3126  -15.2560   24.3300 C   0  0  0  0  0  0  0  0  0  0  0  0
    7.8154  -16.4176   24.3690 O   0  0  0  0  0  0  0  0  0  0  0  0
    7.6614  -14.4437   23.2177 N   0  0  0  0  0  0  0  0  0  0  0  0
    8.5083  -14.9328   22.1115 C   0  0  1  0  0  0  0  0  0  0  0  0
    8.5312  -13.9134   21.0060 C   0  0  0  0  0  0  0  0  0  0  0  0
    7.7372  -14.2734   19.7875 C   0  0  0  0  0  0  0  0  0  0  0  0
    8.5286  -13.9157   18.5197 C   0  0  0  0  0  0  0  0  0  0  0  0
    7.6602  -14.0983   17.2930 C   0  0  0  0  0  0  0  0  0  0  0  0
    8.4114  -13.7062   16.1162 N   0  0  0  0  0  0  0  0  0  0  0  0
    9.8619  -15.2377   22.6116 C   0  0  0  0  0  0  0  0  0  0  0  0
   10.5452  -14.4384   23.2799 O   0  0  0  0  0  0  0  0  0  0  0  0
   10.4977  -16.5092   22.3544 N   0  0  0  0  0  0  0  0  0  0  0  0
   11.8124  -16.8210   22.8463 C   0  0  0  0  0  0  0  0  0  0  0  0
   12.8666  -16.6744   21.8396 C   0  0  0  0  0  0  0  0  0  0  0  0
   14.1760  -16.9338   22.2151 O   0  0  0  0  0  0  0  0  0  0  0  0
   12.6619  -16.3269   20.6504 O   0  0  0  0  0  0  0  0  0  0  0  0
  2  1  1  0
  3  2  1  0
  3  5  1  0
  3  4  1  6
  5  6  1  1
  7  5  1  0
  7  8  2  0
  9  7  1  0
 10  9  1  0
 10 11  1  6
 12 11  1  0
 12 13  1  0
 13 14  1  0
 14 15  1  0
 16 10  1  0
 17 16  2  0
 18 16  1  0
 19 20  1  0
 19 18  1  0
 20 21  1  0
 22 20  2  0
M  END
$$$$
