IKG.pdb
     RDKit          3D

 22 21  0  0  1  0  0  0  0  0999 V2000
    6.8591  -10.8926   27.4673 C   0  0  0  0  0  0  0  0  0  0  0  0
    7.5072  -12.2782   27.4028 C   0  0  0  0  0  0  0  0  0  0  0  0
    6.8326  -13.1121   26.3399 C   0  0  2  0  0  0  0  0  0  0  0  0
    5.3750  -13.2557   26.6279 C   0  0  0  0  0  0  0  0  0  0  0  0
    7.5240  -14.4262   26.0829 C   0  0  2  0  0  0  0  0  0  0  0  0
    8.9306  -14.3433   26.4627 N   0  0  0  0  0  0  0  0  0  0  0  0
    7.4402  -14.9054   24.7047 C   0  0  0  0  0  0  0  0  0  0  0  0
    6.4472  -15.5585   24.2676 O   0  0  0  0  0  0  0  0  0  0  0  0
    8.4936  -14.6496   23.7861 N   0  0  0  0  0  0  0  0  0  0  0  0
    8.4643  -15.1299   22.3902 C   0  0  1  0  0  0  0  0  0  0  0  0
    8.3280  -13.9582   21.4572 C   0  0  0  0  0  0  0  0  0  0  0  0
    7.7109  -14.2678   20.1275 C   0  0  0  0  0  0  0  0  0  0  0  0
    8.4448  -13.5013   19.0161 C   0  0  0  0  0  0  0  0  0  0  0  0
    7.8931  -13.8907   17.6610 C   0  0  0  0  0  0  0  0  0  0  0  0
    8.6649  -13.2304   16.6259 N   0  0  0  0  0  0  0  0  0  0  0  0
    9.6733  -15.9256   22.1068 C   0  0  0  0  0  0  0  0  0  0  0  0
   10.8120  -15.4321   21.9961 O   0  0  0  0  0  0  0  0  0  0  0  0
    9.6159  -17.3589   21.9354 N   0  0  0  0  0  0  0  0  0  0  0  0
   10.3194  -18.0322   20.8774 C   0  0  0  0  0  0  0  0  0  0  0  0
   11.7737  -17.8674   20.9409 C   0  0  0  0  0  0  0  0  0  0  0  0
   12.3829  -17.0342   20.0149 O   0  0  0  0  0  0  0  0  0  0  0  0
   12.5110  -18.4348   21.7843 O   0  0  0  0  0  0  0  0  0  0  0  0
  2  1  1  0
  3  2  1  0
  3  5  1  0
  3  4  1  1
  5  6  1  6
  7  5  1  0
  7  8  2  0
  9  7  1  0
 10  9  1  0
 10 11  1  6
 12 11  1  0
 12 13  1  0
 13 14  1  0
 14 15  1  0
 16 10  1  0
 17 16  2  0
 18 16  1  0
 19 20  1  0
 19 18  1  0
 20 21  1  0
 22 20  2  0
M  END
$$$$
