RHF.pdb
     RDKit          3D

 33 34  0  0  1  0  0  0  0  0999 V2000
   26.8370  -26.7096  -17.6315 N   0  0  0  0  0  0  0  0  0  0  0  0
   25.7253  -26.2478  -18.3796 C   0  0  0  0  0  0  0  0  0  0  0  0
   24.9828  -27.0698  -19.0400 N   0  0  0  0  0  0  0  0  0  0  0  0
   25.4301  -24.8631  -18.3988 N   0  0  0  0  0  0  0  0  0  0  0  0
   26.5512  -23.9227  -18.4917 C   0  0  0  0  0  0  0  0  0  0  0  0
   27.3857  -23.9806  -17.2497 C   0  0  0  0  0  0  0  0  0  0  0  0
   27.0405  -22.9252  -16.2742 C   0  0  0  0  0  0  0  0  0  0  0  0
   27.4080  -21.5386  -16.6397 C   0  0  2  0  0  0  0  0  0  0  0  0
   28.7353  -21.1603  -16.2653 N   0  0  0  0  0  0  0  0  0  0  0  0
   26.4435  -20.5253  -16.1315 C   0  0  0  0  0  0  0  0  0  0  0  0
   26.5831  -20.0933  -14.9617 O   0  0  0  0  0  0  0  0  0  0  0  0
   24.1902  -26.7637  -19.6256 N   0  0  0  0  0  0  0  0  0  0  0  0
   25.3745  -20.0188  -16.8931 C   0  0  2  0  0  0  0  0  0  0  0  0
   24.3848  -19.0471  -16.3332 C   0  0  0  0  0  0  0  0  0  0  0  0
   23.8621  -18.3319  -17.5435 C   0  0  0  0  0  0  0  0  0  0  0  0
   22.7924  -17.3570  -17.3020 C   0  0  0  0  0  0  0  0  0  0  0  0
   21.4756  -17.4532  -17.6226 N   0  0  0  0  0  0  0  0  0  0  0  0
   20.8375  -16.3545  -17.1446 C   0  0  0  0  0  0  0  0  0  0  0  0
   21.7309  -15.5941  -16.5410 N   0  0  0  0  0  0  0  0  0  0  0  0
   22.9197  -16.1827  -16.6246 C   0  0  0  0  0  0  0  0  0  0  0  0
   23.2703  -19.8836  -15.7694 O   0  0  0  0  0  0  0  0  0  0  0  0
   22.9191  -20.9233  -16.3227 N   0  0  0  0  0  0  0  0  0  0  0  0
   22.5856  -19.5078  -14.5858 C   0  0  1  0  0  0  0  0  0  0  0  0
   21.5338  -20.3515  -13.9975 C   0  0  0  0  0  0  0  0  0  0  0  0
   21.9151  -20.6937  -12.5810 C   0  0  0  0  0  0  0  0  0  0  0  0
   23.1121  -21.5605  -12.5209 C   0  0  0  0  0  0  0  0  0  0  0  0
   23.0513  -22.8647  -12.9561 C   0  0  0  0  0  0  0  0  0  0  0  0
   24.1482  -23.6871  -12.9178 C   0  0  0  0  0  0  0  0  0  0  0  0
   25.3387  -23.1797  -12.4271 C   0  0  0  0  0  0  0  0  0  0  0  0
   25.4398  -21.8866  -11.9844 C   0  0  0  0  0  0  0  0  0  0  0  0
   24.3072  -21.0960  -12.0429 C   0  0  0  0  0  0  0  0  0  0  0  0
   20.2215  -19.7158  -14.1351 O   0  0  0  0  0  0  0  0  0  0  0  0
   20.1628  -18.4588  -14.2263 O   0  0  0  0  0  0  0  0  0  0  0  0
  2  3  2  0
  2  1  1  0
  4  2  1  0
  5  4  1  0
  6  5  1  0
  7  6  1  0
  8  9  1  1
  8  7  1  0
 10 12  1  0
 10  8  1  0
 11 10  2  0
 13 12  1  0
 13 14  1  6
 14 15  1  0
 15 16  2  0
 16 17  1  0
 18 17  1  0
 19 15  1  0
 19 18  2  0
 20 13  1  0
 21 20  2  0
 22 20  1  0
 23 31  1  0
 23 22  1  0
 24 25  1  0
 23 24  1  1
 25 30  1  0
 25 26  2  0
 26 27  1  0
 27 28  2  0
 29 28  1  0
 30 29  2  0
 31 33  1  0
 32 31  2  0
M  END
$$$$
