RHF.pdb
     RDKit          3D

 33 34  0  0  1  0  0  0  0  0999 V2000
   31.7276  -31.8515  -16.3423 N   0  0  0  0  0  0  0  0  0  0  0  0
   30.4445  -32.4534  -16.3585 C   0  0  0  0  0  0  0  0  0  0  0  0
   30.2624  -33.6395  -15.8861 N   0  0  0  0  0  0  0  0  0  0  0  0
   29.3505  -31.7378  -16.9024 N   0  0  0  0  0  0  0  0  0  0  0  0
   29.5884  -30.3679  -17.3678 C   0  0  0  0  0  0  0  0  0  0  0  0
   29.6888  -29.4309  -16.2041 C   0  0  0  0  0  0  0  0  0  0  0  0
   28.5225  -28.5304  -16.0874 C   0  0  0  0  0  0  0  0  0  0  0  0
   28.4465  -27.4151  -17.0578 C   0  0  2  0  0  0  0  0  0  0  0  0
   29.6291  -26.6149  -17.1330 N   0  0  0  0  0  0  0  0  0  0  0  0
   27.2663  -26.5339  -16.8435 C   0  0  0  0  0  0  0  0  0  0  0  0
   27.4447  -25.3993  -16.3379 O   0  0  0  0  0  0  0  0  0  0  0  0
   29.3833  -34.1648  -16.0123 N   0  0  0  0  0  0  0  0  0  0  0  0
   25.9502  -26.9018  -17.1779 C   0  0  2  0  0  0  0  0  0  0  0  0
   24.7881  -25.9818  -16.9771 C   0  0  0  0  0  0  0  0  0  0  0  0
   24.9738  -24.9351  -18.0351 C   0  0  0  0  0  0  0  0  0  0  0  0
   24.9305  -25.4092  -19.4230 C   0  0  0  0  0  0  0  0  0  0  0  0
   23.8439  -25.5957  -20.2170 N   0  0  0  0  0  0  0  0  0  0  0  0
   24.2734  -25.9714  -21.4487 C   0  0  0  0  0  0  0  0  0  0  0  0
   25.5918  -26.0168  -21.4249 N   0  0  0  0  0  0  0  0  0  0  0  0
   26.0092  -25.6798  -20.2088 C   0  0  0  0  0  0  0  0  0  0  0  0
   23.5684  -26.7872  -17.3282 O   0  0  0  0  0  0  0  0  0  0  0  0
   23.5947  -27.6060  -18.2443 N   0  0  0  0  0  0  0  0  0  0  0  0
   22.3488  -26.6341  -16.6211 C   0  0  2  0  0  0  0  0  0  0  0  0
   21.1852  -27.4941  -16.8871 C   0  0  0  0  0  0  0  0  0  0  0  0
   20.9790  -27.5930  -18.3759 C   0  0  0  0  0  0  0  0  0  0  0  0
   19.8075  -28.4274  -18.7212 C   0  0  0  0  0  0  0  0  0  0  0  0
   19.9602  -29.5618  -19.4853 C   0  0  0  0  0  0  0  0  0  0  0  0
   18.8916  -30.3565  -19.8135 C   0  0  0  0  0  0  0  0  0  0  0  0
   17.6350  -29.9967  -19.3584 C   0  0  0  0  0  0  0  0  0  0  0  0
   17.4418  -28.8749  -18.5952 C   0  0  0  0  0  0  0  0  0  0  0  0
   18.5493  -28.1055  -18.2902 C   0  0  0  0  0  0  0  0  0  0  0  0
   21.3275  -28.7839  -16.2079 O   0  0  0  0  0  0  0  0  0  0  0  0
   22.3331  -29.4996  -16.4695 O   0  0  0  0  0  0  0  0  0  0  0  0
  2  3  2  0
  2  1  1  0
  4  2  1  0
  5  4  1  0
  6  5  1  0
  7  6  1  0
  8  9  1  1
  8  7  1  0
 10 12  1  0
 10  8  1  0
 11 10  2  0
 13 12  1  0
 13 14  1  1
 14 15  1  0
 15 16  2  0
 16 17  1  0
 18 17  1  0
 19 15  1  0
 19 18  2  0
 20 13  1  0
 21 20  2  0
 22 20  1  0
 23 31  1  0
 23 22  1  0
 24 25  1  0
 23 24  1  6
 25 30  1  0
 25 26  2  0
 26 27  1  0
 27 28  2  0
 29 28  1  0
 30 29  2  0
 31 33  1  0
 32 31  2  0
M  END
$$$$
