RHF.pdb
     RDKit          3D

 33 34  0  0  1  0  0  0  0  0999 V2000
   18.7321  -25.1482   -8.7490 N   0  0  0  0  0  0  0  0  0  0  0  0
   18.5817  -24.0221   -7.9017 C   0  0  0  0  0  0  0  0  0  0  0  0
   18.5325  -24.1582   -6.6202 N   0  0  0  0  0  0  0  0  0  0  0  0
   18.4846  -22.7314   -8.4756 N   0  0  0  0  0  0  0  0  0  0  0  0
   18.6851  -22.6058   -9.9226 C   0  0  0  0  0  0  0  0  0  0  0  0
   20.0667  -22.1091  -10.2173 C   0  0  0  0  0  0  0  0  0  0  0  0
   20.0861  -21.0194  -11.2157 C   0  0  0  0  0  0  0  0  0  0  0  0
   20.9502  -21.2212  -12.4006 C   0  0  2  0  0  0  0  0  0  0  0  0
   20.4352  -22.1516  -13.3566 N   0  0  0  0  0  0  0  0  0  0  0  0
   22.3466  -21.5968  -12.0481 C   0  0  0  0  0  0  0  0  0  0  0  0
   22.6351  -22.8133  -11.9409 O   0  0  0  0  0  0  0  0  0  0  0  0
   18.4441  -23.3586   -5.9740 N   0  0  0  0  0  0  0  0  0  0  0  0
   23.3716  -20.6590  -11.8263 C   0  0  2  0  0  0  0  0  0  0  0  0
   24.7781  -21.0693  -11.5251 C   0  0  0  0  0  0  0  0  0  0  0  0
   25.5968  -20.2888  -12.5101 C   0  0  0  0  0  0  0  0  0  0  0  0
   27.0519  -20.4436  -12.4021 C   0  0  0  0  0  0  0  0  0  0  0  0
   27.7516  -21.3485  -11.6689 N   0  0  0  0  0  0  0  0  0  0  0  0
   29.0734  -21.1777  -11.9268 C   0  0  0  0  0  0  0  0  0  0  0  0
   29.1955  -20.1944  -12.7980 N   0  0  0  0  0  0  0  0  0  0  0  0
   27.9843  -19.7369  -13.0988 C   0  0  0  0  0  0  0  0  0  0  0  0
   25.0702  -20.5355  -10.1506 O   0  0  0  0  0  0  0  0  0  0  0  0
   24.5527  -19.4934   -9.7548 N   0  0  0  0  0  0  0  0  0  0  0  0
   25.9485  -21.2087   -9.2639 C   0  0  1  0  0  0  0  0  0  0  0  0
   26.4076  -20.5914   -8.0099 C   0  0  0  0  0  0  0  0  0  0  0  0
   27.3555  -21.5351   -7.3174 C   0  0  0  0  0  0  0  0  0  0  0  0
   27.8834  -20.9684   -6.0573 C   0  0  0  0  0  0  0  0  0  0  0  0
   29.0130  -20.1823   -6.0653 C   0  0  0  0  0  0  0  0  0  0  0  0
   29.5189  -19.6390   -4.9120 C   0  0  0  0  0  0  0  0  0  0  0  0
   28.8672  -19.8959   -3.7184 C   0  0  0  0  0  0  0  0  0  0  0  0
   27.7397  -20.6735   -3.6687 C   0  0  0  0  0  0  0  0  0  0  0  0
   27.2676  -21.1991   -4.8572 C   0  0  0  0  0  0  0  0  0  0  0  0
   26.9559  -19.2564   -8.2594 O   0  0  0  0  0  0  0  0  0  0  0  0
   27.6556  -19.0714   -9.2929 O   0  0  0  0  0  0  0  0  0  0  0  0
  2  3  2  0
  2  1  1  0
  4  2  1  0
  5  4  1  0
  6  5  1  0
  7  6  1  0
  8  9  1  6
  8  7  1  0
 10 12  1  0
 10  8  1  0
 11 10  2  0
 13 12  1  0
 13 14  1  1
 14 15  1  0
 15 16  2  0
 16 17  1  0
 18 17  1  0
 19 15  1  0
 19 18  2  0
 20 13  1  0
 21 20  2  0
 22 20  1  0
 23 31  1  0
 23 22  1  0
 24 25  1  0
 23 24  1  6
 25 30  1  0
 25 26  2  0
 26 27  1  0
 27 28  2  0
 29 28  1  0
 30 29  2  0
 31 33  1  0
 32 31  2  0
M  END
$$$$
