RHF.pdb
     RDKit          3D

 33 34  0  0  1  0  0  0  0  0999 V2000
   27.5224  -28.3335  -16.4859 N   0  0  0  0  0  0  0  0  0  0  0  0
   28.3343  -28.9398  -17.4768 C   0  0  0  0  0  0  0  0  0  0  0  0
   28.0145  -30.0787  -17.9905 N   0  0  0  0  0  0  0  0  0  0  0  0
   29.5122  -28.2814  -17.9054 N   0  0  0  0  0  0  0  0  0  0  0  0
   29.8496  -26.9994  -17.2789 C   0  0  0  0  0  0  0  0  0  0  0  0
   29.8258  -25.8994  -18.2946 C   0  0  0  0  0  0  0  0  0  0  0  0
   29.6302  -24.5637  -17.6925 C   0  0  0  0  0  0  0  0  0  0  0  0
   28.3476  -24.3346  -16.9899 C   0  0  2  0  0  0  0  0  0  0  0  0
   27.1933  -24.3940  -17.8318 N   0  0  0  0  0  0  0  0  0  0  0  0
   28.3266  -23.0663  -16.2112 C   0  0  0  0  0  0  0  0  0  0  0  0
   29.4153  -22.5821  -15.8176 O   0  0  0  0  0  0  0  0  0  0  0  0
   28.5870  -30.5516  -18.7070 N   0  0  0  0  0  0  0  0  0  0  0  0
   27.1465  -22.3720  -15.8877 C   0  0  2  0  0  0  0  0  0  0  0  0
   27.1447  -21.1735  -14.9928 C   0  0  0  0  0  0  0  0  0  0  0  0
   26.7748  -20.0444  -15.9081 C   0  0  0  0  0  0  0  0  0  0  0  0
   26.4885  -18.7593  -15.2606 C   0  0  0  0  0  0  0  0  0  0  0  0
   27.3534  -17.9197  -14.6336 N   0  0  0  0  0  0  0  0  0  0  0  0
   26.6708  -16.8111  -14.2492 C   0  0  0  0  0  0  0  0  0  0  0  0
   25.4147  -16.9539  -14.6271 N   0  0  0  0  0  0  0  0  0  0  0  0
   25.2835  -18.1255  -15.2409 C   0  0  0  0  0  0  0  0  0  0  0  0
   26.0074  -21.3864  -14.0332 O   0  0  0  0  0  0  0  0  0  0  0  0
   24.8826  -21.6691  -14.4398 N   0  0  0  0  0  0  0  0  0  0  0  0
   26.1870  -21.2694  -12.6314 C   0  0  2  0  0  0  0  0  0  0  0  0
   25.0525  -21.3299  -11.6966 C   0  0  0  0  0  0  0  0  0  0  0  0
   25.4863  -22.0476  -10.4453 C   0  0  0  0  0  0  0  0  0  0  0  0
   26.4567  -21.2562   -9.6580 C   0  0  0  0  0  0  0  0  0  0  0  0
   27.8094  -21.4556   -9.8144 C   0  0  0  0  0  0  0  0  0  0  0  0
   28.7300  -20.7304   -9.1019 C   0  0  0  0  0  0  0  0  0  0  0  0
   28.2732  -19.7781   -8.2075 C   0  0  0  0  0  0  0  0  0  0  0  0
   26.9344  -19.5497   -8.0233 C   0  0  0  0  0  0  0  0  0  0  0  0
   26.0448  -20.3055   -8.7641 C   0  0  0  0  0  0  0  0  0  0  0  0
   24.4975  -19.9941  -11.4676 O   0  0  0  0  0  0  0  0  0  0  0  0
   23.3429  -19.8941  -10.9689 O   0  0  0  0  0  0  0  0  0  0  0  0
  2  3  2  0
  2  1  1  0
  4  2  1  0
  5  4  1  0
  6  5  1  0
  7  6  1  0
  8  9  1  6
  8  7  1  0
 10 12  1  0
 10  8  1  0
 11 10  2  0
 13 12  1  0
 13 14  1  6
 14 15  1  0
 15 16  2  0
 16 17  1  0
 18 17  1  0
 19 15  1  0
 19 18  2  0
 20 13  1  0
 21 20  2  0
 22 20  1  0
 23 31  1  0
 23 22  1  0
 24 25  1  0
 23 24  1  6
 25 30  1  0
 25 26  2  0
 26 27  1  0
 27 28  2  0
 29 28  1  0
 30 29  2  0
 31 33  1  0
 32 31  2  0
M  END
$$$$
