RHF.pdb
     RDKit          3D

 33 34  0  0  1  0  0  0  0  0999 V2000
   17.0429  -28.8496   -9.2204 N   0  0  0  0  0  0  0  0  0  0  0  0
   18.3709  -28.4504   -8.9272 C   0  0  0  0  0  0  0  0  0  0  0  0
   19.3756  -29.1759   -9.2840 N   0  0  0  0  0  0  0  0  0  0  0  0
   18.5920  -27.2368   -8.2323 N   0  0  0  0  0  0  0  0  0  0  0  0
   17.4400  -26.3614   -7.9942 C   0  0  0  0  0  0  0  0  0  0  0  0
   17.8790  -25.0853   -7.3454 C   0  0  0  0  0  0  0  0  0  0  0  0
   17.5825  -25.0433   -5.8980 C   0  0  0  0  0  0  0  0  0  0  0  0
   16.1543  -25.0949   -5.5121 C   0  0  2  0  0  0  0  0  0  0  0  0
   15.3870  -23.9635   -5.9317 N   0  0  0  0  0  0  0  0  0  0  0  0
   15.9508  -25.3169   -4.0545 C   0  0  0  0  0  0  0  0  0  0  0  0
   15.8346  -24.3187   -3.3029 O   0  0  0  0  0  0  0  0  0  0  0  0
   20.3554  -28.8969   -9.1203 N   0  0  0  0  0  0  0  0  0  0  0  0
   15.8801  -26.5921   -3.4645 C   0  0  2  0  0  0  0  0  0  0  0  0
   15.4141  -26.7969   -2.0581 C   0  0  0  0  0  0  0  0  0  0  0  0
   14.7230  -28.1274   -2.1006 C   0  0  0  0  0  0  0  0  0  0  0  0
   13.2797  -28.0940   -2.3625 C   0  0  0  0  0  0  0  0  0  0  0  0
   12.4735  -27.0097   -2.5055 N   0  0  0  0  0  0  0  0  0  0  0  0
   11.2242  -27.4431   -2.8125 C   0  0  0  0  0  0  0  0  0  0  0  0
   11.2500  -28.7613   -2.8613 N   0  0  0  0  0  0  0  0  0  0  0  0
   12.4842  -29.1749   -2.5924 C   0  0  0  0  0  0  0  0  0  0  0  0
   16.6632  -26.9474   -1.2354 O   0  0  0  0  0  0  0  0  0  0  0  0
   17.6539  -27.5154   -1.6896 N   0  0  0  0  0  0  0  0  0  0  0  0
   16.7460  -26.4437    0.0877 C   0  0  1  0  0  0  0  0  0  0  0  0
   17.9688  -26.5801    0.8941 C   0  0  0  0  0  0  0  0  0  0  0  0
   18.0247  -25.4545    1.8936 C   0  0  0  0  0  0  0  0  0  0  0  0
   19.0819  -25.6623    2.9070 C   0  0  0  0  0  0  0  0  0  0  0  0
   18.7519  -25.9956    4.2008 C   0  0  0  0  0  0  0  0  0  0  0  0
   19.7129  -26.2007    5.1577 C   0  0  0  0  0  0  0  0  0  0  0  0
   21.0428  -26.0657    4.7992 C   0  0  0  0  0  0  0  0  0  0  0  0
   21.4121  -25.7351    3.5214 C   0  0  0  0  0  0  0  0  0  0  0  0
   20.4077  -25.5384    2.5919 C   0  0  0  0  0  0  0  0  0  0  0  0
   18.0550  -27.9184    1.4830 O   0  0  0  0  0  0  0  0  0  0  0  0
   16.9895  -28.4992    1.8279 O   0  0  0  0  0  0  0  0  0  0  0  0
  2  3  2  0
  2  1  1  0
  4  2  1  0
  5  4  1  0
  6  5  1  0
  7  6  1  0
  8  9  1  1
  8  7  1  0
 10 12  1  0
 10  8  1  0
 11 10  2  0
 13 12  1  0
 13 14  1  6
 14 15  1  0
 15 16  2  0
 16 17  1  0
 18 17  1  0
 19 15  1  0
 19 18  2  0
 20 13  1  0
 21 20  2  0
 22 20  1  0
 23 31  1  0
 23 22  1  0
 24 25  1  0
 23 24  1  1
 25 30  1  0
 25 26  2  0
 26 27  1  0
 27 28  2  0
 29 28  1  0
 30 29  2  0
 31 33  1  0
 32 31  2  0
M  END
$$$$
