RHF.pdb
     RDKit          3D

 33 34  0  0  1  0  0  0  0  0999 V2000
   22.9943  -27.9763  -14.2598 N   0  0  0  0  0  0  0  0  0  0  0  0
   22.2393  -26.9034  -14.7961 C   0  0  0  0  0  0  0  0  0  0  0  0
   20.9893  -27.0482  -15.0783 N   0  0  0  0  0  0  0  0  0  0  0  0
   22.8713  -25.6570  -15.0233 N   0  0  0  0  0  0  0  0  0  0  0  0
   24.2670  -25.5068  -14.5995 C   0  0  0  0  0  0  0  0  0  0  0  0
   24.6135  -24.0581  -14.4469 C   0  0  0  0  0  0  0  0  0  0  0  0
   24.5822  -23.3204  -15.7274 C   0  0  0  0  0  0  0  0  0  0  0  0
   25.1085  -21.9370  -15.7086 C   0  0  2  0  0  0  0  0  0  0  0  0
   26.3631  -21.7907  -15.0383 N   0  0  0  0  0  0  0  0  0  0  0  0
   24.1379  -20.9501  -15.1617 C   0  0  0  0  0  0  0  0  0  0  0  0
   24.4330  -20.3337  -14.1093 O   0  0  0  0  0  0  0  0  0  0  0  0
   20.4116  -26.2895  -15.4726 N   0  0  0  0  0  0  0  0  0  0  0  0
   22.8975  -20.6650  -15.7613 C   0  0  2  0  0  0  0  0  0  0  0  0
   21.9675  -19.6271  -15.2182 C   0  0  0  0  0  0  0  0  0  0  0  0
   21.3676  -19.0074  -16.4452 C   0  0  0  0  0  0  0  0  0  0  0  0
   22.1376  -17.9189  -17.0577 C   0  0  0  0  0  0  0  0  0  0  0  0
   23.3561  -17.4399  -16.6948 N   0  0  0  0  0  0  0  0  0  0  0  0
   23.7218  -16.4822  -17.5847 C   0  0  0  0  0  0  0  0  0  0  0  0
   22.7589  -16.3676  -18.4794 N   0  0  0  0  0  0  0  0  0  0  0  0
   21.7915  -17.2281  -18.1789 C   0  0  0  0  0  0  0  0  0  0  0  0
   20.8851  -20.3871  -14.5039 O   0  0  0  0  0  0  0  0  0  0  0  0
   20.6368  -21.5552  -14.7943 N   0  0  0  0  0  0  0  0  0  0  0  0
   20.1136  -19.7897  -13.4748 C   0  0  1  0  0  0  0  0  0  0  0  0
   19.1194  -20.5555  -12.7071 C   0  0  0  0  0  0  0  0  0  0  0  0
   18.8629  -19.8531  -11.3996 C   0  0  0  0  0  0  0  0  0  0  0  0
   19.9629  -20.0587  -10.4324 C   0  0  0  0  0  0  0  0  0  0  0  0
   19.8848  -21.0581   -9.4894 C   0  0  0  0  0  0  0  0  0  0  0  0
   20.8938  -21.2743   -8.5859 C   0  0  0  0  0  0  0  0  0  0  0  0
   22.0119  -20.4601   -8.6353 C   0  0  0  0  0  0  0  0  0  0  0  0
   22.1274  -19.4543   -9.5592 C   0  0  0  0  0  0  0  0  0  0  0  0
   21.0845  -19.2750  -10.4490 C   0  0  0  0  0  0  0  0  0  0  0  0
   17.9189  -20.7984  -13.5103 O   0  0  0  0  0  0  0  0  0  0  0  0
   17.1811  -21.7789  -13.2172 O   0  0  0  0  0  0  0  0  0  0  0  0
  2  3  2  0
  2  1  1  0
  4  2  1  0
  5  4  1  0
  6  5  1  0
  7  6  1  0
  8  9  1  1
  8  7  1  0
 10 12  1  0
 10  8  1  0
 11 10  2  0
 13 12  1  0
 13 14  1  6
 14 15  1  0
 15 16  2  0
 16 17  1  0
 18 17  1  0
 19 15  1  0
 19 18  2  0
 20 13  1  0
 21 20  2  0
 22 20  1  0
 23 31  1  0
 23 22  1  0
 24 25  1  0
 23 24  1  1
 25 30  1  0
 25 26  2  0
 26 27  1  0
 27 28  2  0
 29 28  1  0
 30 29  2  0
 31 33  1  0
 32 31  2  0
M  END
$$$$
