RHF.pdb
     RDKit          3D

 33 34  0  0  1  0  0  0  0  0999 V2000
   18.3540  -23.1257  -10.8124 N   0  0  0  0  0  0  0  0  0  0  0  0
   18.4084  -21.7246  -11.0186 C   0  0  0  0  0  0  0  0  0  0  0  0
   18.9632  -20.9477  -10.1514 N   0  0  0  0  0  0  0  0  0  0  0  0
   17.8441  -21.1750  -12.1951 N   0  0  0  0  0  0  0  0  0  0  0  0
   17.1833  -22.0890  -13.1320 C   0  0  0  0  0  0  0  0  0  0  0  0
   18.1998  -22.8217  -13.9517 C   0  0  0  0  0  0  0  0  0  0  0  0
   18.3765  -22.2444  -15.3008 C   0  0  0  0  0  0  0  0  0  0  0  0
   19.3032  -22.9556  -16.2101 C   0  0  2  0  0  0  0  0  0  0  0  0
   18.7370  -24.0988  -16.8560 N   0  0  0  0  0  0  0  0  0  0  0  0
   20.5829  -23.3414  -15.5551 C   0  0  0  0  0  0  0  0  0  0  0  0
   20.7261  -24.5241  -15.1612 O   0  0  0  0  0  0  0  0  0  0  0  0
   19.0781  -19.9330  -10.2995 N   0  0  0  0  0  0  0  0  0  0  0  0
   21.6513  -22.4493  -15.3500 C   0  0  1  0  0  0  0  0  0  0  0  0
   23.0494  -22.9206  -15.1045 C   0  0  0  0  0  0  0  0  0  0  0  0
   23.4228  -23.6127  -16.3817 C   0  0  0  0  0  0  0  0  0  0  0  0
   24.7727  -24.1853  -16.4317 C   0  0  0  0  0  0  0  0  0  0  0  0
   25.6789  -24.2976  -15.4256 N   0  0  0  0  0  0  0  0  0  0  0  0
   26.7655  -24.9586  -15.9003 C   0  0  0  0  0  0  0  0  0  0  0  0
   26.5432  -25.2522  -17.1672 N   0  0  0  0  0  0  0  0  0  0  0  0
   25.3432  -24.7935  -17.5082 C   0  0  0  0  0  0  0  0  0  0  0  0
   23.8825  -21.6746  -14.9897 O   0  0  0  0  0  0  0  0  0  0  0  0
   23.5785  -20.6531  -15.6017 N   0  0  0  0  0  0  0  0  0  0  0  0
   25.0436  -21.6301  -14.1767 C   0  0  1  0  0  0  0  0  0  0  0  0
   25.8589  -20.4116  -14.0554 C   0  0  0  0  0  0  0  0  0  0  0  0
   26.6756  -20.4922  -12.7923 C   0  0  0  0  0  0  0  0  0  0  0  0
   25.8293  -20.6768  -11.5933 C   0  0  0  0  0  0  0  0  0  0  0  0
   26.2069  -21.5525  -10.6011 C   0  0  0  0  0  0  0  0  0  0  0  0
   25.4439  -21.7368   -9.4764 C   0  0  0  0  0  0  0  0  0  0  0  0
   24.2681  -21.0179   -9.3495 C   0  0  0  0  0  0  0  0  0  0  0  0
   23.8577  -20.1363  -10.3153 C   0  0  0  0  0  0  0  0  0  0  0  0
   24.6601  -19.9845  -11.4308 C   0  0  0  0  0  0  0  0  0  0  0  0
   26.6441  -20.1897  -15.2717 O   0  0  0  0  0  0  0  0  0  0  0  0
   26.8424  -21.1615  -16.0515 O   0  0  0  0  0  0  0  0  0  0  0  0
  2  3  2  0
  2  1  1  0
  4  2  1  0
  5  4  1  0
  6  5  1  0
  7  6  1  0
  8  9  1  1
  8  7  1  0
 10 12  1  0
 10  8  1  0
 11 10  2  0
 13 12  1  0
 13 14  1  6
 14 15  1  0
 15 16  2  0
 16 17  1  0
 18 17  1  0
 19 15  1  0
 19 18  2  0
 20 13  1  0
 21 20  2  0
 22 20  1  0
 23 31  1  0
 23 22  1  0
 24 25  1  0
 23 24  1  6
 25 30  1  0
 25 26  2  0
 26 27  1  0
 27 28  2  0
 29 28  1  0
 30 29  2  0
 31 33  1  0
 32 31  2  0
M  END
$$$$
