RHF.pdb
     RDKit          3D

 33 34  0  0  1  0  0  0  0  0999 V2000
   21.3941  -11.1053  -24.4467 N   0  0  0  0  0  0  0  0  0  0  0  0
   21.0471  -10.2946  -23.3372 C   0  0  0  0  0  0  0  0  0  0  0  0
   19.8854   -9.7401  -23.2585 N   0  0  0  0  0  0  0  0  0  0  0  0
   21.9931  -10.0939  -22.3030 N   0  0  0  0  0  0  0  0  0  0  0  0
   23.2747  -10.7999  -22.3975 C   0  0  0  0  0  0  0  0  0  0  0  0
   23.3299  -11.9174  -21.4023 C   0  0  0  0  0  0  0  0  0  0  0  0
   24.0826  -11.5637  -20.1804 C   0  0  0  0  0  0  0  0  0  0  0  0
   23.5233  -12.0412  -18.8957 C   0  0  2  0  0  0  0  0  0  0  0  0
   23.1287  -13.4156  -18.8968 N   0  0  0  0  0  0  0  0  0  0  0  0
   22.3960  -11.2039  -18.4022 C   0  0  0  0  0  0  0  0  0  0  0  0
   21.3756  -11.0812  -19.1222 O   0  0  0  0  0  0  0  0  0  0  0  0
   19.5646   -9.2255  -22.4237 N   0  0  0  0  0  0  0  0  0  0  0  0
   22.4076  -10.5358  -17.1641 C   0  0  1  0  0  0  0  0  0  0  0  0
   21.2187   -9.7889  -16.6484 C   0  0  0  0  0  0  0  0  0  0  0  0
   20.7371  -10.6300  -15.5037 C   0  0  0  0  0  0  0  0  0  0  0  0
   19.6589  -11.5766  -15.8106 C   0  0  0  0  0  0  0  0  0  0  0  0
   19.0887  -11.8440  -17.0145 N   0  0  0  0  0  0  0  0  0  0  0  0
   18.1836  -12.8417  -16.8471 C   0  0  0  0  0  0  0  0  0  0  0  0
   18.1896  -13.1888  -15.5741 N   0  0  0  0  0  0  0  0  0  0  0  0
   19.0754  -12.4357  -14.9299 C   0  0  0  0  0  0  0  0  0  0  0  0
   21.7601   -8.5041  -16.0864 O   0  0  0  0  0  0  0  0  0  0  0  0
   22.8192   -8.4842  -15.4633 N   0  0  0  0  0  0  0  0  0  0  0  0
   21.0742   -7.2741  -16.2518 C   0  0  2  0  0  0  0  0  0  0  0  0
   21.5529   -6.0296  -15.6301 C   0  0  0  0  0  0  0  0  0  0  0  0
   20.9537   -4.8556  -16.3592 C   0  0  0  0  0  0  0  0  0  0  0  0
   21.2992   -3.5678  -15.7189 C   0  0  0  0  0  0  0  0  0  0  0  0
   22.5144   -2.9705  -15.9647 C   0  0  0  0  0  0  0  0  0  0  0  0
   22.8564   -1.7733  -15.3894 C   0  0  0  0  0  0  0  0  0  0  0  0
   21.9475   -1.1624  -14.5432 C   0  0  0  0  0  0  0  0  0  0  0  0
   20.7273   -1.7251  -14.2732 C   0  0  0  0  0  0  0  0  0  0  0  0
   20.4278   -2.9324  -14.8766 C   0  0  0  0  0  0  0  0  0  0  0  0
   21.3004   -6.0402  -14.1874 O   0  0  0  0  0  0  0  0  0  0  0  0
   20.2210   -6.5377  -13.7640 O   0  0  0  0  0  0  0  0  0  0  0  0
  2  3  2  0
  2  1  1  0
  4  2  1  0
  5  4  1  0
  6  5  1  0
  7  6  1  0
  8  9  1  6
  8  7  1  0
 10 12  1  0
 10  8  1  0
 11 10  2  0
 13 12  1  0
 13 14  1  1
 14 15  1  0
 15 16  2  0
 16 17  1  0
 18 17  1  0
 19 15  1  0
 19 18  2  0
 20 13  1  0
 21 20  2  0
 22 20  1  0
 23 31  1  0
 23 22  1  0
 24 25  1  0
 23 24  1  1
 25 30  1  0
 25 26  2  0
 26 27  1  0
 27 28  2  0
 29 28  1  0
 30 29  2  0
 31 33  1  0
 32 31  2  0
M  END
$$$$
