SVG.pdb
     RDKit          3D

 18 17  0  0  1  0  0  0  0  0999 V2000
    5.5168  -16.8096   20.7651 O   0  0  0  0  0  0  0  0  0  0  0  0
    6.4131  -16.4950   21.7602 C   0  0  0  0  0  0  0  0  0  0  0  0
    6.7860  -15.0179   21.6390 C   0  0  2  0  0  0  0  0  0  0  0  0
    7.6089  -14.9000   20.4364 N   0  0  0  0  0  0  0  0  0  0  0  0
    7.5703  -14.5636   22.7936 C   0  0  0  0  0  0  0  0  0  0  0  0
    8.8093  -14.7972   22.8748 O   0  0  0  0  0  0  0  0  0  0  0  0
    7.9338  -12.1351   27.0796 C   0  0  0  0  0  0  0  0  0  0  0  0
    7.1122  -12.5000   25.8749 C   0  0  2  0  0  0  0  0  0  0  0  0
    5.6752  -12.7791   26.2438 C   0  0  0  0  0  0  0  0  0  0  0  0
    7.7401  -13.6362   25.1044 C   0  0  2  0  0  0  0  0  0  0  0  0
    6.9985  -13.8434   23.8777 N   0  0  0  0  0  0  0  0  0  0  0  0
    7.8515  -14.8706   25.9049 C   0  0  0  0  0  0  0  0  0  0  0  0
    6.8117  -15.4863   26.2099 O   0  0  0  0  0  0  0  0  0  0  0  0
    9.0875  -15.4084   26.3556 N   0  0  0  0  0  0  0  0  0  0  0  0
    9.2218  -16.6109   27.1101 C   0  0  0  0  0  0  0  0  0  0  0  0
   10.5957  -16.9047   27.5303 C   0  0  0  0  0  0  0  0  0  0  0  0
   10.9242  -17.9130   28.4195 O   0  0  0  0  0  0  0  0  0  0  0  0
   11.5329  -16.2097   27.0640 O   0  0  0  0  0  0  0  0  0  0  0  0
  1  2  1  0
  3  2  1  0
  3  4  1  6
  5 11  1  0
  5  3  1  0
  6  5  2  0
  8  7  1  1
  9  8  1  0
 10 11  1  6
 10  8  1  0
 12 13  2  0
 12 10  1  0
 14 12  1  0
 15 14  1  0
 15 16  1  0
 16 17  1  0
 18 16  2  0
M  END
$$$$
