SVG.pdb
     RDKit          3D

 18 17  0  0  1  0  0  0  0  0999 V2000
    7.6865  -14.5589   19.1165 O   0  0  0  0  0  0  0  0  0  0  0  0
    8.3831  -14.3349   20.2815 C   0  0  0  0  0  0  0  0  0  0  0  0
    7.7763  -15.1923   21.3915 C   0  0  2  0  0  0  0  0  0  0  0  0
    6.3328  -14.9662   21.3418 N   0  0  0  0  0  0  0  0  0  0  0  0
    8.2712  -14.7911   22.7139 C   0  0  0  0  0  0  0  0  0  0  0  0
    9.5073  -14.7852   22.9751 O   0  0  0  0  0  0  0  0  0  0  0  0
    7.8284  -12.5260   26.9907 C   0  0  0  0  0  0  0  0  0  0  0  0
    7.1892  -12.9702   25.7048 C   0  0  2  0  0  0  0  0  0  0  0  0
    5.7161  -13.2490   25.8816 C   0  0  0  0  0  0  0  0  0  0  0  0
    7.9277  -14.1389   25.0984 C   0  0  2  0  0  0  0  0  0  0  0  0
    7.4082  -14.3896   23.7699 N   0  0  0  0  0  0  0  0  0  0  0  0
    7.8835  -15.3418   25.9515 C   0  0  0  0  0  0  0  0  0  0  0  0
    6.8090  -15.9640   26.0597 O   0  0  0  0  0  0  0  0  0  0  0  0
    9.0051  -15.8418   26.6671 N   0  0  0  0  0  0  0  0  0  0  0  0
    8.9897  -17.0083   27.4871 C   0  0  0  0  0  0  0  0  0  0  0  0
   10.2643  -17.2875   28.1563 C   0  0  0  0  0  0  0  0  0  0  0  0
   10.4213  -18.2626   29.1258 O   0  0  0  0  0  0  0  0  0  0  0  0
   11.2747  -16.6109   27.8403 O   0  0  0  0  0  0  0  0  0  0  0  0
  1  2  1  0
  3  2  1  0
  3  4  1  1
  5 11  1  0
  5  3  1  0
  6  5  2  0
  8  7  1  1
  9  8  1  0
 10 11  1  6
 10  8  1  0
 12 13  2  0
 12 10  1  0
 14 12  1  0
 15 14  1  0
 15 16  1  0
 16 17  1  0
 18 16  2  0
M  END
$$$$
