SVG.pdb
     RDKit          3D

 18 17  0  0  1  0  0  0  0  0999 V2000
    6.7754  -16.3900   21.7498 O   0  0  0  0  0  0  0  0  0  0  0  0
    6.3029  -15.2043   21.2364 C   0  0  0  0  0  0  0  0  0  0  0  0
    7.2844  -14.0878   21.5904 C   0  0  2  0  0  0  0  0  0  0  0  0
    8.4295  -14.2494   20.6959 N   0  0  0  0  0  0  0  0  0  0  0  0
    7.7504  -14.1996   22.9778 C   0  0  0  0  0  0  0  0  0  0  0  0
    8.8607  -14.7360   23.2532 O   0  0  0  0  0  0  0  0  0  0  0  0
    5.4027  -12.9400   26.4390 C   0  0  0  0  0  0  0  0  0  0  0  0
    6.8988  -12.8464   26.3277 C   0  0  2  0  0  0  0  0  0  0  0  0
    7.3406  -11.4699   25.8932 C   0  0  0  0  0  0  0  0  0  0  0  0
    7.4536  -13.9357   25.4418 C   0  0  2  0  0  0  0  0  0  0  0  0
    6.9973  -13.7202   24.0842 N   0  0  0  0  0  0  0  0  0  0  0  0
    7.1261  -15.2878   25.9331 C   0  0  0  0  0  0  0  0  0  0  0  0
    5.9524  -15.6956   25.8363 O   0  0  0  0  0  0  0  0  0  0  0  0
    8.0787  -16.1658   26.5176 N   0  0  0  0  0  0  0  0  0  0  0  0
    7.7961  -17.4923   26.9578 C   0  0  0  0  0  0  0  0  0  0  0  0
    8.9376  -18.1749   27.5753 C   0  0  0  0  0  0  0  0  0  0  0  0
    8.8685  -19.4498   28.1094 O   0  0  0  0  0  0  0  0  0  0  0  0
   10.0428  -17.5796   27.6278 O   0  0  0  0  0  0  0  0  0  0  0  0
  1  2  1  0
  3  2  1  0
  3  4  1  6
  5 11  1  0
  5  3  1  0
  6  5  2  0
  8  7  1  6
  9  8  1  0
 10 11  1  6
 10  8  1  0
 12 13  2  0
 12 10  1  0
 14 12  1  0
 15 14  1  0
 15 16  1  0
 16 17  1  0
 18 16  2  0
M  END
$$$$
