SVG.pdb
     RDKit          3D

 18 17  0  0  1  0  0  0  0  0999 V2000
    7.9916  -18.9812   20.6473 O   0  0  0  0  0  0  0  0  0  0  0  0
    6.8313  -18.5414   20.0534 C   0  0  0  0  0  0  0  0  0  0  0  0
    7.1918  -17.6142   18.8933 C   0  0  2  0  0  0  0  0  0  0  0  0
    7.8193  -18.4557   17.8755 N   0  0  0  0  0  0  0  0  0  0  0  0
    8.1490  -16.5810   19.3065 C   0  0  0  0  0  0  0  0  0  0  0  0
    9.3781  -16.6811   19.0316 O   0  0  0  0  0  0  0  0  0  0  0  0
    7.0942  -13.0504   21.6659 C   0  0  0  0  0  0  0  0  0  0  0  0
    8.0413  -13.0724   20.4989 C   0  0  2  0  0  0  0  0  0  0  0  0
    7.3562  -12.6649   19.2170 C   0  0  0  0  0  0  0  0  0  0  0  0
    8.7378  -14.4066   20.3808 C   0  0  2  0  0  0  0  0  0  0  0  0
    7.7639  -15.4198   20.0306 N   0  0  0  0  0  0  0  0  0  0  0  0
    9.4978  -14.7588   21.5953 C   0  0  0  0  0  0  0  0  0  0  0  0
   10.4370  -14.0217   21.9528 O   0  0  0  0  0  0  0  0  0  0  0  0
    9.2217  -15.9018   22.3937 N   0  0  0  0  0  0  0  0  0  0  0  0
    9.8821  -16.2147   23.6181 C   0  0  0  0  0  0  0  0  0  0  0  0
   11.2023  -16.8295   23.4471 C   0  0  0  0  0  0  0  0  0  0  0  0
   12.3401  -16.3923   24.1026 O   0  0  0  0  0  0  0  0  0  0  0  0
   11.3183  -17.8066   22.6658 O   0  0  0  0  0  0  0  0  0  0  0  0
  1  2  1  0
  3  2  1  0
  3  4  1  6
  5 11  1  0
  5  3  1  0
  6  5  2  0
  8  7  1  1
  9  8  1  0
 10 11  1  1
 10  8  1  0
 12 13  2  0
 12 10  1  0
 14 12  1  0
 15 14  1  0
 15 16  1  0
 16 17  1  0
 18 16  2  0
M  END
$$$$
