SVG.pdb
     RDKit          3D

 18 17  0  0  1  0  0  0  0  0999 V2000
    7.0615  -15.4461   21.0062 O   0  0  0  0  0  0  0  0  0  0  0  0
    6.1620  -14.4060   20.9658 C   0  0  0  0  0  0  0  0  0  0  0  0
    6.8617  -13.1304   21.4335 C   0  0  2  0  0  0  0  0  0  0  0  0
    7.8271  -12.7862   20.3909 N   0  0  0  0  0  0  0  0  0  0  0  0
    7.5842  -13.3431   22.6934 C   0  0  0  0  0  0  0  0  0  0  0  0
    8.8081  -13.6569   22.7002 O   0  0  0  0  0  0  0  0  0  0  0  0
    5.6636  -13.1213   26.5582 C   0  0  0  0  0  0  0  0  0  0  0  0
    7.0921  -12.7175   26.3220 C   0  0  2  0  0  0  0  0  0  0  0  0
    7.2264  -11.2253   26.1374 C   0  0  0  0  0  0  0  0  0  0  0  0
    7.7024  -13.4960   25.1817 C   0  0  2  0  0  0  0  0  0  0  0  0
    6.9663  -13.2123   23.9671 N   0  0  0  0  0  0  0  0  0  0  0  0
    7.7821  -14.9425   25.4614 C   0  0  0  0  0  0  0  0  0  0  0  0
    6.7346  -15.6175   25.4447 O   0  0  0  0  0  0  0  0  0  0  0  0
    8.9954  -15.6229   25.7526 N   0  0  0  0  0  0  0  0  0  0  0  0
    9.0976  -17.0193   26.0229 C   0  0  0  0  0  0  0  0  0  0  0  0
   10.4409  -17.4572   26.4157 C   0  0  0  0  0  0  0  0  0  0  0  0
   11.5413  -16.6183   26.4421 O   0  0  0  0  0  0  0  0  0  0  0  0
   10.6134  -18.6565   26.7480 O   0  0  0  0  0  0  0  0  0  0  0  0
  1  2  1  0
  3  2  1  0
  3  4  1  6
  5 11  1  0
  5  3  1  0
  6  5  2  0
  8  7  1  6
  9  8  1  0
 10 11  1  6
 10  8  1  0
 12 13  2  0
 12 10  1  0
 14 12  1  0
 15 14  1  0
 15 16  1  0
 16 17  1  0
 18 16  2  0
M  END
$$$$
