SVG.pdb
     RDKit          3D

 18 17  0  0  1  0  0  0  0  0999 V2000
    7.0255  -16.6631   21.5050 O   0  0  0  0  0  0  0  0  0  0  0  0
    6.2225  -15.5759   21.2484 C   0  0  0  0  0  0  0  0  0  0  0  0
    7.0662  -14.3055   21.3472 C   0  0  2  0  0  0  0  0  0  0  0  0
    8.0666  -14.3939   20.2847 N   0  0  0  0  0  0  0  0  0  0  0  0
    7.7571  -14.2165   22.6392 C   0  0  0  0  0  0  0  0  0  0  0  0
    8.9351  -14.6504   22.7818 O   0  0  0  0  0  0  0  0  0  0  0  0
    7.9867  -12.4926   27.2563 C   0  0  0  0  0  0  0  0  0  0  0  0
    7.1701  -12.7005   26.0116 C   0  0  2  0  0  0  0  0  0  0  0  0
    5.7472  -13.0863   26.3362 C   0  0  0  0  0  0  0  0  0  0  0  0
    7.8337  -13.6818   25.0758 C   0  0  2  0  0  0  0  0  0  0  0  0
    7.1578  -13.6463   23.7954 N   0  0  0  0  0  0  0  0  0  0  0  0
    7.8973  -15.0452   25.6361 C   0  0  0  0  0  0  0  0  0  0  0  0
    6.8456  -15.7071   25.7303 O   0  0  0  0  0  0  0  0  0  0  0  0
    9.0997  -15.6587   26.0810 N   0  0  0  0  0  0  0  0  0  0  0  0
    9.1949  -16.9930   26.5748 C   0  0  0  0  0  0  0  0  0  0  0  0
    9.8060  -17.0984   27.9036 C   0  0  0  0  0  0  0  0  0  0  0  0
    9.9561  -18.2944   28.5835 O   0  0  0  0  0  0  0  0  0  0  0  0
   10.2190  -16.0527   28.4644 O   0  0  0  0  0  0  0  0  0  0  0  0
  1  2  1  0
  3  2  1  0
  3  4  1  6
  5 11  1  0
  5  3  1  0
  6  5  2  0
  8  7  1  1
  9  8  1  0
 10 11  1  6
 10  8  1  0
 12 13  2  0
 12 10  1  0
 14 12  1  0
 15 14  1  0
 15 16  1  0
 16 17  1  0
 18 16  2  0
M  END
$$$$
