SVG.pdb
     RDKit          3D

 18 17  0  0  1  0  0  0  0  0999 V2000
    6.3834  -19.8849   26.3271 O   0  0  0  0  0  0  0  0  0  0  0  0
    6.8806  -19.3059   25.1825 C   0  0  0  0  0  0  0  0  0  0  0  0
    5.8680  -18.2840   24.6669 C   0  0  2  0  0  0  0  0  0  0  0  0
    5.3255  -18.8345   23.4258 N   0  0  0  0  0  0  0  0  0  0  0  0
    6.5054  -16.9951   24.3721 C   0  0  0  0  0  0  0  0  0  0  0  0
    7.2558  -16.8520   23.3657 O   0  0  0  0  0  0  0  0  0  0  0  0
    7.4061  -12.2718   25.5530 C   0  0  0  0  0  0  0  0  0  0  0  0
    6.5787  -13.5124   25.7426 C   0  0  2  0  0  0  0  0  0  0  0  0
    6.2820  -13.7673   27.2006 C   0  0  0  0  0  0  0  0  0  0  0  0
    7.2120  -14.7044   25.0667 C   0  0  2  0  0  0  0  0  0  0  0  0
    6.3241  -15.8426   25.1844 N   0  0  0  0  0  0  0  0  0  0  0  0
    8.5640  -14.9955   25.5807 C   0  0  0  0  0  0  0  0  0  0  0  0
    8.7177  -15.1724   26.8047 O   0  0  0  0  0  0  0  0  0  0  0  0
    9.7176  -15.0878   24.7554 N   0  0  0  0  0  0  0  0  0  0  0  0
   11.0480  -15.2625   25.2377 C   0  0  0  0  0  0  0  0  0  0  0  0
   12.0570  -15.3886   24.1811 C   0  0  0  0  0  0  0  0  0  0  0  0
   13.4162  -15.4724   24.4279 O   0  0  0  0  0  0  0  0  0  0  0  0
   11.6783  -15.4232   22.9836 O   0  0  0  0  0  0  0  0  0  0  0  0
  1  2  1  0
  3  2  1  0
  3  4  1  6
  5 11  1  0
  5  3  1  0
  6  5  2  0
  8  7  1  1
  9  8  1  0
 10 11  1  1
 10  8  1  0
 12 13  2  0
 12 10  1  0
 14 12  1  0
 15 14  1  0
 15 16  1  0
 16 17  1  0
 18 16  2  0
M  END
$$$$
