SVG.pdb
     RDKit          3D

 18 17  0  0  1  0  0  0  0  0999 V2000
    6.6148  -16.0770   20.1161 O   0  0  0  0  0  0  0  0  0  0  0  0
    6.6880  -15.7772   21.4568 C   0  0  0  0  0  0  0  0  0  0  0  0
    7.0875  -14.3104   21.6130 C   0  0  2  0  0  0  0  0  0  0  0  0
    8.0072  -14.0166   20.5152 N   0  0  0  0  0  0  0  0  0  0  0  0
    7.7805  -14.0732   22.8850 C   0  0  0  0  0  0  0  0  0  0  0  0
    9.0356  -14.1860   22.9765 O   0  0  0  0  0  0  0  0  0  0  0  0
    5.7495  -12.9689   26.5844 C   0  0  0  0  0  0  0  0  0  0  0  0
    7.1708  -12.6301   26.2316 C   0  0  2  0  0  0  0  0  0  0  0  0
    7.2827  -11.2487   25.6333 C   0  0  0  0  0  0  0  0  0  0  0  0
    7.7868  -13.6906   25.3513 C   0  0  2  0  0  0  0  0  0  0  0  0
    7.0981  -13.7071   24.0772 N   0  0  0  0  0  0  0  0  0  0  0  0
    7.8059  -15.0191   25.9929 C   0  0  0  0  0  0  0  0  0  0  0  0
    6.7241  -15.5990   26.2089 O   0  0  0  0  0  0  0  0  0  0  0  0
    8.9973  -15.6874   26.3851 N   0  0  0  0  0  0  0  0  0  0  0  0
    9.0397  -16.9594   27.0282 C   0  0  0  0  0  0  0  0  0  0  0  0
   10.3942  -17.4360   27.3255 C   0  0  0  0  0  0  0  0  0  0  0  0
   10.6586  -18.5863   28.0483 O   0  0  0  0  0  0  0  0  0  0  0  0
   11.3751  -16.7721   26.9063 O   0  0  0  0  0  0  0  0  0  0  0  0
  1  2  1  0
  3  2  1  0
  3  4  1  6
  5 11  1  0
  5  3  1  0
  6  5  2  0
  8  7  1  6
  9  8  1  0
 10 11  1  6
 10  8  1  0
 12 13  2  0
 12 10  1  0
 14 12  1  0
 15 14  1  0
 15 16  1  0
 16 17  1  0
 18 16  2  0
M  END
$$$$
