GPY.pdb
     RDKit          3D

 24 25  0  0  1  0  0  0  0  0999 V2000
   25.4284  -16.1618  -15.4013 N   0  0  0  0  0  0  0  0  0  0  0  0
   26.4581  -16.9477  -14.8169 C   0  0  0  0  0  0  0  0  0  0  0  0
   26.0426  -18.0804  -14.0022 C   0  0  0  0  0  0  0  0  0  0  0  0
   24.9404  -18.0189  -13.4076 O   0  0  0  0  0  0  0  0  0  0  0  0
   26.8467  -19.2317  -13.8708 N   0  0  0  0  0  0  0  0  0  0  0  0
   28.1225  -19.4300  -14.5114 C   0  0  0  0  0  0  0  0  0  0  0  0
   28.6108  -20.8124  -14.1369 C   0  0  0  0  0  0  0  0  0  0  0  0
   27.4119  -21.5168  -13.5370 C   0  0  0  0  0  0  0  0  0  0  0  0
   26.5015  -20.4077  -13.0564 C   0  0  1  0  0  0  0  0  0  0  0  0
   26.7484  -20.0936  -11.6046 C   0  0  0  0  0  0  0  0  0  0  0  0
   27.6963  -19.3419  -11.2656 O   0  0  0  0  0  0  0  0  0  0  0  0
   28.6594  -19.2907   -3.4930 O   0  0  0  0  0  0  0  0  0  0  0  0
   28.1097  -19.2949   -4.7579 C   0  0  0  0  0  0  0  0  0  0  0  0
   26.8170  -19.7485   -4.9626 C   0  0  0  0  0  0  0  0  0  0  0  0
   26.2914  -19.7448   -6.2211 C   0  0  0  0  0  0  0  0  0  0  0  0
   26.9914  -19.3051   -7.3238 C   0  0  0  0  0  0  0  0  0  0  0  0
   26.4521  -19.2953   -8.6986 C   0  0  0  0  0  0  0  0  0  0  0  0
   26.3256  -20.7074   -9.1941 C   0  0  2  0  0  0  0  0  0  0  0  0
   25.9125  -20.6438  -10.6059 N   0  0  0  0  0  0  0  0  0  0  0  0
   25.3967  -21.5337   -8.4205 C   0  0  0  0  0  0  0  0  0  0  0  0
   24.0435  -21.5266   -8.6313 O   0  0  0  0  0  0  0  0  0  0  0  0
   28.2945  -18.8519   -7.0910 C   0  0  0  0  0  0  0  0  0  0  0  0
   28.8522  -18.8439   -5.8301 C   0  0  0  0  0  0  0  0  0  0  0  0
   25.8685  -22.2966   -7.5044 O   0  0  0  0  0  0  0  0  0  0  0  0
  1  2  1  0
  2  3  1  0
  3  4  2  0
  5  9  1  0
  5  3  1  0
  6  5  1  0
  7  6  1  0
  7  8  1  0
  8  9  1  0
  9 10  1  1
 10 11  2  0
 10 19  1  0
 12 13  1  0
 13 14  2  0
 14 15  1  0
 16 15  2  0
 16 17  1  0
 18 17  1  1
 18 20  1  0
 19 18  1  0
 20 24  2  0
 20 21  1  0
 22 16  1  0
 23 13  1  0
 23 22  2  0
M  END
$$$$
