GPY.pdb
     RDKit          3D

 24 25  0  0  1  0  0  0  0  0999 V2000
   24.2834  -18.8074  -16.4749 N   0  0  0  0  0  0  0  0  0  0  0  0
   25.3992  -18.7464  -15.5970 C   0  0  0  0  0  0  0  0  0  0  0  0
   25.3557  -19.5933  -14.4137 C   0  0  0  0  0  0  0  0  0  0  0  0
   24.2384  -19.8758  -13.9196 O   0  0  0  0  0  0  0  0  0  0  0  0
   26.5322  -20.0958  -13.8198 N   0  0  0  0  0  0  0  0  0  0  0  0
   27.8689  -19.8761  -14.3120 C   0  0  0  0  0  0  0  0  0  0  0  0
   28.8180  -20.6296  -13.4058 C   0  0  0  0  0  0  0  0  0  0  0  0
   27.9451  -21.5561  -12.5856 C   0  0  0  0  0  0  0  0  0  0  0  0
   26.5706  -20.9233  -12.6037 C   0  0  1  0  0  0  0  0  0  0  0  0
   26.3624  -20.0432  -11.3998 C   0  0  0  0  0  0  0  0  0  0  0  0
   26.7346  -18.8433  -11.4134 O   0  0  0  0  0  0  0  0  0  0  0  0
   20.5215  -23.2434   -7.8887 O   0  0  0  0  0  0  0  0  0  0  0  0
   21.4419  -22.2495   -8.1481 C   0  0  0  0  0  0  0  0  0  0  0  0
   21.5702  -21.7238   -9.4231 C   0  0  0  0  0  0  0  0  0  0  0  0
   22.4863  -20.7413   -9.6594 C   0  0  0  0  0  0  0  0  0  0  0  0
   23.3089  -20.2325   -8.6777 C   0  0  0  0  0  0  0  0  0  0  0  0
   24.3142  -19.1746   -8.9042 C   0  0  0  0  0  0  0  0  0  0  0  0
   25.6799  -19.7941   -8.9836 C   0  0  2  0  0  0  0  0  0  0  0  0
   25.7439  -20.5610  -10.2388 N   0  0  0  0  0  0  0  0  0  0  0  0
   26.0207  -20.6439   -7.8408 C   0  0  0  0  0  0  0  0  0  0  0  0
   26.3291  -20.1393   -6.6055 O   0  0  0  0  0  0  0  0  0  0  0  0
   23.1599  -20.7798   -7.3986 C   0  0  0  0  0  0  0  0  0  0  0  0
   22.2426  -21.7734   -7.1300 C   0  0  0  0  0  0  0  0  0  0  0  0
   26.0330  -21.9158   -8.0019 O   0  0  0  0  0  0  0  0  0  0  0  0
  1  2  1  0
  2  3  1  0
  3  4  2  0
  5  9  1  0
  5  3  1  0
  6  5  1  0
  7  6  1  0
  7  8  1  0
  8  9  1  0
  9 10  1  1
 10 11  2  0
 10 19  1  0
 12 13  1  0
 13 14  2  0
 14 15  1  0
 16 15  2  0
 16 17  1  0
 18 17  1  1
 18 20  1  0
 19 18  1  0
 20 24  2  0
 20 21  1  0
 22 16  1  0
 23 13  1  0
 23 22  2  0
M  END
$$$$
