GPY.pdb
     RDKit          3D

 24 25  0  0  1  0  0  0  0  0999 V2000
   23.3089  -12.2534  -20.1450 N   0  0  0  0  0  0  0  0  0  0  0  0
   23.9248  -11.6364  -19.0226 C   0  0  0  0  0  0  0  0  0  0  0  0
   23.0548  -10.9131  -18.1066 C   0  0  0  0  0  0  0  0  0  0  0  0
   22.0557  -10.3167  -18.5739 O   0  0  0  0  0  0  0  0  0  0  0  0
   23.3114  -10.8709  -16.7204 N   0  0  0  0  0  0  0  0  0  0  0  0
   24.4077  -11.5329  -16.0592 C   0  0  0  0  0  0  0  0  0  0  0  0
   24.2759  -11.2629  -14.5761 C   0  0  0  0  0  0  0  0  0  0  0  0
   22.8796  -10.7075  -14.3881 C   0  0  0  0  0  0  0  0  0  0  0  0
   22.4943  -10.1416  -15.7377 C   0  0  1  0  0  0  0  0  0  0  0  0
   22.8141   -8.6725  -15.8215 C   0  0  0  0  0  0  0  0  0  0  0  0
   23.9667   -8.2865  -16.1393 O   0  0  0  0  0  0  0  0  0  0  0  0
   15.9394   -6.6616  -17.2065 O   0  0  0  0  0  0  0  0  0  0  0  0
   17.3072   -6.4856  -17.1852 C   0  0  0  0  0  0  0  0  0  0  0  0
   18.1477   -7.4302  -17.7508 C   0  0  0  0  0  0  0  0  0  0  0  0
   19.4976   -7.2379  -17.7196 C   0  0  0  0  0  0  0  0  0  0  0  0
   20.0834   -6.1315  -17.1435 C   0  0  0  0  0  0  0  0  0  0  0  0
   21.5408   -5.8989  -17.0882 C   0  0  0  0  0  0  0  0  0  0  0  0
   22.0529   -6.2689  -15.7258 C   0  0  2  0  0  0  0  0  0  0  0  0
   21.8163   -7.7105  -15.5424 N   0  0  0  0  0  0  0  0  0  0  0  0
   21.4530   -5.5034  -14.6310 C   0  0  0  0  0  0  0  0  0  0  0  0
   20.6039   -6.0611  -13.7125 O   0  0  0  0  0  0  0  0  0  0  0  0
   19.2133   -5.1921  -16.5793 C   0  0  0  0  0  0  0  0  0  0  0  0
   17.8449   -5.3596  -16.5960 C   0  0  0  0  0  0  0  0  0  0  0  0
   21.7321   -4.2564  -14.5271 O   0  0  0  0  0  0  0  0  0  0  0  0
  1  2  1  0
  2  3  1  0
  3  4  2  0
  5  9  1  0
  5  3  1  0
  6  5  1  0
  7  6  1  0
  7  8  1  0
  8  9  1  0
  9 10  1  1
 10 11  2  0
 10 19  1  0
 12 13  1  0
 13 14  2  0
 14 15  1  0
 16 15  2  0
 16 17  1  0
 18 17  1  6
 18 20  1  0
 19 18  1  0
 20 24  2  0
 20 21  1  0
 22 16  1  0
 23 13  1  0
 23 22  2  0
M  END
$$$$
