GPY.pdb
     RDKit          3D

 24 25  0  0  1  0  0  0  0  0999 V2000
   15.1888  -24.5918   -9.9374 N   0  0  0  0  0  0  0  0  0  0  0  0
   15.9921  -24.5084   -8.7681 C   0  0  0  0  0  0  0  0  0  0  0  0
   15.3489  -24.8245   -7.5010 C   0  0  0  0  0  0  0  0  0  0  0  0
   14.0966  -24.8709   -7.4596 O   0  0  0  0  0  0  0  0  0  0  0  0
   16.0987  -25.0765   -6.3332 N   0  0  0  0  0  0  0  0  0  0  0  0
   17.5378  -25.1081   -6.2622 C   0  0  0  0  0  0  0  0  0  0  0  0
   17.9167  -25.4584   -4.8397 C   0  0  0  0  0  0  0  0  0  0  0  0
   16.6411  -25.9541   -4.1912 C   0  0  0  0  0  0  0  0  0  0  0  0
   15.5208  -25.3462   -5.0071 C   0  0  1  0  0  0  0  0  0  0  0  0
   15.0487  -24.0514   -4.4007 C   0  0  0  0  0  0  0  0  0  0  0  0
   15.6852  -22.9856   -4.5940 O   0  0  0  0  0  0  0  0  0  0  0  0
    9.9059  -17.7110   -1.4964 O   0  0  0  0  0  0  0  0  0  0  0  0
   10.4092  -18.9039   -1.9719 C   0  0  0  0  0  0  0  0  0  0  0  0
   11.1756  -18.9351   -3.1253 C   0  0  0  0  0  0  0  0  0  0  0  0
   11.6642  -20.1247   -3.5795 C   0  0  0  0  0  0  0  0  0  0  0  0
   11.4317  -21.3230   -2.9398 C   0  0  0  0  0  0  0  0  0  0  0  0
   11.9411  -22.6269   -3.4106 C   0  0  0  0  0  0  0  0  0  0  0  0
   13.3790  -22.7762   -3.0035 C   0  0  2  0  0  0  0  0  0  0  0  0
   13.8802  -24.0230   -3.6053 N   0  0  0  0  0  0  0  0  0  0  0  0
   13.5955  -22.7778   -1.5553 C   0  0  0  0  0  0  0  0  0  0  0  0
   13.9191  -21.6487   -0.8512 O   0  0  0  0  0  0  0  0  0  0  0  0
   10.6552  -21.2650   -1.7772 C   0  0  0  0  0  0  0  0  0  0  0  0
   10.1481  -20.0774   -1.2944 C   0  0  0  0  0  0  0  0  0  0  0  0
   13.4792  -23.8837   -0.9170 O   0  0  0  0  0  0  0  0  0  0  0  0
  1  2  1  0
  2  3  1  0
  3  4  2  0
  5  9  1  0
  5  3  1  0
  6  5  1  0
  7  6  1  0
  7  8  1  0
  8  9  1  0
  9 10  1  1
 10 11  2  0
 10 19  1  0
 12 13  1  0
 13 14  2  0
 14 15  1  0
 16 15  2  0
 16 17  1  0
 18 17  1  1
 18 20  1  0
 19 18  1  0
 20 24  2  0
 20 21  1  0
 22 16  1  0
 23 13  1  0
 23 22  2  0
M  END
$$$$
