GPY.pdb
     RDKit          3D

 24 25  0  0  1  0  0  0  0  0999 V2000
   26.1024  -22.8320  -17.7915 N   0  0  0  0  0  0  0  0  0  0  0  0
   26.0249  -21.5615  -17.1595 C   0  0  0  0  0  0  0  0  0  0  0  0
   26.5812  -21.4560  -15.8184 C   0  0  0  0  0  0  0  0  0  0  0  0
   26.7906  -22.5096  -15.1717 O   0  0  0  0  0  0  0  0  0  0  0  0
   26.8855  -20.2062  -15.2398 N   0  0  0  0  0  0  0  0  0  0  0  0
   26.6804  -18.9274  -15.8722 C   0  0  0  0  0  0  0  0  0  0  0  0
   27.1849  -17.8629  -14.9225 C   0  0  0  0  0  0  0  0  0  0  0  0
   27.9903  -18.6031  -13.8753 C   0  0  0  0  0  0  0  0  0  0  0  0
   27.4605  -20.0205  -13.8981 C   0  0  1  0  0  0  0  0  0  0  0  0
   26.3809  -20.2131  -12.8663 C   0  0  0  0  0  0  0  0  0  0  0  0
   25.1811  -19.9625  -13.1423 O   0  0  0  0  0  0  0  0  0  0  0  0
   28.7922  -18.4664   -5.9091 O   0  0  0  0  0  0  0  0  0  0  0  0
   28.2036  -19.3295   -6.8095 C   0  0  0  0  0  0  0  0  0  0  0  0
   26.8254  -19.3820   -6.9372 C   0  0  0  0  0  0  0  0  0  0  0  0
   26.2624  -20.2423   -7.8335 C   0  0  0  0  0  0  0  0  0  0  0  0
   27.0062  -21.0803   -8.6359 C   0  0  0  0  0  0  0  0  0  0  0  0
   26.4257  -22.0266   -9.6098 C   0  0  0  0  0  0  0  0  0  0  0  0
   25.6960  -21.2598  -10.6752 C   0  0  2  0  0  0  0  0  0  0  0  0
   26.7087  -20.6796  -11.5726 N   0  0  0  0  0  0  0  0  0  0  0  0
   24.8040  -20.2187  -10.1607 C   0  0  0  0  0  0  0  0  0  0  0  0
   23.5460  -20.4845   -9.6891 O   0  0  0  0  0  0  0  0  0  0  0  0
   28.3957  -21.0084   -8.4882 C   0  0  0  0  0  0  0  0  0  0  0  0
   28.9928  -20.1487   -7.5909 C   0  0  0  0  0  0  0  0  0  0  0  0
   25.2160  -19.0046  -10.1521 O   0  0  0  0  0  0  0  0  0  0  0  0
  1  2  1  0
  2  3  1  0
  3  4  2  0
  5  9  1  0
  5  3  1  0
  6  5  1  0
  7  6  1  0
  7  8  1  0
  8  9  1  0
  9 10  1  1
 10 11  2  0
 10 19  1  0
 12 13  1  0
 13 14  2  0
 14 15  1  0
 16 15  2  0
 16 17  1  0
 18 17  1  1
 18 20  1  0
 19 18  1  0
 20 24  2  0
 20 21  1  0
 22 16  1  0
 23 13  1  0
 23 22  2  0
M  END
$$$$
