GPY.pdb
     RDKit          3D

 24 25  0  0  1  0  0  0  0  0999 V2000
   23.3225  -16.0181  -15.4586 N   0  0  0  0  0  0  0  0  0  0  0  0
   24.6577  -16.3301  -15.0853 C   0  0  0  0  0  0  0  0  0  0  0  0
   24.8820  -17.6222  -14.4532 C   0  0  0  0  0  0  0  0  0  0  0  0
   23.9515  -18.1324  -13.7854 O   0  0  0  0  0  0  0  0  0  0  0  0
   26.1113  -18.3026  -14.5764 N   0  0  0  0  0  0  0  0  0  0  0  0
   27.2605  -17.8153  -15.2969 C   0  0  0  0  0  0  0  0  0  0  0  0
   28.3358  -18.8766  -15.2118 C   0  0  0  0  0  0  0  0  0  0  0  0
   27.6372  -20.1212  -14.7054 C   0  0  0  0  0  0  0  0  0  0  0  0
   26.4052  -19.6176  -13.9852 C   0  0  1  0  0  0  0  0  0  0  0  0
   26.6682  -19.4499  -12.5121 C   0  0  0  0  0  0  0  0  0  0  0  0
   27.1078  -18.3628  -12.0611 O   0  0  0  0  0  0  0  0  0  0  0  0
   27.9152  -19.3611   -4.1081 O   0  0  0  0  0  0  0  0  0  0  0  0
   27.4629  -19.4138   -5.4100 C   0  0  0  0  0  0  0  0  0  0  0  0
   27.8064  -18.4235   -6.3155 C   0  0  0  0  0  0  0  0  0  0  0  0
   27.3490  -18.4935   -7.5985 C   0  0  0  0  0  0  0  0  0  0  0  0
   26.5464  -19.5177   -8.0527 C   0  0  0  0  0  0  0  0  0  0  0  0
   26.0304  -19.6172   -9.4329 C   0  0  0  0  0  0  0  0  0  0  0  0
   26.9302  -20.5105  -10.2378 C   0  0  2  0  0  0  0  0  0  0  0  0
   26.4220  -20.5184  -11.6196 N   0  0  0  0  0  0  0  0  0  0  0  0
   27.0398  -21.8757   -9.7196 C   0  0  0  0  0  0  0  0  0  0  0  0
   25.9921  -22.7576   -9.7218 O   0  0  0  0  0  0  0  0  0  0  0  0
   26.2137  -20.5054   -7.1191 C   0  0  0  0  0  0  0  0  0  0  0  0
   26.6612  -20.4611   -5.8159 C   0  0  0  0  0  0  0  0  0  0  0  0
   28.1643  -22.2637   -9.2411 O   0  0  0  0  0  0  0  0  0  0  0  0
  1  2  1  0
  2  3  1  0
  3  4  2  0
  5  9  1  0
  5  3  1  0
  6  5  1  0
  7  6  1  0
  7  8  1  0
  8  9  1  0
  9 10  1  1
 10 11  2  0
 10 19  1  0
 12 13  1  0
 13 14  2  0
 14 15  1  0
 16 15  2  0
 16 17  1  0
 18 17  1  1
 18 20  1  0
 19 18  1  0
 20 24  2  0
 20 21  1  0
 22 16  1  0
 23 13  1  0
 23 22  2  0
M  END
$$$$
