GPY.pdb
     RDKit          3D

 24 25  0  0  1  0  0  0  0  0999 V2000
   24.3608  -18.6593  -15.0250 N   0  0  0  0  0  0  0  0  0  0  0  0
   25.5908  -18.7135  -14.3152 C   0  0  0  0  0  0  0  0  0  0  0  0
   25.9335  -19.9795  -13.6835 C   0  0  0  0  0  0  0  0  0  0  0  0
   25.0683  -20.8865  -13.6505 O   0  0  0  0  0  0  0  0  0  0  0  0
   27.2048  -20.2024  -13.1147 N   0  0  0  0  0  0  0  0  0  0  0  0
   28.2663  -19.2297  -13.0494 C   0  0  0  0  0  0  0  0  0  0  0  0
   29.4607  -19.9007  -12.4066 C   0  0  0  0  0  0  0  0  0  0  0  0
   29.1477  -21.3823  -12.4183 C   0  0  0  0  0  0  0  0  0  0  0  0
   27.6391  -21.4671  -12.5005 C   0  0  1  0  0  0  0  0  0  0  0  0
   27.0267  -21.5872  -11.1301 C   0  0  0  0  0  0  0  0  0  0  0  0
   27.0729  -22.6747  -10.5026 O   0  0  0  0  0  0  0  0  0  0  0  0
   29.4163  -20.0782   -3.9816 O   0  0  0  0  0  0  0  0  0  0  0  0
   28.6074  -19.8850   -5.0819 C   0  0  0  0  0  0  0  0  0  0  0  0
   27.8730  -20.9345   -5.6091 C   0  0  0  0  0  0  0  0  0  0  0  0
   27.0789  -20.7232   -6.6976 C   0  0  0  0  0  0  0  0  0  0  0  0
   26.9650  -19.4963   -7.3148 C   0  0  0  0  0  0  0  0  0  0  0  0
   26.1195  -19.2384   -8.4979 C   0  0  0  0  0  0  0  0  0  0  0  0
   25.8117  -20.5389   -9.1831 C   0  0  2  0  0  0  0  0  0  0  0  0
   26.3919  -20.4731  -10.5347 N   0  0  0  0  0  0  0  0  0  0  0  0
   24.3845  -20.8597   -9.2484 C   0  0  0  0  0  0  0  0  0  0  0  0
   23.6903  -21.3785   -8.1880 O   0  0  0  0  0  0  0  0  0  0  0  0
   27.7164  -18.4526   -6.7635 C   0  0  0  0  0  0  0  0  0  0  0  0
   28.5276  -18.6364   -5.6639 C   0  0  0  0  0  0  0  0  0  0  0  0
   23.7558  -20.6479  -10.3455 O   0  0  0  0  0  0  0  0  0  0  0  0
  1  2  1  0
  2  3  1  0
  3  4  2  0
  5  9  1  0
  5  3  1  0
  6  5  1  0
  7  6  1  0
  7  8  1  0
  8  9  1  0
  9 10  1  1
 10 11  2  0
 10 19  1  0
 12 13  1  0
 13 14  2  0
 14 15  1  0
 16 15  2  0
 16 17  1  0
 18 17  1  6
 18 20  1  0
 19 18  1  0
 20 24  2  0
 20 21  1  0
 22 16  1  0
 23 13  1  0
 23 22  2  0
M  END
$$$$
