GPY.pdb
     RDKit          3D

 24 25  0  0  1  0  0  0  0  0999 V2000
   15.1217  -24.6850   -5.8421 N   0  0  0  0  0  0  0  0  0  0  0  0
   16.1321  -25.1715   -4.9692 C   0  0  0  0  0  0  0  0  0  0  0  0
   15.7259  -25.5110   -3.6131 C   0  0  0  0  0  0  0  0  0  0  0  0
   14.5758  -25.1870   -3.2330 O   0  0  0  0  0  0  0  0  0  0  0  0
   16.5910  -26.1893   -2.7295 N   0  0  0  0  0  0  0  0  0  0  0  0
   17.9060  -26.6743   -3.0653 C   0  0  0  0  0  0  0  0  0  0  0  0
   18.4587  -27.3767   -1.8442 C   0  0  0  0  0  0  0  0  0  0  0  0
   17.2771  -27.5652   -0.9160 C   0  0  0  0  0  0  0  0  0  0  0  0
   16.2787  -26.5046   -1.3265 C   0  0  1  0  0  0  0  0  0  0  0  0
   16.4354  -25.2602   -0.4933 C   0  0  0  0  0  0  0  0  0  0  0  0
   17.4027  -24.4814   -0.6834 O   0  0  0  0  0  0  0  0  0  0  0  0
   14.4767  -18.0523    3.9020 O   0  0  0  0  0  0  0  0  0  0  0  0
   14.4614  -19.2276    3.1804 C   0  0  0  0  0  0  0  0  0  0  0  0
   15.3244  -19.4097    2.1124 C   0  0  0  0  0  0  0  0  0  0  0  0
   15.2940  -20.5792    1.4112 C   0  0  0  0  0  0  0  0  0  0  0  0
   14.4327  -21.6116    1.7139 C   0  0  0  0  0  0  0  0  0  0  0  0
   14.3715  -22.8857    0.9696 C   0  0  0  0  0  0  0  0  0  0  0  0
   15.5740  -23.7190    1.3091 C   0  0  2  0  0  0  0  0  0  0  0  0
   15.4918  -24.9558    0.5146 N   0  0  0  0  0  0  0  0  0  0  0  0
   15.7069  -24.0280    2.7342 C   0  0  0  0  0  0  0  0  0  0  0  0
   16.4180  -23.2424    3.6018 O   0  0  0  0  0  0  0  0  0  0  0  0
   13.5713  -21.4034    2.7967 C   0  0  0  0  0  0  0  0  0  0  0  0
   13.5796  -20.2320    3.5237 C   0  0  0  0  0  0  0  0  0  0  0  0
   15.1348  -25.0804    3.1915 O   0  0  0  0  0  0  0  0  0  0  0  0
  1  2  1  0
  2  3  1  0
  3  4  2  0
  5  9  1  0
  5  3  1  0
  6  5  1  0
  7  6  1  0
  7  8  1  0
  8  9  1  0
  9 10  1  1
 10 11  2  0
 10 19  1  0
 12 13  1  0
 13 14  2  0
 14 15  1  0
 16 15  2  0
 16 17  1  0
 18 17  1  1
 18 20  1  0
 19 18  1  0
 20 24  2  0
 20 21  1  0
 22 16  1  0
 23 13  1  0
 23 22  2  0
M  END
$$$$
