GPY.pdb
     RDKit          3D

 24 25  0  0  1  0  0  0  0  0999 V2000
   26.5280  -15.7023  -15.3545 N   0  0  0  0  0  0  0  0  0  0  0  0
   27.0954  -16.9964  -15.2029 C   0  0  0  0  0  0  0  0  0  0  0  0
   26.4616  -17.8869  -14.2414 C   0  0  0  0  0  0  0  0  0  0  0  0
   25.6658  -17.3975  -13.4051 O   0  0  0  0  0  0  0  0  0  0  0  0
   26.7227  -19.2730  -14.2329 N   0  0  0  0  0  0  0  0  0  0  0  0
   27.6372  -19.9502  -15.1173 C   0  0  0  0  0  0  0  0  0  0  0  0
   27.5730  -21.4274  -14.7956 C   0  0  0  0  0  0  0  0  0  0  0  0
   26.3431  -21.6002  -13.9292 C   0  0  0  0  0  0  0  0  0  0  0  0
   26.0973  -20.2388  -13.3157 C   0  0  1  0  0  0  0  0  0  0  0  0
   26.7476  -20.1281  -11.9622 C   0  0  0  0  0  0  0  0  0  0  0  0
   27.9865  -19.9449  -11.8614 O   0  0  0  0  0  0  0  0  0  0  0  0
   28.6519  -19.2657   -3.5933 O   0  0  0  0  0  0  0  0  0  0  0  0
   28.0148  -19.2592   -4.8165 C   0  0  0  0  0  0  0  0  0  0  0  0
   28.3856  -18.3559   -5.7990 C   0  0  0  0  0  0  0  0  0  0  0  0
   27.7433  -18.3653   -7.0022 C   0  0  0  0  0  0  0  0  0  0  0  0
   26.7235  -19.2432   -7.2999 C   0  0  0  0  0  0  0  0  0  0  0  0
   26.0051  -19.2730   -8.5899 C   0  0  0  0  0  0  0  0  0  0  0  0
   26.5799  -20.3575   -9.4551 C   0  0  2  0  0  0  0  0  0  0  0  0
   25.9671  -20.2296  -10.7877 N   0  0  0  0  0  0  0  0  0  0  0  0
   26.3906  -21.7101   -8.9269 C   0  0  0  0  0  0  0  0  0  0  0  0
   27.4214  -22.4681   -8.4387 O   0  0  0  0  0  0  0  0  0  0  0  0
   26.3676  -20.1453   -6.2913 C   0  0  0  0  0  0  0  0  0  0  0  0
   26.9989  -20.1593   -5.0657 C   0  0  0  0  0  0  0  0  0  0  0  0
   25.2095  -22.2089   -8.9220 O   0  0  0  0  0  0  0  0  0  0  0  0
  1  2  1  0
  2  3  1  0
  3  4  2  0
  5  9  1  0
  5  3  1  0
  6  5  1  0
  7  6  1  0
  7  8  1  0
  8  9  1  0
  9 10  1  1
 10 11  2  0
 10 19  1  0
 12 13  1  0
 13 14  2  0
 14 15  1  0
 16 15  2  0
 16 17  1  0
 18 17  1  1
 18 20  1  0
 19 18  1  0
 20 24  2  0
 20 21  1  0
 22 16  1  0
 23 13  1  0
 23 22  2  0
M  END
$$$$
