AYW.pdb
     RDKit          3D

 32 34  0  0  1  0  0  0  0  0999 V2000
    9.1783  -18.4921   18.9282 C   0  0  0  0  0  0  0  0  0  0  0  0
    9.4967  -18.5375   20.4221 C   0  0  2  0  0  0  0  0  0  0  0  0
    8.3165  -18.9511   21.1640 N   0  0  0  0  0  0  0  0  0  0  0  0
    9.8300  -17.1539   20.8428 C   0  0  0  0  0  0  0  0  0  0  0  0
   10.8435  -16.5608   20.3769 O   0  0  0  0  0  0  0  0  0  0  0  0
    7.3162  -13.1561   16.6257 O   0  0  0  0  0  0  0  0  0  0  0  0
    7.5712  -13.3948   17.9643 C   0  0  0  0  0  0  0  0  0  0  0  0
    6.8652  -14.4117   18.6003 C   0  0  0  0  0  0  0  0  0  0  0  0
    7.0819  -14.6893   19.9308 C   0  0  0  0  0  0  0  0  0  0  0  0
    8.0084  -13.9447   20.6238 C   0  0  0  0  0  0  0  0  0  0  0  0
    8.2712  -14.1930   22.0331 C   0  0  0  0  0  0  0  0  0  0  0  0
    9.4448  -15.1291   22.2184 C   0  0  2  0  0  0  0  0  0  0  0  0
    9.0238  -16.4575   21.7768 N   0  0  0  0  0  0  0  0  0  0  0  0
    9.7777  -15.2191   23.6675 C   0  0  0  0  0  0  0  0  0  0  0  0
   10.2732  -14.2326   24.2884 O   0  0  0  0  0  0  0  0  0  0  0  0
    8.7214  -12.9246   19.9989 C   0  0  0  0  0  0  0  0  0  0  0  0
    8.4929  -12.6647   18.6800 C   0  0  0  0  0  0  0  0  0  0  0  0
    9.5450  -16.4092   24.3743 N   0  0  0  0  0  0  0  0  0  0  0  0
    9.9269  -16.4816   25.7974 C   0  0  1  0  0  0  0  0  0  0  0  0
    8.6758  -16.7207   26.5733 C   0  0  0  0  0  0  0  0  0  0  0  0
    7.6341  -15.7501   26.2516 C   0  0  0  0  0  0  0  0  0  0  0  0
    6.4441  -16.0183   25.5920 C   0  0  0  0  0  0  0  0  0  0  0  0
    5.7474  -14.8890   25.4343 N   0  0  0  0  0  0  0  0  0  0  0  0
    6.4644  -13.8983   25.9799 C   0  0  0  0  0  0  0  0  0  0  0  0
    6.2347  -12.5392   26.1237 C   0  0  0  0  0  0  0  0  0  0  0  0
    7.1224  -11.6915   26.7526 C   0  0  0  0  0  0  0  0  0  0  0  0
    8.2942  -12.1842   27.2697 C   0  0  0  0  0  0  0  0  0  0  0  0
    8.5390  -13.5297   27.1355 C   0  0  0  0  0  0  0  0  0  0  0  0
    7.6479  -14.3984   26.5000 C   0  0  0  0  0  0  0  0  0  0  0  0
   11.0147  -17.4473   25.9572 C   0  0  0  0  0  0  0  0  0  0  0  0
   11.3932  -18.1262   24.9654 O   0  0  0  0  0  0  0  0  0  0  0  0
   11.6893  -17.6829   27.1411 O   0  0  0  0  0  0  0  0  0  0  0  0
  2  1  1  6
  2  3  1  0
  4  2  1  0
  5  4  2  0
  7 17  2  0
  7  6  1  0
  8  7  1  0
  9 10  1  0
  9  8  2  0
 10 16  2  0
 12 11  1  1
 11 10  1  0
 12 13  1  0
 13  4  1  0
 14 18  1  0
 14 12  1  0
 15 14  2  0
 16 17  1  0
 19 20  1  1
 19 30  1  0
 19 18  1  0
 21 22  2  0
 21 20  1  0
 23 22  1  0
 24 29  2  0
 24 23  1  0
 25 24  1  0
 26 27  1  0
 26 25  2  0
 27 28  2  0
 28 29  1  0
 29 21  1  0
 30 32  1  0
 31 30  2  0
M  END
$$$$
