AYW.pdb
     RDKit          3D

 32 34  0  0  1  0  0  0  0  0999 V2000
    8.9780  -12.9931   19.4183 C   0  0  0  0  0  0  0  0  0  0  0  0
    8.0220  -14.1078   18.9957 C   0  0  2  0  0  0  0  0  0  0  0  0
    6.7587  -13.5336   18.5612 N   0  0  0  0  0  0  0  0  0  0  0  0
    7.7502  -14.9335   20.1985 C   0  0  0  0  0  0  0  0  0  0  0  0
    7.0012  -14.5070   21.1222 O   0  0  0  0  0  0  0  0  0  0  0  0
    7.4255  -21.6603   25.7470 O   0  0  0  0  0  0  0  0  0  0  0  0
    7.6573  -20.8643   24.6396 C   0  0  0  0  0  0  0  0  0  0  0  0
    6.5610  -20.3959   23.9214 C   0  0  0  0  0  0  0  0  0  0  0  0
    6.7377  -19.6006   22.8122 C   0  0  0  0  0  0  0  0  0  0  0  0
    8.0167  -19.2752   22.4233 C   0  0  0  0  0  0  0  0  0  0  0  0
    8.2592  -18.4428   21.2549 C   0  0  0  0  0  0  0  0  0  0  0  0
    8.0429  -16.9786   21.5668 C   0  0  2  0  0  0  0  0  0  0  0  0
    8.3205  -16.2219   20.3474 N   0  0  0  0  0  0  0  0  0  0  0  0
    9.0244  -16.5460   22.6003 C   0  0  0  0  0  0  0  0  0  0  0  0
   10.2383  -16.3383   22.3048 O   0  0  0  0  0  0  0  0  0  0  0  0
    9.1220  -19.7373   23.1335 C   0  0  0  0  0  0  0  0  0  0  0  0
    8.9266  -20.5241   24.2299 C   0  0  0  0  0  0  0  0  0  0  0  0
    8.6157  -16.3597   23.9301 N   0  0  0  0  0  0  0  0  0  0  0  0
    9.5919  -15.8533   24.9136 C   0  0  1  0  0  0  0  0  0  0  0  0
    9.4350  -14.3710   24.9606 C   0  0  0  0  0  0  0  0  0  0  0  0
    8.1027  -13.9717   25.4036 C   0  0  0  0  0  0  0  0  0  0  0  0
    6.9982  -14.8021   25.5199 C   0  0  0  0  0  0  0  0  0  0  0  0
    5.9367  -14.0936   25.9161 N   0  0  0  0  0  0  0  0  0  0  0  0
    6.3354  -12.8231   26.0581 C   0  0  0  0  0  0  0  0  0  0  0  0
    5.6787  -11.6698   26.4570 C   0  0  0  0  0  0  0  0  0  0  0  0
    6.3060  -10.4453   26.5532 C   0  0  0  0  0  0  0  0  0  0  0  0
    7.6388  -10.3302   26.2474 C   0  0  0  0  0  0  0  0  0  0  0  0
    8.3060  -11.4636   25.8490 C   0  0  0  0  0  0  0  0  0  0  0  0
    7.6813  -12.7094   25.7472 C   0  0  0  0  0  0  0  0  0  0  0  0
    9.4378  -16.5882   26.1696 C   0  0  0  0  0  0  0  0  0  0  0  0
    8.4133  -17.2989   26.3517 O   0  0  0  0  0  0  0  0  0  0  0  0
   10.3529  -16.5738   27.2062 O   0  0  0  0  0  0  0  0  0  0  0  0
  2  1  1  1
  2  3  1  0
  4  2  1  0
  5  4  2  0
  7 17  2  0
  7  6  1  0
  8  7  1  0
  9 10  1  0
  9  8  2  0
 10 16  2  0
 12 11  1  6
 11 10  1  0
 12 13  1  0
 13  4  1  0
 14 18  1  0
 14 12  1  0
 15 14  2  0
 16 17  1  0
 19 20  1  1
 19 30  1  0
 19 18  1  0
 21 22  2  0
 21 20  1  0
 23 22  1  0
 24 29  2  0
 24 23  1  0
 25 24  1  0
 26 27  1  0
 26 25  2  0
 27 28  2  0
 28 29  1  0
 29 21  1  0
 30 32  1  0
 31 30  2  0
M  END
$$$$
