AYW.pdb
     RDKit          3D

 32 34  0  0  1  0  0  0  0  0999 V2000
    7.1294  -19.2639   19.2390 C   0  0  0  0  0  0  0  0  0  0  0  0
    8.0374  -18.1350   19.7250 C   0  0  2  0  0  0  0  0  0  0  0  0
    9.4295  -18.4986   19.5145 N   0  0  0  0  0  0  0  0  0  0  0  0
    7.8248  -17.9984   21.1873 C   0  0  0  0  0  0  0  0  0  0  0  0
    6.6854  -18.1910   21.6978 O   0  0  0  0  0  0  0  0  0  0  0  0
    8.2048  -20.2973   29.2657 O   0  0  0  0  0  0  0  0  0  0  0  0
    8.3432  -20.0496   27.9117 C   0  0  0  0  0  0  0  0  0  0  0  0
    7.1950  -19.8074   27.1635 C   0  0  0  0  0  0  0  0  0  0  0  0
    7.2785  -19.5555   25.8130 C   0  0  0  0  0  0  0  0  0  0  0  0
    8.5166  -19.5470   25.2129 C   0  0  0  0  0  0  0  0  0  0  0  0
    8.6602  -19.2921   23.7877 C   0  0  0  0  0  0  0  0  0  0  0  0
    8.7076  -17.8089   23.4950 C   0  0  2  0  0  0  0  0  0  0  0  0
    8.8903  -17.6491   22.0535 N   0  0  0  0  0  0  0  0  0  0  0  0
    9.8942  -17.2125   24.1696 C   0  0  0  0  0  0  0  0  0  0  0  0
   10.9595  -17.8783   24.3311 O   0  0  0  0  0  0  0  0  0  0  0  0
    9.6732  -19.7876   25.9505 C   0  0  0  0  0  0  0  0  0  0  0  0
    9.5699  -20.0351   27.2874 C   0  0  0  0  0  0  0  0  0  0  0  0
    9.8503  -15.8912   24.6409 N   0  0  0  0  0  0  0  0  0  0  0  0
    9.9550  -15.6461   26.0920 C   0  0  1  0  0  0  0  0  0  0  0  0
    8.6618  -16.0719   26.7007 C   0  0  0  0  0  0  0  0  0  0  0  0
    7.5604  -15.1893   26.3283 C   0  0  0  0  0  0  0  0  0  0  0  0
    6.2801  -15.5869   25.9737 C   0  0  0  0  0  0  0  0  0  0  0  0
    5.5435  -14.5177   25.6575 N   0  0  0  0  0  0  0  0  0  0  0  0
    6.3235  -13.4388   25.8020 C   0  0  0  0  0  0  0  0  0  0  0  0
    6.0942  -12.0825   25.6340 C   0  0  0  0  0  0  0  0  0  0  0  0
    7.0597  -11.1249   25.8647 C   0  0  0  0  0  0  0  0  0  0  0  0
    8.3131  -11.4990   26.2797 C   0  0  0  0  0  0  0  0  0  0  0  0
    8.5587  -12.8402   26.4507 C   0  0  0  0  0  0  0  0  0  0  0  0
    7.5891  -13.8196   26.2197 C   0  0  0  0  0  0  0  0  0  0  0  0
   11.1775  -16.2693   26.6002 C   0  0  0  0  0  0  0  0  0  0  0  0
   11.6219  -17.3092   26.0443 O   0  0  0  0  0  0  0  0  0  0  0  0
   11.9148  -15.7965   27.6703 O   0  0  0  0  0  0  0  0  0  0  0  0
  2  1  1  1
  2  3  1  0
  4  2  1  0
  5  4  2  0
  7 17  2  0
  7  6  1  0
  8  7  1  0
  9 10  1  0
  9  8  2  0
 10 16  2  0
 12 11  1  6
 11 10  1  0
 12 13  1  0
 13  4  1  0
 14 18  1  0
 14 12  1  0
 15 14  2  0
 16 17  1  0
 19 20  1  1
 19 30  1  0
 19 18  1  0
 21 22  2  0
 21 20  1  0
 23 22  1  0
 24 29  2  0
 24 23  1  0
 25 24  1  0
 26 27  1  0
 26 25  2  0
 27 28  2  0
 28 29  1  0
 29 21  1  0
 30 32  1  0
 31 30  2  0
M  END
$$$$
