AYW.pdb
     RDKit          3D

 32 34  0  0  1  0  0  0  0  0999 V2000
    9.9532  -19.6252   21.6904 C   0  0  0  0  0  0  0  0  0  0  0  0
    9.5377  -18.6491   20.5906 C   0  0  2  0  0  0  0  0  0  0  0  0
   10.3410  -18.8787   19.4004 N   0  0  0  0  0  0  0  0  0  0  0  0
    9.8399  -17.2811   21.0797 C   0  0  0  0  0  0  0  0  0  0  0  0
   10.9339  -16.7173   20.7945 O   0  0  0  0  0  0  0  0  0  0  0  0
    7.1639  -13.5123   16.6631 O   0  0  0  0  0  0  0  0  0  0  0  0
    7.3708  -13.7338   18.0129 C   0  0  0  0  0  0  0  0  0  0  0  0
    8.2707  -12.9133   18.6868 C   0  0  0  0  0  0  0  0  0  0  0  0
    8.5121  -13.0921   20.0299 C   0  0  0  0  0  0  0  0  0  0  0  0
    7.8492  -14.0962   20.6974 C   0  0  0  0  0  0  0  0  0  0  0  0
    8.0722  -14.3317   22.1157 C   0  0  0  0  0  0  0  0  0  0  0  0
    9.2693  -15.2277   22.3440 C   0  0  2  0  0  0  0  0  0  0  0  0
    8.9133  -16.5670   21.8790 N   0  0  0  0  0  0  0  0  0  0  0  0
    9.5459  -15.3154   23.8051 C   0  0  0  0  0  0  0  0  0  0  0  0
   10.0389  -14.3356   24.4385 O   0  0  0  0  0  0  0  0  0  0  0  0
    6.9461  -14.9238   20.0346 C   0  0  0  0  0  0  0  0  0  0  0  0
    6.7203  -14.7309   18.7038 C   0  0  0  0  0  0  0  0  0  0  0  0
    9.2617  -16.4958   24.5094 N   0  0  0  0  0  0  0  0  0  0  0  0
    9.6552  -16.5941   25.9278 C   0  0  1  0  0  0  0  0  0  0  0  0
    8.4036  -16.7878   26.7153 C   0  0  0  0  0  0  0  0  0  0  0  0
    7.4331  -15.7234   26.4783 C   0  0  0  0  0  0  0  0  0  0  0  0
    6.1807  -15.8743   25.9026 C   0  0  0  0  0  0  0  0  0  0  0  0
    5.5787  -14.6851   25.8060 N   0  0  0  0  0  0  0  0  0  0  0  0
    6.4182  -13.7710   26.3089 C   0  0  0  0  0  0  0  0  0  0  0  0
    6.3220  -12.3994   26.4821 C   0  0  0  0  0  0  0  0  0  0  0  0
    7.3240  -11.6441   27.0546 C   0  0  0  0  0  0  0  0  0  0  0  0
    8.4802  -12.2472   27.4820 C   0  0  0  0  0  0  0  0  0  0  0  0
    8.5933  -13.6068   27.3174 C   0  0  0  0  0  0  0  0  0  0  0  0
    7.5855  -14.3825   26.7384 C   0  0  0  0  0  0  0  0  0  0  0  0
   10.7044  -17.6042   26.0692 C   0  0  0  0  0  0  0  0  0  0  0  0
   11.0384  -18.2968   25.0709 O   0  0  0  0  0  0  0  0  0  0  0  0
   11.3877  -17.8693   27.2419 O   0  0  0  0  0  0  0  0  0  0  0  0
  2  1  1  1
  2  3  1  0
  4  2  1  0
  5  4  2  0
  7 17  2  0
  7  6  1  0
  8  7  1  0
  9 10  1  0
  9  8  2  0
 10 16  2  0
 12 11  1  1
 11 10  1  0
 12 13  1  0
 13  4  1  0
 14 18  1  0
 14 12  1  0
 15 14  2  0
 16 17  1  0
 19 20  1  1
 19 30  1  0
 19 18  1  0
 21 22  2  0
 21 20  1  0
 23 22  1  0
 24 29  2  0
 24 23  1  0
 25 24  1  0
 26 27  1  0
 26 25  2  0
 27 28  2  0
 28 29  1  0
 29 21  1  0
 30 32  1  0
 31 30  2  0
M  END
$$$$
