AYW.pdb
     RDKit          3D

 32 34  0  0  1  0  0  0  0  0999 V2000
    9.0073  -19.9955   21.6515 C   0  0  0  0  0  0  0  0  0  0  0  0
    8.6924  -18.9516   20.5809 C   0  0  2  0  0  0  0  0  0  0  0  0
    9.3831  -19.2892   19.3467 N   0  0  0  0  0  0  0  0  0  0  0  0
    9.2335  -17.6549   21.0585 C   0  0  0  0  0  0  0  0  0  0  0  0
   10.3871  -17.2687   20.7178 O   0  0  0  0  0  0  0  0  0  0  0  0
    7.3123  -13.2342   16.5185 O   0  0  0  0  0  0  0  0  0  0  0  0
    7.4532  -13.5283   17.8629 C   0  0  0  0  0  0  0  0  0  0  0  0
    6.8396  -14.6760   18.3561 C   0  0  0  0  0  0  0  0  0  0  0  0
    6.9494  -15.0132   19.6859 C   0  0  0  0  0  0  0  0  0  0  0  0
    7.6761  -14.1969   20.5218 C   0  0  0  0  0  0  0  0  0  0  0  0
    7.8185  -14.5043   21.9368 C   0  0  0  0  0  0  0  0  0  0  0  0
    8.9637  -15.4619   22.1803 C   0  0  2  0  0  0  0  0  0  0  0  0
    8.4751  -16.8125   21.9086 N   0  0  0  0  0  0  0  0  0  0  0  0
    9.3561  -15.4038   23.6161 C   0  0  0  0  0  0  0  0  0  0  0  0
    9.9336  -14.3841   24.0967 O   0  0  0  0  0  0  0  0  0  0  0  0
    8.2951  -13.0458   20.0406 C   0  0  0  0  0  0  0  0  0  0  0  0
    8.1748  -12.7286   18.7200 C   0  0  0  0  0  0  0  0  0  0  0  0
    9.0894  -16.4878   24.4669 N   0  0  0  0  0  0  0  0  0  0  0  0
    9.6449  -16.4772   25.8336 C   0  0  1  0  0  0  0  0  0  0  0  0
    8.4957  -16.6243   26.7727 C   0  0  0  0  0  0  0  0  0  0  0  0
    7.4889  -15.5854   26.5786 C   0  0  0  0  0  0  0  0  0  0  0  0
    6.2195  -15.7673   26.0510 C   0  0  0  0  0  0  0  0  0  0  0  0
    5.5829  -14.5943   25.9836 N   0  0  0  0  0  0  0  0  0  0  0  0
    6.4167  -13.6600   26.4581 C   0  0  0  0  0  0  0  0  0  0  0  0
    6.2910  -12.2922   26.6415 C   0  0  0  0  0  0  0  0  0  0  0  0
    7.2941  -11.5126   27.1785 C   0  0  0  0  0  0  0  0  0  0  0  0
    8.4816  -12.0863   27.5580 C   0  0  0  0  0  0  0  0  0  0  0  0
    8.6243  -13.4418   27.3825 C   0  0  0  0  0  0  0  0  0  0  0  0
    7.6156  -14.2419   26.8391 C   0  0  0  0  0  0  0  0  0  0  0  0
   10.7216  -17.4640   25.9251 C   0  0  0  0  0  0  0  0  0  0  0  0
   11.3546  -17.5939   27.0069 O   0  0  0  0  0  0  0  0  0  0  0  0
   11.1136  -18.2978   24.8940 O   0  0  0  0  0  0  0  0  0  0  0  0
  2  1  1  1
  2  3  1  0
  4  2  1  0
  5  4  2  0
  7 17  2  0
  7  6  1  0
  8  7  1  0
  9 10  1  0
  9  8  2  0
 10 16  2  0
 12 11  1  1
 11 10  1  0
 12 13  1  0
 13  4  1  0
 14 18  1  0
 14 12  1  0
 15 14  2  0
 16 17  1  0
 19 20  1  1
 19 30  1  0
 19 18  1  0
 21 22  2  0
 21 20  1  0
 23 22  1  0
 24 29  2  0
 24 23  1  0
 25 24  1  0
 26 27  1  0
 26 25  2  0
 27 28  2  0
 28 29  1  0
 29 21  1  0
 30 32  1  0
 31 30  2  0
M  END
$$$$
