AYW.pdb
     RDKit          3D

 32 34  0  0  1  0  0  0  0  0999 V2000
    6.6952  -19.3247   23.2194 C   0  0  0  0  0  0  0  0  0  0  0  0
    6.8868  -18.7640   21.8109 C   0  0  2  0  0  0  0  0  0  0  0  0
    7.1289  -19.8522   20.8772 N   0  0  0  0  0  0  0  0  0  0  0  0
    8.1038  -17.9153   21.8373 C   0  0  0  0  0  0  0  0  0  0  0  0
    9.2314  -18.3884   21.5196 O   0  0  0  0  0  0  0  0  0  0  0  0
    7.4619  -13.6121   16.3955 O   0  0  0  0  0  0  0  0  0  0  0  0
    7.7829  -13.7610   17.7329 C   0  0  0  0  0  0  0  0  0  0  0  0
    8.3037  -14.9805   18.1556 C   0  0  0  0  0  0  0  0  0  0  0  0
    8.6393  -15.1797   19.4754 C   0  0  0  0  0  0  0  0  0  0  0  0
    8.4514  -14.1533   20.3721 C   0  0  0  0  0  0  0  0  0  0  0  0
    8.7839  -14.3133   21.7795 C   0  0  0  0  0  0  0  0  0  0  0  0
    9.2361  -15.7247   22.0820 C   0  0  2  0  0  0  0  0  0  0  0  0
    8.0388  -16.5521   22.2182 N   0  0  0  0  0  0  0  0  0  0  0  0
    9.9490  -15.7428   23.3897 C   0  0  0  0  0  0  0  0  0  0  0  0
   11.0474  -15.1318   23.5457 O   0  0  0  0  0  0  0  0  0  0  0  0
    7.9314  -12.9282   19.9618 C   0  0  0  0  0  0  0  0  0  0  0  0
    7.6050  -12.7500   18.6499 C   0  0  0  0  0  0  0  0  0  0  0  0
    9.4096  -16.4433   24.4799 N   0  0  0  0  0  0  0  0  0  0  0  0
   10.1673  -16.4903   25.7449 C   0  0  1  0  0  0  0  0  0  0  0  0
    9.8426  -15.2426   26.4945 C   0  0  0  0  0  0  0  0  0  0  0  0
    8.4161  -14.9348   26.4605 C   0  0  0  0  0  0  0  0  0  0  0  0
    7.3874  -15.8497   26.2942 C   0  0  0  0  0  0  0  0  0  0  0  0
    6.2123  -15.2137   26.2745 N   0  0  0  0  0  0  0  0  0  0  0  0
    6.4633  -13.9070   26.4256 C   0  0  0  0  0  0  0  0  0  0  0  0
    5.6418  -12.7932   26.4979 C   0  0  0  0  0  0  0  0  0  0  0  0
    6.1265  -11.5151   26.6814 C   0  0  0  0  0  0  0  0  0  0  0  0
    7.4770  -11.3030   26.8014 C   0  0  0  0  0  0  0  0  0  0  0  0
    8.3069  -12.3961   26.7313 C   0  0  0  0  0  0  0  0  0  0  0  0
    7.8279  -13.6955   26.5450 C   0  0  0  0  0  0  0  0  0  0  0  0
    9.9109  -17.7659   26.4146 C   0  0  0  0  0  0  0  0  0  0  0  0
   10.5180  -18.0387   27.4845 O   0  0  0  0  0  0  0  0  0  0  0  0
    9.0260  -18.7274   25.9622 O   0  0  0  0  0  0  0  0  0  0  0  0
  2  1  1  1
  2  3  1  0
  4  2  1  0
  5  4  2  0
  7 17  2  0
  7  6  1  0
  8  7  1  0
  9 10  1  0
  9  8  2  0
 10 16  2  0
 12 11  1  1
 11 10  1  0
 12 13  1  0
 13  4  1  0
 14 18  1  0
 14 12  1  0
 15 14  2  0
 16 17  1  0
 19 20  1  1
 19 30  1  0
 19 18  1  0
 21 22  2  0
 21 20  1  0
 23 22  1  0
 24 29  2  0
 24 23  1  0
 25 24  1  0
 26 27  1  0
 26 25  2  0
 27 28  2  0
 28 29  1  0
 29 21  1  0
 30 32  1  0
 31 30  2  0
M  END
$$$$
