AYW.pdb
     RDKit          3D

 32 34  0  0  1  0  0  0  0  0999 V2000
    7.9789  -19.7346   22.3008 C   0  0  0  0  0  0  0  0  0  0  0  0
    7.9187  -18.6490   21.2270 C   0  0  2  0  0  0  0  0  0  0  0  0
    8.3791  -19.1874   19.9572 N   0  0  0  0  0  0  0  0  0  0  0  0
    8.8640  -17.5786   21.6305 C   0  0  0  0  0  0  0  0  0  0  0  0
   10.0549  -17.5722   21.2088 O   0  0  0  0  0  0  0  0  0  0  0  0
    7.0155  -13.1096   17.3560 O   0  0  0  0  0  0  0  0  0  0  0  0
    7.3750  -13.3742   18.6654 C   0  0  0  0  0  0  0  0  0  0  0  0
    8.6363  -12.9753   19.0978 C   0  0  0  0  0  0  0  0  0  0  0  0
    9.0422  -13.2149   20.3908 C   0  0  0  0  0  0  0  0  0  0  0  0
    8.1807  -13.8561   21.2509 C   0  0  0  0  0  0  0  0  0  0  0  0
    8.5625  -14.1391   22.6260 C   0  0  0  0  0  0  0  0  0  0  0  0
    9.3725  -15.4129   22.7222 C   0  0  2  0  0  0  0  0  0  0  0  0
    8.4610  -16.5335   22.4983 N   0  0  0  0  0  0  0  0  0  0  0  0
    9.9198  -15.5443   24.1014 C   0  0  0  0  0  0  0  0  0  0  0  0
   10.8886  -14.8284   24.4928 O   0  0  0  0  0  0  0  0  0  0  0  0
    6.9159  -14.2601   20.8306 C   0  0  0  0  0  0  0  0  0  0  0  0
    6.5319  -14.0137   19.5457 C   0  0  0  0  0  0  0  0  0  0  0  0
    9.3653  -16.4717   24.9972 N   0  0  0  0  0  0  0  0  0  0  0  0
   10.0721  -16.7555   26.2607 C   0  0  1  0  0  0  0  0  0  0  0  0
    9.3608  -16.0061   27.3363 C   0  0  0  0  0  0  0  0  0  0  0  0
    8.1069  -15.4250   26.8662 C   0  0  0  0  0  0  0  0  0  0  0  0
    7.0138  -16.1263   26.3804 C   0  0  0  0  0  0  0  0  0  0  0  0
    6.0564  -15.2728   26.0052 N   0  0  0  0  0  0  0  0  0  0  0  0
    6.5107  -14.0352   26.2403 C   0  0  0  0  0  0  0  0  0  0  0  0
    5.9520  -12.7790   26.0668 C   0  0  0  0  0  0  0  0  0  0  0  0
    6.6080  -11.6137   26.4046 C   0  0  0  0  0  0  0  0  0  0  0  0
    7.8712  -11.6664   26.9384 C   0  0  0  0  0  0  0  0  0  0  0  0
    8.4413  -12.9039   27.1167 C   0  0  0  0  0  0  0  0  0  0  0  0
    7.7870  -14.0913   26.7778 C   0  0  0  0  0  0  0  0  0  0  0  0
   10.2077  -18.2034   26.4238 C   0  0  0  0  0  0  0  0  0  0  0  0
   10.8797  -18.6596   27.3872 O   0  0  0  0  0  0  0  0  0  0  0  0
    9.6384  -19.1456   25.5869 O   0  0  0  0  0  0  0  0  0  0  0  0
  2  1  1  1
  2  3  1  0
  4  2  1  0
  5  4  2  0
  7 17  2  0
  7  6  1  0
  8  7  1  0
  9 10  1  0
  9  8  2  0
 10 16  2  0
 12 11  1  1
 11 10  1  0
 12 13  1  0
 13  4  1  0
 14 18  1  0
 14 12  1  0
 15 14  2  0
 16 17  1  0
 19 20  1  1
 19 30  1  0
 19 18  1  0
 21 22  2  0
 21 20  1  0
 23 22  1  0
 24 29  2  0
 24 23  1  0
 25 24  1  0
 26 27  1  0
 26 25  2  0
 27 28  2  0
 28 29  1  0
 29 21  1  0
 30 32  1  0
 31 30  2  0
M  END
$$$$
