AYW.pdb
     RDKit          3D

 32 34  0  0  1  0  0  0  0  0999 V2000
    9.7229  -19.5728   21.4595 C   0  0  0  0  0  0  0  0  0  0  0  0
    9.4121  -18.5135   20.4029 C   0  0  2  0  0  0  0  0  0  0  0  0
   10.3119  -18.6689   19.2713 N   0  0  0  0  0  0  0  0  0  0  0  0
    9.6841  -17.1892   21.0148 C   0  0  0  0  0  0  0  0  0  0  0  0
   10.8013  -16.6202   20.8595 O   0  0  0  0  0  0  0  0  0  0  0  0
    7.2305  -13.5496   16.4317 O   0  0  0  0  0  0  0  0  0  0  0  0
    7.3802  -13.7181   17.7967 C   0  0  0  0  0  0  0  0  0  0  0  0
    6.8066  -14.8383   18.3910 C   0  0  0  0  0  0  0  0  0  0  0  0
    6.9267  -15.0521   19.7453 C   0  0  0  0  0  0  0  0  0  0  0  0
    7.6234  -14.1399   20.5040 C   0  0  0  0  0  0  0  0  0  0  0  0
    7.7750  -14.3153   21.9403 C   0  0  0  0  0  0  0  0  0  0  0  0
    8.9790  -15.1706   22.2672 C   0  0  2  0  0  0  0  0  0  0  0  0
    8.7018  -16.5239   21.7894 N   0  0  0  0  0  0  0  0  0  0  0  0
    9.1465  -15.2388   23.7457 C   0  0  0  0  0  0  0  0  0  0  0  0
    9.1187  -14.1914   24.4573 O   0  0  0  0  0  0  0  0  0  0  0  0
    8.2022  -13.0151   19.9212 C   0  0  0  0  0  0  0  0  0  0  0  0
    8.0724  -12.8207   18.5779 C   0  0  0  0  0  0  0  0  0  0  0  0
    9.3392  -16.4762   24.3796 N   0  0  0  0  0  0  0  0  0  0  0  0
    9.7122  -16.4978   25.8068 C   0  0  1  0  0  0  0  0  0  0  0  0
    8.4594  -16.7311   26.5816 C   0  0  0  0  0  0  0  0  0  0  0  0
    7.4569  -15.7000   26.3319 C   0  0  0  0  0  0  0  0  0  0  0  0
    6.2184  -15.8923   25.7385 C   0  0  0  0  0  0  0  0  0  0  0  0
    5.5779  -14.7241   25.6345 N   0  0  0  0  0  0  0  0  0  0  0  0
    6.3789  -13.7827   26.1499 C   0  0  0  0  0  0  0  0  0  0  0  0
    6.2339  -12.4154   26.3229 C   0  0  0  0  0  0  0  0  0  0  0  0
    7.2017  -11.6274   26.9099 C   0  0  0  0  0  0  0  0  0  0  0  0
    8.3715  -12.1916   27.3530 C   0  0  0  0  0  0  0  0  0  0  0  0
    8.5329  -13.5464   27.1889 C   0  0  0  0  0  0  0  0  0  0  0  0
    7.5601  -14.3550   26.5952 C   0  0  0  0  0  0  0  0  0  0  0  0
   10.8132  -17.4413   26.0042 C   0  0  0  0  0  0  0  0  0  0  0  0
   11.1492  -18.2093   25.0634 O   0  0  0  0  0  0  0  0  0  0  0  0
   11.5446  -17.5629   27.1714 O   0  0  0  0  0  0  0  0  0  0  0  0
  2  1  1  1
  2  3  1  0
  4  2  1  0
  5  4  2  0
  7 17  2  0
  7  6  1  0
  8  7  1  0
  9 10  1  0
  9  8  2  0
 10 16  2  0
 12 11  1  1
 11 10  1  0
 12 13  1  0
 13  4  1  0
 14 18  1  0
 14 12  1  0
 15 14  2  0
 16 17  1  0
 19 20  1  1
 19 30  1  0
 19 18  1  0
 21 22  2  0
 21 20  1  0
 23 22  1  0
 24 29  2  0
 24 23  1  0
 25 24  1  0
 26 27  1  0
 26 25  2  0
 27 28  2  0
 28 29  1  0
 29 21  1  0
 30 32  1  0
 31 30  2  0
M  END
$$$$
