AYW.pdb
     RDKit          3D

 32 34  0  0  1  0  0  0  0  0999 V2000
    7.1983  -13.4045   19.0579 C   0  0  0  0  0  0  0  0  0  0  0  0
    8.6370  -13.4730   19.5684 C   0  0  2  0  0  0  0  0  0  0  0  0
    9.5241  -13.8694   18.4866 N   0  0  0  0  0  0  0  0  0  0  0  0
    8.6864  -14.5362   20.6025 C   0  0  0  0  0  0  0  0  0  0  0  0
    7.8761  -14.5364   21.5718 O   0  0  0  0  0  0  0  0  0  0  0  0
    8.0367  -19.3254   15.9282 O   0  0  0  0  0  0  0  0  0  0  0  0
    8.6049  -18.9556   17.1341 C   0  0  0  0  0  0  0  0  0  0  0  0
    8.0077  -19.4007   18.3099 C   0  0  0  0  0  0  0  0  0  0  0  0
    8.5339  -19.0609   19.5354 C   0  0  0  0  0  0  0  0  0  0  0  0
    9.6609  -18.2730   19.5806 C   0  0  0  0  0  0  0  0  0  0  0  0
   10.2539  -17.8800   20.8497 C   0  0  0  0  0  0  0  0  0  0  0  0
    9.5213  -16.7059   21.4603 C   0  0  2  0  0  0  0  0  0  0  0  0
    9.6409  -15.5811   20.5345 N   0  0  0  0  0  0  0  0  0  0  0  0
   10.1907  -16.3169   22.7329 C   0  0  0  0  0  0  0  0  0  0  0  0
   11.3037  -15.7124   22.7295 O   0  0  0  0  0  0  0  0  0  0  0  0
   10.2680  -17.8214   18.4113 C   0  0  0  0  0  0  0  0  0  0  0  0
    9.7319  -18.1687   17.2066 C   0  0  0  0  0  0  0  0  0  0  0  0
    9.5929  -16.6163   23.9670 N   0  0  0  0  0  0  0  0  0  0  0  0
   10.2896  -16.2341   25.2100 C   0  0  1  0  0  0  0  0  0  0  0  0
    9.9306  -14.8143   25.4924 C   0  0  0  0  0  0  0  0  0  0  0  0
    8.5145  -14.6565   25.8094 C   0  0  0  0  0  0  0  0  0  0  0  0
    7.5424  -15.6409   25.7150 C   0  0  0  0  0  0  0  0  0  0  0  0
    6.3505  -15.1359   26.0469 N   0  0  0  0  0  0  0  0  0  0  0  0
    6.5354  -13.8456   26.3541 C   0  0  0  0  0  0  0  0  0  0  0  0
    5.6740  -12.8466   26.7787 C   0  0  0  0  0  0  0  0  0  0  0  0
    6.0954  -11.5645   27.0634 C   0  0  0  0  0  0  0  0  0  0  0  0
    7.4199  -11.2312   26.9304 C   0  0  0  0  0  0  0  0  0  0  0  0
    8.2886  -12.2093   26.5095 C   0  0  0  0  0  0  0  0  0  0  0  0
    7.8736  -13.5113   26.2174 C   0  0  0  0  0  0  0  0  0  0  0  0
   10.0004  -17.2226   26.2495 C   0  0  0  0  0  0  0  0  0  0  0  0
    9.1922  -18.1589   26.0086 O   0  0  0  0  0  0  0  0  0  0  0  0
   10.5605  -17.2208   27.5138 O   0  0  0  0  0  0  0  0  0  0  0  0
  2  1  1  6
  2  3  1  0
  4  2  1  0
  5  4  2  0
  7 17  2  0
  7  6  1  0
  8  7  1  0
  9 10  1  0
  9  8  2  0
 10 16  2  0
 12 11  1  6
 11 10  1  0
 12 13  1  0
 13  4  1  0
 14 18  1  0
 14 12  1  0
 15 14  2  0
 16 17  1  0
 19 20  1  1
 19 30  1  0
 19 18  1  0
 21 22  2  0
 21 20  1  0
 23 22  1  0
 24 29  2  0
 24 23  1  0
 25 24  1  0
 26 27  1  0
 26 25  2  0
 27 28  2  0
 28 29  1  0
 29 21  1  0
 30 32  1  0
 31 30  2  0
M  END
$$$$
