CDM.pdb
     RDKit          3D

 23 22  0  0  1  0  0  0  0  0999 V2000
   18.3810  -12.3582  -18.2660 N   0  0  0  0  0  0  0  0  0  0  0  0
   18.3074  -11.7294  -16.9657 C   0  0  1  0  0  0  0  0  0  0  0  0
   19.0209  -12.6282  -15.9818 C   0  0  0  0  0  0  0  0  0  0  0  0
   17.8552  -13.9430  -15.5201 S   0  0  0  0  0  0  0  0  0  0  0  0
   18.9150  -10.3599  -17.0027 C   0  0  0  0  0  0  0  0  0  0  0  0
   19.9686  -10.1725  -17.6577 O   0  0  0  0  0  0  0  0  0  0  0  0
   18.3272   -9.2638  -16.3131 N   0  0  0  0  0  0  0  0  0  0  0  0
   18.8216   -7.9037  -16.3813 C   0  0  1  0  0  0  0  0  0  0  0  0
   17.7607   -6.9655  -15.8900 C   0  0  0  0  0  0  0  0  0  0  0  0
   16.6279   -6.7906  -16.7868 C   0  0  0  0  0  0  0  0  0  0  0  0
   16.8366   -6.5534  -18.0012 O   0  0  0  0  0  0  0  0  0  0  0  0
   20.0263   -7.7715  -15.5143 C   0  0  0  0  0  0  0  0  0  0  0  0
   20.1684   -8.5626  -14.5321 O   0  0  0  0  0  0  0  0  0  0  0  0
   15.3233   -6.8766  -16.3476 O   0  0  0  0  0  0  0  0  0  0  0  0
   26.7751  -10.0597  -14.6050 C   0  0  0  0  0  0  0  0  0  0  0  0
   25.1213   -9.8748  -15.3248 S   0  0  0  0  0  0  0  0  0  0  0  0
   24.3340   -8.3464  -14.8208 C   0  0  0  0  0  0  0  0  0  0  0  0
   22.9728   -8.2385  -15.4136 C   0  0  0  0  0  0  0  0  0  0  0  0
   22.3250   -6.9512  -15.0442 C   0  0  2  0  0  0  0  0  0  0  0  0
   21.0295   -6.8155  -15.7152 N   0  0  0  0  0  0  0  0  0  0  0  0
   23.0921   -5.7284  -15.3513 C   0  0  0  0  0  0  0  0  0  0  0  0
   22.7301   -4.8006  -16.3263 O   0  0  0  0  0  0  0  0  0  0  0  0
   24.1712   -5.4250  -14.7333 O   0  0  0  0  0  0  0  0  0  0  0  0
  2  1  1  6
  2  3  1  0
  4  3  1  0
  5  2  1  0
  6  5  2  0
  7  5  1  0
  8 12  1  0
  8  7  1  0
  8  9  1  1
 10  9  1  0
 11 10  2  0
 12 20  1  0
 13 12  2  0
 14 10  1  0
 16 17  1  0
 16 15  1  0
 19 18  1  6
 18 17  1  0
 20 19  1  0
 21 22  1  0
 21 19  1  0
 23 21  2  0
M  END
$$$$
