CDM.pdb
     RDKit          3D

 23 22  0  0  1  0  0  0  0  0999 V2000
   19.8477  -15.1377  -18.1929 N   0  0  0  0  0  0  0  0  0  0  0  0
   19.7142  -14.5792  -16.8656 C   0  0  1  0  0  0  0  0  0  0  0  0
   20.9417  -14.9747  -16.0771 C   0  0  0  0  0  0  0  0  0  0  0  0
   20.5937  -16.5924  -15.3270 S   0  0  0  0  0  0  0  0  0  0  0  0
   19.5556  -13.0902  -16.9293 C   0  0  0  0  0  0  0  0  0  0  0  0
   20.2926  -12.4260  -17.6974 O   0  0  0  0  0  0  0  0  0  0  0  0
   18.5890  -12.4082  -16.1399 N   0  0  0  0  0  0  0  0  0  0  0  0
   18.4258  -10.9688  -16.1227 C   0  0  1  0  0  0  0  0  0  0  0  0
   17.1103  -10.6267  -15.4904 C   0  0  0  0  0  0  0  0  0  0  0  0
   15.9368  -11.0254  -16.2531 C   0  0  0  0  0  0  0  0  0  0  0  0
   15.0496  -11.7181  -15.6985 O   0  0  0  0  0  0  0  0  0  0  0  0
   19.5233  -10.3563  -15.3221 C   0  0  0  0  0  0  0  0  0  0  0  0
   19.8300  -10.8699  -14.2028 O   0  0  0  0  0  0  0  0  0  0  0  0
   15.7624  -10.6671  -17.5736 O   0  0  0  0  0  0  0  0  0  0  0  0
   26.6889  -10.5488  -14.4652 C   0  0  0  0  0  0  0  0  0  0  0  0
   25.0405  -10.9483  -15.1057 S   0  0  0  0  0  0  0  0  0  0  0  0
   23.8635   -9.6313  -14.8056 C   0  0  0  0  0  0  0  0  0  0  0  0
   22.5261   -9.9899  -15.3522 C   0  0  0  0  0  0  0  0  0  0  0  0
   21.5333   -8.9116  -15.0973 C   0  0  2  0  0  0  0  0  0  0  0  0
   20.2513   -9.2320  -15.7302 N   0  0  0  0  0  0  0  0  0  0  0  0
   21.9098   -7.5619  -15.5603 C   0  0  0  0  0  0  0  0  0  0  0  0
   22.5143   -6.5978  -14.7556 O   0  0  0  0  0  0  0  0  0  0  0  0
   21.7017   -7.1679  -16.7603 O   0  0  0  0  0  0  0  0  0  0  0  0
  2  1  1  6
  2  3  1  0
  4  3  1  0
  5  2  1  0
  6  5  2  0
  7  5  1  0
  8 12  1  0
  8  7  1  0
  8  9  1  1
 10  9  1  0
 11 10  2  0
 12 20  1  0
 13 12  2  0
 14 10  1  0
 16 17  1  0
 16 15  1  0
 19 18  1  6
 18 17  1  0
 20 19  1  0
 21 22  1  0
 21 19  1  0
 23 21  2  0
M  END
$$$$
