CDM.pdb
     RDKit          3D

 23 22  0  0  1  0  0  0  0  0999 V2000
   14.4315   -8.4391   -9.6567 N   0  0  0  0  0  0  0  0  0  0  0  0
   15.2294   -7.2866  -10.0126 C   0  0  1  0  0  0  0  0  0  0  0  0
   16.1493   -6.9904   -8.8503 C   0  0  0  0  0  0  0  0  0  0  0  0
   15.1088   -6.3871   -7.4887 S   0  0  0  0  0  0  0  0  0  0  0  0
   15.9983   -7.5418  -11.2735 C   0  0  0  0  0  0  0  0  0  0  0  0
   16.2300   -8.7242  -11.6235 O   0  0  0  0  0  0  0  0  0  0  0  0
   16.4737   -6.4760  -12.0862 N   0  0  0  0  0  0  0  0  0  0  0  0
   17.0903   -6.6590  -13.3844 C   0  0  1  0  0  0  0  0  0  0  0  0
   16.6708   -5.5438  -14.2941 C   0  0  0  0  0  0  0  0  0  0  0  0
   17.1901   -5.6258  -15.6511 C   0  0  0  0  0  0  0  0  0  0  0  0
   17.2610   -4.5834  -16.3460 O   0  0  0  0  0  0  0  0  0  0  0  0
   18.5728   -6.6330  -13.2358 C   0  0  0  0  0  0  0  0  0  0  0  0
   19.0965   -5.8075  -12.4264 O   0  0  0  0  0  0  0  0  0  0  0  0
   17.6104   -6.8166  -16.2060 O   0  0  0  0  0  0  0  0  0  0  0  0
   25.6596   -9.8230  -14.7020 C   0  0  0  0  0  0  0  0  0  0  0  0
   23.8537   -9.9232  -14.8286 S   0  0  0  0  0  0  0  0  0  0  0  0
   23.0512   -8.4509  -14.1974 C   0  0  0  0  0  0  0  0  0  0  0  0
   21.5709   -8.5968  -14.2535 C   0  0  0  0  0  0  0  0  0  0  0  0
   20.8897   -7.3771  -13.7419 C   0  0  2  0  0  0  0  0  0  0  0  0
   19.4415   -7.4738  -13.9423 N   0  0  0  0  0  0  0  0  0  0  0  0
   21.3165   -6.0975  -14.3406 C   0  0  0  0  0  0  0  0  0  0  0  0
   22.2350   -5.2271  -13.7565 O   0  0  0  0  0  0  0  0  0  0  0  0
   20.8626   -5.6828  -15.4633 O   0  0  0  0  0  0  0  0  0  0  0  0
  2  1  1  1
  2  3  1  0
  4  3  1  0
  5  2  1  0
  6  5  2  0
  7  5  1  0
  8 12  1  0
  8  7  1  0
  8  9  1  6
 10  9  1  0
 11 10  2  0
 12 20  1  0
 13 12  2  0
 14 10  1  0
 16 17  1  0
 16 15  1  0
 19 18  1  6
 18 17  1  0
 20 19  1  0
 21 22  1  0
 21 19  1  0
 23 21  2  0
M  END
$$$$
