CDM.pdb
     RDKit          3D

 23 22  0  0  1  0  0  0  0  0999 V2000
   20.3415  -14.4429  -19.3262 N   0  0  0  0  0  0  0  0  0  0  0  0
   19.7500  -13.9190  -18.1149 C   0  0  1  0  0  0  0  0  0  0  0  0
   20.3706  -14.6527  -16.9481 C   0  0  0  0  0  0  0  0  0  0  0  0
   19.2724  -16.0440  -16.5496 S   0  0  0  0  0  0  0  0  0  0  0  0
   19.9669  -12.4395  -18.0146 C   0  0  0  0  0  0  0  0  0  0  0  0
   20.9841  -11.9302  -18.5441 O   0  0  0  0  0  0  0  0  0  0  0  0
   19.0478  -11.5949  -17.3331 N   0  0  0  0  0  0  0  0  0  0  0  0
   19.1862  -10.1560  -17.2377 C   0  0  1  0  0  0  0  0  0  0  0  0
   17.9066   -9.5680  -16.7237 C   0  0  0  0  0  0  0  0  0  0  0  0
   17.8426   -8.1142  -16.7463 C   0  0  0  0  0  0  0  0  0  0  0  0
   18.8214   -7.4628  -17.1846 O   0  0  0  0  0  0  0  0  0  0  0  0
   20.2874   -9.8270  -16.2891 C   0  0  0  0  0  0  0  0  0  0  0  0
   20.5287  -10.6185  -15.3268 O   0  0  0  0  0  0  0  0  0  0  0  0
   16.7369   -7.4207  -16.3002 O   0  0  0  0  0  0  0  0  0  0  0  0
   27.2783  -10.7398  -14.8978 C   0  0  0  0  0  0  0  0  0  0  0  0
   25.7289  -10.7839  -15.8383 S   0  0  0  0  0  0  0  0  0  0  0  0
   24.5679   -9.5374  -15.2831 C   0  0  0  0  0  0  0  0  0  0  0  0
   23.2823   -9.6522  -16.0248 C   0  0  0  0  0  0  0  0  0  0  0  0
   22.3321   -8.5797  -15.6247 C   0  0  2  0  0  0  0  0  0  0  0  0
   21.0874   -8.6823  -16.3910 N   0  0  0  0  0  0  0  0  0  0  0  0
   22.8150   -7.1942  -15.7832 C   0  0  0  0  0  0  0  0  0  0  0  0
   23.5376   -6.5008  -14.8139 O   0  0  0  0  0  0  0  0  0  0  0  0
   22.5987   -6.5118  -16.8443 O   0  0  0  0  0  0  0  0  0  0  0  0
  2  1  1  6
  2  3  1  0
  4  3  1  0
  5  2  1  0
  6  5  2  0
  7  5  1  0
  8 12  1  0
  8  7  1  0
  8  9  1  1
 10  9  1  0
 11 10  2  0
 12 20  1  0
 13 12  2  0
 14 10  1  0
 16 17  1  0
 16 15  1  0
 19 18  1  6
 18 17  1  0
 20 19  1  0
 21 22  1  0
 21 19  1  0
 23 21  2  0
M  END
$$$$
