CDM.pdb
     RDKit          3D

 23 22  0  0  1  0  0  0  0  0999 V2000
   20.9948  -10.4697  -17.0261 N   0  0  0  0  0  0  0  0  0  0  0  0
   19.6197  -10.1475  -16.7151 C   0  0  1  0  0  0  0  0  0  0  0  0
   19.0189  -11.3405  -16.0075 C   0  0  0  0  0  0  0  0  0  0  0  0
   19.4072  -12.8048  -17.0105 S   0  0  0  0  0  0  0  0  0  0  0  0
   19.5414   -8.9099  -15.8734 C   0  0  0  0  0  0  0  0  0  0  0  0
   18.4172   -8.4640  -15.5392 O   0  0  0  0  0  0  0  0  0  0  0  0
   20.7111   -8.2255  -15.4420 N   0  0  0  0  0  0  0  0  0  0  0  0
   20.6979   -6.9443  -14.7659 C   0  0  1  0  0  0  0  0  0  0  0  0
   21.9804   -6.7698  -14.0096 C   0  0  0  0  0  0  0  0  0  0  0  0
   22.0852   -5.5332  -13.2495 C   0  0  0  0  0  0  0  0  0  0  0  0
   23.0048   -4.7228  -13.5184 O   0  0  0  0  0  0  0  0  0  0  0  0
   20.5768   -5.8542  -15.7747 C   0  0  0  0  0  0  0  0  0  0  0  0
   21.4185   -5.7957  -16.7228 O   0  0  0  0  0  0  0  0  0  0  0  0
   21.2042   -5.2166  -12.2366 O   0  0  0  0  0  0  0  0  0  0  0  0
   17.1957   -4.9406  -20.4363 C   0  0  0  0  0  0  0  0  0  0  0  0
   17.2530   -3.1841  -19.9903 S   0  0  0  0  0  0  0  0  0  0  0  0
   18.4489   -2.8559  -18.6972 C   0  0  0  0  0  0  0  0  0  0  0  0
   18.5408   -4.0117  -17.7636 C   0  0  0  0  0  0  0  0  0  0  0  0
   19.5825   -3.7843  -16.7259 C   0  0  2  0  0  0  0  0  0  0  0  0
   19.5784   -4.8728  -15.7451 N   0  0  0  0  0  0  0  0  0  0  0  0
   19.4733   -2.5255  -15.9634 C   0  0  0  0  0  0  0  0  0  0  0  0
   18.8109   -2.4036  -14.7433 O   0  0  0  0  0  0  0  0  0  0  0  0
   19.9878   -1.4289  -16.3770 O   0  0  0  0  0  0  0  0  0  0  0  0
  2  1  1  1
  2  3  1  0
  4  3  1  0
  5  2  1  0
  6  5  2  0
  7  5  1  0
  8 12  1  0
  8  7  1  0
  8  9  1  6
 10  9  1  0
 11 10  2  0
 12 20  1  0
 13 12  2  0
 14 10  1  0
 16 17  1  0
 16 15  1  0
 19 18  1  6
 18 17  1  0
 20 19  1  0
 21 22  1  0
 21 19  1  0
 23 21  2  0
M  END
$$$$
