CDM.pdb
     RDKit          3D

 23 22  0  0  1  0  0  0  0  0999 V2000
   15.7450  -11.6969  -16.2448 N   0  0  0  0  0  0  0  0  0  0  0  0
   16.8718  -11.3585  -15.4038 C   0  0  1  0  0  0  0  0  0  0  0  0
   17.9757  -12.3484  -15.6976 C   0  0  0  0  0  0  0  0  0  0  0  0
   17.6623  -13.8147  -14.6717 S   0  0  0  0  0  0  0  0  0  0  0  0
   17.3150   -9.9484  -15.6516 C   0  0  0  0  0  0  0  0  0  0  0  0
   17.8492   -9.6559  -16.7486 O   0  0  0  0  0  0  0  0  0  0  0  0
   17.1457   -8.9301  -14.6735 N   0  0  0  0  0  0  0  0  0  0  0  0
   17.6162   -7.5688  -14.8303 C   0  0  1  0  0  0  0  0  0  0  0  0
   16.6016   -6.6248  -14.2588 C   0  0  0  0  0  0  0  0  0  0  0  0
   16.9621   -5.2164  -14.3264 C   0  0  0  0  0  0  0  0  0  0  0  0
   17.7623   -4.8288  -15.2119 O   0  0  0  0  0  0  0  0  0  0  0  0
   18.9022   -7.4025  -14.0959 C   0  0  0  0  0  0  0  0  0  0  0  0
   18.9604   -7.7346  -12.8724 O   0  0  0  0  0  0  0  0  0  0  0  0
   16.4527   -4.2847  -13.4462 O   0  0  0  0  0  0  0  0  0  0  0  0
   24.3467   -8.0439  -18.2034 C   0  0  0  0  0  0  0  0  0  0  0  0
   24.0504   -8.2839  -16.4309 S   0  0  0  0  0  0  0  0  0  0  0  0
   22.6538   -7.3265  -15.8453 C   0  0  0  0  0  0  0  0  0  0  0  0
   22.3674   -7.6377  -14.4181 C   0  0  0  0  0  0  0  0  0  0  0  0
   21.2934   -6.7597  -13.8804 C   0  0  2  0  0  0  0  0  0  0  0  0
   20.0709   -6.8951  -14.6766 N   0  0  0  0  0  0  0  0  0  0  0  0
   21.6041   -5.3182  -13.8215 C   0  0  0  0  0  0  0  0  0  0  0  0
   22.5079   -4.7475  -12.9271 O   0  0  0  0  0  0  0  0  0  0  0  0
   21.0523   -4.4673  -14.6025 O   0  0  0  0  0  0  0  0  0  0  0  0
  2  1  1  6
  2  3  1  0
  4  3  1  0
  5  2  1  0
  6  5  2  0
  7  5  1  0
  8 12  1  0
  8  7  1  0
  8  9  1  1
 10  9  1  0
 11 10  2  0
 12 20  1  0
 13 12  2  0
 14 10  1  0
 16 17  1  0
 16 15  1  0
 19 18  1  6
 18 17  1  0
 20 19  1  0
 21 22  1  0
 21 19  1  0
 23 21  2  0
M  END
$$$$
