CDM.pdb
     RDKit          3D

 23 22  0  0  1  0  0  0  0  0999 V2000
   26.4792  -17.6268  -15.8818 N   0  0  0  0  0  0  0  0  0  0  0  0
   26.9875  -18.5646  -14.9052 C   0  0  1  0  0  0  0  0  0  0  0  0
   28.3390  -18.0635  -14.4499 C   0  0  0  0  0  0  0  0  0  0  0  0
   29.4616  -18.1938  -15.8725 S   0  0  0  0  0  0  0  0  0  0  0  0
   26.0352  -18.7036  -13.7564 C   0  0  0  0  0  0  0  0  0  0  0  0
   25.5635  -17.6717  -13.2208 O   0  0  0  0  0  0  0  0  0  0  0  0
   25.6508  -19.9780  -13.2557 N   0  0  0  0  0  0  0  0  0  0  0  0
   24.7278  -20.1725  -12.1561 C   0  0  1  0  0  0  0  0  0  0  0  0
   23.7039  -21.1966  -12.5437 C   0  0  0  0  0  0  0  0  0  0  0  0
   22.3293  -20.7190  -12.5611 C   0  0  0  0  0  0  0  0  0  0  0  0
   22.0905  -19.5230  -12.2660 O   0  0  0  0  0  0  0  0  0  0  0  0
   25.4756  -20.6606  -10.9632 C   0  0  0  0  0  0  0  0  0  0  0  0
   26.2863  -21.6279  -11.0976 O   0  0  0  0  0  0  0  0  0  0  0  0
   21.2710  -21.5390  -12.8928 O   0  0  0  0  0  0  0  0  0  0  0  0
   28.8716  -19.8029   -4.0081 C   0  0  0  0  0  0  0  0  0  0  0  0
   28.1267  -19.0948   -5.5017 S   0  0  0  0  0  0  0  0  0  0  0  0
   27.2134  -20.3155   -6.4429 C   0  0  0  0  0  0  0  0  0  0  0  0
   26.7030  -19.7246   -7.7103 C   0  0  0  0  0  0  0  0  0  0  0  0
   26.0002  -20.7439   -8.5351 C   0  0  2  0  0  0  0  0  0  0  0  0
   25.3408  -20.1132   -9.6815 N   0  0  0  0  0  0  0  0  0  0  0  0
   24.9717  -21.5423   -7.8404 C   0  0  0  0  0  0  0  0  0  0  0  0
   25.2520  -22.5488   -6.9179 O   0  0  0  0  0  0  0  0  0  0  0  0
   23.7196  -21.3672   -8.0403 O   0  0  0  0  0  0  0  0  0  0  0  0
  2  1  1  6
  2  3  1  0
  4  3  1  0
  5  2  1  0
  6  5  2  0
  7  5  1  0
  8 12  1  0
  8  7  1  0
  8  9  1  6
 10  9  1  0
 11 10  2  0
 12 20  1  0
 13 12  2  0
 14 10  1  0
 16 17  1  0
 16 15  1  0
 19 18  1  1
 18 17  1  0
 20 19  1  0
 21 22  1  0
 21 19  1  0
 23 21  2  0
M  END
$$$$
