CDM.pdb
     RDKit          3D

 23 22  0  0  1  0  0  0  0  0999 V2000
   15.7400  -11.9070  -16.5063 N   0  0  0  0  0  0  0  0  0  0  0  0
   16.2859  -11.2953  -15.3149 C   0  0  1  0  0  0  0  0  0  0  0  0
   17.2365  -12.2879  -14.6854 C   0  0  0  0  0  0  0  0  0  0  0  0
   16.2237  -13.4912  -13.7760 S   0  0  0  0  0  0  0  0  0  0  0  0
   16.9747  -10.0065  -15.6474 C   0  0  0  0  0  0  0  0  0  0  0  0
   17.6890   -9.9391  -16.6768 O   0  0  0  0  0  0  0  0  0  0  0  0
   16.8399   -8.8544  -14.8247 N   0  0  0  0  0  0  0  0  0  0  0  0
   17.4503   -7.5734  -15.1169 C   0  0  1  0  0  0  0  0  0  0  0  0
   16.5581   -6.4749  -14.6225 C   0  0  0  0  0  0  0  0  0  0  0  0
   15.3051   -6.3241  -15.3474 C   0  0  0  0  0  0  0  0  0  0  0  0
   15.3315   -5.9998  -16.5593 O   0  0  0  0  0  0  0  0  0  0  0  0
   18.7647   -7.4818  -14.4209 C   0  0  0  0  0  0  0  0  0  0  0  0
   19.0322   -8.3106  -13.4976 O   0  0  0  0  0  0  0  0  0  0  0  0
   14.0801   -6.5263  -14.7466 O   0  0  0  0  0  0  0  0  0  0  0  0
   25.1656  -10.2975  -13.8799 C   0  0  0  0  0  0  0  0  0  0  0  0
   23.6350   -9.8586  -14.7469 S   0  0  0  0  0  0  0  0  0  0  0  0
   23.0665   -8.2140  -14.3202 C   0  0  0  0  0  0  0  0  0  0  0  0
   21.6476   -8.0280  -14.7299 C   0  0  0  0  0  0  0  0  0  0  0  0
   21.1236   -6.7121  -14.2745 C   0  0  2  0  0  0  0  0  0  0  0  0
   19.7414   -6.5250  -14.7233 N   0  0  0  0  0  0  0  0  0  0  0  0
   21.8787   -5.5249  -14.7195 C   0  0  0  0  0  0  0  0  0  0  0  0
   22.7923   -4.8344  -13.9251 O   0  0  0  0  0  0  0  0  0  0  0  0
   21.7453   -5.0298  -15.8923 O   0  0  0  0  0  0  0  0  0  0  0  0
  2  1  1  6
  2  3  1  0
  4  3  1  0
  5  2  1  0
  6  5  2  0
  7  5  1  0
  8 12  1  0
  8  7  1  0
  8  9  1  1
 10  9  1  0
 11 10  2  0
 12 20  1  0
 13 12  2  0
 14 10  1  0
 16 17  1  0
 16 15  1  0
 19 18  1  6
 18 17  1  0
 20 19  1  0
 21 22  1  0
 21 19  1  0
 23 21  2  0
M  END
$$$$
