CDM.pdb
     RDKit          3D

 23 22  0  0  1  0  0  0  0  0999 V2000
   15.4425  -11.5831  -14.7727 N   0  0  0  0  0  0  0  0  0  0  0  0
   15.8355  -10.7241  -15.8677 C   0  0  1  0  0  0  0  0  0  0  0  0
   14.6052   -9.9747  -16.3257 C   0  0  0  0  0  0  0  0  0  0  0  0
   13.5490  -11.1685  -17.1976 S   0  0  0  0  0  0  0  0  0  0  0  0
   16.9257   -9.7874  -15.4432 C   0  0  0  0  0  0  0  0  0  0  0  0
   16.8339   -9.1974  -14.3397 O   0  0  0  0  0  0  0  0  0  0  0  0
   18.0649   -9.5490  -16.2604 N   0  0  0  0  0  0  0  0  0  0  0  0
   19.2004   -8.7460  -15.8543 C   0  0  1  0  0  0  0  0  0  0  0  0
   20.4670   -9.4390  -16.2574 C   0  0  0  0  0  0  0  0  0  0  0  0
   21.6934   -8.7593  -15.8675 C   0  0  0  0  0  0  0  0  0  0  0  0
   22.7994   -9.2404  -16.2138 O   0  0  0  0  0  0  0  0  0  0  0  0
   19.1356   -7.4200  -16.5311 C   0  0  0  0  0  0  0  0  0  0  0  0
   18.9956   -7.3779  -17.7918 O   0  0  0  0  0  0  0  0  0  0  0  0
   21.6847   -7.5967  -15.1254 O   0  0  0  0  0  0  0  0  0  0  0  0
   15.7555   -0.8841  -17.9862 C   0  0  0  0  0  0  0  0  0  0  0  0
   15.9181   -2.5318  -17.2473 S   0  0  0  0  0  0  0  0  0  0  0  0
   17.6170   -3.1007  -17.2366 C   0  0  0  0  0  0  0  0  0  0  0  0
   17.7154   -4.4431  -16.6006 C   0  0  0  0  0  0  0  0  0  0  0  0
   19.1193   -4.9354  -16.5963 C   0  0  2  0  0  0  0  0  0  0  0  0
   19.2206   -6.1960  -15.8564 N   0  0  0  0  0  0  0  0  0  0  0  0
   20.1243   -4.0221  -16.0184 C   0  0  0  0  0  0  0  0  0  0  0  0
   20.9694   -4.3550  -14.9613 O   0  0  0  0  0  0  0  0  0  0  0  0
   20.2954   -2.8304  -16.4532 O   0  0  0  0  0  0  0  0  0  0  0  0
  2  1  1  1
  2  3  1  0
  4  3  1  0
  5  2  1  0
  6  5  2  0
  7  5  1  0
  8 12  1  0
  8  7  1  0
  8  9  1  6
 10  9  1  0
 11 10  2  0
 12 20  1  0
 13 12  2  0
 14 10  1  0
 16 17  1  0
 16 15  1  0
 19 18  1  1
 18 17  1  0
 20 19  1  0
 21 22  1  0
 21 19  1  0
 23 21  2  0
M  END
$$$$
