WIM.pdb
     RDKit          3D

 31 32  0  0  1  0  0  0  0  0999 V2000
   27.8375  -21.3843  -10.3964 N   0  0  0  0  0  0  0  0  0  0  0  0
   26.5167  -21.1976   -9.8949 C   0  0  1  0  0  0  0  0  0  0  0  0
   26.5286  -20.2801   -8.7055 C   0  0  0  0  0  0  0  0  0  0  0  0
   27.8055  -20.4488   -7.9723 C   0  0  0  0  0  0  0  0  0  0  0  0
   28.9866  -20.9587   -8.5287 C   0  0  0  0  0  0  0  0  0  0  0  0
   29.9658  -20.9501   -7.6123 N   0  0  0  0  0  0  0  0  0  0  0  0
   29.4595  -20.4521   -6.4783 C   0  0  0  0  0  0  0  0  0  0  0  0
   30.0661  -20.2515   -5.2572 C   0  0  0  0  0  0  0  0  0  0  0  0
   29.3471  -19.7299   -4.2088 C   0  0  0  0  0  0  0  0  0  0  0  0
   28.0276  -19.4187   -4.4069 C   0  0  0  0  0  0  0  0  0  0  0  0
   27.4049  -19.6159   -5.6324 C   0  0  0  0  0  0  0  0  0  0  0  0
   28.1339  -20.1373   -6.6745 C   0  0  0  0  0  0  0  0  0  0  0  0
   25.5804  -20.7021  -10.9516 C   0  0  0  0  0  0  0  0  0  0  0  0
   25.4908  -19.4788  -11.1122 O   0  0  0  0  0  0  0  0  0  0  0  0
   26.9015  -21.3382  -14.8874 C   0  0  0  0  0  0  0  0  0  0  0  0
   25.7962  -20.5414  -14.2202 C   0  0  0  0  0  0  0  0  0  0  0  0
   24.5228  -21.2741  -14.1032 C   0  0  2  0  0  0  0  0  0  0  0  0
   23.5902  -21.0916  -15.2751 C   0  0  0  0  0  0  0  0  0  0  0  0
   23.8610  -21.0968  -12.7773 C   0  0  2  0  0  0  0  0  0  0  0  0
   24.8093  -21.5622  -11.7565 N   0  0  0  0  0  0  0  0  0  0  0  0
   22.5802  -21.7667  -12.5851 C   0  0  0  0  0  0  0  0  0  0  0  0
   22.5979  -22.9941  -12.2223 O   0  0  0  0  0  0  0  0  0  0  0  0
   17.6901  -23.9627   -7.8604 C   0  0  0  0  0  0  0  0  0  0  0  0
   19.1182  -23.1130   -8.5909 S   0  0  0  0  0  0  0  0  0  0  0  0
   18.8839  -22.8668  -10.3858 C   0  0  0  0  0  0  0  0  0  0  0  0
   20.1115  -22.1896  -10.9030 C   0  0  0  0  0  0  0  0  0  0  0  0
   20.0779  -21.9360  -12.3912 C   0  0  2  0  0  0  0  0  0  0  0  0
   21.2907  -21.2270  -12.7472 N   0  0  0  0  0  0  0  0  0  0  0  0
   18.8830  -21.0801  -12.6873 C   0  0  0  0  0  0  0  0  0  0  0  0
   17.6412  -21.5723  -12.9944 O   0  0  0  0  0  0  0  0  0  0  0  0
   19.0285  -19.8245  -12.6522 O   0  0  0  0  0  0  0  0  0  0  0  0
  2  1  1  6
  2 13  1  0
  2  3  1  0
  3  4  1  0
  4  5  2  0
  5  6  1  0
  7  6  1  0
  8  7  2  0
  9  8  1  0
 10 11  1  0
 10  9  2  0
 11 12  2  0
 12  4  1  0
 12  7  1  0
 13 14  2  0
 15 16  1  0
 16 17  1  0
 17 18  1  6
 19 17  1  0
 20 13  1  0
 19 20  1  1
 21 22  2  0
 21 19  1  0
 23 24  1  0
 24 25  1  0
 26 25  1  0
 27 26  1  1
 27 28  1  0
 28 21  1  0
 29 30  1  0
 29 27  1  0
 31 29  2  0
M  END
$$$$
