WIM.pdb
     RDKit          3D

 31 32  0  0  1  0  0  0  0  0999 V2000
   15.0130  -16.9724    3.4741 N   0  0  0  0  0  0  0  0  0  0  0  0
   16.3042  -17.4356    3.8601 C   0  0  1  0  0  0  0  0  0  0  0  0
   17.3708  -16.5051    3.3570 C   0  0  0  0  0  0  0  0  0  0  0  0
   18.1372  -17.1779    2.2815 C   0  0  0  0  0  0  0  0  0  0  0  0
   17.6399  -18.2035    1.4659 C   0  0  0  0  0  0  0  0  0  0  0  0
   18.5711  -18.5714    0.5734 N   0  0  0  0  0  0  0  0  0  0  0  0
   19.6574  -17.8189    0.7830 C   0  0  0  0  0  0  0  0  0  0  0  0
   20.8719  -17.8262    0.1317 C   0  0  0  0  0  0  0  0  0  0  0  0
   21.8674  -16.9630    0.5219 C   0  0  0  0  0  0  0  0  0  0  0  0
   21.6238  -16.1059    1.5626 C   0  0  0  0  0  0  0  0  0  0  0  0
   20.4043  -16.0887    2.2267 C   0  0  0  0  0  0  0  0  0  0  0  0
   19.4153  -16.9557    1.8275 C   0  0  0  0  0  0  0  0  0  0  0  0
   16.4106  -17.6317    5.3396 C   0  0  0  0  0  0  0  0  0  0  0  0
   16.0595  -16.6970    6.0698 O   0  0  0  0  0  0  0  0  0  0  0  0
   15.2040  -21.5715    9.5897 C   0  0  0  0  0  0  0  0  0  0  0  0
   16.1357  -20.4425    9.1910 C   0  0  0  0  0  0  0  0  0  0  0  0
   16.1503  -20.1672    7.7432 C   0  0  2  0  0  0  0  0  0  0  0  0
   16.3452  -21.3889    6.8797 C   0  0  0  0  0  0  0  0  0  0  0  0
   17.0326  -19.0227    7.3703 C   0  0  2  0  0  0  0  0  0  0  0  0
   16.8883  -18.8211    5.9224 N   0  0  0  0  0  0  0  0  0  0  0  0
   18.4476  -19.1467    7.7000 C   0  0  0  0  0  0  0  0  0  0  0  0
   19.2515  -19.4798    6.7613 O   0  0  0  0  0  0  0  0  0  0  0  0
   23.5458  -15.6681   10.6265 C   0  0  0  0  0  0  0  0  0  0  0  0
   23.0087  -15.8451    8.9016 S   0  0  0  0  0  0  0  0  0  0  0  0
   22.4055  -17.5383    8.5757 C   0  0  0  0  0  0  0  0  0  0  0  0
   21.0677  -17.6644    9.2296 C   0  0  0  0  0  0  0  0  0  0  0  0
   20.4931  -19.0592    9.1615 C   0  0  2  0  0  0  0  0  0  0  0  0
   19.0647  -18.9398    8.9477 N   0  0  0  0  0  0  0  0  0  0  0  0
   20.7560  -19.7320   10.4754 C   0  0  0  0  0  0  0  0  0  0  0  0
   19.7904  -19.9947   11.4121 O   0  0  0  0  0  0  0  0  0  0  0  0
   21.9432  -20.0796   10.7376 O   0  0  0  0  0  0  0  0  0  0  0  0
  2  1  1  1
  2 13  1  0
  2  3  1  0
  3  4  1  0
  4  5  2  0
  5  6  1  0
  7  6  1  0
  8  7  2  0
  9  8  1  0
 10 11  1  0
 10  9  2  0
 11 12  2  0
 12  4  1  0
 12  7  1  0
 13 14  2  0
 15 16  1  0
 16 17  1  0
 17 18  1  6
 19 17  1  0
 20 13  1  0
 19 20  1  6
 21 22  2  0
 21 19  1  0
 23 24  1  0
 24 25  1  0
 26 25  1  0
 27 26  1  1
 27 28  1  0
 28 21  1  0
 29 30  1  0
 29 27  1  0
 31 29  2  0
M  END
$$$$
