WIM.pdb
     RDKit          3D

 31 32  0  0  1  0  0  0  0  0999 V2000
   22.0515  -21.5821  -17.0077 N   0  0  0  0  0  0  0  0  0  0  0  0
   22.2993  -21.2744  -15.6385 C   0  0  1  0  0  0  0  0  0  0  0  0
   21.5299  -22.2018  -14.7416 C   0  0  0  0  0  0  0  0  0  0  0  0
   20.6603  -21.4035  -13.8454 C   0  0  0  0  0  0  0  0  0  0  0  0
   19.3655  -20.9712  -14.1634 C   0  0  0  0  0  0  0  0  0  0  0  0
   18.8387  -20.3017  -13.1275 N   0  0  0  0  0  0  0  0  0  0  0  0
   19.7490  -20.2841  -12.1471 C   0  0  0  0  0  0  0  0  0  0  0  0
   19.6820  -19.7142  -10.8942 C   0  0  0  0  0  0  0  0  0  0  0  0
   20.7521  -19.8079  -10.0372 C   0  0  0  0  0  0  0  0  0  0  0  0
   21.8734  -20.4744  -10.4561 C   0  0  0  0  0  0  0  0  0  0  0  0
   21.9533  -21.0532  -11.7159 C   0  0  0  0  0  0  0  0  0  0  0  0
   20.8766  -20.9542  -12.5646 C   0  0  0  0  0  0  0  0  0  0  0  0
   23.7598  -21.2956  -15.3143 C   0  0  0  0  0  0  0  0  0  0  0  0
   24.4650  -22.1306  -15.8936 O   0  0  0  0  0  0  0  0  0  0  0  0
   28.4458  -17.8001  -14.8494 C   0  0  0  0  0  0  0  0  0  0  0  0
   27.8270  -19.0804  -14.3208 C   0  0  0  0  0  0  0  0  0  0  0  0
   26.3629  -19.1421  -14.4784 C   0  0  2  0  0  0  0  0  0  0  0  0
   25.6293  -17.9329  -13.9530 C   0  0  0  0  0  0  0  0  0  0  0  0
   25.7767  -20.4398  -14.0315 C   0  0  2  0  0  0  0  0  0  0  0  0
   24.3521  -20.4150  -14.3888 N   0  0  0  0  0  0  0  0  0  0  0  0
   25.9124  -20.7724  -12.6183 C   0  0  0  0  0  0  0  0  0  0  0  0
   24.9533  -20.4487  -11.8348 O   0  0  0  0  0  0  0  0  0  0  0  0
   31.4644  -22.5802   -9.8498 C   0  0  0  0  0  0  0  0  0  0  0  0
   30.6682  -21.6163   -8.5337 S   0  0  0  0  0  0  0  0  0  0  0  0
   28.8532  -21.6029   -8.7406 C   0  0  0  0  0  0  0  0  0  0  0  0
   28.5754  -21.6303  -10.2087 C   0  0  0  0  0  0  0  0  0  0  0  0
   27.1055  -21.5513  -10.5452 C   0  0  2  0  0  0  0  0  0  0  0  0
   26.9868  -21.4234  -11.9839 N   0  0  0  0  0  0  0  0  0  0  0  0
   26.5436  -20.3317   -9.8782 C   0  0  0  0  0  0  0  0  0  0  0  0
   25.7692  -20.3609   -8.7477 O   0  0  0  0  0  0  0  0  0  0  0  0
   26.7991  -19.2039  -10.3900 O   0  0  0  0  0  0  0  0  0  0  0  0
  2  1  1  6
  2 13  1  0
  2  3  1  0
  3  4  1  0
  4  5  2  0
  5  6  1  0
  7  6  1  0
  8  7  2  0
  9  8  1  0
 10 11  1  0
 10  9  2  0
 11 12  2  0
 12  4  1  0
 12  7  1  0
 13 14  2  0
 15 16  1  0
 16 17  1  0
 17 18  1  1
 19 17  1  0
 20 13  1  0
 19 20  1  1
 21 22  2  0
 21 19  1  0
 23 24  1  0
 24 25  1  0
 26 25  1  0
 27 26  1  6
 27 28  1  0
 28 21  1  0
 29 30  1  0
 29 27  1  0
 31 29  2  0
M  END
$$$$
