WIM.pdb
     RDKit          3D

 31 32  0  0  1  0  0  0  0  0999 V2000
   28.2565  -23.0558  -13.6694 N   0  0  0  0  0  0  0  0  0  0  0  0
   27.9456  -22.0236  -12.7374 C   0  0  1  0  0  0  0  0  0  0  0  0
   28.6138  -20.7373  -13.1320 C   0  0  0  0  0  0  0  0  0  0  0  0
   30.0813  -20.8860  -12.9877 C   0  0  0  0  0  0  0  0  0  0  0  0
   31.0309  -20.3378  -13.8607 C   0  0  0  0  0  0  0  0  0  0  0  0
   32.2684  -20.6274  -13.4321 N   0  0  0  0  0  0  0  0  0  0  0  0
   32.1540  -21.3466  -12.3096 C   0  0  0  0  0  0  0  0  0  0  0  0
   33.1353  -21.8842  -11.5051 C   0  0  0  0  0  0  0  0  0  0  0  0
   32.7904  -22.6077  -10.3889 C   0  0  0  0  0  0  0  0  0  0  0  0
   31.4619  -22.7785  -10.1007 C   0  0  0  0  0  0  0  0  0  0  0  0
   30.4638  -22.2417  -10.9032 C   0  0  0  0  0  0  0  0  0  0  0  0
   30.8201  -21.5190  -12.0167 C   0  0  0  0  0  0  0  0  0  0  0  0
   26.4695  -21.8395  -12.5760 C   0  0  0  0  0  0  0  0  0  0  0  0
   25.7258  -22.4528  -13.3513 O   0  0  0  0  0  0  0  0  0  0  0  0
   25.6466  -19.9451   -7.8920 C   0  0  0  0  0  0  0  0  0  0  0  0
   25.1051  -20.9155   -8.9248 C   0  0  0  0  0  0  0  0  0  0  0  0
   24.3074  -20.2723   -9.9841 C   0  0  2  0  0  0  0  0  0  0  0  0
   22.8719  -20.0036   -9.6053 C   0  0  0  0  0  0  0  0  0  0  0  0
   24.4634  -20.9249  -11.3172 C   0  0  2  0  0  0  0  0  0  0  0  0
   25.9043  -21.0073  -11.5909 N   0  0  0  0  0  0  0  0  0  0  0  0
   23.7953  -20.2870  -12.4454 C   0  0  0  0  0  0  0  0  0  0  0  0
   24.1141  -19.0784  -12.7215 O   0  0  0  0  0  0  0  0  0  0  0  0
   22.4104  -22.5936  -18.0285 C   0  0  0  0  0  0  0  0  0  0  0  0
   20.9073  -21.5820  -17.9171 S   0  0  0  0  0  0  0  0  0  0  0  0
   21.0367  -20.3671  -16.5591 C   0  0  0  0  0  0  0  0  0  0  0  0
   21.8583  -20.9955  -15.4805 C   0  0  0  0  0  0  0  0  0  0  0  0
   22.1206  -20.0772  -14.3108 C   0  0  2  0  0  0  0  0  0  0  0  0
   22.8212  -20.8403  -13.2972 N   0  0  0  0  0  0  0  0  0  0  0  0
   20.7966  -19.6185  -13.7773 C   0  0  0  0  0  0  0  0  0  0  0  0
   20.1444  -18.4909  -14.2036 O   0  0  0  0  0  0  0  0  0  0  0  0
   20.2456  -20.3146  -12.8769 O   0  0  0  0  0  0  0  0  0  0  0  0
  2  1  1  6
  2 13  1  0
  2  3  1  0
  3  4  1  0
  4  5  2  0
  5  6  1  0
  7  6  1  0
  8  7  2  0
  9  8  1  0
 10 11  1  0
 10  9  2  0
 11 12  2  0
 12  4  1  0
 12  7  1  0
 13 14  2  0
 15 16  1  0
 16 17  1  0
 17 18  1  1
 19 17  1  0
 20 13  1  0
 19 20  1  6
 21 22  2  0
 21 19  1  0
 23 24  1  0
 24 25  1  0
 26 25  1  0
 27 26  1  6
 27 28  1  0
 28 21  1  0
 29 30  1  0
 29 27  1  0
 31 29  2  0
M  END
$$$$
