WIM.pdb
     RDKit          3D

 31 32  0  0  1  0  0  0  0  0999 V2000
   23.8252  -20.2383  -15.6079 N   0  0  0  0  0  0  0  0  0  0  0  0
   22.8492  -19.8651  -14.6389 C   0  0  1  0  0  0  0  0  0  0  0  0
   21.4909  -19.7594  -15.2716 C   0  0  0  0  0  0  0  0  0  0  0  0
   21.4636  -18.5845  -16.1747 C   0  0  0  0  0  0  0  0  0  0  0  0
   22.3007  -18.4090  -17.2850 C   0  0  0  0  0  0  0  0  0  0  0  0
   22.0001  -17.2601  -17.9084 N   0  0  0  0  0  0  0  0  0  0  0  0
   20.9956  -16.6830  -17.2390 C   0  0  0  0  0  0  0  0  0  0  0  0
   20.3460  -15.4920  -17.4817 C   0  0  0  0  0  0  0  0  0  0  0  0
   19.3338  -15.0781  -16.6496 C   0  0  0  0  0  0  0  0  0  0  0  0
   18.9921  -15.8704  -15.5854 C   0  0  0  0  0  0  0  0  0  0  0  0
   19.6387  -17.0725  -15.3302 C   0  0  0  0  0  0  0  0  0  0  0  0
   20.6491  -17.4774  -16.1696 C   0  0  0  0  0  0  0  0  0  0  0  0
   22.8314  -20.8008  -13.4715 C   0  0  0  0  0  0  0  0  0  0  0  0
   22.9396  -22.0110  -13.7035 O   0  0  0  0  0  0  0  0  0  0  0  0
   25.7924  -19.9539   -9.2666 C   0  0  0  0  0  0  0  0  0  0  0  0
   24.8988  -20.5633  -10.3303 C   0  0  0  0  0  0  0  0  0  0  0  0
   23.4897  -20.6948   -9.9188 C   0  0  2  0  0  0  0  0  0  0  0  0
   23.2936  -21.3351   -8.5669 C   0  0  0  0  0  0  0  0  0  0  0  0
   22.6157  -21.2664  -10.9851 C   0  0  2  0  0  0  0  0  0  0  0  0
   22.6977  -20.3625  -12.1402 N   0  0  0  0  0  0  0  0  0  0  0  0
   21.2150  -21.4837  -10.6430 C   0  0  0  0  0  0  0  0  0  0  0  0
   20.4614  -20.4548  -10.5335 O   0  0  0  0  0  0  0  0  0  0  0  0
   16.9337  -26.9249  -11.4679 C   0  0  0  0  0  0  0  0  0  0  0  0
   16.4646  -25.2376  -11.9455 S   0  0  0  0  0  0  0  0  0  0  0  0
   17.0640  -24.0216  -10.7210 C   0  0  0  0  0  0  0  0  0  0  0  0
   18.5040  -23.7619  -11.0245 C   0  0  0  0  0  0  0  0  0  0  0  0
   19.1629  -22.8132  -10.0519 C   0  0  2  0  0  0  0  0  0  0  0  0
   20.5624  -22.7093  -10.4137 N   0  0  0  0  0  0  0  0  0  0  0  0
   19.0353  -23.3981   -8.6772 C   0  0  0  0  0  0  0  0  0  0  0  0
   17.8885  -23.3580   -7.9275 O   0  0  0  0  0  0  0  0  0  0  0  0
   20.0488  -23.9644   -8.1762 O   0  0  0  0  0  0  0  0  0  0  0  0
  2  1  1  6
  2 13  1  0
  2  3  1  0
  3  4  1  0
  4  5  2  0
  5  6  1  0
  7  6  1  0
  8  7  2  0
  9  8  1  0
 10 11  1  0
 10  9  2  0
 11 12  2  0
 12  4  1  0
 12  7  1  0
 13 14  2  0
 15 16  1  0
 16 17  1  0
 17 18  1  1
 19 17  1  0
 20 13  1  0
 19 20  1  6
 21 22  2  0
 21 19  1  0
 23 24  1  0
 24 25  1  0
 26 25  1  0
 27 26  1  6
 27 28  1  0
 28 21  1  0
 29 30  1  0
 29 27  1  0
 31 29  2  0
M  END
$$$$
