WIM.pdb
     RDKit          3D

 31 32  0  0  1  0  0  0  0  0999 V2000
   23.0204  -10.1896  -18.4796 N   0  0  0  0  0  0  0  0  0  0  0  0
   23.1371   -9.0537  -17.6270 C   0  0  1  0  0  0  0  0  0  0  0  0
   24.2179   -8.1336  -18.1185 C   0  0  0  0  0  0  0  0  0  0  0  0
   25.5277   -8.8189  -18.0111 C   0  0  0  0  0  0  0  0  0  0  0  0
   26.4085   -9.0338  -19.0800 C   0  0  0  0  0  0  0  0  0  0  0  0
   27.5170   -9.6499  -18.6435 N   0  0  0  0  0  0  0  0  0  0  0  0
   27.3850   -9.8430  -17.3261 C   0  0  0  0  0  0  0  0  0  0  0  0
   28.2487  -10.4398  -16.4333 C   0  0  0  0  0  0  0  0  0  0  0  0
   27.9045  -10.5434  -15.1070 C   0  0  0  0  0  0  0  0  0  0  0  0
   26.6950  -10.0443  -14.7008 C   0  0  0  0  0  0  0  0  0  0  0  0
   25.8161   -9.4406  -15.5904 C   0  0  0  0  0  0  0  0  0  0  0  0
   26.1710   -9.3414  -16.9146 C   0  0  0  0  0  0  0  0  0  0  0  0
   21.8365   -8.3294  -17.4765 C   0  0  0  0  0  0  0  0  0  0  0  0
   21.0994   -8.2601  -18.4675 O   0  0  0  0  0  0  0  0  0  0  0  0
   19.2834   -8.8648  -12.7360 C   0  0  0  0  0  0  0  0  0  0  0  0
   20.0387   -8.0409  -13.7617 C   0  0  0  0  0  0  0  0  0  0  0  0
   19.3792   -7.9809  -15.0784 C   0  0  2  0  0  0  0  0  0  0  0  0
   18.9684   -9.3238  -15.6300 C   0  0  0  0  0  0  0  0  0  0  0  0
   20.1054   -7.1255  -16.0624 C   0  0  2  0  0  0  0  0  0  0  0  0
   21.4270   -7.7327  -16.2687 N   0  0  0  0  0  0  0  0  0  0  0  0
   20.2711   -5.7187  -15.7167 C   0  0  0  0  0  0  0  0  0  0  0  0
   21.3456   -5.3761  -15.1112 O   0  0  0  0  0  0  0  0  0  0  0  0
   19.1956    1.8194  -17.5029 C   0  0  0  0  0  0  0  0  0  0  0  0
   18.9933    0.0396  -17.7972 S   0  0  0  0  0  0  0  0  0  0  0  0
   19.4401   -0.9233  -16.3105 C   0  0  0  0  0  0  0  0  0  0  0  0
   19.2919   -2.3688  -16.6591 C   0  0  0  0  0  0  0  0  0  0  0  0
   19.6094   -3.3003  -15.5137 C   0  0  2  0  0  0  0  0  0  0  0  0
   19.3830   -4.6569  -15.9703 N   0  0  0  0  0  0  0  0  0  0  0  0
   18.6749   -2.9809  -14.3856 C   0  0  0  0  0  0  0  0  0  0  0  0
   17.6306   -3.7813  -14.0015 O   0  0  0  0  0  0  0  0  0  0  0  0
   18.8604   -1.9053  -13.7471 O   0  0  0  0  0  0  0  0  0  0  0  0
  2  1  1  6
  2 13  1  0
  2  3  1  0
  3  4  1  0
  4  5  2  0
  5  6  1  0
  7  6  1  0
  8  7  2  0
  9  8  1  0
 10 11  1  0
 10  9  2  0
 11 12  2  0
 12  4  1  0
 12  7  1  0
 13 14  2  0
 15 16  1  0
 16 17  1  0
 17 18  1  6
 19 17  1  0
 20 13  1  0
 19 20  1  1
 21 22  2  0
 21 19  1  0
 23 24  1  0
 24 25  1  0
 26 25  1  0
 27 26  1  6
 27 28  1  0
 28 21  1  0
 29 30  1  0
 29 27  1  0
 31 29  2  0
M  END
$$$$
