GIY.pdb
     RDKit          3D

 25 25  0  0  1  0  0  0  0  0999 V2000
    5.7197  -18.8898   23.7626 N   0  0  0  0  0  0  0  0  0  0  0  0
    5.6917  -17.8561   24.7617 C   0  0  0  0  0  0  0  0  0  0  0  0
    6.6205  -16.7324   24.3512 C   0  0  0  0  0  0  0  0  0  0  0  0
    7.3247  -16.8348   23.3234 O   0  0  0  0  0  0  0  0  0  0  0  0
    6.4996  -11.5014   26.9002 C   0  0  0  0  0  0  0  0  0  0  0  0
    6.8136  -12.9204   26.5491 C   0  0  0  0  0  0  0  0  0  0  0  0
    7.0136  -13.2163   25.1137 C   0  0  2  0  0  0  0  0  0  0  0  0
    5.8463  -12.7492   24.2583 C   0  0  0  0  0  0  0  0  0  0  0  0
    7.6551  -14.4720   24.6986 C   0  0  2  0  0  0  0  0  0  0  0  0
    6.7149  -15.5542   25.1081 N   0  0  0  0  0  0  0  0  0  0  0  0
    8.9977  -14.8016   25.1362 C   0  0  0  0  0  0  0  0  0  0  0  0
    9.3812  -14.6441   26.3464 O   0  0  0  0  0  0  0  0  0  0  0  0
   10.8970  -15.8896   31.2609 O   0  0  0  0  0  0  0  0  0  0  0  0
   10.8961  -16.1849   29.8932 C   0  0  0  0  0  0  0  0  0  0  0  0
   10.5757  -15.2184   28.9648 C   0  0  0  0  0  0  0  0  0  0  0  0
   10.5701  -15.4921   27.6155 C   0  0  0  0  0  0  0  0  0  0  0  0
   10.8848  -16.7421   27.1460 C   0  0  0  0  0  0  0  0  0  0  0  0
   10.8754  -17.0688   25.7203 C   0  0  0  0  0  0  0  0  0  0  0  0
   11.2434  -15.8801   24.8191 C   0  0  2  0  0  0  0  0  0  0  0  0
    9.9949  -15.3333   24.2800 N   0  0  0  0  0  0  0  0  0  0  0  0
   12.0802  -16.3496   23.7279 C   0  0  0  0  0  0  0  0  0  0  0  0
   11.5740  -16.5897   22.6036 O   0  0  0  0  0  0  0  0  0  0  0  0
   11.2072  -17.7154   28.0791 C   0  0  0  0  0  0  0  0  0  0  0  0
   11.2131  -17.4424   29.4294 C   0  0  0  0  0  0  0  0  0  0  0  0
   13.4300  -16.5418   23.8856 O   0  0  0  0  0  0  0  0  0  0  0  0
  1  2  1  0
  2  3  1  0
  3 10  1  0
  3  4  2  0
  6  5  1  0
  7  8  1  6
  7  6  1  0
  9  7  1  0
  9 10  1  1
 11 12  2  0
 11  9  1  0
 14 13  1  0
 14 24  2  0
 15 14  1  0
 16 15  2  0
 16 17  1  0
 17 23  2  0
 18 17  1  0
 19 18  1  1
 19 20  1  0
 20 11  1  0
 21 19  1  0
 21 25  1  0
 22 21  2  0
 23 24  1  0
M  END
$$$$
