GIY.pdb
     RDKit          3D

 25 25  0  0  1  0  0  0  0  0999 V2000
    4.5796  -18.8845   21.6203 N   0  0  0  0  0  0  0  0  0  0  0  0
    4.6401  -17.4980   21.9964 C   0  0  0  0  0  0  0  0  0  0  0  0
    6.0262  -16.9581   21.7118 C   0  0  0  0  0  0  0  0  0  0  0  0
    6.9517  -17.7298   21.3789 O   0  0  0  0  0  0  0  0  0  0  0  0
    6.7185  -12.9815   18.5331 C   0  0  0  0  0  0  0  0  0  0  0  0
    6.9173  -14.1966   19.3813 C   0  0  0  0  0  0  0  0  0  0  0  0
    7.6160  -13.9951   20.6693 C   0  0  2  0  0  0  0  0  0  0  0  0
    8.8589  -13.1310   20.5247 C   0  0  0  0  0  0  0  0  0  0  0  0
    7.7033  -15.0917   21.6443 C   0  0  2  0  0  0  0  0  0  0  0  0
    6.3071  -15.5867   21.8133 N   0  0  0  0  0  0  0  0  0  0  0  0
    8.3072  -14.8835   22.9460 C   0  0  0  0  0  0  0  0  0  0  0  0
    7.7672  -14.1463   23.8412 O   0  0  0  0  0  0  0  0  0  0  0  0
   10.9033  -15.1656   31.0640 O   0  0  0  0  0  0  0  0  0  0  0  0
   10.4567  -15.2903   29.7437 C   0  0  0  0  0  0  0  0  0  0  0  0
   10.1285  -14.1753   29.0036 C   0  0  0  0  0  0  0  0  0  0  0  0
    9.6877  -14.2803   27.7035 C   0  0  0  0  0  0  0  0  0  0  0  0
    9.5592  -15.5040   27.0967 C   0  0  0  0  0  0  0  0  0  0  0  0
    9.0814  -15.6505   25.7221 C   0  0  0  0  0  0  0  0  0  0  0  0
   10.1066  -15.2038   24.6685 C   0  0  2  0  0  0  0  0  0  0  0  0
    9.5298  -15.4779   23.3492 N   0  0  0  0  0  0  0  0  0  0  0  0
   11.3280  -15.9732   24.8349 C   0  0  0  0  0  0  0  0  0  0  0  0
   11.4280  -17.1157   24.3223 O   0  0  0  0  0  0  0  0  0  0  0  0
    9.8889  -16.6265   27.8405 C   0  0  0  0  0  0  0  0  0  0  0  0
   10.3301  -16.5224   29.1414 C   0  0  0  0  0  0  0  0  0  0  0  0
   12.3966  -15.4851   25.5444 O   0  0  0  0  0  0  0  0  0  0  0  0
  1  2  1  0
  2  3  1  0
  3 10  1  0
  3  4  2  0
  6  5  1  0
  7  8  1  6
  7  6  1  0
  9  7  1  0
  9 10  1  1
 11 12  2  0
 11  9  1  0
 14 13  1  0
 14 24  2  0
 15 14  1  0
 16 15  2  0
 16 17  1  0
 17 23  2  0
 18 17  1  0
 19 18  1  1
 19 20  1  0
 20 11  1  0
 21 19  1  0
 21 25  1  0
 22 21  2  0
 23 24  1  0
M  END
$$$$
