GIY.pdb
     RDKit          3D

 25 25  0  0  1  0  0  0  0  0999 V2000
    5.3866  -19.0383   22.8304 N   0  0  0  0  0  0  0  0  0  0  0  0
    5.8811  -18.2993   23.9604 C   0  0  0  0  0  0  0  0  0  0  0  0
    6.4966  -17.0002   23.4836 C   0  0  0  0  0  0  0  0  0  0  0  0
    6.6229  -16.7689   22.2616 O   0  0  0  0  0  0  0  0  0  0  0  0
    5.8406  -12.6727   26.6694 C   0  0  0  0  0  0  0  0  0  0  0  0
    5.9740  -13.6177   25.5186 C   0  0  0  0  0  0  0  0  0  0  0  0
    7.3280  -13.7691   24.9426 C   0  0  2  0  0  0  0  0  0  0  0  0
    8.0341  -12.4340   24.7648 C   0  0  0  0  0  0  0  0  0  0  0  0
    7.5824  -14.7763   23.9027 C   0  0  2  0  0  0  0  0  0  0  0  0
    6.9386  -16.0280   24.3943 N   0  0  0  0  0  0  0  0  0  0  0  0
    8.9330  -15.0644   23.4606 C   0  0  0  0  0  0  0  0  0  0  0  0
    9.5460  -14.3311   22.6103 O   0  0  0  0  0  0  0  0  0  0  0  0
   11.7329  -15.6919   31.4749 O   0  0  0  0  0  0  0  0  0  0  0  0
   11.1826  -15.6704   30.1885 C   0  0  0  0  0  0  0  0  0  0  0  0
   10.9089  -14.4750   29.5601 C   0  0  0  0  0  0  0  0  0  0  0  0
   10.3676  -14.4360   28.2948 C   0  0  0  0  0  0  0  0  0  0  0  0
   10.0805  -15.5910   27.6123 C   0  0  0  0  0  0  0  0  0  0  0  0
    9.4932  -15.5840   26.2727 C   0  0  0  0  0  0  0  0  0  0  0  0
   10.4555  -16.0780   25.1816 C   0  0  2  0  0  0  0  0  0  0  0  0
    9.6962  -16.1630   23.9307 N   0  0  0  0  0  0  0  0  0  0  0  0
   10.9489  -17.3964   25.5418 C   0  0  0  0  0  0  0  0  0  0  0  0
   10.2059  -18.4021   25.4215 O   0  0  0  0  0  0  0  0  0  0  0  0
   10.3552  -16.7942   28.2436 C   0  0  0  0  0  0  0  0  0  0  0  0
   10.8969  -16.8342   29.5097 C   0  0  0  0  0  0  0  0  0  0  0  0
   12.2230  -17.5846   26.0161 O   0  0  0  0  0  0  0  0  0  0  0  0
  1  2  1  0
  2  3  1  0
  3 10  1  0
  3  4  2  0
  6  5  1  0
  7  8  1  6
  7  6  1  0
  9  7  1  0
  9 10  1  1
 11 12  2  0
 11  9  1  0
 14 13  1  0
 14 24  2  0
 15 14  1  0
 16 15  2  0
 16 17  1  0
 17 23  2  0
 18 17  1  0
 19 18  1  1
 19 20  1  0
 20 11  1  0
 21 19  1  0
 21 25  1  0
 22 21  2  0
 23 24  1  0
M  END
$$$$
