GIY.pdb
     RDKit          3D

 25 25  0  0  1  0  0  0  0  0999 V2000
    5.9412  -19.1561   25.0890 N   0  0  0  0  0  0  0  0  0  0  0  0
    6.0477  -18.0089   25.9493 C   0  0  0  0  0  0  0  0  0  0  0  0
    6.6404  -16.8505   25.1743 C   0  0  0  0  0  0  0  0  0  0  0  0
    7.0101  -17.0025   23.9898 O   0  0  0  0  0  0  0  0  0  0  0  0
    5.0058  -12.0616   26.6977 C   0  0  0  0  0  0  0  0  0  0  0  0
    5.4527  -13.1666   25.7953 C   0  0  0  0  0  0  0  0  0  0  0  0
    6.9028  -13.2429   25.5137 C   0  0  2  0  0  0  0  0  0  0  0  0
    7.4395  -11.9641   24.8899 C   0  0  0  0  0  0  0  0  0  0  0  0
    7.4983  -14.4961   25.0281 C   0  0  2  0  0  0  0  0  0  0  0  0
    6.7896  -15.5841   25.7608 N   0  0  0  0  0  0  0  0  0  0  0  0
    8.9301  -14.7149   25.0968 C   0  0  0  0  0  0  0  0  0  0  0  0
    9.6523  -14.2311   26.0354 O   0  0  0  0  0  0  0  0  0  0  0  0
   10.1809  -15.1045   30.6413 O   0  0  0  0  0  0  0  0  0  0  0  0
   10.4592  -15.5265   29.3366 C   0  0  0  0  0  0  0  0  0  0  0  0
   10.9575  -14.6442   28.4028 C   0  0  0  0  0  0  0  0  0  0  0  0
   11.2368  -15.0429   27.1150 C   0  0  0  0  0  0  0  0  0  0  0  0
   11.0278  -16.3383   26.7145 C   0  0  0  0  0  0  0  0  0  0  0  0
   11.3018  -16.7905   25.3507 C   0  0  0  0  0  0  0  0  0  0  0  0
   11.0972  -15.6962   24.2919 C   0  0  2  0  0  0  0  0  0  0  0  0
    9.6536  -15.4845   24.1510 N   0  0  0  0  0  0  0  0  0  0  0  0
   11.6484  -16.1484   23.0257 C   0  0  0  0  0  0  0  0  0  0  0  0
   10.8835  -16.4300   22.0699 O   0  0  0  0  0  0  0  0  0  0  0  0
   10.5263  -17.2268   27.6529 C   0  0  0  0  0  0  0  0  0  0  0  0
   10.2466  -16.8288   28.9418 C   0  0  0  0  0  0  0  0  0  0  0  0
   13.0011  -16.2790   22.8339 O   0  0  0  0  0  0  0  0  0  0  0  0
  1  2  1  0
  2  3  1  0
  3 10  1  0
  3  4  2  0
  6  5  1  0
  7  8  1  6
  7  6  1  0
  9  7  1  0
  9 10  1  1
 11 12  2  0
 11  9  1  0
 14 13  1  0
 14 24  2  0
 15 14  1  0
 16 15  2  0
 16 17  1  0
 17 23  2  0
 18 17  1  0
 19 18  1  1
 19 20  1  0
 20 11  1  0
 21 19  1  0
 21 25  1  0
 22 21  2  0
 23 24  1  0
M  END
$$$$
