GIY.pdb
     RDKit          3D

 25 25  0  0  1  0  0  0  0  0999 V2000
    5.3910  -19.4739   21.2275 N   0  0  0  0  0  0  0  0  0  0  0  0
    5.3238  -18.1459   21.7746 C   0  0  0  0  0  0  0  0  0  0  0  0
    6.6861  -17.4913   21.6791 C   0  0  0  0  0  0  0  0  0  0  0  0
    7.6521  -18.1068   21.1783 O   0  0  0  0  0  0  0  0  0  0  0  0
    7.4486  -12.0172   20.5308 C   0  0  0  0  0  0  0  0  0  0  0  0
    7.3275  -13.1946   21.4442 C   0  0  0  0  0  0  0  0  0  0  0  0
    8.0000  -14.4385   21.0101 C   0  0  2  0  0  0  0  0  0  0  0  0
    7.5940  -14.8562   19.6055 C   0  0  0  0  0  0  0  0  0  0  0  0
    8.2269  -15.5308   21.9672 C   0  0  2  0  0  0  0  0  0  0  0  0
    6.8994  -16.1853   22.1469 N   0  0  0  0  0  0  0  0  0  0  0  0
    8.8220  -15.2720   23.2640 C   0  0  0  0  0  0  0  0  0  0  0  0
    8.7384  -14.1332   23.8405 O   0  0  0  0  0  0  0  0  0  0  0  0
    6.6255  -10.7237   27.1164 O   0  0  0  0  0  0  0  0  0  0  0  0
    7.0313  -12.0365   26.8520 C   0  0  0  0  0  0  0  0  0  0  0  0
    6.1316  -12.9713   26.3880 C   0  0  0  0  0  0  0  0  0  0  0  0
    6.5142  -14.2670   26.1228 C   0  0  0  0  0  0  0  0  0  0  0  0
    7.8104  -14.6745   26.3120 C   0  0  0  0  0  0  0  0  0  0  0  0
    8.2461  -16.0464   26.0522 C   0  0  0  0  0  0  0  0  0  0  0  0
    9.6637  -16.1363   25.4666 C   0  0  2  0  0  0  0  0  0  0  0  0
    9.5324  -16.2456   24.0109 N   0  0  0  0  0  0  0  0  0  0  0  0
   10.3203  -17.3238   25.9865 C   0  0  0  0  0  0  0  0  0  0  0  0
   10.4791  -18.3294   25.2506 O   0  0  0  0  0  0  0  0  0  0  0  0
    8.7166  -13.7350   26.7789 C   0  0  0  0  0  0  0  0  0  0  0  0
    8.3346  -12.4383   27.0445 C   0  0  0  0  0  0  0  0  0  0  0  0
   10.7831  -17.3852   27.2771 O   0  0  0  0  0  0  0  0  0  0  0  0
  1  2  1  0
  2  3  1  0
  3 10  1  0
  3  4  2  0
  6  5  1  0
  7  8  1  6
  7  6  1  0
  9  7  1  0
  9 10  1  1
 11 12  2  0
 11  9  1  0
 14 13  1  0
 14 24  2  0
 15 14  1  0
 16 15  2  0
 16 17  1  0
 17 23  2  0
 18 17  1  0
 19 18  1  1
 19 20  1  0
 20 11  1  0
 21 19  1  0
 21 25  1  0
 22 21  2  0
 23 24  1  0
M  END
$$$$
