GIY.pdb
     RDKit          3D

 25 25  0  0  1  0  0  0  0  0999 V2000
   10.5533  -18.3045   18.0627 N   0  0  0  0  0  0  0  0  0  0  0  0
    9.7258  -18.4734   19.2264 C   0  0  0  0  0  0  0  0  0  0  0  0
    9.8759  -17.2684   20.1315 C   0  0  0  0  0  0  0  0  0  0  0  0
   11.0101  -16.8276   20.4182 O   0  0  0  0  0  0  0  0  0  0  0  0
    7.3970  -12.4576   19.5321 C   0  0  0  0  0  0  0  0  0  0  0  0
    8.4475  -13.3546   20.1041 C   0  0  0  0  0  0  0  0  0  0  0  0
    7.9798  -14.4200   21.0173 C   0  0  2  0  0  0  0  0  0  0  0  0
    6.9302  -13.9219   21.9985 C   0  0  0  0  0  0  0  0  0  0  0  0
    8.9253  -15.4185   21.5367 C   0  0  2  0  0  0  0  0  0  0  0  0
    8.7539  -16.6187   20.6690 N   0  0  0  0  0  0  0  0  0  0  0  0
    8.8955  -15.8167   22.9307 C   0  0  0  0  0  0  0  0  0  0  0  0
    8.0792  -16.6963   23.3740 O   0  0  0  0  0  0  0  0  0  0  0  0
    6.2476  -10.4990   27.0010 O   0  0  0  0  0  0  0  0  0  0  0  0
    6.7213  -11.7738   26.6715 C   0  0  0  0  0  0  0  0  0  0  0  0
    5.8459  -12.8155   26.4547 C   0  0  0  0  0  0  0  0  0  0  0  0
    6.2952  -14.0757   26.1296 C   0  0  0  0  0  0  0  0  0  0  0  0
    7.6361  -14.3395   26.0096 C   0  0  0  0  0  0  0  0  0  0  0  0
    8.1463  -15.6697   25.6786 C   0  0  0  0  0  0  0  0  0  0  0  0
    9.6414  -15.6797   25.3248 C   0  0  2  0  0  0  0  0  0  0  0  0
    9.7635  -15.2860   23.9182 N   0  0  0  0  0  0  0  0  0  0  0  0
   10.1645  -17.0238   25.5011 C   0  0  0  0  0  0  0  0  0  0  0  0
    9.4150  -17.9425   25.9162 O   0  0  0  0  0  0  0  0  0  0  0  0
    8.5179  -13.2922   26.2277 C   0  0  0  0  0  0  0  0  0  0  0  0
    8.0692  -12.0309   26.5530 C   0  0  0  0  0  0  0  0  0  0  0  0
   11.4730  -17.3304   25.2228 O   0  0  0  0  0  0  0  0  0  0  0  0
  1  2  1  0
  2  3  1  0
  3 10  1  0
  3  4  2  0
  6  5  1  0
  7  8  1  1
  7  6  1  0
  9  7  1  0
  9 10  1  6
 11 12  2  0
 11  9  1  0
 14 13  1  0
 14 24  2  0
 15 14  1  0
 16 15  2  0
 16 17  1  0
 17 23  2  0
 18 17  1  0
 19 18  1  6
 19 20  1  0
 20 11  1  0
 21 19  1  0
 21 25  1  0
 22 21  2  0
 23 24  1  0
M  END
$$$$
