SSY.pdb
     RDKit          3D

 25 25  0  0  1  0  0  0  0  0999 V2000
   11.0377  -14.1525   17.3124 O   0  0  0  0  0  0  0  0  0  0  0  0
   10.1248  -13.6464   18.2537 C   0  0  0  0  0  0  0  0  0  0  0  0
    8.8067  -14.3642   17.9685 C   0  0  2  0  0  0  0  0  0  0  0  0
    7.8679  -13.3387   17.5552 N   0  0  0  0  0  0  0  0  0  0  0  0
    8.2713  -15.0033   19.1995 C   0  0  0  0  0  0  0  0  0  0  0  0
    7.6159  -14.3572   20.0606 O   0  0  0  0  0  0  0  0  0  0  0  0
    9.4189  -18.9183   20.6075 O   0  0  0  0  0  0  0  0  0  0  0  0
    8.0966  -18.4872   20.6698 C   0  0  0  0  0  0  0  0  0  0  0  0
    8.0631  -16.9743   20.6956 C   0  0  2  0  0  0  0  0  0  0  0  0
    8.4771  -16.3856   19.4626 N   0  0  0  0  0  0  0  0  0  0  0  0
    8.8305  -16.4412   21.8641 C   0  0  0  0  0  0  0  0  0  0  0  0
    9.7142  -15.5394   21.7185 O   0  0  0  0  0  0  0  0  0  0  0  0
    6.5194  -11.3445   28.2413 O   0  0  0  0  0  0  0  0  0  0  0  0
    6.7472  -12.2462   27.2016 C   0  0  0  0  0  0  0  0  0  0  0  0
    8.0042  -12.3938   26.6536 C   0  0  0  0  0  0  0  0  0  0  0  0
    8.2305  -13.2874   25.6231 C   0  0  0  0  0  0  0  0  0  0  0  0
    7.2205  -14.0709   25.0941 C   0  0  0  0  0  0  0  0  0  0  0  0
    7.4701  -15.0269   23.9857 C   0  0  0  0  0  0  0  0  0  0  0  0
    8.4967  -16.0760   24.3086 C   0  0  2  0  0  0  0  0  0  0  0  0
    8.5459  -16.9713   23.1520 N   0  0  0  0  0  0  0  0  0  0  0  0
    8.2506  -16.8114   25.5529 C   0  0  0  0  0  0  0  0  0  0  0  0
    7.2842  -17.7869   25.5966 O   0  0  0  0  0  0  0  0  0  0  0  0
    5.9643  -13.9188   25.6466 C   0  0  0  0  0  0  0  0  0  0  0  0
    5.7394  -13.0264   26.6753 C   0  0  0  0  0  0  0  0  0  0  0  0
    8.9162  -16.5537   26.5729 O   0  0  0  0  0  0  0  0  0  0  0  0
  1  2  1  0
  3  4  1  1
  3  2  1  0
  5  3  1  0
  5 10  1  0
  6  5  2  0
  8  7  1  0
  9 10  1  0
  9  8  1  6
 11  9  1  0
 12 11  2  0
 13 14  1  0
 14 15  2  0
 15 16  1  0
 17 16  2  0
 17 18  1  0
 19 18  1  6
 19 20  1  0
 20 11  1  0
 21 22  1  0
 21 19  1  0
 23 17  1  0
 24 14  1  0
 24 23  2  0
 25 21  2  0
M  END
$$$$
