SSY.pdb
     RDKit          3D

 25 25  0  0  1  0  0  0  0  0999 V2000
   10.8689  -19.6636   18.5667 O   0  0  0  0  0  0  0  0  0  0  0  0
   10.1318  -19.9397   19.7311 C   0  0  0  0  0  0  0  0  0  0  0  0
    8.7456  -19.3467   19.4851 C   0  0  2  0  0  0  0  0  0  0  0  0
    8.8549  -18.5465   18.2803 N   0  0  0  0  0  0  0  0  0  0  0  0
    8.3475  -18.4441   20.5975 C   0  0  0  0  0  0  0  0  0  0  0  0
    8.6026  -17.2099   20.5845 O   0  0  0  0  0  0  0  0  0  0  0  0
    6.7595  -19.8258   24.3283 O   0  0  0  0  0  0  0  0  0  0  0  0
    6.2527  -18.6739   23.7328 C   0  0  0  0  0  0  0  0  0  0  0  0
    7.3027  -18.0776   22.8203 C   0  0  2  0  0  0  0  0  0  0  0  0
    7.6545  -18.9382   21.7367 N   0  0  0  0  0  0  0  0  0  0  0  0
    8.4987  -17.6302   23.6000 C   0  0  0  0  0  0  0  0  0  0  0  0
    9.5813  -18.2960   23.5896 O   0  0  0  0  0  0  0  0  0  0  0  0
    5.3699  -11.4558   27.1378 O   0  0  0  0  0  0  0  0  0  0  0  0
    6.4128  -12.1981   26.5835 C   0  0  0  0  0  0  0  0  0  0  0  0
    7.5997  -12.3714   27.2643 C   0  0  0  0  0  0  0  0  0  0  0  0
    8.6337  -13.1071   26.7153 C   0  0  0  0  0  0  0  0  0  0  0  0
    8.5334  -13.7007   25.4697 C   0  0  0  0  0  0  0  0  0  0  0  0
    9.6488  -14.4874   24.8851 C   0  0  0  0  0  0  0  0  0  0  0  0
    9.5449  -15.9659   25.1348 C   0  0  2  0  0  0  0  0  0  0  0  0
    8.3951  -16.4330   24.3593 N   0  0  0  0  0  0  0  0  0  0  0  0
    9.4345  -16.3421   26.5476 C   0  0  0  0  0  0  0  0  0  0  0  0
   10.5253  -16.2347   27.3760 O   0  0  0  0  0  0  0  0  0  0  0  0
    7.3429  -13.5237   24.7929 C   0  0  0  0  0  0  0  0  0  0  0  0
    6.3113  -12.7892   25.3418 C   0  0  0  0  0  0  0  0  0  0  0  0
    8.3526  -16.7600   27.0001 O   0  0  0  0  0  0  0  0  0  0  0  0
  1  2  1  0
  3  4  1  6
  3  2  1  0
  5  3  1  0
  5 10  1  0
  6  5  2  0
  8  7  1  0
  9 10  1  0
  9  8  1  1
 11  9  1  0
 12 11  2  0
 13 14  1  0
 14 15  2  0
 15 16  1  0
 17 16  2  0
 17 18  1  0
 19 18  1  1
 19 20  1  0
 20 11  1  0
 21 22  1  0
 21 19  1  0
 23 17  1  0
 24 14  1  0
 24 23  2  0
 25 21  2  0
M  END
$$$$
