SSY.pdb
     RDKit          3D

 25 25  0  0  1  0  0  0  0  0999 V2000
    6.7979  -19.0909   21.5309 O   0  0  0  0  0  0  0  0  0  0  0  0
    8.0736  -19.6514   21.3465 C   0  0  0  0  0  0  0  0  0  0  0  0
    8.8682  -18.6059   20.5658 C   0  0  2  0  0  0  0  0  0  0  0  0
   10.1993  -19.1551   20.3917 N   0  0  0  0  0  0  0  0  0  0  0  0
    8.9935  -17.3438   21.3418 C   0  0  0  0  0  0  0  0  0  0  0  0
    9.5989  -17.2921   22.4460 O   0  0  0  0  0  0  0  0  0  0  0  0
    7.1958  -13.6322   20.1464 O   0  0  0  0  0  0  0  0  0  0  0  0
    8.4405  -13.6757   20.7687 C   0  0  0  0  0  0  0  0  0  0  0  0
    8.5298  -14.9207   21.6247 C   0  0  2  0  0  0  0  0  0  0  0  0
    8.4304  -16.1271   20.8677 N   0  0  0  0  0  0  0  0  0  0  0  0
    7.5406  -14.8720   22.7461 C   0  0  0  0  0  0  0  0  0  0  0  0
    6.3756  -15.3648   22.6216 O   0  0  0  0  0  0  0  0  0  0  0  0
   11.6346  -15.0048   29.3764 O   0  0  0  0  0  0  0  0  0  0  0  0
   10.5181  -15.0583   28.5419 C   0  0  0  0  0  0  0  0  0  0  0  0
   10.5220  -15.8332   27.4010 C   0  0  0  0  0  0  0  0  0  0  0  0
    9.4156  -15.8866   26.5735 C   0  0  0  0  0  0  0  0  0  0  0  0
    8.2607  -15.1742   26.8431 C   0  0  0  0  0  0  0  0  0  0  0  0
    7.0769  -15.2341   25.9487 C   0  0  0  0  0  0  0  0  0  0  0  0
    6.9519  -14.0534   25.0272 C   0  0  2  0  0  0  0  0  0  0  0  0
    7.9373  -14.2565   23.9645 N   0  0  0  0  0  0  0  0  0  0  0  0
    7.1166  -12.7493   25.6769 C   0  0  0  0  0  0  0  0  0  0  0  0
    6.1548  -12.2840   26.5406 O   0  0  0  0  0  0  0  0  0  0  0  0
    8.2626  -14.4001   27.9865 C   0  0  0  0  0  0  0  0  0  0  0  0
    9.3676  -14.3476   28.8119 C   0  0  0  0  0  0  0  0  0  0  0  0
    8.1278  -12.0605   25.4475 O   0  0  0  0  0  0  0  0  0  0  0  0
  1  2  1  0
  3  4  1  1
  3  2  1  0
  5  3  1  0
  5 10  1  0
  6  5  2  0
  8  7  1  0
  9 10  1  0
  9  8  1  6
 11  9  1  0
 12 11  2  0
 13 14  1  0
 14 15  2  0
 15 16  1  0
 17 16  2  0
 17 18  1  0
 19 18  1  1
 19 20  1  0
 20 11  1  0
 21 22  1  0
 21 19  1  0
 23 17  1  0
 24 14  1  0
 24 23  2  0
 25 21  2  0
M  END
$$$$
