SSY.pdb
     RDKit          3D

 25 25  0  0  1  0  0  0  0  0999 V2000
    7.0442  -13.9089   20.6042 O   0  0  0  0  0  0  0  0  0  0  0  0
    8.3857  -13.6506   20.2740 C   0  0  0  0  0  0  0  0  0  0  0  0
    8.9700  -15.0003   19.8607 C   0  0  2  0  0  0  0  0  0  0  0  0
    8.1445  -15.4824   18.7699 N   0  0  0  0  0  0  0  0  0  0  0  0
    8.8770  -15.9835   20.9721 C   0  0  0  0  0  0  0  0  0  0  0  0
    7.9652  -16.8519   21.0255 O   0  0  0  0  0  0  0  0  0  0  0  0
   12.0193  -17.7471   22.5674 O   0  0  0  0  0  0  0  0  0  0  0  0
   10.7024  -18.1845   22.6807 C   0  0  0  0  0  0  0  0  0  0  0  0
    9.8126  -17.0111   23.0300 C   0  0  2  0  0  0  0  0  0  0  0  0
    9.8220  -15.9876   22.0347 N   0  0  0  0  0  0  0  0  0  0  0  0
   10.1350  -16.4808   24.3915 C   0  0  0  0  0  0  0  0  0  0  0  0
   11.0155  -15.5795   24.5582 O   0  0  0  0  0  0  0  0  0  0  0  0
    6.1515  -11.3190   25.6028 O   0  0  0  0  0  0  0  0  0  0  0  0
    6.7031  -12.5140   26.0650 C   0  0  0  0  0  0  0  0  0  0  0  0
    8.0004  -12.5629   26.5306 C   0  0  0  0  0  0  0  0  0  0  0  0
    8.5475  -13.7471   26.9889 C   0  0  0  0  0  0  0  0  0  0  0  0
    7.8313  -14.9306   27.0043 C   0  0  0  0  0  0  0  0  0  0  0  0
    8.4260  -16.1994   27.4956 C   0  0  0  0  0  0  0  0  0  0  0  0
    9.7409  -16.5422   26.8534 C   0  0  2  0  0  0  0  0  0  0  0  0
    9.4276  -17.0130   25.5036 N   0  0  0  0  0  0  0  0  0  0  0  0
   10.5483  -17.5169   27.5935 C   0  0  0  0  0  0  0  0  0  0  0  0
   11.0872  -17.1812   28.8119 O   0  0  0  0  0  0  0  0  0  0  0  0
    6.5332  -14.8755   26.5371 C   0  0  0  0  0  0  0  0  0  0  0  0
    5.9879  -13.6929   26.0798 C   0  0  0  0  0  0  0  0  0  0  0  0
   10.7480  -18.6508   27.1199 O   0  0  0  0  0  0  0  0  0  0  0  0
  1  2  1  0
  3  4  1  6
  3  2  1  0
  5  3  1  0
  5 10  1  0
  6  5  2  0
  8  7  1  0
  9 10  1  0
  9  8  1  6
 11  9  1  0
 12 11  2  0
 13 14  1  0
 14 15  2  0
 15 16  1  0
 17 16  2  0
 17 18  1  0
 19 18  1  1
 19 20  1  0
 20 11  1  0
 21 22  1  0
 21 19  1  0
 23 17  1  0
 24 14  1  0
 24 23  2  0
 25 21  2  0
M  END
$$$$
