SSY.pdb
     RDKit          3D

 25 25  0  0  1  0  0  0  0  0999 V2000
   10.2428  -14.5095   17.9450 O   0  0  0  0  0  0  0  0  0  0  0  0
    9.1298  -14.9695   17.2204 C   0  0  0  0  0  0  0  0  0  0  0  0
    7.9306  -14.2193   17.7975 C   0  0  2  0  0  0  0  0  0  0  0  0
    8.2468  -12.8076   17.6927 N   0  0  0  0  0  0  0  0  0  0  0  0
    7.7451  -14.5394   19.2375 C   0  0  0  0  0  0  0  0  0  0  0  0
    8.1075  -13.7519   20.1524 O   0  0  0  0  0  0  0  0  0  0  0  0
    6.9926  -18.4086   20.7743 O   0  0  0  0  0  0  0  0  0  0  0  0
    6.2112  -17.3625   21.2573 C   0  0  0  0  0  0  0  0  0  0  0  0
    6.9337  -16.0517   21.0323 C   0  0  2  0  0  0  0  0  0  0  0  0
    7.1445  -15.7605   19.6506 N   0  0  0  0  0  0  0  0  0  0  0  0
    8.2026  -15.9966   21.8232 C   0  0  0  0  0  0  0  0  0  0  0  0
    9.3339  -16.1697   21.2705 O   0  0  0  0  0  0  0  0  0  0  0  0
    5.3072  -11.8678   27.3452 O   0  0  0  0  0  0  0  0  0  0  0  0
    6.3463  -12.4436   26.6141 C   0  0  0  0  0  0  0  0  0  0  0  0
    6.3514  -12.4016   25.2355 C   0  0  0  0  0  0  0  0  0  0  0  0
    7.3811  -12.9722   24.5103 C   0  0  0  0  0  0  0  0  0  0  0  0
    8.4472  -13.6073   25.1217 C   0  0  0  0  0  0  0  0  0  0  0  0
    9.5486  -14.2201   24.3366 C   0  0  0  0  0  0  0  0  0  0  0  0
    9.3339  -15.6741   24.0224 C   0  0  2  0  0  0  0  0  0  0  0  0
    8.1126  -15.7440   23.2192 N   0  0  0  0  0  0  0  0  0  0  0  0
    9.2616  -16.5502   25.1958 C   0  0  0  0  0  0  0  0  0  0  0  0
   10.3713  -16.7390   25.9836 O   0  0  0  0  0  0  0  0  0  0  0  0
    8.4367  -13.6462   26.5019 C   0  0  0  0  0  0  0  0  0  0  0  0
    7.4083  -13.0763   27.2249 C   0  0  0  0  0  0  0  0  0  0  0  0
    8.1951  -17.1254   25.4812 O   0  0  0  0  0  0  0  0  0  0  0  0
  1  2  1  0
  3  4  1  1
  3  2  1  0
  5  3  1  0
  5 10  1  0
  6  5  2  0
  8  7  1  0
  9 10  1  0
  9  8  1  6
 11  9  1  0
 12 11  2  0
 13 14  1  0
 14 15  2  0
 15 16  1  0
 17 16  2  0
 17 18  1  0
 19 18  1  1
 19 20  1  0
 20 11  1  0
 21 22  1  0
 21 19  1  0
 23 17  1  0
 24 14  1  0
 24 23  2  0
 25 21  2  0
M  END
$$$$
