SSY.pdb
     RDKit          3D

 25 25  0  0  1  0  0  0  0  0999 V2000
    3.3472  -19.0969   23.1579 O   0  0  0  0  0  0  0  0  0  0  0  0
    2.7583  -18.1582   22.2933 C   0  0  0  0  0  0  0  0  0  0  0  0
    3.4812  -18.3257   20.9580 C   0  0  2  0  0  0  0  0  0  0  0  0
    3.4031  -19.7361   20.6288 N   0  0  0  0  0  0  0  0  0  0  0  0
    4.9182  -17.9650   21.0816 C   0  0  0  0  0  0  0  0  0  0  0  0
    5.8100  -18.8274   21.3044 O   0  0  0  0  0  0  0  0  0  0  0  0
    8.5845  -15.1930   20.0375 O   0  0  0  0  0  0  0  0  0  0  0  0
    7.2053  -15.3603   19.9462 C   0  0  0  0  0  0  0  0  0  0  0  0
    6.7363  -16.2736   21.0581 C   0  0  2  0  0  0  0  0  0  0  0  0
    5.3547  -16.6177   20.9526 N   0  0  0  0  0  0  0  0  0  0  0  0
    7.0779  -15.7045   22.3990 C   0  0  0  0  0  0  0  0  0  0  0  0
    6.2806  -14.9246   23.0085 O   0  0  0  0  0  0  0  0  0  0  0  0
    8.0004  -21.1370   27.1727 O   0  0  0  0  0  0  0  0  0  0  0  0
    7.9220  -19.8271   26.6996 C   0  0  0  0  0  0  0  0  0  0  0  0
    8.8184  -18.8667   27.1194 C   0  0  0  0  0  0  0  0  0  0  0  0
    8.7411  -17.5682   26.6508 C   0  0  0  0  0  0  0  0  0  0  0  0
    7.7725  -17.1689   25.7474 C   0  0  0  0  0  0  0  0  0  0  0  0
    7.6938  -15.7720   25.2501 C   0  0  0  0  0  0  0  0  0  0  0  0
    8.7458  -15.4296   24.2328 C   0  0  2  0  0  0  0  0  0  0  0  0
    8.3255  -16.0595   22.9804 N   0  0  0  0  0  0  0  0  0  0  0  0
   10.1087  -15.8212   24.6055 C   0  0  0  0  0  0  0  0  0  0  0  0
   10.8089  -16.7071   23.8230 O   0  0  0  0  0  0  0  0  0  0  0  0
    6.8779  -18.1345   25.3308 C   0  0  0  0  0  0  0  0  0  0  0  0
    6.9559  -19.4305   25.7992 C   0  0  0  0  0  0  0  0  0  0  0  0
   10.6347  -15.3524   25.6318 O   0  0  0  0  0  0  0  0  0  0  0  0
  1  2  1  0
  3  4  1  1
  3  2  1  0
  5  3  1  0
  5 10  1  0
  6  5  2  0
  8  7  1  0
  9 10  1  0
  9  8  1  6
 11  9  1  0
 12 11  2  0
 13 14  1  0
 14 15  2  0
 15 16  1  0
 17 16  2  0
 17 18  1  0
 19 18  1  1
 19 20  1  0
 20 11  1  0
 21 22  1  0
 21 19  1  0
 23 17  1  0
 24 14  1  0
 24 23  2  0
 25 21  2  0
M  END
$$$$
