SSY.pdb
     RDKit          3D

 25 25  0  0  1  0  0  0  0  0999 V2000
   10.3403  -13.2344   19.2322 O   0  0  0  0  0  0  0  0  0  0  0  0
    9.5665  -13.7302   18.1688 C   0  0  0  0  0  0  0  0  0  0  0  0
    8.1178  -13.6465   18.6463 C   0  0  2  0  0  0  0  0  0  0  0  0
    7.8221  -12.2347   18.7988 N   0  0  0  0  0  0  0  0  0  0  0  0
    7.9574  -14.2922   19.9759 C   0  0  0  0  0  0  0  0  0  0  0  0
    7.7934  -13.6234   21.0316 O   0  0  0  0  0  0  0  0  0  0  0  0
    8.5985  -18.4151   20.7421 O   0  0  0  0  0  0  0  0  0  0  0  0
    7.4309  -17.8274   21.2211 C   0  0  0  0  0  0  0  0  0  0  0  0
    7.6387  -16.3341   21.3528 C   0  0  2  0  0  0  0  0  0  0  0  0
    7.9820  -15.7071   20.1170 N   0  0  0  0  0  0  0  0  0  0  0  0
    8.6207  -16.0234   22.4381 C   0  0  0  0  0  0  0  0  0  0  0  0
    9.8077  -15.6563   22.1701 O   0  0  0  0  0  0  0  0  0  0  0  0
    5.8023  -10.5033   25.7906 O   0  0  0  0  0  0  0  0  0  0  0  0
    6.4281  -11.7478   25.8625 C   0  0  0  0  0  0  0  0  0  0  0  0
    5.7155  -12.8819   26.1914 C   0  0  0  0  0  0  0  0  0  0  0  0
    6.3354  -14.1158   26.2628 C   0  0  0  0  0  0  0  0  0  0  0  0
    7.6863  -14.2757   26.0111 C   0  0  0  0  0  0  0  0  0  0  0  0
    8.3461  -15.6035   26.0920 C   0  0  0  0  0  0  0  0  0  0  0  0
    9.1528  -15.9556   24.8737 C   0  0  2  0  0  0  0  0  0  0  0  0
    8.1916  -16.1494   23.7874 N   0  0  0  0  0  0  0  0  0  0  0  0
   10.0299  -17.1194   25.0352 C   0  0  0  0  0  0  0  0  0  0  0  0
    9.6922  -18.3211   24.4614 O   0  0  0  0  0  0  0  0  0  0  0  0
    8.3945  -13.1369   25.6824 C   0  0  0  0  0  0  0  0  0  0  0  0
    7.7748  -11.9057   25.6114 C   0  0  0  0  0  0  0  0  0  0  0  0
   11.0825  -17.0218   25.6928 O   0  0  0  0  0  0  0  0  0  0  0  0
  1  2  1  0
  3  4  1  1
  3  2  1  0
  5  3  1  0
  5 10  1  0
  6  5  2  0
  8  7  1  0
  9 10  1  0
  9  8  1  6
 11  9  1  0
 12 11  2  0
 13 14  1  0
 14 15  2  0
 15 16  1  0
 17 16  2  0
 17 18  1  0
 19 18  1  1
 19 20  1  0
 20 11  1  0
 21 22  1  0
 21 19  1  0
 23 17  1  0
 24 14  1  0
 24 23  2  0
 25 21  2  0
M  END
$$$$
