VMG.pdb
     RDKit          3D

 20 19  0  0  1  0  0  0  0  0999 V2000
   19.7006  -14.8167  -19.4882 C   0  0  0  0  0  0  0  0  0  0  0  0
   20.5492  -14.0525  -18.5173 C   0  0  1  0  0  0  0  0  0  0  0  0
   21.7527  -13.4375  -19.2324 C   0  0  0  0  0  0  0  0  0  0  0  0
   19.8324  -12.9254  -17.8200 C   0  0  2  0  0  0  0  0  0  0  0  0
   19.4257  -12.0077  -18.9065 N   0  0  0  0  0  0  0  0  0  0  0  0
   20.7569  -12.1377  -16.9598 C   0  0  0  0  0  0  0  0  0  0  0  0
   21.2631  -12.6285  -15.8885 O   0  0  0  0  0  0  0  0  0  0  0  0
   26.7802  -10.1732  -14.6455 C   0  0  0  0  0  0  0  0  0  0  0  0
   25.4221  -10.7983  -15.7041 S   0  0  0  0  0  0  0  0  0  0  0  0
   24.5143   -9.4231  -16.4299 C   0  0  0  0  0  0  0  0  0  0  0  0
   23.3506   -9.8748  -17.2624 C   0  0  0  0  0  0  0  0  0  0  0  0
   22.0724  -10.0511  -16.4576 C   0  0  2  0  0  0  0  0  0  0  0  0
   21.1205  -10.8118  -17.2858 N   0  0  0  0  0  0  0  0  0  0  0  0
   21.4930   -8.7225  -16.1888 C   0  0  0  0  0  0  0  0  0  0  0  0
   20.9996   -8.0081  -17.1134 O   0  0  0  0  0  0  0  0  0  0  0  0
   21.4433   -8.1452  -14.8890 N   0  0  0  0  0  0  0  0  0  0  0  0
   20.9034   -6.8252  -14.6647 C   0  0  0  0  0  0  0  0  0  0  0  0
   21.8396   -5.7607  -15.0790 C   0  0  0  0  0  0  0  0  0  0  0  0
   23.0832   -6.0277  -15.1102 O   0  0  0  0  0  0  0  0  0  0  0  0
   21.3905   -4.5017  -15.4267 O   0  0  0  0  0  0  0  0  0  0  0  0
  2  1  1  6
  3  2  1  0
  4  2  1  0
  4  5  1  6
  6  4  1  0
  7  6  2  0
  9  8  1  0
  9 10  1  0
 10 11  1  0
 12 11  1  6
 12 13  1  0
 13  6  1  0
 14 15  2  0
 14 12  1  0
 16 14  1  0
 17 16  1  0
 17 18  1  0
 18 20  1  0
 19 18  2  0
M  END
$$$$
