VMG.pdb
     RDKit          3D

 20 19  0  0  1  0  0  0  0  0999 V2000
   19.0437  -11.4381  -20.2880 C   0  0  0  0  0  0  0  0  0  0  0  0
   19.7173  -10.9891  -19.0265 C   0  0  1  0  0  0  0  0  0  0  0  0
   18.6835  -10.7642  -17.9227 C   0  0  0  0  0  0  0  0  0  0  0  0
   20.7311  -11.9631  -18.4840 C   0  0  2  0  0  0  0  0  0  0  0  0
   19.9361  -13.1333  -18.0521 N   0  0  0  0  0  0  0  0  0  0  0  0
   21.3804  -11.4461  -17.2486 C   0  0  0  0  0  0  0  0  0  0  0  0
   20.9409  -11.7439  -16.0812 O   0  0  0  0  0  0  0  0  0  0  0  0
   27.5700  -11.1830  -16.6575 C   0  0  0  0  0  0  0  0  0  0  0  0
   27.2423   -9.9568  -15.3365 S   0  0  0  0  0  0  0  0  0  0  0  0
   25.4688   -9.7406  -15.1130 C   0  0  0  0  0  0  0  0  0  0  0  0
   24.6711  -10.2923  -16.2579 C   0  0  0  0  0  0  0  0  0  0  0  0
   23.1710  -10.1169  -16.0808 C   0  0  2  0  0  0  0  0  0  0  0  0
   22.5134  -10.6037  -17.3060 N   0  0  0  0  0  0  0  0  0  0  0  0
   22.8744   -8.6802  -15.9359 C   0  0  0  0  0  0  0  0  0  0  0  0
   23.1981   -8.0318  -14.8950 O   0  0  0  0  0  0  0  0  0  0  0  0
   22.2101   -7.9190  -16.9383 N   0  0  0  0  0  0  0  0  0  0  0  0
   22.0119   -6.4954  -16.8037 C   0  0  0  0  0  0  0  0  0  0  0  0
   20.7040   -6.1678  -16.2010 C   0  0  0  0  0  0  0  0  0  0  0  0
   19.6961   -6.0532  -16.9691 O   0  0  0  0  0  0  0  0  0  0  0  0
   20.5635   -5.9873  -14.8390 O   0  0  0  0  0  0  0  0  0  0  0  0
  2  1  1  6
  3  2  1  0
  4  2  1  0
  4  5  1  1
  6  4  1  0
  7  6  2  0
  9  8  1  0
  9 10  1  0
 10 11  1  0
 12 11  1  6
 12 13  1  0
 13  6  1  0
 14 15  2  0
 14 12  1  0
 16 14  1  0
 17 16  1  0
 17 18  1  0
 18 20  1  0
 19 18  2  0
M  END
$$$$
