VMG.pdb
     RDKit          3D

 20 19  0  0  1  0  0  0  0  0999 V2000
   21.1648  -19.1447  -18.5151 C   0  0  0  0  0  0  0  0  0  0  0  0
   21.8036  -18.0652  -17.6945 C   0  0  1  0  0  0  0  0  0  0  0  0
   20.7623  -17.3886  -16.8027 C   0  0  0  0  0  0  0  0  0  0  0  0
   22.9085  -18.5456  -16.7895 C   0  0  2  0  0  0  0  0  0  0  0  0
   22.2476  -19.4767  -15.8492 N   0  0  0  0  0  0  0  0  0  0  0  0
   23.4437  -17.4424  -15.9458 C   0  0  0  0  0  0  0  0  0  0  0  0
   22.9367  -17.1625  -14.8015 O   0  0  0  0  0  0  0  0  0  0  0  0
   27.4158  -19.4452  -13.6231 C   0  0  0  0  0  0  0  0  0  0  0  0
   26.7246  -18.3372  -14.9077 S   0  0  0  0  0  0  0  0  0  0  0  0
   27.1517  -16.6251  -14.5494 C   0  0  0  0  0  0  0  0  0  0  0  0
   26.5935  -15.6671  -15.5605 C   0  0  0  0  0  0  0  0  0  0  0  0
   25.0762  -15.5738  -15.5218 C   0  0  2  0  0  0  0  0  0  0  0  0
   24.5373  -16.6532  -16.3673 N   0  0  0  0  0  0  0  0  0  0  0  0
   24.6645  -14.2824  -16.1015 C   0  0  0  0  0  0  0  0  0  0  0  0
   24.9006  -13.1814  -15.5179 O   0  0  0  0  0  0  0  0  0  0  0  0
   23.9789  -14.1717  -17.3436 N   0  0  0  0  0  0  0  0  0  0  0  0
   23.6532  -12.8884  -17.9192 C   0  0  0  0  0  0  0  0  0  0  0  0
   24.6487  -12.4564  -18.9210 C   0  0  0  0  0  0  0  0  0  0  0  0
   25.6339  -13.2239  -19.1643 O   0  0  0  0  0  0  0  0  0  0  0  0
   24.5262  -11.2515  -19.5850 O   0  0  0  0  0  0  0  0  0  0  0  0
  2  1  1  1
  3  2  1  0
  4  2  1  0
  4  5  1  1
  6  4  1  0
  7  6  2  0
  9  8  1  0
  9 10  1  0
 10 11  1  0
 12 11  1  6
 12 13  1  0
 13  6  1  0
 14 15  2  0
 14 12  1  0
 16 14  1  0
 17 16  1  0
 17 18  1  0
 18 20  1  0
 19 18  2  0
M  END
$$$$
