VMG.pdb
     RDKit          3D

 20 19  0  0  1  0  0  0  0  0999 V2000
   19.8097  -24.0234  -10.1975 C   0  0  0  0  0  0  0  0  0  0  0  0
   19.2823  -23.6945   -8.8335 C   0  0  1  0  0  0  0  0  0  0  0  0
   18.5616  -24.9034   -8.2363 C   0  0  0  0  0  0  0  0  0  0  0  0
   20.3395  -23.2822   -7.8422 C   0  0  2  0  0  0  0  0  0  0  0  0
   19.5891  -22.9153   -6.6214 N   0  0  0  0  0  0  0  0  0  0  0  0
   21.0355  -22.0380   -8.2698 C   0  0  0  0  0  0  0  0  0  0  0  0
   20.4150  -20.9205   -8.3735 O   0  0  0  0  0  0  0  0  0  0  0  0
   27.0668  -18.9453   -7.1237 C   0  0  0  0  0  0  0  0  0  0  0  0
   26.2514  -20.4632   -6.5016 S   0  0  0  0  0  0  0  0  0  0  0  0
   24.5604  -20.5574   -7.1129 C   0  0  0  0  0  0  0  0  0  0  0  0
   24.4940  -20.7965   -8.5927 C   0  0  0  0  0  0  0  0  0  0  0  0
   23.0716  -20.8331   -9.1293 C   0  0  2  0  0  0  0  0  0  0  0  0
   22.4140  -22.0314   -8.5797 N   0  0  0  0  0  0  0  0  0  0  0  0
   23.1205  -20.9639  -10.5969 C   0  0  0  0  0  0  0  0  0  0  0  0
   23.7487  -21.9088  -11.1638 O   0  0  0  0  0  0  0  0  0  0  0  0
   22.4764  -20.0527  -11.4800 N   0  0  0  0  0  0  0  0  0  0  0  0
   22.4974  -20.2395  -12.9114 C   0  0  0  0  0  0  0  0  0  0  0  0
   21.7163  -19.2064  -13.6213 C   0  0  0  0  0  0  0  0  0  0  0  0
   20.7612  -18.6384  -13.0016 O   0  0  0  0  0  0  0  0  0  0  0  0
   22.0041  -18.8555  -14.9257 O   0  0  0  0  0  0  0  0  0  0  0  0
  2  1  1  6
  3  2  1  0
  4  2  1  0
  4  5  1  1
  6  4  1  0
  7  6  2  0
  9  8  1  0
  9 10  1  0
 10 11  1  0
 12 11  1  1
 12 13  1  0
 13  6  1  0
 14 15  2  0
 14 12  1  0
 16 14  1  0
 17 16  1  0
 17 18  1  0
 18 20  1  0
 19 18  2  0
M  END
$$$$
