VMG.pdb
     RDKit          3D

 20 19  0  0  1  0  0  0  0  0999 V2000
   26.5670  -18.1057  -15.3977 C   0  0  0  0  0  0  0  0  0  0  0  0
   27.3885  -19.2306  -15.9514 C   0  0  1  0  0  0  0  0  0  0  0  0
   28.5409  -18.6829  -16.7939 C   0  0  0  0  0  0  0  0  0  0  0  0
   27.9992  -20.1264  -14.9051 C   0  0  2  0  0  0  0  0  0  0  0  0
   28.6150  -21.2333  -15.6692 N   0  0  0  0  0  0  0  0  0  0  0  0
   26.9576  -20.7628  -14.0535 C   0  0  0  0  0  0  0  0  0  0  0  0
   26.2184  -21.7148  -14.4916 O   0  0  0  0  0  0  0  0  0  0  0  0
   26.9772  -19.9860   -7.6313 C   0  0  0  0  0  0  0  0  0  0  0  0
   25.2647  -20.6199   -7.7784 S   0  0  0  0  0  0  0  0  0  0  0  0
   24.9000  -21.0378   -9.4915 C   0  0  0  0  0  0  0  0  0  0  0  0
   25.9602  -20.5611  -10.4403 C   0  0  0  0  0  0  0  0  0  0  0  0
   25.7081  -20.9828  -11.8794 C   0  0  2  0  0  0  0  0  0  0  0  0
   26.7367  -20.3473  -12.7212 N   0  0  0  0  0  0  0  0  0  0  0  0
   24.3888  -20.4763  -12.2989 C   0  0  0  0  0  0  0  0  0  0  0  0
   24.1483  -19.2347  -12.3945 O   0  0  0  0  0  0  0  0  0  0  0  0
   23.2968  -21.3289  -12.6242 N   0  0  0  0  0  0  0  0  0  0  0  0
   22.0259  -20.8016  -13.0612 C   0  0  0  0  0  0  0  0  0  0  0  0
   20.9562  -21.0269  -12.0681 C   0  0  0  0  0  0  0  0  0  0  0  0
   20.9885  -22.0942  -11.3762 O   0  0  0  0  0  0  0  0  0  0  0  0
   19.9394  -20.1105  -11.8844 O   0  0  0  0  0  0  0  0  0  0  0  0
  2  1  1  1
  3  2  1  0
  4  2  1  0
  4  5  1  6
  6  4  1  0
  7  6  2  0
  9  8  1  0
  9 10  1  0
 10 11  1  0
 12 11  1  1
 12 13  1  0
 13  6  1  0
 14 15  2  0
 14 12  1  0
 16 14  1  0
 17 16  1  0
 17 18  1  0
 18 20  1  0
 19 18  2  0
M  END
$$$$
