FIA.pdb
     RDKit          3D

 25 25  0  0  1  0  0  0  0  0999 V2000
    5.4792  -17.7021   25.2812 N   0  0  0  0  0  0  0  0  0  0  0  0
    6.2168  -16.4613   25.0550 C   0  0  1  0  0  0  0  0  0  0  0  0
    6.9909  -16.1006   26.3228 C   0  0  0  0  0  0  0  0  0  0  0  0
    7.0391  -14.6278   26.4646 C   0  0  0  0  0  0  0  0  0  0  0  0
    8.2245  -13.9805   26.7408 C   0  0  0  0  0  0  0  0  0  0  0  0
    8.2822  -12.5982   26.8762 C   0  0  0  0  0  0  0  0  0  0  0  0
    7.1046  -11.8894   26.7240 C   0  0  0  0  0  0  0  0  0  0  0  0
    5.9101  -12.5063   26.4489 C   0  0  0  0  0  0  0  0  0  0  0  0
    5.8965  -13.8802   26.3223 C   0  0  0  0  0  0  0  0  0  0  0  0
    7.1698  -16.7089   23.9434 C   0  0  0  0  0  0  0  0  0  0  0  0
    7.6266  -17.8659   23.6887 O   0  0  0  0  0  0  0  0  0  0  0  0
    6.9424  -12.8790   20.0102 C   0  0  0  0  0  0  0  0  0  0  0  0
    6.9617  -14.2715   20.6460 C   0  0  0  0  0  0  0  0  0  0  0  0
    8.3308  -14.5371   21.2021 C   0  0  2  0  0  0  0  0  0  0  0  0
    9.4040  -14.3950   20.1230 C   0  0  0  0  0  0  0  0  0  0  0  0
    8.4995  -15.7944   21.9820 C   0  0  2  0  0  0  0  0  0  0  0  0
    7.5858  -15.6447   23.1439 N   0  0  0  0  0  0  0  0  0  0  0  0
    9.8198  -16.0572   22.5390 C   0  0  0  0  0  0  0  0  0  0  0  0
   10.3551  -15.2757   23.4005 O   0  0  0  0  0  0  0  0  0  0  0  0
   12.3685  -18.8164   22.5187 C   0  0  0  0  0  0  0  0  0  0  0  0
   11.9542  -17.3640   22.7525 C   0  0  2  0  0  0  0  0  0  0  0  0
   10.6161  -17.1743   22.1939 N   0  0  0  0  0  0  0  0  0  0  0  0
   12.9211  -16.5268   22.0061 C   0  0  0  0  0  0  0  0  0  0  0  0
   12.6307  -16.1729   20.8385 O   0  0  0  0  0  0  0  0  0  0  0  0
   14.1324  -16.1181   22.5425 O   0  0  0  0  0  0  0  0  0  0  0  0
  2  1  1  1
  2  3  1  0
  4  3  1  0
  5  4  2  0
  6  5  1  0
  7  6  2  0
  7  8  1  0
  8  9  2  0
  9  4  1  0
 10  2  1  0
 10 17  1  0
 11 10  2  0
 13 12  1  0
 14 16  1  0
 14 13  1  0
 14 15  1  6
 16 17  1  1
 18 16  1  0
 19 18  2  0
 21 20  1  6
 21 23  1  0
 21 22  1  0
 22 18  1  0
 23 25  1  0
 24 23  2  0
M  END
$$$$
