FIA.pdb
     RDKit          3D

 25 25  0  0  1  0  0  0  0  0999 V2000
    5.6116  -19.5390   25.6461 N   0  0  0  0  0  0  0  0  0  0  0  0
    6.5621  -18.6036   26.2429 C   0  0  1  0  0  0  0  0  0  0  0  0
    7.8538  -19.3486   26.5796 C   0  0  0  0  0  0  0  0  0  0  0  0
    8.7147  -18.4824   27.4163 C   0  0  0  0  0  0  0  0  0  0  0  0
   10.0527  -18.7665   27.5883 C   0  0  0  0  0  0  0  0  0  0  0  0
   10.8709  -17.9607   28.3716 C   0  0  0  0  0  0  0  0  0  0  0  0
   10.2955  -16.8582   28.9763 C   0  0  0  0  0  0  0  0  0  0  0  0
    8.9670  -16.5504   28.8233 C   0  0  0  0  0  0  0  0  0  0  0  0
    8.1897  -17.3764   28.0374 C   0  0  0  0  0  0  0  0  0  0  0  0
    6.8428  -17.5522   25.2326 C   0  0  0  0  0  0  0  0  0  0  0  0
    6.9094  -17.8078   23.9906 O   0  0  0  0  0  0  0  0  0  0  0  0
    6.6337  -11.4464   25.6655 C   0  0  0  0  0  0  0  0  0  0  0  0
    6.9854  -12.5899   24.7105 C   0  0  0  0  0  0  0  0  0  0  0  0
    6.8597  -13.8952   25.4419 C   0  0  2  0  0  0  0  0  0  0  0  0
    7.4724  -13.8080   26.8395 C   0  0  0  0  0  0  0  0  0  0  0  0
    7.3192  -15.1114   24.7158 C   0  0  2  0  0  0  0  0  0  0  0  0
    7.0419  -16.2355   25.6468 N   0  0  0  0  0  0  0  0  0  0  0  0
    8.7377  -15.1954   24.3941 C   0  0  0  0  0  0  0  0  0  0  0  0
    9.6179  -15.4430   25.2904 O   0  0  0  0  0  0  0  0  0  0  0  0
   10.5569  -15.5531   21.1133 C   0  0  0  0  0  0  0  0  0  0  0  0
   10.3930  -15.8160   22.6099 C   0  0  2  0  0  0  0  0  0  0  0  0
    9.2658  -15.0198   23.0936 N   0  0  0  0  0  0  0  0  0  0  0  0
   11.6394  -15.3465   23.2571 C   0  0  0  0  0  0  0  0  0  0  0  0
   12.7319  -15.8273   22.8722 O   0  0  0  0  0  0  0  0  0  0  0  0
   11.6500  -14.3990   24.2691 O   0  0  0  0  0  0  0  0  0  0  0  0
  2  1  1  6
  2  3  1  0
  4  3  1  0
  5  4  2  0
  6  5  1  0
  7  6  2  0
  7  8  1  0
  8  9  2  0
  9  4  1  0
 10  2  1  0
 10 17  1  0
 11 10  2  0
 13 12  1  0
 14 16  1  0
 14 13  1  0
 14 15  1  1
 16 17  1  1
 18 16  1  0
 19 18  2  0
 21 20  1  6
 21 23  1  0
 21 22  1  0
 22 18  1  0
 23 25  1  0
 24 23  2  0
M  END
$$$$
