FIA.pdb
     RDKit          3D

 25 25  0  0  1  0  0  0  0  0999 V2000
   10.1394  -16.0392   21.2846 N   0  0  0  0  0  0  0  0  0  0  0  0
    9.2261  -15.1718   22.0251 C   0  0  1  0  0  0  0  0  0  0  0  0
    7.7894  -15.4825   21.6054 C   0  0  0  0  0  0  0  0  0  0  0  0
    7.3613  -14.5140   20.5708 C   0  0  0  0  0  0  0  0  0  0  0  0
    6.9882  -14.9384   19.3133 C   0  0  0  0  0  0  0  0  0  0  0  0
    6.5845  -14.0385   18.3338 C   0  0  0  0  0  0  0  0  0  0  0  0
    6.5694  -12.6956   18.6638 C   0  0  0  0  0  0  0  0  0  0  0  0
    6.9353  -12.2439   19.9068 C   0  0  0  0  0  0  0  0  0  0  0  0
    7.3296  -13.1703   20.8503 C   0  0  0  0  0  0  0  0  0  0  0  0
    9.3997  -15.4749   23.4684 C   0  0  0  0  0  0  0  0  0  0  0  0
   10.2692  -16.3003   23.8866 O   0  0  0  0  0  0  0  0  0  0  0  0
    6.5626  -11.6987   26.2978 C   0  0  0  0  0  0  0  0  0  0  0  0
    7.7302  -12.4585   25.6631 C   0  0  0  0  0  0  0  0  0  0  0  0
    7.9239  -13.7567   26.3921 C   0  0  2  0  0  0  0  0  0  0  0  0
    8.1206  -13.5264   27.8903 C   0  0  0  0  0  0  0  0  0  0  0  0
    8.9505  -14.6831   25.8396 C   0  0  2  0  0  0  0  0  0  0  0  0
    8.5878  -14.8394   24.4074 N   0  0  0  0  0  0  0  0  0  0  0  0
    8.9951  -16.0300   26.3932 C   0  0  0  0  0  0  0  0  0  0  0  0
    7.9432  -16.7537   26.4893 O   0  0  0  0  0  0  0  0  0  0  0  0
   11.3795  -18.7530   26.9860 C   0  0  0  0  0  0  0  0  0  0  0  0
   10.1494  -17.9847   27.4680 C   0  0  2  0  0  0  0  0  0  0  0  0
   10.1747  -16.6539   26.8625 N   0  0  0  0  0  0  0  0  0  0  0  0
   10.2832  -17.8583   28.9374 C   0  0  0  0  0  0  0  0  0  0  0  0
   10.4153  -16.7127   29.4304 O   0  0  0  0  0  0  0  0  0  0  0  0
   10.2686  -18.9512   29.7903 O   0  0  0  0  0  0  0  0  0  0  0  0
  2  1  1  6
  2  3  1  0
  4  3  1  0
  5  4  2  0
  6  5  1  0
  7  6  2  0
  7  8  1  0
  8  9  2  0
  9  4  1  0
 10  2  1  0
 10 17  1  0
 11 10  2  0
 13 12  1  0
 14 16  1  0
 14 13  1  0
 14 15  1  1
 16 17  1  6
 18 16  1  0
 19 18  2  0
 21 20  1  6
 21 23  1  0
 21 22  1  0
 22 18  1  0
 23 25  1  0
 24 23  2  0
M  END
$$$$
