FIA.pdb
     RDKit          3D

 25 25  0  0  1  0  0  0  0  0999 V2000
    5.6531  -17.9768   25.0934 N   0  0  0  0  0  0  0  0  0  0  0  0
    6.2228  -16.6350   24.9946 C   0  0  1  0  0  0  0  0  0  0  0  0
    7.0252  -16.3371   26.2612 C   0  0  0  0  0  0  0  0  0  0  0  0
    7.2016  -14.8733   26.3960 C   0  0  0  0  0  0  0  0  0  0  0  0
    8.4599  -14.3121   26.4418 C   0  0  0  0  0  0  0  0  0  0  0  0
    8.6380  -12.9393   26.5683 C   0  0  0  0  0  0  0  0  0  0  0  0
    7.5050  -12.1503   26.6472 C   0  0  0  0  0  0  0  0  0  0  0  0
    6.2401  -12.6807   26.6042 C   0  0  0  0  0  0  0  0  0  0  0  0
    6.1075  -14.0483   26.4780 C   0  0  0  0  0  0  0  0  0  0  0  0
    7.1281  -16.6237   23.8176 C   0  0  0  0  0  0  0  0  0  0  0  0
    7.7401  -17.6644   23.4247 O   0  0  0  0  0  0  0  0  0  0  0  0
    7.7024  -12.3331   19.4585 C   0  0  0  0  0  0  0  0  0  0  0  0
    8.1299  -13.7514   19.8451 C   0  0  0  0  0  0  0  0  0  0  0  0
    7.6361  -14.0511   21.2311 C   0  0  2  0  0  0  0  0  0  0  0  0
    7.9284  -12.8935   22.1854 C   0  0  0  0  0  0  0  0  0  0  0  0
    8.0436  -15.3594   21.8139 C   0  0  2  0  0  0  0  0  0  0  0  0
    7.3222  -15.4376   23.1103 N   0  0  0  0  0  0  0  0  0  0  0  0
    9.4556  -15.5347   22.1274 C   0  0  0  0  0  0  0  0  0  0  0  0
   10.3501  -15.5646   21.2117 O   0  0  0  0  0  0  0  0  0  0  0  0
   11.7335  -15.0508   24.9691 C   0  0  0  0  0  0  0  0  0  0  0  0
   11.3946  -15.8271   23.6970 C   0  0  2  0  0  0  0  0  0  0  0  0
    9.9624  -15.6812   23.4399 N   0  0  0  0  0  0  0  0  0  0  0  0
   11.7006  -17.2483   23.9790 C   0  0  0  0  0  0  0  0  0  0  0  0
   10.7670  -18.0839   23.9258 O   0  0  0  0  0  0  0  0  0  0  0  0
   12.9739  -17.6938   24.2989 O   0  0  0  0  0  0  0  0  0  0  0  0
  2  1  1  1
  2  3  1  0
  4  3  1  0
  5  4  2  0
  6  5  1  0
  7  6  2  0
  7  8  1  0
  8  9  2  0
  9  4  1  0
 10  2  1  0
 10 17  1  0
 11 10  2  0
 13 12  1  0
 14 16  1  0
 14 13  1  0
 14 15  1  1
 16 17  1  1
 18 16  1  0
 19 18  2  0
 21 20  1  1
 21 23  1  0
 21 22  1  0
 22 18  1  0
 23 25  1  0
 24 23  2  0
M  END
$$$$
