FIA.pdb
     RDKit          3D

 25 25  0  0  1  0  0  0  0  0999 V2000
    5.4801  -17.3833   25.5062 N   0  0  0  0  0  0  0  0  0  0  0  0
    6.3064  -16.2072   25.2441 C   0  0  1  0  0  0  0  0  0  0  0  0
    7.1101  -15.8699   26.4999 C   0  0  0  0  0  0  0  0  0  0  0  0
    7.2248  -14.3994   26.6275 C   0  0  0  0  0  0  0  0  0  0  0  0
    8.4499  -13.7980   26.8222 C   0  0  0  0  0  0  0  0  0  0  0  0
    8.5699  -12.4184   26.9435 C   0  0  0  0  0  0  0  0  0  0  0  0
    7.4135  -11.6645   26.8620 C   0  0  0  0  0  0  0  0  0  0  0  0
    6.1806  -12.2352   26.6687 C   0  0  0  0  0  0  0  0  0  0  0  0
    6.1054  -13.6082   26.5533 C   0  0  0  0  0  0  0  0  0  0  0  0
    7.2339  -16.5551   24.1379 C   0  0  0  0  0  0  0  0  0  0  0  0
    7.6002  -17.7497   23.9124 O   0  0  0  0  0  0  0  0  0  0  0  0
    7.0756  -13.0649   19.9936 C   0  0  0  0  0  0  0  0  0  0  0  0
    7.1058  -14.3907   20.7583 C   0  0  0  0  0  0  0  0  0  0  0  0
    8.4934  -14.6219   21.2833 C   0  0  2  0  0  0  0  0  0  0  0  0
    9.5204  -14.6247   20.1512 C   0  0  0  0  0  0  0  0  0  0  0  0
    8.6750  -15.7873   22.1922 C   0  0  2  0  0  0  0  0  0  0  0  0
    7.7273  -15.5465   23.3108 N   0  0  0  0  0  0  0  0  0  0  0  0
    9.9867  -15.9530   22.8043 C   0  0  0  0  0  0  0  0  0  0  0  0
   10.4597  -15.0929   23.6265 O   0  0  0  0  0  0  0  0  0  0  0  0
   12.5545  -18.6618   23.1503 C   0  0  0  0  0  0  0  0  0  0  0  0
   12.1209  -17.1997   23.2510 C   0  0  2  0  0  0  0  0  0  0  0  0
   10.8412  -17.0533   22.5587 N   0  0  0  0  0  0  0  0  0  0  0  0
   13.1540  -16.4066   22.5462 C   0  0  0  0  0  0  0  0  0  0  0  0
   12.9566  -16.0968   21.3471 O   0  0  0  0  0  0  0  0  0  0  0  0
   14.3287  -15.9924   23.1550 O   0  0  0  0  0  0  0  0  0  0  0  0
  2  1  1  1
  2  3  1  0
  4  3  1  0
  5  4  2  0
  6  5  1  0
  7  6  2  0
  7  8  1  0
  8  9  2  0
  9  4  1  0
 10  2  1  0
 10 17  1  0
 11 10  2  0
 13 12  1  0
 14 16  1  0
 14 13  1  0
 14 15  1  6
 16 17  1  1
 18 16  1  0
 19 18  2  0
 21 20  1  6
 21 23  1  0
 21 22  1  0
 22 18  1  0
 23 25  1  0
 24 23  2  0
M  END
$$$$
