FIA.pdb
     RDKit          3D

 25 25  0  0  1  0  0  0  0  0999 V2000
    5.7851  -17.9398   25.5305 N   0  0  0  0  0  0  0  0  0  0  0  0
    6.3431  -16.6162   25.2631 C   0  0  1  0  0  0  0  0  0  0  0  0
    7.2697  -16.2217   26.4131 C   0  0  0  0  0  0  0  0  0  0  0  0
    7.3673  -14.7459   26.4790 C   0  0  0  0  0  0  0  0  0  0  0  0
    8.5908  -14.1205   26.5899 C   0  0  0  0  0  0  0  0  0  0  0  0
    8.6948  -12.7357   26.6527 C   0  0  0  0  0  0  0  0  0  0  0  0
    7.5241  -12.0016   26.6000 C   0  0  0  0  0  0  0  0  0  0  0  0
    6.2924  -12.5964   26.4898 C   0  0  0  0  0  0  0  0  0  0  0  0
    6.2332  -13.9737   26.4304 C   0  0  0  0  0  0  0  0  0  0  0  0
    7.1246  -16.7110   24.0041 C   0  0  0  0  0  0  0  0  0  0  0  0
    7.5641  -17.8172   23.5621 O   0  0  0  0  0  0  0  0  0  0  0  0
    8.0821  -12.4838   19.6527 C   0  0  0  0  0  0  0  0  0  0  0  0
    7.9154  -13.9865   19.8925 C   0  0  0  0  0  0  0  0  0  0  0  0
    7.5981  -14.2191   21.3416 C   0  0  2  0  0  0  0  0  0  0  0  0
    8.1547  -13.0967   22.2173 C   0  0  0  0  0  0  0  0  0  0  0  0
    7.9363  -15.5619   21.8893 C   0  0  2  0  0  0  0  0  0  0  0  0
    7.3927  -15.5547   23.2719 N   0  0  0  0  0  0  0  0  0  0  0  0
    9.3502  -15.8903   22.0141 C   0  0  0  0  0  0  0  0  0  0  0  0
   10.0511  -16.2448   21.0029 O   0  0  0  0  0  0  0  0  0  0  0  0
   12.1815  -14.7863   23.7634 C   0  0  0  0  0  0  0  0  0  0  0  0
   11.5121  -16.0724   23.2797 C   0  0  2  0  0  0  0  0  0  0  0  0
   10.0681  -15.8467   23.2323 N   0  0  0  0  0  0  0  0  0  0  0  0
   11.8141  -17.1090   24.2932 C   0  0  0  0  0  0  0  0  0  0  0  0
   13.0145  -17.3456   24.5686 O   0  0  0  0  0  0  0  0  0  0  0  0
   10.8274  -17.8282   24.9499 O   0  0  0  0  0  0  0  0  0  0  0  0
  2  1  1  1
  2  3  1  0
  4  3  1  0
  5  4  2  0
  6  5  1  0
  7  6  2  0
  7  8  1  0
  8  9  2  0
  9  4  1  0
 10  2  1  0
 10 17  1  0
 11 10  2  0
 13 12  1  0
 14 16  1  0
 14 13  1  0
 14 15  1  1
 16 17  1  1
 18 16  1  0
 19 18  2  0
 21 20  1  1
 21 23  1  0
 21 22  1  0
 22 18  1  0
 23 25  1  0
 24 23  2  0
M  END
$$$$
