PKY.pdb
     RDKit          3D

 29 30  0  0  1  0  0  0  0  0999 V2000
    7.3963  -19.0655   21.7926 N   0  0  0  0  0  0  0  0  0  0  0  0
    6.0727  -19.3982   21.3442 C   0  0  0  0  0  0  0  0  0  0  0  0
    6.1438  -19.4311   19.8251 C   0  0  0  0  0  0  0  0  0  0  0  0
    7.2377  -18.4551   19.5505 C   0  0  0  0  0  0  0  0  0  0  0  0
    8.1642  -18.5631   20.7084 C   0  0  1  0  0  0  0  0  0  0  0  0
    8.8611  -17.2886   21.0167 C   0  0  0  0  0  0  0  0  0  0  0  0
   10.0198  -17.1173   20.5518 O   0  0  0  0  0  0  0  0  0  0  0  0
    8.3119  -16.2455   21.8009 N   0  0  0  0  0  0  0  0  0  0  0  0
    8.9392  -14.9864   22.0319 C   0  0  1  0  0  0  0  0  0  0  0  0
    8.1253  -13.8149   21.5411 C   0  0  0  0  0  0  0  0  0  0  0  0
    7.5764  -14.1020   20.1617 C   0  0  0  0  0  0  0  0  0  0  0  0
    8.3969  -13.2720   19.1931 C   0  0  0  0  0  0  0  0  0  0  0  0
    7.8009  -13.4087   17.7999 C   0  0  0  0  0  0  0  0  0  0  0  0
    8.5550  -12.5373   16.9306 N   0  0  0  0  0  0  0  0  0  0  0  0
    9.2729  -14.7849   23.4881 C   0  0  0  0  0  0  0  0  0  0  0  0
    8.9215  -13.6960   24.0080 O   0  0  0  0  0  0  0  0  0  0  0  0
    5.7604  -11.0661   26.7944 O   0  0  0  0  0  0  0  0  0  0  0  0
    6.3634  -12.3207   26.5990 C   0  0  0  0  0  0  0  0  0  0  0  0
    7.7192  -12.4425   26.7153 C   0  0  0  0  0  0  0  0  0  0  0  0
    8.3466  -13.6765   26.5269 C   0  0  0  0  0  0  0  0  0  0  0  0
    7.6266  -14.8070   26.2186 C   0  0  0  0  0  0  0  0  0  0  0  0
    8.3026  -16.0990   26.0106 C   0  0  0  0  0  0  0  0  0  0  0  0
    9.7430  -15.8899   25.6784 C   0  0  2  0  0  0  0  0  0  0  0  0
    9.9423  -15.7555   24.2396 N   0  0  0  0  0  0  0  0  0  0  0  0
   10.6232  -16.9351   26.2360 C   0  0  0  0  0  0  0  0  0  0  0  0
   11.4027  -17.6674   25.3190 O   0  0  0  0  0  0  0  0  0  0  0  0
    6.2426  -14.6509   26.1064 C   0  0  0  0  0  0  0  0  0  0  0  0
    5.6329  -13.4381   26.2927 C   0  0  0  0  0  0  0  0  0  0  0  0
   10.7315  -17.2210   27.4530 O   0  0  0  0  0  0  0  0  0  0  0  0
  1  5  1  0
  2  1  1  0
  3  2  1  0
  3  4  1  0
  4  5  1  0
  5  6  1  1
  6  7  2  0
  8  9  1  0
  8  6  1  0
  9 15  1  0
 10 11  1  0
  9 10  1  1
 11 12  1  0
 13 12  1  0
 14 13  1  0
 15 16  2  0
 15 24  1  0
 17 18  1  0
 18 19  2  0
 18 28  1  0
 19 20  1  0
 20 21  2  0
 21 22  1  0
 23 22  1  6
 23 25  1  0
 24 23  1  0
 25 29  2  0
 25 26  1  0
 27 21  1  0
 28 27  2  0
M  END
$$$$
