PKY.pdb
     RDKit          3D

 29 30  0  0  1  0  0  0  0  0999 V2000
    8.5756  -14.9240   18.6936 N   0  0  0  0  0  0  0  0  0  0  0  0
    7.8958  -14.3234   17.5797 C   0  0  0  0  0  0  0  0  0  0  0  0
    7.6567  -12.8730   17.9708 C   0  0  0  0  0  0  0  0  0  0  0  0
    7.5635  -12.9698   19.4562 C   0  0  0  0  0  0  0  0  0  0  0  0
    8.4656  -14.0886   19.8371 C   0  0  1  0  0  0  0  0  0  0  0  0
    8.0166  -14.8088   21.0558 C   0  0  0  0  0  0  0  0  0  0  0  0
    8.0196  -14.1842   22.1502 O   0  0  0  0  0  0  0  0  0  0  0  0
    7.5825  -16.1563   21.0746 N   0  0  0  0  0  0  0  0  0  0  0  0
    7.1193  -16.8442   22.2342 C   0  0  1  0  0  0  0  0  0  0  0  0
    6.6531  -18.2501   21.9479 C   0  0  0  0  0  0  0  0  0  0  0  0
    6.2415  -18.9352   23.2315 C   0  0  0  0  0  0  0  0  0  0  0  0
    5.8859  -20.3621   22.8603 C   0  0  0  0  0  0  0  0  0  0  0  0
    5.3405  -21.0700   24.0916 C   0  0  0  0  0  0  0  0  0  0  0  0
    5.1385  -22.4525   23.7291 N   0  0  0  0  0  0  0  0  0  0  0  0
    8.1636  -16.8781   23.3207 C   0  0  0  0  0  0  0  0  0  0  0  0
    9.3005  -17.3109   23.0053 O   0  0  0  0  0  0  0  0  0  0  0  0
    5.6292  -10.8959   26.3193 O   0  0  0  0  0  0  0  0  0  0  0  0
    6.5925  -11.8970   26.1055 C   0  0  0  0  0  0  0  0  0  0  0  0
    7.3300  -12.3590   27.1587 C   0  0  0  0  0  0  0  0  0  0  0  0
    8.2943  -13.3534   26.9769 C   0  0  0  0  0  0  0  0  0  0  0  0
    8.5355  -13.9000   25.7381 C   0  0  0  0  0  0  0  0  0  0  0  0
    9.5639  -14.9392   25.5590 C   0  0  0  0  0  0  0  0  0  0  0  0
    8.9513  -16.2994   25.6194 C   0  0  2  0  0  0  0  0  0  0  0  0
    7.8951  -16.4510   24.6247 N   0  0  0  0  0  0  0  0  0  0  0  0
    8.4610  -16.6539   26.9655 C   0  0  0  0  0  0  0  0  0  0  0  0
    9.4281  -16.7867   27.9812 O   0  0  0  0  0  0  0  0  0  0  0  0
    7.7659  -13.4074   24.6810 C   0  0  0  0  0  0  0  0  0  0  0  0
    6.8213  -12.4322   24.8656 C   0  0  0  0  0  0  0  0  0  0  0  0
    7.2599  -16.8451   27.2746 O   0  0  0  0  0  0  0  0  0  0  0  0
  1  5  1  0
  2  1  1  0
  3  2  1  0
  3  4  1  0
  4  5  1  0
  5  6  1  1
  6  7  2  0
  8  9  1  0
  8  6  1  0
  9 15  1  0
 10 11  1  0
  9 10  1  6
 11 12  1  0
 13 12  1  0
 14 13  1  0
 15 16  2  0
 15 24  1  0
 17 18  1  0
 18 19  2  0
 18 28  1  0
 19 20  1  0
 20 21  2  0
 21 22  1  0
 23 22  1  1
 23 25  1  0
 24 23  1  0
 25 29  2  0
 25 26  1  0
 27 21  1  0
 28 27  2  0
M  END
$$$$
