PKY.pdb
     RDKit          3D

 29 30  0  0  1  0  0  0  0  0999 V2000
    9.0899  -14.4491   19.0556 N   0  0  0  0  0  0  0  0  0  0  0  0
    8.4958  -13.8979   17.8696 C   0  0  0  0  0  0  0  0  0  0  0  0
    7.8388  -12.5953   18.2998 C   0  0  0  0  0  0  0  0  0  0  0  0
    7.5053  -12.8790   19.7256 C   0  0  0  0  0  0  0  0  0  0  0  0
    8.5719  -13.7968   20.2061 C   0  0  1  0  0  0  0  0  0  0  0  0
    8.1021  -14.7345   21.2575 C   0  0  0  0  0  0  0  0  0  0  0  0
    7.5448  -14.2511   22.2791 O   0  0  0  0  0  0  0  0  0  0  0  0
    8.2371  -16.1424   21.1924 N   0  0  0  0  0  0  0  0  0  0  0  0
    7.7715  -17.0499   22.1884 C   0  0  1  0  0  0  0  0  0  0  0  0
    7.8783  -18.4967   21.7746 C   0  0  0  0  0  0  0  0  0  0  0  0
    7.2224  -19.3849   22.8077 C   0  0  0  0  0  0  0  0  0  0  0  0
    7.4461  -20.8130   22.3486 C   0  0  0  0  0  0  0  0  0  0  0  0
    6.7168  -21.7546   23.2953 C   0  0  0  0  0  0  0  0  0  0  0  0
    7.0341  -23.1002   22.8800 N   0  0  0  0  0  0  0  0  0  0  0  0
    8.4842  -16.8545   23.5023 C   0  0  0  0  0  0  0  0  0  0  0  0
    9.7396  -16.8077   23.4683 O   0  0  0  0  0  0  0  0  0  0  0  0
    6.2013  -10.4277   25.3391 O   0  0  0  0  0  0  0  0  0  0  0  0
    6.5551  -11.7335   25.7204 C   0  0  0  0  0  0  0  0  0  0  0  0
    5.5924  -12.5844   26.1852 C   0  0  0  0  0  0  0  0  0  0  0  0
    5.9140  -13.8879   26.5713 C   0  0  0  0  0  0  0  0  0  0  0  0
    7.2039  -14.3595   26.4987 C   0  0  0  0  0  0  0  0  0  0  0  0
    7.5305  -15.7323   26.9208 C   0  0  0  0  0  0  0  0  0  0  0  0
    8.4717  -16.3690   25.9525 C   0  0  2  0  0  0  0  0  0  0  0  0
    7.7943  -16.7295   24.7119 N   0  0  0  0  0  0  0  0  0  0  0  0
    9.1864  -17.5297   26.5180 C   0  0  0  0  0  0  0  0  0  0  0  0
   10.0337  -17.2830   27.6162 O   0  0  0  0  0  0  0  0  0  0  0  0
    8.1659  -13.4665   26.0197 C   0  0  0  0  0  0  0  0  0  0  0  0
    7.8444  -12.1892   25.6422 C   0  0  0  0  0  0  0  0  0  0  0  0
    9.0998  -18.7102   26.1013 O   0  0  0  0  0  0  0  0  0  0  0  0
  1  5  1  0
  2  1  1  0
  3  2  1  0
  3  4  1  0
  4  5  1  0
  5  6  1  1
  6  7  2  0
  8  9  1  0
  8  6  1  0
  9 15  1  0
 10 11  1  0
  9 10  1  6
 11 12  1  0
 13 12  1  0
 14 13  1  0
 15 16  2  0
 15 24  1  0
 17 18  1  0
 18 19  2  0
 18 28  1  0
 19 20  1  0
 20 21  2  0
 21 22  1  0
 23 22  1  1
 23 25  1  0
 24 23  1  0
 25 29  2  0
 25 26  1  0
 27 21  1  0
 28 27  2  0
M  END
$$$$
