PKY.pdb
     RDKit          3D

 29 30  0  0  1  0  0  0  0  0999 V2000
    9.0229  -14.1568   17.8500 N   0  0  0  0  0  0  0  0  0  0  0  0
    8.1177  -13.8372   16.7813 C   0  0  0  0  0  0  0  0  0  0  0  0
    7.2284  -12.7216   17.3086 C   0  0  0  0  0  0  0  0  0  0  0  0
    7.2217  -13.0043   18.7730 C   0  0  0  0  0  0  0  0  0  0  0  0
    8.5533  -13.5963   19.0677 C   0  0  1  0  0  0  0  0  0  0  0  0
    8.5231  -14.5651   20.1929 C   0  0  0  0  0  0  0  0  0  0  0  0
    8.0715  -14.1736   21.3023 O   0  0  0  0  0  0  0  0  0  0  0  0
    8.9686  -15.9063   20.1063 N   0  0  0  0  0  0  0  0  0  0  0  0
    8.8384  -16.8740   21.1449 C   0  0  1  0  0  0  0  0  0  0  0  0
    9.3430  -18.2409   20.7541 C   0  0  0  0  0  0  0  0  0  0  0  0
    9.0465  -19.2398   21.8498 C   0  0  0  0  0  0  0  0  0  0  0  0
    9.5446  -20.5828   21.3511 C   0  0  0  0  0  0  0  0  0  0  0  0
    8.4585  -21.2264   20.5020 C   0  0  0  0  0  0  0  0  0  0  0  0
    8.9976  -22.4660   19.9954 N   0  0  0  0  0  0  0  0  0  0  0  0
    9.5266  -16.4332   22.4116 C   0  0  0  0  0  0  0  0  0  0  0  0
   10.7325  -16.0924   22.3161 O   0  0  0  0  0  0  0  0  0  0  0  0
   11.2213  -14.5439   30.8353 O   0  0  0  0  0  0  0  0  0  0  0  0
   10.5768  -14.7310   29.6002 C   0  0  0  0  0  0  0  0  0  0  0  0
   10.0417  -15.9510   29.2970 C   0  0  0  0  0  0  0  0  0  0  0  0
    9.3951  -16.1667   28.0775 C   0  0  0  0  0  0  0  0  0  0  0  0
    9.2747  -15.1650   27.1429 C   0  0  0  0  0  0  0  0  0  0  0  0
    8.6011  -15.4102   25.8561 C   0  0  0  0  0  0  0  0  0  0  0  0
    9.5500  -16.0130   24.8737 C   0  0  2  0  0  0  0  0  0  0  0  0
    8.8672  -16.3996   23.6440 N   0  0  0  0  0  0  0  0  0  0  0  0
   10.3155  -17.1460   25.4289 C   0  0  0  0  0  0  0  0  0  0  0  0
   11.6189  -16.8708   25.8870 O   0  0  0  0  0  0  0  0  0  0  0  0
    9.8316  -13.9291   27.4815 C   0  0  0  0  0  0  0  0  0  0  0  0
   10.4643  -13.7234   28.6794 C   0  0  0  0  0  0  0  0  0  0  0  0
    9.9003  -18.3264   25.5245 O   0  0  0  0  0  0  0  0  0  0  0  0
  1  5  1  0
  2  1  1  0
  3  2  1  0
  3  4  1  0
  4  5  1  0
  5  6  1  1
  6  7  2  0
  8  9  1  0
  8  6  1  0
  9 15  1  0
 10 11  1  0
  9 10  1  6
 11 12  1  0
 13 12  1  0
 14 13  1  0
 15 16  2  0
 15 24  1  0
 17 18  1  0
 18 19  2  0
 18 28  1  0
 19 20  1  0
 20 21  2  0
 21 22  1  0
 23 22  1  1
 23 25  1  0
 24 23  1  0
 25 29  2  0
 25 26  1  0
 27 21  1  0
 28 27  2  0
M  END
$$$$
