PKY.pdb
     RDKit          3D

 29 30  0  0  1  0  0  0  0  0999 V2000
    9.0287  -14.6954   19.3956 N   0  0  0  0  0  0  0  0  0  0  0  0
    8.4844  -14.2707   18.1359 C   0  0  0  0  0  0  0  0  0  0  0  0
    7.7787  -12.9516   18.4108 C   0  0  0  0  0  0  0  0  0  0  0  0
    7.3789  -13.1122   19.8388 C   0  0  0  0  0  0  0  0  0  0  0  0
    8.4388  -13.9542   20.4540 C   0  0  1  0  0  0  0  0  0  0  0  0
    7.9360  -14.8036   21.5635 C   0  0  0  0  0  0  0  0  0  0  0  0
    7.3964  -14.2347   22.5499 O   0  0  0  0  0  0  0  0  0  0  0  0
    8.0206  -16.2167   21.5911 N   0  0  0  0  0  0  0  0  0  0  0  0
    7.5687  -17.0365   22.6662 C   0  0  1  0  0  0  0  0  0  0  0  0
    7.6136  -18.5114   22.3521 C   0  0  0  0  0  0  0  0  0  0  0  0
    6.9890  -19.3042   23.4780 C   0  0  0  0  0  0  0  0  0  0  0  0
    7.0093  -20.7566   23.0415 C   0  0  0  0  0  0  0  0  0  0  0  0
    6.4422  -21.6155   24.1620 C   0  0  0  0  0  0  0  0  0  0  0  0
    5.0775  -21.9249   23.8076 N   0  0  0  0  0  0  0  0  0  0  0  0
    8.3406  -16.7744   23.9342 C   0  0  0  0  0  0  0  0  0  0  0  0
    9.5896  -16.6797   23.8318 O   0  0  0  0  0  0  0  0  0  0  0  0
    6.1790  -10.4340   25.6124 O   0  0  0  0  0  0  0  0  0  0  0  0
    6.5006  -11.7304   26.0501 C   0  0  0  0  0  0  0  0  0  0  0  0
    7.7476  -11.9843   26.5471 C   0  0  0  0  0  0  0  0  0  0  0  0
    8.0960  -13.2627   26.9898 C   0  0  0  0  0  0  0  0  0  0  0  0
    7.2018  -14.3065   26.9413 C   0  0  0  0  0  0  0  0  0  0  0  0
    7.5869  -15.6522   27.4002 C   0  0  0  0  0  0  0  0  0  0  0  0
    8.4557  -16.3229   26.3882 C   0  0  2  0  0  0  0  0  0  0  0  0
    7.7105  -16.6403   25.1751 N   0  0  0  0  0  0  0  0  0  0  0  0
    9.1386  -17.5206   26.9146 C   0  0  0  0  0  0  0  0  0  0  0  0
   10.1023  -17.3138   27.9211 O   0  0  0  0  0  0  0  0  0  0  0  0
    5.9350  -14.0161   26.4283 C   0  0  0  0  0  0  0  0  0  0  0  0
    5.5990  -12.7601   25.9958 C   0  0  0  0  0  0  0  0  0  0  0  0
    8.9303  -18.6999   26.5395 O   0  0  0  0  0  0  0  0  0  0  0  0
  1  5  1  0
  2  1  1  0
  3  2  1  0
  3  4  1  0
  4  5  1  0
  5  6  1  1
  6  7  2  0
  8  9  1  0
  8  6  1  0
  9 15  1  0
 10 11  1  0
  9 10  1  6
 11 12  1  0
 13 12  1  0
 14 13  1  0
 15 16  2  0
 15 24  1  0
 17 18  1  0
 18 19  2  0
 18 28  1  0
 19 20  1  0
 20 21  2  0
 21 22  1  0
 23 22  1  1
 23 25  1  0
 24 23  1  0
 25 29  2  0
 25 26  1  0
 27 21  1  0
 28 27  2  0
M  END
$$$$
