PKY.pdb
     RDKit          3D

 29 30  0  0  1  0  0  0  0  0999 V2000
    8.9954  -14.2749   19.3722 N   0  0  0  0  0  0  0  0  0  0  0  0
    8.3318  -13.8253   18.1802 C   0  0  0  0  0  0  0  0  0  0  0  0
    7.4924  -12.6274   18.5976 C   0  0  0  0  0  0  0  0  0  0  0  0
    7.1987  -12.9443   20.0251 C   0  0  0  0  0  0  0  0  0  0  0  0
    8.3849  -13.6945   20.5159 C   0  0  1  0  0  0  0  0  0  0  0  0
    8.0520  -14.6813   21.5745 C   0  0  0  0  0  0  0  0  0  0  0  0
    7.4994  -14.2610   22.6262 O   0  0  0  0  0  0  0  0  0  0  0  0
    8.3131  -16.0700   21.4848 N   0  0  0  0  0  0  0  0  0  0  0  0
    7.9624  -17.0283   22.4802 C   0  0  1  0  0  0  0  0  0  0  0  0
    8.1911  -18.4540   22.0432 C   0  0  0  0  0  0  0  0  0  0  0  0
    7.6113  -19.4111   23.0602 C   0  0  0  0  0  0  0  0  0  0  0  0
    7.9223  -20.8084   22.5590 C   0  0  0  0  0  0  0  0  0  0  0  0
    7.3467  -21.8218   23.5370 C   0  0  0  0  0  0  0  0  0  0  0  0
    7.6569  -23.1327   23.0182 N   0  0  0  0  0  0  0  0  0  0  0  0
    8.6913  -16.7827   23.7767 C   0  0  0  0  0  0  0  0  0  0  0  0
    9.9322  -16.5960   23.7064 O   0  0  0  0  0  0  0  0  0  0  0  0
    6.6335  -10.4438   25.6883 O   0  0  0  0  0  0  0  0  0  0  0  0
    6.9523  -11.7574   26.0739 C   0  0  0  0  0  0  0  0  0  0  0  0
    5.9999  -12.7336   25.9935 C   0  0  0  0  0  0  0  0  0  0  0  0
    6.2876  -14.0481   26.3694 C   0  0  0  0  0  0  0  0  0  0  0  0
    7.5326  -14.4052   26.8319 C   0  0  0  0  0  0  0  0  0  0  0  0
    7.8182  -15.7925   27.2363 C   0  0  0  0  0  0  0  0  0  0  0  0
    8.7286  -16.4490   26.2519 C   0  0  2  0  0  0  0  0  0  0  0  0
    8.0313  -16.7605   25.0090 N   0  0  0  0  0  0  0  0  0  0  0  0
    9.3991  -17.6470   26.7933 C   0  0  0  0  0  0  0  0  0  0  0  0
    8.8970  -18.8979   26.3838 O   0  0  0  0  0  0  0  0  0  0  0  0
    8.4852  -13.3855   26.9028 C   0  0  0  0  0  0  0  0  0  0  0  0
    8.1972  -12.0981   26.5323 C   0  0  0  0  0  0  0  0  0  0  0  0
   10.3739  -17.6397   27.5836 O   0  0  0  0  0  0  0  0  0  0  0  0
  1  5  1  0
  2  1  1  0
  3  2  1  0
  3  4  1  0
  4  5  1  0
  5  6  1  1
  6  7  2  0
  8  9  1  0
  8  6  1  0
  9 15  1  0
 10 11  1  0
  9 10  1  6
 11 12  1  0
 13 12  1  0
 14 13  1  0
 15 16  2  0
 15 24  1  0
 17 18  1  0
 18 19  2  0
 18 28  1  0
 19 20  1  0
 20 21  2  0
 21 22  1  0
 23 22  1  1
 23 25  1  0
 24 23  1  0
 25 29  2  0
 25 26  1  0
 27 21  1  0
 28 27  2  0
M  END
$$$$
