PKY.pdb
     RDKit          3D

 29 30  0  0  1  0  0  0  0  0999 V2000
    8.9749  -14.3521   17.9869 N   0  0  0  0  0  0  0  0  0  0  0  0
    8.3467  -13.7687   16.8342 C   0  0  0  0  0  0  0  0  0  0  0  0
    7.8859  -12.3851   17.2668 C   0  0  0  0  0  0  0  0  0  0  0  0
    7.6485  -12.5858   18.7255 C   0  0  0  0  0  0  0  0  0  0  0  0
    8.6393  -13.6098   19.1504 C   0  0  1  0  0  0  0  0  0  0  0  0
    8.1582  -14.4540   20.2734 C   0  0  0  0  0  0  0  0  0  0  0  0
    7.7413  -13.8780   21.3137 O   0  0  0  0  0  0  0  0  0  0  0  0
    8.1346  -15.8696   20.2572 N   0  0  0  0  0  0  0  0  0  0  0  0
    7.7508  -16.6881   21.3595 C   0  0  1  0  0  0  0  0  0  0  0  0
    7.7501  -18.1618   21.0371 C   0  0  0  0  0  0  0  0  0  0  0  0
    6.7229  -18.4619   19.9686 C   0  0  0  0  0  0  0  0  0  0  0  0
    6.8808  -19.9303   19.6233 C   0  0  0  0  0  0  0  0  0  0  0  0
    5.8504  -20.3014   18.5673 C   0  0  0  0  0  0  0  0  0  0  0  0
    6.0072  -21.7115   18.3014 N   0  0  0  0  0  0  0  0  0  0  0  0
    8.6181  -16.4439   22.5681 C   0  0  0  0  0  0  0  0  0  0  0  0
    9.8621  -16.4862   22.3948 O   0  0  0  0  0  0  0  0  0  0  0  0
   11.4107  -14.4428   30.6794 O   0  0  0  0  0  0  0  0  0  0  0  0
   10.6027  -14.6685   29.5516 C   0  0  0  0  0  0  0  0  0  0  0  0
   10.4458  -13.6766   28.6252 C   0  0  0  0  0  0  0  0  0  0  0  0
    9.6493  -13.8719   27.4942 C   0  0  0  0  0  0  0  0  0  0  0  0
    8.9973  -15.0626   27.2735 C   0  0  0  0  0  0  0  0  0  0  0  0
    8.1508  -15.2502   26.0827 C   0  0  0  0  0  0  0  0  0  0  0  0
    8.9225  -15.9126   24.9897 C   0  0  2  0  0  0  0  0  0  0  0  0
    8.0783  -16.1811   23.8308 N   0  0  0  0  0  0  0  0  0  0  0  0
    9.6150  -17.1388   25.4314 C   0  0  0  0  0  0  0  0  0  0  0  0
    8.8957  -18.3463   25.3360 O   0  0  0  0  0  0  0  0  0  0  0  0
    9.1770  -16.0575   28.2380 C   0  0  0  0  0  0  0  0  0  0  0  0
    9.9598  -15.8601   29.3451 C   0  0  0  0  0  0  0  0  0  0  0  0
   10.7852  -17.1905   25.8817 O   0  0  0  0  0  0  0  0  0  0  0  0
  1  5  1  0
  2  1  1  0
  3  2  1  0
  3  4  1  0
  4  5  1  0
  5  6  1  1
  6  7  2  0
  8  9  1  0
  8  6  1  0
  9 15  1  0
 10 11  1  0
  9 10  1  6
 11 12  1  0
 13 12  1  0
 14 13  1  0
 15 16  2  0
 15 24  1  0
 17 18  1  0
 18 19  2  0
 18 28  1  0
 19 20  1  0
 20 21  2  0
 21 22  1  0
 23 22  1  1
 23 25  1  0
 24 23  1  0
 25 29  2  0
 25 26  1  0
 27 21  1  0
 28 27  2  0
M  END
$$$$
