PKY.pdb
     RDKit          3D

 29 30  0  0  1  0  0  0  0  0999 V2000
    9.2620  -14.1899   18.0598 N   0  0  0  0  0  0  0  0  0  0  0  0
    8.6211  -13.8337   16.8245 C   0  0  0  0  0  0  0  0  0  0  0  0
    7.6437  -12.7202   17.1685 C   0  0  0  0  0  0  0  0  0  0  0  0
    7.3076  -13.0377   18.5866 C   0  0  0  0  0  0  0  0  0  0  0  0
    8.5356  -13.6530   19.1559 C   0  0  1  0  0  0  0  0  0  0  0  0
    8.2479  -14.6480   20.2202 C   0  0  0  0  0  0  0  0  0  0  0  0
    7.6361  -14.2566   21.2500 O   0  0  0  0  0  0  0  0  0  0  0  0
    8.6148  -16.0141   20.1588 N   0  0  0  0  0  0  0  0  0  0  0  0
    8.4765  -16.9412   21.2328 C   0  0  1  0  0  0  0  0  0  0  0  0
    8.9245  -18.3373   20.8778 C   0  0  0  0  0  0  0  0  0  0  0  0
    8.5531  -19.3014   21.9819 C   0  0  0  0  0  0  0  0  0  0  0  0
    8.9898  -20.6766   21.5144 C   0  0  0  0  0  0  0  0  0  0  0  0
    8.5904  -21.7033   22.5638 C   0  0  0  0  0  0  0  0  0  0  0  0
    8.9310  -23.0024   22.0346 N   0  0  0  0  0  0  0  0  0  0  0  0
    9.2096  -16.4826   22.4675 C   0  0  0  0  0  0  0  0  0  0  0  0
   10.4290  -16.2079   22.3373 O   0  0  0  0  0  0  0  0  0  0  0  0
   11.1422  -14.1389   30.7408 O   0  0  0  0  0  0  0  0  0  0  0  0
   10.4525  -14.5023   29.5711 C   0  0  0  0  0  0  0  0  0  0  0  0
   10.1319  -13.5435   28.6521 C   0  0  0  0  0  0  0  0  0  0  0  0
    9.4471  -13.8746   27.4803 C   0  0  0  0  0  0  0  0  0  0  0  0
    9.0723  -15.1701   27.2108 C   0  0  0  0  0  0  0  0  0  0  0  0
    8.3399  -15.5028   25.9769 C   0  0  0  0  0  0  0  0  0  0  0  0
    9.2880  -15.9079   24.8971 C   0  0  2  0  0  0  0  0  0  0  0  0
    8.5760  -16.3632   23.7082 N   0  0  0  0  0  0  0  0  0  0  0  0
   10.2721  -16.9151   25.3389 C   0  0  0  0  0  0  0  0  0  0  0  0
    9.8438  -18.2570   25.3617 O   0  0  0  0  0  0  0  0  0  0  0  0
    9.4141  -16.1280   28.1689 C   0  0  0  0  0  0  0  0  0  0  0  0
   10.0861  -15.7972   29.3163 C   0  0  0  0  0  0  0  0  0  0  0  0
   11.4513  -16.6727   25.6932 O   0  0  0  0  0  0  0  0  0  0  0  0
  1  5  1  0
  2  1  1  0
  3  2  1  0
  3  4  1  0
  4  5  1  0
  5  6  1  1
  6  7  2  0
  8  9  1  0
  8  6  1  0
  9 15  1  0
 10 11  1  0
  9 10  1  6
 11 12  1  0
 13 12  1  0
 14 13  1  0
 15 16  2  0
 15 24  1  0
 17 18  1  0
 18 19  2  0
 18 28  1  0
 19 20  1  0
 20 21  2  0
 21 22  1  0
 23 22  1  1
 23 25  1  0
 24 23  1  0
 25 29  2  0
 25 26  1  0
 27 21  1  0
 28 27  2  0
M  END
$$$$
