HIN.pdb
     RDKit          3D

 27 27  0  0  1  0  0  0  0  0999 V2000
   10.0826  -14.1292   20.6872 N   0  0  0  0  0  0  0  0  0  0  0  0
    8.7865  -14.1235   21.3251 C   0  0  1  0  0  0  0  0  0  0  0  0
    7.9387  -15.1640   20.6273 C   0  0  0  0  0  0  0  0  0  0  0  0
    7.7304  -14.7089   19.2279 C   0  0  0  0  0  0  0  0  0  0  0  0
    8.2857  -13.5761   18.6257 C   0  0  0  0  0  0  0  0  0  0  0  0
    7.8757  -13.4854   17.3582 N   0  0  0  0  0  0  0  0  0  0  0  0
    7.0663  -14.5381   17.1308 C   0  0  0  0  0  0  0  0  0  0  0  0
    6.9826  -15.2687   18.2553 N   0  0  0  0  0  0  0  0  0  0  0  0
    8.8946  -14.4015   22.7842 C   0  0  0  0  0  0  0  0  0  0  0  0
    9.9580  -14.9265   23.2004 O   0  0  0  0  0  0  0  0  0  0  0  0
    6.1212  -11.0378   26.2423 C   0  0  0  0  0  0  0  0  0  0  0  0
    7.1858  -11.8640   25.6499 C   0  0  0  0  0  0  0  0  0  0  0  0
    7.1464  -13.3416   25.8859 C   0  0  2  0  0  0  0  0  0  0  0  0
    7.3895  -13.5180   27.3706 C   0  0  0  0  0  0  0  0  0  0  0  0
    8.1588  -14.1544   25.1287 C   0  0  2  0  0  0  0  0  0  0  0  0
    7.8731  -14.1042   23.6900 N   0  0  0  0  0  0  0  0  0  0  0  0
    7.9375  -15.5860   25.4872 C   0  0  0  0  0  0  0  0  0  0  0  0
    7.0570  -16.2642   24.8391 O   0  0  0  0  0  0  0  0  0  0  0  0
   10.5818  -19.9840   25.7484 N   0  0  0  0  0  0  0  0  0  0  0  0
   10.8656  -18.8643   24.9204 C   0  0  0  0  0  0  0  0  0  0  0  0
   11.6974  -19.0107   24.0023 O   0  0  0  0  0  0  0  0  0  0  0  0
   10.2146  -17.5456   25.1088 C   0  0  0  0  0  0  0  0  0  0  0  0
    9.1877  -17.6182   26.2151 C   0  0  2  0  0  0  0  0  0  0  0  0
    8.6128  -16.3066   26.4895 N   0  0  0  0  0  0  0  0  0  0  0  0
    9.9019  -18.1546   27.4135 C   0  0  0  0  0  0  0  0  0  0  0  0
   10.0763  -19.3973   27.4648 O   0  0  0  0  0  0  0  0  0  0  0  0
   10.3738  -17.3819   28.4500 O   0  0  0  0  0  0  0  0  0  0  0  0
  2  1  1  6
  3  2  1  0
  4  3  1  0
  5  4  2  0
  6  7  1  0
  6  5  1  0
  7  8  2  0
  8  4  1  0
  9 16  1  0
  9  2  1  0
 10  9  2  0
 11 12  1  0
 13 15  1  0
 13 12  1  0
 13 14  1  1
 15 16  1  6
 17 18  2  0
 17 15  1  0
 20 19  1  0
 20 21  2  0
 23 22  1  6
 22 20  1  0
 23 24  1  0
 24 17  1  0
 25 23  1  0
 26 25  2  0
 27 25  1  0
M  END
$$$$
