HIN.pdb
     RDKit          3D

 27 27  0  0  1  0  0  0  0  0999 V2000
    8.6287  -15.5583   20.3455 N   0  0  0  0  0  0  0  0  0  0  0  0
    8.0002  -15.9056   21.5990 C   0  0  1  0  0  0  0  0  0  0  0  0
    8.1442  -17.4014   21.7735 C   0  0  0  0  0  0  0  0  0  0  0  0
    7.2729  -18.0574   20.7638 C   0  0  0  0  0  0  0  0  0  0  0  0
    6.6787  -17.4521   19.6526 C   0  0  0  0  0  0  0  0  0  0  0  0
    5.9647  -18.3509   18.9704 N   0  0  0  0  0  0  0  0  0  0  0  0
    6.0868  -19.5248   19.6201 C   0  0  0  0  0  0  0  0  0  0  0  0
    6.8724  -19.3432   20.6950 N   0  0  0  0  0  0  0  0  0  0  0  0
    8.6089  -15.1654   22.7390 C   0  0  0  0  0  0  0  0  0  0  0  0
    9.8417  -14.9261   22.6868 O   0  0  0  0  0  0  0  0  0  0  0  0
    5.7498  -11.4814   25.8021 C   0  0  0  0  0  0  0  0  0  0  0  0
    6.8639  -12.1313   25.0926 C   0  0  0  0  0  0  0  0  0  0  0  0
    7.5602  -13.2723   25.7663 C   0  0  2  0  0  0  0  0  0  0  0  0
    8.2799  -12.6608   26.9507 C   0  0  0  0  0  0  0  0  0  0  0  0
    8.5569  -14.0209   24.9268 C   0  0  2  0  0  0  0  0  0  0  0  0
    7.8703  -14.7357   23.8443 N   0  0  0  0  0  0  0  0  0  0  0  0
    9.1212  -15.1122   25.7739 C   0  0  0  0  0  0  0  0  0  0  0  0
    8.3242  -15.9847   26.2827 O   0  0  0  0  0  0  0  0  0  0  0  0
   10.0328  -15.0433   30.4093 N   0  0  0  0  0  0  0  0  0  0  0  0
   10.4389  -15.1914   29.0554 C   0  0  0  0  0  0  0  0  0  0  0  0
   11.0910  -14.2641   28.5347 O   0  0  0  0  0  0  0  0  0  0  0  0
   10.1177  -16.3952   28.2518 C   0  0  0  0  0  0  0  0  0  0  0  0
   10.9034  -16.3920   26.9609 C   0  0  2  0  0  0  0  0  0  0  0  0
   10.4795  -15.3045   26.0869 N   0  0  0  0  0  0  0  0  0  0  0  0
   10.6625  -17.7215   26.3219 C   0  0  0  0  0  0  0  0  0  0  0  0
   10.9836  -18.7393   26.9841 O   0  0  0  0  0  0  0  0  0  0  0  0
   10.1182  -17.8973   25.0701 O   0  0  0  0  0  0  0  0  0  0  0  0
  2  1  1  6
  3  2  1  0
  4  3  1  0
  5  4  2  0
  6  7  1  0
  6  5  1  0
  7  8  2  0
  8  4  1  0
  9 16  1  0
  9  2  1  0
 10  9  2  0
 11 12  1  0
 13 15  1  0
 13 12  1  0
 13 14  1  1
 15 16  1  6
 17 18  2  0
 17 15  1  0
 20 19  1  0
 20 21  2  0
 23 22  1  1
 22 20  1  0
 23 24  1  0
 24 17  1  0
 25 23  1  0
 26 25  2  0
 27 25  1  0
M  END
$$$$
