HIN.pdb
     RDKit          3D

 27 27  0  0  1  0  0  0  0  0999 V2000
   10.0908  -14.2445   20.5287 N   0  0  0  0  0  0  0  0  0  0  0  0
    8.8061  -14.1467   21.1823 C   0  0  1  0  0  0  0  0  0  0  0  0
    7.8959  -15.1683   20.5372 C   0  0  0  0  0  0  0  0  0  0  0  0
    7.6750  -14.7476   19.1290 C   0  0  0  0  0  0  0  0  0  0  0  0
    8.3225  -13.7074   18.4558 C   0  0  0  0  0  0  0  0  0  0  0  0
    7.8676  -13.6211   17.2034 N   0  0  0  0  0  0  0  0  0  0  0  0
    6.9388  -14.5858   17.0554 C   0  0  0  0  0  0  0  0  0  0  0  0
    6.8272  -15.2585   18.2132 N   0  0  0  0  0  0  0  0  0  0  0  0
    8.9212  -14.3726   22.6498 C   0  0  0  0  0  0  0  0  0  0  0  0
    9.9962  -14.8597   23.0821 O   0  0  0  0  0  0  0  0  0  0  0  0
    5.8327  -11.1667   25.9730 C   0  0  0  0  0  0  0  0  0  0  0  0
    6.9649  -11.9096   25.3957 C   0  0  0  0  0  0  0  0  0  0  0  0
    7.1070  -13.3594   25.7399 C   0  0  2  0  0  0  0  0  0  0  0  0
    7.4397  -13.3909   27.2173 C   0  0  0  0  0  0  0  0  0  0  0  0
    8.1685  -14.1116   24.9875 C   0  0  2  0  0  0  0  0  0  0  0  0
    7.8940  -14.0672   23.5463 N   0  0  0  0  0  0  0  0  0  0  0  0
    8.0210  -15.5554   25.3348 C   0  0  0  0  0  0  0  0  0  0  0  0
    7.3709  -16.3276   24.5370 O   0  0  0  0  0  0  0  0  0  0  0  0
    9.7870  -19.1742   24.2819 N   0  0  0  0  0  0  0  0  0  0  0  0
   10.6957  -18.0884   24.4048 C   0  0  0  0  0  0  0  0  0  0  0  0
   11.6090  -17.9906   23.5608 O   0  0  0  0  0  0  0  0  0  0  0  0
   10.5957  -17.0813   25.4883 C   0  0  0  0  0  0  0  0  0  0  0  0
    9.3962  -17.3654   26.3625 C   0  0  2  0  0  0  0  0  0  0  0  0
    8.5370  -16.1930   26.4782 N   0  0  0  0  0  0  0  0  0  0  0  0
    9.9372  -17.7702   27.6957 C   0  0  0  0  0  0  0  0  0  0  0  0
   10.2602  -16.8476   28.4843 O   0  0  0  0  0  0  0  0  0  0  0  0
   10.1012  -19.0733   28.1071 O   0  0  0  0  0  0  0  0  0  0  0  0
  2  1  1  6
  3  2  1  0
  4  3  1  0
  5  4  2  0
  6  7  1  0
  6  5  1  0
  7  8  2  0
  8  4  1  0
  9 16  1  0
  9  2  1  0
 10  9  2  0
 11 12  1  0
 13 15  1  0
 13 12  1  0
 13 14  1  1
 15 16  1  6
 17 18  2  0
 17 15  1  0
 20 19  1  0
 20 21  2  0
 23 22  1  6
 22 20  1  0
 23 24  1  0
 24 17  1  0
 25 23  1  0
 26 25  2  0
 27 25  1  0
M  END
$$$$
