HIN.pdb
     RDKit          3D

 27 27  0  0  1  0  0  0  0  0999 V2000
    9.2682  -18.4035   18.1681 N   0  0  0  0  0  0  0  0  0  0  0  0
   10.5753  -17.9256   18.5555 C   0  0  1  0  0  0  0  0  0  0  0  0
   11.2803  -17.4763   17.2947 C   0  0  0  0  0  0  0  0  0  0  0  0
   11.4422  -18.6681   16.4216 C   0  0  0  0  0  0  0  0  0  0  0  0
   11.8544  -19.9441   16.8166 C   0  0  0  0  0  0  0  0  0  0  0  0
   11.8836  -20.7617   15.7613 N   0  0  0  0  0  0  0  0  0  0  0  0
   11.4981  -20.0375   14.6925 C   0  0  0  0  0  0  0  0  0  0  0  0
   11.2345  -18.7826   15.0941 N   0  0  0  0  0  0  0  0  0  0  0  0
   10.4803  -16.8189   19.5476 C   0  0  0  0  0  0  0  0  0  0  0  0
   11.5468  -16.2463   19.8860 O   0  0  0  0  0  0  0  0  0  0  0  0
    7.0709  -12.6055   19.5983 C   0  0  0  0  0  0  0  0  0  0  0  0
    8.2370  -13.4535   19.8948 C   0  0  0  0  0  0  0  0  0  0  0  0
    8.1199  -14.4522   21.0036 C   0  0  2  0  0  0  0  0  0  0  0  0
    7.9711  -13.6325   22.2687 C   0  0  0  0  0  0  0  0  0  0  0  0
    9.2826  -15.3903   21.1674 C   0  0  2  0  0  0  0  0  0  0  0  0
    9.2686  -16.4028   20.1050 N   0  0  0  0  0  0  0  0  0  0  0  0
    9.0470  -16.1769   22.4136 C   0  0  0  0  0  0  0  0  0  0  0  0
    8.0603  -17.0015   22.4557 O   0  0  0  0  0  0  0  0  0  0  0  0
   10.7910  -19.6465   25.7322 N   0  0  0  0  0  0  0  0  0  0  0  0
   11.1789  -19.5286   24.3700 C   0  0  0  0  0  0  0  0  0  0  0  0
   11.8129  -20.4729   23.8577 O   0  0  0  0  0  0  0  0  0  0  0  0
   10.8593  -18.3365   23.5484 C   0  0  0  0  0  0  0  0  0  0  0  0
   10.0939  -17.3225   24.3667 C   0  0  2  0  0  0  0  0  0  0  0  0
    9.8150  -16.1195   23.5912 N   0  0  0  0  0  0  0  0  0  0  0  0
   10.9483  -17.0123   25.5532 C   0  0  0  0  0  0  0  0  0  0  0  0
   11.1797  -17.9540   26.3513 O   0  0  0  0  0  0  0  0  0  0  0  0
   11.4898  -15.7758   25.8217 O   0  0  0  0  0  0  0  0  0  0  0  0
  2  1  1  6
  3  2  1  0
  4  3  1  0
  5  4  2  0
  6  7  1  0
  6  5  1  0
  7  8  2  0
  8  4  1  0
  9 16  1  0
  9  2  1  0
 10  9  2  0
 11 12  1  0
 13 15  1  0
 13 12  1  0
 13 14  1  1
 15 16  1  6
 17 18  2  0
 17 15  1  0
 20 19  1  0
 20 21  2  0
 23 22  1  6
 22 20  1  0
 23 24  1  0
 24 17  1  0
 25 23  1  0
 26 25  2  0
 27 25  1  0
M  END
$$$$
