HIN.pdb
     RDKit          3D

 27 27  0  0  1  0  0  0  0  0999 V2000
    9.9836  -13.5155   20.5766 N   0  0  0  0  0  0  0  0  0  0  0  0
    8.7772  -14.0004   21.2061 C   0  0  1  0  0  0  0  0  0  0  0  0
    8.3509  -15.2451   20.4592 C   0  0  0  0  0  0  0  0  0  0  0  0
    7.9583  -14.8328   19.0864 C   0  0  0  0  0  0  0  0  0  0  0  0
    8.0158  -13.5422   18.5524 C   0  0  0  0  0  0  0  0  0  0  0  0
    7.5824  -13.5508   17.2894 N   0  0  0  0  0  0  0  0  0  0  0  0
    7.2464  -14.8225   16.9981 C   0  0  0  0  0  0  0  0  0  0  0  0
    7.4738  -15.5873   18.0792 N   0  0  0  0  0  0  0  0  0  0  0  0
    8.9912  -14.2825   22.6527 C   0  0  0  0  0  0  0  0  0  0  0  0
   10.1546  -14.5819   23.0223 O   0  0  0  0  0  0  0  0  0  0  0  0
    5.6721  -11.6081   26.2447 C   0  0  0  0  0  0  0  0  0  0  0  0
    6.8708  -12.1774   25.6076 C   0  0  0  0  0  0  0  0  0  0  0  0
    7.1582  -13.6314   25.8167 C   0  0  2  0  0  0  0  0  0  0  0  0
    7.4706  -13.7712   27.2923 C   0  0  0  0  0  0  0  0  0  0  0  0
    8.3034  -14.1948   25.0230 C   0  0  2  0  0  0  0  0  0  0  0  0
    7.9620  -14.2266   23.5959 N   0  0  0  0  0  0  0  0  0  0  0  0
    8.4336  -15.6351   25.3914 C   0  0  0  0  0  0  0  0  0  0  0  0
    7.4112  -16.4066   25.2702 O   0  0  0  0  0  0  0  0  0  0  0  0
   10.1018  -18.2840   23.4108 N   0  0  0  0  0  0  0  0  0  0  0  0
   11.1457  -18.2099   24.3723 C   0  0  0  0  0  0  0  0  0  0  0  0
   12.3089  -18.0255   23.9610 O   0  0  0  0  0  0  0  0  0  0  0  0
   10.9017  -18.3427   25.8287 C   0  0  0  0  0  0  0  0  0  0  0  0
    9.5924  -17.6888   26.2053 C   0  0  2  0  0  0  0  0  0  0  0  0
    9.5947  -16.2697   25.8701 N   0  0  0  0  0  0  0  0  0  0  0  0
    9.4308  -17.8943   27.6769 C   0  0  0  0  0  0  0  0  0  0  0  0
    9.5287  -16.8784   28.4089 O   0  0  0  0  0  0  0  0  0  0  0  0
    9.1847  -19.1109   28.2715 O   0  0  0  0  0  0  0  0  0  0  0  0
  2  1  1  6
  3  2  1  0
  4  3  1  0
  5  4  2  0
  6  7  1  0
  6  5  1  0
  7  8  2  0
  8  4  1  0
  9 16  1  0
  9  2  1  0
 10  9  2  0
 11 12  1  0
 13 15  1  0
 13 12  1  0
 13 14  1  1
 15 16  1  6
 17 18  2  0
 17 15  1  0
 20 19  1  0
 20 21  2  0
 23 22  1  1
 22 20  1  0
 23 24  1  0
 24 17  1  0
 25 23  1  0
 26 25  2  0
 27 25  1  0
M  END
$$$$
