HIN.pdb
     RDKit          3D

 27 27  0  0  1  0  0  0  0  0999 V2000
    9.5425  -13.5226   20.6240 N   0  0  0  0  0  0  0  0  0  0  0  0
    8.3540  -13.9533   21.3233 C   0  0  1  0  0  0  0  0  0  0  0  0
    7.9760  -15.3101   20.7714 C   0  0  0  0  0  0  0  0  0  0  0  0
    7.6114  -15.1281   19.3422 C   0  0  0  0  0  0  0  0  0  0  0  0
    7.7970  -13.9762   18.5722 C   0  0  0  0  0  0  0  0  0  0  0  0
    7.3492  -14.1797   17.3307 N   0  0  0  0  0  0  0  0  0  0  0  0
    6.8782  -15.4411   17.2849 C   0  0  0  0  0  0  0  0  0  0  0  0
    7.0378  -16.0054   18.4938 N   0  0  0  0  0  0  0  0  0  0  0  0
    8.5761  -14.0089   22.7949 C   0  0  0  0  0  0  0  0  0  0  0  0
    9.7581  -14.1399   23.2015 O   0  0  0  0  0  0  0  0  0  0  0  0
    7.0752  -11.0993   25.9429 C   0  0  0  0  0  0  0  0  0  0  0  0
    6.1153  -12.2081   25.8153 C   0  0  0  0  0  0  0  0  0  0  0  0
    6.6288  -13.6066   25.9609 C   0  0  2  0  0  0  0  0  0  0  0  0
    6.9539  -13.7641   27.4320 C   0  0  0  0  0  0  0  0  0  0  0  0
    7.8517  -13.9440   25.1550 C   0  0  2  0  0  0  0  0  0  0  0  0
    7.5345  -13.9221   23.7222 N   0  0  0  0  0  0  0  0  0  0  0  0
    8.1820  -15.3738   25.4259 C   0  0  0  0  0  0  0  0  0  0  0  0
    7.3011  -16.2776   25.1759 O   0  0  0  0  0  0  0  0  0  0  0  0
   10.6380  -20.2289   24.9687 N   0  0  0  0  0  0  0  0  0  0  0  0
   11.2017  -19.1411   25.6891 C   0  0  0  0  0  0  0  0  0  0  0  0
   11.9908  -19.4011   26.6196 O   0  0  0  0  0  0  0  0  0  0  0  0
   10.8874  -17.7265   25.3756 C   0  0  0  0  0  0  0  0  0  0  0  0
    9.6267  -17.2963   26.0893 C   0  0  2  0  0  0  0  0  0  0  0  0
    9.3969  -15.8642   25.9392 N   0  0  0  0  0  0  0  0  0  0  0  0
    9.8136  -17.6641   27.5258 C   0  0  0  0  0  0  0  0  0  0  0  0
   10.2193  -16.7604   28.2979 O   0  0  0  0  0  0  0  0  0  0  0  0
    9.5720  -18.9144   28.0479 O   0  0  0  0  0  0  0  0  0  0  0  0
  2  1  1  6
  3  2  1  0
  4  3  1  0
  5  4  2  0
  6  7  1  0
  6  5  1  0
  7  8  2  0
  8  4  1  0
  9 16  1  0
  9  2  1  0
 10  9  2  0
 11 12  1  0
 13 15  1  0
 13 12  1  0
 13 14  1  1
 15 16  1  6
 17 18  2  0
 17 15  1  0
 20 19  1  0
 20 21  2  0
 23 22  1  6
 22 20  1  0
 23 24  1  0
 24 17  1  0
 25 23  1  0
 26 25  2  0
 27 25  1  0
M  END
$$$$
