HIN.pdb
     RDKit          3D

 27 27  0  0  1  0  0  0  0  0999 V2000
    9.6896  -16.1363   21.8281 N   0  0  0  0  0  0  0  0  0  0  0  0
    8.7724  -15.0312   21.9851 C   0  0  1  0  0  0  0  0  0  0  0  0
    7.6476  -15.2379   20.9948 C   0  0  0  0  0  0  0  0  0  0  0  0
    7.7967  -14.2161   19.9259 C   0  0  0  0  0  0  0  0  0  0  0  0
    8.8170  -13.2672   19.8129 C   0  0  0  0  0  0  0  0  0  0  0  0
    8.6239  -12.5163   18.7257 N   0  0  0  0  0  0  0  0  0  0  0  0
    7.4983  -12.9626   18.1350 C   0  0  0  0  0  0  0  0  0  0  0  0
    7.0062  -13.9820   18.8588 N   0  0  0  0  0  0  0  0  0  0  0  0
    8.2577  -14.9425   23.3798 C   0  0  0  0  0  0  0  0  0  0  0  0
    7.0323  -15.1533   23.5634 O   0  0  0  0  0  0  0  0  0  0  0  0
    6.4732  -11.2647   25.9389 C   0  0  0  0  0  0  0  0  0  0  0  0
    7.3106  -12.2660   25.2584 C   0  0  0  0  0  0  0  0  0  0  0  0
    7.1787  -13.6976   25.6753 C   0  0  2  0  0  0  0  0  0  0  0  0
    6.5033  -13.6607   27.0307 C   0  0  0  0  0  0  0  0  0  0  0  0
    8.4638  -14.4676   25.7945 C   0  0  2  0  0  0  0  0  0  0  0  0
    9.0752  -14.6384   24.4712 N   0  0  0  0  0  0  0  0  0  0  0  0
    8.1125  -15.8578   26.2079 C   0  0  0  0  0  0  0  0  0  0  0  0
    7.5034  -16.0429   27.3260 O   0  0  0  0  0  0  0  0  0  0  0  0
    6.9370  -18.6468   22.7018 N   0  0  0  0  0  0  0  0  0  0  0  0
    6.7356  -18.8526   24.0936 C   0  0  0  0  0  0  0  0  0  0  0  0
    5.6126  -18.5885   24.5682 O   0  0  0  0  0  0  0  0  0  0  0  0
    7.8014  -19.3641   24.9883 C   0  0  0  0  0  0  0  0  0  0  0  0
    8.1224  -18.3479   26.0598 C   0  0  2  0  0  0  0  0  0  0  0  0
    8.3782  -17.0337   25.4823 N   0  0  0  0  0  0  0  0  0  0  0  0
    9.3272  -18.8644   26.7779 C   0  0  0  0  0  0  0  0  0  0  0  0
    9.2129  -19.9707   27.3614 O   0  0  0  0  0  0  0  0  0  0  0  0
   10.5374  -18.2118   26.8387 O   0  0  0  0  0  0  0  0  0  0  0  0
  2  1  1  1
  3  2  1  0
  4  3  1  0
  5  4  2  0
  6  7  1  0
  6  5  1  0
  7  8  2  0
  8  4  1  0
  9 16  1  0
  9  2  1  0
 10  9  2  0
 11 12  1  0
 13 15  1  0
 13 12  1  0
 13 14  1  1
 15 16  1  6
 17 18  2  0
 17 15  1  0
 20 19  1  0
 20 21  2  0
 23 22  1  6
 22 20  1  0
 23 24  1  0
 24 17  1  0
 25 23  1  0
 26 25  2  0
 27 25  1  0
M  END
$$$$
