HIN.pdb
     RDKit          3D

 27 27  0  0  1  0  0  0  0  0999 V2000
    9.8203  -13.4576   20.4619 N   0  0  0  0  0  0  0  0  0  0  0  0
    8.6449  -13.8720   21.1924 C   0  0  1  0  0  0  0  0  0  0  0  0
    8.1094  -15.1132   20.5132 C   0  0  0  0  0  0  0  0  0  0  0  0
    7.6069  -14.7109   19.1736 C   0  0  0  0  0  0  0  0  0  0  0  0
    7.7433  -13.4567   18.5715 C   0  0  0  0  0  0  0  0  0  0  0  0
    7.1670  -13.4633   17.3670 N   0  0  0  0  0  0  0  0  0  0  0  0
    6.6613  -14.6981   17.1802 C   0  0  0  0  0  0  0  0  0  0  0  0
    6.9278  -15.4423   18.2667 N   0  0  0  0  0  0  0  0  0  0  0  0
    8.9551  -14.1292   22.6261 C   0  0  0  0  0  0  0  0  0  0  0  0
   10.1515  -14.3657   22.9303 O   0  0  0  0  0  0  0  0  0  0  0  0
    5.8255  -11.7532   26.5678 C   0  0  0  0  0  0  0  0  0  0  0  0
    6.9993  -12.2644   25.8414 C   0  0  0  0  0  0  0  0  0  0  0  0
    7.3050  -13.7268   25.9339 C   0  0  2  0  0  0  0  0  0  0  0  0
    7.7168  -13.9609   27.3727 C   0  0  0  0  0  0  0  0  0  0  0  0
    8.3959  -14.2278   25.0296 C   0  0  2  0  0  0  0  0  0  0  0  0
    7.9798  -14.1169   23.6264 N   0  0  0  0  0  0  0  0  0  0  0  0
    8.5166  -15.6986   25.2512 C   0  0  0  0  0  0  0  0  0  0  0  0
    7.4621  -16.4316   25.1735 O   0  0  0  0  0  0  0  0  0  0  0  0
   10.0430  -18.4193   22.9867 N   0  0  0  0  0  0  0  0  0  0  0  0
   11.0935  -18.2777   23.9335 C   0  0  0  0  0  0  0  0  0  0  0  0
   12.2150  -17.9256   23.5157 O   0  0  0  0  0  0  0  0  0  0  0  0
   10.9035  -18.5310   25.3819 C   0  0  0  0  0  0  0  0  0  0  0  0
    9.6687  -17.8188   25.8837 C   0  0  2  0  0  0  0  0  0  0  0  0
    9.7003  -16.4017   25.5419 N   0  0  0  0  0  0  0  0  0  0  0  0
    9.6464  -18.0151   27.3653 C   0  0  0  0  0  0  0  0  0  0  0  0
    9.9718  -17.0319   28.0759 O   0  0  0  0  0  0  0  0  0  0  0  0
    9.2961  -19.1900   27.9905 O   0  0  0  0  0  0  0  0  0  0  0  0
  2  1  1  6
  3  2  1  0
  4  3  1  0
  5  4  2  0
  6  7  1  0
  6  5  1  0
  7  8  2  0
  8  4  1  0
  9 16  1  0
  9  2  1  0
 10  9  2  0
 11 12  1  0
 13 15  1  0
 13 12  1  0
 13 14  1  1
 15 16  1  6
 17 18  2  0
 17 15  1  0
 20 19  1  0
 20 21  2  0
 23 22  1  1
 22 20  1  0
 23 24  1  0
 24 17  1  0
 25 23  1  0
 26 25  2  0
 27 25  1  0
M  END
$$$$
