HIN.pdb
     RDKit          3D

 27 27  0  0  1  0  0  0  0  0999 V2000
    9.1531  -15.3634   20.4140 N   0  0  0  0  0  0  0  0  0  0  0  0
    8.2802  -15.7495   21.4984 C   0  0  1  0  0  0  0  0  0  0  0  0
    8.2544  -17.2615   21.5367 C   0  0  0  0  0  0  0  0  0  0  0  0
    7.5179  -17.7289   20.3334 C   0  0  0  0  0  0  0  0  0  0  0  0
    6.6717  -16.9668   19.5227 C   0  0  0  0  0  0  0  0  0  0  0  0
    6.1861  -17.7207   18.5333 N   0  0  0  0  0  0  0  0  0  0  0  0
    6.7028  -18.9551   18.6902 C   0  0  0  0  0  0  0  0  0  0  0  0
    7.5008  -18.9545   19.7712 N   0  0  0  0  0  0  0  0  0  0  0  0
    8.7380  -15.1816   22.7968 C   0  0  0  0  0  0  0  0  0  0  0  0
    9.9768  -15.1026   22.9941 O   0  0  0  0  0  0  0  0  0  0  0  0
    5.6842  -11.6531   25.9225 C   0  0  0  0  0  0  0  0  0  0  0  0
    6.8615  -12.2905   25.3103 C   0  0  0  0  0  0  0  0  0  0  0  0
    7.3274  -13.5982   25.8702 C   0  0  2  0  0  0  0  0  0  0  0  0
    7.8735  -13.2747   27.2456 C   0  0  0  0  0  0  0  0  0  0  0  0
    8.3908  -14.3086   25.0808 C   0  0  2  0  0  0  0  0  0  0  0  0
    7.8539  -14.7418   23.7853 N   0  0  0  0  0  0  0  0  0  0  0  0
    8.6905  -15.5875   25.7890 C   0  0  0  0  0  0  0  0  0  0  0  0
    7.7676  -16.4784   25.8887 O   0  0  0  0  0  0  0  0  0  0  0  0
   10.5986  -20.2204   26.9938 N   0  0  0  0  0  0  0  0  0  0  0  0
   11.6258  -19.2617   26.7800 C   0  0  0  0  0  0  0  0  0  0  0  0
   12.7931  -19.5756   27.0881 O   0  0  0  0  0  0  0  0  0  0  0  0
   11.3598  -17.9189   26.2107 C   0  0  0  0  0  0  0  0  0  0  0  0
   10.1503  -17.2973   26.8699 C   0  0  2  0  0  0  0  0  0  0  0  0
    9.9173  -15.9444   26.3784 N   0  0  0  0  0  0  0  0  0  0  0  0
   10.4292  -17.2961   28.3383 C   0  0  0  0  0  0  0  0  0  0  0  0
   10.5591  -18.4144   28.8951 O   0  0  0  0  0  0  0  0  0  0  0  0
   10.5507  -16.1614   29.1076 O   0  0  0  0  0  0  0  0  0  0  0  0
  2  1  1  6
  3  2  1  0
  4  3  1  0
  5  4  2  0
  6  7  1  0
  6  5  1  0
  7  8  2  0
  8  4  1  0
  9 16  1  0
  9  2  1  0
 10  9  2  0
 11 12  1  0
 13 15  1  0
 13 12  1  0
 13 14  1  1
 15 16  1  6
 17 18  2  0
 17 15  1  0
 20 19  1  0
 20 21  2  0
 23 22  1  6
 22 20  1  0
 23 24  1  0
 24 17  1  0
 25 23  1  0
 26 25  2  0
 27 25  1  0
M  END
$$$$
