LFS.pdb
     RDKit          3D

 26 26  0  0  1  0  0  0  0  0999 V2000
   28.1679  -22.1459  -19.8642 C   0  0  0  0  0  0  0  0  0  0  0  0
   27.1848  -21.2352  -19.1440 C   0  0  1  0  0  0  0  0  0  0  0  0
   26.1259  -20.8542  -20.1604 C   0  0  0  0  0  0  0  0  0  0  0  0
   26.5082  -21.9453  -18.0044 C   0  0  0  0  0  0  0  0  0  0  0  0
   27.4357  -22.0858  -16.8133 C   0  0  2  0  0  0  0  0  0  0  0  0
   28.2582  -23.2531  -16.8954 N   0  0  0  0  0  0  0  0  0  0  0  0
   26.6271  -22.1315  -15.5728 C   0  0  0  0  0  0  0  0  0  0  0  0
   26.2359  -23.2336  -15.1477 O   0  0  0  0  0  0  0  0  0  0  0  0
   26.2856  -20.9591  -14.8561 N   0  0  0  0  0  0  0  0  0  0  0  0
   25.5610  -21.0540  -13.6372 C   0  0  1  0  0  0  0  0  0  0  0  0
   25.9474  -20.0480  -12.5949 C   0  0  0  0  0  0  0  0  0  0  0  0
   25.2720  -20.2394  -11.3043 C   0  0  0  0  0  0  0  0  0  0  0  0
   24.0266  -19.7104  -11.0360 C   0  0  0  0  0  0  0  0  0  0  0  0
   23.4016  -19.9044   -9.8011 C   0  0  0  0  0  0  0  0  0  0  0  0
   24.0207  -20.6345   -8.8161 C   0  0  0  0  0  0  0  0  0  0  0  0
   25.2660  -21.1694   -9.0702 C   0  0  0  0  0  0  0  0  0  0  0  0
   25.8712  -20.9701  -10.2933 C   0  0  0  0  0  0  0  0  0  0  0  0
   24.1046  -20.8230  -13.9397 C   0  0  0  0  0  0  0  0  0  0  0  0
   23.7347  -19.8573  -14.6748 O   0  0  0  0  0  0  0  0  0  0  0  0
   20.8681  -23.0740  -15.3556 O   0  0  0  0  0  0  0  0  0  0  0  0
   21.1460  -22.8944  -14.0149 C   0  0  0  0  0  0  0  0  0  0  0  0
   21.6827  -21.5134  -13.7224 C   0  0  2  0  0  0  0  0  0  0  0  0
   23.0958  -21.6584  -13.4269 N   0  0  0  0  0  0  0  0  0  0  0  0
   21.0285  -21.0376  -12.4776 C   0  0  0  0  0  0  0  0  0  0  0  0
   19.7186  -20.5943  -12.4007 O   0  0  0  0  0  0  0  0  0  0  0  0
   21.7098  -21.0374  -11.4231 O   0  0  0  0  0  0  0  0  0  0  0  0
  2  1  1  6
  2  4  1  0
  2  3  1  0
  5  4  1  0
  5  6  1  6
  7  5  1  0
  8  7  2  0
  9  7  1  0
 10  9  1  0
 10 11  1  1
 11 12  1  0
 12 17  2  0
 13 12  1  0
 13 14  2  0
 14 15  1  0
 15 16  2  0
 17 16  1  0
 18 23  1  0
 18 10  1  0
 19 18  2  0
 20 21  1  0
 22 21  1  1
 22 24  1  0
 22 23  1  0
 24 25  1  0
 26 24  2  0
M  END
$$$$
