LFS.pdb
     RDKit          3D

 26 26  0  0  1  0  0  0  0  0999 V2000
   15.2883  -13.5516  -17.4295 C   0  0  0  0  0  0  0  0  0  0  0  0
   16.5820  -14.3518  -17.4101 C   0  0  1  0  0  0  0  0  0  0  0  0
   17.0125  -14.5109  -18.8554 C   0  0  0  0  0  0  0  0  0  0  0  0
   17.6708  -13.6222  -16.6732 C   0  0  0  0  0  0  0  0  0  0  0  0
   18.9729  -14.3983  -16.7027 C   0  0  2  0  0  0  0  0  0  0  0  0
   18.8908  -15.6316  -15.9829 N   0  0  0  0  0  0  0  0  0  0  0  0
   20.0505  -13.5577  -16.1310 C   0  0  0  0  0  0  0  0  0  0  0  0
   20.1349  -13.4430  -14.8948 O   0  0  0  0  0  0  0  0  0  0  0  0
   20.9877  -12.8807  -16.9484 N   0  0  0  0  0  0  0  0  0  0  0  0
   21.9639  -12.0312  -16.3610 C   0  0  1  0  0  0  0  0  0  0  0  0
   23.3285  -12.1210  -16.9756 C   0  0  0  0  0  0  0  0  0  0  0  0
   24.3315  -11.2676  -16.3241 C   0  0  0  0  0  0  0  0  0  0  0  0
   25.0322  -11.6715  -15.2067 C   0  0  0  0  0  0  0  0  0  0  0  0
   25.9824  -10.8438  -14.6023 C   0  0  0  0  0  0  0  0  0  0  0  0
   26.2425   -9.5957  -15.1134 C   0  0  0  0  0  0  0  0  0  0  0  0
   25.5494   -9.1786  -16.2302 C   0  0  0  0  0  0  0  0  0  0  0  0
   24.6145  -10.0056  -16.8165 C   0  0  0  0  0  0  0  0  0  0  0  0
   21.5078  -10.6068  -16.5312 C   0  0  0  0  0  0  0  0  0  0  0  0
   21.0586  -10.1926  -17.6432 O   0  0  0  0  0  0  0  0  0  0  0  0
   19.4260   -6.8510  -14.6915 O   0  0  0  0  0  0  0  0  0  0  0  0
   19.9500   -8.1279  -14.6466 C   0  0  0  0  0  0  0  0  0  0  0  0
   21.1255   -8.2965  -15.5795 C   0  0  2  0  0  0  0  0  0  0  0  0
   21.5576   -9.6777  -15.4763 N   0  0  0  0  0  0  0  0  0  0  0  0
   22.2324   -7.4582  -15.0544 C   0  0  0  0  0  0  0  0  0  0  0  0
   22.6125   -6.2378  -15.5879 O   0  0  0  0  0  0  0  0  0  0  0  0
   22.8669   -7.8851  -14.0587 O   0  0  0  0  0  0  0  0  0  0  0  0
  2  1  1  6
  2  4  1  0
  2  3  1  0
  5  4  1  0
  5  6  1  1
  7  5  1  0
  8  7  2  0
  9  7  1  0
 10  9  1  0
 10 11  1  6
 11 12  1  0
 12 17  2  0
 13 12  1  0
 13 14  2  0
 14 15  1  0
 15 16  2  0
 17 16  1  0
 18 23  1  0
 18 10  1  0
 19 18  2  0
 20 21  1  0
 22 21  1  1
 22 24  1  0
 22 23  1  0
 24 25  1  0
 26 24  2  0
M  END
$$$$
