LFS.pdb
     RDKit          3D

 26 26  0  0  1  0  0  0  0  0999 V2000
   28.6003  -15.5192  -15.6558 C   0  0  0  0  0  0  0  0  0  0  0  0
   27.2044  -15.9846  -15.2695 C   0  0  1  0  0  0  0  0  0  0  0  0
   26.4125  -16.0891  -16.5585 C   0  0  0  0  0  0  0  0  0  0  0  0
   27.2345  -17.3428  -14.6252 C   0  0  0  0  0  0  0  0  0  0  0  0
   25.8636  -17.9902  -14.6383 C   0  0  2  0  0  0  0  0  0  0  0  0
   24.9153  -17.2789  -13.8378 N   0  0  0  0  0  0  0  0  0  0  0  0
   25.9818  -19.3842  -14.1509 C   0  0  0  0  0  0  0  0  0  0  0  0
   26.9191  -20.0906  -14.5643 O   0  0  0  0  0  0  0  0  0  0  0  0
   25.0605  -19.9375  -13.2290 N   0  0  0  0  0  0  0  0  0  0  0  0
   25.1740  -21.2988  -12.8371 C   0  0  1  0  0  0  0  0  0  0  0  0
   24.7519  -21.5857  -11.4275 C   0  0  0  0  0  0  0  0  0  0  0  0
   25.6967  -21.0989  -10.4130 C   0  0  0  0  0  0  0  0  0  0  0  0
   25.3758  -20.0914   -9.5270 C   0  0  0  0  0  0  0  0  0  0  0  0
   26.2896  -19.6430   -8.5693 C   0  0  0  0  0  0  0  0  0  0  0  0
   27.5416  -20.2020   -8.4883 C   0  0  0  0  0  0  0  0  0  0  0  0
   27.8763  -21.2101   -9.3676 C   0  0  0  0  0  0  0  0  0  0  0  0
   26.9647  -21.6429  -10.3076 C   0  0  0  0  0  0  0  0  0  0  0  0
   24.2807  -22.1184  -13.7295 C   0  0  0  0  0  0  0  0  0  0  0  0
   23.0559  -21.8223  -13.8781 O   0  0  0  0  0  0  0  0  0  0  0  0
   25.9896  -25.2841  -15.6292 O   0  0  0  0  0  0  0  0  0  0  0  0
   24.9556  -24.6818  -16.3185 C   0  0  0  0  0  0  0  0  0  0  0  0
   23.9773  -23.9947  -15.3959 C   0  0  2  0  0  0  0  0  0  0  0  0
   24.7569  -23.2394  -14.4332 N   0  0  0  0  0  0  0  0  0  0  0  0
   23.2641  -25.0531  -14.6376 C   0  0  0  0  0  0  0  0  0  0  0  0
   22.3584  -25.9410  -15.1942 O   0  0  0  0  0  0  0  0  0  0  0  0
   23.4984  -25.1494  -13.4080 O   0  0  0  0  0  0  0  0  0  0  0  0
  2  1  1  6
  2  4  1  0
  2  3  1  0
  5  4  1  0
  5  6  1  1
  7  5  1  0
  8  7  2  0
  9  7  1  0
 10  9  1  0
 10 11  1  1
 11 12  1  0
 12 17  2  0
 13 12  1  0
 13 14  2  0
 14 15  1  0
 15 16  2  0
 17 16  1  0
 18 23  1  0
 18 10  1  0
 19 18  2  0
 20 21  1  0
 22 21  1  6
 22 24  1  0
 22 23  1  0
 24 25  1  0
 26 24  2  0
M  END
$$$$
