LFS.pdb
     RDKit          3D

 26 26  0  0  1  0  0  0  0  0999 V2000
   17.3475  -17.4789  -15.6526 C   0  0  0  0  0  0  0  0  0  0  0  0
   17.7795  -16.4325  -16.6689 C   0  0  1  0  0  0  0  0  0  0  0  0
   16.5394  -15.6328  -17.0182 C   0  0  0  0  0  0  0  0  0  0  0  0
   18.7988  -15.4903  -16.0911 C   0  0  0  0  0  0  0  0  0  0  0  0
   19.1870  -14.4175  -17.0895 C   0  0  2  0  0  0  0  0  0  0  0  0
   19.7266  -14.9632  -18.2965 N   0  0  0  0  0  0  0  0  0  0  0  0
   20.1784  -13.5108  -16.4650 C   0  0  0  0  0  0  0  0  0  0  0  0
   19.9913  -13.1245  -15.2971 O   0  0  0  0  0  0  0  0  0  0  0  0
   21.3327  -13.0704  -17.1568 N   0  0  0  0  0  0  0  0  0  0  0  0
   22.2634  -12.2090  -16.5153 C   0  0  1  0  0  0  0  0  0  0  0  0
   23.6798  -12.3499  -16.9860 C   0  0  0  0  0  0  0  0  0  0  0  0
   24.6260  -11.4601  -16.2992 C   0  0  0  0  0  0  0  0  0  0  0  0
   25.1241  -11.7385  -15.0433 C   0  0  0  0  0  0  0  0  0  0  0  0
   26.0236  -10.8782  -14.4076 C   0  0  0  0  0  0  0  0  0  0  0  0
   26.4364   -9.7236  -15.0265 C   0  0  0  0  0  0  0  0  0  0  0  0
   25.9467   -9.4325  -16.2823 C   0  0  0  0  0  0  0  0  0  0  0  0
   25.0595  -10.2902  -16.8979 C   0  0  0  0  0  0  0  0  0  0  0  0
   21.8555  -10.7875  -16.7964 C   0  0  0  0  0  0  0  0  0  0  0  0
   21.5578  -10.4129  -17.9715 O   0  0  0  0  0  0  0  0  0  0  0  0
   20.1602   -6.6719  -14.9996 O   0  0  0  0  0  0  0  0  0  0  0  0
   20.5761   -7.9817  -14.8635 C   0  0  0  0  0  0  0  0  0  0  0  0
   21.4674   -8.4197  -16.0012 C   0  0  2  0  0  0  0  0  0  0  0  0
   21.7862   -9.8177  -15.7799 N   0  0  0  0  0  0  0  0  0  0  0  0
   22.7396   -7.6637  -15.8844 C   0  0  0  0  0  0  0  0  0  0  0  0
   23.1529   -6.6831  -16.7710 O   0  0  0  0  0  0  0  0  0  0  0  0
   23.4918   -7.9320  -14.9157 O   0  0  0  0  0  0  0  0  0  0  0  0
  2  1  1  1
  2  4  1  0
  2  3  1  0
  5  4  1  0
  5  6  1  6
  7  5  1  0
  8  7  2  0
  9  7  1  0
 10  9  1  0
 10 11  1  6
 11 12  1  0
 12 17  2  0
 13 12  1  0
 13 14  2  0
 14 15  1  0
 15 16  2  0
 17 16  1  0
 18 23  1  0
 18 10  1  0
 19 18  2  0
 20 21  1  0
 22 21  1  1
 22 24  1  0
 22 23  1  0
 24 25  1  0
 26 24  2  0
M  END
$$$$
