LFS.pdb
     RDKit          3D

 26 26  0  0  1  0  0  0  0  0999 V2000
   27.6186  -18.2223  -17.5190 C   0  0  0  0  0  0  0  0  0  0  0  0
   28.1620  -18.9050  -16.2728 C   0  0  1  0  0  0  0  0  0  0  0  0
   28.7416  -17.8095  -15.3989 C   0  0  0  0  0  0  0  0  0  0  0  0
   27.0708  -19.5937  -15.5009 C   0  0  0  0  0  0  0  0  0  0  0  0
   27.6260  -20.3272  -14.2958 C   0  0  2  0  0  0  0  0  0  0  0  0
   28.5449  -21.3609  -14.6603 N   0  0  0  0  0  0  0  0  0  0  0  0
   26.5033  -20.9076  -13.5228 C   0  0  0  0  0  0  0  0  0  0  0  0
   26.2588  -22.1227  -13.6335 O   0  0  0  0  0  0  0  0  0  0  0  0
   25.6997  -20.1218  -12.6617 N   0  0  0  0  0  0  0  0  0  0  0  0
   24.6131  -20.7138  -11.9627 C   0  0  1  0  0  0  0  0  0  0  0  0
   24.2726  -20.0593  -10.6576 C   0  0  0  0  0  0  0  0  0  0  0  0
   25.2945  -20.2392   -9.6174 C   0  0  0  0  0  0  0  0  0  0  0  0
   25.7664  -21.4828   -9.2519 C   0  0  0  0  0  0  0  0  0  0  0  0
   26.7392  -21.6317   -8.2596 C   0  0  0  0  0  0  0  0  0  0  0  0
   27.2528  -20.5305   -7.6191 C   0  0  0  0  0  0  0  0  0  0  0  0
   26.7904  -19.2809   -7.9743 C   0  0  0  0  0  0  0  0  0  0  0  0
   25.8301  -19.1485   -8.9552 C   0  0  0  0  0  0  0  0  0  0  0  0
   23.3869  -20.6097  -12.8296 C   0  0  0  0  0  0  0  0  0  0  0  0
   23.0807  -19.5189  -13.4007 O   0  0  0  0  0  0  0  0  0  0  0  0
   21.2927  -24.0409  -13.4734 O   0  0  0  0  0  0  0  0  0  0  0  0
   21.2007  -23.0817  -14.4625 C   0  0  0  0  0  0  0  0  0  0  0  0
   21.3751  -21.6830  -13.9205 C   0  0  2  0  0  0  0  0  0  0  0  0
   22.5319  -21.7056  -13.0450 N   0  0  0  0  0  0  0  0  0  0  0  0
   20.1957  -21.3869  -13.0689 C   0  0  0  0  0  0  0  0  0  0  0  0
   18.8975  -21.2764  -13.5388 O   0  0  0  0  0  0  0  0  0  0  0  0
   20.3890  -21.2258  -11.8390 O   0  0  0  0  0  0  0  0  0  0  0  0
  2  1  1  6
  2  4  1  0
  2  3  1  0
  5  4  1  0
  5  6  1  6
  7  5  1  0
  8  7  2  0
  9  7  1  0
 10  9  1  0
 10 11  1  1
 11 12  1  0
 12 17  2  0
 13 12  1  0
 13 14  2  0
 14 15  1  0
 15 16  2  0
 17 16  1  0
 18 23  1  0
 18 10  1  0
 19 18  2  0
 20 21  1  0
 22 21  1  1
 22 24  1  0
 22 23  1  0
 24 25  1  0
 26 24  2  0
M  END
$$$$
