LFS.pdb
     RDKit          3D

 26 26  0  0  1  0  0  0  0  0999 V2000
   14.0865  -12.5068  -18.3963 C   0  0  0  0  0  0  0  0  0  0  0  0
   15.5964  -12.3679  -18.5200 C   0  0  1  0  0  0  0  0  0  0  0  0
   15.8655  -11.7971  -19.8989 C   0  0  0  0  0  0  0  0  0  0  0  0
   16.1476  -11.4109  -17.4997 C   0  0  0  0  0  0  0  0  0  0  0  0
   17.6369  -11.1997  -17.6893 C   0  0  2  0  0  0  0  0  0  0  0  0
   18.4027  -12.3536  -17.3319 N   0  0  0  0  0  0  0  0  0  0  0  0
   18.0694  -10.0415  -16.8729 C   0  0  0  0  0  0  0  0  0  0  0  0
   17.2177   -9.4114  -16.2203 O   0  0  0  0  0  0  0  0  0  0  0  0
   19.4228   -9.6296  -16.8125 N   0  0  0  0  0  0  0  0  0  0  0  0
   19.7945   -8.5168  -16.0105 C   0  0  1  0  0  0  0  0  0  0  0  0
   21.2573   -8.4295  -15.6938 C   0  0  0  0  0  0  0  0  0  0  0  0
   21.6485   -7.1783  -15.0303 C   0  0  0  0  0  0  0  0  0  0  0  0
   22.3481   -6.1836  -15.6814 C   0  0  0  0  0  0  0  0  0  0  0  0
   22.7105   -5.0007  -15.0314 C   0  0  0  0  0  0  0  0  0  0  0  0
   22.3743   -4.8002  -13.7148 C   0  0  0  0  0  0  0  0  0  0  0  0
   21.6749   -5.7861  -13.0512 C   0  0  0  0  0  0  0  0  0  0  0  0
   21.3237   -6.9485  -13.7049 C   0  0  0  0  0  0  0  0  0  0  0  0
   19.4404   -7.2606  -16.7605 C   0  0  0  0  0  0  0  0  0  0  0  0
   19.7599   -7.1152  -17.9798 O   0  0  0  0  0  0  0  0  0  0  0  0
   16.4620   -3.7783  -17.5899 O   0  0  0  0  0  0  0  0  0  0  0  0
   16.9063   -4.9393  -16.9885 C   0  0  0  0  0  0  0  0  0  0  0  0
   18.4062   -4.9548  -16.8137 C   0  0  2  0  0  0  0  0  0  0  0  0
   18.7459   -6.2000  -16.1511 N   0  0  0  0  0  0  0  0  0  0  0  0
   18.7549   -3.8583  -15.8756 C   0  0  0  0  0  0  0  0  0  0  0  0
   19.2151   -2.6110  -16.2642 O   0  0  0  0  0  0  0  0  0  0  0  0
   18.6235   -4.0772  -14.6465 O   0  0  0  0  0  0  0  0  0  0  0  0
  2  1  1  1
  2  4  1  0
  2  3  1  0
  5  4  1  0
  5  6  1  1
  7  5  1  0
  8  7  2  0
  9  7  1  0
 10  9  1  0
 10 11  1  6
 11 12  1  0
 12 17  2  0
 13 12  1  0
 13 14  2  0
 14 15  1  0
 15 16  2  0
 17 16  1  0
 18 23  1  0
 18 10  1  0
 19 18  2  0
 20 21  1  0
 22 21  1  1
 22 24  1  0
 22 23  1  0
 24 25  1  0
 26 24  2  0
M  END
$$$$
