LFS.pdb
     RDKit          3D

 26 26  0  0  1  0  0  0  0  0999 V2000
   23.5884  -20.8724  -20.9333 C   0  0  0  0  0  0  0  0  0  0  0  0
   24.1437  -19.9919  -19.8238 C   0  0  1  0  0  0  0  0  0  0  0  0
   23.6603  -18.5830  -20.1086 C   0  0  0  0  0  0  0  0  0  0  0  0
   23.6189  -20.4053  -18.4768 C   0  0  0  0  0  0  0  0  0  0  0  0
   24.1614  -19.5147  -17.3763 C   0  0  2  0  0  0  0  0  0  0  0  0
   25.5909  -19.5130  -17.3289 N   0  0  0  0  0  0  0  0  0  0  0  0
   23.6196  -19.9692  -16.0744 C   0  0  0  0  0  0  0  0  0  0  0  0
   24.2118  -20.8726  -15.4566 O   0  0  0  0  0  0  0  0  0  0  0  0
   22.4483  -19.4069  -15.5116 N   0  0  0  0  0  0  0  0  0  0  0  0
   21.9943  -19.8349  -14.2347 C   0  0  1  0  0  0  0  0  0  0  0  0
   21.5788  -18.7295  -13.3111 C   0  0  0  0  0  0  0  0  0  0  0  0
   21.1212  -19.1947  -11.9947 C   0  0  0  0  0  0  0  0  0  0  0  0
   19.8041  -19.1025  -11.5949 C   0  0  0  0  0  0  0  0  0  0  0  0
   19.3898  -19.5513  -10.3379 C   0  0  0  0  0  0  0  0  0  0  0  0
   20.2951  -20.1002   -9.4628 C   0  0  0  0  0  0  0  0  0  0  0  0
   21.6152  -20.1987   -9.8490 C   0  0  0  0  0  0  0  0  0  0  0  0
   22.0103  -19.7519  -11.0925 C   0  0  0  0  0  0  0  0  0  0  0  0
   20.7831  -20.7056  -14.4366 C   0  0  0  0  0  0  0  0  0  0  0  0
   19.8863  -20.3933  -15.2780 O   0  0  0  0  0  0  0  0  0  0  0  0
   20.1287  -24.0000  -11.9255 O   0  0  0  0  0  0  0  0  0  0  0  0
   19.8578  -24.1187  -13.2744 C   0  0  0  0  0  0  0  0  0  0  0  0
   19.4720  -22.7987  -13.8984 C   0  0  2  0  0  0  0  0  0  0  0  0
   20.5906  -21.8942  -13.7094 N   0  0  0  0  0  0  0  0  0  0  0  0
   18.3376  -22.2513  -13.1128 C   0  0  0  0  0  0  0  0  0  0  0  0
   17.0284  -22.6918  -13.2152 O   0  0  0  0  0  0  0  0  0  0  0  0
   18.5822  -21.3259  -12.3005 O   0  0  0  0  0  0  0  0  0  0  0  0
  2  1  1  6
  2  4  1  0
  2  3  1  0
  5  4  1  0
  5  6  1  1
  7  5  1  0
  8  7  2  0
  9  7  1  0
 10  9  1  0
 10 11  1  1
 11 12  1  0
 12 17  2  0
 13 12  1  0
 13 14  2  0
 14 15  1  0
 15 16  2  0
 17 16  1  0
 18 23  1  0
 18 10  1  0
 19 18  2  0
 20 21  1  0
 22 21  1  1
 22 24  1  0
 22 23  1  0
 24 25  1  0
 26 24  2  0
M  END
$$$$
