LFS.pdb
     RDKit          3D

 26 26  0  0  1  0  0  0  0  0999 V2000
   28.3883  -24.0569  -19.5416 C   0  0  0  0  0  0  0  0  0  0  0  0
   27.4969  -22.8860  -19.1557 C   0  0  1  0  0  0  0  0  0  0  0  0
   26.3692  -22.8502  -20.1690 C   0  0  0  0  0  0  0  0  0  0  0  0
   26.8961  -23.0766  -17.7907 C   0  0  0  0  0  0  0  0  0  0  0  0
   26.0314  -21.8945  -17.3985 C   0  0  2  0  0  0  0  0  0  0  0  0
   26.6982  -20.6431  -17.5862 N   0  0  0  0  0  0  0  0  0  0  0  0
   25.6301  -22.0379  -15.9796 C   0  0  0  0  0  0  0  0  0  0  0  0
   25.1471  -23.1184  -15.5953 O   0  0  0  0  0  0  0  0  0  0  0  0
   25.7793  -20.9828  -15.0472 N   0  0  0  0  0  0  0  0  0  0  0  0
   25.2748  -21.1219  -13.7259 C   0  0  1  0  0  0  0  0  0  0  0  0
   25.9776  -20.2932  -12.6930 C   0  0  0  0  0  0  0  0  0  0  0  0
   25.5287  -20.5505  -11.3179 C   0  0  0  0  0  0  0  0  0  0  0  0
   24.3976  -19.9653  -10.7878 C   0  0  0  0  0  0  0  0  0  0  0  0
   23.9881  -20.2238   -9.4767 C   0  0  0  0  0  0  0  0  0  0  0  0
   24.7111  -21.0759   -8.6781 C   0  0  0  0  0  0  0  0  0  0  0  0
   25.8442  -21.6681   -9.1948 C   0  0  0  0  0  0  0  0  0  0  0  0
   26.2368  -21.4041  -10.4902 C   0  0  0  0  0  0  0  0  0  0  0  0
   23.8356  -20.6807  -13.7259 C   0  0  0  0  0  0  0  0  0  0  0  0
   23.5246  -19.4648  -13.9123 O   0  0  0  0  0  0  0  0  0  0  0  0
   20.9276  -23.5901  -13.6046 O   0  0  0  0  0  0  0  0  0  0  0  0
   20.6463  -22.3859  -14.2193 C   0  0  0  0  0  0  0  0  0  0  0  0
   21.3732  -21.2307  -13.5730 C   0  0  2  0  0  0  0  0  0  0  0  0
   22.7789  -21.5862  -13.5212 N   0  0  0  0  0  0  0  0  0  0  0  0
   20.8999  -21.1384  -12.1690 C   0  0  0  0  0  0  0  0  0  0  0  0
   21.6580  -21.4823  -11.0621 O   0  0  0  0  0  0  0  0  0  0  0  0
   19.7327  -20.7199  -11.9723 O   0  0  0  0  0  0  0  0  0  0  0  0
  2  1  1  6
  2  4  1  0
  2  3  1  0
  5  4  1  0
  5  6  1  1
  7  5  1  0
  8  7  2  0
  9  7  1  0
 10  9  1  0
 10 11  1  1
 11 12  1  0
 12 17  2  0
 13 12  1  0
 13 14  2  0
 14 15  1  0
 15 16  2  0
 17 16  1  0
 18 23  1  0
 18 10  1  0
 19 18  2  0
 20 21  1  0
 22 21  1  6
 22 24  1  0
 22 23  1  0
 24 25  1  0
 26 24  2  0
M  END
$$$$
