WSM.pdb
     RDKit          3D

 29 30  0  0  1  0  0  0  0  0999 V2000
   27.3024  -18.8634  -10.2679 N   0  0  0  0  0  0  0  0  0  0  0  0
   26.8522  -20.1992  -10.0818 C   0  0  1  0  0  0  0  0  0  0  0  0
   26.5580  -20.5726   -8.6539 C   0  0  0  0  0  0  0  0  0  0  0  0
   27.2839  -19.7686   -7.6555 C   0  0  0  0  0  0  0  0  0  0  0  0
   27.6901  -18.4563   -7.8374 C   0  0  0  0  0  0  0  0  0  0  0  0
   28.3028  -18.0046   -6.7415 N   0  0  0  0  0  0  0  0  0  0  0  0
   28.3026  -19.0089   -5.8422 C   0  0  0  0  0  0  0  0  0  0  0  0
   28.8096  -19.0709   -4.5591 C   0  0  0  0  0  0  0  0  0  0  0  0
   28.6829  -20.2470   -3.8320 C   0  0  0  0  0  0  0  0  0  0  0  0
   28.0648  -21.3299   -4.3780 C   0  0  0  0  0  0  0  0  0  0  0  0
   27.5582  -21.2800   -5.6491 C   0  0  0  0  0  0  0  0  0  0  0  0
   27.6726  -20.1249   -6.3860 C   0  0  0  0  0  0  0  0  0  0  0  0
   25.6755  -20.5064  -10.9633 C   0  0  0  0  0  0  0  0  0  0  0  0
   24.5984  -19.8900  -10.8765 O   0  0  0  0  0  0  0  0  0  0  0  0
   26.6310  -22.6548  -14.3525 O   0  0  0  0  0  0  0  0  0  0  0  0
   25.2963  -22.8783  -13.9417 C   0  0  0  0  0  0  0  0  0  0  0  0
   24.9285  -21.7449  -13.0416 C   0  0  2  0  0  0  0  0  0  0  0  0
   25.8100  -21.5467  -11.9325 N   0  0  0  0  0  0  0  0  0  0  0  0
   23.5432  -21.9896  -12.5376 C   0  0  0  0  0  0  0  0  0  0  0  0
   23.3351  -21.9178  -11.2944 O   0  0  0  0  0  0  0  0  0  0  0  0
   18.2043  -18.0639  -11.4211 C   0  0  0  0  0  0  0  0  0  0  0  0
   19.6186  -19.1997  -11.5777 S   0  0  0  0  0  0  0  0  0  0  0  0
   20.2911  -19.1879  -13.2456 C   0  0  0  0  0  0  0  0  0  0  0  0
   21.4820  -20.0540  -13.4225 C   0  0  0  0  0  0  0  0  0  0  0  0
   21.2227  -21.5381  -13.2948 C   0  0  2  0  0  0  0  0  0  0  0  0
   22.4600  -22.2949  -13.3665 N   0  0  0  0  0  0  0  0  0  0  0  0
   20.3107  -22.0765  -14.3196 C   0  0  0  0  0  0  0  0  0  0  0  0
   20.7091  -22.2524  -15.4934 O   0  0  0  0  0  0  0  0  0  0  0  0
   19.0050  -22.3976  -14.0128 O   0  0  0  0  0  0  0  0  0  0  0  0
  2  1  1  1
  2 13  1  0
  2  3  1  0
  3  4  1  0
  4  5  2  0
  4 12  1  0
  5  6  1  0
  6  7  1  0
  7  8  2  0
  8  9  1  0
 10  9  2  0
 11 10  1  0
 12 11  2  0
 12  7  1  0
 13 18  1  0
 14 13  2  0
 17 16  1  1
 16 15  1  0
 17 19  1  0
 18 17  1  0
 19 26  1  0
 19 20  2  0
 21 22  1  0
 23 24  1  0
 23 22  1  0
 25 24  1  6
 25 27  1  0
 26 25  1  0
 27 29  1  0
 28 27  2  0
M  END
$$$$
