WSM.pdb
     RDKit          3D

 29 30  0  0  1  0  0  0  0  0999 V2000
   26.1017  -19.0356  -11.9773 N   0  0  0  0  0  0  0  0  0  0  0  0
   25.9770  -20.4520  -11.9704 C   0  0  1  0  0  0  0  0  0  0  0  0
   25.7412  -21.0579  -10.6131 C   0  0  0  0  0  0  0  0  0  0  0  0
   26.6823  -20.6033   -9.5749 C   0  0  0  0  0  0  0  0  0  0  0  0
   26.3686  -19.7260   -8.5491 C   0  0  0  0  0  0  0  0  0  0  0  0
   27.4303  -19.5315   -7.7647 N   0  0  0  0  0  0  0  0  0  0  0  0
   28.4380  -20.2729   -8.2666 C   0  0  0  0  0  0  0  0  0  0  0  0
   29.7428  -20.4276   -7.8413 C   0  0  0  0  0  0  0  0  0  0  0  0
   30.5973  -21.2602   -8.5516 C   0  0  0  0  0  0  0  0  0  0  0  0
   30.1541  -21.9185   -9.6574 C   0  0  0  0  0  0  0  0  0  0  0  0
   28.8626  -21.7730  -10.0884 C   0  0  0  0  0  0  0  0  0  0  0  0
   27.9999  -20.9538   -9.3992 C   0  0  0  0  0  0  0  0  0  0  0  0
   24.9315  -20.9127  -12.9454 C   0  0  0  0  0  0  0  0  0  0  0  0
   23.8421  -20.3274  -13.0809 O   0  0  0  0  0  0  0  0  0  0  0  0
   25.9078  -24.2958  -14.9931 O   0  0  0  0  0  0  0  0  0  0  0  0
   25.0365  -23.4798  -15.7516 C   0  0  0  0  0  0  0  0  0  0  0  0
   24.3681  -22.5543  -14.7889 C   0  0  2  0  0  0  0  0  0  0  0  0
   25.2096  -22.0663  -13.7401 N   0  0  0  0  0  0  0  0  0  0  0  0
   23.2008  -23.2739  -14.1952 C   0  0  0  0  0  0  0  0  0  0  0  0
   23.4209  -24.1484  -13.3115 O   0  0  0  0  0  0  0  0  0  0  0  0
   17.5290  -21.7826  -10.8904 C   0  0  0  0  0  0  0  0  0  0  0  0
   17.1264  -22.4954  -12.5166 S   0  0  0  0  0  0  0  0  0  0  0  0
   18.4251  -23.5984  -13.0918 C   0  0  0  0  0  0  0  0  0  0  0  0
   19.6235  -22.8988  -13.6154 C   0  0  0  0  0  0  0  0  0  0  0  0
   20.7836  -23.7967  -13.9818 C   0  0  2  0  0  0  0  0  0  0  0  0
   21.8739  -23.0341  -14.5633 N   0  0  0  0  0  0  0  0  0  0  0  0
   20.4339  -24.8691  -14.9302 C   0  0  0  0  0  0  0  0  0  0  0  0
   20.5983  -24.7057  -16.1606 O   0  0  0  0  0  0  0  0  0  0  0  0
   19.9206  -26.0707  -14.4888 O   0  0  0  0  0  0  0  0  0  0  0  0
  2  1  1  1
  2 13  1  0
  2  3  1  0
  3  4  1  0
  4  5  2  0
  4 12  1  0
  5  6  1  0
  6  7  1  0
  7  8  2  0
  8  9  1  0
 10  9  2  0
 11 10  1  0
 12 11  2  0
 12  7  1  0
 13 18  1  0
 14 13  2  0
 17 16  1  6
 16 15  1  0
 17 19  1  0
 18 17  1  0
 19 26  1  0
 19 20  2  0
 21 22  1  0
 23 24  1  0
 23 22  1  0
 25 24  1  6
 25 27  1  0
 26 25  1  0
 27 29  1  0
 28 27  2  0
M  END
$$$$
