WSM.pdb
     RDKit          3D

 29 30  0  0  1  0  0  0  0  0999 V2000
   18.5330  -23.1312  -15.4487 N   0  0  0  0  0  0  0  0  0  0  0  0
   19.0155  -22.8043  -14.1518 C   0  0  1  0  0  0  0  0  0  0  0  0
   19.0631  -21.3308  -13.8494 C   0  0  0  0  0  0  0  0  0  0  0  0
   19.7505  -20.5242  -14.8727 C   0  0  0  0  0  0  0  0  0  0  0  0
   19.1212  -19.6689  -15.7631 C   0  0  0  0  0  0  0  0  0  0  0  0
   20.0213  -19.0702  -16.5453 N   0  0  0  0  0  0  0  0  0  0  0  0
   21.2354  -19.5251  -16.1765 C   0  0  0  0  0  0  0  0  0  0  0  0
   22.4944  -19.2329  -16.6632 C   0  0  0  0  0  0  0  0  0  0  0  0
   23.6029  -19.8539  -16.1034 C   0  0  0  0  0  0  0  0  0  0  0  0
   23.4514  -20.7430  -15.0840 C   0  0  0  0  0  0  0  0  0  0  0  0
   22.2083  -21.0404  -14.5931 C   0  0  0  0  0  0  0  0  0  0  0  0
   21.0975  -20.4362  -15.1329 C   0  0  0  0  0  0  0  0  0  0  0  0
   18.2557  -23.5400  -13.0852 C   0  0  0  0  0  0  0  0  0  0  0  0
   17.0832  -23.2536  -12.7840 O   0  0  0  0  0  0  0  0  0  0  0  0
   20.2943  -26.6116  -11.0908 O   0  0  0  0  0  0  0  0  0  0  0  0
   18.8976  -26.7789  -11.2376 C   0  0  0  0  0  0  0  0  0  0  0  0
   18.3140  -25.4119  -11.3813 C   0  0  2  0  0  0  0  0  0  0  0  0
   18.9144  -24.6050  -12.3986 N   0  0  0  0  0  0  0  0  0  0  0  0
   18.4351  -24.7199  -10.0624 C   0  0  0  0  0  0  0  0  0  0  0  0
   19.2410  -23.7531   -9.9634 O   0  0  0  0  0  0  0  0  0  0  0  0
   13.7718  -24.4631   -5.3383 C   0  0  0  0  0  0  0  0  0  0  0  0
   14.8829  -23.0463   -5.0685 S   0  0  0  0  0  0  0  0  0  0  0  0
   16.5088  -23.3399   -5.7785 C   0  0  0  0  0  0  0  0  0  0  0  0
   16.4864  -24.1355   -7.0301 C   0  0  0  0  0  0  0  0  0  0  0  0
   17.8338  -24.3446   -7.6834 C   0  0  2  0  0  0  0  0  0  0  0  0
   17.7048  -25.0828   -8.9272 N   0  0  0  0  0  0  0  0  0  0  0  0
   18.8041  -25.0621   -6.8375 C   0  0  0  0  0  0  0  0  0  0  0  0
   19.0715  -26.2648   -7.0600 O   0  0  0  0  0  0  0  0  0  0  0  0
   19.4370  -24.4307   -5.7874 O   0  0  0  0  0  0  0  0  0  0  0  0
  2  1  1  6
  2 13  1  0
  2  3  1  0
  3  4  1  0
  4  5  2  0
  4 12  1  0
  5  6  1  0
  6  7  1  0
  7  8  2  0
  8  9  1  0
 10  9  2  0
 11 10  1  0
 12 11  2  0
 12  7  1  0
 13 18  1  0
 14 13  2  0
 17 16  1  1
 16 15  1  0
 17 19  1  0
 18 17  1  0
 19 26  1  0
 19 20  2  0
 21 22  1  0
 23 24  1  0
 23 22  1  0
 25 24  1  1
 25 27  1  0
 26 25  1  0
 27 29  1  0
 28 27  2  0
M  END
$$$$
