WSM.pdb
     RDKit          3D

 29 30  0  0  1  0  0  0  0  0999 V2000
   24.7437  -20.7033  -15.4593 N   0  0  0  0  0  0  0  0  0  0  0  0
   23.3956  -20.2533  -15.5043 C   0  0  1  0  0  0  0  0  0  0  0  0
   22.7512  -20.3263  -16.8624 C   0  0  0  0  0  0  0  0  0  0  0  0
   23.3376  -19.4156  -17.8609 C   0  0  0  0  0  0  0  0  0  0  0  0
   24.2966  -19.7741  -18.7949 C   0  0  0  0  0  0  0  0  0  0  0  0
   24.6045  -18.7302  -19.5669 N   0  0  0  0  0  0  0  0  0  0  0  0
   23.8565  -17.6900  -19.1478 C   0  0  0  0  0  0  0  0  0  0  0  0
   23.7919  -16.3860  -19.5981 C   0  0  0  0  0  0  0  0  0  0  0  0
   22.9276  -15.4929  -18.9789 C   0  0  0  0  0  0  0  0  0  0  0  0
   22.1506  -15.8979  -17.9373 C   0  0  0  0  0  0  0  0  0  0  0  0
   22.2061  -17.1881  -17.4823 C   0  0  0  0  0  0  0  0  0  0  0  0
   23.0548  -18.0886  -18.0817 C   0  0  0  0  0  0  0  0  0  0  0  0
   22.5516  -20.9546  -14.4787 C   0  0  0  0  0  0  0  0  0  0  0  0
   22.6952  -22.1605  -14.2086 O   0  0  0  0  0  0  0  0  0  0  0  0
   20.6813  -18.5131  -12.1601 O   0  0  0  0  0  0  0  0  0  0  0  0
   20.0441  -19.7482  -11.8979 C   0  0  0  0  0  0  0  0  0  0  0  0
   20.6254  -20.7418  -12.8492 C   0  0  2  0  0  0  0  0  0  0  0  0
   21.5505  -20.1990  -13.7957 N   0  0  0  0  0  0  0  0  0  0  0  0
   19.4960  -21.3956  -13.5772 C   0  0  0  0  0  0  0  0  0  0  0  0
   19.0807  -20.8628  -14.6438 O   0  0  0  0  0  0  0  0  0  0  0  0
   14.8927  -27.7537  -14.8167 C   0  0  0  0  0  0  0  0  0  0  0  0
   16.2714  -27.0057  -13.8924 S   0  0  0  0  0  0  0  0  0  0  0  0
   16.4745  -25.2671  -14.3048 C   0  0  0  0  0  0  0  0  0  0  0  0
   17.5474  -24.5864  -13.5400 C   0  0  0  0  0  0  0  0  0  0  0  0
   17.7321  -23.1196  -13.8572 C   0  0  2  0  0  0  0  0  0  0  0  0
   18.8700  -22.5677  -13.1437 N   0  0  0  0  0  0  0  0  0  0  0  0
   16.5591  -22.2863  -13.5387 C   0  0  0  0  0  0  0  0  0  0  0  0
   15.7070  -22.0282  -14.4188 O   0  0  0  0  0  0  0  0  0  0  0  0
   16.3726  -21.7739  -12.2718 O   0  0  0  0  0  0  0  0  0  0  0  0
  2  1  1  6
  2 13  1  0
  2  3  1  0
  3  4  1  0
  4  5  2  0
  4 12  1  0
  5  6  1  0
  6  7  1  0
  7  8  2  0
  8  9  1  0
 10  9  2  0
 11 10  1  0
 12 11  2  0
 12  7  1  0
 13 18  1  0
 14 13  2  0
 17 16  1  1
 16 15  1  0
 17 19  1  0
 18 17  1  0
 19 26  1  0
 19 20  2  0
 21 22  1  0
 23 24  1  0
 23 22  1  0
 25 24  1  1
 25 27  1  0
 26 25  1  0
 27 29  1  0
 28 27  2  0
M  END
$$$$
