WSM.pdb
     RDKit          3D

 29 30  0  0  1  0  0  0  0  0999 V2000
   24.3516  -21.3487   -7.5884 N   0  0  0  0  0  0  0  0  0  0  0  0
   25.1014  -20.5178   -8.4653 C   0  0  1  0  0  0  0  0  0  0  0  0
   26.4492  -20.1012   -7.9411 C   0  0  0  0  0  0  0  0  0  0  0  0
   26.5397  -20.0551   -6.4714 C   0  0  0  0  0  0  0  0  0  0  0  0
   25.6124  -20.6067   -5.6019 C   0  0  0  0  0  0  0  0  0  0  0  0
   25.9915  -20.4145   -4.3371 N   0  0  0  0  0  0  0  0  0  0  0  0
   27.1591  -19.7415   -4.3688 C   0  0  0  0  0  0  0  0  0  0  0  0
   27.9686  -19.2908   -3.3446 C   0  0  0  0  0  0  0  0  0  0  0  0
   29.1367  -18.6052   -3.6502 C   0  0  0  0  0  0  0  0  0  0  0  0
   29.4818  -18.3786   -4.9473 C   0  0  0  0  0  0  0  0  0  0  0  0
   28.6872  -18.8209   -5.9709 C   0  0  0  0  0  0  0  0  0  0  0  0
   27.5266  -19.5023   -5.6901 C   0  0  0  0  0  0  0  0  0  0  0  0
   25.2310  -21.1381   -9.8272 C   0  0  0  0  0  0  0  0  0  0  0  0
   25.7678  -22.2459  -10.0070 O   0  0  0  0  0  0  0  0  0  0  0  0
   24.1217  -18.6626  -12.9753 O   0  0  0  0  0  0  0  0  0  0  0  0
   24.1538  -20.0345  -13.3174 C   0  0  0  0  0  0  0  0  0  0  0  0
   25.0321  -20.7070  -12.3142 C   0  0  2  0  0  0  0  0  0  0  0  0
   24.7158  -20.4200  -10.9490 N   0  0  0  0  0  0  0  0  0  0  0  0
   26.4428  -20.3007  -12.5934 C   0  0  0  0  0  0  0  0  0  0  0  0
   26.8897  -19.2603  -12.0347 O   0  0  0  0  0  0  0  0  0  0  0  0
   31.0616  -22.9930  -10.3802 C   0  0  0  0  0  0  0  0  0  0  0  0
   32.0387  -22.3361  -11.7689 S   0  0  0  0  0  0  0  0  0  0  0  0
   31.0326  -21.3200  -12.8595 C   0  0  0  0  0  0  0  0  0  0  0  0
   29.5728  -21.5322  -12.7061 C   0  0  0  0  0  0  0  0  0  0  0  0
   28.7002  -20.6462  -13.5662 C   0  0  2  0  0  0  0  0  0  0  0  0
   27.2996  -21.0086  -13.4408 N   0  0  0  0  0  0  0  0  0  0  0  0
   29.0427  -20.6789  -14.9992 C   0  0  0  0  0  0  0  0  0  0  0  0
   28.4353  -21.4474  -15.7788 O   0  0  0  0  0  0  0  0  0  0  0  0
   30.0340  -19.8693  -15.5130 O   0  0  0  0  0  0  0  0  0  0  0  0
  2  1  1  1
  2 13  1  0
  2  3  1  0
  3  4  1  0
  4  5  2  0
  4 12  1  0
  5  6  1  0
  6  7  1  0
  7  8  2  0
  8  9  1  0
 10  9  2  0
 11 10  1  0
 12 11  2  0
 12  7  1  0
 13 18  1  0
 14 13  2  0
 17 16  1  6
 16 15  1  0
 17 19  1  0
 18 17  1  0
 19 26  1  0
 19 20  2  0
 21 22  1  0
 23 24  1  0
 23 22  1  0
 25 24  1  1
 25 27  1  0
 26 25  1  0
 27 29  1  0
 28 27  2  0
M  END
$$$$
