KWN.pdb
     RDKit          3D

 32 33  0  0  1  0  0  0  0  0999 V2000
    8.4863  -17.0896   18.9181 N   0  0  0  0  0  0  0  0  0  0  0  0
    8.7289  -15.7141   19.2051 C   0  0  1  0  0  0  0  0  0  0  0  0
    8.2064  -14.7977   18.1767 C   0  0  0  0  0  0  0  0  0  0  0  0
    8.6907  -15.0833   16.7986 C   0  0  0  0  0  0  0  0  0  0  0  0
    7.5916  -15.4815   15.8676 C   0  0  0  0  0  0  0  0  0  0  0  0
    8.2263  -15.7519   14.4928 C   0  0  0  0  0  0  0  0  0  0  0  0
    7.1708  -16.2353   13.6337 N   0  0  0  0  0  0  0  0  0  0  0  0
    8.3038  -15.3419   20.5924 C   0  0  0  0  0  0  0  0  0  0  0  0
    7.0878  -15.3608   20.9167 O   0  0  0  0  0  0  0  0  0  0  0  0
    9.2223  -14.9529   21.6076 N   0  0  0  0  0  0  0  0  0  0  0  0
    8.9412  -15.1038   23.0152 C   0  0  1  0  0  0  0  0  0  0  0  0
    7.4997  -15.4618   23.2874 C   0  0  0  0  0  0  0  0  0  0  0  0
    7.0175  -15.0913   24.6134 C   0  0  0  0  0  0  0  0  0  0  0  0
    6.3664  -15.8683   25.5392 C   0  0  0  0  0  0  0  0  0  0  0  0
    6.1138  -15.1098   26.6195 N   0  0  0  0  0  0  0  0  0  0  0  0
    6.5780  -13.8747   26.4232 C   0  0  0  0  0  0  0  0  0  0  0  0
    6.5867  -12.7238   27.1871 C   0  0  0  0  0  0  0  0  0  0  0  0
    7.1344  -11.5400   26.7691 C   0  0  0  0  0  0  0  0  0  0  0  0
    7.7112  -11.5053   25.5043 C   0  0  0  0  0  0  0  0  0  0  0  0
    7.7064  -12.6519   24.7344 C   0  0  0  0  0  0  0  0  0  0  0  0
    7.1464  -13.8421   25.1757 C   0  0  0  0  0  0  0  0  0  0  0  0
    9.7586  -16.2472   23.5138 C   0  0  0  0  0  0  0  0  0  0  0  0
    9.4664  -17.4115   23.0831 O   0  0  0  0  0  0  0  0  0  0  0  0
   13.0547  -17.5613   22.4302 N   0  0  0  0  0  0  0  0  0  0  0  0
   13.5875  -16.9643   23.5979 C   0  0  0  0  0  0  0  0  0  0  0  0
   14.6527  -16.2852   23.4384 O   0  0  0  0  0  0  0  0  0  0  0  0
   13.0224  -17.0597   24.9504 C   0  0  0  0  0  0  0  0  0  0  0  0
   11.5558  -17.3234   24.8870 C   0  0  2  0  0  0  0  0  0  0  0  0
   10.8184  -16.1426   24.4149 N   0  0  0  0  0  0  0  0  0  0  0  0
   11.0202  -17.6708   26.2164 C   0  0  0  0  0  0  0  0  0  0  0  0
   10.1988  -17.0127   26.8715 O   0  0  0  0  0  0  0  0  0  0  0  0
   11.4680  -18.8595   26.8235 O   0  0  0  0  0  0  0  0  0  0  0  0
  2  3  1  0
  2  1  1  6
  3  4  1  0
  5  4  1  0
  6  5  1  0
  7  6  1  0
  8  2  1  0
  8  9  2  0
 10  8  1  0
 11 22  1  0
 11 10  1  0
 11 12  1  6
 13 14  2  0
 13 12  1  0
 15 14  1  0
 16 21  2  0
 16 15  1  0
 17 16  1  0
 18 19  1  0
 18 17  2  0
 19 20  2  0
 20 21  1  0
 21 13  1  0
 22 29  1  0
 23 22  2  0
 24 25  1  0
 25 27  1  0
 26 25  2  0
 28 27  1  1
 28 30  1  0
 29 28  1  0
 30 31  2  0
 30 32  1  0
M  END
$$$$
