KWN.pdb
     RDKit          3D

 32 33  0  0  1  0  0  0  0  0999 V2000
    8.6257  -16.8071   18.5845 N   0  0  0  0  0  0  0  0  0  0  0  0
    9.5013  -15.7184   18.8695 C   0  0  1  0  0  0  0  0  0  0  0  0
    9.4192  -14.6246   17.8859 C   0  0  0  0  0  0  0  0  0  0  0  0
    8.4560  -14.8685   16.7776 C   0  0  0  0  0  0  0  0  0  0  0  0
    8.5190  -13.8218   15.7127 C   0  0  0  0  0  0  0  0  0  0  0  0
    7.5053  -14.2103   14.6230 C   0  0  0  0  0  0  0  0  0  0  0  0
    7.6113  -13.2161   13.5809 N   0  0  0  0  0  0  0  0  0  0  0  0
    9.3735  -15.2447   20.2848 C   0  0  0  0  0  0  0  0  0  0  0  0
   10.0628  -14.2775   20.7016 O   0  0  0  0  0  0  0  0  0  0  0  0
    8.4879  -15.8411   21.2259 N   0  0  0  0  0  0  0  0  0  0  0  0
    8.4303  -15.4361   22.6101 C   0  0  1  0  0  0  0  0  0  0  0  0
    7.0214  -15.4111   23.1528 C   0  0  0  0  0  0  0  0  0  0  0  0
    6.9180  -15.0861   24.5711 C   0  0  0  0  0  0  0  0  0  0  0  0
    6.5901  -15.9092   25.6198 C   0  0  0  0  0  0  0  0  0  0  0  0
    6.6203  -15.1812   26.7491 N   0  0  0  0  0  0  0  0  0  0  0  0
    6.9553  -13.9215   26.4661 C   0  0  0  0  0  0  0  0  0  0  0  0
    7.1290  -12.7835   27.2298 C   0  0  0  0  0  0  0  0  0  0  0  0
    7.4835  -11.5673   26.7091 C   0  0  0  0  0  0  0  0  0  0  0  0
    7.6769  -11.4839   25.3346 C   0  0  0  0  0  0  0  0  0  0  0  0
    7.5051  -12.6172   24.5642 C   0  0  0  0  0  0  0  0  0  0  0  0
    7.1456  -13.8409   25.1105 C   0  0  0  0  0  0  0  0  0  0  0  0
    9.1681  -16.4590   23.4058 C   0  0  0  0  0  0  0  0  0  0  0  0
    8.9078  -17.6857   23.1732 O   0  0  0  0  0  0  0  0  0  0  0  0
   13.1135  -19.0010   25.6595 N   0  0  0  0  0  0  0  0  0  0  0  0
   13.4417  -17.7239   25.1447 C   0  0  0  0  0  0  0  0  0  0  0  0
   14.6841  -17.4861   24.9984 O   0  0  0  0  0  0  0  0  0  0  0  0
   12.4862  -16.6729   24.7703 C   0  0  0  0  0  0  0  0  0  0  0  0
   11.0884  -17.1885   24.8390 C   0  0  2  0  0  0  0  0  0  0  0  0
   10.1212  -16.1789   24.3852 N   0  0  0  0  0  0  0  0  0  0  0  0
   10.7238  -17.5535   26.2206 C   0  0  0  0  0  0  0  0  0  0  0  0
   11.1941  -18.4919   26.8802 O   0  0  0  0  0  0  0  0  0  0  0  0
    9.7499  -16.7778   26.8780 O   0  0  0  0  0  0  0  0  0  0  0  0
  2  3  1  0
  2  1  1  6
  3  4  1  0
  5  4  1  0
  6  5  1  0
  7  6  1  0
  8  2  1  0
  8  9  2  0
 10  8  1  0
 11 22  1  0
 11 10  1  0
 11 12  1  1
 13 14  2  0
 13 12  1  0
 15 14  1  0
 16 21  2  0
 16 15  1  0
 17 16  1  0
 18 19  1  0
 18 17  2  0
 19 20  2  0
 20 21  1  0
 21 13  1  0
 22 29  1  0
 23 22  2  0
 24 25  1  0
 25 27  1  0
 26 25  2  0
 28 27  1  1
 28 30  1  0
 29 28  1  0
 30 31  2  0
 30 32  1  0
M  END
$$$$
