KWN.pdb
     RDKit          3D

 32 33  0  0  1  0  0  0  0  0999 V2000
    6.2216  -15.5680   20.8054 N   0  0  0  0  0  0  0  0  0  0  0  0
    7.5722  -15.1363   20.6544 C   0  0  1  0  0  0  0  0  0  0  0  0
    7.7217  -13.9743   19.7611 C   0  0  0  0  0  0  0  0  0  0  0  0
    7.3286  -14.2326   18.3490 C   0  0  0  0  0  0  0  0  0  0  0  0
    8.1994  -13.5214   17.3644 C   0  0  0  0  0  0  0  0  0  0  0  0
    7.6859  -13.8708   15.9572 C   0  0  0  0  0  0  0  0  0  0  0  0
    8.4856  -13.1151   15.0216 N   0  0  0  0  0  0  0  0  0  0  0  0
    8.2589  -14.9539   21.9731 C   0  0  0  0  0  0  0  0  0  0  0  0
    8.4376  -13.8024   22.4487 O   0  0  0  0  0  0  0  0  0  0  0  0
    8.7415  -16.0417   22.7539 N   0  0  0  0  0  0  0  0  0  0  0  0
    9.4459  -15.8571   24.0000 C   0  0  1  0  0  0  0  0  0  0  0  0
    8.6357  -16.2905   25.1983 C   0  0  0  0  0  0  0  0  0  0  0  0
    7.5140  -15.4174   25.5264 C   0  0  0  0  0  0  0  0  0  0  0  0
    6.1704  -15.6977   25.4999 C   0  0  0  0  0  0  0  0  0  0  0  0
    5.5046  -14.5942   25.8813 N   0  0  0  0  0  0  0  0  0  0  0  0
    6.3695  -13.6154   26.1521 C   0  0  0  0  0  0  0  0  0  0  0  0
    6.2318  -12.3072   26.5740 C   0  0  0  0  0  0  0  0  0  0  0  0
    7.2897  -11.4651   26.7921 C   0  0  0  0  0  0  0  0  0  0  0  0
    8.5692  -11.9643   26.5740 C   0  0  0  0  0  0  0  0  0  0  0  0
    8.7151  -13.2713   26.1521 C   0  0  0  0  0  0  0  0  0  0  0  0
    7.6305  -14.1091   25.9365 C   0  0  0  0  0  0  0  0  0  0  0  0
   10.6496  -16.7368   23.9672 C   0  0  0  0  0  0  0  0  0  0  0  0
   10.4648  -17.9790   23.7447 O   0  0  0  0  0  0  0  0  0  0  0  0
   13.8174  -14.7460   21.8991 N   0  0  0  0  0  0  0  0  0  0  0  0
   13.9962  -16.1118   22.2253 C   0  0  0  0  0  0  0  0  0  0  0  0
   13.8726  -16.9343   21.2612 O   0  0  0  0  0  0  0  0  0  0  0  0
   14.3089  -16.6471   23.5570 C   0  0  0  0  0  0  0  0  0  0  0  0
   13.0928  -17.2468   24.1782 C   0  0  2  0  0  0  0  0  0  0  0  0
   11.9626  -16.3071   24.1609 N   0  0  0  0  0  0  0  0  0  0  0  0
   13.3388  -17.6090   25.5864 C   0  0  0  0  0  0  0  0  0  0  0  0
   12.7767  -17.1222   26.5784 O   0  0  0  0  0  0  0  0  0  0  0  0
   14.3000  -18.6009   25.8595 O   0  0  0  0  0  0  0  0  0  0  0  0
  2  3  1  0
  2  1  1  1
  3  4  1  0
  5  4  1  0
  6  5  1  0
  7  6  1  0
  8  2  1  0
  8  9  2  0
 10  8  1  0
 11 22  1  0
 11 10  1  0
 11 12  1  1
 13 14  2  0
 13 12  1  0
 15 14  1  0
 16 21  2  0
 16 15  1  0
 17 16  1  0
 18 19  1  0
 18 17  2  0
 19 20  2  0
 20 21  1  0
 21 13  1  0
 22 29  1  0
 23 22  2  0
 24 25  1  0
 25 27  1  0
 26 25  2  0
 28 27  1  1
 28 30  1  0
 29 28  1  0
 30 31  2  0
 30 32  1  0
M  END
$$$$
