KWN.pdb
     RDKit          3D

 32 33  0  0  1  0  0  0  0  0999 V2000
    7.2011  -16.5195   20.7147 N   0  0  0  0  0  0  0  0  0  0  0  0
    8.2726  -15.6040   20.4981 C   0  0  1  0  0  0  0  0  0  0  0  0
    7.8633  -14.3752   19.7958 C   0  0  0  0  0  0  0  0  0  0  0  0
    6.9941  -14.6078   18.6102 C   0  0  0  0  0  0  0  0  0  0  0  0
    7.7475  -14.5635   17.3202 C   0  0  0  0  0  0  0  0  0  0  0  0
    7.8245  -13.0914   16.8809 C   0  0  0  0  0  0  0  0  0  0  0  0
    8.4442  -13.0770   15.5765 N   0  0  0  0  0  0  0  0  0  0  0  0
    9.0473  -15.3325   21.7511 C   0  0  0  0  0  0  0  0  0  0  0  0
    9.9625  -14.4686   21.7641 O   0  0  0  0  0  0  0  0  0  0  0  0
    8.8057  -16.0154   22.9763 N   0  0  0  0  0  0  0  0  0  0  0  0
    9.5378  -15.7305   24.1871 C   0  0  1  0  0  0  0  0  0  0  0  0
    8.7782  -16.1183   25.4333 C   0  0  0  0  0  0  0  0  0  0  0  0
    7.5451  -15.3711   25.6552 C   0  0  0  0  0  0  0  0  0  0  0  0
    6.2466  -15.7995   25.5319 C   0  0  0  0  0  0  0  0  0  0  0  0
    5.4357  -14.7721   25.8369 N   0  0  0  0  0  0  0  0  0  0  0  0
    6.1637  -13.6996   26.1517 C   0  0  0  0  0  0  0  0  0  0  0  0
    5.8503  -12.4094   26.5331 C   0  0  0  0  0  0  0  0  0  0  0  0
    6.7888  -11.4520   26.8132 C   0  0  0  0  0  0  0  0  0  0  0  0
    8.1285  -11.8085   26.7048 C   0  0  0  0  0  0  0  0  0  0  0  0
    8.4500  -13.0965   26.3241 C   0  0  0  0  0  0  0  0  0  0  0  0
    7.4844  -14.0527   26.0443 C   0  0  0  0  0  0  0  0  0  0  0  0
   10.7717  -16.5678   24.1705 C   0  0  0  0  0  0  0  0  0  0  0  0
   10.6704  -17.7562   23.7187 O   0  0  0  0  0  0  0  0  0  0  0  0
   15.1077  -17.9711   22.7516 N   0  0  0  0  0  0  0  0  0  0  0  0
   15.3630  -16.8412   23.5652 C   0  0  0  0  0  0  0  0  0  0  0  0
   16.4722  -16.2497   23.3625 O   0  0  0  0  0  0  0  0  0  0  0  0
   14.4704  -16.3044   24.6010 C   0  0  0  0  0  0  0  0  0  0  0  0
   13.1849  -17.0601   24.6264 C   0  0  2  0  0  0  0  0  0  0  0  0
   12.0286  -16.1526   24.6106 N   0  0  0  0  0  0  0  0  0  0  0  0
   13.0770  -17.8847   25.8443 C   0  0  0  0  0  0  0  0  0  0  0  0
   12.5092  -17.5651   26.8990 O   0  0  0  0  0  0  0  0  0  0  0  0
   13.6668  -19.1631   25.8359 O   0  0  0  0  0  0  0  0  0  0  0  0
  2  3  1  0
  2  1  1  1
  3  4  1  0
  5  4  1  0
  6  5  1  0
  7  6  1  0
  8  2  1  0
  8  9  2  0
 10  8  1  0
 11 22  1  0
 11 10  1  0
 11 12  1  1
 13 14  2  0
 13 12  1  0
 15 14  1  0
 16 21  2  0
 16 15  1  0
 17 16  1  0
 18 19  1  0
 18 17  2  0
 19 20  2  0
 20 21  1  0
 21 13  1  0
 22 29  1  0
 23 22  2  0
 24 25  1  0
 25 27  1  0
 26 25  2  0
 28 27  1  1
 28 30  1  0
 29 28  1  0
 30 31  2  0
 30 32  1  0
M  END
$$$$
