KWN.pdb
     RDKit          3D

 32 33  0  0  1  0  0  0  0  0999 V2000
    7.2519  -16.5645   20.3048 N   0  0  0  0  0  0  0  0  0  0  0  0
    8.2951  -15.5976   20.2049 C   0  0  1  0  0  0  0  0  0  0  0  0
    7.8765  -14.3466   19.5489 C   0  0  0  0  0  0  0  0  0  0  0  0
    7.2205  -14.5380   18.2266 C   0  0  0  0  0  0  0  0  0  0  0  0
    7.8269  -13.6969   17.1503 C   0  0  0  0  0  0  0  0  0  0  0  0
    6.9758  -13.8848   15.8829 C   0  0  0  0  0  0  0  0  0  0  0  0
    7.5177  -12.9971   14.8809 N   0  0  0  0  0  0  0  0  0  0  0  0
    8.9835  -15.3701   21.5156 C   0  0  0  0  0  0  0  0  0  0  0  0
    9.9456  -14.5632   21.6026 O   0  0  0  0  0  0  0  0  0  0  0  0
    8.6051  -16.0336   22.7166 N   0  0  0  0  0  0  0  0  0  0  0  0
    9.3127  -15.8585   23.9623 C   0  0  1  0  0  0  0  0  0  0  0  0
    8.4911  -16.2651   25.1623 C   0  0  0  0  0  0  0  0  0  0  0  0
    7.3873  -15.3660   25.4808 C   0  0  0  0  0  0  0  0  0  0  0  0
    6.0427  -15.6389   25.5275 C   0  0  0  0  0  0  0  0  0  0  0  0
    5.3974  -14.5095   25.8659 N   0  0  0  0  0  0  0  0  0  0  0  0
    6.2765  -13.5211   26.0385 C   0  0  0  0  0  0  0  0  0  0  0  0
    6.1613  -12.1882   26.3826 C   0  0  0  0  0  0  0  0  0  0  0  0
    7.2305  -11.3408   26.5034 C   0  0  0  0  0  0  0  0  0  0  0  0
    8.4979  -11.8607   26.2645 C   0  0  0  0  0  0  0  0  0  0  0  0
    8.6214  -13.1925   25.9201 C   0  0  0  0  0  0  0  0  0  0  0  0
    7.5256  -14.0353   25.8026 C   0  0  0  0  0  0  0  0  0  0  0  0
   10.4948  -16.7671   23.9361 C   0  0  0  0  0  0  0  0  0  0  0  0
   10.3140  -17.9561   23.5114 O   0  0  0  0  0  0  0  0  0  0  0  0
   15.7613  -18.3555   22.9740 N   0  0  0  0  0  0  0  0  0  0  0  0
   15.3262  -17.5900   24.0824 C   0  0  0  0  0  0  0  0  0  0  0  0
   15.9797  -17.7551   25.1627 O   0  0  0  0  0  0  0  0  0  0  0  0
   14.2073  -16.6383   24.0879 C   0  0  0  0  0  0  0  0  0  0  0  0
   12.9098  -17.3578   24.2411 C   0  0  2  0  0  0  0  0  0  0  0  0
   11.7837  -16.4182   24.3400 N   0  0  0  0  0  0  0  0  0  0  0  0
   12.9002  -18.1821   25.4639 C   0  0  0  0  0  0  0  0  0  0  0  0
   13.2521  -19.3675   25.5527 O   0  0  0  0  0  0  0  0  0  0  0  0
   12.4529  -17.5907   26.6607 O   0  0  0  0  0  0  0  0  0  0  0  0
  2  3  1  0
  2  1  1  1
  3  4  1  0
  5  4  1  0
  6  5  1  0
  7  6  1  0
  8  2  1  0
  8  9  2  0
 10  8  1  0
 11 22  1  0
 11 10  1  0
 11 12  1  1
 13 14  2  0
 13 12  1  0
 15 14  1  0
 16 21  2  0
 16 15  1  0
 17 16  1  0
 18 19  1  0
 18 17  2  0
 19 20  2  0
 20 21  1  0
 21 13  1  0
 22 29  1  0
 23 22  2  0
 24 25  1  0
 25 27  1  0
 26 25  2  0
 28 27  1  1
 28 30  1  0
 29 28  1  0
 30 31  2  0
 30 32  1  0
M  END
$$$$
