KWN.pdb
     RDKit          3D

 32 33  0  0  1  0  0  0  0  0999 V2000
    7.2098  -16.6910   20.8314 N   0  0  0  0  0  0  0  0  0  0  0  0
    8.2371  -15.7180   20.6549 C   0  0  1  0  0  0  0  0  0  0  0  0
    7.7667  -14.4750   20.0191 C   0  0  0  0  0  0  0  0  0  0  0  0
    7.5421  -14.5843   18.5519 C   0  0  0  0  0  0  0  0  0  0  0  0
    7.8824  -13.3282   17.8171 C   0  0  0  0  0  0  0  0  0  0  0  0
    7.6164  -13.5806   16.3233 C   0  0  0  0  0  0  0  0  0  0  0  0
    7.9315  -12.3535   15.6301 N   0  0  0  0  0  0  0  0  0  0  0  0
    9.0099  -15.4758   21.9150 C   0  0  0  0  0  0  0  0  0  0  0  0
    9.9471  -14.6360   21.9405 O   0  0  0  0  0  0  0  0  0  0  0  0
    8.7423  -16.1609   23.1335 N   0  0  0  0  0  0  0  0  0  0  0  0
    9.4752  -15.9059   24.3505 C   0  0  1  0  0  0  0  0  0  0  0  0
    8.6491  -16.1486   25.5910 C   0  0  0  0  0  0  0  0  0  0  0  0
    7.4675  -15.3019   25.7142 C   0  0  0  0  0  0  0  0  0  0  0  0
    6.1456  -15.6462   25.5778 C   0  0  0  0  0  0  0  0  0  0  0  0
    5.4028  -14.5441   25.7777 N   0  0  0  0  0  0  0  0  0  0  0  0
    6.1973  -13.5045   26.0376 C   0  0  0  0  0  0  0  0  0  0  0  0
    5.9674  -12.1702   26.3115 C   0  0  0  0  0  0  0  0  0  0  0  0
    6.9643  -11.2626   26.5527 C   0  0  0  0  0  0  0  0  0  0  0  0
    8.2773  -11.7195   26.5175 C   0  0  0  0  0  0  0  0  0  0  0  0
    8.5153  -13.0522   26.2443 C   0  0  0  0  0  0  0  0  0  0  0  0
    7.4914  -13.9567   26.0026 C   0  0  0  0  0  0  0  0  0  0  0  0
   10.6057  -16.8771   24.4029 C   0  0  0  0  0  0  0  0  0  0  0  0
   10.3167  -18.1189   24.3710 O   0  0  0  0  0  0  0  0  0  0  0  0
   14.5779  -15.1460   22.3705 N   0  0  0  0  0  0  0  0  0  0  0  0
   14.2272  -16.4592   22.7657 C   0  0  0  0  0  0  0  0  0  0  0  0
   13.7882  -17.2188   21.8428 O   0  0  0  0  0  0  0  0  0  0  0  0
   14.3283  -17.0074   24.1247 C   0  0  0  0  0  0  0  0  0  0  0  0
   13.0123  -17.5512   24.5684 C   0  0  2  0  0  0  0  0  0  0  0  0
   11.9552  -16.5333   24.4841 N   0  0  0  0  0  0  0  0  0  0  0  0
   13.0705  -18.0060   25.9701 C   0  0  0  0  0  0  0  0  0  0  0  0
   13.8534  -18.8462   26.4371 O   0  0  0  0  0  0  0  0  0  0  0  0
   12.1602  -17.4486   26.8881 O   0  0  0  0  0  0  0  0  0  0  0  0
  2  3  1  0
  2  1  1  1
  3  4  1  0
  5  4  1  0
  6  5  1  0
  7  6  1  0
  8  2  1  0
  8  9  2  0
 10  8  1  0
 11 22  1  0
 11 10  1  0
 11 12  1  1
 13 14  2  0
 13 12  1  0
 15 14  1  0
 16 21  2  0
 16 15  1  0
 17 16  1  0
 18 19  1  0
 18 17  2  0
 19 20  2  0
 20 21  1  0
 21 13  1  0
 22 29  1  0
 23 22  2  0
 24 25  1  0
 25 27  1  0
 26 25  2  0
 28 27  1  1
 28 30  1  0
 29 28  1  0
 30 31  2  0
 30 32  1  0
M  END
$$$$
