KWN.pdb
     RDKit          3D

 32 33  0  0  1  0  0  0  0  0999 V2000
    7.4554  -16.6242   21.1601 N   0  0  0  0  0  0  0  0  0  0  0  0
    8.5036  -15.6666   21.0288 C   0  0  1  0  0  0  0  0  0  0  0  0
    8.0705  -14.4017   20.4101 C   0  0  0  0  0  0  0  0  0  0  0  0
    7.4181  -14.5612   19.0819 C   0  0  0  0  0  0  0  0  0  0  0  0
    7.8668  -13.5392   18.0880 C   0  0  0  0  0  0  0  0  0  0  0  0
    7.1679  -13.8541   16.7545 C   0  0  0  0  0  0  0  0  0  0  0  0
    7.5776  -12.8343   15.8175 N   0  0  0  0  0  0  0  0  0  0  0  0
    9.2509  -15.4659   22.3115 C   0  0  0  0  0  0  0  0  0  0  0  0
   10.1994  -14.6412   22.3782 O   0  0  0  0  0  0  0  0  0  0  0  0
    8.9456  -16.1756   23.5068 N   0  0  0  0  0  0  0  0  0  0  0  0
    9.6144  -15.9196   24.7600 C   0  0  1  0  0  0  0  0  0  0  0  0
    8.6838  -16.0041   25.9461 C   0  0  0  0  0  0  0  0  0  0  0  0
    7.4924  -15.1678   25.8495 C   0  0  0  0  0  0  0  0  0  0  0  0
    6.1965  -15.5440   25.5969 C   0  0  0  0  0  0  0  0  0  0  0  0
    5.4311  -14.4393   25.6014 N   0  0  0  0  0  0  0  0  0  0  0  0
    6.1859  -13.3674   25.8475 C   0  0  0  0  0  0  0  0  0  0  0  0
    5.9204  -12.0165   25.9612 C   0  0  0  0  0  0  0  0  0  0  0  0
    6.8790  -11.0745   26.2250 C   0  0  0  0  0  0  0  0  0  0  0  0
    8.1891  -11.5124   26.3855 C   0  0  0  0  0  0  0  0  0  0  0  0
    8.4626  -12.8615   26.2733 C   0  0  0  0  0  0  0  0  0  0  0  0
    7.4772  -13.8008   26.0055 C   0  0  0  0  0  0  0  0  0  0  0  0
   10.6336  -16.9917   24.9494 C   0  0  0  0  0  0  0  0  0  0  0  0
   10.2639  -18.1965   24.7534 O   0  0  0  0  0  0  0  0  0  0  0  0
   14.7845  -15.5406   23.6392 N   0  0  0  0  0  0  0  0  0  0  0  0
   14.4146  -16.8775   23.9212 C   0  0  0  0  0  0  0  0  0  0  0  0
   14.1612  -17.6091   22.9103 O   0  0  0  0  0  0  0  0  0  0  0  0
   14.3040  -17.4787   25.2569 C   0  0  0  0  0  0  0  0  0  0  0  0
   12.8974  -17.8937   25.5286 C   0  0  2  0  0  0  0  0  0  0  0  0
   11.9605  -16.7796   25.3244 N   0  0  0  0  0  0  0  0  0  0  0  0
   12.7375  -18.3498   26.9219 C   0  0  0  0  0  0  0  0  0  0  0  0
   13.3790  -19.2542   27.4762 O   0  0  0  0  0  0  0  0  0  0  0  0
   11.7697  -17.7137   27.7226 O   0  0  0  0  0  0  0  0  0  0  0  0
  2  3  1  0
  2  1  1  1
  3  4  1  0
  5  4  1  0
  6  5  1  0
  7  6  1  0
  8  2  1  0
  8  9  2  0
 10  8  1  0
 11 22  1  0
 11 10  1  0
 11 12  1  1
 13 14  2  0
 13 12  1  0
 15 14  1  0
 16 21  2  0
 16 15  1  0
 17 16  1  0
 18 19  1  0
 18 17  2  0
 19 20  2  0
 20 21  1  0
 21 13  1  0
 22 29  1  0
 23 22  2  0
 24 25  1  0
 25 27  1  0
 26 25  2  0
 28 27  1  1
 28 30  1  0
 29 28  1  0
 30 31  2  0
 30 32  1  0
M  END
$$$$
