AFK.pdb
     RDKit          3D

 26 26  0  0  1  0  0  0  0  0999 V2000
   25.9390  -17.4477  -18.6284 C   0  0  0  0  0  0  0  0  0  0  0  0
   27.0742  -18.1879  -18.0031 C   0  0  2  0  0  0  0  0  0  0  0  0
   27.8275  -18.9284  -18.9808 N   0  0  0  0  0  0  0  0  0  0  0  0
   26.6663  -19.0301  -16.8499 C   0  0  0  0  0  0  0  0  0  0  0  0
   26.0595  -20.1151  -17.0379 O   0  0  0  0  0  0  0  0  0  0  0  0
   26.9313  -18.6685  -15.4990 N   0  0  0  0  0  0  0  0  0  0  0  0
   26.4569  -19.5029  -14.4122 C   0  0  1  0  0  0  0  0  0  0  0  0
   27.0814  -19.1282  -13.0939 C   0  0  0  0  0  0  0  0  0  0  0  0
   26.5360  -19.8581  -11.9509 C   0  0  0  0  0  0  0  0  0  0  0  0
   26.7307  -21.2142  -11.8010 C   0  0  0  0  0  0  0  0  0  0  0  0
   26.2015  -21.8709  -10.7099 C   0  0  0  0  0  0  0  0  0  0  0  0
   25.4822  -21.1615   -9.7797 C   0  0  0  0  0  0  0  0  0  0  0  0
   25.2709  -19.8045   -9.9026 C   0  0  0  0  0  0  0  0  0  0  0  0
   25.8097  -19.1739  -11.0005 C   0  0  0  0  0  0  0  0  0  0  0  0
   24.9934  -19.2765  -14.2913 C   0  0  0  0  0  0  0  0  0  0  0  0
   24.5579  -18.0828  -14.3009 O   0  0  0  0  0  0  0  0  0  0  0  0
   24.0397  -20.3027  -14.1650 N   0  0  0  0  0  0  0  0  0  0  0  0
   22.6324  -20.0148  -13.9637 C   0  0  1  0  0  0  0  0  0  0  0  0
   21.8589  -20.2842  -15.2328 C   0  0  0  0  0  0  0  0  0  0  0  0
   20.4017  -20.0635  -15.0575 C   0  0  0  0  0  0  0  0  0  0  0  0
   19.5792  -20.3892  -16.2740 C   0  0  0  0  0  0  0  0  0  0  0  0
   18.1426  -19.9987  -15.9924 C   0  0  0  0  0  0  0  0  0  0  0  0
   17.3021  -20.0663  -17.1480 N   0  0  0  0  0  0  0  0  0  0  0  0
   22.1788  -20.8212  -12.8138 C   0  0  0  0  0  0  0  0  0  0  0  0
   21.5454  -20.3045  -11.8307 O   0  0  0  0  0  0  0  0  0  0  0  0
   22.3939  -22.1962  -12.6938 O   0  0  0  0  0  0  0  0  0  0  0  0
  2  1  1  6
  3  2  1  0
  4  2  1  0
  4  5  2  0
  6  4  1  0
  7  6  1  0
  7  8  1  1
  9  8  1  0
  9 10  2  0
 11 10  1  0
 12 11  2  0
 13 14  2  0
 13 12  1  0
 14  9  1  0
 15  7  1  0
 16 15  2  0
 17 15  1  0
 18 19  1  6
 18 17  1  0
 20 19  1  0
 21 22  1  0
 21 20  1  0
 23 22  1  0
 24 26  1  0
 24 18  1  0
 25 24  2  0
M  END
$$$$
