AFK.pdb
     RDKit          3D

 26 26  0  0  1  0  0  0  0  0999 V2000
   25.7217  -26.9109  -15.4368 C   0  0  0  0  0  0  0  0  0  0  0  0
   25.9102  -25.9502  -16.5634 C   0  0  2  0  0  0  0  0  0  0  0  0
   27.2845  -25.5410  -16.6873 N   0  0  0  0  0  0  0  0  0  0  0  0
   24.9799  -24.7936  -16.5152 C   0  0  0  0  0  0  0  0  0  0  0  0
   24.9943  -24.0063  -15.5351 O   0  0  0  0  0  0  0  0  0  0  0  0
   24.0414  -24.5152  -17.5485 N   0  0  0  0  0  0  0  0  0  0  0  0
   23.1330  -23.3916  -17.4280 C   0  0  1  0  0  0  0  0  0  0  0  0
   22.7495  -22.8247  -18.7696 C   0  0  0  0  0  0  0  0  0  0  0  0
   21.7598  -21.7514  -18.6984 C   0  0  0  0  0  0  0  0  0  0  0  0
   20.4152  -21.9965  -18.8757 C   0  0  0  0  0  0  0  0  0  0  0  0
   19.5090  -20.9596  -18.8018 C   0  0  0  0  0  0  0  0  0  0  0  0
   19.9598  -19.6868  -18.5510 C   0  0  0  0  0  0  0  0  0  0  0  0
   21.2985  -19.4108  -18.3695 C   0  0  0  0  0  0  0  0  0  0  0  0
   22.1812  -20.4634  -18.4482 C   0  0  0  0  0  0  0  0  0  0  0  0
   21.8914  -23.8973  -16.7875 C   0  0  0  0  0  0  0  0  0  0  0  0
   21.4592  -25.0459  -17.1171 O   0  0  0  0  0  0  0  0  0  0  0  0
   21.1478  -23.1869  -15.8279 N   0  0  0  0  0  0  0  0  0  0  0  0
   19.9751  -23.7599  -15.1952 C   0  0  1  0  0  0  0  0  0  0  0  0
   20.1870  -23.8649  -13.7033 C   0  0  0  0  0  0  0  0  0  0  0  0
   19.7170  -25.1641  -13.1614 C   0  0  0  0  0  0  0  0  0  0  0  0
   20.6958  -26.2932  -13.3340 C   0  0  0  0  0  0  0  0  0  0  0  0
   20.0061  -27.5824  -12.9369 C   0  0  0  0  0  0  0  0  0  0  0  0
   20.7806  -28.7497  -13.2264 N   0  0  0  0  0  0  0  0  0  0  0  0
   18.8196  -22.9213  -15.5694 C   0  0  0  0  0  0  0  0  0  0  0  0
   18.7337  -21.6927  -15.2261 O   0  0  0  0  0  0  0  0  0  0  0  0
   17.7338  -23.3811  -16.3183 O   0  0  0  0  0  0  0  0  0  0  0  0
  2  1  1  1
  3  2  1  0
  4  2  1  0
  4  5  2  0
  6  4  1  0
  7  6  1  0
  7  8  1  6
  9  8  1  0
  9 10  2  0
 11 10  1  0
 12 11  2  0
 13 14  2  0
 13 12  1  0
 14  9  1  0
 15  7  1  0
 16 15  2  0
 17 15  1  0
 18 19  1  1
 18 17  1  0
 20 19  1  0
 21 22  1  0
 21 20  1  0
 23 22  1  0
 24 26  1  0
 24 18  1  0
 25 24  2  0
M  END
$$$$
