AFK.pdb
     RDKit          3D

 26 26  0  0  1  0  0  0  0  0999 V2000
   29.7987   -4.8162  -22.5595 C   0  0  0  0  0  0  0  0  0  0  0  0
   28.3245   -4.8742  -22.3340 C   0  0  2  0  0  0  0  0  0  0  0  0
   27.8469   -3.7048  -21.6441 N   0  0  0  0  0  0  0  0  0  0  0  0
   27.8750   -6.1331  -21.6870 C   0  0  0  0  0  0  0  0  0  0  0  0
   28.1418   -7.2460  -22.2075 O   0  0  0  0  0  0  0  0  0  0  0  0
   27.1352   -6.1538  -20.4712 N   0  0  0  0  0  0  0  0  0  0  0  0
   26.8228   -7.4146  -19.8267 C   0  0  1  0  0  0  0  0  0  0  0  0
   27.1215   -7.3874  -18.3508 C   0  0  0  0  0  0  0  0  0  0  0  0
   28.5117   -7.6967  -18.0217 C   0  0  0  0  0  0  0  0  0  0  0  0
   29.4626   -6.7063  -17.9022 C   0  0  0  0  0  0  0  0  0  0  0  0
   30.7653   -7.0344  -17.5905 C   0  0  0  0  0  0  0  0  0  0  0  0
   31.1020   -8.3524  -17.4017 C   0  0  0  0  0  0  0  0  0  0  0  0
   30.1729   -9.3648  -17.5146 C   0  0  0  0  0  0  0  0  0  0  0  0
   28.8805   -9.0100  -17.8263 C   0  0  0  0  0  0  0  0  0  0  0  0
   25.3618   -7.6364  -19.9808 C   0  0  0  0  0  0  0  0  0  0  0  0
   24.5753   -6.6503  -19.8265 O   0  0  0  0  0  0  0  0  0  0  0  0
   24.7761   -8.8774  -20.2898 N   0  0  0  0  0  0  0  0  0  0  0  0
   23.3428   -9.0228  -20.4585 C   0  0  1  0  0  0  0  0  0  0  0  0
   23.0311  -10.3159  -21.1744 C   0  0  0  0  0  0  0  0  0  0  0  0
   21.5740  -10.5000  -21.3880 C   0  0  0  0  0  0  0  0  0  0  0  0
   21.2091  -11.7972  -22.0564 C   0  0  0  0  0  0  0  0  0  0  0  0
   19.7043  -11.8336  -22.2294 C   0  0  0  0  0  0  0  0  0  0  0  0
   19.2466  -12.9794  -22.9532 N   0  0  0  0  0  0  0  0  0  0  0  0
   22.7306   -8.9278  -19.1189 C   0  0  0  0  0  0  0  0  0  0  0  0
   23.3348   -9.3309  -18.0667 O   0  0  0  0  0  0  0  0  0  0  0  0
   21.4599   -8.3993  -18.8791 O   0  0  0  0  0  0  0  0  0  0  0  0
  2  1  1  1
  3  2  1  0
  4  2  1  0
  4  5  2  0
  6  4  1  0
  7  6  1  0
  7  8  1  1
  9  8  1  0
  9 10  2  0
 11 10  1  0
 12 11  2  0
 13 14  2  0
 13 12  1  0
 14  9  1  0
 15  7  1  0
 16 15  2  0
 17 15  1  0
 18 19  1  1
 18 17  1  0
 20 19  1  0
 21 22  1  0
 21 20  1  0
 23 22  1  0
 24 26  1  0
 24 18  1  0
 25 24  2  0
M  END
$$$$
