AFK.pdb
     RDKit          3D

 26 26  0  0  1  0  0  0  0  0999 V2000
   31.3111  -22.4395   -9.9805 C   0  0  0  0  0  0  0  0  0  0  0  0
   30.2926  -21.5357  -10.5914 C   0  0  2  0  0  0  0  0  0  0  0  0
   30.7812  -20.1868  -10.7066 N   0  0  0  0  0  0  0  0  0  0  0  0
   28.9684  -21.6003   -9.9221 C   0  0  0  0  0  0  0  0  0  0  0  0
   28.3669  -22.6983   -9.8070 O   0  0  0  0  0  0  0  0  0  0  0  0
   28.3189  -20.4531   -9.3854 N   0  0  0  0  0  0  0  0  0  0  0  0
   26.9636  -20.5501   -8.8793 C   0  0  1  0  0  0  0  0  0  0  0  0
   26.6776  -19.5185   -7.8198 C   0  0  0  0  0  0  0  0  0  0  0  0
   27.3881  -19.7471   -6.5630 C   0  0  0  0  0  0  0  0  0  0  0  0
   27.2074  -20.9009   -5.8313 C   0  0  0  0  0  0  0  0  0  0  0  0
   27.8943  -21.0834   -4.6495 C   0  0  0  0  0  0  0  0  0  0  0  0
   28.7558  -20.1071   -4.2128 C   0  0  0  0  0  0  0  0  0  0  0  0
   28.9572  -18.9425   -4.9230 C   0  0  0  0  0  0  0  0  0  0  0  0
   28.2595  -18.7859   -6.0986 C   0  0  0  0  0  0  0  0  0  0  0  0
   26.0489  -20.2823  -10.0191 C   0  0  0  0  0  0  0  0  0  0  0  0
   26.2087  -19.2163  -10.6921 O   0  0  0  0  0  0  0  0  0  0  0  0
   25.0028  -21.1356  -10.4142 N   0  0  0  0  0  0  0  0  0  0  0  0
   24.2322  -20.8899  -11.6182 C   0  0  1  0  0  0  0  0  0  0  0  0
   24.4072  -22.0322  -12.5909 C   0  0  0  0  0  0  0  0  0  0  0  0
   23.5574  -21.8749  -13.7974 C   0  0  0  0  0  0  0  0  0  0  0  0
   23.7501  -22.9512  -14.8304 C   0  0  0  0  0  0  0  0  0  0  0  0
   22.8861  -22.6167  -16.0293 C   0  0  0  0  0  0  0  0  0  0  0  0
   23.6341  -22.1243  -17.1447 N   0  0  0  0  0  0  0  0  0  0  0  0
   22.8311  -20.6745  -11.2072 C   0  0  0  0  0  0  0  0  0  0  0  0
   22.4015  -21.0210  -10.0538 O   0  0  0  0  0  0  0  0  0  0  0  0
   21.8625  -20.0838  -12.0221 O   0  0  0  0  0  0  0  0  0  0  0  0
  2  1  1  1
  3  2  1  0
  4  2  1  0
  4  5  2  0
  6  4  1  0
  7  6  1  0
  7  8  1  1
  9  8  1  0
  9 10  2  0
 11 10  1  0
 12 11  2  0
 13 14  2  0
 13 12  1  0
 14  9  1  0
 15  7  1  0
 16 15  2  0
 17 15  1  0
 18 19  1  6
 18 17  1  0
 20 19  1  0
 21 22  1  0
 21 20  1  0
 23 22  1  0
 24 26  1  0
 24 18  1  0
 25 24  2  0
M  END
$$$$
