AFK.pdb
     RDKit          3D

 26 26  0  0  1  0  0  0  0  0999 V2000
   26.6370  -20.8605  -18.7763 C   0  0  0  0  0  0  0  0  0  0  0  0
   27.5476  -21.3468  -17.6984 C   0  0  2  0  0  0  0  0  0  0  0  0
   28.3147  -22.4870  -18.1261 N   0  0  0  0  0  0  0  0  0  0  0  0
   26.8576  -21.5848  -16.4050 C   0  0  0  0  0  0  0  0  0  0  0  0
   26.2333  -22.6576  -16.2053 O   0  0  0  0  0  0  0  0  0  0  0  0
   26.8621  -20.6373  -15.3428 N   0  0  0  0  0  0  0  0  0  0  0  0
   26.2341  -20.9567  -14.0755 C   0  0  1  0  0  0  0  0  0  0  0  0
   26.7636  -20.1084  -12.9493 C   0  0  0  0  0  0  0  0  0  0  0  0
   26.1462  -20.3896  -11.6546 C   0  0  0  0  0  0  0  0  0  0  0  0
   26.6191  -21.3883  -10.8311 C   0  0  0  0  0  0  0  0  0  0  0  0
   26.0120  -21.6262   -9.6159 C   0  0  0  0  0  0  0  0  0  0  0  0
   24.9364  -20.8602   -9.2382 C   0  0  0  0  0  0  0  0  0  0  0  0
   24.4410  -19.8544  -10.0406 C   0  0  0  0  0  0  0  0  0  0  0  0
   25.0652  -19.6381  -11.2477 C   0  0  0  0  0  0  0  0  0  0  0  0
   24.7856  -20.6567  -14.2152 C   0  0  0  0  0  0  0  0  0  0  0  0
   24.4386  -19.5837  -14.8010 O   0  0  0  0  0  0  0  0  0  0  0  0
   23.7542  -21.4861  -13.7391 N   0  0  0  0  0  0  0  0  0  0  0  0
   22.3587  -21.1061  -13.8487 C   0  0  1  0  0  0  0  0  0  0  0  0
   21.5511  -22.2480  -14.4194 C   0  0  0  0  0  0  0  0  0  0  0  0
   20.1157  -21.9002  -14.5652 C   0  0  0  0  0  0  0  0  0  0  0  0
   19.2706  -23.0034  -15.1407 C   0  0  0  0  0  0  0  0  0  0  0  0
   17.8536  -22.4872  -15.2865 C   0  0  0  0  0  0  0  0  0  0  0  0
   16.9699  -23.4290  -15.9015 N   0  0  0  0  0  0  0  0  0  0  0  0
   21.9124  -20.6801  -12.5080 C   0  0  0  0  0  0  0  0  0  0  0  0
   21.1611  -19.6600  -12.3354 O   0  0  0  0  0  0  0  0  0  0  0  0
   22.2611  -21.3376  -11.3258 O   0  0  0  0  0  0  0  0  0  0  0  0
  2  1  1  6
  3  2  1  0
  4  2  1  0
  4  5  2  0
  6  4  1  0
  7  6  1  0
  7  8  1  1
  9  8  1  0
  9 10  2  0
 11 10  1  0
 12 11  2  0
 13 14  2  0
 13 12  1  0
 14  9  1  0
 15  7  1  0
 16 15  2  0
 17 15  1  0
 18 19  1  1
 18 17  1  0
 20 19  1  0
 21 22  1  0
 21 20  1  0
 23 22  1  0
 24 26  1  0
 24 18  1  0
 25 24  2  0
M  END
$$$$
