AFK.pdb
     RDKit          3D

 26 26  0  0  1  0  0  0  0  0999 V2000
   18.8516  -14.9935  -15.7980 C   0  0  0  0  0  0  0  0  0  0  0  0
   17.5015  -14.3621  -15.8757 C   0  0  2  0  0  0  0  0  0  0  0  0
   16.6417  -15.0596  -16.7953 N   0  0  0  0  0  0  0  0  0  0  0  0
   17.5468  -12.9020  -16.1435 C   0  0  0  0  0  0  0  0  0  0  0  0
   17.7672  -12.4751  -17.3053 O   0  0  0  0  0  0  0  0  0  0  0  0
   17.3486  -11.9251  -15.1275 N   0  0  0  0  0  0  0  0  0  0  0  0
   17.2908  -10.5169  -15.4684 C   0  0  1  0  0  0  0  0  0  0  0  0
   16.2238   -9.7884  -14.6945 C   0  0  0  0  0  0  0  0  0  0  0  0
   16.0675   -8.3862  -15.0767 C   0  0  0  0  0  0  0  0  0  0  0  0
   16.5828   -7.3663  -14.3062 C   0  0  0  0  0  0  0  0  0  0  0  0
   16.4165   -6.0544  -14.6972 C   0  0  0  0  0  0  0  0  0  0  0  0
   15.7350   -5.7777  -15.8570 C   0  0  0  0  0  0  0  0  0  0  0  0
   15.2083   -6.7765  -16.6482 C   0  0  0  0  0  0  0  0  0  0  0  0
   15.3885   -8.0766  -16.2352 C   0  0  0  0  0  0  0  0  0  0  0  0
   18.5986   -9.9201  -15.0926 C   0  0  0  0  0  0  0  0  0  0  0  0
   19.1097  -10.2277  -13.9706 O   0  0  0  0  0  0  0  0  0  0  0  0
   19.3238   -9.0257  -15.9005 N   0  0  0  0  0  0  0  0  0  0  0  0
   20.6166   -8.5084  -15.4943 C   0  0  1  0  0  0  0  0  0  0  0  0
   21.4304   -8.1280  -16.7086 C   0  0  0  0  0  0  0  0  0  0  0  0
   22.7380   -7.5299  -16.3410 C   0  0  0  0  0  0  0  0  0  0  0  0
   23.5956   -7.1542  -17.5182 C   0  0  0  0  0  0  0  0  0  0  0  0
   24.7940   -8.0808  -17.5457 C   0  0  0  0  0  0  0  0  0  0  0  0
   25.6519   -7.8613  -18.6691 N   0  0  0  0  0  0  0  0  0  0  0  0
   20.3697   -7.3821  -14.5730 C   0  0  0  0  0  0  0  0  0  0  0  0
   19.5743   -6.4257  -14.8687 O   0  0  0  0  0  0  0  0  0  0  0  0
   20.9690   -7.2573  -13.3174 O   0  0  0  0  0  0  0  0  0  0  0  0
  2  1  1  6
  3  2  1  0
  4  2  1  0
  4  5  2  0
  6  4  1  0
  7  6  1  0
  7  8  1  1
  9  8  1  0
  9 10  2  0
 11 10  1  0
 12 11  2  0
 13 14  2  0
 13 12  1  0
 14  9  1  0
 15  7  1  0
 16 15  2  0
 17 15  1  0
 18 19  1  6
 18 17  1  0
 20 19  1  0
 21 22  1  0
 21 20  1  0
 23 22  1  0
 24 26  1  0
 24 18  1  0
 25 24  2  0
M  END
$$$$
