AFK.pdb
     RDKit          3D

 26 26  0  0  1  0  0  0  0  0999 V2000
   26.8428  -21.0945  -18.2448 C   0  0  0  0  0  0  0  0  0  0  0  0
   27.8708  -21.4418  -17.2201 C   0  0  2  0  0  0  0  0  0  0  0  0
   28.6909  -22.5459  -17.6442 N   0  0  0  0  0  0  0  0  0  0  0  0
   27.3051  -21.6488  -15.8626 C   0  0  0  0  0  0  0  0  0  0  0  0
   26.8484  -22.7715  -15.5284 O   0  0  0  0  0  0  0  0  0  0  0  0
   27.2480  -20.6157  -14.8851 N   0  0  0  0  0  0  0  0  0  0  0  0
   26.6747  -20.8758  -13.5790 C   0  0  1  0  0  0  0  0  0  0  0  0
   27.1697  -19.9063  -12.5381 C   0  0  0  0  0  0  0  0  0  0  0  0
   26.7973  -20.2639  -11.1705 C   0  0  0  0  0  0  0  0  0  0  0  0
   25.7240  -19.6752  -10.5374 C   0  0  0  0  0  0  0  0  0  0  0  0
   25.4011  -20.0367   -9.2463 C   0  0  0  0  0  0  0  0  0  0  0  0
   26.1577  -20.9850   -8.6025 C   0  0  0  0  0  0  0  0  0  0  0  0
   27.2369  -21.5912   -9.2099 C   0  0  0  0  0  0  0  0  0  0  0  0
   27.5372  -21.2122  -10.4982 C   0  0  0  0  0  0  0  0  0  0  0  0
   25.2057  -20.6880  -13.6989 C   0  0  0  0  0  0  0  0  0  0  0  0
   24.7697  -19.6774  -14.3340 O   0  0  0  0  0  0  0  0  0  0  0  0
   24.2472  -21.5604  -13.1524 N   0  0  0  0  0  0  0  0  0  0  0  0
   22.8252  -21.2982  -13.2663 C   0  0  1  0  0  0  0  0  0  0  0  0
   22.0649  -22.5969  -13.3969 C   0  0  0  0  0  0  0  0  0  0  0  0
   20.6001  -22.3801  -13.4966 C   0  0  0  0  0  0  0  0  0  0  0  0
   19.8023  -23.6419  -13.6809 C   0  0  0  0  0  0  0  0  0  0  0  0
   18.3444  -23.2613  -13.8394 C   0  0  0  0  0  0  0  0  0  0  0  0
   17.5090  -24.3643  -14.2021 N   0  0  0  0  0  0  0  0  0  0  0  0
   22.4300  -20.4990  -12.0901 C   0  0  0  0  0  0  0  0  0  0  0  0
   21.3569  -19.8040  -12.0718 O   0  0  0  0  0  0  0  0  0  0  0  0
   23.1751  -20.4280  -10.9108 O   0  0  0  0  0  0  0  0  0  0  0  0
  2  1  1  6
  3  2  1  0
  4  2  1  0
  4  5  2  0
  6  4  1  0
  7  6  1  0
  7  8  1  1
  9  8  1  0
  9 10  2  0
 11 10  1  0
 12 11  2  0
 13 14  2  0
 13 12  1  0
 14  9  1  0
 15  7  1  0
 16 15  2  0
 17 15  1  0
 18 19  1  1
 18 17  1  0
 20 19  1  0
 21 22  1  0
 21 20  1  0
 23 22  1  0
 24 26  1  0
 24 18  1  0
 25 24  2  0
M  END
$$$$
