QPI.pdb
     RDKit          3D

 25 25  0  0  1  0  0  0  0  0999 V2000
   12.5328  -20.5910   22.4867 N   0  0  0  0  0  0  0  0  0  0  0  0
   12.9248  -19.8515   21.3474 C   0  0  0  0  0  0  0  0  0  0  0  0
   14.1228  -19.5565   21.1654 O   0  0  0  0  0  0  0  0  0  0  0  0
   11.9146  -19.4067   20.3363 C   0  0  0  0  0  0  0  0  0  0  0  0
   10.9703  -18.4252   20.9447 C   0  0  0  0  0  0  0  0  0  0  0  0
   10.6253  -17.3047   20.0305 C   0  0  2  0  0  0  0  0  0  0  0  0
   11.8258  -16.7596   19.3869 N   0  0  0  0  0  0  0  0  0  0  0  0
    9.9300  -16.2160   20.7268 C   0  0  0  0  0  0  0  0  0  0  0  0
   10.4356  -15.0961   20.9705 O   0  0  0  0  0  0  0  0  0  0  0  0
    8.5937  -16.4066   21.1716 N   0  0  0  0  0  0  0  0  0  0  0  0
    7.7035  -17.5283   21.1741 C   0  0  0  0  0  0  0  0  0  0  0  0
    6.4604  -16.8890   20.5310 C   0  0  0  0  0  0  0  0  0  0  0  0
    6.3918  -15.6037   21.3759 C   0  0  0  0  0  0  0  0  0  0  0  0
    7.8166  -15.3461   21.8127 C   0  0  1  0  0  0  0  0  0  0  0  0
    7.9240  -15.5327   23.2790 C   0  0  0  0  0  0  0  0  0  0  0  0
    8.4415  -16.5941   23.7769 O   0  0  0  0  0  0  0  0  0  0  0  0
    5.9549  -11.1202   25.9792 C   0  0  0  0  0  0  0  0  0  0  0  0
    7.0653  -12.0022   25.3852 C   0  0  0  0  0  0  0  0  0  0  0  0
    7.0084  -13.2964   26.1145 C   0  0  2  0  0  0  0  0  0  0  0  0
    7.4036  -13.1633   27.5778 C   0  0  0  0  0  0  0  0  0  0  0  0
    7.8292  -14.4099   25.5335 C   0  0  2  0  0  0  0  0  0  0  0  0
    7.4371  -14.5013   24.1240 N   0  0  0  0  0  0  0  0  0  0  0  0
    7.6824  -15.7053   26.2136 C   0  0  0  0  0  0  0  0  0  0  0  0
    6.6558  -16.6013   25.9443 O   0  0  0  0  0  0  0  0  0  0  0  0
    8.5091  -16.0544   27.0898 O   0  0  0  0  0  0  0  0  0  0  0  0
  2  1  1  0
  2  3  2  0
  4  2  1  0
  5  4  1  0
  6  5  1  0
  6  7  1  1
  8  6  1  0
  8 10  1  0
  9  8  2  0
 10 14  1  0
 10 11  1  0
 11 12  1  0
 13 12  1  0
 14 13  1  0
 14 15  1  1
 16 15  2  0
 18 17  1  0
 19 18  1  0
 19 21  1  0
 19 20  1  1
 21 22  1  6
 21 23  1  0
 22 15  1  0
 23 25  2  0
 23 24  1  0
M  END
$$$$
