QPI.pdb
     RDKit          3D

 25 25  0  0  1  0  0  0  0  0999 V2000
   11.7271  -20.4345   22.8034 N   0  0  0  0  0  0  0  0  0  0  0  0
   12.5478  -19.2866   22.8875 C   0  0  0  0  0  0  0  0  0  0  0  0
   13.4469  -19.2127   23.7486 O   0  0  0  0  0  0  0  0  0  0  0  0
   12.3576  -18.1367   21.9481 C   0  0  0  0  0  0  0  0  0  0  0  0
   11.2089  -18.3996   21.0335 C   0  0  0  0  0  0  0  0  0  0  0  0
   10.8728  -17.2365   20.1707 C   0  0  2  0  0  0  0  0  0  0  0  0
   12.0849  -16.6205   19.6192 N   0  0  0  0  0  0  0  0  0  0  0  0
   10.1125  -16.2112   20.8948 C   0  0  0  0  0  0  0  0  0  0  0  0
   10.5576  -15.0784   21.1908 O   0  0  0  0  0  0  0  0  0  0  0  0
    8.7798  -16.4843   21.3063 N   0  0  0  0  0  0  0  0  0  0  0  0
    7.9718  -17.6665   21.3183 C   0  0  0  0  0  0  0  0  0  0  0  0
    6.7072  -17.1374   20.6195 C   0  0  0  0  0  0  0  0  0  0  0  0
    6.5212  -15.8361   21.4212 C   0  0  0  0  0  0  0  0  0  0  0  0
    7.9098  -15.4641   21.8909 C   0  0  1  0  0  0  0  0  0  0  0  0
    7.9844  -15.5994   23.3649 C   0  0  0  0  0  0  0  0  0  0  0  0
    8.5301  -16.6223   23.9107 O   0  0  0  0  0  0  0  0  0  0  0  0
    5.5133  -11.3701   25.7592 C   0  0  0  0  0  0  0  0  0  0  0  0
    6.7815  -12.1157   25.3123 C   0  0  0  0  0  0  0  0  0  0  0  0
    6.8380  -13.3659   26.1147 C   0  0  2  0  0  0  0  0  0  0  0  0
    7.2293  -13.1161   27.5638 C   0  0  0  0  0  0  0  0  0  0  0  0
    7.7460  -14.4386   25.5893 C   0  0  2  0  0  0  0  0  0  0  0  0
    7.4334  -14.5625   24.1625 N   0  0  0  0  0  0  0  0  0  0  0  0
    7.6329  -15.7343   26.2752 C   0  0  0  0  0  0  0  0  0  0  0  0
    8.5342  -16.1753   27.2356 O   0  0  0  0  0  0  0  0  0  0  0  0
    6.6850  -16.5098   26.0049 O   0  0  0  0  0  0  0  0  0  0  0  0
  2  1  1  0
  2  3  2  0
  4  2  1  0
  5  4  1  0
  6  5  1  0
  6  7  1  1
  8  6  1  0
  8 10  1  0
  9  8  2  0
 10 14  1  0
 10 11  1  0
 11 12  1  0
 13 12  1  0
 14 13  1  0
 14 15  1  1
 16 15  2  0
 18 17  1  0
 19 18  1  0
 19 21  1  0
 19 20  1  1
 21 22  1  6
 21 23  1  0
 22 15  1  0
 23 25  2  0
 23 24  1  0
M  END
$$$$
