QPI.pdb
     RDKit          3D

 25 25  0  0  1  0  0  0  0  0999 V2000
    5.6350  -19.5327   24.1498 N   0  0  0  0  0  0  0  0  0  0  0  0
    5.9567  -19.1060   22.8410 C   0  0  0  0  0  0  0  0  0  0  0  0
    5.0645  -18.9808   21.9786 O   0  0  0  0  0  0  0  0  0  0  0  0
    7.3709  -18.7956   22.4609 C   0  0  0  0  0  0  0  0  0  0  0  0
    7.4157  -18.1450   21.1193 C   0  0  0  0  0  0  0  0  0  0  0  0
    8.7053  -17.4568   20.8480 C   0  0  2  0  0  0  0  0  0  0  0  0
    9.8268  -18.4020   20.8880 N   0  0  0  0  0  0  0  0  0  0  0  0
    8.9678  -16.3754   21.8048 C   0  0  0  0  0  0  0  0  0  0  0  0
    9.8959  -16.3856   22.6459 O   0  0  0  0  0  0  0  0  0  0  0  0
    8.1346  -15.2241   21.8099 N   0  0  0  0  0  0  0  0  0  0  0  0
    6.8955  -14.8980   21.1703 C   0  0  0  0  0  0  0  0  0  0  0  0
    7.2625  -13.5410   20.5445 C   0  0  0  0  0  0  0  0  0  0  0  0
    7.9137  -12.8821   21.7744 C   0  0  0  0  0  0  0  0  0  0  0  0
    8.4392  -14.0332   22.6027 C   0  0  1  0  0  0  0  0  0  0  0  0
    7.6688  -14.1238   23.8656 C   0  0  0  0  0  0  0  0  0  0  0  0
    6.5987  -14.8246   23.9414 O   0  0  0  0  0  0  0  0  0  0  0  0
   10.7498  -13.5602   28.3567 C   0  0  0  0  0  0  0  0  0  0  0  0
    9.7828  -14.1091   27.2949 C   0  0  0  0  0  0  0  0  0  0  0  0
    8.5918  -13.2195   27.3120 C   0  0  2  0  0  0  0  0  0  0  0  0
    7.9277  -13.1540   28.6794 C   0  0  0  0  0  0  0  0  0  0  0  0
    7.5197  -13.5445   26.3140 C   0  0  2  0  0  0  0  0  0  0  0  0
    8.1476  -13.4112   24.9961 N   0  0  0  0  0  0  0  0  0  0  0  0
    6.3097  -12.7152   26.4152 C   0  0  0  0  0  0  0  0  0  0  0  0
    5.1874  -13.0816   27.1471 O   0  0  0  0  0  0  0  0  0  0  0  0
    6.2507  -11.6114   25.8228 O   0  0  0  0  0  0  0  0  0  0  0  0
  2  1  1  0
  2  3  2  0
  4  2  1  0
  5  4  1  0
  6  5  1  0
  6  7  1  1
  8  6  1  0
  8 10  1  0
  9  8  2  0
 10 14  1  0
 10 11  1  0
 11 12  1  0
 13 12  1  0
 14 13  1  0
 14 15  1  1
 16 15  2  0
 18 17  1  0
 19 18  1  0
 19 21  1  0
 19 20  1  1
 21 22  1  6
 21 23  1  0
 22 15  1  0
 23 25  2  0
 23 24  1  0
M  END
$$$$
