QPI.pdb
     RDKit          3D

 25 25  0  0  1  0  0  0  0  0999 V2000
   12.1928  -14.3909   19.1368 N   0  0  0  0  0  0  0  0  0  0  0  0
   12.2723  -15.7141   18.6455 C   0  0  0  0  0  0  0  0  0  0  0  0
   13.1176  -16.0186   17.7806 O   0  0  0  0  0  0  0  0  0  0  0  0
   11.3469  -16.7770   19.1502 C   0  0  0  0  0  0  0  0  0  0  0  0
   10.4023  -16.2073   20.1544 C   0  0  0  0  0  0  0  0  0  0  0  0
    8.9901  -16.6079   19.9191 C   0  0  2  0  0  0  0  0  0  0  0  0
    8.4635  -15.9924   18.6957 N   0  0  0  0  0  0  0  0  0  0  0  0
    8.1171  -16.2446   21.0413 C   0  0  0  0  0  0  0  0  0  0  0  0
    7.4679  -15.1758   21.1146 O   0  0  0  0  0  0  0  0  0  0  0  0
    7.9738  -17.1373   22.1378 N   0  0  0  0  0  0  0  0  0  0  0  0
    8.5332  -18.4183   22.4489 C   0  0  0  0  0  0  0  0  0  0  0  0
    7.2513  -19.1984   22.7892 C   0  0  0  0  0  0  0  0  0  0  0  0
    6.5981  -18.1770   23.7383 C   0  0  0  0  0  0  0  0  0  0  0  0
    7.1364  -16.8339   23.2980 C   0  0  1  0  0  0  0  0  0  0  0  0
    8.0158  -16.2842   24.3568 C   0  0  0  0  0  0  0  0  0  0  0  0
    9.2754  -16.5194   24.3617 O   0  0  0  0  0  0  0  0  0  0  0  0
    5.8615  -11.6919   26.1013 C   0  0  0  0  0  0  0  0  0  0  0  0
    6.8854  -12.6760   25.5122 C   0  0  0  0  0  0  0  0  0  0  0  0
    7.3821  -13.4952   26.6490 C   0  0  2  0  0  0  0  0  0  0  0  0
    8.1604  -12.6751   27.6674 C   0  0  0  0  0  0  0  0  0  0  0  0
    8.2372  -14.6719   26.2813 C   0  0  2  0  0  0  0  0  0  0  0  0
    7.4258  -15.4861   25.3716 N   0  0  0  0  0  0  0  0  0  0  0  0
    8.7195  -15.4653   27.4215 C   0  0  0  0  0  0  0  0  0  0  0  0
    8.1113  -16.6372   27.8528 O   0  0  0  0  0  0  0  0  0  0  0  0
    9.7314  -15.0956   28.0635 O   0  0  0  0  0  0  0  0  0  0  0  0
  2  1  1  0
  2  3  2  0
  4  2  1  0
  5  4  1  0
  6  5  1  0
  6  7  1  6
  8  6  1  0
  8 10  1  0
  9  8  2  0
 10 14  1  0
 10 11  1  0
 11 12  1  0
 13 12  1  0
 14 13  1  0
 14 15  1  1
 16 15  2  0
 18 17  1  0
 19 18  1  0
 19 21  1  0
 19 20  1  1
 21 22  1  6
 21 23  1  0
 22 15  1  0
 23 25  2  0
 23 24  1  0
M  END
$$$$
