QPI.pdb
     RDKit          3D

 25 25  0  0  1  0  0  0  0  0999 V2000
   11.1627  -18.7847   24.5037 N   0  0  0  0  0  0  0  0  0  0  0  0
   11.7585  -18.8589   23.2239 C   0  0  0  0  0  0  0  0  0  0  0  0
   12.9982  -18.9252   23.1054 O   0  0  0  0  0  0  0  0  0  0  0  0
   10.9182  -18.8595   21.9850 C   0  0  0  0  0  0  0  0  0  0  0  0
   11.6312  -18.1632   20.8751 C   0  0  0  0  0  0  0  0  0  0  0  0
   10.7113  -17.4650   19.9389 C   0  0  2  0  0  0  0  0  0  0  0  0
   11.4361  -16.9519   18.7710 N   0  0  0  0  0  0  0  0  0  0  0  0
   10.0078  -16.3495   20.5827 C   0  0  0  0  0  0  0  0  0  0  0  0
   10.4905  -15.2038   20.7364 O   0  0  0  0  0  0  0  0  0  0  0  0
    8.6904  -16.5425   21.0796 N   0  0  0  0  0  0  0  0  0  0  0  0
    7.8319  -17.6837   21.1865 C   0  0  0  0  0  0  0  0  0  0  0  0
    6.5539  -17.1229   20.5384 C   0  0  0  0  0  0  0  0  0  0  0  0
    6.4739  -15.7838   21.2941 C   0  0  0  0  0  0  0  0  0  0  0  0
    7.9029  -15.4600   21.6689 C   0  0  1  0  0  0  0  0  0  0  0  0
    8.0567  -15.5407   23.1407 C   0  0  0  0  0  0  0  0  0  0  0  0
    8.6500  -16.5335   23.6926 O   0  0  0  0  0  0  0  0  0  0  0  0
    6.9800  -11.0914   27.2340 C   0  0  0  0  0  0  0  0  0  0  0  0
    7.7550  -12.4046   27.0371 C   0  0  0  0  0  0  0  0  0  0  0  0
    7.3611  -12.9283   25.7027 C   0  0  2  0  0  0  0  0  0  0  0  0
    5.8622  -13.1614   25.5828 C   0  0  0  0  0  0  0  0  0  0  0  0
    8.0420  -14.1936   25.2708 C   0  0  2  0  0  0  0  0  0  0  0  0
    7.5281  -14.4855   23.9294 N   0  0  0  0  0  0  0  0  0  0  0  0
    7.8525  -15.3369   26.1758 C   0  0  0  0  0  0  0  0  0  0  0  0
    8.7368  -15.6625   27.1962 O   0  0  0  0  0  0  0  0  0  0  0  0
    6.8506  -16.0808   26.0503 O   0  0  0  0  0  0  0  0  0  0  0  0
  2  1  1  0
  2  3  2  0
  4  2  1  0
  5  4  1  0
  6  5  1  0
  6  7  1  6
  8  6  1  0
  8 10  1  0
  9  8  2  0
 10 14  1  0
 10 11  1  0
 11 12  1  0
 13 12  1  0
 14 13  1  0
 14 15  1  1
 16 15  2  0
 18 17  1  0
 19 18  1  0
 19 21  1  0
 19 20  1  1
 21 22  1  6
 21 23  1  0
 22 15  1  0
 23 25  2  0
 23 24  1  0
M  END
$$$$
