QPI.pdb
     RDKit          3D

 25 25  0  0  1  0  0  0  0  0999 V2000
    9.2212  -20.9316   21.9096 N   0  0  0  0  0  0  0  0  0  0  0  0
   10.4972  -20.4431   22.2722 C   0  0  0  0  0  0  0  0  0  0  0  0
   11.1934  -21.0508   23.1097 O   0  0  0  0  0  0  0  0  0  0  0  0
   11.0409  -19.1891   21.6616 C   0  0  0  0  0  0  0  0  0  0  0  0
   10.0655  -18.6234   20.6850 C   0  0  0  0  0  0  0  0  0  0  0  0
   10.5095  -17.3307   20.1002 C   0  0  2  0  0  0  0  0  0  0  0  0
   11.9713  -17.2768   19.9870 N   0  0  0  0  0  0  0  0  0  0  0  0
   10.0566  -16.1805   20.8911 C   0  0  0  0  0  0  0  0  0  0  0  0
   10.8218  -15.3493   21.4320 O   0  0  0  0  0  0  0  0  0  0  0  0
    8.6651  -15.9620   21.0804 N   0  0  0  0  0  0  0  0  0  0  0  0
    7.4902  -16.6871   20.7005 C   0  0  0  0  0  0  0  0  0  0  0  0
    6.6770  -15.5592   20.0415 C   0  0  0  0  0  0  0  0  0  0  0  0
    6.8343  -14.4854   21.1336 C   0  0  0  0  0  0  0  0  0  0  0  0
    8.1401  -14.8155   21.8216 C   0  0  1  0  0  0  0  0  0  0  0  0
    7.8675  -15.2621   23.2082 C   0  0  0  0  0  0  0  0  0  0  0  0
    8.0567  -16.4789   23.5629 O   0  0  0  0  0  0  0  0  0  0  0  0
    6.4588  -10.9441   26.3903 C   0  0  0  0  0  0  0  0  0  0  0  0
    7.4069  -12.0215   25.8387 C   0  0  0  0  0  0  0  0  0  0  0  0
    6.8196  -13.3327   26.2206 C   0  0  2  0  0  0  0  0  0  0  0  0
    6.8258  -13.5627   27.7248 C   0  0  0  0  0  0  0  0  0  0  0  0
    7.4465  -14.5389   25.5856 C   0  0  2  0  0  0  0  0  0  0  0  0
    7.3889  -14.3040   24.1398 N   0  0  0  0  0  0  0  0  0  0  0  0
    6.8213  -15.8207   25.9436 C   0  0  0  0  0  0  0  0  0  0  0  0
    7.3452  -16.6921   26.8899 O   0  0  0  0  0  0  0  0  0  0  0  0
    5.7572  -16.1804   25.3859 O   0  0  0  0  0  0  0  0  0  0  0  0
  2  1  1  0
  2  3  2  0
  4  2  1  0
  5  4  1  0
  6  5  1  0
  6  7  1  1
  8  6  1  0
  8 10  1  0
  9  8  2  0
 10 14  1  0
 10 11  1  0
 11 12  1  0
 13 12  1  0
 14 13  1  0
 14 15  1  1
 16 15  2  0
 18 17  1  0
 19 18  1  0
 19 21  1  0
 19 20  1  1
 21 22  1  6
 21 23  1  0
 22 15  1  0
 23 25  2  0
 23 24  1  0
M  END
$$$$
