QPI.pdb
     RDKit          3D

 25 25  0  0  1  0  0  0  0  0999 V2000
    9.7997  -21.2221   23.4362 N   0  0  0  0  0  0  0  0  0  0  0  0
    9.4549  -20.5996   22.2147 C   0  0  0  0  0  0  0  0  0  0  0  0
    8.5476  -21.0686   21.4989 O   0  0  0  0  0  0  0  0  0  0  0  0
   10.1682  -19.3671   21.7532 C   0  0  0  0  0  0  0  0  0  0  0  0
    9.5204  -18.8231   20.5245 C   0  0  0  0  0  0  0  0  0  0  0  0
   10.1384  -17.5562   20.0520 C   0  0  2  0  0  0  0  0  0  0  0  0
   11.5818  -17.7181   19.8446 N   0  0  0  0  0  0  0  0  0  0  0  0
    9.9197  -16.4496   20.9908 C   0  0  0  0  0  0  0  0  0  0  0  0
   10.8324  -15.8625   21.6164 O   0  0  0  0  0  0  0  0  0  0  0  0
    8.5987  -15.9857   21.2347 N   0  0  0  0  0  0  0  0  0  0  0  0
    7.2996  -16.4665   20.8718 C   0  0  0  0  0  0  0  0  0  0  0  0
    6.6919  -15.1835   20.2783 C   0  0  0  0  0  0  0  0  0  0  0  0
    7.0759  -14.1999   21.3989 C   0  0  0  0  0  0  0  0  0  0  0  0
    8.3163  -14.7914   22.0306 C   0  0  1  0  0  0  0  0  0  0  0  0
    8.0039  -15.2332   23.4104 C   0  0  0  0  0  0  0  0  0  0  0  0
    7.8695  -16.4753   23.6952 O   0  0  0  0  0  0  0  0  0  0  0  0
    5.5567  -11.7268   27.0925 C   0  0  0  0  0  0  0  0  0  0  0  0
    6.1039  -12.6139   25.9621 C   0  0  0  0  0  0  0  0  0  0  0  0
    7.2871  -13.3210   26.5190 C   0  0  2  0  0  0  0  0  0  0  0  0
    8.5280  -12.4417   26.5656 C   0  0  0  0  0  0  0  0  0  0  0  0
    7.6725  -14.5946   25.8259 C   0  0  2  0  0  0  0  0  0  0  0  0
    7.8564  -14.2414   24.4151 N   0  0  0  0  0  0  0  0  0  0  0  0
    6.7113  -15.6967   25.9795 C   0  0  0  0  0  0  0  0  0  0  0  0
    6.7293  -16.5877   27.0448 O   0  0  0  0  0  0  0  0  0  0  0  0
    5.8126  -15.8732   25.1227 O   0  0  0  0  0  0  0  0  0  0  0  0
  2  1  1  0
  2  3  2  0
  4  2  1  0
  5  4  1  0
  6  5  1  0
  6  7  1  1
  8  6  1  0
  8 10  1  0
  9  8  2  0
 10 14  1  0
 10 11  1  0
 11 12  1  0
 13 12  1  0
 14 13  1  0
 14 15  1  1
 16 15  2  0
 18 17  1  0
 19 18  1  0
 19 21  1  0
 19 20  1  6
 21 22  1  6
 21 23  1  0
 22 15  1  0
 23 25  2  0
 23 24  1  0
M  END
$$$$
