QPI.pdb
     RDKit          3D

 25 25  0  0  1  0  0  0  0  0999 V2000
   12.9239  -18.1251   22.0361 N   0  0  0  0  0  0  0  0  0  0  0  0
   12.7388  -18.0487   20.6367 C   0  0  0  0  0  0  0  0  0  0  0  0
   13.6929  -18.2520   19.8597 O   0  0  0  0  0  0  0  0  0  0  0  0
   11.3977  -17.7231   20.0566 C   0  0  0  0  0  0  0  0  0  0  0  0
   10.3546  -18.6253   20.6251 C   0  0  0  0  0  0  0  0  0  0  0  0
    8.9847  -18.3098   20.1413 C   0  0  2  0  0  0  0  0  0  0  0  0
    9.0288  -17.5859   18.8659 N   0  0  0  0  0  0  0  0  0  0  0  0
    8.2260  -17.5098   21.1097 C   0  0  0  0  0  0  0  0  0  0  0  0
    7.8311  -16.3390   20.9043 O   0  0  0  0  0  0  0  0  0  0  0  0
    7.8996  -18.0643   22.3769 N   0  0  0  0  0  0  0  0  0  0  0  0
    8.2482  -19.2841   23.0414 C   0  0  0  0  0  0  0  0  0  0  0  0
    6.8502  -19.7764   23.4548 C   0  0  0  0  0  0  0  0  0  0  0  0
    6.3097  -18.4693   24.0631 C   0  0  0  0  0  0  0  0  0  0  0  0
    7.0609  -17.3665   23.3512 C   0  0  1  0  0  0  0  0  0  0  0  0
    7.9596  -16.6829   24.3112 C   0  0  0  0  0  0  0  0  0  0  0  0
    9.1859  -17.0328   24.4371 O   0  0  0  0  0  0  0  0  0  0  0  0
    5.7907  -11.9314   26.0426 C   0  0  0  0  0  0  0  0  0  0  0  0
    6.8212  -12.8502   25.3660 C   0  0  0  0  0  0  0  0  0  0  0  0
    7.4128  -13.6839   26.4455 C   0  0  2  0  0  0  0  0  0  0  0  0
    8.2387  -12.8693   27.4301 C   0  0  0  0  0  0  0  0  0  0  0  0
    8.2683  -14.8295   25.9911 C   0  0  2  0  0  0  0  0  0  0  0  0
    7.4261  -15.6249   25.0929 N   0  0  0  0  0  0  0  0  0  0  0  0
    8.8215  -15.6551   27.0748 C   0  0  0  0  0  0  0  0  0  0  0  0
    8.1600  -16.7473   27.6215 O   0  0  0  0  0  0  0  0  0  0  0  0
    9.9484  -15.3897   27.5570 O   0  0  0  0  0  0  0  0  0  0  0  0
  2  1  1  0
  2  3  2  0
  4  2  1  0
  5  4  1  0
  6  5  1  0
  6  7  1  6
  8  6  1  0
  8 10  1  0
  9  8  2  0
 10 14  1  0
 10 11  1  0
 11 12  1  0
 13 12  1  0
 14 13  1  0
 14 15  1  1
 16 15  2  0
 18 17  1  0
 19 18  1  0
 19 21  1  0
 19 20  1  1
 21 22  1  6
 21 23  1  0
 22 15  1  0
 23 25  2  0
 23 24  1  0
M  END
$$$$
