EYH.pdb
     RDKit          3D

 32 33  0  0  1  0  0  0  0  0999 V2000
    8.8146  -17.4415   19.3331 N   0  0  0  0  0  0  0  0  0  0  0  0
   10.0002  -17.6393   20.1434 C   0  0  1  0  0  0  0  0  0  0  0  0
   11.2022  -17.3377   19.2806 C   0  0  0  0  0  0  0  0  0  0  0  0
   10.8694  -17.7772   17.8671 C   0  0  0  0  0  0  0  0  0  0  0  0
   11.9667  -17.5267   16.9163 C   0  0  0  0  0  0  0  0  0  0  0  0
   12.7181  -18.5106   16.6225 O   0  0  0  0  0  0  0  0  0  0  0  0
    9.9164  -16.7500   21.3263 C   0  0  0  0  0  0  0  0  0  0  0  0
   10.8934  -16.5866   22.0696 O   0  0  0  0  0  0  0  0  0  0  0  0
   12.2397  -16.3082   16.3216 O   0  0  0  0  0  0  0  0  0  0  0  0
    6.4624  -11.6263   27.7201 O   0  0  0  0  0  0  0  0  0  0  0  0
    6.6691  -12.3167   26.5238 C   0  0  0  0  0  0  0  0  0  0  0  0
    6.1382  -13.5711   26.2829 C   0  0  0  0  0  0  0  0  0  0  0  0
    6.3549  -14.2299   25.0998 C   0  0  0  0  0  0  0  0  0  0  0  0
    7.1033  -13.6700   24.1168 C   0  0  0  0  0  0  0  0  0  0  0  0
    7.3785  -14.3313   22.8021 C   0  0  0  0  0  0  0  0  0  0  0  0
    8.5361  -15.2734   22.8293 C   0  0  2  0  0  0  0  0  0  0  0  0
    8.7343  -16.0549   21.6590 N   0  0  0  0  0  0  0  0  0  0  0  0
    8.3087  -16.1864   23.9749 C   0  0  0  0  0  0  0  0  0  0  0  0
    7.4119  -17.0570   23.8894 O   0  0  0  0  0  0  0  0  0  0  0  0
    7.6428  -12.4172   24.3378 C   0  0  0  0  0  0  0  0  0  0  0  0
    7.4317  -11.7302   25.5397 C   0  0  0  0  0  0  0  0  0  0  0  0
    9.0525  -16.1335   25.1748 N   0  0  0  0  0  0  0  0  0  0  0  0
    9.5116  -17.3391   25.8852 C   0  0  1  0  0  0  0  0  0  0  0  0
   10.2485  -18.2548   24.9472 C   0  0  0  0  0  0  0  0  0  0  0  0
   10.7603  -19.4086   25.6811 C   0  0  0  0  0  0  0  0  0  0  0  0
   10.6517  -19.6556   27.0416 C   0  0  0  0  0  0  0  0  0  0  0  0
   11.2546  -20.8205   27.3298 N   0  0  0  0  0  0  0  0  0  0  0  0
   11.7353  -21.3029   26.1791 C   0  0  0  0  0  0  0  0  0  0  0  0
   11.4346  -20.4454   25.1800 N   0  0  0  0  0  0  0  0  0  0  0  0
   10.3065  -16.8837   27.0378 C   0  0  0  0  0  0  0  0  0  0  0  0
   10.5777  -15.5419   27.2373 O   0  0  0  0  0  0  0  0  0  0  0  0
   10.7552  -17.7108   27.8633 O   0  0  0  0  0  0  0  0  0  0  0  0
  2  1  1  6
  2  3  1  0
  4  3  1  0
  5  6  2  0
  5  4  1  0
  7  2  1  0
  8  7  2  0
  9  5  1  0
 10 11  1  0
 11 12  2  0
 12 13  1  0
 14 15  1  0
 14 13  2  0
 16 15  1  6
 16 17  1  0
 17  7  1  0
 18 16  1  0
 19 18  2  0
 20 14  1  0
 21 20  2  0
 21 11  1  0
 22 18  1  0
 23 22  1  0
 23 24  1  6
 24 25  1  0
 25 29  1  0
 26 25  2  0
 26 27  1  0
 27 28  1  0
 29 28  2  0
 30 31  1  0
 30 23  1  0
 32 30  2  0
M  END
$$$$
