EYH.pdb
     RDKit          3D

 32 33  0  0  1  0  0  0  0  0999 V2000
   10.1464  -17.3576   17.9177 N   0  0  0  0  0  0  0  0  0  0  0  0
    9.8889  -17.9738   19.2044 C   0  0  1  0  0  0  0  0  0  0  0  0
   10.7535  -19.2077   19.3044 C   0  0  0  0  0  0  0  0  0  0  0  0
   10.5684  -19.9980   18.0225 C   0  0  0  0  0  0  0  0  0  0  0  0
   11.8066  -20.1033   17.2310 C   0  0  0  0  0  0  0  0  0  0  0  0
   11.8320  -20.9735   16.3031 O   0  0  0  0  0  0  0  0  0  0  0  0
   10.1887  -16.9861   20.2683 C   0  0  0  0  0  0  0  0  0  0  0  0
   11.2383  -16.3290   20.2485 O   0  0  0  0  0  0  0  0  0  0  0  0
   12.9381  -19.3304   17.4197 O   0  0  0  0  0  0  0  0  0  0  0  0
    7.5200  -11.9940   17.4615 O   0  0  0  0  0  0  0  0  0  0  0  0
    7.7031  -12.6834   18.6622 C   0  0  0  0  0  0  0  0  0  0  0  0
    6.9632  -13.8012   19.0033 C   0  0  0  0  0  0  0  0  0  0  0  0
    7.1610  -14.4619   20.1886 C   0  0  0  0  0  0  0  0  0  0  0  0
    8.0967  -14.0390   21.0749 C   0  0  0  0  0  0  0  0  0  0  0  0
    8.3662  -14.7125   22.3846 C   0  0  0  0  0  0  0  0  0  0  0  0
    9.4518  -15.7354   22.3267 C   0  0  2  0  0  0  0  0  0  0  0  0
    9.3042  -16.7493   21.3420 N   0  0  0  0  0  0  0  0  0  0  0  0
    9.4975  -16.3765   23.6626 C   0  0  0  0  0  0  0  0  0  0  0  0
    8.5044  -17.0307   24.0569 O   0  0  0  0  0  0  0  0  0  0  0  0
    8.8466  -12.9238   20.7530 C   0  0  0  0  0  0  0  0  0  0  0  0
    8.6579  -12.2372   19.5473 C   0  0  0  0  0  0  0  0  0  0  0  0
   10.6087  -16.2933   24.5309 N   0  0  0  0  0  0  0  0  0  0  0  0
   11.1730  -17.4646   25.2226 C   0  0  1  0  0  0  0  0  0  0  0  0
   11.4176  -18.5843   24.2489 C   0  0  0  0  0  0  0  0  0  0  0  0
   11.9538  -19.7454   24.9532 C   0  0  0  0  0  0  0  0  0  0  0  0
   11.4839  -20.3047   26.1322 C   0  0  0  0  0  0  0  0  0  0  0  0
   12.2490  -21.3591   26.4580 N   0  0  0  0  0  0  0  0  0  0  0  0
   13.1836  -21.4677   25.5079 C   0  0  0  0  0  0  0  0  0  0  0  0
   13.0031  -20.4882   24.5960 N   0  0  0  0  0  0  0  0  0  0  0  0
   12.3774  -17.0059   25.9346 C   0  0  0  0  0  0  0  0  0  0  0  0
   12.8009  -17.6216   27.0986 O   0  0  0  0  0  0  0  0  0  0  0  0
   13.0434  -16.0416   25.4948 O   0  0  0  0  0  0  0  0  0  0  0  0
  2  1  1  6
  2  3  1  0
  4  3  1  0
  5  6  2  0
  5  4  1  0
  7  2  1  0
  8  7  2  0
  9  5  1  0
 10 11  1  0
 11 12  2  0
 12 13  1  0
 14 15  1  0
 14 13  2  0
 16 15  1  1
 16 17  1  0
 17  7  1  0
 18 16  1  0
 19 18  2  0
 20 14  1  0
 21 20  2  0
 21 11  1  0
 22 18  1  0
 23 22  1  0
 23 24  1  6
 24 25  1  0
 25 29  1  0
 26 25  2  0
 26 27  1  0
 27 28  1  0
 29 28  2  0
 30 31  1  0
 30 23  1  0
 32 30  2  0
M  END
$$$$
