EYH.pdb
     RDKit          3D

 32 33  0  0  1  0  0  0  0  0999 V2000
    9.7679  -17.8937   19.3978 N   0  0  0  0  0  0  0  0  0  0  0  0
    9.6831  -18.0235   20.8392 C   0  0  1  0  0  0  0  0  0  0  0  0
   10.7068  -19.0467   21.2696 C   0  0  0  0  0  0  0  0  0  0  0  0
   10.4884  -20.2904   20.4285 C   0  0  0  0  0  0  0  0  0  0  0  0
   11.7244  -21.0646   20.2195 C   0  0  0  0  0  0  0  0  0  0  0  0
   12.7841  -20.6300   20.7737 O   0  0  0  0  0  0  0  0  0  0  0  0
    9.9238  -16.6932   21.4471 C   0  0  0  0  0  0  0  0  0  0  0  0
   10.9498  -16.0508   21.1857 O   0  0  0  0  0  0  0  0  0  0  0  0
   11.8188  -22.2231   19.4698 O   0  0  0  0  0  0  0  0  0  0  0  0
    7.4400  -12.9525   16.9350 O   0  0  0  0  0  0  0  0  0  0  0  0
    7.6018  -13.1474   18.3084 C   0  0  0  0  0  0  0  0  0  0  0  0
    8.4641  -12.3849   19.0755 C   0  0  0  0  0  0  0  0  0  0  0  0
    8.6064  -12.5948   20.4233 C   0  0  0  0  0  0  0  0  0  0  0  0
    7.9008  -13.5651   21.0561 C   0  0  0  0  0  0  0  0  0  0  0  0
    8.0056  -13.8475   22.5227 C   0  0  0  0  0  0  0  0  0  0  0  0
    9.1068  -14.7898   22.8802 C   0  0  2  0  0  0  0  0  0  0  0  0
    9.0073  -16.1012   22.3420 N   0  0  0  0  0  0  0  0  0  0  0  0
    9.1154  -14.8849   24.3596 C   0  0  0  0  0  0  0  0  0  0  0  0
    9.1709  -13.8317   25.0359 O   0  0  0  0  0  0  0  0  0  0  0  0
    7.0338  -14.3381   20.3075 C   0  0  0  0  0  0  0  0  0  0  0  0
    6.8762  -14.1376   18.9306 C   0  0  0  0  0  0  0  0  0  0  0  0
    9.0646  -16.1087   25.0635 N   0  0  0  0  0  0  0  0  0  0  0  0
    9.0313  -16.1851   26.5339 C   0  0  1  0  0  0  0  0  0  0  0  0
    7.6189  -16.0649   27.0360 C   0  0  0  0  0  0  0  0  0  0  0  0
    7.1680  -14.6810   26.9207 C   0  0  0  0  0  0  0  0  0  0  0  0
    6.0248  -14.2191   26.2854 C   0  0  0  0  0  0  0  0  0  0  0  0
    5.9660  -12.8821   26.3963 N   0  0  0  0  0  0  0  0  0  0  0  0
    7.0468  -12.5027   27.0861 C   0  0  0  0  0  0  0  0  0  0  0  0
    7.7748  -13.5950   27.4034 N   0  0  0  0  0  0  0  0  0  0  0  0
    9.7066  -17.4364   26.9158 C   0  0  0  0  0  0  0  0  0  0  0  0
   10.8192  -17.8896   26.2301 O   0  0  0  0  0  0  0  0  0  0  0  0
    9.2805  -18.1177   27.8756 O   0  0  0  0  0  0  0  0  0  0  0  0
  2  1  1  6
  2  3  1  0
  4  3  1  0
  5  6  2  0
  5  4  1  0
  7  2  1  0
  8  7  2  0
  9  5  1  0
 10 11  1  0
 11 12  2  0
 12 13  1  0
 14 15  1  0
 14 13  2  0
 16 15  1  1
 16 17  1  0
 17  7  1  0
 18 16  1  0
 19 18  2  0
 20 14  1  0
 21 20  2  0
 21 11  1  0
 22 18  1  0
 23 22  1  0
 23 24  1  6
 24 25  1  0
 25 29  1  0
 26 25  2  0
 26 27  1  0
 27 28  1  0
 29 28  2  0
 30 31  1  0
 30 23  1  0
 32 30  2  0
M  END
$$$$
