EVI.pdb
     RDKit          3D

 25 24  0  0  1  0  0  0  0  0999 V2000
   20.5134  -19.3052  -16.2737 N   0  0  0  0  0  0  0  0  0  0  0  0
   21.4534  -18.2644  -15.8429 C   0  0  1  0  0  0  0  0  0  0  0  0
   21.0722  -17.8986  -14.4281 C   0  0  0  0  0  0  0  0  0  0  0  0
   20.3931  -18.9866  -13.6649 C   0  0  0  0  0  0  0  0  0  0  0  0
   18.9412  -18.7509  -13.5691 C   0  0  0  0  0  0  0  0  0  0  0  0
   18.2449  -19.1117  -12.6112 O   0  0  0  0  0  0  0  0  0  0  0  0
   22.8406  -18.8413  -15.7713 C   0  0  0  0  0  0  0  0  0  0  0  0
   22.9322  -20.0858  -15.6552 O   0  0  0  0  0  0  0  0  0  0  0  0
   18.3209  -18.0797  -14.6266 O   0  0  0  0  0  0  0  0  0  0  0  0
   27.7371  -18.2971  -16.3150 C   0  0  0  0  0  0  0  0  0  0  0  0
   26.3345  -17.7071  -16.4829 C   0  0  1  0  0  0  0  0  0  0  0  0
   26.0233  -17.5113  -17.9340 C   0  0  0  0  0  0  0  0  0  0  0  0
   25.3099  -18.6148  -15.7886 C   0  0  2  0  0  0  0  0  0  0  0  0
   23.9937  -18.0239  -15.8315 N   0  0  0  0  0  0  0  0  0  0  0  0
   25.8018  -18.7960  -14.4015 C   0  0  0  0  0  0  0  0  0  0  0  0
   25.9778  -17.7850  -13.6937 O   0  0  0  0  0  0  0  0  0  0  0  0
   25.5594  -20.2549   -9.2797 C   0  0  0  0  0  0  0  0  0  0  0  0
   26.2874  -21.1761  -10.2375 C   0  0  0  0  0  0  0  0  0  0  0  0
   25.6924  -21.0824  -11.6230 C   0  0  2  0  0  0  0  0  0  0  0  0
   25.4628  -22.4626  -12.1810 C   0  0  0  0  0  0  0  0  0  0  0  0
   26.5923  -20.2422  -12.4747 C   0  0  2  0  0  0  0  0  0  0  0  0
   26.0874  -20.0625  -13.8247 N   0  0  0  0  0  0  0  0  0  0  0  0
   27.9455  -20.8393  -12.5729 C   0  0  0  0  0  0  0  0  0  0  0  0
   28.8008  -20.6726  -11.4914 O   0  0  0  0  0  0  0  0  0  0  0  0
   28.4027  -21.4798  -13.5287 O   0  0  0  0  0  0  0  0  0  0  0  0
  2  1  1  1
  3  2  1  0
  4  3  1  0
  5  6  2  0
  5  4  1  0
  7  2  1  0
  7  8  2  0
  9  5  1  0
 11 10  1  6
 11 12  1  0
 13 14  1  1
 13 11  1  0
 14  7  1  0
 15 13  1  0
 16 15  2  0
 18 17  1  0
 19 18  1  0
 19 20  1  6
 21 19  1  0
 21 22  1  6
 22 15  1  0
 23 24  1  0
 23 21  1  0
 25 23  2  0
M  END
$$$$
