EVI.pdb
     RDKit          3D

 25 24  0  0  1  0  0  0  0  0999 V2000
   28.5584  -21.0822  -15.6976 N   0  0  0  0  0  0  0  0  0  0  0  0
   27.8414  -20.1076  -14.8680 C   0  0  1  0  0  0  0  0  0  0  0  0
   27.2449  -19.0928  -15.8140 C   0  0  0  0  0  0  0  0  0  0  0  0
   28.2382  -18.3801  -16.6702 C   0  0  0  0  0  0  0  0  0  0  0  0
   28.2254  -18.8950  -18.0513 C   0  0  0  0  0  0  0  0  0  0  0  0
   27.4341  -19.7547  -18.4603 O   0  0  0  0  0  0  0  0  0  0  0  0
   26.6826  -20.7847  -14.1889 C   0  0  0  0  0  0  0  0  0  0  0  0
   26.0427  -21.6256  -14.8626 O   0  0  0  0  0  0  0  0  0  0  0  0
   29.1658  -18.3771  -18.9464 O   0  0  0  0  0  0  0  0  0  0  0  0
   26.7108  -21.5194  -10.2170 C   0  0  0  0  0  0  0  0  0  0  0  0
   25.3267  -21.0664  -10.6892 C   0  0  1  0  0  0  0  0  0  0  0  0
   25.0503  -19.6705  -10.2248 C   0  0  0  0  0  0  0  0  0  0  0  0
   25.2379  -21.1966  -12.2160 C   0  0  2  0  0  0  0  0  0  0  0  0
   26.3253  -20.4917  -12.8518 N   0  0  0  0  0  0  0  0  0  0  0  0
   23.9130  -20.6485  -12.5941 C   0  0  0  0  0  0  0  0  0  0  0  0
   23.7818  -19.4121  -12.6834 O   0  0  0  0  0  0  0  0  0  0  0  0
   19.6197  -21.4248  -16.6703 C   0  0  0  0  0  0  0  0  0  0  0  0
   19.9488  -20.9054  -15.2855 C   0  0  0  0  0  0  0  0  0  0  0  0
   21.2330  -21.5180  -14.7777 C   0  0  2  0  0  0  0  0  0  0  0  0
   21.1222  -23.0203  -14.7734 C   0  0  0  0  0  0  0  0  0  0  0  0
   21.5371  -20.9436  -13.4291 C   0  0  2  0  0  0  0  0  0  0  0  0
   22.7737  -21.4535  -12.8631 N   0  0  0  0  0  0  0  0  0  0  0  0
   20.4463  -21.2310  -12.4675 C   0  0  0  0  0  0  0  0  0  0  0  0
   19.3148  -20.4275  -12.5213 O   0  0  0  0  0  0  0  0  0  0  0  0
   20.4344  -22.1229  -11.6090 O   0  0  0  0  0  0  0  0  0  0  0  0
  2  1  1  6
  3  2  1  0
  4  3  1  0
  5  6  2  0
  5  4  1  0
  7  2  1  0
  7  8  2  0
  9  5  1  0
 11 10  1  6
 11 12  1  0
 13 14  1  6
 13 11  1  0
 14  7  1  0
 15 13  1  0
 16 15  2  0
 18 17  1  0
 19 18  1  0
 19 20  1  1
 21 19  1  0
 21 22  1  1
 22 15  1  0
 23 24  1  0
 23 21  1  0
 25 23  2  0
M  END
$$$$
