EVI.pdb
     RDKit          3D

 25 24  0  0  1  0  0  0  0  0999 V2000
   20.9805  -21.0096  -10.5427 N   0  0  0  0  0  0  0  0  0  0  0  0
   21.7230  -21.5294  -11.6964 C   0  0  1  0  0  0  0  0  0  0  0  0
   20.7921  -21.4426  -12.8824 C   0  0  0  0  0  0  0  0  0  0  0  0
   20.1957  -20.0933  -13.1086 C   0  0  0  0  0  0  0  0  0  0  0  0
   19.3980  -20.0587  -14.3477 C   0  0  0  0  0  0  0  0  0  0  0  0
   18.1942  -20.3421  -14.4019 O   0  0  0  0  0  0  0  0  0  0  0  0
   22.8799  -20.6173  -11.9993 C   0  0  0  0  0  0  0  0  0  0  0  0
   22.7790  -19.4274  -11.6190 O   0  0  0  0  0  0  0  0  0  0  0  0
   20.0465  -19.6825  -15.5274 O   0  0  0  0  0  0  0  0  0  0  0  0
   26.5523  -21.2837  -11.0315 C   0  0  0  0  0  0  0  0  0  0  0  0
   26.4761  -20.9775  -12.5296 C   0  0  1  0  0  0  0  0  0  0  0  0
   26.5827  -22.2414  -13.3245 C   0  0  0  0  0  0  0  0  0  0  0  0
   25.1805  -20.2117  -12.8310 C   0  0  2  0  0  0  0  0  0  0  0  0
   24.0324  -21.0735  -12.6812 N   0  0  0  0  0  0  0  0  0  0  0  0
   25.3242  -19.6992  -14.2150 C   0  0  0  0  0  0  0  0  0  0  0  0
   24.5944  -20.1749  -15.1066 O   0  0  0  0  0  0  0  0  0  0  0  0
   25.7281  -14.0682  -16.2663 C   0  0  0  0  0  0  0  0  0  0  0  0
   25.9019  -15.5344  -16.6067 C   0  0  0  0  0  0  0  0  0  0  0  0
   26.0234  -16.3628  -15.3492 C   0  0  2  0  0  0  0  0  0  0  0  0
   27.2212  -15.9180  -14.5513 C   0  0  0  0  0  0  0  0  0  0  0  0
   26.0715  -17.8094  -15.7315 C   0  0  2  0  0  0  0  0  0  0  0  0
   26.2511  -18.6901  -14.5905 N   0  0  0  0  0  0  0  0  0  0  0  0
   27.1746  -18.0735  -16.6857 C   0  0  0  0  0  0  0  0  0  0  0  0
   28.3350  -18.6473  -16.1827 O   0  0  0  0  0  0  0  0  0  0  0  0
   27.1735  -17.8345  -17.9004 O   0  0  0  0  0  0  0  0  0  0  0  0
  2  1  1  1
  3  2  1  0
  4  3  1  0
  5  6  2  0
  5  4  1  0
  7  2  1  0
  7  8  2  0
  9  5  1  0
 11 10  1  1
 11 12  1  0
 13 14  1  6
 13 11  1  0
 14  7  1  0
 15 13  1  0
 16 15  2  0
 18 17  1  0
 19 18  1  0
 19 20  1  6
 21 19  1  0
 21 22  1  1
 22 15  1  0
 23 24  1  0
 23 21  1  0
 25 23  2  0
M  END
$$$$
