EVI.pdb
     RDKit          3D

 25 24  0  0  1  0  0  0  0  0999 V2000
   26.4723  -19.3951  -18.2777 N   0  0  0  0  0  0  0  0  0  0  0  0
   26.9328  -18.6942  -17.0739 C   0  0  1  0  0  0  0  0  0  0  0  0
   25.9177  -17.6126  -16.7904 C   0  0  0  0  0  0  0  0  0  0  0  0
   25.0307  -17.2736  -17.9418 C   0  0  0  0  0  0  0  0  0  0  0  0
   25.6409  -16.2481  -18.8071 C   0  0  0  0  0  0  0  0  0  0  0  0
   25.0009  -15.3514  -19.3717 O   0  0  0  0  0  0  0  0  0  0  0  0
   26.8886  -19.6337  -15.9000 C   0  0  0  0  0  0  0  0  0  0  0  0
   25.8375  -20.2983  -15.7446 O   0  0  0  0  0  0  0  0  0  0  0  0
   27.0249  -16.2977  -18.9966 O   0  0  0  0  0  0  0  0  0  0  0  0
   29.6959  -19.3262  -12.7178 C   0  0  0  0  0  0  0  0  0  0  0  0
   29.2226  -20.7236  -13.1265 C   0  0  1  0  0  0  0  0  0  0  0  0
   29.1551  -21.6202  -11.9297 C   0  0  0  0  0  0  0  0  0  0  0  0
   27.8714  -20.6170  -13.8468 C   0  0  2  0  0  0  0  0  0  0  0  0
   27.9787  -19.7668  -15.0082 N   0  0  0  0  0  0  0  0  0  0  0  0
   26.9175  -20.0845  -12.8441 C   0  0  0  0  0  0  0  0  0  0  0  0
   26.9034  -18.8572  -12.6265 O   0  0  0  0  0  0  0  0  0  0  0  0
   21.3171  -20.1457  -10.7472 C   0  0  0  0  0  0  0  0  0  0  0  0
   22.7842  -19.9707  -10.4115 C   0  0  0  0  0  0  0  0  0  0  0  0
   23.6534  -20.5755  -11.4890 C   0  0  2  0  0  0  0  0  0  0  0  0
   23.2854  -22.0211  -11.6986 C   0  0  0  0  0  0  0  0  0  0  0  0
   25.0890  -20.3793  -11.1125 C   0  0  2  0  0  0  0  0  0  0  0  0
   26.0106  -20.8947  -12.1098 N   0  0  0  0  0  0  0  0  0  0  0  0
   25.3988  -21.0425   -9.8235 C   0  0  0  0  0  0  0  0  0  0  0  0
   24.9355  -20.4372   -8.6625 O   0  0  0  0  0  0  0  0  0  0  0  0
   26.0350  -22.0930   -9.6675 O   0  0  0  0  0  0  0  0  0  0  0  0
  2  1  1  6
  3  2  1  0
  4  3  1  0
  5  6  2  0
  5  4  1  0
  7  2  1  0
  7  8  2  0
  9  5  1  0
 11 10  1  1
 11 12  1  0
 13 14  1  6
 13 11  1  0
 14  7  1  0
 15 13  1  0
 16 15  2  0
 18 17  1  0
 19 18  1  0
 19 20  1  1
 21 19  1  0
 21 22  1  6
 22 15  1  0
 23 24  1  0
 23 21  1  0
 25 23  2  0
M  END
$$$$
