EVI.pdb
     RDKit          3D

 25 24  0  0  1  0  0  0  0  0999 V2000
   16.9607  -14.9111  -15.6176 N   0  0  0  0  0  0  0  0  0  0  0  0
   16.7793  -13.6817  -16.3973 C   0  0  1  0  0  0  0  0  0  0  0  0
   15.2927  -13.4208  -16.4506 C   0  0  0  0  0  0  0  0  0  0  0  0
   14.5459  -14.2698  -17.4248 C   0  0  0  0  0  0  0  0  0  0  0  0
   14.7837  -13.8325  -18.8122 C   0  0  0  0  0  0  0  0  0  0  0  0
   15.3476  -14.5270  -19.6679 O   0  0  0  0  0  0  0  0  0  0  0  0
   17.3853  -12.5233  -15.6534 C   0  0  0  0  0  0  0  0  0  0  0  0
   17.2869  -12.5373  -14.4041 O   0  0  0  0  0  0  0  0  0  0  0  0
   14.3437  -12.5565  -19.1756 O   0  0  0  0  0  0  0  0  0  0  0  0
   20.2199  -10.0202  -17.5168 C   0  0  0  0  0  0  0  0  0  0  0  0
   20.1535  -10.2683  -16.0075 C   0  0  1  0  0  0  0  0  0  0  0  0
   20.8524   -9.1698  -15.2690 C   0  0  0  0  0  0  0  0  0  0  0  0
   18.6878  -10.4146  -15.5760 C   0  0  2  0  0  0  0  0  0  0  0  0
   18.0380  -11.4632  -16.3254 N   0  0  0  0  0  0  0  0  0  0  0  0
   18.0632   -9.0890  -15.8031 C   0  0  0  0  0  0  0  0  0  0  0  0
   17.8336   -8.7301  -16.9745 O   0  0  0  0  0  0  0  0  0  0  0  0
   13.5215   -7.6690  -14.1705 C   0  0  0  0  0  0  0  0  0  0  0  0
   14.7882   -7.5677  -14.9958 C   0  0  0  0  0  0  0  0  0  0  0  0
   15.8102   -6.7002  -14.2994 C   0  0  2  0  0  0  0  0  0  0  0  0
   15.3425   -5.2685  -14.2759 C   0  0  0  0  0  0  0  0  0  0  0  0
   17.1326   -6.8794  -14.9780 C   0  0  2  0  0  0  0  0  0  0  0  0
   17.7074   -8.1950  -14.7579 N   0  0  0  0  0  0  0  0  0  0  0  0
   18.1141   -5.8720  -14.5101 C   0  0  0  0  0  0  0  0  0  0  0  0
   18.1812   -4.6706  -15.2037 O   0  0  0  0  0  0  0  0  0  0  0  0
   18.8920   -5.9872  -13.5540 O   0  0  0  0  0  0  0  0  0  0  0  0
  2  1  1  1
  3  2  1  0
  4  3  1  0
  5  6  2  0
  5  4  1  0
  7  2  1  0
  7  8  2  0
  9  5  1  0
 11 10  1  6
 11 12  1  0
 13 14  1  6
 13 11  1  0
 14  7  1  0
 15 13  1  0
 16 15  2  0
 18 17  1  0
 19 18  1  0
 19 20  1  6
 21 19  1  0
 21 22  1  1
 22 15  1  0
 23 24  1  0
 23 21  1  0
 25 23  2  0
M  END
$$$$
