EVI.pdb
     RDKit          3D

 25 24  0  0  1  0  0  0  0  0999 V2000
   26.2297  -25.6403  -17.1691 N   0  0  0  0  0  0  0  0  0  0  0  0
   25.5375  -24.3472  -17.2021 C   0  0  1  0  0  0  0  0  0  0  0  0
   24.0703  -24.6385  -16.9942 C   0  0  0  0  0  0  0  0  0  0  0  0
   23.2357  -24.5445  -18.2280 C   0  0  0  0  0  0  0  0  0  0  0  0
   23.7776  -25.3868  -19.3095 C   0  0  0  0  0  0  0  0  0  0  0  0
   24.2740  -24.9382  -20.3510 O   0  0  0  0  0  0  0  0  0  0  0  0
   25.9740  -23.5157  -16.0272 C   0  0  0  0  0  0  0  0  0  0  0  0
   26.0460  -24.0946  -14.9179 O   0  0  0  0  0  0  0  0  0  0  0  0
   23.7241  -26.7734  -19.1417 O   0  0  0  0  0  0  0  0  0  0  0  0
   27.5916  -19.1724  -14.2097 C   0  0  0  0  0  0  0  0  0  0  0  0
   27.2360  -19.9971  -15.4496 C   0  0  1  0  0  0  0  0  0  0  0  0
   28.4095  -20.0758  -16.3756 C   0  0  0  0  0  0  0  0  0  0  0  0
   26.7451  -21.3859  -15.0181 C   0  0  2  0  0  0  0  0  0  0  0  0
   26.2906  -22.1433  -16.1597 N   0  0  0  0  0  0  0  0  0  0  0  0
   25.6630  -21.1463  -14.0330 C   0  0  0  0  0  0  0  0  0  0  0  0
   24.4843  -21.1128  -14.4374 O   0  0  0  0  0  0  0  0  0  0  0  0
   24.6246  -20.6351   -7.8770 C   0  0  0  0  0  0  0  0  0  0  0  0
   24.1557  -20.6803   -9.3172 C   0  0  0  0  0  0  0  0  0  0  0  0
   25.3251  -20.8803  -10.2524 C   0  0  2  0  0  0  0  0  0  0  0  0
   26.4055  -19.8748   -9.9509 C   0  0  0  0  0  0  0  0  0  0  0  0
   24.8280  -20.8093  -11.6627 C   0  0  2  0  0  0  0  0  0  0  0  0
   25.8892  -20.9509  -12.6442 N   0  0  0  0  0  0  0  0  0  0  0  0
   24.1394  -19.5226  -11.9224 C   0  0  0  0  0  0  0  0  0  0  0  0
   22.7814  -19.4526  -11.6397 O   0  0  0  0  0  0  0  0  0  0  0  0
   24.6513  -18.4883  -12.3706 O   0  0  0  0  0  0  0  0  0  0  0  0
  2  1  1  1
  3  2  1  0
  4  3  1  0
  5  6  2  0
  5  4  1  0
  7  2  1  0
  7  8  2  0
  9  5  1  0
 11 10  1  1
 11 12  1  0
 13 14  1  6
 13 11  1  0
 14  7  1  0
 15 13  1  0
 16 15  2  0
 18 17  1  0
 19 18  1  0
 19 20  1  6
 21 19  1  0
 21 22  1  6
 22 15  1  0
 23 24  1  0
 23 21  1  0
 25 23  2  0
M  END
$$$$
