EVI.pdb
     RDKit          3D

 25 24  0  0  1  0  0  0  0  0999 V2000
   25.5286  -18.8050  -16.4974 N   0  0  0  0  0  0  0  0  0  0  0  0
   26.4363  -19.1374  -15.3939 C   0  0  1  0  0  0  0  0  0  0  0  0
   27.4982  -18.0638  -15.3713 C   0  0  0  0  0  0  0  0  0  0  0  0
   28.7883  -18.4501  -16.0147 C   0  0  0  0  0  0  0  0  0  0  0  0
   28.5691  -19.0392  -17.3480 C   0  0  0  0  0  0  0  0  0  0  0  0
   28.4107  -18.3733  -18.3795 O   0  0  0  0  0  0  0  0  0  0  0  0
   25.6976  -19.0289  -14.0882 C   0  0  0  0  0  0  0  0  0  0  0  0
   25.2999  -17.8883  -13.7544 O   0  0  0  0  0  0  0  0  0  0  0  0
   28.5396  -20.4333  -17.4454 O   0  0  0  0  0  0  0  0  0  0  0  0
   22.4345  -20.4653  -11.0119 C   0  0  0  0  0  0  0  0  0  0  0  0
   23.2437  -20.5730  -12.3070 C   0  0  1  0  0  0  0  0  0  0  0  0
   22.5439  -19.8548  -13.4184 C   0  0  0  0  0  0  0  0  0  0  0  0
   24.6616  -20.0342  -12.0720 C   0  0  2  0  0  0  0  0  0  0  0  0
   25.4586  -20.1573  -13.2691 N   0  0  0  0  0  0  0  0  0  0  0  0
   25.2136  -20.8218  -10.9434 C   0  0  0  0  0  0  0  0  0  0  0  0
   25.3194  -22.0571  -11.0729 O   0  0  0  0  0  0  0  0  0  0  0  0
   27.8923  -18.3705   -6.5393 C   0  0  0  0  0  0  0  0  0  0  0  0
   26.7717  -19.0579   -7.2927 C   0  0  0  0  0  0  0  0  0  0  0  0
   27.2404  -20.3786   -7.8568 C   0  0  2  0  0  0  0  0  0  0  0  0
   28.4493  -20.1674   -8.7303 C   0  0  0  0  0  0  0  0  0  0  0  0
   26.0972  -21.0251   -8.5755 C   0  0  2  0  0  0  0  0  0  0  0  0
   25.6330  -20.2497   -9.7125 N   0  0  0  0  0  0  0  0  0  0  0  0
   24.9440  -21.2325   -7.6675 C   0  0  0  0  0  0  0  0  0  0  0  0
   25.0737  -22.1951   -6.6747 O   0  0  0  0  0  0  0  0  0  0  0  0
   23.8619  -20.6319   -7.6987 O   0  0  0  0  0  0  0  0  0  0  0  0
  2  1  1  6
  3  2  1  0
  4  3  1  0
  5  6  2  0
  5  4  1  0
  7  2  1  0
  7  8  2  0
  9  5  1  0
 11 10  1  1
 11 12  1  0
 13 14  1  6
 13 11  1  0
 14  7  1  0
 15 13  1  0
 16 15  2  0
 18 17  1  0
 19 18  1  0
 19 20  1  6
 21 19  1  0
 21 22  1  6
 22 15  1  0
 23 24  1  0
 23 21  1  0
 25 23  2  0
M  END
$$$$
