EVI.pdb
     RDKit          3D

 25 24  0  0  1  0  0  0  0  0999 V2000
   16.7461  -24.8818  -13.8388 N   0  0  0  0  0  0  0  0  0  0  0  0
   17.5176  -24.3404  -12.7145 C   0  0  1  0  0  0  0  0  0  0  0  0
   16.8536  -23.0421  -12.3219 C   0  0  0  0  0  0  0  0  0  0  0  0
   17.2066  -21.8763  -13.1844 C   0  0  0  0  0  0  0  0  0  0  0  0
   18.4940  -21.2808  -12.7834 C   0  0  0  0  0  0  0  0  0  0  0  0
   18.6805  -20.7006  -11.7059 O   0  0  0  0  0  0  0  0  0  0  0  0
   17.3863  -25.2576  -11.5296 C   0  0  0  0  0  0  0  0  0  0  0  0
   16.2268  -25.6119  -11.2122 O   0  0  0  0  0  0  0  0  0  0  0  0
   19.5629  -21.3812  -13.6784 O   0  0  0  0  0  0  0  0  0  0  0  0
   18.9771  -28.5637  -11.1976 C   0  0  0  0  0  0  0  0  0  0  0  0
   19.3054  -27.8369   -9.8908 C   0  0  1  0  0  0  0  0  0  0  0  0
   20.7439  -27.4230   -9.8735 C   0  0  0  0  0  0  0  0  0  0  0  0
   18.3574  -26.6425   -9.7163 C   0  0  2  0  0  0  0  0  0  0  0  0
   18.5143  -25.7043  -10.8020 N   0  0  0  0  0  0  0  0  0  0  0  0
   18.6944  -26.0451   -8.4017 C   0  0  0  0  0  0  0  0  0  0  0  0
   19.7745  -25.4342   -8.2827 O   0  0  0  0  0  0  0  0  0  0  0  0
   14.6322  -24.8182   -4.6728 C   0  0  0  0  0  0  0  0  0  0  0  0
   15.8212  -25.5857   -5.2144 C   0  0  0  0  0  0  0  0  0  0  0  0
   16.9729  -24.6511   -5.5015 C   0  0  2  0  0  0  0  0  0  0  0  0
   16.5384  -23.5761   -6.4631 C   0  0  0  0  0  0  0  0  0  0  0  0
   18.1313  -25.4577   -6.0002 C   0  0  2  0  0  0  0  0  0  0  0  0
   17.8540  -26.1270   -7.2591 N   0  0  0  0  0  0  0  0  0  0  0  0
   18.5259  -26.4921   -5.0145 C   0  0  0  0  0  0  0  0  0  0  0  0
   19.0800  -26.0593   -3.8167 O   0  0  0  0  0  0  0  0  0  0  0  0
   18.4133  -27.7180   -5.1451 O   0  0  0  0  0  0  0  0  0  0  0  0
  2  1  1  6
  3  2  1  0
  4  3  1  0
  5  6  2  0
  5  4  1  0
  7  2  1  0
  7  8  2  0
  9  5  1  0
 11 10  1  6
 11 12  1  0
 13 14  1  6
 13 11  1  0
 14  7  1  0
 15 13  1  0
 16 15  2  0
 18 17  1  0
 19 18  1  0
 19 20  1  6
 21 19  1  0
 21 22  1  6
 22 15  1  0
 23 24  1  0
 23 21  1  0
 25 23  2  0
M  END
$$$$
