EVI.pdb
     RDKit          3D

 25 24  0  0  1  0  0  0  0  0999 V2000
   28.4138  -20.0744  -19.1340 N   0  0  0  0  0  0  0  0  0  0  0  0
   27.8854  -21.0553  -18.1794 C   0  0  1  0  0  0  0  0  0  0  0  0
   29.0595  -21.8889  -17.7240 C   0  0  0  0  0  0  0  0  0  0  0  0
   28.6996  -23.0538  -16.8633 C   0  0  0  0  0  0  0  0  0  0  0  0
   28.1948  -24.1812  -17.6676 C   0  0  0  0  0  0  0  0  0  0  0  0
   28.9172  -24.9242  -18.3448 O   0  0  0  0  0  0  0  0  0  0  0  0
   27.3754  -20.3406  -16.9582 C   0  0  0  0  0  0  0  0  0  0  0  0
   28.1682  -19.5551  -16.3879 O   0  0  0  0  0  0  0  0  0  0  0  0
   26.8174  -24.4191  -17.6601 O   0  0  0  0  0  0  0  0  0  0  0  0
   24.6054  -17.9570  -16.8444 C   0  0  0  0  0  0  0  0  0  0  0  0
   24.2784  -19.0085  -15.7808 C   0  0  1  0  0  0  0  0  0  0  0  0
   23.2264  -19.9470  -16.2840 C   0  0  0  0  0  0  0  0  0  0  0  0
   25.5631  -19.7435  -15.3744 C   0  0  2  0  0  0  0  0  0  0  0  0
   26.0628  -20.5400  -16.4696 N   0  0  0  0  0  0  0  0  0  0  0  0
   25.2039  -20.5678  -14.1954 C   0  0  0  0  0  0  0  0  0  0  0  0
   24.7400  -21.7094  -14.3841 O   0  0  0  0  0  0  0  0  0  0  0  0
   25.7000  -20.8594   -7.9738 C   0  0  0  0  0  0  0  0  0  0  0  0
   25.0426  -21.2601   -9.2789 C   0  0  0  0  0  0  0  0  0  0  0  0
   25.6127  -20.4639  -10.4293 C   0  0  2  0  0  0  0  0  0  0  0  0
   25.4525  -18.9894  -10.1665 C   0  0  0  0  0  0  0  0  0  0  0  0
   24.9538  -20.9139  -11.6960 C   0  0  2  0  0  0  0  0  0  0  0  0
   25.3575  -20.1324  -12.8518 N   0  0  0  0  0  0  0  0  0  0  0  0
   23.4776  -20.8338  -11.5881 C   0  0  0  0  0  0  0  0  0  0  0  0
   22.8611  -19.6818  -12.0590 O   0  0  0  0  0  0  0  0  0  0  0  0
   22.7237  -21.6952  -11.1167 O   0  0  0  0  0  0  0  0  0  0  0  0
  2  1  1  6
  3  2  1  0
  4  3  1  0
  5  6  2  0
  5  4  1  0
  7  2  1  0
  7  8  2  0
  9  5  1  0
 11 10  1  6
 11 12  1  0
 13 14  1  6
 13 11  1  0
 14  7  1  0
 15 13  1  0
 16 15  2  0
 18 17  1  0
 19 18  1  0
 19 20  1  1
 21 19  1  0
 21 22  1  6
 22 15  1  0
 23 24  1  0
 23 21  1  0
 25 23  2  0
M  END
$$$$
