EVI.pdb
     RDKit          3D

 25 24  0  0  1  0  0  0  0  0999 V2000
   23.4771  -22.2095  -13.4095 N   0  0  0  0  0  0  0  0  0  0  0  0
   23.6284  -21.1473  -12.4088 C   0  0  1  0  0  0  0  0  0  0  0  0
   22.3862  -21.1837  -11.5508 C   0  0  0  0  0  0  0  0  0  0  0  0
   21.1701  -20.6008  -12.1904 C   0  0  0  0  0  0  0  0  0  0  0  0
   21.4970  -19.3875  -12.9610 C   0  0  0  0  0  0  0  0  0  0  0  0
   21.8593  -19.3982  -14.1447 O   0  0  0  0  0  0  0  0  0  0  0  0
   24.7802  -21.4769  -11.4994 C   0  0  0  0  0  0  0  0  0  0  0  0
   24.7728  -22.6091  -10.9619 O   0  0  0  0  0  0  0  0  0  0  0  0
   21.3890  -18.1555  -12.3097 O   0  0  0  0  0  0  0  0  0  0  0  0
   29.4029  -20.9307  -10.0696 C   0  0  0  0  0  0  0  0  0  0  0  0
   28.2625  -20.4913  -10.9917 C   0  0  1  0  0  0  0  0  0  0  0  0
   28.4570  -21.0559  -12.3643 C   0  0  0  0  0  0  0  0  0  0  0  0
   26.9183  -20.9086  -10.3793 C   0  0  2  0  0  0  0  0  0  0  0  0
   25.8274  -20.5572  -11.2568 N   0  0  0  0  0  0  0  0  0  0  0  0
   26.8353  -20.2156   -9.0710 C   0  0  0  0  0  0  0  0  0  0  0  0
   26.2232  -19.1315   -9.0074 O   0  0  0  0  0  0  0  0  0  0  0  0
   28.4091  -20.8129   -3.0364 C   0  0  0  0  0  0  0  0  0  0  0  0
   27.6498  -20.1444   -4.1644 C   0  0  0  0  0  0  0  0  0  0  0  0
   27.8644  -20.8849   -5.4636 C   0  0  2  0  0  0  0  0  0  0  0  0
   29.3285  -21.1859   -5.6509 C   0  0  0  0  0  0  0  0  0  0  0  0
   27.2798  -20.0749   -6.5787 C   0  0  2  0  0  0  0  0  0  0  0  0
   27.4160  -20.7160   -7.8748 N   0  0  0  0  0  0  0  0  0  0  0  0
   27.9209  -18.7411   -6.6632 C   0  0  0  0  0  0  0  0  0  0  0  0
   27.4172  -17.7340   -5.8503 O   0  0  0  0  0  0  0  0  0  0  0  0
   28.8707  -18.4229   -7.3908 O   0  0  0  0  0  0  0  0  0  0  0  0
  2  1  1  6
  3  2  1  0
  4  3  1  0
  5  6  2  0
  5  4  1  0
  7  2  1  0
  7  8  2  0
  9  5  1  0
 11 10  1  1
 11 12  1  0
 13 14  1  6
 13 11  1  0
 14  7  1  0
 15 13  1  0
 16 15  2  0
 18 17  1  0
 19 18  1  0
 19 20  1  6
 21 19  1  0
 21 22  1  6
 22 15  1  0
 23 24  1  0
 23 21  1  0
 25 23  2  0
M  END
$$$$
