EVI.pdb
     RDKit          3D

 25 24  0  0  1  0  0  0  0  0999 V2000
   16.3978  -12.1533  -14.5330 N   0  0  0  0  0  0  0  0  0  0  0  0
   15.4936  -11.0556  -14.1726 C   0  0  1  0  0  0  0  0  0  0  0  0
   14.2981  -11.6859  -13.4988 C   0  0  0  0  0  0  0  0  0  0  0  0
   13.2673  -12.2236  -14.4347 C   0  0  0  0  0  0  0  0  0  0  0  0
   12.5611  -11.1379  -15.1384 C   0  0  0  0  0  0  0  0  0  0  0  0
   11.9867  -10.2028  -14.5655 O   0  0  0  0  0  0  0  0  0  0  0  0
   16.1515  -10.1844  -13.1379 C   0  0  0  0  0  0  0  0  0  0  0  0
   16.7855  -10.7660  -12.2266 O   0  0  0  0  0  0  0  0  0  0  0  0
   12.5432  -11.1732  -16.5356 O   0  0  0  0  0  0  0  0  0  0  0  0
   18.9823   -8.1385  -13.5457 C   0  0  0  0  0  0  0  0  0  0  0  0
   17.9135   -7.1743  -13.0243 C   0  0  1  0  0  0  0  0  0  0  0  0
   17.3422   -6.3725  -14.1520 C   0  0  0  0  0  0  0  0  0  0  0  0
   16.8344   -7.9639  -12.2707 C   0  0  2  0  0  0  0  0  0  0  0  0
   16.0637   -8.7732  -13.1842 N   0  0  0  0  0  0  0  0  0  0  0  0
   16.0031   -6.9526  -11.5742 C   0  0  0  0  0  0  0  0  0  0  0  0
   15.1509   -6.3245  -12.2323 O   0  0  0  0  0  0  0  0  0  0  0  0
   13.5119   -8.0665   -7.1197 C   0  0  0  0  0  0  0  0  0  0  0  0
   13.9360   -7.4349   -8.4301 C   0  0  0  0  0  0  0  0  0  0  0  0
   14.7757   -6.2040   -8.1813 C   0  0  2  0  0  0  0  0  0  0  0  0
   13.9797   -5.1825   -7.4118 C   0  0  0  0  0  0  0  0  0  0  0  0
   15.2788   -5.6938   -9.4958 C   0  0  2  0  0  0  0  0  0  0  0  0
   16.1195   -6.6532  -10.1903 N   0  0  0  0  0  0  0  0  0  0  0  0
   16.0625   -4.4478   -9.3208 C   0  0  0  0  0  0  0  0  0  0  0  0
   17.4427   -4.5663   -9.2206 O   0  0  0  0  0  0  0  0  0  0  0  0
   15.6134   -3.2961   -9.2532 O   0  0  0  0  0  0  0  0  0  0  0  0
  2  1  1  1
  3  2  1  0
  4  3  1  0
  5  6  2  0
  5  4  1  0
  7  2  1  0
  7  8  2  0
  9  5  1  0
 11 10  1  6
 11 12  1  0
 13 14  1  6
 13 11  1  0
 14  7  1  0
 15 13  1  0
 16 15  2  0
 18 17  1  0
 19 18  1  0
 19 20  1  6
 21 19  1  0
 21 22  1  1
 22 15  1  0
 23 24  1  0
 23 21  1  0
 25 23  2  0
M  END
$$$$
