KKC.pdb
     RDKit          3D

 25 24  0  0  1  0  0  0  0  0999 V2000
   38.5924  -32.2559    1.5504 N   0  0  0  0  0  0  0  0  0  0  0  0
   37.3869  -31.5356    1.7733 C   0  0  1  0  0  0  0  0  0  0  0  0
   36.1203  -32.2983    1.7698 C   0  0  0  0  0  0  0  0  0  0  0  0
   35.7393  -32.8770    0.4571 C   0  0  0  0  0  0  0  0  0  0  0  0
   34.5286  -32.2058   -0.1217 C   0  0  0  0  0  0  0  0  0  0  0  0
   34.1781  -32.8332   -1.4881 C   0  0  0  0  0  0  0  0  0  0  0  0
   33.0180  -32.1619   -2.0324 N   0  0  0  0  0  0  0  0  0  0  0  0
   37.5517  -30.7682    3.0542 C   0  0  0  0  0  0  0  0  0  0  0  0
   37.8622  -31.3556    4.1375 O   0  0  0  0  0  0  0  0  0  0  0  0
   37.3687  -29.3639    3.1074 N   0  0  0  0  0  0  0  0  0  0  0  0
   37.5363  -28.6244    4.3898 C   0  0  1  0  0  0  0  0  0  0  0  0
   37.7857  -27.1739    4.0456 C   0  0  0  0  0  0  0  0  0  0  0  0
   37.9848  -26.3400    5.2485 C   0  0  0  0  0  0  0  0  0  0  0  0
   38.2781  -24.8805    4.8917 C   0  0  0  0  0  0  0  0  0  0  0  0
   38.4477  -24.0801    6.1696 C   0  0  0  0  0  0  0  0  0  0  0  0
   38.7316  -22.7265    5.8009 N   0  0  0  0  0  0  0  0  0  0  0  0
   36.2723  -28.7648    5.1280 C   0  0  0  0  0  0  0  0  0  0  0  0
   35.1789  -28.5520    4.4939 O   0  0  0  0  0  0  0  0  0  0  0  0
   36.1263  -29.1191    6.4795 N   0  0  0  0  0  0  0  0  0  0  0  0
   34.8407  -29.1152    7.1702 C   0  0  1  0  0  0  0  0  0  0  0  0
   34.7528  -30.4757    7.8704 C   0  0  0  0  0  0  0  0  0  0  0  0
   34.3361  -31.7927    6.7189 S   0  0  0  0  0  0  0  0  0  0  0  0
   34.7689  -28.0379    8.1791 C   0  0  0  0  0  0  0  0  0  0  0  0
   33.7034  -27.8203    8.7868 O   0  0  0  0  0  0  0  0  0  0  0  0
   35.9055  -27.2883    8.4250 O   0  0  0  0  0  0  0  0  0  0  0  0
  2  1  1  1
  3  2  1  0
  4  3  1  0
  5  4  1  0
  6  5  1  0
  7  6  1  0
  8  9  2  0
  8  2  1  0
 10  8  1  0
 11 12  1  6
 11 10  1  0
 13 12  1  0
 14 13  1  0
 15 16  1  0
 15 14  1  0
 17 11  1  0
 18 17  2  0
 19 17  1  0
 20 19  1  0
 20 21  1  1
 21 22  1  0
 23 25  1  0
 23 20  1  0
 24 23  2  0
M  END
$$$$
