KKC.pdb
     RDKit          3D

 25 24  0  0  1  0  0  0  0  0999 V2000
   21.0439  -17.5567  -16.6668 N   0  0  0  0  0  0  0  0  0  0  0  0
   20.7529  -18.9482  -16.6389 C   0  0  1  0  0  0  0  0  0  0  0  0
   20.2634  -19.5727  -17.8865 C   0  0  0  0  0  0  0  0  0  0  0  0
   18.8018  -19.4542  -18.1167 C   0  0  0  0  0  0  0  0  0  0  0  0
   18.3189  -18.0444  -17.9415 C   0  0  0  0  0  0  0  0  0  0  0  0
   16.8060  -17.9625  -18.2382 C   0  0  0  0  0  0  0  0  0  0  0  0
   16.3325  -16.6344  -17.9148 N   0  0  0  0  0  0  0  0  0  0  0  0
   21.9759  -19.6534  -16.1257 C   0  0  0  0  0  0  0  0  0  0  0  0
   21.9688  -20.9045  -15.9026 O   0  0  0  0  0  0  0  0  0  0  0  0
   23.1831  -18.9561  -15.8704 N   0  0  0  0  0  0  0  0  0  0  0  0
   24.3925  -19.6821  -15.3912 C   0  0  1  0  0  0  0  0  0  0  0  0
   25.6014  -18.9258  -15.8921 C   0  0  0  0  0  0  0  0  0  0  0  0
   26.8680  -19.5147  -15.4116 C   0  0  0  0  0  0  0  0  0  0  0  0
   27.3582  -20.6421  -16.3239 C   0  0  0  0  0  0  0  0  0  0  0  0
   28.6308  -21.2326  -15.7457 C   0  0  0  0  0  0  0  0  0  0  0  0
   29.0873  -22.2481  -16.6453 N   0  0  0  0  0  0  0  0  0  0  0  0
   24.3466  -19.6576  -13.9216 C   0  0  0  0  0  0  0  0  0  0  0  0
   23.7600  -18.6689  -13.3549 O   0  0  0  0  0  0  0  0  0  0  0  0
   24.8815  -20.6212  -13.0505 N   0  0  0  0  0  0  0  0  0  0  0  0
   24.8099  -20.5091  -11.5972 C   0  0  1  0  0  0  0  0  0  0  0  0
   23.3205  -20.6249  -11.2547 C   0  0  0  0  0  0  0  0  0  0  0  0
   23.0484  -20.6974   -9.4785 S   0  0  0  0  0  0  0  0  0  0  0  0
   25.5534  -21.5984  -10.9307 C   0  0  0  0  0  0  0  0  0  0  0  0
   25.6852  -22.7016  -11.4942 O   0  0  0  0  0  0  0  0  0  0  0  0
   26.0913  -21.3593   -9.6786 O   0  0  0  0  0  0  0  0  0  0  0  0
  2  1  1  6
  3  2  1  0
  4  3  1  0
  5  4  1  0
  6  5  1  0
  7  6  1  0
  8  9  2  0
  8  2  1  0
 10  8  1  0
 11 12  1  1
 11 10  1  0
 13 12  1  0
 14 13  1  0
 15 16  1  0
 15 14  1  0
 17 11  1  0
 18 17  2  0
 19 17  1  0
 20 19  1  0
 20 21  1  1
 21 22  1  0
 23 25  1  0
 23 20  1  0
 24 23  2  0
M  END
$$$$
