KKC.pdb
     RDKit          3D

 25 24  0  0  1  0  0  0  0  0999 V2000
   19.1722  -15.7539  -16.8820 N   0  0  0  0  0  0  0  0  0  0  0  0
   18.0923  -14.8368  -17.0025 C   0  0  1  0  0  0  0  0  0  0  0  0
   16.9159  -15.0425  -16.1309 C   0  0  0  0  0  0  0  0  0  0  0  0
   16.1979  -16.3252  -16.3373 C   0  0  0  0  0  0  0  0  0  0  0  0
   14.9990  -16.4470  -15.4434 C   0  0  0  0  0  0  0  0  0  0  0  0
   14.2902  -17.7963  -15.6896 C   0  0  0  0  0  0  0  0  0  0  0  0
   13.2151  -17.9464  -14.7334 N   0  0  0  0  0  0  0  0  0  0  0  0
   18.6551  -13.4544  -16.8327 C   0  0  0  0  0  0  0  0  0  0  0  0
   19.3104  -13.1342  -15.7920 O   0  0  0  0  0  0  0  0  0  0  0  0
   18.4796  -12.4544  -17.8216 N   0  0  0  0  0  0  0  0  0  0  0  0
   19.0833  -11.1032  -17.6506 C   0  0  1  0  0  0  0  0  0  0  0  0
   19.0408  -10.4159  -18.9961 C   0  0  0  0  0  0  0  0  0  0  0  0
   20.1478  -10.8414  -19.8766 C   0  0  0  0  0  0  0  0  0  0  0  0
   20.1074  -10.1307  -21.2319 C   0  0  0  0  0  0  0  0  0  0  0  0
   21.1395  -10.7551  -22.1524 C   0  0  0  0  0  0  0  0  0  0  0  0
   22.4351  -10.4169  -21.6467 N   0  0  0  0  0  0  0  0  0  0  0  0
   18.2433  -10.3835  -16.6818 C   0  0  0  0  0  0  0  0  0  0  0  0
   16.9710  -10.4978  -16.7875 O   0  0  0  0  0  0  0  0  0  0  0  0
   18.6899   -9.5708  -15.6266 N   0  0  0  0  0  0  0  0  0  0  0  0
   17.7846   -8.8549  -14.7336 C   0  0  1  0  0  0  0  0  0  0  0  0
   18.2985   -9.1438  -13.3188 C   0  0  0  0  0  0  0  0  0  0  0  0
   17.3805   -8.2247  -12.0752 S   0  0  0  0  0  0  0  0  0  0  0  0
   17.8170   -7.3983  -14.9800 C   0  0  0  0  0  0  0  0  0  0  0  0
   18.8698   -6.8516  -15.3606 O   0  0  0  0  0  0  0  0  0  0  0  0
   16.6584   -6.6696  -14.7779 O   0  0  0  0  0  0  0  0  0  0  0  0
  2  1  1  1
  3  2  1  0
  4  3  1  0
  5  4  1  0
  6  5  1  0
  7  6  1  0
  8  9  2  0
  8  2  1  0
 10  8  1  0
 11 12  1  6
 11 10  1  0
 13 12  1  0
 14 13  1  0
 15 16  1  0
 15 14  1  0
 17 11  1  0
 18 17  2  0
 19 17  1  0
 20 19  1  0
 20 21  1  1
 21 22  1  0
 23 25  1  0
 23 20  1  0
 24 23  2  0
M  END
$$$$
