KKC.pdb
     RDKit          3D

 25 24  0  0  1  0  0  0  0  0999 V2000
   20.1863  -11.9182  -20.7539 N   0  0  0  0  0  0  0  0  0  0  0  0
   21.0401  -10.7865  -20.8635 C   0  0  1  0  0  0  0  0  0  0  0  0
   21.1971  -10.1713  -22.1987 C   0  0  0  0  0  0  0  0  0  0  0  0
   21.7570  -11.0674  -23.2413 C   0  0  0  0  0  0  0  0  0  0  0  0
   21.9965  -10.3435  -24.5335 C   0  0  0  0  0  0  0  0  0  0  0  0
   22.6176  -11.3037  -25.5708 C   0  0  0  0  0  0  0  0  0  0  0  0
   24.0179  -11.4921  -25.2608 N   0  0  0  0  0  0  0  0  0  0  0  0
   20.5779   -9.7749  -19.8537 C   0  0  0  0  0  0  0  0  0  0  0  0
   19.3587   -9.7067  -19.5016 O   0  0  0  0  0  0  0  0  0  0  0  0
   21.4781   -8.8590  -19.2544 N   0  0  0  0  0  0  0  0  0  0  0  0
   21.0102   -7.9110  -18.2047 C   0  0  1  0  0  0  0  0  0  0  0  0
   21.4370   -8.4713  -16.8674 C   0  0  0  0  0  0  0  0  0  0  0  0
   21.0314   -7.6039  -15.7426 C   0  0  0  0  0  0  0  0  0  0  0  0
   21.3308   -8.2472  -14.3861 C   0  0  0  0  0  0  0  0  0  0  0  0
   20.6304   -7.4581  -13.2956 C   0  0  0  0  0  0  0  0  0  0  0  0
   20.8148   -8.1614  -12.0627 N   0  0  0  0  0  0  0  0  0  0  0  0
   21.6840   -6.6292  -18.4608 C   0  0  0  0  0  0  0  0  0  0  0  0
   22.9119   -6.6582  -18.8274 O   0  0  0  0  0  0  0  0  0  0  0  0
   21.1177   -5.3484  -18.3509 N   0  0  0  0  0  0  0  0  0  0  0  0
   21.8566   -4.1229  -18.6373 C   0  0  1  0  0  0  0  0  0  0  0  0
   21.1575   -3.5028  -19.8521 C   0  0  0  0  0  0  0  0  0  0  0  0
   21.7445   -1.8348  -20.1798 S   0  0  0  0  0  0  0  0  0  0  0  0
   21.8014   -3.1773  -17.5032 C   0  0  0  0  0  0  0  0  0  0  0  0
   20.8506   -3.2194  -16.6994 O   0  0  0  0  0  0  0  0  0  0  0  0
   22.8241   -2.2559  -17.3629 O   0  0  0  0  0  0  0  0  0  0  0  0
  2  1  1  6
  3  2  1  0
  4  3  1  0
  5  4  1  0
  6  5  1  0
  7  6  1  0
  8  9  2  0
  8  2  1  0
 10  8  1  0
 11 12  1  1
 11 10  1  0
 13 12  1  0
 14 13  1  0
 15 16  1  0
 15 14  1  0
 17 11  1  0
 18 17  2  0
 19 17  1  0
 20 19  1  0
 20 21  1  6
 21 22  1  0
 23 25  1  0
 23 20  1  0
 24 23  2  0
M  END
$$$$
