ANH.pdb
     RDKit          3D

 24 24  0  0  1  0  0  0  0  0999 V2000
   32.3753   -8.4502  -16.7840 C   0  0  0  0  0  0  0  0  0  0  0  0
   33.2113   -7.2222  -17.1519 C   0  0  2  0  0  0  0  0  0  0  0  0
   34.3114   -7.6020  -18.0063 N   0  0  0  0  0  0  0  0  0  0  0  0
   33.6777   -6.6426  -15.8665 C   0  0  0  0  0  0  0  0  0  0  0  0
   32.8316   -6.3501  -14.9863 O   0  0  0  0  0  0  0  0  0  0  0  0
   35.6693   -8.3964  -13.5257 N   0  0  0  0  0  0  0  0  0  0  0  0
   36.8548   -7.6265  -13.4982 C   0  0  0  0  0  0  0  0  0  0  0  0
   37.9029   -8.1582  -13.0807 O   0  0  0  0  0  0  0  0  0  0  0  0
   36.8373   -6.2394  -13.9522 C   0  0  0  0  0  0  0  0  0  0  0  0
   35.4926   -5.7220  -14.3831 C   0  0  2  0  0  0  0  0  0  0  0  0
   35.0463   -6.3928  -15.5626 N   0  0  0  0  0  0  0  0  0  0  0  0
   35.5516   -4.2441  -14.5282 C   0  0  0  0  0  0  0  0  0  0  0  0
   36.0574   -3.7886  -15.5748 O   0  0  0  0  0  0  0  0  0  0  0  0
   35.0686   -3.3517  -13.5499 N   0  0  0  0  0  0  0  0  0  0  0  0
   35.1340   -1.8933  -13.6976 C   0  0  1  0  0  0  0  0  0  0  0  0
   33.7527   -1.2879  -13.6568 C   0  0  0  0  0  0  0  0  0  0  0  0
   33.0977   -1.4880  -14.9736 C   0  0  0  0  0  0  0  0  0  0  0  0
   33.7294   -1.8707  -16.1399 C   0  0  0  0  0  0  0  0  0  0  0  0
   32.8266   -1.9511  -17.1290 N   0  0  0  0  0  0  0  0  0  0  0  0
   31.6460   -1.6218  -16.5837 C   0  0  0  0  0  0  0  0  0  0  0  0
   31.7982   -1.3394  -15.2787 N   0  0  0  0  0  0  0  0  0  0  0  0
   36.0351   -1.3832  -12.6478 C   0  0  0  0  0  0  0  0  0  0  0  0
   36.7560   -0.1841  -12.8103 O   0  0  0  0  0  0  0  0  0  0  0  0
   36.2322   -1.9599  -11.5461 O   0  0  0  0  0  0  0  0  0  0  0  0
  2  1  1  1
  3  2  1  0
  4  2  1  0
  5  4  2  0
  6  7  1  0
  7  8  2  0
  9  7  1  0
 10  9  1  6
 10 11  1  0
 10 12  1  0
 11  4  1  0
 12 14  1  0
 13 12  2  0
 14 15  1  0
 15 16  1  1
 15 22  1  0
 17 18  2  0
 17 16  1  0
 19 18  1  0
 20 21  2  0
 20 19  1  0
 21 17  1  0
 22 23  1  0
 24 22  2  0
M  END
$$$$
