ANH.pdb
     RDKit          3D

 24 24  0  0  1  0  0  0  0  0999 V2000
   19.4244  -15.0221  -17.7072 C   0  0  0  0  0  0  0  0  0  0  0  0
   19.8573  -14.0763  -16.5845 C   0  0  2  0  0  0  0  0  0  0  0  0
   19.4556  -14.6035  -15.3018 N   0  0  0  0  0  0  0  0  0  0  0  0
   19.2142  -12.7700  -16.8769 C   0  0  0  0  0  0  0  0  0  0  0  0
   19.4802  -12.1869  -17.9564 O   0  0  0  0  0  0  0  0  0  0  0  0
   15.7640  -11.7440  -18.1328 N   0  0  0  0  0  0  0  0  0  0  0  0
   15.4035  -11.5697  -16.7768 C   0  0  0  0  0  0  0  0  0  0  0  0
   14.3346  -12.0700  -16.3737 O   0  0  0  0  0  0  0  0  0  0  0  0
   16.2744  -10.8172  -15.8790 C   0  0  0  0  0  0  0  0  0  0  0  0
   17.7348  -10.8350  -16.2371 C   0  0  2  0  0  0  0  0  0  0  0  0
   18.2994  -12.1249  -15.9966 N   0  0  0  0  0  0  0  0  0  0  0  0
   18.4360   -9.7382  -15.5202 C   0  0  0  0  0  0  0  0  0  0  0  0
   18.4837   -9.8035  -14.2744 O   0  0  0  0  0  0  0  0  0  0  0  0
   19.0385   -8.6466  -16.1777 N   0  0  0  0  0  0  0  0  0  0  0  0
   19.7442   -7.5758  -15.4648 C   0  0  1  0  0  0  0  0  0  0  0  0
   20.6302   -6.7983  -16.4065 C   0  0  0  0  0  0  0  0  0  0  0  0
   21.3339   -5.7372  -15.6436 C   0  0  0  0  0  0  0  0  0  0  0  0
   22.0438   -5.9196  -14.4737 C   0  0  0  0  0  0  0  0  0  0  0  0
   22.5427   -4.7421  -14.0682 N   0  0  0  0  0  0  0  0  0  0  0  0
   22.1473   -3.8371  -14.9760 C   0  0  0  0  0  0  0  0  0  0  0  0
   21.4144   -4.4286  -15.9347 N   0  0  0  0  0  0  0  0  0  0  0  0
   18.7264   -6.7485  -14.7910 C   0  0  0  0  0  0  0  0  0  0  0  0
   18.8525   -6.3767  -13.4383 O   0  0  0  0  0  0  0  0  0  0  0  0
   17.6856   -6.3153  -15.3516 O   0  0  0  0  0  0  0  0  0  0  0  0
  2  1  1  6
  3  2  1  0
  4  2  1  0
  5  4  2  0
  6  7  1  0
  7  8  2  0
  9  7  1  0
 10  9  1  1
 10 11  1  0
 10 12  1  0
 11  4  1  0
 12 14  1  0
 13 12  2  0
 14 15  1  0
 15 16  1  6
 15 22  1  0
 17 18  2  0
 17 16  1  0
 19 18  1  0
 20 21  2  0
 20 19  1  0
 21 17  1  0
 22 23  1  0
 24 22  2  0
M  END
$$$$
