ANH.pdb
     RDKit          3D

 24 24  0  0  1  0  0  0  0  0999 V2000
   16.0509  -13.1663  -16.8672 C   0  0  0  0  0  0  0  0  0  0  0  0
   17.3663  -12.7900  -16.1812 C   0  0  2  0  0  0  0  0  0  0  0  0
   17.1606  -12.6173  -14.7626 N   0  0  0  0  0  0  0  0  0  0  0  0
   17.8269  -11.5384  -16.8345 C   0  0  0  0  0  0  0  0  0  0  0  0
   18.6091  -11.6132  -17.8136 O   0  0  0  0  0  0  0  0  0  0  0  0
   18.4733   -6.7030  -18.4949 N   0  0  0  0  0  0  0  0  0  0  0  0
   17.1108   -7.0252  -18.2980 C   0  0  0  0  0  0  0  0  0  0  0  0
   16.2428   -6.2820  -18.7978 O   0  0  0  0  0  0  0  0  0  0  0  0
   16.7427   -8.2064  -17.5235 C   0  0  0  0  0  0  0  0  0  0  0  0
   17.8966   -9.0277  -17.0180 C   0  0  2  0  0  0  0  0  0  0  0  0
   17.4320  -10.2362  -16.4147 N   0  0  0  0  0  0  0  0  0  0  0  0
   18.7382   -8.2000  -16.1151 C   0  0  0  0  0  0  0  0  0  0  0  0
   18.3141   -7.9977  -14.9584 O   0  0  0  0  0  0  0  0  0  0  0  0
   19.9735   -7.6440  -16.5043 N   0  0  0  0  0  0  0  0  0  0  0  0
   20.8318   -6.8851  -15.5876 C   0  0  1  0  0  0  0  0  0  0  0  0
   22.2820   -7.2523  -15.7834 C   0  0  0  0  0  0  0  0  0  0  0  0
   22.4908   -8.6529  -15.3384 C   0  0  0  0  0  0  0  0  0  0  0  0
   21.5129   -9.5034  -14.8630 C   0  0  0  0  0  0  0  0  0  0  0  0
   22.0641  -10.6874  -14.5563 N   0  0  0  0  0  0  0  0  0  0  0  0
   23.3707  -10.5745  -14.8378 C   0  0  0  0  0  0  0  0  0  0  0  0
   23.6406   -9.3464  -15.3122 N   0  0  0  0  0  0  0  0  0  0  0  0
   20.5495   -5.4538  -15.8015 C   0  0  0  0  0  0  0  0  0  0  0  0
   21.0123   -4.4671  -14.9091 O   0  0  0  0  0  0  0  0  0  0  0  0
   19.8886   -5.0028  -16.7736 O   0  0  0  0  0  0  0  0  0  0  0  0
  2  1  1  6
  3  2  1  0
  4  2  1  0
  5  4  2  0
  6  7  1  0
  7  8  2  0
  9  7  1  0
 10  9  1  1
 10 11  1  0
 10 12  1  0
 11  4  1  0
 12 14  1  0
 13 12  2  0
 14 15  1  0
 15 16  1  6
 15 22  1  0
 17 18  2  0
 17 16  1  0
 19 18  1  0
 20 21  2  0
 20 19  1  0
 21 17  1  0
 22 23  1  0
 24 22  2  0
M  END
$$$$
