CHQ.pdb
     RDKit          3D

 26 26  0  0  1  0  0  0  0  0999 V2000
    8.1111  -19.9368   19.9542 N   0  0  0  0  0  0  0  0  0  0  0  0
    7.7406  -18.8584   20.8471 C   0  0  1  0  0  0  0  0  0  0  0  0
    7.5391  -19.4598   22.2163 C   0  0  0  0  0  0  0  0  0  0  0  0
    9.1774  -19.8934   22.8711 S   0  0  0  0  0  0  0  0  0  0  0  0
    8.7794  -17.8316   20.8121 C   0  0  0  0  0  0  0  0  0  0  0  0
    9.9265  -18.1251   20.4103 O   0  0  0  0  0  0  0  0  0  0  0  0
    8.5816  -16.4800   21.2122 N   0  0  0  0  0  0  0  0  0  0  0  0
    9.6484  -15.4930   21.1910 C   0  0  1  0  0  0  0  0  0  0  0  0
    9.1123  -14.0989   20.9627 C   0  0  0  0  0  0  0  0  0  0  0  0
    8.4355  -13.9259   19.6835 C   0  0  0  0  0  0  0  0  0  0  0  0
    8.4053  -14.8389   18.6542 C   0  0  0  0  0  0  0  0  0  0  0  0
    7.6788  -14.3303   17.6218 N   0  0  0  0  0  0  0  0  0  0  0  0
    7.2612  -13.1155   18.0024 C   0  0  0  0  0  0  0  0  0  0  0  0
    7.7237  -12.8687   19.2622 N   0  0  0  0  0  0  0  0  0  0  0  0
   10.4345  -15.5798   22.4556 C   0  0  0  0  0  0  0  0  0  0  0  0
    9.9033  -15.7012   23.5773 O   0  0  0  0  0  0  0  0  0  0  0  0
   10.8932  -19.8867   24.8663 N   0  0  0  0  0  0  0  0  0  0  0  0
   12.0788  -19.2982   25.3561 C   0  0  0  0  0  0  0  0  0  0  0  0
   12.3930  -19.4765   26.5553 O   0  0  0  0  0  0  0  0  0  0  0  0
   12.9181  -18.4969   24.4480 C   0  0  0  0  0  0  0  0  0  0  0  0
   12.1961  -17.5626   23.5534 C   0  0  0  0  0  0  0  0  0  0  0  0
   12.6938  -16.1659   23.4299 C   0  0  2  0  0  0  0  0  0  0  0  0
   11.8538  -15.5233   22.3977 N   0  0  0  0  0  0  0  0  0  0  0  0
   14.1094  -15.9526   23.2113 C   0  0  0  0  0  0  0  0  0  0  0  0
   14.9508  -15.8234   24.1715 O   0  0  0  0  0  0  0  0  0  0  0  0
   14.6841  -15.8772   21.9396 O   0  0  0  0  0  0  0  0  0  0  0  0
  2  1  1  6
  3  4  1  0
  3  2  1  0
  5  6  2  0
  5  2  1  0
  7  5  1  0
  8  7  1  0
  8  9  1  1
 10  9  1  0
 10 14  1  0
 11 12  1  0
 11 10  2  0
 12 13  1  0
 13 14  2  0
 15  8  1  0
 16 15  2  0
 18 17  1  0
 18 20  1  0
 19 18  2  0
 21 20  1  0
 22 21  1  6
 22 23  1  0
 23 15  1  0
 24 22  1  0
 24 26  1  0
 25 24  2  0
M  END
$$$$
