CHQ.pdb
     RDKit          3D

 26 26  0  0  1  0  0  0  0  0999 V2000
    7.1780  -18.8115   19.5012 N   0  0  0  0  0  0  0  0  0  0  0  0
    6.6491  -18.0709   20.6279 C   0  0  1  0  0  0  0  0  0  0  0  0
    6.1700  -19.0803   21.6421 C   0  0  0  0  0  0  0  0  0  0  0  0
    7.5929  -20.1116   22.1035 S   0  0  0  0  0  0  0  0  0  0  0  0
    7.6860  -17.1794   21.1423 C   0  0  0  0  0  0  0  0  0  0  0  0
    8.6173  -16.8153   20.3916 O   0  0  0  0  0  0  0  0  0  0  0  0
    7.7203  -16.6769   22.4735 N   0  0  0  0  0  0  0  0  0  0  0  0
    7.9657  -15.2766   22.7758 C   0  0  1  0  0  0  0  0  0  0  0  0
    7.0337  -14.3696   22.0065 C   0  0  0  0  0  0  0  0  0  0  0  0
    7.5517  -13.9484   20.7108 C   0  0  0  0  0  0  0  0  0  0  0  0
    8.7902  -14.2562   20.1957 C   0  0  0  0  0  0  0  0  0  0  0  0
    8.9201  -13.6896   18.9652 N   0  0  0  0  0  0  0  0  0  0  0  0
    7.7772  -13.0366   18.7159 C   0  0  0  0  0  0  0  0  0  0  0  0
    6.9413  -13.1949   19.7827 N   0  0  0  0  0  0  0  0  0  0  0  0
    7.8570  -15.0566   24.2470 C   0  0  0  0  0  0  0  0  0  0  0  0
    6.8680  -14.5160   24.7807 O   0  0  0  0  0  0  0  0  0  0  0  0
    6.1017  -19.4744   26.7386 N   0  0  0  0  0  0  0  0  0  0  0  0
    7.3409  -19.7121   26.1064 C   0  0  0  0  0  0  0  0  0  0  0  0
    7.6926  -20.8941   25.8876 O   0  0  0  0  0  0  0  0  0  0  0  0
    8.1850  -18.5695   25.7149 C   0  0  0  0  0  0  0  0  0  0  0  0
    7.6764  -17.2296   26.0895 C   0  0  0  0  0  0  0  0  0  0  0  0
    8.6580  -16.1506   26.3822 C   0  0  2  0  0  0  0  0  0  0  0  0
    8.9193  -15.4761   25.0934 N   0  0  0  0  0  0  0  0  0  0  0  0
    9.8738  -16.4946   27.0899 C   0  0  0  0  0  0  0  0  0  0  0  0
   11.0139  -16.5921   26.5091 O   0  0  0  0  0  0  0  0  0  0  0  0
    9.9147  -16.7418   28.4647 O   0  0  0  0  0  0  0  0  0  0  0  0
  2  1  1  6
  3  4  1  0
  3  2  1  0
  5  6  2  0
  5  2  1  0
  7  5  1  0
  8  7  1  0
  8  9  1  6
 10  9  1  0
 10 14  1  0
 11 12  1  0
 11 10  2  0
 12 13  1  0
 13 14  2  0
 15  8  1  0
 16 15  2  0
 18 17  1  0
 18 20  1  0
 19 18  2  0
 21 20  1  0
 22 21  1  6
 22 23  1  0
 23 15  1  0
 24 22  1  0
 24 26  1  0
 25 24  2  0
M  END
$$$$
