CHQ.pdb
     RDKit          3D

 26 26  0  0  1  0  0  0  0  0999 V2000
    6.2467  -18.2655   24.1909 N   0  0  0  0  0  0  0  0  0  0  0  0
    6.6313  -16.8698   24.2318 C   0  0  1  0  0  0  0  0  0  0  0  0
    7.4095  -16.6570   25.5070 C   0  0  0  0  0  0  0  0  0  0  0  0
    7.6593  -14.8683   25.7048 S   0  0  0  0  0  0  0  0  0  0  0  0
    7.3933  -16.5491   23.0272 C   0  0  0  0  0  0  0  0  0  0  0  0
    8.2535  -17.3533   22.6067 O   0  0  0  0  0  0  0  0  0  0  0  0
    7.2280  -15.3549   22.2706 N   0  0  0  0  0  0  0  0  0  0  0  0
    8.0165  -15.0638   21.0847 C   0  0  1  0  0  0  0  0  0  0  0  0
    7.4215  -13.9276   20.2859 C   0  0  0  0  0  0  0  0  0  0  0  0
    8.0339  -13.7387   18.9768 C   0  0  0  0  0  0  0  0  0  0  0  0
    9.1658  -13.0023   18.7118 C   0  0  0  0  0  0  0  0  0  0  0  0
    9.4358  -13.0548   17.3789 N   0  0  0  0  0  0  0  0  0  0  0  0
    8.4844  -13.8143   16.8198 C   0  0  0  0  0  0  0  0  0  0  0  0
    7.6279  -14.2321   17.7964 N   0  0  0  0  0  0  0  0  0  0  0  0
    9.4263  -14.7793   21.4797 C   0  0  0  0  0  0  0  0  0  0  0  0
    9.7260  -14.0472   22.4437 O   0  0  0  0  0  0  0  0  0  0  0  0
   13.2644  -18.3300   23.4247 N   0  0  0  0  0  0  0  0  0  0  0  0
   12.3746  -17.4172   24.0306 C   0  0  0  0  0  0  0  0  0  0  0  0
   12.0176  -17.6145   25.2148 O   0  0  0  0  0  0  0  0  0  0  0  0
   11.8938  -16.2559   23.2616 C   0  0  0  0  0  0  0  0  0  0  0  0
   12.4127  -16.1339   21.8795 C   0  0  0  0  0  0  0  0  0  0  0  0
   11.9007  -15.0324   21.0203 C   0  0  2  0  0  0  0  0  0  0  0  0
   10.4883  -15.3607   20.7347 N   0  0  0  0  0  0  0  0  0  0  0  0
   12.6451  -14.6811   19.8288 C   0  0  0  0  0  0  0  0  0  0  0  0
   12.2147  -14.9182   18.6434 O   0  0  0  0  0  0  0  0  0  0  0  0
   13.8901  -14.0472   19.8640 O   0  0  0  0  0  0  0  0  0  0  0  0
  2  1  1  6
  3  4  1  0
  3  2  1  0
  5  6  2  0
  5  2  1  0
  7  5  1  0
  8  7  1  0
  8  9  1  1
 10  9  1  0
 10 14  1  0
 11 12  1  0
 11 10  2  0
 12 13  1  0
 13 14  2  0
 15  8  1  0
 16 15  2  0
 18 17  1  0
 18 20  1  0
 19 18  2  0
 21 20  1  0
 22 21  1  6
 22 23  1  0
 23 15  1  0
 24 22  1  0
 24 26  1  0
 25 24  2  0
M  END
$$$$
