WHE.pdb
     RDKit          3D

 34 36  0  0  1  0  0  0  0  0999 V2000
   20.7238  -12.7914  -15.6383 N   0  0  0  0  0  0  0  0  0  0  0  0
   20.4625  -11.7432  -16.5632 C   0  0  1  0  0  0  0  0  0  0  0  0
   18.9618  -11.4494  -16.5544 C   0  0  0  0  0  0  0  0  0  0  0  0
   18.1481  -12.5380  -17.0811 C   0  0  0  0  0  0  0  0  0  0  0  0
   17.6704  -13.6207  -16.3766 C   0  0  0  0  0  0  0  0  0  0  0  0
   16.9920  -14.4334  -17.1950 N   0  0  0  0  0  0  0  0  0  0  0  0
   17.0035  -13.9094  -18.4605 C   0  0  0  0  0  0  0  0  0  0  0  0
   16.4477  -14.3622  -19.6330 C   0  0  0  0  0  0  0  0  0  0  0  0
   16.5864  -13.6526  -20.7870 C   0  0  0  0  0  0  0  0  0  0  0  0
   17.2981  -12.4763  -20.7306 C   0  0  0  0  0  0  0  0  0  0  0  0
   17.8614  -12.0106  -19.5594 C   0  0  0  0  0  0  0  0  0  0  0  0
   17.7269  -12.7274  -18.3766 C   0  0  0  0  0  0  0  0  0  0  0  0
   21.1326  -10.4537  -16.1590 C   0  0  0  0  0  0  0  0  0  0  0  0
   20.9653  -10.0830  -14.9782 O   0  0  0  0  0  0  0  0  0  0  0  0
   21.9152   -9.7007  -17.0766 N   0  0  0  0  0  0  0  0  0  0  0  0
   22.4370   -8.4360  -16.6165 C   0  0  1  0  0  0  0  0  0  0  0  0
   23.9015   -8.2782  -17.0904 C   0  0  0  0  0  0  0  0  0  0  0  0
   24.7734   -9.2675  -16.4189 C   0  0  0  0  0  0  0  0  0  0  0  0
   24.4544  -10.1710  -15.4355 C   0  0  0  0  0  0  0  0  0  0  0  0
   25.5575  -10.8679  -15.1235 N   0  0  0  0  0  0  0  0  0  0  0  0
   26.5552  -10.4138  -15.8950 C   0  0  0  0  0  0  0  0  0  0  0  0
   26.0780   -9.4386  -16.6845 N   0  0  0  0  0  0  0  0  0  0  0  0
   21.7087   -7.2652  -17.1668 C   0  0  0  0  0  0  0  0  0  0  0  0
   21.3965   -7.2380  -18.4071 O   0  0  0  0  0  0  0  0  0  0  0  0
   21.3110   -6.1345  -16.4183 N   0  0  0  0  0  0  0  0  0  0  0  0
   20.5863   -5.0027  -17.0144 C   0  0  1  0  0  0  0  0  0  0  0  0
   19.1432   -5.0419  -16.6802 C   0  0  0  0  0  0  0  0  0  0  0  0
   18.2595   -3.9691  -17.1832 C   0  0  0  0  0  0  0  0  0  0  0  0
   16.8525   -3.9663  -16.8310 C   0  0  0  0  0  0  0  0  0  0  0  0
   16.3538   -4.7692  -16.0360 O   0  0  0  0  0  0  0  0  0  0  0  0
   21.2846   -3.7503  -16.8323 C   0  0  0  0  0  0  0  0  0  0  0  0
   20.9317   -2.5594  -17.5031 O   0  0  0  0  0  0  0  0  0  0  0  0
   15.9531   -3.0294  -17.3847 O   0  0  0  0  0  0  0  0  0  0  0  0
   22.2685   -3.6390  -16.0584 O   0  0  0  0  0  0  0  0  0  0  0  0
  2  3  1  0
  2  1  1  1
  3  4  1  0
  4 12  1  0
  5  6  1  0
  5  4  2  0
  6  7  1  0
  7  8  2  0
  8  9  1  0
 10  9  2  0
 11 10  1  0
 12  7  1  0
 12 11  2  0
 13  2  1  0
 14 13  2  0
 15 13  1  0
 16 23  1  0
 16 15  1  0
 16 17  1  6
 18 22  1  0
 18 17  1  0
 19 18  2  0
 20 19  1  0
 20 21  1  0
 21 22  2  0
 23 24  2  0
 25 26  1  0
 25 23  1  0
 26 27  1  1
 28 27  1  0
 29 28  1  0
 29 33  1  0
 30 29  2  0
 31 32  1  0
 31 26  1  0
 34 31  2  0
M  END
$$$$
