WHE.pdb
     RDKit          3D

 34 36  0  0  1  0  0  0  0  0999 V2000
   24.3198  -20.6258  -19.5924 N   0  0  0  0  0  0  0  0  0  0  0  0
   23.7034  -19.5997  -18.8246 C   0  0  1  0  0  0  0  0  0  0  0  0
   22.5943  -18.9636  -19.6636 C   0  0  0  0  0  0  0  0  0  0  0  0
   22.9933  -17.7253  -20.3210 C   0  0  0  0  0  0  0  0  0  0  0  0
   23.9185  -17.5945  -21.3327 C   0  0  0  0  0  0  0  0  0  0  0  0
   24.0526  -16.3048  -21.6634 N   0  0  0  0  0  0  0  0  0  0  0  0
   23.2200  -15.5505  -20.8798 C   0  0  0  0  0  0  0  0  0  0  0  0
   22.9931  -14.1956  -20.8425 C   0  0  0  0  0  0  0  0  0  0  0  0
   22.0943  -13.6656  -19.9675 C   0  0  0  0  0  0  0  0  0  0  0  0
   21.4299  -14.5337  -19.1319 C   0  0  0  0  0  0  0  0  0  0  0  0
   21.6487  -15.8965  -19.1593 C   0  0  0  0  0  0  0  0  0  0  0  0
   22.5645  -16.4476  -20.0473 C   0  0  0  0  0  0  0  0  0  0  0  0
   23.0215  -20.1467  -17.5954 C   0  0  0  0  0  0  0  0  0  0  0  0
   22.4414  -21.2456  -17.7203 O   0  0  0  0  0  0  0  0  0  0  0  0
   23.0404  -19.4462  -16.3582 N   0  0  0  0  0  0  0  0  0  0  0  0
   22.2802  -20.0102  -15.2686 C   0  0  1  0  0  0  0  0  0  0  0  0
   22.8068  -19.4489  -13.9263 C   0  0  0  0  0  0  0  0  0  0  0  0
   22.0969  -20.0742  -12.7884 C   0  0  0  0  0  0  0  0  0  0  0  0
   22.2825  -21.3166  -12.2339 C   0  0  0  0  0  0  0  0  0  0  0  0
   21.4165  -21.4641  -11.2201 N   0  0  0  0  0  0  0  0  0  0  0  0
   20.6969  -20.3364  -11.1347 C   0  0  0  0  0  0  0  0  0  0  0  0
   21.1110  -19.4892  -12.0901 N   0  0  0  0  0  0  0  0  0  0  0  0
   20.8390  -19.6570  -15.3136 C   0  0  0  0  0  0  0  0  0  0  0  0
   20.4887  -18.4510  -15.5577 O   0  0  0  0  0  0  0  0  0  0  0  0
   19.7763  -20.5649  -15.1054 N   0  0  0  0  0  0  0  0  0  0  0  0
   18.3754  -20.1340  -14.9890 C   0  0  1  0  0  0  0  0  0  0  0  0
   17.6115  -20.4218  -16.2257 C   0  0  0  0  0  0  0  0  0  0  0  0
   16.1719  -20.0900  -16.2748 C   0  0  0  0  0  0  0  0  0  0  0  0
   15.3991  -20.3969  -17.4632 C   0  0  0  0  0  0  0  0  0  0  0  0
   15.8589  -21.0194  -18.4257 O   0  0  0  0  0  0  0  0  0  0  0  0
   17.7865  -20.5261  -13.7286 C   0  0  0  0  0  0  0  0  0  0  0  0
   16.8534  -19.7325  -13.0268 O   0  0  0  0  0  0  0  0  0  0  0  0
   14.0515  -19.9961  -17.5933 O   0  0  0  0  0  0  0  0  0  0  0  0
   18.0743  -21.6114  -13.1643 O   0  0  0  0  0  0  0  0  0  0  0  0
  2  3  1  0
  2  1  1  6
  3  4  1  0
  4 12  1  0
  5  6  1  0
  5  4  2  0
  6  7  1  0
  7  8  2  0
  8  9  1  0
 10  9  2  0
 11 10  1  0
 12  7  1  0
 12 11  2  0
 13  2  1  0
 14 13  2  0
 15 13  1  0
 16 23  1  0
 16 15  1  0
 16 17  1  1
 18 22  1  0
 18 17  1  0
 19 18  2  0
 20 19  1  0
 20 21  1  0
 21 22  2  0
 23 24  2  0
 25 26  1  0
 25 23  1  0
 26 27  1  6
 28 27  1  0
 29 28  1  0
 29 33  1  0
 30 29  2  0
 31 32  1  0
 31 26  1  0
 34 31  2  0
M  END
$$$$
