WHE.pdb
     RDKit          3D

 34 36  0  0  1  0  0  0  0  0999 V2000
   26.2911  -22.6109  -10.5922 N   0  0  0  0  0  0  0  0  0  0  0  0
   25.7825  -21.2939  -10.4212 C   0  0  1  0  0  0  0  0  0  0  0  0
   26.9491  -20.3081  -10.4967 C   0  0  0  0  0  0  0  0  0  0  0  0
   28.0177  -20.5904   -9.5465 C   0  0  0  0  0  0  0  0  0  0  0  0
   29.2164  -21.2110   -9.8200 C   0  0  0  0  0  0  0  0  0  0  0  0
   29.9338  -21.3313   -8.6969 N   0  0  0  0  0  0  0  0  0  0  0  0
   29.2287  -20.7937   -7.6529 C   0  0  0  0  0  0  0  0  0  0  0  0
   29.5373  -20.6721   -6.3192 C   0  0  0  0  0  0  0  0  0  0  0  0
   28.6657  -20.0816   -5.4555 C   0  0  0  0  0  0  0  0  0  0  0  0
   27.4765  -19.6166   -5.9682 C   0  0  0  0  0  0  0  0  0  0  0  0
   27.1544  -19.7326   -7.3057 C   0  0  0  0  0  0  0  0  0  0  0  0
   28.0361  -20.3346   -8.1953 C   0  0  0  0  0  0  0  0  0  0  0  0
   24.8448  -20.9018  -11.5357 C   0  0  0  0  0  0  0  0  0  0  0  0
   24.3947  -19.7373  -11.5038 O   0  0  0  0  0  0  0  0  0  0  0  0
   24.4936  -21.8124  -12.5697 N   0  0  0  0  0  0  0  0  0  0  0  0
   23.6122  -21.3277  -13.6048 C   0  0  1  0  0  0  0  0  0  0  0  0
   23.8033  -22.1757  -14.8849 C   0  0  0  0  0  0  0  0  0  0  0  0
   25.0592  -21.8014  -15.5723 C   0  0  0  0  0  0  0  0  0  0  0  0
   25.9241  -20.7733  -15.2888 C   0  0  0  0  0  0  0  0  0  0  0  0
   26.9325  -20.8092  -16.1728 N   0  0  0  0  0  0  0  0  0  0  0  0
   26.7098  -21.8405  -16.9996 C   0  0  0  0  0  0  0  0  0  0  0  0
   25.5684  -22.4453  -16.6343 N   0  0  0  0  0  0  0  0  0  0  0  0
   22.1743  -21.4474  -13.2551 C   0  0  0  0  0  0  0  0  0  0  0  0
   21.8189  -22.1930  -12.2783 O   0  0  0  0  0  0  0  0  0  0  0  0
   21.1205  -20.7868  -13.9261 N   0  0  0  0  0  0  0  0  0  0  0  0
   19.7698  -20.6666  -13.3581 C   0  0  1  0  0  0  0  0  0  0  0  0
   19.3383  -19.2516  -13.2716 C   0  0  0  0  0  0  0  0  0  0  0  0
   17.9645  -18.9455  -12.8201 C   0  0  0  0  0  0  0  0  0  0  0  0
   17.4956  -17.5730  -12.8096 C   0  0  0  0  0  0  0  0  0  0  0  0
   18.1840  -16.6271  -12.4137 O   0  0  0  0  0  0  0  0  0  0  0  0
   18.8472  -21.6164  -13.9376 C   0  0  0  0  0  0  0  0  0  0  0  0
   17.8047  -22.2299  -13.2099 O   0  0  0  0  0  0  0  0  0  0  0  0
   16.2020  -17.2297  -13.2596 O   0  0  0  0  0  0  0  0  0  0  0  0
   18.9167  -21.9673  -15.1423 O   0  0  0  0  0  0  0  0  0  0  0  0
  2  3  1  0
  2  1  1  6
  3  4  1  0
  4 12  1  0
  5  6  1  0
  5  4  2  0
  6  7  1  0
  7  8  2  0
  8  9  1  0
 10  9  2  0
 11 10  1  0
 12  7  1  0
 12 11  2  0
 13  2  1  0
 14 13  2  0
 15 13  1  0
 16 23  1  0
 16 15  1  0
 16 17  1  6
 18 22  1  0
 18 17  1  0
 19 18  2  0
 20 19  1  0
 20 21  1  0
 21 22  2  0
 23 24  2  0
 25 26  1  0
 25 23  1  0
 26 27  1  6
 28 27  1  0
 29 28  1  0
 29 33  1  0
 30 29  2  0
 31 32  1  0
 31 26  1  0
 34 31  2  0
M  END
$$$$
