WHE.pdb
     RDKit          3D

 34 36  0  0  1  0  0  0  0  0999 V2000
   24.6409  -20.9705   -8.5962 N   0  0  0  0  0  0  0  0  0  0  0  0
   24.9847  -20.4416   -9.8707 C   0  0  1  0  0  0  0  0  0  0  0  0
   26.1002  -21.2998  -10.4689 C   0  0  0  0  0  0  0  0  0  0  0  0
   27.3789  -21.1605   -9.7834 C   0  0  0  0  0  0  0  0  0  0  0  0
   28.5671  -21.7629  -10.1326 C   0  0  0  0  0  0  0  0  0  0  0  0
   29.5207  -21.4328   -9.2538 N   0  0  0  0  0  0  0  0  0  0  0  0
   28.9881  -20.6043   -8.3020 C   0  0  0  0  0  0  0  0  0  0  0  0
   29.5574  -19.9989   -7.2074 C   0  0  0  0  0  0  0  0  0  0  0  0
   28.8172  -19.1951   -6.3947 C   0  0  0  0  0  0  0  0  0  0  0  0
   27.4903  -19.0162   -6.7119 C   0  0  0  0  0  0  0  0  0  0  0  0
   26.9064  -19.6186   -7.8082 C   0  0  0  0  0  0  0  0  0  0  0  0
   27.6523  -20.4415   -8.6434 C   0  0  0  0  0  0  0  0  0  0  0  0
   23.8371  -20.5274  -10.8458 C   0  0  0  0  0  0  0  0  0  0  0  0
   22.9885  -21.4187  -10.6334 O   0  0  0  0  0  0  0  0  0  0  0  0
   23.7281  -19.6372  -11.9492 N   0  0  0  0  0  0  0  0  0  0  0  0
   22.4091  -19.4182  -12.4927 C   0  0  1  0  0  0  0  0  0  0  0  0
   22.4493  -18.2303  -13.4835 C   0  0  0  0  0  0  0  0  0  0  0  0
   21.0813  -17.8713  -13.9187 C   0  0  0  0  0  0  0  0  0  0  0  0
   19.8820  -18.4147  -13.5291 C   0  0  0  0  0  0  0  0  0  0  0  0
   18.8955  -17.7808  -14.1809 N   0  0  0  0  0  0  0  0  0  0  0  0
   19.4602  -16.8540  -14.9676 C   0  0  0  0  0  0  0  0  0  0  0  0
   20.7919  -16.9087  -14.8083 N   0  0  0  0  0  0  0  0  0  0  0  0
   21.8958  -20.5732  -13.2715 C   0  0  0  0  0  0  0  0  0  0  0  0
   22.6898  -21.2308  -14.0289 O   0  0  0  0  0  0  0  0  0  0  0  0
   20.5597  -21.0329  -13.2519 N   0  0  0  0  0  0  0  0  0  0  0  0
   20.1100  -22.1992  -14.0260 C   0  0  1  0  0  0  0  0  0  0  0  0
   19.9146  -23.3860  -13.1605 C   0  0  0  0  0  0  0  0  0  0  0  0
   19.5003  -24.6643  -13.7764 C   0  0  0  0  0  0  0  0  0  0  0  0
   18.4000  -25.4184  -13.2070 C   0  0  0  0  0  0  0  0  0  0  0  0
   17.8168  -25.0840  -12.1709 O   0  0  0  0  0  0  0  0  0  0  0  0
   19.0550  -21.8640  -14.9553 C   0  0  0  0  0  0  0  0  0  0  0  0
   17.8658  -21.2046  -14.5757 O   0  0  0  0  0  0  0  0  0  0  0  0
   17.9207  -26.5999  -13.8134 O   0  0  0  0  0  0  0  0  0  0  0  0
   19.1255  -22.1460  -16.1779 O   0  0  0  0  0  0  0  0  0  0  0  0
  2  3  1  0
  2  1  1  1
  3  4  1  0
  4 12  1  0
  5  6  1  0
  5  4  2  0
  6  7  1  0
  7  8  2  0
  8  9  1  0
 10  9  2  0
 11 10  1  0
 12  7  1  0
 12 11  2  0
 13  2  1  0
 14 13  2  0
 15 13  1  0
 16 23  1  0
 16 15  1  0
 16 17  1  6
 18 22  1  0
 18 17  1  0
 19 18  2  0
 20 19  1  0
 20 21  1  0
 21 22  2  0
 23 24  2  0
 25 26  1  0
 25 23  1  0
 26 27  1  1
 28 27  1  0
 29 28  1  0
 29 33  1  0
 30 29  2  0
 31 32  1  0
 31 26  1  0
 34 31  2  0
M  END
$$$$
