WHE.pdb
     RDKit          3D

 34 36  0  0  1  0  0  0  0  0999 V2000
   24.8498  -34.8683  -13.4404 N   0  0  0  0  0  0  0  0  0  0  0  0
   23.9364  -35.3268  -12.4514 C   0  0  1  0  0  0  0  0  0  0  0  0
   24.3754  -36.7174  -11.9909 C   0  0  0  0  0  0  0  0  0  0  0  0
   23.7577  -37.8051  -12.7393 C   0  0  0  0  0  0  0  0  0  0  0  0
   24.1444  -38.2742  -13.9750 C   0  0  0  0  0  0  0  0  0  0  0  0
   23.3243  -39.2563  -14.3665 N   0  0  0  0  0  0  0  0  0  0  0  0
   22.3751  -39.4618  -13.4005 C   0  0  0  0  0  0  0  0  0  0  0  0
   21.3298  -40.3514  -13.3329 C   0  0  0  0  0  0  0  0  0  0  0  0
   20.5087  -40.3773  -12.2469 C   0  0  0  0  0  0  0  0  0  0  0  0
   20.7667  -39.4856  -11.2312 C   0  0  0  0  0  0  0  0  0  0  0  0
   21.8132  -38.5869  -11.2868 C   0  0  0  0  0  0  0  0  0  0  0  0
   22.6563  -38.5514  -12.3909 C   0  0  0  0  0  0  0  0  0  0  0  0
   23.9610  -34.4618  -11.2159 C   0  0  0  0  0  0  0  0  0  0  0  0
   25.0569  -33.9414  -10.9196 O   0  0  0  0  0  0  0  0  0  0  0  0
   22.7947  -34.2500  -10.4308 N   0  0  0  0  0  0  0  0  0  0  0  0
   22.9307  -33.4208   -9.2573 C   0  0  1  0  0  0  0  0  0  0  0  0
   21.6420  -32.5869   -9.0617 C   0  0  0  0  0  0  0  0  0  0  0  0
   21.8819  -31.1704   -9.4162 C   0  0  0  0  0  0  0  0  0  0  0  0
   23.0410  -30.5738   -9.8475 C   0  0  0  0  0  0  0  0  0  0  0  0
   22.7991  -29.2699  -10.0497 N   0  0  0  0  0  0  0  0  0  0  0  0
   21.5114  -29.0460   -9.7520 C   0  0  0  0  0  0  0  0  0  0  0  0
   20.9521  -30.2036   -9.3659 N   0  0  0  0  0  0  0  0  0  0  0  0
   23.0988  -34.1994   -8.0045 C   0  0  0  0  0  0  0  0  0  0  0  0
   22.4437  -35.2859   -7.8400 O   0  0  0  0  0  0  0  0  0  0  0  0
   23.9499  -33.8389   -6.9355 N   0  0  0  0  0  0  0  0  0  0  0  0
   24.0698  -34.6429   -5.7104 C   0  0  1  0  0  0  0  0  0  0  0  0
   25.4850  -34.8102   -5.3040 C   0  0  0  0  0  0  0  0  0  0  0  0
   25.9814  -34.0868   -4.1145 C   0  0  0  0  0  0  0  0  0  0  0  0
   27.3533  -34.2662   -3.6792 C   0  0  0  0  0  0  0  0  0  0  0  0
   27.8051  -33.7635   -2.6455 O   0  0  0  0  0  0  0  0  0  0  0  0
   23.1227  -34.2377   -4.6965 C   0  0  0  0  0  0  0  0  0  0  0  0
   22.8251  -35.0152   -3.5565 O   0  0  0  0  0  0  0  0  0  0  0  0
   28.2705  -35.0400   -4.4232 O   0  0  0  0  0  0  0  0  0  0  0  0
   22.4894  -33.1546   -4.7669 O   0  0  0  0  0  0  0  0  0  0  0  0
  2  3  1  0
  2  1  1  6
  3  4  1  0
  4 12  1  0
  5  6  1  0
  5  4  2  0
  6  7  1  0
  7  8  2  0
  8  9  1  0
 10  9  2  0
 11 10  1  0
 12  7  1  0
 12 11  2  0
 13  2  1  0
 14 13  2  0
 15 13  1  0
 16 23  1  0
 16 15  1  0
 16 17  1  1
 18 22  1  0
 18 17  1  0
 19 18  2  0
 20 19  1  0
 20 21  1  0
 21 22  2  0
 23 24  2  0
 25 26  1  0
 25 23  1  0
 26 27  1  1
 28 27  1  0
 29 28  1  0
 29 33  1  0
 30 29  2  0
 31 32  1  0
 31 26  1  0
 34 31  2  0
M  END
$$$$
