WHE.pdb
     RDKit          3D

 34 36  0  0  1  0  0  0  0  0999 V2000
   25.9933  -20.1188  -17.3881 N   0  0  0  0  0  0  0  0  0  0  0  0
   24.8529  -19.3567  -17.0125 C   0  0  1  0  0  0  0  0  0  0  0  0
   24.0585  -19.0159  -18.2739 C   0  0  0  0  0  0  0  0  0  0  0  0
   24.5806  -17.8669  -19.0032 C   0  0  0  0  0  0  0  0  0  0  0  0
   25.5214  -17.8914  -20.0086 C   0  0  0  0  0  0  0  0  0  0  0  0
   25.7825  -16.6448  -20.4188 N   0  0  0  0  0  0  0  0  0  0  0  0
   25.0215  -15.7647  -19.6959 C   0  0  0  0  0  0  0  0  0  0  0  0
   24.9272  -14.3946  -19.7478 C   0  0  0  0  0  0  0  0  0  0  0  0
   24.0778  -13.7250  -18.9204 C   0  0  0  0  0  0  0  0  0  0  0  0
   23.3262  -14.4692  -18.0403 C   0  0  0  0  0  0  0  0  0  0  0  0
   23.4117  -15.8457  -17.9781 C   0  0  0  0  0  0  0  0  0  0  0  0
   24.2760  -16.5387  -18.8171 C   0  0  0  0  0  0  0  0  0  0  0  0
   23.9102  -20.1449  -16.1377 C   0  0  0  0  0  0  0  0  0  0  0  0
   23.7809  -21.3577  -16.4061 O   0  0  0  0  0  0  0  0  0  0  0  0
   23.2066  -19.5366  -15.0623 N   0  0  0  0  0  0  0  0  0  0  0  0
   22.3077  -20.3737  -14.3043 C   0  0  1  0  0  0  0  0  0  0  0  0
   22.6441  -20.2619  -12.7981 C   0  0  0  0  0  0  0  0  0  0  0  0
   23.8335  -21.0790  -12.4702 C   0  0  0  0  0  0  0  0  0  0  0  0
   24.5401  -21.9361  -13.2773 C   0  0  0  0  0  0  0  0  0  0  0  0
   25.5443  -22.4643  -12.5617 N   0  0  0  0  0  0  0  0  0  0  0  0
   25.4744  -21.9509  -11.3254 C   0  0  0  0  0  0  0  0  0  0  0  0
   24.4322  -21.1068  -11.2691 N   0  0  0  0  0  0  0  0  0  0  0  0
   20.8844  -19.9703  -14.4287 C   0  0  0  0  0  0  0  0  0  0  0  0
   20.5860  -18.7356  -14.5811 O   0  0  0  0  0  0  0  0  0  0  0  0
   19.7856  -20.8582  -14.3948 N   0  0  0  0  0  0  0  0  0  0  0  0
   18.3952  -20.4069  -14.5521 C   0  0  1  0  0  0  0  0  0  0  0  0
   17.8085  -20.8815  -15.8275 C   0  0  0  0  0  0  0  0  0  0  0  0
   17.9118  -20.0259  -17.0284 C   0  0  0  0  0  0  0  0  0  0  0  0
   16.7763  -19.8919  -17.9208 C   0  0  0  0  0  0  0  0  0  0  0  0
   15.7244  -20.5223  -17.7746 O   0  0  0  0  0  0  0  0  0  0  0  0
   17.6210  -20.5927  -13.3458 C   0  0  0  0  0  0  0  0  0  0  0  0
   16.5551  -19.7473  -12.9689 O   0  0  0  0  0  0  0  0  0  0  0  0
   16.8053  -19.0174  -19.0289 O   0  0  0  0  0  0  0  0  0  0  0  0
   17.8523  -21.5285  -12.5396 O   0  0  0  0  0  0  0  0  0  0  0  0
  2  3  1  0
  2  1  1  6
  3  4  1  0
  4 12  1  0
  5  6  1  0
  5  4  2  0
  6  7  1  0
  7  8  2  0
  8  9  1  0
 10  9  2  0
 11 10  1  0
 12  7  1  0
 12 11  2  0
 13  2  1  0
 14 13  2  0
 15 13  1  0
 16 23  1  0
 16 15  1  0
 16 17  1  1
 18 22  1  0
 18 17  1  0
 19 18  2  0
 20 19  1  0
 20 21  1  0
 21 22  2  0
 23 24  2  0
 25 26  1  0
 25 23  1  0
 26 27  1  6
 28 27  1  0
 29 28  1  0
 29 33  1  0
 30 29  2  0
 31 32  1  0
 31 26  1  0
 34 31  2  0
M  END
$$$$
