WHE.pdb
     RDKit          3D

 34 36  0  0  1  0  0  0  0  0999 V2000
   27.3841  -20.0535  -11.7698 N   0  0  0  0  0  0  0  0  0  0  0  0
   26.5653  -21.1943  -11.5445 C   0  0  1  0  0  0  0  0  0  0  0  0
   25.9732  -21.0981  -10.1379 C   0  0  0  0  0  0  0  0  0  0  0  0
   26.9663  -20.8553   -9.0990 C   0  0  0  0  0  0  0  0  0  0  0  0
   26.7815  -20.1360   -7.9392 C   0  0  0  0  0  0  0  0  0  0  0  0
   27.9231  -20.0943   -7.2423 N   0  0  0  0  0  0  0  0  0  0  0  0
   28.8910  -20.7845   -7.9226 C   0  0  0  0  0  0  0  0  0  0  0  0
   30.2089  -21.0309   -7.6206 C   0  0  0  0  0  0  0  0  0  0  0  0
   30.9890  -21.7643   -8.4620 C   0  0  0  0  0  0  0  0  0  0  0  0
   30.4091  -22.2433   -9.6142 C   0  0  0  0  0  0  0  0  0  0  0  0
   29.0867  -22.0028   -9.9292 C   0  0  0  0  0  0  0  0  0  0  0  0
   28.2821  -21.2547   -9.0783 C   0  0  0  0  0  0  0  0  0  0  0  0
   25.3843  -21.2354  -12.4819 C   0  0  0  0  0  0  0  0  0  0  0  0
   25.0463  -20.1519  -13.0031 O   0  0  0  0  0  0  0  0  0  0  0  0
   24.6932  -22.4470  -12.7578 N   0  0  0  0  0  0  0  0  0  0  0  0
   23.6835  -22.4109  -13.7885 C   0  0  1  0  0  0  0  0  0  0  0  0
   23.4985  -23.8286  -14.3803 C   0  0  0  0  0  0  0  0  0  0  0  0
   24.5612  -24.1213  -15.3676 C   0  0  0  0  0  0  0  0  0  0  0  0
   25.5213  -23.2814  -15.8757 C   0  0  0  0  0  0  0  0  0  0  0  0
   26.2746  -23.9721  -16.7447 N   0  0  0  0  0  0  0  0  0  0  0  0
   25.8002  -25.2252  -16.7853 C   0  0  0  0  0  0  0  0  0  0  0  0
   24.7561  -25.3166  -15.9465 N   0  0  0  0  0  0  0  0  0  0  0  0
   22.3459  -22.0080  -13.2863 C   0  0  0  0  0  0  0  0  0  0  0  0
   21.9179  -22.4761  -12.1753 O   0  0  0  0  0  0  0  0  0  0  0  0
   21.4676  -21.1190  -13.9461 N   0  0  0  0  0  0  0  0  0  0  0  0
   20.1580  -20.7417  -13.3948 C   0  0  1  0  0  0  0  0  0  0  0  0
   19.6376  -19.5044  -14.0226 C   0  0  0  0  0  0  0  0  0  0  0  0
   18.9796  -19.5906  -15.3434 C   0  0  0  0  0  0  0  0  0  0  0  0
   19.3316  -18.6498  -16.3896 C   0  0  0  0  0  0  0  0  0  0  0  0
   20.3226  -18.7851  -17.1141 O   0  0  0  0  0  0  0  0  0  0  0  0
   19.2623  -21.8716  -13.2927 C   0  0  0  0  0  0  0  0  0  0  0  0
   18.1814  -21.9266  -12.3865 O   0  0  0  0  0  0  0  0  0  0  0  0
   18.5490  -17.5033  -16.6477 O   0  0  0  0  0  0  0  0  0  0  0  0
   19.3920  -22.8952  -14.0100 O   0  0  0  0  0  0  0  0  0  0  0  0
  2  3  1  0
  2  1  1  6
  3  4  1  0
  4 12  1  0
  5  6  1  0
  5  4  2  0
  6  7  1  0
  7  8  2  0
  8  9  1  0
 10  9  2  0
 11 10  1  0
 12  7  1  0
 12 11  2  0
 13  2  1  0
 14 13  2  0
 15 13  1  0
 16 23  1  0
 16 15  1  0
 16 17  1  1
 18 22  1  0
 18 17  1  0
 19 18  2  0
 20 19  1  0
 20 21  1  0
 21 22  2  0
 23 24  2  0
 25 26  1  0
 25 23  1  0
 26 27  1  6
 28 27  1  0
 29 28  1  0
 29 33  1  0
 30 29  2  0
 31 32  1  0
 31 26  1  0
 34 31  2  0
M  END
$$$$
