VAG.pdb
     RDKit          3D

 17 16  0  0  1  0  0  0  0  0999 V2000
   23.2020  -12.3805  -14.7958 C   0  0  0  0  0  0  0  0  0  0  0  0
   23.6142  -10.9892  -15.1302 C   0  0  1  0  0  0  0  0  0  0  0  0
   24.2938  -11.0313  -16.4989 C   0  0  0  0  0  0  0  0  0  0  0  0
   22.5073   -9.9884  -15.2326 C   0  0  2  0  0  0  0  0  0  0  0  0
   21.5198  -10.5988  -16.1485 N   0  0  0  0  0  0  0  0  0  0  0  0
   22.9063   -8.6656  -15.7493 C   0  0  0  0  0  0  0  0  0  0  0  0
   23.6637   -7.9203  -15.0351 O   0  0  0  0  0  0  0  0  0  0  0  0
   23.2620   -6.7391  -18.9038 C   0  0  0  0  0  0  0  0  0  0  0  0
   22.9470   -6.7897  -17.4332 C   0  0  2  0  0  0  0  0  0  0  0  0
   22.5312   -8.1068  -16.9956 N   0  0  0  0  0  0  0  0  0  0  0  0
   21.9826   -5.7347  -17.0323 C   0  0  0  0  0  0  0  0  0  0  0  0
   20.7570   -6.0119  -17.0202 O   0  0  0  0  0  0  0  0  0  0  0  0
   22.3773   -4.4327  -16.6634 N   0  0  0  0  0  0  0  0  0  0  0  0
   21.4619   -3.3790  -16.2867 C   0  0  0  0  0  0  0  0  0  0  0  0
   20.9682   -3.5147  -14.9143 C   0  0  0  0  0  0  0  0  0  0  0  0
   20.2671   -2.5213  -14.2498 O   0  0  0  0  0  0  0  0  0  0  0  0
   21.1826   -4.5825  -14.2904 O   0  0  0  0  0  0  0  0  0  0  0  0
  2  3  1  6
  2  1  1  0
  4  2  1  0
  4  5  1  6
  6  4  1  0
  6 10  1  0
  7  6  2  0
  9  8  1  6
  9 10  1  0
  9 11  1  0
 11 12  2  0
 13 11  1  0
 13 14  1  0
 14 15  1  0
 15 16  1  0
 17 15  2  0
M  END
$$$$
