VAG.pdb
     RDKit          3D

 17 16  0  0  1  0  0  0  0  0999 V2000
   18.5712  -12.4085  -19.3545 C   0  0  0  0  0  0  0  0  0  0  0  0
   18.9618  -11.7375  -18.0838 C   0  0  1  0  0  0  0  0  0  0  0  0
   19.6655  -12.7801  -17.2150 C   0  0  0  0  0  0  0  0  0  0  0  0
   19.9059  -10.5853  -18.2188 C   0  0  2  0  0  0  0  0  0  0  0  0
   20.9699  -11.0636  -19.1275 N   0  0  0  0  0  0  0  0  0  0  0  0
   20.5095  -10.1202  -16.9556 C   0  0  0  0  0  0  0  0  0  0  0  0
   19.7560   -9.6054  -16.0576 O   0  0  0  0  0  0  0  0  0  0  0  0
   23.6984  -10.2568  -14.9562 C   0  0  0  0  0  0  0  0  0  0  0  0
   22.4275   -9.5896  -15.4078 C   0  0  2  0  0  0  0  0  0  0  0  0
   21.8822  -10.1827  -16.6120 N   0  0  0  0  0  0  0  0  0  0  0  0
   22.5817   -8.1179  -15.5275 C   0  0  0  0  0  0  0  0  0  0  0  0
   22.9941   -7.6418  -16.6148 O   0  0  0  0  0  0  0  0  0  0  0  0
   22.2868   -7.2264  -14.4762 N   0  0  0  0  0  0  0  0  0  0  0  0
   22.4268   -5.7900  -14.5615 C   0  0  0  0  0  0  0  0  0  0  0  0
   22.1631   -5.1137  -13.2891 C   0  0  0  0  0  0  0  0  0  0  0  0
   22.2993   -3.7472  -13.1043 O   0  0  0  0  0  0  0  0  0  0  0  0
   21.7926   -5.7934  -12.3011 O   0  0  0  0  0  0  0  0  0  0  0  0
  2  3  1  1
  2  1  1  0
  4  2  1  0
  4  5  1  6
  6  4  1  0
  6 10  1  0
  7  6  2  0
  9  8  1  6
  9 10  1  0
  9 11  1  0
 11 12  2  0
 13 11  1  0
 13 14  1  0
 14 15  1  0
 15 16  1  0
 17 15  2  0
M  END
$$$$
