VAG.pdb
     RDKit          3D

 17 16  0  0  1  0  0  0  0  0999 V2000
   18.8768  -13.9239  -18.3240 C   0  0  0  0  0  0  0  0  0  0  0  0
   18.9734  -12.4387  -18.3743 C   0  0  1  0  0  0  0  0  0  0  0  0
   17.6542  -11.8775  -17.8436 C   0  0  0  0  0  0  0  0  0  0  0  0
   20.0611  -11.8283  -17.5487 C   0  0  2  0  0  0  0  0  0  0  0  0
   19.9218  -12.4445  -16.2118 N   0  0  0  0  0  0  0  0  0  0  0  0
   20.0009  -10.3597  -17.4227 C   0  0  0  0  0  0  0  0  0  0  0  0
   20.3022   -9.6348  -18.4341 O   0  0  0  0  0  0  0  0  0  0  0  0
   18.2726   -7.5974  -16.0450 C   0  0  0  0  0  0  0  0  0  0  0  0
   19.6490   -8.1873  -16.1927 C   0  0  2  0  0  0  0  0  0  0  0  0
   19.6324   -9.6343  -16.2633 N   0  0  0  0  0  0  0  0  0  0  0  0
   20.5852   -7.6869  -15.1549 C   0  0  0  0  0  0  0  0  0  0  0  0
   20.6482   -8.2946  -14.0569 O   0  0  0  0  0  0  0  0  0  0  0  0
   21.4094   -6.5589  -15.3431 N   0  0  0  0  0  0  0  0  0  0  0  0
   22.4089   -6.1124  -14.3987 C   0  0  0  0  0  0  0  0  0  0  0  0
   21.8445   -5.3289  -13.2973 C   0  0  0  0  0  0  0  0  0  0  0  0
   22.5848   -4.8867  -12.2126 O   0  0  0  0  0  0  0  0  0  0  0  0
   20.6251   -5.0323  -13.3203 O   0  0  0  0  0  0  0  0  0  0  0  0
  2  3  1  1
  2  1  1  0
  4  2  1  0
  4  5  1  1
  6  4  1  0
  6 10  1  0
  7  6  2  0
  9  8  1  1
  9 10  1  0
  9 11  1  0
 11 12  2  0
 13 11  1  0
 13 14  1  0
 14 15  1  0
 15 16  1  0
 17 15  2  0
M  END
$$$$
