VAG.pdb
     RDKit          3D

 17 16  0  0  1  0  0  0  0  0999 V2000
   25.6072  -15.3374  -15.1831 C   0  0  0  0  0  0  0  0  0  0  0  0
   26.0650  -14.0523  -15.7802 C   0  0  1  0  0  0  0  0  0  0  0  0
   27.5933  -14.0768  -15.7987 C   0  0  0  0  0  0  0  0  0  0  0  0
   25.6240  -13.7932  -17.1857 C   0  0  2  0  0  0  0  0  0  0  0  0
   26.0798  -14.9705  -17.9556 N   0  0  0  0  0  0  0  0  0  0  0  0
   26.1685  -12.5651  -17.7954 C   0  0  0  0  0  0  0  0  0  0  0  0
   27.2101  -12.6461  -18.5354 O   0  0  0  0  0  0  0  0  0  0  0  0
   25.2723   -8.9430  -18.3921 C   0  0  0  0  0  0  0  0  0  0  0  0
   26.2381  -10.0908  -18.2738 C   0  0  2  0  0  0  0  0  0  0  0  0
   25.6471  -11.2564  -17.6483 N   0  0  0  0  0  0  0  0  0  0  0  0
   27.5083   -9.6866  -17.6202 C   0  0  0  0  0  0  0  0  0  0  0  0
   27.6388   -9.8806  -16.3856 O   0  0  0  0  0  0  0  0  0  0  0  0
   28.5782   -9.0937  -18.3208 N   0  0  0  0  0  0  0  0  0  0  0  0
   29.8168   -8.6672  -17.7091 C   0  0  0  0  0  0  0  0  0  0  0  0
   30.9465   -9.5397  -18.0381 C   0  0  0  0  0  0  0  0  0  0  0  0
   32.2530   -9.2790  -17.6575 O   0  0  0  0  0  0  0  0  0  0  0  0
   30.7385  -10.5853  -18.7004 O   0  0  0  0  0  0  0  0  0  0  0  0
  2  3  1  6
  2  1  1  0
  4  2  1  0
  4  5  1  6
  6  4  1  0
  6 10  1  0
  7  6  2  0
  9  8  1  1
  9 10  1  0
  9 11  1  0
 11 12  2  0
 13 11  1  0
 13 14  1  0
 14 15  1  0
 15 16  1  0
 17 15  2  0
M  END
$$$$
