VAG.pdb
     RDKit          3D

 17 16  0  0  1  0  0  0  0  0999 V2000
   16.4580   -9.3259  -18.0905 C   0  0  0  0  0  0  0  0  0  0  0  0
   17.7132   -8.9947  -17.3608 C   0  0  1  0  0  0  0  0  0  0  0  0
   17.5042   -7.6394  -16.6854 C   0  0  0  0  0  0  0  0  0  0  0  0
   18.1127   -9.9526  -16.2837 C   0  0  2  0  0  0  0  0  0  0  0  0
   16.8891  -10.1604  -15.4799 N   0  0  0  0  0  0  0  0  0  0  0  0
   19.2046   -9.4878  -15.4072 C   0  0  0  0  0  0  0  0  0  0  0  0
   18.9135   -8.8893  -14.3135 O   0  0  0  0  0  0  0  0  0  0  0  0
   22.9349   -9.8071  -14.9232 C   0  0  0  0  0  0  0  0  0  0  0  0
   21.6136   -9.1032  -14.7713 C   0  0  2  0  0  0  0  0  0  0  0  0
   20.5921   -9.6362  -15.6497 N   0  0  0  0  0  0  0  0  0  0  0  0
   21.7483   -7.6301  -14.8963 C   0  0  0  0  0  0  0  0  0  0  0  0
   21.6042   -7.1058  -16.0292 O   0  0  0  0  0  0  0  0  0  0  0  0
   22.0309   -6.7886  -13.8012 N   0  0  0  0  0  0  0  0  0  0  0  0
   22.1987   -5.3558  -13.8957 C   0  0  0  0  0  0  0  0  0  0  0  0
   20.9288   -4.6274  -13.8448 C   0  0  0  0  0  0  0  0  0  0  0  0
   20.8339   -3.2463  -13.9049 O   0  0  0  0  0  0  0  0  0  0  0  0
   19.8576   -5.2731  -13.7411 O   0  0  0  0  0  0  0  0  0  0  0  0
  2  3  1  1
  2  1  1  0
  4  2  1  0
  4  5  1  1
  6  4  1  0
  6 10  1  0
  7  6  2  0
  9  8  1  6
  9 10  1  0
  9 11  1  0
 11 12  2  0
 13 11  1  0
 13 14  1  0
 14 15  1  0
 15 16  1  0
 17 15  2  0
M  END
$$$$
