VAG.pdb
     RDKit          3D

 17 16  0  0  1  0  0  0  0  0999 V2000
   16.8274  -13.0719  -16.5636 C   0  0  0  0  0  0  0  0  0  0  0  0
   18.1508  -12.4877  -16.2099 C   0  0  1  0  0  0  0  0  0  0  0  0
   18.9290  -12.2995  -17.5120 C   0  0  0  0  0  0  0  0  0  0  0  0
   18.1146  -11.1529  -15.5360 C   0  0  2  0  0  0  0  0  0  0  0  0
   17.0935  -10.3773  -16.2725 N   0  0  0  0  0  0  0  0  0  0  0  0
   19.3920  -10.4150  -15.5414 C   0  0  0  0  0  0  0  0  0  0  0  0
   20.3165  -10.7642  -14.7274 O   0  0  0  0  0  0  0  0  0  0  0  0
   21.4221   -8.0633  -17.6337 C   0  0  0  0  0  0  0  0  0  0  0  0
   20.9865   -8.6174  -16.3042 C   0  0  2  0  0  0  0  0  0  0  0  0
   19.7228   -9.3219  -16.3792 N   0  0  0  0  0  0  0  0  0  0  0  0
   20.9896   -7.5823  -15.2400 C   0  0  0  0  0  0  0  0  0  0  0  0
   19.9176   -6.9793  -14.9830 O   0  0  0  0  0  0  0  0  0  0  0  0
   22.1414   -7.2427  -14.5017 N   0  0  0  0  0  0  0  0  0  0  0  0
   22.1616   -6.2901  -13.4143 C   0  0  0  0  0  0  0  0  0  0  0  0
   22.0729   -4.9009  -13.8702 C   0  0  0  0  0  0  0  0  0  0  0  0
   23.1224   -3.9995  -13.7917 O   0  0  0  0  0  0  0  0  0  0  0  0
   20.9949   -4.4866  -14.3617 O   0  0  0  0  0  0  0  0  0  0  0  0
  2  3  1  6
  2  1  1  0
  4  2  1  0
  4  5  1  6
  6  4  1  0
  6 10  1  0
  7  6  2  0
  9  8  1  6
  9 10  1  0
  9 11  1  0
 11 12  2  0
 13 11  1  0
 13 14  1  0
 14 15  1  0
 15 16  1  0
 17 15  2  0
M  END
$$$$
