QKL.pdb
     RDKit          3D

 27 26  0  0  1  0  0  0  0  0999 V2000
   13.6402  -14.7758   20.5714 N   0  0  0  0  0  0  0  0  0  0  0  0
   12.9142  -14.0760   19.5457 C   0  0  0  0  0  0  0  0  0  0  0  0
   13.4407  -13.0687   19.0624 O   0  0  0  0  0  0  0  0  0  0  0  0
   11.6034  -14.5515   19.1095 C   0  0  0  0  0  0  0  0  0  0  0  0
   11.2038  -15.8754   19.6209 C   0  0  0  0  0  0  0  0  0  0  0  0
    9.8464  -16.3441   19.2421 C   0  0  2  0  0  0  0  0  0  0  0  0
    9.2659  -15.5400   18.2063 N   0  0  0  0  0  0  0  0  0  0  0  0
    8.9657  -16.3909   20.4483 C   0  0  0  0  0  0  0  0  0  0  0  0
    8.0490  -15.5257   20.5114 O   0  0  0  0  0  0  0  0  0  0  0  0
    9.0852  -17.3097   21.4931 N   0  0  0  0  0  0  0  0  0  0  0  0
    8.0249  -17.4191   22.5737 C   0  0  1  0  0  0  0  0  0  0  0  0
    7.9566  -18.8570   22.8150 C   0  0  0  0  0  0  0  0  0  0  0  0
    7.0245  -19.5586   23.6685 C   0  0  0  0  0  0  0  0  0  0  0  0
    6.1990  -20.6733   23.1205 C   0  0  0  0  0  0  0  0  0  0  0  0
    5.1465  -21.1533   24.0992 C   0  0  0  0  0  0  0  0  0  0  0  0
    4.2855  -22.1566   23.4937 N   0  0  0  0  0  0  0  0  0  0  0  0
    8.4870  -16.4986   23.5937 C   0  0  0  0  0  0  0  0  0  0  0  0
    9.6937  -16.3145   23.8256 O   0  0  0  0  0  0  0  0  0  0  0  0
    6.5715  -11.5172   26.6420 C   0  0  0  0  0  0  0  0  0  0  0  0
    7.5455  -12.5334   26.2016 C   0  0  2  0  0  0  0  0  0  0  0  0
    8.3130  -11.9363   24.9856 C   0  0  0  0  0  0  0  0  0  0  0  0
    7.1165  -13.8949   25.8741 C   0  0  0  0  0  0  0  0  0  0  0  0
    8.1139  -14.9111   25.5411 C   0  0  2  0  0  0  0  0  0  0  0  0
    7.5931  -15.7429   24.3991 N   0  0  0  0  0  0  0  0  0  0  0  0
    8.4983  -15.8329   26.6099 C   0  0  0  0  0  0  0  0  0  0  0  0
    9.6773  -15.5830   27.3839 O   0  0  0  0  0  0  0  0  0  0  0  0
    7.9092  -16.8734   26.9683 O   0  0  0  0  0  0  0  0  0  0  0  0
  1  2  1  0
  2  4  1  0
  2  3  2  0
  4  5  1  0
  5  6  1  0
  6  7  1  6
  6  8  1  0
  8  9  2  0
 10  8  1  0
 10 11  1  0
 11 12  1  1
 13 12  1  0
 14 15  1  0
 14 13  1  0
 16 15  1  0
 17 24  1  0
 17 11  1  0
 18 17  2  0
 20 19  1  6
 20 22  1  0
 21 20  1  0
 23 22  1  1
 23 25  1  0
 23 24  1  0
 25 26  1  0
 27 25  2  0
M  END
$$$$
