QKL.pdb
     RDKit          3D

 27 26  0  0  1  0  0  0  0  0999 V2000
    9.3041  -21.0194   25.9404 N   0  0  0  0  0  0  0  0  0  0  0  0
   10.5640  -20.7463   25.3025 C   0  0  0  0  0  0  0  0  0  0  0  0
   11.5907  -21.0628   25.9117 O   0  0  0  0  0  0  0  0  0  0  0  0
   10.6068  -20.1137   23.9862 C   0  0  0  0  0  0  0  0  0  0  0  0
    9.2961  -19.8257   23.3754 C   0  0  0  0  0  0  0  0  0  0  0  0
    9.3216  -19.1619   22.0471 C   0  0  2  0  0  0  0  0  0  0  0  0
   10.2715  -19.7658   21.1587 N   0  0  0  0  0  0  0  0  0  0  0  0
    9.5863  -17.7004   22.2100 C   0  0  0  0  0  0  0  0  0  0  0  0
   10.7851  -17.3267   22.0831 O   0  0  0  0  0  0  0  0  0  0  0  0
    8.6156  -16.7359   22.4889 N   0  0  0  0  0  0  0  0  0  0  0  0
    8.8885  -15.2575   22.2801 C   0  0  1  0  0  0  0  0  0  0  0  0
    7.7173  -14.8157   21.5293 C   0  0  0  0  0  0  0  0  0  0  0  0
    7.6205  -13.6722   20.6503 C   0  0  0  0  0  0  0  0  0  0  0  0
    7.9370  -13.8127   19.1996 C   0  0  0  0  0  0  0  0  0  0  0  0
    7.7846  -12.5093   18.4421 C   0  0  0  0  0  0  0  0  0  0  0  0
    7.9522  -12.7110   17.0118 N   0  0  0  0  0  0  0  0  0  0  0  0
    9.1601  -14.7725   23.6189 C   0  0  0  0  0  0  0  0  0  0  0  0
    9.0818  -13.5693   23.9186 O   0  0  0  0  0  0  0  0  0  0  0  0
    8.1203  -12.3827   26.6288 C   0  0  0  0  0  0  0  0  0  0  0  0
    7.4700  -13.4273   25.8157 C   0  0  2  0  0  0  0  0  0  0  0  0
    5.9358  -13.1696   25.8800 C   0  0  0  0  0  0  0  0  0  0  0  0
    7.7271  -14.8468   26.0686 C   0  0  0  0  0  0  0  0  0  0  0  0
    9.1022  -15.3434   26.0932 C   0  0  2  0  0  0  0  0  0  0  0  0
    9.5344  -15.6385   24.6813 N   0  0  0  0  0  0  0  0  0  0  0  0
    9.3544  -16.5472   26.8852 C   0  0  0  0  0  0  0  0  0  0  0  0
    9.6858  -16.4363   28.2743 O   0  0  0  0  0  0  0  0  0  0  0  0
    9.3205  -17.7342   26.5006 O   0  0  0  0  0  0  0  0  0  0  0  0
  1  2  1  0
  2  4  1  0
  2  3  2  0
  4  5  1  0
  5  6  1  0
  6  7  1  6
  6  8  1  0
  8  9  2  0
 10  8  1  0
 10 11  1  0
 11 12  1  1
 13 12  1  0
 14 15  1  0
 14 13  1  0
 16 15  1  0
 17 24  1  0
 17 11  1  0
 18 17  2  0
 20 19  1  1
 20 22  1  0
 21 20  1  0
 23 22  1  6
 23 25  1  0
 23 24  1  0
 25 26  1  0
 27 25  2  0
M  END
$$$$
