QKL.pdb
     RDKit          3D

 27 26  0  0  1  0  0  0  0  0999 V2000
    9.8062  -14.2124   16.7372 N   0  0  0  0  0  0  0  0  0  0  0  0
    8.3719  -14.1755   16.8388 C   0  0  0  0  0  0  0  0  0  0  0  0
    7.7715  -13.3666   16.1242 O   0  0  0  0  0  0  0  0  0  0  0  0
    7.6709  -15.0653   17.7615 C   0  0  0  0  0  0  0  0  0  0  0  0
    7.5358  -14.5707   19.1439 C   0  0  0  0  0  0  0  0  0  0  0  0
    8.5686  -15.0262   20.1090 C   0  0  2  0  0  0  0  0  0  0  0  0
    9.4064  -16.0527   19.5604 N   0  0  0  0  0  0  0  0  0  0  0  0
    7.9207  -15.4773   21.3776 C   0  0  0  0  0  0  0  0  0  0  0  0
    6.9309  -14.8032   21.7761 O   0  0  0  0  0  0  0  0  0  0  0  0
    8.3281  -16.5739   22.1402 N   0  0  0  0  0  0  0  0  0  0  0  0
    7.6720  -16.8986   23.4698 C   0  0  1  0  0  0  0  0  0  0  0  0
    7.7624  -18.3543   23.5278 C   0  0  0  0  0  0  0  0  0  0  0  0
    7.2004  -19.2274   24.5334 C   0  0  0  0  0  0  0  0  0  0  0  0
    8.0408  -19.6985   25.6719 C   0  0  0  0  0  0  0  0  0  0  0  0
    7.2715  -20.5754   26.6390 C   0  0  0  0  0  0  0  0  0  0  0  0
    8.1315  -21.0578   27.7077 N   0  0  0  0  0  0  0  0  0  0  0  0
    8.3822  -16.0553   24.4110 C   0  0  0  0  0  0  0  0  0  0  0  0
    9.6166  -15.9169   24.3795 O   0  0  0  0  0  0  0  0  0  0  0  0
    7.8619  -11.6690   24.7730 C   0  0  0  0  0  0  0  0  0  0  0  0
    7.0340  -12.4735   25.6909 C   0  0  2  0  0  0  0  0  0  0  0  0
    6.0062  -11.5063   26.3485 C   0  0  0  0  0  0  0  0  0  0  0  0
    7.6499  -13.2972   26.7337 C   0  0  0  0  0  0  0  0  0  0  0  0
    8.4947  -14.4308   26.3604 C   0  0  2  0  0  0  0  0  0  0  0  0
    7.7170  -15.3283   25.4346 N   0  0  0  0  0  0  0  0  0  0  0  0
    8.9992  -15.2646   27.4513 C   0  0  0  0  0  0  0  0  0  0  0  0
    8.5367  -16.6123   27.5979 O   0  0  0  0  0  0  0  0  0  0  0  0
    9.8285  -14.9512   28.3300 O   0  0  0  0  0  0  0  0  0  0  0  0
  1  2  1  0
  2  4  1  0
  2  3  2  0
  4  5  1  0
  5  6  1  0
  6  7  1  6
  6  8  1  0
  8  9  2  0
 10  8  1  0
 10 11  1  0
 11 12  1  1
 13 12  1  0
 14 15  1  0
 14 13  1  0
 16 15  1  0
 17 24  1  0
 17 11  1  0
 18 17  2  0
 20 19  1  1
 20 22  1  0
 21 20  1  0
 23 22  1  1
 23 25  1  0
 23 24  1  0
 25 26  1  0
 27 25  2  0
M  END
$$$$
