QKL.pdb
     RDKit          3D

 27 26  0  0  1  0  0  0  0  0999 V2000
    8.2992  -12.2430   19.3760 N   0  0  0  0  0  0  0  0  0  0  0  0
    9.2746  -13.2695   19.1240 C   0  0  0  0  0  0  0  0  0  0  0  0
   10.3988  -12.9095   18.7606 O   0  0  0  0  0  0  0  0  0  0  0  0
    8.9280  -14.6789   19.2922 C   0  0  0  0  0  0  0  0  0  0  0  0
    7.5653  -14.9445   19.7886 C   0  0  0  0  0  0  0  0  0  0  0  0
    7.2394  -16.3622   20.0879 C   0  0  2  0  0  0  0  0  0  0  0  0
    6.1967  -16.8676   19.2432 N   0  0  0  0  0  0  0  0  0  0  0  0
    6.8866  -16.5127   21.5321 C   0  0  0  0  0  0  0  0  0  0  0  0
    5.7926  -16.0030   21.9015 O   0  0  0  0  0  0  0  0  0  0  0  0
    7.6705  -17.1663   22.4851 N   0  0  0  0  0  0  0  0  0  0  0  0
    7.2156  -17.2962   23.9273 C   0  0  1  0  0  0  0  0  0  0  0  0
    7.3228  -18.7312   24.1719 C   0  0  0  0  0  0  0  0  0  0  0  0
    6.2605  -19.7101   24.1210 C   0  0  0  0  0  0  0  0  0  0  0  0
    6.5589  -21.1531   24.3513 C   0  0  0  0  0  0  0  0  0  0  0  0
    5.3450  -22.0375   24.1508 C   0  0  0  0  0  0  0  0  0  0  0  0
    5.4502  -22.8014   22.9179 N   0  0  0  0  0  0  0  0  0  0  0  0
    8.0489  -16.3412   24.6309 C   0  0  0  0  0  0  0  0  0  0  0  0
    9.2414  -16.1554   24.3358 O   0  0  0  0  0  0  0  0  0  0  0  0
    6.9328  -12.0818   25.0060 C   0  0  0  0  0  0  0  0  0  0  0  0
    6.5925  -12.8632   26.2097 C   0  0  2  0  0  0  0  0  0  0  0  0
    5.7576  -11.9340   27.1389 C   0  0  0  0  0  0  0  0  0  0  0  0
    7.6360  -13.5182   27.0017 C   0  0  0  0  0  0  0  0  0  0  0  0
    8.4620  -14.5613   26.3952 C   0  0  2  0  0  0  0  0  0  0  0  0
    7.5606  -15.5514   25.7063 N   0  0  0  0  0  0  0  0  0  0  0  0
    9.3326  -15.3189   27.2942 C   0  0  0  0  0  0  0  0  0  0  0  0
    9.0799  -16.7078   27.5367 O   0  0  0  0  0  0  0  0  0  0  0  0
   10.3286  -14.9031   27.9212 O   0  0  0  0  0  0  0  0  0  0  0  0
  1  2  1  0
  2  4  1  0
  2  3  2  0
  4  5  1  0
  5  6  1  0
  6  7  1  6
  6  8  1  0
  8  9  2  0
 10  8  1  0
 10 11  1  0
 11 12  1  1
 13 12  1  0
 14 15  1  0
 14 13  1  0
 16 15  1  0
 17 24  1  0
 17 11  1  0
 18 17  2  0
 20 19  1  6
 20 22  1  0
 21 20  1  0
 23 22  1  1
 23 25  1  0
 23 24  1  0
 25 26  1  0
 27 25  2  0
M  END
$$$$
