QKL.pdb
     RDKit          3D

 27 26  0  0  1  0  0  0  0  0999 V2000
    6.9487  -19.3876   16.8974 N   0  0  0  0  0  0  0  0  0  0  0  0
    8.2211  -18.7266   16.7841 C   0  0  0  0  0  0  0  0  0  0  0  0
    8.7842  -18.7606   15.6854 O   0  0  0  0  0  0  0  0  0  0  0  0
    8.8106  -18.0505   17.9374 C   0  0  0  0  0  0  0  0  0  0  0  0
    8.0312  -18.1261   19.1867 C   0  0  0  0  0  0  0  0  0  0  0  0
    8.8133  -18.2538   20.4427 C   0  0  2  0  0  0  0  0  0  0  0  0
    8.0925  -18.9635   21.4591 N   0  0  0  0  0  0  0  0  0  0  0  0
    9.2361  -16.9032   20.9223 C   0  0  0  0  0  0  0  0  0  0  0  0
   10.4602  -16.6201   20.8030 O   0  0  0  0  0  0  0  0  0  0  0  0
    8.3851  -15.9493   21.4844 N   0  0  0  0  0  0  0  0  0  0  0  0
    8.8840  -14.5629   21.8487 C   0  0  1  0  0  0  0  0  0  0  0  0
    7.7815  -13.7026   21.4305 C   0  0  0  0  0  0  0  0  0  0  0  0
    7.6331  -13.0225   20.1636 C   0  0  0  0  0  0  0  0  0  0  0  0
    8.0547  -13.6920   18.8993 C   0  0  0  0  0  0  0  0  0  0  0  0
    7.8687  -12.8079   17.6828 C   0  0  0  0  0  0  0  0  0  0  0  0
    8.2718  -13.4965   16.4672 N   0  0  0  0  0  0  0  0  0  0  0  0
    9.2580  -14.6948   23.2430 C   0  0  0  0  0  0  0  0  0  0  0  0
   10.3168  -14.2268   23.6943 O   0  0  0  0  0  0  0  0  0  0  0  0
    8.0807  -12.1495   26.5450 C   0  0  0  0  0  0  0  0  0  0  0  0
    7.1932  -13.2235   26.0612 C   0  0  2  0  0  0  0  0  0  0  0  0
    5.7712  -12.9318   26.6239 C   0  0  0  0  0  0  0  0  0  0  0  0
    7.5198  -14.6321   26.2948 C   0  0  0  0  0  0  0  0  0  0  0  0
    8.7025  -15.2182   25.6656 C   0  0  2  0  0  0  0  0  0  0  0  0
    8.4406  -15.3679   24.1904 N   0  0  0  0  0  0  0  0  0  0  0  0
    9.1364  -16.5231   26.1643 C   0  0  0  0  0  0  0  0  0  0  0  0
    9.3360  -17.6099   25.2528 O   0  0  0  0  0  0  0  0  0  0  0  0
    9.3734  -16.8477   27.3461 O   0  0  0  0  0  0  0  0  0  0  0  0
  1  2  1  0
  2  4  1  0
  2  3  2  0
  4  5  1  0
  5  6  1  0
  6  7  1  1
  6  8  1  0
  8  9  2  0
 10  8  1  0
 10 11  1  0
 11 12  1  1
 13 12  1  0
 14 15  1  0
 14 13  1  0
 16 15  1  0
 17 24  1  0
 17 11  1  0
 18 17  2  0
 20 19  1  1
 20 22  1  0
 21 20  1  0
 23 22  1  1
 23 25  1  0
 23 24  1  0
 25 26  1  0
 27 25  2  0
M  END
$$$$
