QKL.pdb
     RDKit          3D

 27 26  0  0  1  0  0  0  0  0999 V2000
   13.1273  -13.8603   20.8541 N   0  0  0  0  0  0  0  0  0  0  0  0
   12.5833  -13.5616   19.5566 C   0  0  0  0  0  0  0  0  0  0  0  0
   13.3818  -13.3950   18.6293 O   0  0  0  0  0  0  0  0  0  0  0  0
   11.1386  -13.4586   19.3643 C   0  0  0  0  0  0  0  0  0  0  0  0
   10.4022  -14.7360   19.3745 C   0  0  0  0  0  0  0  0  0  0  0  0
    8.9234  -14.6430   19.2749 C   0  0  2  0  0  0  0  0  0  0  0  0
    8.4917  -13.3526   18.8224 N   0  0  0  0  0  0  0  0  0  0  0  0
    8.2988  -14.9932   20.5864 C   0  0  0  0  0  0  0  0  0  0  0  0
    7.4740  -14.1625   21.0581 O   0  0  0  0  0  0  0  0  0  0  0  0
    8.5607  -16.1559   21.3142 N   0  0  0  0  0  0  0  0  0  0  0  0
    7.6924  -16.5638   22.4903 C   0  0  1  0  0  0  0  0  0  0  0  0
    7.6238  -18.0154   22.3533 C   0  0  0  0  0  0  0  0  0  0  0  0
    6.6956  -18.7762   21.5477 C   0  0  0  0  0  0  0  0  0  0  0  0
    6.8155  -20.2606   21.4660 C   0  0  0  0  0  0  0  0  0  0  0  0
    5.8694  -20.8656   20.4487 C   0  0  0  0  0  0  0  0  0  0  0  0
    6.5758  -21.7506   19.5364 N   0  0  0  0  0  0  0  0  0  0  0  0
    8.3443  -15.9377   23.6237 C   0  0  0  0  0  0  0  0  0  0  0  0
    9.5805  -15.8587   23.7193 O   0  0  0  0  0  0  0  0  0  0  0  0
    8.1120  -11.7102   25.1927 C   0  0  0  0  0  0  0  0  0  0  0  0
    7.1026  -12.6219   25.7628 C   0  0  2  0  0  0  0  0  0  0  0  0
    6.1381  -11.7562   26.6256 C   0  0  0  0  0  0  0  0  0  0  0  0
    7.5032  -13.8019   26.5323 C   0  0  0  0  0  0  0  0  0  0  0  0
    8.3377  -14.8278   25.9083 C   0  0  2  0  0  0  0  0  0  0  0  0
    7.6156  -15.3706   24.7036 N   0  0  0  0  0  0  0  0  0  0  0  0
    8.7117  -15.9704   26.7418 C   0  0  0  0  0  0  0  0  0  0  0  0
    9.7550  -15.8385   27.7144 O   0  0  0  0  0  0  0  0  0  0  0  0
    8.2213  -17.1181   26.7272 O   0  0  0  0  0  0  0  0  0  0  0  0
  1  2  1  0
  2  4  1  0
  2  3  2  0
  4  5  1  0
  5  6  1  0
  6  7  1  1
  6  8  1  0
  8  9  2  0
 10  8  1  0
 10 11  1  0
 11 12  1  1
 13 12  1  0
 14 15  1  0
 14 13  1  0
 16 15  1  0
 17 24  1  0
 17 11  1  0
 18 17  2  0
 20 19  1  1
 20 22  1  0
 21 20  1  0
 23 22  1  1
 23 25  1  0
 23 24  1  0
 25 26  1  0
 27 25  2  0
M  END
$$$$
