QKL.pdb
     RDKit          3D

 27 26  0  0  1  0  0  0  0  0999 V2000
    9.0792  -12.8299   17.6015 N   0  0  0  0  0  0  0  0  0  0  0  0
    7.8638  -13.5856   17.4579 C   0  0  0  0  0  0  0  0  0  0  0  0
    7.5215  -13.9009   16.3139 O   0  0  0  0  0  0  0  0  0  0  0  0
    7.0757  -13.9521   18.6324 C   0  0  0  0  0  0  0  0  0  0  0  0
    7.6130  -13.4959   19.9274 C   0  0  0  0  0  0  0  0  0  0  0  0
    8.5772  -14.4061   20.5964 C   0  0  2  0  0  0  0  0  0  0  0  0
    9.0838  -15.4079   19.7042 N   0  0  0  0  0  0  0  0  0  0  0  0
    7.9462  -15.0241   21.8016 C   0  0  0  0  0  0  0  0  0  0  0  0
    7.2703  -14.2563   22.5408 O   0  0  0  0  0  0  0  0  0  0  0  0
    8.0517  -16.3694   22.1610 N   0  0  0  0  0  0  0  0  0  0  0  0
    7.4943  -16.8814   23.4767 C   0  0  1  0  0  0  0  0  0  0  0  0
    7.0499  -18.2295   23.1366 C   0  0  0  0  0  0  0  0  0  0  0  0
    6.4567  -19.2057   24.0224 C   0  0  0  0  0  0  0  0  0  0  0  0
    6.4107  -20.6439   23.6301 C   0  0  0  0  0  0  0  0  0  0  0  0
    5.7780  -21.5173   24.6945 C   0  0  0  0  0  0  0  0  0  0  0  0
    5.8481  -22.9231   24.3296 N   0  0  0  0  0  0  0  0  0  0  0  0
    8.5766  -16.6518   24.4134 C   0  0  0  0  0  0  0  0  0  0  0  0
    9.7614  -16.5609   24.0508 O   0  0  0  0  0  0  0  0  0  0  0  0
    9.5369  -13.9689   29.8895 C   0  0  0  0  0  0  0  0  0  0  0  0
   10.0155  -14.6372   28.6650 C   0  0  2  0  0  0  0  0  0  0  0  0
   10.9964  -13.6549   27.9599 C   0  0  0  0  0  0  0  0  0  0  0  0
    9.0714  -15.1618   27.6757 C   0  0  0  0  0  0  0  0  0  0  0  0
    9.5040  -16.1923   26.7329 C   0  0  2  0  0  0  0  0  0  0  0  0
    8.3583  -16.5148   25.8107 N   0  0  0  0  0  0  0  0  0  0  0  0
    9.9700  -17.4556   27.3048 C   0  0  0  0  0  0  0  0  0  0  0  0
   11.3736  -17.7201   27.4133 O   0  0  0  0  0  0  0  0  0  0  0  0
    9.2764  -18.3975   27.7403 O   0  0  0  0  0  0  0  0  0  0  0  0
  1  2  1  0
  2  4  1  0
  2  3  2  0
  4  5  1  0
  5  6  1  0
  6  7  1  6
  6  8  1  0
  8  9  2  0
 10  8  1  0
 10 11  1  0
 11 12  1  6
 13 12  1  0
 14 15  1  0
 14 13  1  0
 16 15  1  0
 17 24  1  0
 17 11  1  0
 18 17  2  0
 20 19  1  1
 20 22  1  0
 21 20  1  0
 23 22  1  1
 23 25  1  0
 23 24  1  0
 25 26  1  0
 27 25  2  0
M  END
$$$$
