QKL.pdb
     RDKit          3D

 27 26  0  0  1  0  0  0  0  0999 V2000
   10.4072  -13.4675   18.5864 N   0  0  0  0  0  0  0  0  0  0  0  0
    9.2614  -12.8502   17.9741 C   0  0  0  0  0  0  0  0  0  0  0  0
    9.3809  -12.4577   16.8092 O   0  0  0  0  0  0  0  0  0  0  0  0
    8.0143  -12.6979   18.7200 C   0  0  0  0  0  0  0  0  0  0  0  0
    7.9317  -13.4535   19.9834 C   0  0  0  0  0  0  0  0  0  0  0  0
    7.9145  -14.9338   19.8641 C   0  0  2  0  0  0  0  0  0  0  0  0
    6.8632  -15.3951   19.0049 N   0  0  0  0  0  0  0  0  0  0  0  0
    7.8178  -15.5557   21.2193 C   0  0  0  0  0  0  0  0  0  0  0  0
    6.6548  -15.7419   21.6728 O   0  0  0  0  0  0  0  0  0  0  0  0
    8.9067  -15.9378   22.0057 N   0  0  0  0  0  0  0  0  0  0  0  0
    8.7135  -16.6875   23.3112 C   0  0  1  0  0  0  0  0  0  0  0  0
    9.4301  -17.9371   23.0753 C   0  0  0  0  0  0  0  0  0  0  0  0
    9.1050  -18.9648   22.1121 C   0  0  0  0  0  0  0  0  0  0  0  0
    9.9682  -20.1745   21.9862 C   0  0  0  0  0  0  0  0  0  0  0  0
    9.4794  -21.1291   20.9158 C   0  0  0  0  0  0  0  0  0  0  0  0
    9.6496  -20.5606   19.5882 N   0  0  0  0  0  0  0  0  0  0  0  0
    9.1531  -15.7373   24.3139 C   0  0  0  0  0  0  0  0  0  0  0  0
   10.3298  -15.3451   24.3873 O   0  0  0  0  0  0  0  0  0  0  0  0
    7.7974  -11.5357   25.2849 C   0  0  0  0  0  0  0  0  0  0  0  0
    7.0555  -12.5909   26.0000 C   0  0  2  0  0  0  0  0  0  0  0  0
    5.8808  -11.8975   26.7505 C   0  0  0  0  0  0  0  0  0  0  0  0
    7.7407  -13.5002   26.9213 C   0  0  0  0  0  0  0  0  0  0  0  0
    8.8068  -14.3698   26.4260 C   0  0  2  0  0  0  0  0  0  0  0  0
    8.2699  -15.1884   25.2820 N   0  0  0  0  0  0  0  0  0  0  0  0
    9.3978  -15.3012   27.3868 C   0  0  0  0  0  0  0  0  0  0  0  0
    9.1058  -16.7010   27.3024 O   0  0  0  0  0  0  0  0  0  0  0  0
   10.1700  -15.0354   28.3307 O   0  0  0  0  0  0  0  0  0  0  0  0
  1  2  1  0
  2  4  1  0
  2  3  2  0
  4  5  1  0
  5  6  1  0
  6  7  1  6
  6  8  1  0
  8  9  2  0
 10  8  1  0
 10 11  1  0
 11 12  1  6
 13 12  1  0
 14 15  1  0
 14 13  1  0
 16 15  1  0
 17 24  1  0
 17 11  1  0
 18 17  2  0
 20 19  1  1
 20 22  1  0
 21 20  1  0
 23 22  1  1
 23 25  1  0
 23 24  1  0
 25 26  1  0
 27 25  2  0
M  END
$$$$
