VGD.pdb
     RDKit          3D

 20 19  0  0  1  0  0  0  0  0999 V2000
    8.3149  -12.1773   20.3666 C   0  0  0  0  0  0  0  0  0  0  0  0
    7.5448  -13.2484   19.5898 C   0  0  1  0  0  0  0  0  0  0  0  0
    7.7203  -12.9131   18.1327 C   0  0  0  0  0  0  0  0  0  0  0  0
    8.2124  -14.5872   19.9015 C   0  0  2  0  0  0  0  0  0  0  0  0
    7.5999  -15.6508   19.1289 N   0  0  0  0  0  0  0  0  0  0  0  0
    8.0481  -14.9381   21.3234 C   0  0  0  0  0  0  0  0  0  0  0  0
    6.8799  -14.9239   21.8431 O   0  0  0  0  0  0  0  0  0  0  0  0
    9.1096  -15.3018   22.1886 N   0  0  0  0  0  0  0  0  0  0  0  0
    8.8531  -15.5632   23.5806 C   0  0  0  0  0  0  0  0  0  0  0  0
   10.0606  -15.8953   24.3411 C   0  0  0  0  0  0  0  0  0  0  0  0
   10.4931  -15.1636   25.2780 O   0  0  0  0  0  0  0  0  0  0  0  0
   10.7933  -17.0850   24.0307 N   0  0  0  0  0  0  0  0  0  0  0  0
   12.0955  -17.3535   24.6066 C   0  0  1  0  0  0  0  0  0  0  0  0
   12.2996  -18.8339   24.8408 C   0  0  0  0  0  0  0  0  0  0  0  0
   11.8483  -19.2780   26.1594 C   0  0  0  0  0  0  0  0  0  0  0  0
   11.5957  -18.3948   27.0281 O   0  0  0  0  0  0  0  0  0  0  0  0
   13.1414  -16.9119   23.6544 C   0  0  0  0  0  0  0  0  0  0  0  0
   14.4479  -16.8436   24.1002 O   0  0  0  0  0  0  0  0  0  0  0  0
   11.6741  -20.6015   26.5353 O   0  0  0  0  0  0  0  0  0  0  0  0
   12.8665  -16.5998   22.4561 O   0  0  0  0  0  0  0  0  0  0  0  0
  2  3  1  6
  2  1  1  0
  4  6  1  0
  4  2  1  0
  4  5  1  6
  6  8  1  0
  7  6  2  0
  8  9  1  0
  9 10  1  0
 10 12  1  0
 10 11  2  0
 12 13  1  0
 13 17  1  0
 13 14  1  6
 15 19  1  0
 15 14  1  0
 16 15  2  0
 17 18  1  0
 20 17  2  0
M  END
$$$$
