VGD.pdb
     RDKit          3D

 20 19  0  0  1  0  0  0  0  0999 V2000
    5.9514  -11.5802   27.0034 C   0  0  0  0  0  0  0  0  0  0  0  0
    6.9368  -12.1306   25.9691 C   0  0  1  0  0  0  0  0  0  0  0  0
    8.0655  -12.7437   26.7543 C   0  0  0  0  0  0  0  0  0  0  0  0
    6.1970  -13.2141   25.1856 C   0  0  2  0  0  0  0  0  0  0  0  0
    5.8600  -14.3261   26.0534 N   0  0  0  0  0  0  0  0  0  0  0  0
    7.0431  -13.7518   24.1052 C   0  0  0  0  0  0  0  0  0  0  0  0
    7.5530  -12.9507   23.2489 O   0  0  0  0  0  0  0  0  0  0  0  0
    7.3485  -15.1245   23.9321 N   0  0  0  0  0  0  0  0  0  0  0  0
    8.1828  -15.5493   22.8388 C   0  0  0  0  0  0  0  0  0  0  0  0
    9.3807  -16.2742   23.2701 C   0  0  0  0  0  0  0  0  0  0  0  0
   10.0483  -17.0068   22.4842 O   0  0  0  0  0  0  0  0  0  0  0  0
    9.8307  -16.1646   24.6245 N   0  0  0  0  0  0  0  0  0  0  0  0
   10.9000  -16.9926   25.1446 C   0  0  1  0  0  0  0  0  0  0  0  0
   12.2156  -16.2465   25.1624 C   0  0  0  0  0  0  0  0  0  0  0  0
   13.0831  -16.5775   24.0322 C   0  0  0  0  0  0  0  0  0  0  0  0
   12.6461  -17.3896   23.1674 O   0  0  0  0  0  0  0  0  0  0  0  0
   10.5848  -17.3592   26.5453 C   0  0  0  0  0  0  0  0  0  0  0  0
   11.3792  -18.3011   27.1715 O   0  0  0  0  0  0  0  0  0  0  0  0
   14.3570  -16.0670   23.8323 O   0  0  0  0  0  0  0  0  0  0  0  0
    9.6151  -16.8343   27.1722 O   0  0  0  0  0  0  0  0  0  0  0  0
  2  3  1  1
  2  1  1  0
  4  6  1  0
  4  2  1  0
  4  5  1  1
  6  8  1  0
  7  6  2  0
  8  9  1  0
  9 10  1  0
 10 12  1  0
 10 11  2  0
 12 13  1  0
 13 17  1  0
 13 14  1  1
 15 19  1  0
 15 14  1  0
 16 15  2  0
 17 18  1  0
 20 17  2  0
M  END
$$$$
