VGD.pdb
     RDKit          3D

 20 19  0  0  1  0  0  0  0  0999 V2000
    6.9097  -14.5899   19.4513 C   0  0  0  0  0  0  0  0  0  0  0  0
    8.0220  -13.6686   19.9588 C   0  0  1  0  0  0  0  0  0  0  0  0
    7.3933  -12.3114   20.1294 C   0  0  0  0  0  0  0  0  0  0  0  0
    8.4636  -14.2137   21.3163 C   0  0  2  0  0  0  0  0  0  0  0  0
    9.3775  -13.2899   21.9603 N   0  0  0  0  0  0  0  0  0  0  0  0
    9.1810  -15.4918   21.1614 C   0  0  0  0  0  0  0  0  0  0  0  0
   10.2767  -15.5213   20.5030 O   0  0  0  0  0  0  0  0  0  0  0  0
    8.7444  -16.7279   21.6988 N   0  0  0  0  0  0  0  0  0  0  0  0
    9.4211  -17.9495   21.3500 C   0  0  0  0  0  0  0  0  0  0  0  0
   10.6634  -18.1591   22.0979 C   0  0  0  0  0  0  0  0  0  0  0  0
   11.3253  -19.2345   22.0231 O   0  0  0  0  0  0  0  0  0  0  0  0
   11.1654  -17.1242   22.9498 N   0  0  0  0  0  0  0  0  0  0  0  0
   12.3642  -17.3015   23.7440 C   0  0  1  0  0  0  0  0  0  0  0  0
   13.2948  -16.1168   23.6089 C   0  0  0  0  0  0  0  0  0  0  0  0
   14.1632  -16.1949   22.4345 C   0  0  0  0  0  0  0  0  0  0  0  0
   14.2905  -17.3164   21.8648 O   0  0  0  0  0  0  0  0  0  0  0  0
   11.9831  -17.3992   25.1726 C   0  0  0  0  0  0  0  0  0  0  0  0
   12.9619  -17.7268   26.0918 O   0  0  0  0  0  0  0  0  0  0  0  0
   14.8635  -15.1279   21.8918 O   0  0  0  0  0  0  0  0  0  0  0  0
   10.7944  -17.1914   25.5636 O   0  0  0  0  0  0  0  0  0  0  0  0
  2  3  1  1
  2  1  1  0
  4  6  1  0
  4  2  1  0
  4  5  1  6
  6  8  1  0
  7  6  2  0
  8  9  1  0
  9 10  1  0
 10 12  1  0
 10 11  2  0
 12 13  1  0
 13 17  1  0
 13 14  1  1
 15 19  1  0
 15 14  1  0
 16 15  2  0
 17 18  1  0
 20 17  2  0
M  END
$$$$
