VGD.pdb
     RDKit          3D

 20 19  0  0  1  0  0  0  0  0999 V2000
    7.1979  -13.4919   18.2819 C   0  0  0  0  0  0  0  0  0  0  0  0
    8.0846  -13.4664   19.5295 C   0  0  1  0  0  0  0  0  0  0  0  0
    7.2382  -12.8847   20.6303 C   0  0  0  0  0  0  0  0  0  0  0  0
    8.4359  -14.9180   19.8528 C   0  0  2  0  0  0  0  0  0  0  0  0
    7.2325  -15.6850   20.1114 N   0  0  0  0  0  0  0  0  0  0  0  0
    9.2679  -14.9997   21.0666 C   0  0  0  0  0  0  0  0  0  0  0  0
   10.4669  -14.5562   21.0374 O   0  0  0  0  0  0  0  0  0  0  0  0
    8.8359  -15.5445   22.3011 N   0  0  0  0  0  0  0  0  0  0  0  0
    9.6612  -15.4258   23.4744 C   0  0  0  0  0  0  0  0  0  0  0  0
   10.8599  -16.2670   23.4286 C   0  0  0  0  0  0  0  0  0  0  0  0
   10.8709  -17.3994   22.8652 O   0  0  0  0  0  0  0  0  0  0  0  0
   12.0732  -15.8119   24.0363 N   0  0  0  0  0  0  0  0  0  0  0  0
   13.2763  -16.6194   24.0407 C   0  0  1  0  0  0  0  0  0  0  0  0
   14.4814  -15.8102   24.4659 C   0  0  0  0  0  0  0  0  0  0  0  0
   15.7290  -16.2660   23.8534 C   0  0  0  0  0  0  0  0  0  0  0  0
   15.6900  -17.3010   23.1284 O   0  0  0  0  0  0  0  0  0  0  0  0
   13.1148  -17.7155   25.0244 C   0  0  0  0  0  0  0  0  0  0  0  0
   12.0574  -17.6500   25.9121 O   0  0  0  0  0  0  0  0  0  0  0  0
   16.9612  -15.6480   24.0061 O   0  0  0  0  0  0  0  0  0  0  0  0
   13.9154  -18.6985   25.0682 O   0  0  0  0  0  0  0  0  0  0  0  0
  2  3  1  1
  2  1  1  0
  4  6  1  0
  4  2  1  0
  4  5  1  1
  6  8  1  0
  7  6  2  0
  8  9  1  0
  9 10  1  0
 10 12  1  0
 10 11  2  0
 12 13  1  0
 13 17  1  0
 13 14  1  1
 15 19  1  0
 15 14  1  0
 16 15  2  0
 17 18  1  0
 20 17  2  0
M  END
$$$$
