HDP.pdb
     RDKit          3D

 26 27  0  0  1  0  0  0  0  0999 V2000
   25.7830  -19.6330  -14.2505 N   0  0  0  0  0  0  0  0  0  0  0  0
   26.9323  -19.6848  -13.4025 C   0  0  1  0  0  0  0  0  0  0  0  0
   27.9599  -18.7168  -13.8896 C   0  0  0  0  0  0  0  0  0  0  0  0
   28.3177  -19.0767  -15.2892 C   0  0  0  0  0  0  0  0  0  0  0  0
   28.9859  -20.1813  -15.7688 C   0  0  0  0  0  0  0  0  0  0  0  0
   29.1130  -20.1385  -17.1067 N   0  0  0  0  0  0  0  0  0  0  0  0
   28.5175  -18.9905  -17.4845 C   0  0  0  0  0  0  0  0  0  0  0  0
   28.0369  -18.3449  -16.4068 N   0  0  0  0  0  0  0  0  0  0  0  0
   26.5972  -19.4907  -11.9682 C   0  0  0  0  0  0  0  0  0  0  0  0
   26.4224  -18.3139  -11.5582 O   0  0  0  0  0  0  0  0  0  0  0  0
   26.4693  -20.5711  -11.0577 N   0  0  0  0  0  0  0  0  0  0  0  0
   25.9846  -20.3356   -9.7003 C   0  0  1  0  0  0  0  0  0  0  0  0
   24.6594  -21.0656   -9.4981 C   0  0  0  0  0  0  0  0  0  0  0  0
   24.1566  -20.9773   -8.1242 C   0  0  0  0  0  0  0  0  0  0  0  0
   24.5881  -21.6815   -7.1830 O   0  0  0  0  0  0  0  0  0  0  0  0
   26.9725  -20.7705   -8.6921 C   0  0  0  0  0  0  0  0  0  0  0  0
   27.6082  -21.8457   -8.9633 O   0  0  0  0  0  0  0  0  0  0  0  0
   23.1580  -20.0771   -7.8417 O   0  0  0  0  0  0  0  0  0  0  0  0
   27.2719  -20.1186   -7.4816 N   0  0  0  0  0  0  0  0  0  0  0  0
   26.7117  -18.9066   -6.9746 C   0  0  0  0  0  0  0  0  0  0  0  0
   27.8732  -18.2638   -6.2450 C   0  0  0  0  0  0  0  0  0  0  0  0
   28.9631  -19.3078   -6.1655 C   0  0  0  0  0  0  0  0  0  0  0  0
   28.2165  -20.5796   -6.5046 C   0  0  1  0  0  0  0  0  0  0  0  0
   27.5510  -21.0594   -5.2595 C   0  0  0  0  0  0  0  0  0  0  0  0
   28.2788  -21.5639   -4.1930 O   0  0  0  0  0  0  0  0  0  0  0  0
   26.3035  -21.0300   -5.1170 O   0  0  0  0  0  0  0  0  0  0  0  0
  2  1  1  6
  3  2  1  0
  4  3  1  0
  5  4  2  0
  6  7  1  0
  6  5  1  0
  7  8  2  0
  8  4  1  0
  9  2  1  0
  9 11  1  0
 10  9  2  0
 12 11  1  0
 13 14  1  0
 12 13  1  1
 14 18  1  0
 15 14  2  0
 16 17  2  0
 16 12  1  0
 19 16  1  0
 20 19  1  0
 20 21  1  0
 21 22  1  0
 23 19  1  0
 23 22  1  0
 23 24  1  1
 24 25  1  0
 26 24  2  0
M  END
$$$$
