HDP.pdb
     RDKit          3D

 26 27  0  0  1  0  0  0  0  0999 V2000
   14.6622  -21.3852    1.1626 N   0  0  0  0  0  0  0  0  0  0  0  0
   15.3699  -21.9494    2.2687 C   0  0  1  0  0  0  0  0  0  0  0  0
   16.1943  -23.1036    1.8013 C   0  0  0  0  0  0  0  0  0  0  0  0
   15.2771  -24.1592    1.2906 C   0  0  0  0  0  0  0  0  0  0  0  0
   14.4750  -25.0373    1.9851 C   0  0  0  0  0  0  0  0  0  0  0  0
   13.7907  -25.8431    1.1541 N   0  0  0  0  0  0  0  0  0  0  0  0
   14.1622  -25.4730   -0.0870 C   0  0  0  0  0  0  0  0  0  0  0  0
   15.0516  -24.4661   -0.0203 N   0  0  0  0  0  0  0  0  0  0  0  0
   16.1665  -20.9419    3.0155 C   0  0  0  0  0  0  0  0  0  0  0  0
   16.8498  -20.1207    2.3504 O   0  0  0  0  0  0  0  0  0  0  0  0
   16.1831  -20.8746    4.4324 N   0  0  0  0  0  0  0  0  0  0  0  0
   16.9705  -19.8486    5.1109 C   0  0  1  0  0  0  0  0  0  0  0  0
   16.0361  -18.8940    5.8496 C   0  0  0  0  0  0  0  0  0  0  0  0
   16.7483  -17.8525    6.5953 C   0  0  0  0  0  0  0  0  0  0  0  0
   17.0050  -17.9303    7.8184 O   0  0  0  0  0  0  0  0  0  0  0  0
   17.9429  -20.4471    6.0478 C   0  0  0  0  0  0  0  0  0  0  0  0
   17.6063  -21.5698    6.5576 O   0  0  0  0  0  0  0  0  0  0  0  0
   17.1614  -16.7254    5.9271 O   0  0  0  0  0  0  0  0  0  0  0  0
   19.1850  -19.9023    6.4224 N   0  0  0  0  0  0  0  0  0  0  0  0
   19.7636  -18.6653    6.0043 C   0  0  0  0  0  0  0  0  0  0  0  0
   21.2453  -18.9750    5.9466 C   0  0  0  0  0  0  0  0  0  0  0  0
   21.4299  -20.3224    6.6057 C   0  0  0  0  0  0  0  0  0  0  0  0
   20.1151  -20.5092    7.3311 C   0  0  1  0  0  0  0  0  0  0  0  0
   20.2028  -19.7717    8.6241 C   0  0  0  0  0  0  0  0  0  0  0  0
   20.8848  -20.2909    9.7136 O   0  0  0  0  0  0  0  0  0  0  0  0
   19.6651  -18.6486    8.7884 O   0  0  0  0  0  0  0  0  0  0  0  0
  2  1  1  6
  3  2  1  0
  4  3  1  0
  5  4  2  0
  6  7  1  0
  6  5  1  0
  7  8  2  0
  8  4  1  0
  9  2  1  0
  9 11  1  0
 10  9  2  0
 12 11  1  0
 13 14  1  0
 12 13  1  1
 14 18  1  0
 15 14  2  0
 16 17  2  0
 16 12  1  0
 19 16  1  0
 20 19  1  0
 20 21  1  0
 21 22  1  0
 23 19  1  0
 23 22  1  0
 23 24  1  1
 24 25  1  0
 26 24  2  0
M  END
$$$$
