HDP.pdb
     RDKit          3D

 26 27  0  0  1  0  0  0  0  0999 V2000
   20.1192  -15.9579  -17.2006 N   0  0  0  0  0  0  0  0  0  0  0  0
   20.0503  -15.0958  -16.0628 C   0  0  1  0  0  0  0  0  0  0  0  0
   21.1762  -15.4031  -15.1310 C   0  0  0  0  0  0  0  0  0  0  0  0
   20.9984  -16.7907  -14.6216 C   0  0  0  0  0  0  0  0  0  0  0  0
   20.1770  -17.2607  -13.6211 C   0  0  0  0  0  0  0  0  0  0  0  0
   20.3070  -18.5893  -13.4595 N   0  0  0  0  0  0  0  0  0  0  0  0
   21.2241  -18.9707  -14.3699 C   0  0  0  0  0  0  0  0  0  0  0  0
   21.6465  -17.9043  -15.0725 N   0  0  0  0  0  0  0  0  0  0  0  0
   19.9901  -13.6584  -16.4338 C   0  0  0  0  0  0  0  0  0  0  0  0
   20.8281  -13.2302  -17.2691 O   0  0  0  0  0  0  0  0  0  0  0  0
   19.0340  -12.7647  -15.8865 N   0  0  0  0  0  0  0  0  0  0  0  0
   19.0277  -11.3597  -16.2852 C   0  0  1  0  0  0  0  0  0  0  0  0
   17.5934  -10.8375  -16.2909 C   0  0  0  0  0  0  0  0  0  0  0  0
   17.5014   -9.4091  -16.6056 C   0  0  0  0  0  0  0  0  0  0  0  0
   17.1639   -8.5374  -15.7724 O   0  0  0  0  0  0  0  0  0  0  0  0
   19.8712  -10.5417  -15.3903 C   0  0  0  0  0  0  0  0  0  0  0  0
   19.8915  -10.8996  -14.1634 O   0  0  0  0  0  0  0  0  0  0  0  0
   17.7992   -8.9918  -17.8803 O   0  0  0  0  0  0  0  0  0  0  0  0
   20.6415   -9.4238  -15.7605 N   0  0  0  0  0  0  0  0  0  0  0  0
   20.8169   -8.8714  -17.0658 C   0  0  0  0  0  0  0  0  0  0  0  0
   22.2477   -8.3741  -17.0448 C   0  0  0  0  0  0  0  0  0  0  0  0
   22.7076   -8.4455  -15.6070 C   0  0  0  0  0  0  0  0  0  0  0  0
   21.4023   -8.6071  -14.8587 C   0  0  1  0  0  0  0  0  0  0  0  0
   20.8073   -7.2506  -14.6882 C   0  0  0  0  0  0  0  0  0  0  0  0
   19.7482   -6.8166  -15.4703 O   0  0  0  0  0  0  0  0  0  0  0  0
   21.2350   -6.4382  -13.8311 O   0  0  0  0  0  0  0  0  0  0  0  0
  2  1  1  6
  3  2  1  0
  4  3  1  0
  5  4  2  0
  6  7  1  0
  6  5  1  0
  7  8  2  0
  8  4  1  0
  9  2  1  0
  9 11  1  0
 10  9  2  0
 12 11  1  0
 13 14  1  0
 12 13  1  1
 14 18  1  0
 15 14  2  0
 16 17  2  0
 16 12  1  0
 19 16  1  0
 20 19  1  0
 20 21  1  0
 21 22  1  0
 23 19  1  0
 23 22  1  0
 23 24  1  6
 24 25  1  0
 26 24  2  0
M  END
$$$$
