HDP.pdb
     RDKit          3D

 26 27  0  0  1  0  0  0  0  0999 V2000
   21.2584  -12.2777  -16.5909 N   0  0  0  0  0  0  0  0  0  0  0  0
   20.2836  -11.2326  -16.5981 C   0  0  1  0  0  0  0  0  0  0  0  0
   19.2506  -11.5021  -15.5537 C   0  0  0  0  0  0  0  0  0  0  0  0
   18.5198  -12.7446  -15.9260 C   0  0  0  0  0  0  0  0  0  0  0  0
   18.2536  -13.2674  -17.1719 C   0  0  0  0  0  0  0  0  0  0  0  0
   17.5610  -14.4168  -17.0869 N   0  0  0  0  0  0  0  0  0  0  0  0
   17.3837  -14.6291  -15.7683 C   0  0  0  0  0  0  0  0  0  0  0  0
   17.9525  -13.6359  -15.0616 N   0  0  0  0  0  0  0  0  0  0  0  0
   20.8884   -9.8817  -16.4701 C   0  0  0  0  0  0  0  0  0  0  0  0
   21.4811   -9.6011  -15.3960 O   0  0  0  0  0  0  0  0  0  0  0  0
   20.8219   -8.9109  -17.5023 N   0  0  0  0  0  0  0  0  0  0  0  0
   21.3821   -7.5780  -17.2957 C   0  0  1  0  0  0  0  0  0  0  0  0
   21.5178   -6.8678  -18.6400 C   0  0  0  0  0  0  0  0  0  0  0  0
   22.0303   -5.4999  -18.5200 C   0  0  0  0  0  0  0  0  0  0  0  0
   21.3193   -4.4795  -18.6654 O   0  0  0  0  0  0  0  0  0  0  0  0
   20.5497   -6.7806  -16.3724 C   0  0  0  0  0  0  0  0  0  0  0  0
   19.2978   -7.0382  -16.3880 O   0  0  0  0  0  0  0  0  0  0  0  0
   23.3610   -5.3148  -18.2328 O   0  0  0  0  0  0  0  0  0  0  0  0
   21.0029   -5.7808  -15.4920 N   0  0  0  0  0  0  0  0  0  0  0  0
   22.3433   -5.3316  -15.2883 C   0  0  0  0  0  0  0  0  0  0  0  0
   22.3788   -4.9979  -13.8112 C   0  0  0  0  0  0  0  0  0  0  0  0
   20.9476   -5.0334  -13.3268 C   0  0  0  0  0  0  0  0  0  0  0  0
   20.1678   -5.0018  -14.6232 C   0  0  1  0  0  0  0  0  0  0  0  0
   20.0724   -3.5791  -15.0595 C   0  0  0  0  0  0  0  0  0  0  0  0
   20.8022   -3.0970  -16.1350 O   0  0  0  0  0  0  0  0  0  0  0  0
   19.3293   -2.7515  -14.4760 O   0  0  0  0  0  0  0  0  0  0  0  0
  2  1  1  1
  3  2  1  0
  4  3  1  0
  5  4  2  0
  6  7  1  0
  6  5  1  0
  7  8  2  0
  8  4  1  0
  9  2  1  0
  9 11  1  0
 10  9  2  0
 12 11  1  0
 13 14  1  0
 12 13  1  6
 14 18  1  0
 15 14  2  0
 16 17  2  0
 16 12  1  0
 19 16  1  0
 20 19  1  0
 20 21  1  0
 21 22  1  0
 23 19  1  0
 23 22  1  0
 23 24  1  6
 24 25  1  0
 26 24  2  0
M  END
$$$$
