HDP.pdb
     RDKit          3D

 26 27  0  0  1  0  0  0  0  0999 V2000
   20.7806  -10.7991  -16.0274 N   0  0  0  0  0  0  0  0  0  0  0  0
   20.1428   -9.6993  -16.6803 C   0  0  1  0  0  0  0  0  0  0  0  0
   18.7334  -10.0626  -17.0148 C   0  0  0  0  0  0  0  0  0  0  0  0
   18.7573  -11.1929  -17.9834 C   0  0  0  0  0  0  0  0  0  0  0  0
   19.6022  -11.4207  -19.0469 C   0  0  0  0  0  0  0  0  0  0  0  0
   19.2951  -12.5640  -19.6847 N   0  0  0  0  0  0  0  0  0  0  0  0
   18.2398  -13.0713  -19.0180 C   0  0  0  0  0  0  0  0  0  0  0  0
   17.9073  -12.2609  -17.9973 N   0  0  0  0  0  0  0  0  0  0  0  0
   20.2398   -8.4359  -15.9047 C   0  0  0  0  0  0  0  0  0  0  0  0
   19.6968   -8.3981  -14.7701 O   0  0  0  0  0  0  0  0  0  0  0  0
   20.9140   -7.2868  -16.3921 N   0  0  0  0  0  0  0  0  0  0  0  0
   20.9292   -6.0549  -15.6077 C   0  0  1  0  0  0  0  0  0  0  0  0
   22.2432   -5.9568  -14.8372 C   0  0  0  0  0  0  0  0  0  0  0  0
   22.3768   -4.7078  -14.0822 C   0  0  0  0  0  0  0  0  0  0  0  0
   22.9945   -3.7050  -14.5075 O   0  0  0  0  0  0  0  0  0  0  0  0
   20.7442   -4.8671  -16.4659 C   0  0  0  0  0  0  0  0  0  0  0  0
   21.3643   -4.8857  -17.5834 O   0  0  0  0  0  0  0  0  0  0  0  0
   21.7974   -4.6206  -12.8396 O   0  0  0  0  0  0  0  0  0  0  0  0
   19.9600   -3.7370  -16.1694 N   0  0  0  0  0  0  0  0  0  0  0  0
   19.2497   -3.4527  -14.9634 C   0  0  0  0  0  0  0  0  0  0  0  0
   18.0153   -2.7215  -15.4496 C   0  0  0  0  0  0  0  0  0  0  0  0
   18.2488   -2.4047  -16.9088 C   0  0  0  0  0  0  0  0  0  0  0  0
   19.7386   -2.6279  -17.0526 C   0  0  1  0  0  0  0  0  0  0  0  0
   20.4286   -1.3905  -16.5876 C   0  0  0  0  0  0  0  0  0  0  0  0
   21.1233   -1.3512  -15.3886 O   0  0  0  0  0  0  0  0  0  0  0  0
   20.4141   -0.3278  -17.2569 O   0  0  0  0  0  0  0  0  0  0  0  0
  2  1  1  1
  3  2  1  0
  4  3  1  0
  5  4  2  0
  6  7  1  0
  6  5  1  0
  7  8  2  0
  8  4  1  0
  9  2  1  0
  9 11  1  0
 10  9  2  0
 12 11  1  0
 13 14  1  0
 12 13  1  6
 14 18  1  0
 15 14  2  0
 16 17  2  0
 16 12  1  0
 19 16  1  0
 20 19  1  0
 20 21  1  0
 21 22  1  0
 23 19  1  0
 23 22  1  0
 23 24  1  1
 24 25  1  0
 26 24  2  0
M  END
$$$$
