HDP.pdb
     RDKit          3D

 26 27  0  0  1  0  0  0  0  0999 V2000
   17.3401  -12.3806  -17.0348 N   0  0  0  0  0  0  0  0  0  0  0  0
   18.4902  -11.9385  -16.3108 C   0  0  1  0  0  0  0  0  0  0  0  0
   19.7288  -12.3342  -17.0453 C   0  0  0  0  0  0  0  0  0  0  0  0
   19.8735  -13.8134  -16.9587 C   0  0  0  0  0  0  0  0  0  0  0  0
   20.7493  -14.5682  -16.2105 C   0  0  0  0  0  0  0  0  0  0  0  0
   20.5620  -15.8845  -16.4112 N   0  0  0  0  0  0  0  0  0  0  0  0
   19.5527  -15.9692  -17.2997 C   0  0  0  0  0  0  0  0  0  0  0  0
   19.1309  -14.7371  -17.6362 N   0  0  0  0  0  0  0  0  0  0  0  0
   18.4492  -10.4867  -15.9979 C   0  0  0  0  0  0  0  0  0  0  0  0
   18.3566   -9.6795  -16.9588 O   0  0  0  0  0  0  0  0  0  0  0  0
   18.5100   -9.9861  -14.6719 N   0  0  0  0  0  0  0  0  0  0  0  0
   18.4562   -8.5475  -14.4257 C   0  0  1  0  0  0  0  0  0  0  0  0
   17.5842   -8.2714  -13.2036 C   0  0  0  0  0  0  0  0  0  0  0  0
   17.5293   -6.8517  -12.8437 C   0  0  0  0  0  0  0  0  0  0  0  0
   18.1661   -6.3555  -11.8866 O   0  0  0  0  0  0  0  0  0  0  0  0
   19.8074   -7.9826  -14.2338 C   0  0  0  0  0  0  0  0  0  0  0  0
   20.6249   -8.7077  -13.5706 O   0  0  0  0  0  0  0  0  0  0  0  0
   16.7398   -6.0102  -13.5895 O   0  0  0  0  0  0  0  0  0  0  0  0
   20.2677   -6.7403  -14.7076 N   0  0  0  0  0  0  0  0  0  0  0  0
   19.5401   -5.7571  -15.4450 C   0  0  0  0  0  0  0  0  0  0  0  0
   20.5865   -5.1690  -16.3692 C   0  0  0  0  0  0  0  0  0  0  0  0
   21.9231   -5.6906  -15.8942 C   0  0  0  0  0  0  0  0  0  0  0  0
   21.5912   -6.2196  -14.5159 C   0  0  1  0  0  0  0  0  0  0  0  0
   21.6118   -5.0661  -13.5712 C   0  0  0  0  0  0  0  0  0  0  0  0
   20.4452   -4.5431  -13.0352 O   0  0  0  0  0  0  0  0  0  0  0  0
   22.6829   -4.5143  -13.2165 O   0  0  0  0  0  0  0  0  0  0  0  0
  2  1  1  6
  3  2  1  0
  4  3  1  0
  5  4  2  0
  6  7  1  0
  6  5  1  0
  7  8  2  0
  8  4  1  0
  9  2  1  0
  9 11  1  0
 10  9  2  0
 12 11  1  0
 13 14  1  0
 12 13  1  1
 14 18  1  0
 15 14  2  0
 16 17  2  0
 16 12  1  0
 19 16  1  0
 20 19  1  0
 20 21  1  0
 21 22  1  0
 23 19  1  0
 23 22  1  0
 23 24  1  1
 24 25  1  0
 26 24  2  0
M  END
$$$$
