CDY.pdb
     RDKit          3D

 27 27  0  0  1  0  0  0  0  0999 V2000
   14.7371  -11.9858  -14.6472 N   0  0  0  0  0  0  0  0  0  0  0  0
   15.2731  -10.8192  -15.2698 C   0  0  1  0  0  0  0  0  0  0  0  0
   14.5764   -9.5942  -14.7133 C   0  0  0  0  0  0  0  0  0  0  0  0
   12.8588   -9.4800  -15.2435 S   0  0  0  0  0  0  0  0  0  0  0  0
   16.7355  -10.6339  -15.0025 C   0  0  0  0  0  0  0  0  0  0  0  0
   17.1475  -10.9646  -13.8785 O   0  0  0  0  0  0  0  0  0  0  0  0
   17.6357  -10.1131  -15.9521 N   0  0  0  0  0  0  0  0  0  0  0  0
   19.0536   -9.9757  -15.7511 C   0  0  1  0  0  0  0  0  0  0  0  0
   19.7845  -10.7536  -16.7910 C   0  0  0  0  0  0  0  0  0  0  0  0
   21.2397  -10.6261  -16.5390 C   0  0  0  0  0  0  0  0  0  0  0  0
   22.0242   -9.8955  -17.1851 O   0  0  0  0  0  0  0  0  0  0  0  0
   19.4006   -8.5384  -15.7337 C   0  0  0  0  0  0  0  0  0  0  0  0
   18.9978   -7.8488  -16.7032 O   0  0  0  0  0  0  0  0  0  0  0  0
   21.8287  -11.3700  -15.4972 O   0  0  0  0  0  0  0  0  0  0  0  0
   24.8452   -2.1285  -16.9995 O   0  0  0  0  0  0  0  0  0  0  0  0
   24.1798   -3.3122  -16.6954 C   0  0  0  0  0  0  0  0  0  0  0  0
   22.8195   -3.4437  -16.8776 C   0  0  0  0  0  0  0  0  0  0  0  0
   22.1399   -4.6017  -16.5849 C   0  0  0  0  0  0  0  0  0  0  0  0
   22.8162   -5.7093  -16.0823 C   0  0  0  0  0  0  0  0  0  0  0  0
   22.1438   -6.9636  -15.7410 C   0  0  0  0  0  0  0  0  0  0  0  0
   20.9501   -6.7241  -14.8881 C   0  0  2  0  0  0  0  0  0  0  0  0
   20.1430   -7.9194  -14.7074 N   0  0  0  0  0  0  0  0  0  0  0  0
   20.0830   -5.6099  -15.2818 C   0  0  0  0  0  0  0  0  0  0  0  0
   19.9798   -4.6035  -14.5232 O   0  0  0  0  0  0  0  0  0  0  0  0
   24.1857   -5.5756  -15.8993 C   0  0  0  0  0  0  0  0  0  0  0  0
   24.8505   -4.4090  -16.1975 C   0  0  0  0  0  0  0  0  0  0  0  0
   19.3341   -5.5390  -16.4456 O   0  0  0  0  0  0  0  0  0  0  0  0
  2  3  1  0
  2  1  1  1
  4  3  1  0
  5  2  1  0
  6  5  2  0
  7  5  1  0
  8  7  1  0
  8  9  1  6
 10  9  1  0
 11 10  2  0
 12 22  1  0
 12  8  1  0
 13 12  2  0
 14 10  1  0
 16 15  1  0
 17 16  2  0
 18 17  1  0
 19 18  2  0
 19 25  1  0
 21 20  1  6
 20 19  1  0
 21 22  1  0
 23 27  1  0
 23 21  1  0
 24 23  2  0
 25 26  2  0
 26 16  1  0
M  END
$$$$
