CDY.pdb
     RDKit          3D

 27 27  0  0  1  0  0  0  0  0999 V2000
   19.6478  -12.4057  -18.3948 N   0  0  0  0  0  0  0  0  0  0  0  0
   20.0533  -12.0549  -17.0725 C   0  0  1  0  0  0  0  0  0  0  0  0
   21.5610  -12.1635  -16.9698 C   0  0  0  0  0  0  0  0  0  0  0  0
   22.3921  -11.6431  -18.4806 S   0  0  0  0  0  0  0  0  0  0  0  0
   19.7035  -10.6442  -16.7092 C   0  0  0  0  0  0  0  0  0  0  0  0
   19.7355   -9.8041  -17.6235 O   0  0  0  0  0  0  0  0  0  0  0  0
   19.3497  -10.2460  -15.4055 N   0  0  0  0  0  0  0  0  0  0  0  0
   19.0325   -8.8979  -15.0158 C   0  0  1  0  0  0  0  0  0  0  0  0
   18.1761   -8.9175  -13.7964 C   0  0  0  0  0  0  0  0  0  0  0  0
   16.8870   -9.5659  -14.1361 C   0  0  0  0  0  0  0  0  0  0  0  0
   16.2345   -9.3719  -15.1864 O   0  0  0  0  0  0  0  0  0  0  0  0
   20.2892   -8.1376  -14.8448 C   0  0  0  0  0  0  0  0  0  0  0  0
   21.3586   -8.7929  -14.9104 O   0  0  0  0  0  0  0  0  0  0  0  0
   16.3143  -10.4817  -13.2311 O   0  0  0  0  0  0  0  0  0  0  0  0
   26.4320   -2.5556  -17.1400 O   0  0  0  0  0  0  0  0  0  0  0  0
   25.3820   -3.4358  -16.8967 C   0  0  0  0  0  0  0  0  0  0  0  0
   25.5517   -4.5679  -16.1282 C   0  0  0  0  0  0  0  0  0  0  0  0
   24.5310   -5.4521  -15.8737 C   0  0  0  0  0  0  0  0  0  0  0  0
   23.2595   -5.2314  -16.3946 C   0  0  0  0  0  0  0  0  0  0  0  0
   22.1382   -6.1440  -16.1676 C   0  0  0  0  0  0  0  0  0  0  0  0
   21.5272   -5.9297  -14.8294 C   0  0  2  0  0  0  0  0  0  0  0  0
   20.3442   -6.7472  -14.6174 N   0  0  0  0  0  0  0  0  0  0  0  0
   21.2273   -4.5416  -14.4666 C   0  0  0  0  0  0  0  0  0  0  0  0
   20.1168   -4.0372  -14.8002 O   0  0  0  0  0  0  0  0  0  0  0  0
   23.0900   -4.0913  -17.1681 C   0  0  0  0  0  0  0  0  0  0  0  0
   24.1227   -3.2165  -17.4131 C   0  0  0  0  0  0  0  0  0  0  0  0
   22.0659   -3.6885  -13.7672 O   0  0  0  0  0  0  0  0  0  0  0  0
  2  3  1  0
  2  1  1  6
  4  3  1  0
  5  2  1  0
  6  5  2  0
  7  5  1  0
  8  7  1  0
  8  9  1  1
 10  9  1  0
 11 10  2  0
 12 22  1  0
 12  8  1  0
 13 12  2  0
 14 10  1  0
 16 15  1  0
 17 16  2  0
 18 17  1  0
 19 18  2  0
 19 25  1  0
 21 20  1  6
 20 19  1  0
 21 22  1  0
 23 27  1  0
 23 21  1  0
 24 23  2  0
 25 26  2  0
 26 16  1  0
M  END
$$$$
