CDY.pdb
     RDKit          3D

 27 27  0  0  1  0  0  0  0  0999 V2000
   25.4762  -13.7616  -18.6133 N   0  0  0  0  0  0  0  0  0  0  0  0
   24.7831  -13.0616  -17.5811 C   0  0  1  0  0  0  0  0  0  0  0  0
   25.7483  -12.7545  -16.4542 C   0  0  0  0  0  0  0  0  0  0  0  0
   26.5271  -14.2379  -15.7930 S   0  0  0  0  0  0  0  0  0  0  0  0
   24.2304  -11.7459  -18.0370 C   0  0  0  0  0  0  0  0  0  0  0  0
   24.5588  -11.3613  -19.1714 O   0  0  0  0  0  0  0  0  0  0  0  0
   23.3759  -10.9507  -17.2489 N   0  0  0  0  0  0  0  0  0  0  0  0
   22.7578   -9.7272  -17.6855 C   0  0  1  0  0  0  0  0  0  0  0  0
   21.9886   -9.9739  -18.9378 C   0  0  0  0  0  0  0  0  0  0  0  0
   21.3894   -8.6932  -19.3830 C   0  0  0  0  0  0  0  0  0  0  0  0
   20.2156   -8.5476  -19.7922 O   0  0  0  0  0  0  0  0  0  0  0  0
   21.9360   -9.1827  -16.5833 C   0  0  0  0  0  0  0  0  0  0  0  0
   21.1911   -9.9947  -15.9804 O   0  0  0  0  0  0  0  0  0  0  0  0
   22.1696   -7.5199  -19.3596 O   0  0  0  0  0  0  0  0  0  0  0  0
   18.5181   -6.1481   -9.3875 O   0  0  0  0  0  0  0  0  0  0  0  0
   19.3280   -6.5164  -10.4575 C   0  0  0  0  0  0  0  0  0  0  0  0
   19.4572   -7.8329  -10.8461 C   0  0  0  0  0  0  0  0  0  0  0  0
   20.2503   -8.2216  -11.8988 C   0  0  0  0  0  0  0  0  0  0  0  0
   20.9684   -7.2783  -12.6277 C   0  0  0  0  0  0  0  0  0  0  0  0
   21.8380   -7.6345  -13.7496 C   0  0  0  0  0  0  0  0  0  0  0  0
   21.2042   -7.3038  -15.0530 C   0  0  2  0  0  0  0  0  0  0  0  0
   21.9476   -7.8301  -16.1857 N   0  0  0  0  0  0  0  0  0  0  0  0
   20.9014   -5.8892  -15.2881 C   0  0  0  0  0  0  0  0  0  0  0  0
   20.0909   -5.2909  -14.5240 O   0  0  0  0  0  0  0  0  0  0  0  0
   20.8374   -5.9532  -12.2354 C   0  0  0  0  0  0  0  0  0  0  0  0
   20.0390   -5.5813  -11.1790 C   0  0  0  0  0  0  0  0  0  0  0  0
   21.4318   -5.1052  -16.3002 O   0  0  0  0  0  0  0  0  0  0  0  0
  2  3  1  0
  2  1  1  6
  4  3  1  0
  5  2  1  0
  6  5  2  0
  7  5  1  0
  8  7  1  0
  8  9  1  6
 10  9  1  0
 11 10  2  0
 12 22  1  0
 12  8  1  0
 13 12  2  0
 14 10  1  0
 16 15  1  0
 17 16  2  0
 18 17  1  0
 19 18  2  0
 19 25  1  0
 21 20  1  1
 20 19  1  0
 21 22  1  0
 23 27  1  0
 23 21  1  0
 24 23  2  0
 25 26  2  0
 26 16  1  0
M  END
$$$$
