CDY.pdb
     RDKit          3D

 27 27  0  0  1  0  0  0  0  0999 V2000
   24.8035  -10.2323  -19.2530 N   0  0  0  0  0  0  0  0  0  0  0  0
   23.5961   -9.5021  -19.4644 C   0  0  1  0  0  0  0  0  0  0  0  0
   22.7649  -10.2096  -20.5153 C   0  0  0  0  0  0  0  0  0  0  0  0
   21.1775   -9.4051  -20.7924 S   0  0  0  0  0  0  0  0  0  0  0  0
   22.7430   -9.4156  -18.2360 C   0  0  0  0  0  0  0  0  0  0  0  0
   22.3043  -10.4844  -17.7801 O   0  0  0  0  0  0  0  0  0  0  0  0
   22.4286   -8.2009  -17.5963 N   0  0  0  0  0  0  0  0  0  0  0  0
   21.6318   -8.0823  -16.4043 C   0  0  1  0  0  0  0  0  0  0  0  0
   22.1302   -6.9455  -15.5799 C   0  0  0  0  0  0  0  0  0  0  0  0
   21.5217   -7.0388  -14.2313 C   0  0  0  0  0  0  0  0  0  0  0  0
   20.6387   -7.8582  -13.8915 O   0  0  0  0  0  0  0  0  0  0  0  0
   20.2088   -7.9574  -16.7867 C   0  0  0  0  0  0  0  0  0  0  0  0
   19.9412   -7.1479  -17.7090 O   0  0  0  0  0  0  0  0  0  0  0  0
   21.9426   -6.1521  -13.2202 O   0  0  0  0  0  0  0  0  0  0  0  0
   16.9984  -14.6075  -14.6378 O   0  0  0  0  0  0  0  0  0  0  0  0
   17.0874  -13.4061  -15.3344 C   0  0  0  0  0  0  0  0  0  0  0  0
   18.2914  -12.9374  -15.8154 C   0  0  0  0  0  0  0  0  0  0  0  0
   18.4051  -11.7547  -16.5059 C   0  0  0  0  0  0  0  0  0  0  0  0
   17.2826  -10.9692  -16.7502 C   0  0  0  0  0  0  0  0  0  0  0  0
   17.3448   -9.6955  -17.4683 C   0  0  0  0  0  0  0  0  0  0  0  0
   17.7666   -8.5876  -16.5713 C   0  0  2  0  0  0  0  0  0  0  0  0
   19.1635   -8.6847  -16.1815 N   0  0  0  0  0  0  0  0  0  0  0  0
   16.9451   -8.3694  -15.3773 C   0  0  0  0  0  0  0  0  0  0  0  0
   15.7166   -8.1001  -15.5077 O   0  0  0  0  0  0  0  0  0  0  0  0
   16.0709  -11.4423  -16.2654 C   0  0  0  0  0  0  0  0  0  0  0  0
   15.9749  -12.6285  -15.5760 C   0  0  0  0  0  0  0  0  0  0  0  0
   17.3901   -8.4305  -14.0663 O   0  0  0  0  0  0  0  0  0  0  0  0
  2  3  1  0
  2  1  1  1
  4  3  1  0
  5  2  1  0
  6  5  2  0
  7  5  1  0
  8  7  1  0
  8  9  1  6
 10  9  1  0
 11 10  2  0
 12 22  1  0
 12  8  1  0
 13 12  2  0
 14 10  1  0
 16 15  1  0
 17 16  2  0
 18 17  1  0
 19 18  2  0
 19 25  1  0
 21 20  1  1
 20 19  1  0
 21 22  1  0
 23 27  1  0
 23 21  1  0
 24 23  2  0
 25 26  2  0
 26 16  1  0
M  END
$$$$
