CDY.pdb
     RDKit          3D

 27 27  0  0  1  0  0  0  0  0999 V2000
   27.5158  -23.4711  -16.8810 N   0  0  0  0  0  0  0  0  0  0  0  0
   26.0979  -23.6080  -16.7982 C   0  0  1  0  0  0  0  0  0  0  0  0
   25.7580  -24.6140  -15.7174 C   0  0  0  0  0  0  0  0  0  0  0  0
   26.0602  -26.3113  -16.2388 S   0  0  0  0  0  0  0  0  0  0  0  0
   25.4088  -22.3319  -16.4222 C   0  0  0  0  0  0  0  0  0  0  0  0
   26.1075  -21.4499  -15.8962 O   0  0  0  0  0  0  0  0  0  0  0  0
   24.0361  -22.1015  -16.6369 N   0  0  0  0  0  0  0  0  0  0  0  0
   23.3600  -20.8600  -16.3702 C   0  0  1  0  0  0  0  0  0  0  0  0
   22.6137  -20.4253  -17.5845 C   0  0  0  0  0  0  0  0  0  0  0  0
   21.9508  -19.1319  -17.2926 C   0  0  0  0  0  0  0  0  0  0  0  0
   22.4583  -18.1893  -16.6443 O   0  0  0  0  0  0  0  0  0  0  0  0
   22.5035  -21.0249  -15.1761 C   0  0  0  0  0  0  0  0  0  0  0  0
   22.2911  -22.2018  -14.7921 O   0  0  0  0  0  0  0  0  0  0  0  0
   20.6428  -18.9035  -17.7647 O   0  0  0  0  0  0  0  0  0  0  0  0
   19.2060  -21.5923   -7.3636 O   0  0  0  0  0  0  0  0  0  0  0  0
   19.9323  -21.2989   -8.5137 C   0  0  0  0  0  0  0  0  0  0  0  0
   20.8384  -20.2604   -8.5506 C   0  0  0  0  0  0  0  0  0  0  0  0
   21.5673  -19.9509   -9.6737 C   0  0  0  0  0  0  0  0  0  0  0  0
   21.4134  -20.6919  -10.8415 C   0  0  0  0  0  0  0  0  0  0  0  0
   22.1527  -20.4009  -12.0707 C   0  0  0  0  0  0  0  0  0  0  0  0
   21.2324  -20.0910  -13.1962 C   0  0  2  0  0  0  0  0  0  0  0  0
   21.9277  -19.9522  -14.4651 N   0  0  0  0  0  0  0  0  0  0  0  0
   20.3371  -18.9460  -13.0074 C   0  0  0  0  0  0  0  0  0  0  0  0
   19.0880  -19.1349  -12.9527 O   0  0  0  0  0  0  0  0  0  0  0  0
   20.5008  -21.7372  -10.8031 C   0  0  0  0  0  0  0  0  0  0  0  0
   19.7793  -22.0334   -9.6703 C   0  0  0  0  0  0  0  0  0  0  0  0
   20.7307  -17.6238  -12.8759 O   0  0  0  0  0  0  0  0  0  0  0  0
  2  3  1  0
  2  1  1  1
  4  3  1  0
  5  2  1  0
  6  5  2  0
  7  5  1  0
  8  7  1  0
  8  9  1  6
 10  9  1  0
 11 10  2  0
 12 22  1  0
 12  8  1  0
 13 12  2  0
 14 10  1  0
 16 15  1  0
 17 16  2  0
 18 17  1  0
 19 18  2  0
 19 25  1  0
 21 20  1  1
 20 19  1  0
 21 22  1  0
 23 27  1  0
 23 21  1  0
 24 23  2  0
 25 26  2  0
 26 16  1  0
M  END
$$$$
