CDY.pdb
     RDKit          3D

 27 27  0  0  1  0  0  0  0  0999 V2000
   28.1674  -19.7527  -16.3469 N   0  0  0  0  0  0  0  0  0  0  0  0
   27.6473  -20.7078  -15.4233 C   0  0  1  0  0  0  0  0  0  0  0  0
   27.0958  -19.9804  -14.2139 C   0  0  0  0  0  0  0  0  0  0  0  0
   28.3585  -19.0325  -13.3472 S   0  0  0  0  0  0  0  0  0  0  0  0
   26.5157  -21.5106  -15.9882 C   0  0  0  0  0  0  0  0  0  0  0  0
   25.7848  -20.9450  -16.8181 O   0  0  0  0  0  0  0  0  0  0  0  0
   26.2566  -22.8461  -15.6235 N   0  0  0  0  0  0  0  0  0  0  0  0
   25.1063  -23.6030  -16.0398 C   0  0  1  0  0  0  0  0  0  0  0  0
   25.3976  -25.0600  -15.9258 C   0  0  0  0  0  0  0  0  0  0  0  0
   26.5546  -25.3789  -16.7958 C   0  0  0  0  0  0  0  0  0  0  0  0
   26.6966  -24.9969  -17.9792 O   0  0  0  0  0  0  0  0  0  0  0  0
   23.9333  -23.1700  -15.2503 C   0  0  0  0  0  0  0  0  0  0  0  0
   23.8994  -23.5284  -14.0470 O   0  0  0  0  0  0  0  0  0  0  0  0
   27.6021  -26.1739  -16.2892 O   0  0  0  0  0  0  0  0  0  0  0  0
   19.0928  -19.3791   -9.7503 O   0  0  0  0  0  0  0  0  0  0  0  0
   19.9697  -19.7209  -10.7753 C   0  0  0  0  0  0  0  0  0  0  0  0
   21.2601  -19.2370  -10.8135 C   0  0  0  0  0  0  0  0  0  0  0  0
   22.1445  -19.5598  -11.8146 C   0  0  0  0  0  0  0  0  0  0  0  0
   21.7604  -20.4065  -12.8501 C   0  0  0  0  0  0  0  0  0  0  0  0
   22.6544  -20.7748  -13.9487 C   0  0  0  0  0  0  0  0  0  0  0  0
   21.9567  -21.6162  -14.9564 C   0  0  2  0  0  0  0  0  0  0  0  0
   22.8771  -22.3936  -15.7695 N   0  0  0  0  0  0  0  0  0  0  0  0
   21.0028  -20.9271  -15.8301 C   0  0  0  0  0  0  0  0  0  0  0  0
   21.4100  -20.4070  -16.9084 O   0  0  0  0  0  0  0  0  0  0  0  0
   20.4609  -20.8930  -12.8105 C   0  0  0  0  0  0  0  0  0  0  0  0
   19.5884  -20.5598  -11.8008 C   0  0  0  0  0  0  0  0  0  0  0  0
   19.6459  -20.7799  -15.5906 O   0  0  0  0  0  0  0  0  0  0  0  0
  2  3  1  0
  2  1  1  6
  4  3  1  0
  5  2  1  0
  6  5  2  0
  7  5  1  0
  8  7  1  0
  8  9  1  1
 10  9  1  0
 11 10  2  0
 12 22  1  0
 12  8  1  0
 13 12  2  0
 14 10  1  0
 16 15  1  0
 17 16  2  0
 18 17  1  0
 19 18  2  0
 19 25  1  0
 21 20  1  6
 20 19  1  0
 21 22  1  0
 23 27  1  0
 23 21  1  0
 24 23  2  0
 25 26  2  0
 26 16  1  0
M  END
$$$$
