CDY.pdb
     RDKit          3D

 27 27  0  0  1  0  0  0  0  0999 V2000
   28.4958  -15.5028  -19.8063 N   0  0  0  0  0  0  0  0  0  0  0  0
   28.4834  -16.5929  -18.8858 C   0  0  1  0  0  0  0  0  0  0  0  0
   29.3159  -16.2289  -17.6732 C   0  0  0  0  0  0  0  0  0  0  0  0
   31.0830  -16.2516  -18.0208 S   0  0  0  0  0  0  0  0  0  0  0  0
   27.1109  -16.9130  -18.3778 C   0  0  0  0  0  0  0  0  0  0  0  0
   26.3800  -15.9511  -18.0893 O   0  0  0  0  0  0  0  0  0  0  0  0
   26.6316  -18.2278  -18.2194 N   0  0  0  0  0  0  0  0  0  0  0  0
   25.3237  -18.5719  -17.7290 C   0  0  1  0  0  0  0  0  0  0  0  0
   24.5556  -19.2701  -18.7982 C   0  0  0  0  0  0  0  0  0  0  0  0
   23.1967  -19.5667  -18.2854 C   0  0  0  0  0  0  0  0  0  0  0  0
   22.4203  -18.7315  -17.7695 O   0  0  0  0  0  0  0  0  0  0  0  0
   25.4674  -19.3648  -16.4891 C   0  0  0  0  0  0  0  0  0  0  0  0
   26.3565  -20.2520  -16.4864 O   0  0  0  0  0  0  0  0  0  0  0  0
   22.6995  -20.8828  -18.3658 O   0  0  0  0  0  0  0  0  0  0  0  0
   25.2755  -21.8208   -8.0368 O   0  0  0  0  0  0  0  0  0  0  0  0
   25.3774  -21.2088   -9.2824 C   0  0  0  0  0  0  0  0  0  0  0  0
   26.4153  -21.4929  -10.1442 C   0  0  0  0  0  0  0  0  0  0  0  0
   26.5378  -20.9020  -11.3789 C   0  0  0  0  0  0  0  0  0  0  0  0
   25.5965  -19.9739  -11.8138 C   0  0  0  0  0  0  0  0  0  0  0  0
   25.6821  -19.3038  -13.1121 C   0  0  0  0  0  0  0  0  0  0  0  0
   24.8061  -19.9587  -14.1189 C   0  0  2  0  0  0  0  0  0  0  0  0
   24.6748  -19.1782  -15.3381 N   0  0  0  0  0  0  0  0  0  0  0  0
   23.4749  -20.3628  -13.6575 C   0  0  0  0  0  0  0  0  0  0  0  0
   23.3413  -21.4410  -13.0104 O   0  0  0  0  0  0  0  0  0  0  0  0
   24.5520  -19.6888  -10.9452 C   0  0  0  0  0  0  0  0  0  0  0  0
   24.4444  -20.2894   -9.7126 C   0  0  0  0  0  0  0  0  0  0  0  0
   22.2989  -19.6593  -13.8628 O   0  0  0  0  0  0  0  0  0  0  0  0
  2  3  1  0
  2  1  1  6
  4  3  1  0
  5  2  1  0
  6  5  2  0
  7  5  1  0
  8  7  1  0
  8  9  1  6
 10  9  1  0
 11 10  2  0
 12 22  1  0
 12  8  1  0
 13 12  2  0
 14 10  1  0
 16 15  1  0
 17 16  2  0
 18 17  1  0
 19 18  2  0
 19 25  1  0
 21 20  1  1
 20 19  1  0
 21 22  1  0
 23 27  1  0
 23 21  1  0
 24 23  2  0
 25 26  2  0
 26 16  1  0
M  END
$$$$
