CDY.pdb
     RDKit          3D

 27 27  0  0  1  0  0  0  0  0999 V2000
   19.7808  -14.5814  -16.5879 N   0  0  0  0  0  0  0  0  0  0  0  0
   19.2433  -13.4551  -17.2796 C   0  0  1  0  0  0  0  0  0  0  0  0
   17.8786  -13.1265  -16.7092 C   0  0  0  0  0  0  0  0  0  0  0  0
   16.6538  -14.3928  -17.0844 S   0  0  0  0  0  0  0  0  0  0  0  0
   20.0774  -12.2206  -17.1227 C   0  0  0  0  0  0  0  0  0  0  0  0
   21.0485  -12.2928  -16.3517 O   0  0  0  0  0  0  0  0  0  0  0  0
   19.8089  -11.0143  -17.7982 N   0  0  0  0  0  0  0  0  0  0  0  0
   20.5843   -9.8096  -17.6679 C   0  0  1  0  0  0  0  0  0  0  0  0
   20.5044   -9.0236  -18.9315 C   0  0  0  0  0  0  0  0  0  0  0  0
   21.3345   -9.6969  -19.9587 C   0  0  0  0  0  0  0  0  0  0  0  0
   20.9352  -10.0569  -21.0889 O   0  0  0  0  0  0  0  0  0  0  0  0
   20.1212   -9.0652  -16.4771 C   0  0  0  0  0  0  0  0  0  0  0  0
   18.8914   -9.1107  -16.2260 O   0  0  0  0  0  0  0  0  0  0  0  0
   22.6883   -9.9728  -19.6814 O   0  0  0  0  0  0  0  0  0  0  0  0
   19.6315   -4.7909   -8.7983 O   0  0  0  0  0  0  0  0  0  0  0  0
   20.0846   -5.4936   -9.9106 C   0  0  0  0  0  0  0  0  0  0  0  0
   19.9451   -6.8618  -10.0068 C   0  0  0  0  0  0  0  0  0  0  0  0
   20.3842   -7.5780  -11.0944 C   0  0  0  0  0  0  0  0  0  0  0  0
   20.9998   -6.9329  -12.1627 C   0  0  0  0  0  0  0  0  0  0  0  0
   21.4983   -7.6444  -13.3405 C   0  0  0  0  0  0  0  0  0  0  0  0
   20.5227   -7.5884  -14.4608 C   0  0  2  0  0  0  0  0  0  0  0  0
   20.9717   -8.3250  -15.6306 N   0  0  0  0  0  0  0  0  0  0  0  0
   20.0798   -6.2528  -14.8707 C   0  0  0  0  0  0  0  0  0  0  0  0
   20.7174   -5.6346  -15.7708 O   0  0  0  0  0  0  0  0  0  0  0  0
   21.1397   -5.5553  -12.0646 C   0  0  0  0  0  0  0  0  0  0  0  0
   20.6945   -4.8537  -10.9686 C   0  0  0  0  0  0  0  0  0  0  0  0
   18.9908   -5.5676  -14.3559 O   0  0  0  0  0  0  0  0  0  0  0  0
  2  3  1  0
  2  1  1  1
  4  3  1  0
  5  2  1  0
  6  5  2  0
  7  5  1  0
  8  7  1  0
  8  9  1  6
 10  9  1  0
 11 10  2  0
 12 22  1  0
 12  8  1  0
 13 12  2  0
 14 10  1  0
 16 15  1  0
 17 16  2  0
 18 17  1  0
 19 18  2  0
 19 25  1  0
 21 20  1  1
 20 19  1  0
 21 22  1  0
 23 27  1  0
 23 21  1  0
 24 23  2  0
 25 26  2  0
 26 16  1  0
M  END
$$$$
