LVH.pdb
     RDKit          3D

 26 26  0  0  1  0  0  0  0  0999 V2000
    6.5190  -21.6768   19.3389 C   0  0  0  0  0  0  0  0  0  0  0  0
    5.8521  -20.4587   19.8864 C   0  0  1  0  0  0  0  0  0  0  0  0
    5.0951  -20.8638   21.1516 C   0  0  0  0  0  0  0  0  0  0  0  0
    6.8333  -19.3871   20.3108 C   0  0  0  0  0  0  0  0  0  0  0  0
    6.9814  -18.3266   19.2163 C   0  0  2  0  0  0  0  0  0  0  0  0
    7.7233  -18.8918   18.1113 N   0  0  0  0  0  0  0  0  0  0  0  0
    7.7813  -17.2242   19.8039 C   0  0  0  0  0  0  0  0  0  0  0  0
    9.0217  -17.3766   19.9156 O   0  0  0  0  0  0  0  0  0  0  0  0
    7.0270  -13.3184   19.2576 C   0  0  0  0  0  0  0  0  0  0  0  0
    7.4209  -13.6455   20.6528 C   0  0  2  0  0  0  0  0  0  0  0  0
    8.2540  -12.5227   21.2383 C   0  0  0  0  0  0  0  0  0  0  0  0
    8.1135  -14.9782   20.7709 C   0  0  2  0  0  0  0  0  0  0  0  0
    7.2026  -16.0098   20.2423 N   0  0  0  0  0  0  0  0  0  0  0  0
    8.5148  -15.3269   22.1488 C   0  0  0  0  0  0  0  0  0  0  0  0
    7.6123  -15.7874   22.9462 O   0  0  0  0  0  0  0  0  0  0  0  0
    9.7929  -15.2200   22.7157 N   0  0  0  0  0  0  0  0  0  0  0  0
   10.1359  -15.8047   24.0164 C   0  0  1  0  0  0  0  0  0  0  0  0
    9.9247  -17.2997   24.0053 C   0  0  0  0  0  0  0  0  0  0  0  0
    8.5426  -17.6937   24.3476 C   0  0  0  0  0  0  0  0  0  0  0  0
    7.6292  -17.0176   25.1096 C   0  0  0  0  0  0  0  0  0  0  0  0
    6.4689  -17.7340   25.1755 N   0  0  0  0  0  0  0  0  0  0  0  0
    6.6949  -18.8254   24.4578 C   0  0  0  0  0  0  0  0  0  0  0  0
    7.9376  -18.8231   23.9491 N   0  0  0  0  0  0  0  0  0  0  0  0
   11.4831  -15.4042   24.4403 C   0  0  0  0  0  0  0  0  0  0  0  0
   11.8881  -15.4045   25.7636 O   0  0  0  0  0  0  0  0  0  0  0  0
   12.3153  -15.0427   23.5735 O   0  0  0  0  0  0  0  0  0  0  0  0
  2  1  1  1
  3  2  1  0
  4  5  1  0
  4  2  1  0
  5  6  1  6
  7 13  1  0
  7  5  1  0
  8  7  2  0
 10  9  1  6
 10 12  1  0
 11 10  1  0
 12 14  1  0
 12 13  1  1
 14 16  1  0
 15 14  2  0
 16 17  1  0
 17 24  1  0
 17 18  1  6
 19 18  1  0
 20 19  2  0
 21 22  1  0
 21 20  1  0
 22 23  2  0
 23 19  1  0
 24 26  2  0
 24 25  1  0
M  END
$$$$
