LVH.pdb
     RDKit          3D

 26 26  0  0  1  0  0  0  0  0999 V2000
    6.8801  -11.2584   27.6504 C   0  0  0  0  0  0  0  0  0  0  0  0
    6.1901  -12.4385   27.0508 C   0  0  1  0  0  0  0  0  0  0  0  0
    5.1452  -11.9215   26.0614 C   0  0  0  0  0  0  0  0  0  0  0  0
    7.1209  -13.3250   26.2514 C   0  0  0  0  0  0  0  0  0  0  0  0
    6.3549  -14.5036   25.6443 C   0  0  2  0  0  0  0  0  0  0  0  0
    5.9314  -15.3870   26.7080 N   0  0  0  0  0  0  0  0  0  0  0  0
    7.3180  -15.2331   24.7836 C   0  0  0  0  0  0  0  0  0  0  0  0
    7.8198  -16.2992   25.2149 O   0  0  0  0  0  0  0  0  0  0  0  0
    7.0538  -15.0126   20.7547 C   0  0  0  0  0  0  0  0  0  0  0  0
    8.4452  -15.1882   21.2467 C   0  0  2  0  0  0  0  0  0  0  0  0
    9.2246  -16.0833   20.3039 C   0  0  0  0  0  0  0  0  0  0  0  0
    8.5079  -15.6816   22.6687 C   0  0  2  0  0  0  0  0  0  0  0  0
    7.6925  -14.7758   23.4982 N   0  0  0  0  0  0  0  0  0  0  0  0
    9.8769  -15.7621   23.2172 C   0  0  0  0  0  0  0  0  0  0  0  0
   10.5742  -14.6790   23.2712 O   0  0  0  0  0  0  0  0  0  0  0  0
   10.5329  -16.9018   23.7041 N   0  0  0  0  0  0  0  0  0  0  0  0
   11.9281  -16.8825   24.1558 C   0  0  1  0  0  0  0  0  0  0  0  0
   12.0494  -17.4532   25.5485 C   0  0  0  0  0  0  0  0  0  0  0  0
   11.4620  -16.5816   26.5866 C   0  0  0  0  0  0  0  0  0  0  0  0
   11.1266  -15.2581   26.4964 C   0  0  0  0  0  0  0  0  0  0  0  0
   10.6111  -14.8347   27.6876 N   0  0  0  0  0  0  0  0  0  0  0  0
   10.6417  -15.9001   28.4760 C   0  0  0  0  0  0  0  0  0  0  0  0
   11.1503  -16.9643   27.8344 N   0  0  0  0  0  0  0  0  0  0  0  0
   12.8124  -17.5268   23.1771 C   0  0  0  0  0  0  0  0  0  0  0  0
   12.3426  -18.1699   22.0454 O   0  0  0  0  0  0  0  0  0  0  0  0
   14.0531  -17.5007   23.3631 O   0  0  0  0  0  0  0  0  0  0  0  0
  2  1  1  6
  3  2  1  0
  4  5  1  0
  4  2  1  0
  5  6  1  1
  7 13  1  0
  7  5  1  0
  8  7  2  0
 10  9  1  6
 10 12  1  0
 11 10  1  0
 12 14  1  0
 12 13  1  1
 14 16  1  0
 15 14  2  0
 16 17  1  0
 17 24  1  0
 17 18  1  1
 19 18  1  0
 20 19  2  0
 21 22  1  0
 21 20  1  0
 22 23  2  0
 23 19  1  0
 24 26  2  0
 24 25  1  0
M  END
$$$$
