LVH.pdb
     RDKit          3D

 26 26  0  0  1  0  0  0  0  0999 V2000
    6.5963  -19.2590   21.2853 C   0  0  0  0  0  0  0  0  0  0  0  0
    6.6073  -17.7801   21.0828 C   0  0  1  0  0  0  0  0  0  0  0  0
    5.1579  -17.3113   20.9507 C   0  0  0  0  0  0  0  0  0  0  0  0
    7.1854  -17.0259   22.2610 C   0  0  0  0  0  0  0  0  0  0  0  0
    7.0780  -15.5146   22.0399 C   0  0  2  0  0  0  0  0  0  0  0  0
    7.8317  -15.1576   20.8586 N   0  0  0  0  0  0  0  0  0  0  0  0
    7.7144  -14.8709   23.2152 C   0  0  0  0  0  0  0  0  0  0  0  0
    8.9632  -14.7507   23.2303 O   0  0  0  0  0  0  0  0  0  0  0  0
    6.2512  -11.8157   25.4850 C   0  0  0  0  0  0  0  0  0  0  0  0
    6.7875  -12.9677   26.2556 C   0  0  2  0  0  0  0  0  0  0  0  0
    7.4257  -12.4847   27.5428 C   0  0  0  0  0  0  0  0  0  0  0  0
    7.7283  -13.8262   25.4509 C   0  0  2  0  0  0  0  0  0  0  0  0
    6.9708  -14.3878   24.3176 N   0  0  0  0  0  0  0  0  0  0  0  0
    8.3533  -14.9194   26.2227 C   0  0  0  0  0  0  0  0  0  0  0  0
    7.6220  -15.9315   26.5438 O   0  0  0  0  0  0  0  0  0  0  0  0
    9.6829  -14.9993   26.6611 N   0  0  0  0  0  0  0  0  0  0  0  0
   10.2343  -16.1933   27.3104 C   0  0  1  0  0  0  0  0  0  0  0  0
   11.4294  -16.7148   26.5491 C   0  0  0  0  0  0  0  0  0  0  0  0
   12.0603  -17.8868   27.1903 C   0  0  0  0  0  0  0  0  0  0  0  0
   11.7063  -18.5130   28.3542 C   0  0  0  0  0  0  0  0  0  0  0  0
   12.5533  -19.5582   28.5870 N   0  0  0  0  0  0  0  0  0  0  0  0
   13.4015  -19.5497   27.5683 C   0  0  0  0  0  0  0  0  0  0  0  0
   13.1241  -18.5515   26.7140 N   0  0  0  0  0  0  0  0  0  0  0  0
   10.5041  -15.9481   28.7324 C   0  0  0  0  0  0  0  0  0  0  0  0
   10.3727  -14.7024   29.3207 O   0  0  0  0  0  0  0  0  0  0  0  0
   10.8713  -16.9029   29.4590 O   0  0  0  0  0  0  0  0  0  0  0  0
  2  1  1  1
  3  2  1  0
  4  5  1  0
  4  2  1  0
  5  6  1  6
  7 13  1  0
  7  5  1  0
  8  7  2  0
 10  9  1  6
 10 12  1  0
 11 10  1  0
 12 14  1  0
 12 13  1  6
 14 16  1  0
 15 14  2  0
 16 17  1  0
 17 24  1  0
 17 18  1  6
 19 18  1  0
 20 19  2  0
 21 22  1  0
 21 20  1  0
 22 23  2  0
 23 19  1  0
 24 26  2  0
 24 25  1  0
M  END
$$$$
