LVH.pdb
     RDKit          3D

 26 26  0  0  1  0  0  0  0  0999 V2000
    8.5988  -21.6346   20.9566 C   0  0  0  0  0  0  0  0  0  0  0  0
    8.6721  -20.5172   19.9695 C   0  0  1  0  0  0  0  0  0  0  0  0
    7.2831  -20.3379   19.3560 C   0  0  0  0  0  0  0  0  0  0  0  0
    9.0239  -19.1889   20.6044 C   0  0  0  0  0  0  0  0  0  0  0  0
    8.9001  -18.0534   19.5847 C   0  0  2  0  0  0  0  0  0  0  0  0
    9.9417  -18.1974   18.5921 N   0  0  0  0  0  0  0  0  0  0  0  0
    9.1322  -16.7917   20.3294 C   0  0  0  0  0  0  0  0  0  0  0  0
   10.3102  -16.4792   20.6277 O   0  0  0  0  0  0  0  0  0  0  0  0
    7.5789  -13.2169   19.7689 C   0  0  0  0  0  0  0  0  0  0  0  0
    7.4803  -13.6428   21.1893 C   0  0  2  0  0  0  0  0  0  0  0  0
    7.6487  -12.4481   22.1068 C   0  0  0  0  0  0  0  0  0  0  0  0
    8.4345  -14.7557   21.5368 C   0  0  2  0  0  0  0  0  0  0  0  0
    8.0804  -15.9279   20.7158 N   0  0  0  0  0  0  0  0  0  0  0  0
    8.4284  -15.1283   22.9659 C   0  0  0  0  0  0  0  0  0  0  0  0
    7.4105  -15.7761   23.4204 O   0  0  0  0  0  0  0  0  0  0  0  0
    9.4214  -14.8610   23.9192 N   0  0  0  0  0  0  0  0  0  0  0  0
    9.3248  -15.3077   25.3128 C   0  0  1  0  0  0  0  0  0  0  0  0
    7.8956  -15.2509   25.7969 C   0  0  0  0  0  0  0  0  0  0  0  0
    7.3938  -13.8716   25.9654 C   0  0  0  0  0  0  0  0  0  0  0  0
    8.1052  -12.7347   26.2361 C   0  0  0  0  0  0  0  0  0  0  0  0
    7.2541  -11.6697   26.3113 N   0  0  0  0  0  0  0  0  0  0  0  0
    6.0487  -12.1737   26.0866 C   0  0  0  0  0  0  0  0  0  0  0  0
    6.1081  -13.4984   25.8756 N   0  0  0  0  0  0  0  0  0  0  0  0
    9.9555  -16.6208   25.4949 C   0  0  0  0  0  0  0  0  0  0  0  0
   11.2875  -16.7763   25.8365 O   0  0  0  0  0  0  0  0  0  0  0  0
    9.2669  -17.6577   25.3364 O   0  0  0  0  0  0  0  0  0  0  0  0
  2  1  1  1
  3  2  1  0
  4  5  1  0
  4  2  1  0
  5  6  1  6
  7 13  1  0
  7  5  1  0
  8  7  2  0
 10  9  1  6
 10 12  1  0
 11 10  1  0
 12 14  1  0
 12 13  1  6
 14 16  1  0
 15 14  2  0
 16 17  1  0
 17 24  1  0
 17 18  1  6
 19 18  1  0
 20 19  2  0
 21 22  1  0
 21 20  1  0
 22 23  2  0
 23 19  1  0
 24 26  2  0
 24 25  1  0
M  END
$$$$
