LVH.pdb
     RDKit          3D

 26 26  0  0  1  0  0  0  0  0999 V2000
    8.5345  -11.8258   19.1524 C   0  0  0  0  0  0  0  0  0  0  0  0
    7.7950  -13.1167   19.2759 C   0  0  1  0  0  0  0  0  0  0  0  0
    8.1453  -13.9789   18.0627 C   0  0  0  0  0  0  0  0  0  0  0  0
    8.2046  -13.9192   20.4921 C   0  0  0  0  0  0  0  0  0  0  0  0
    7.3774  -15.2036   20.5951 C   0  0  2  0  0  0  0  0  0  0  0  0
    5.9982  -14.8551   20.8546 N   0  0  0  0  0  0  0  0  0  0  0  0
    7.9015  -15.9492   21.7655 C   0  0  0  0  0  0  0  0  0  0  0  0
    7.7208  -15.4710   22.9114 O   0  0  0  0  0  0  0  0  0  0  0  0
    7.0914  -18.9735   23.3555 C   0  0  0  0  0  0  0  0  0  0  0  0
    8.5567  -19.0722   23.1279 C   0  0  2  0  0  0  0  0  0  0  0  0
    9.2178  -19.7992   24.2819 C   0  0  0  0  0  0  0  0  0  0  0  0
    9.2016  -17.7366   22.8631 C   0  0  2  0  0  0  0  0  0  0  0  0
    8.5956  -17.1758   21.6417 N   0  0  0  0  0  0  0  0  0  0  0  0
   10.6691  -17.7981   22.7078 C   0  0  0  0  0  0  0  0  0  0  0  0
   11.1503  -18.5447   21.7733 O   0  0  0  0  0  0  0  0  0  0  0  0
   11.6344  -17.1242   23.4697 N   0  0  0  0  0  0  0  0  0  0  0  0
   13.0715  -17.2170   23.1922 C   0  0  1  0  0  0  0  0  0  0  0  0
   13.6270  -15.8740   22.7826 C   0  0  0  0  0  0  0  0  0  0  0  0
   13.1249  -15.4130   21.4719 C   0  0  0  0  0  0  0  0  0  0  0  0
   12.8850  -16.1513   20.3452 C   0  0  0  0  0  0  0  0  0  0  0  0
   12.4250  -15.3345   19.3525 N   0  0  0  0  0  0  0  0  0  0  0  0
   12.3935  -14.1225   19.8886 C   0  0  0  0  0  0  0  0  0  0  0  0
   12.8107  -14.1451   21.1647 N   0  0  0  0  0  0  0  0  0  0  0  0
   13.7906  -17.8336   24.3137 C   0  0  0  0  0  0  0  0  0  0  0  0
   15.1183  -18.2162   24.2388 O   0  0  0  0  0  0  0  0  0  0  0  0
   13.1855  -18.0282   25.3956 O   0  0  0  0  0  0  0  0  0  0  0  0
  2  1  1  6
  3  2  1  0
  4  5  1  0
  4  2  1  0
  5  6  1  1
  7 13  1  0
  7  5  1  0
  8  7  2  0
 10  9  1  1
 10 12  1  0
 11 10  1  0
 12 14  1  0
 12 13  1  6
 14 16  1  0
 15 14  2  0
 16 17  1  0
 17 24  1  0
 17 18  1  1
 19 18  1  0
 20 19  2  0
 21 22  1  0
 21 20  1  0
 22 23  2  0
 23 19  1  0
 24 26  2  0
 24 25  1  0
M  END
$$$$
