LVH.pdb
     RDKit          3D

 26 26  0  0  1  0  0  0  0  0999 V2000
    7.2025  -11.9351   19.8449 C   0  0  0  0  0  0  0  0  0  0  0  0
    8.0108  -13.1598   19.5709 C   0  0  1  0  0  0  0  0  0  0  0  0
    9.4708  -12.7350   19.4096 C   0  0  0  0  0  0  0  0  0  0  0  0
    7.9875  -14.1521   20.7137 C   0  0  0  0  0  0  0  0  0  0  0  0
    8.9138  -15.3354   20.4203 C   0  0  2  0  0  0  0  0  0  0  0  0
    8.3234  -16.1480   19.3801 N   0  0  0  0  0  0  0  0  0  0  0  0
    8.9770  -16.1394   21.6653 C   0  0  0  0  0  0  0  0  0  0  0  0
    7.9633  -16.7945   22.0084 O   0  0  0  0  0  0  0  0  0  0  0  0
   12.5316  -17.4864   23.3297 C   0  0  0  0  0  0  0  0  0  0  0  0
   11.1914  -18.1056   23.5010 C   0  0  2  0  0  0  0  0  0  0  0  0
   10.9138  -19.0743   22.3688 C   0  0  0  0  0  0  0  0  0  0  0  0
   10.0895  -17.0894   23.6527 C   0  0  2  0  0  0  0  0  0  0  0  0
   10.1324  -16.1973   22.4797 N   0  0  0  0  0  0  0  0  0  0  0  0
   10.1765  -16.2888   24.8907 C   0  0  0  0  0  0  0  0  0  0  0  0
   11.0216  -15.3158   24.9268 O   0  0  0  0  0  0  0  0  0  0  0  0
    9.4312  -16.4566   26.0666 N   0  0  0  0  0  0  0  0  0  0  0  0
    9.6034  -15.6000   27.2446 C   0  0  1  0  0  0  0  0  0  0  0  0
    8.2679  -15.1140   27.7548 C   0  0  0  0  0  0  0  0  0  0  0  0
    7.6771  -14.0516   26.9152 C   0  0  0  0  0  0  0  0  0  0  0  0
    8.2376  -13.3963   25.8529 C   0  0  0  0  0  0  0  0  0  0  0  0
    7.3494  -12.4857   25.3569 N   0  0  0  0  0  0  0  0  0  0  0  0
    6.2721  -12.6019   26.1206 C   0  0  0  0  0  0  0  0  0  0  0  0
    6.4462  -13.5391   27.0663 N   0  0  0  0  0  0  0  0  0  0  0  0
   10.4184  -16.2636   28.2696 C   0  0  0  0  0  0  0  0  0  0  0  0
   10.9528  -15.5951   29.3570 O   0  0  0  0  0  0  0  0  0  0  0  0
   10.6486  -17.4928   28.1671 O   0  0  0  0  0  0  0  0  0  0  0  0
  2  1  1  1
  3  2  1  0
  4  5  1  0
  4  2  1  0
  5  6  1  6
  7 13  1  0
  7  5  1  0
  8  7  2  0
 10  9  1  6
 10 12  1  0
 11 10  1  0
 12 14  1  0
 12 13  1  6
 14 16  1  0
 15 14  2  0
 16 17  1  0
 17 24  1  0
 17 18  1  1
 19 18  1  0
 20 19  2  0
 21 22  1  0
 21 20  1  0
 22 23  2  0
 23 19  1  0
 24 26  2  0
 24 25  1  0
M  END
$$$$
