LVH.pdb
     RDKit          3D

 26 26  0  0  1  0  0  0  0  0999 V2000
    7.1782  -15.6632   18.2262 C   0  0  0  0  0  0  0  0  0  0  0  0
    7.3755  -14.3387   18.8858 C   0  0  1  0  0  0  0  0  0  0  0  0
    6.0198  -13.6340   18.9438 C   0  0  0  0  0  0  0  0  0  0  0  0
    7.8479  -14.4560   20.3191 C   0  0  0  0  0  0  0  0  0  0  0  0
    7.8833  -13.0802   20.9902 C   0  0  2  0  0  0  0  0  0  0  0  0
    8.8503  -12.2492   20.3080 N   0  0  0  0  0  0  0  0  0  0  0  0
    8.3521  -13.3018   22.3800 C   0  0  0  0  0  0  0  0  0  0  0  0
    9.5509  -13.6227   22.5648 O   0  0  0  0  0  0  0  0  0  0  0  0
    7.7963  -12.8345   27.2323 C   0  0  0  0  0  0  0  0  0  0  0  0
    7.2215  -12.7677   25.8634 C   0  0  2  0  0  0  0  0  0  0  0  0
    5.8085  -13.3162   25.8617 C   0  0  0  0  0  0  0  0  0  0  0  0
    8.0859  -13.4412   24.8295 C   0  0  2  0  0  0  0  0  0  0  0  0
    7.5031  -13.1657   23.5036 N   0  0  0  0  0  0  0  0  0  0  0  0
    8.2243  -14.8993   25.0193 C   0  0  0  0  0  0  0  0  0  0  0  0
    7.6921  -15.6794   24.1416 O   0  0  0  0  0  0  0  0  0  0  0  0
    8.8842  -15.5625   26.0639 N   0  0  0  0  0  0  0  0  0  0  0  0
    9.6909  -16.7692   25.8538 C   0  0  1  0  0  0  0  0  0  0  0  0
   10.6953  -16.5574   24.7464 C   0  0  0  0  0  0  0  0  0  0  0  0
   11.5571  -17.7340   24.5109 C   0  0  0  0  0  0  0  0  0  0  0  0
   11.5973  -18.9119   25.2061 C   0  0  0  0  0  0  0  0  0  0  0  0
   12.5384  -19.7348   24.6574 N   0  0  0  0  0  0  0  0  0  0  0  0
   13.0506  -19.0484   23.6455 C   0  0  0  0  0  0  0  0  0  0  0  0
   12.4749  -17.8401   23.5379 N   0  0  0  0  0  0  0  0  0  0  0  0
   10.2908  -17.2329   27.1109 C   0  0  0  0  0  0  0  0  0  0  0  0
   10.6947  -18.5405   27.3161 O   0  0  0  0  0  0  0  0  0  0  0  0
   10.4502  -16.4167   28.0506 O   0  0  0  0  0  0  0  0  0  0  0  0
  2  1  1  1
  3  2  1  0
  4  5  1  0
  4  2  1  0
  5  6  1  6
  7 13  1  0
  7  5  1  0
  8  7  2  0
 10  9  1  1
 10 12  1  0
 11 10  1  0
 12 14  1  0
 12 13  1  6
 14 16  1  0
 15 14  2  0
 16 17  1  0
 17 24  1  0
 17 18  1  6
 19 18  1  0
 20 19  2  0
 21 22  1  0
 21 20  1  0
 22 23  2  0
 23 19  1  0
 24 26  2  0
 24 25  1  0
M  END
$$$$
