AYH.pdb
     RDKit          3D

 28 29  0  0  1  0  0  0  0  0999 V2000
   25.5702  -13.6146  -20.1609 C   0  0  0  0  0  0  0  0  0  0  0  0
   24.8916  -12.2776  -20.2773 C   0  0  2  0  0  0  0  0  0  0  0  0
   25.5633  -11.3766  -21.1603 N   0  0  0  0  0  0  0  0  0  0  0  0
   24.6060  -11.6686  -18.9486 C   0  0  0  0  0  0  0  0  0  0  0  0
   23.9189  -12.3088  -18.1178 O   0  0  0  0  0  0  0  0  0  0  0  0
   30.3444  -12.9349  -16.3129 O   0  0  0  0  0  0  0  0  0  0  0  0
   29.2690  -12.0591  -16.3437 C   0  0  0  0  0  0  0  0  0  0  0  0
   29.2457  -11.0406  -17.2779 C   0  0  0  0  0  0  0  0  0  0  0  0
   28.2075  -10.1406  -17.3584 C   0  0  0  0  0  0  0  0  0  0  0  0
   27.1493  -10.2416  -16.4896 C   0  0  0  0  0  0  0  0  0  0  0  0
   26.0481   -9.2881  -16.5739 C   0  0  0  0  0  0  0  0  0  0  0  0
   24.8481   -9.7255  -17.3437 C   0  0  2  0  0  0  0  0  0  0  0  0
   25.0851  -10.3806  -18.5818 N   0  0  0  0  0  0  0  0  0  0  0  0
   23.7312   -8.7316  -17.3596 C   0  0  0  0  0  0  0  0  0  0  0  0
   23.7072   -7.7735  -18.1572 O   0  0  0  0  0  0  0  0  0  0  0  0
   27.1383  -11.2397  -15.5493 C   0  0  0  0  0  0  0  0  0  0  0  0
   28.1961  -12.1424  -15.4806 C   0  0  0  0  0  0  0  0  0  0  0  0
   22.6756   -8.8959  -16.4289 N   0  0  0  0  0  0  0  0  0  0  0  0
   21.5163   -7.9893  -16.3858 C   0  0  1  0  0  0  0  0  0  0  0  0
   20.3069   -8.8532  -16.2999 C   0  0  0  0  0  0  0  0  0  0  0  0
   19.0290   -8.1501  -16.1401 C   0  0  0  0  0  0  0  0  0  0  0  0
   18.9767   -6.7540  -16.0683 C   0  0  0  0  0  0  0  0  0  0  0  0
   17.7152   -6.3510  -15.9246 N   0  0  0  0  0  0  0  0  0  0  0  0
   16.9814   -7.4763  -15.9060 C   0  0  0  0  0  0  0  0  0  0  0  0
   17.7679   -8.5501  -16.0348 N   0  0  0  0  0  0  0  0  0  0  0  0
   21.6772   -7.0203  -15.2802 C   0  0  0  0  0  0  0  0  0  0  0  0
   21.2679   -5.7056  -15.3499 O   0  0  0  0  0  0  0  0  0  0  0  0
   22.2190   -7.4167  -14.2147 O   0  0  0  0  0  0  0  0  0  0  0  0
  2  1  1  1
  2  3  1  0
  4  5  2  0
  4  2  1  0
  6  7  1  0
  7  8  2  0
  8  9  1  0
 10  9  2  0
 10 11  1  0
 12 11  1  6
 12 13  1  0
 13  4  1  0
 14 12  1  0
 15 14  2  0
 16 10  1  0
 17  7  1  0
 17 16  2  0
 18 14  1  0
 19 26  1  0
 19 18  1  0
 20 21  1  0
 19 20  1  1
 21 22  2  0
 21 25  1  0
 22 23  1  0
 23 24  1  0
 25 24  2  0
 26 27  1  0
 28 26  2  0
M  END
$$$$
