AYH.pdb
     RDKit          3D

 28 29  0  0  1  0  0  0  0  0999 V2000
   25.8279  -14.3306  -19.0687 C   0  0  0  0  0  0  0  0  0  0  0  0
   24.9924  -13.1191  -19.3785 C   0  0  2  0  0  0  0  0  0  0  0  0
   25.5205  -12.3240  -20.4423 N   0  0  0  0  0  0  0  0  0  0  0  0
   24.6856  -12.3155  -18.1628 C   0  0  0  0  0  0  0  0  0  0  0  0
   24.1205  -12.8696  -17.1904 O   0  0  0  0  0  0  0  0  0  0  0  0
   30.8172  -12.2993  -16.4214 O   0  0  0  0  0  0  0  0  0  0  0  0
   29.6365  -11.5711  -16.4395 C   0  0  0  0  0  0  0  0  0  0  0  0
   28.7084  -11.7520  -15.4313 C   0  0  0  0  0  0  0  0  0  0  0  0
   27.5194  -11.0598  -15.3939 C   0  0  0  0  0  0  0  0  0  0  0  0
   27.2269  -10.1540  -16.3832 C   0  0  0  0  0  0  0  0  0  0  0  0
   25.9668   -9.4195  -16.3448 C   0  0  0  0  0  0  0  0  0  0  0  0
   24.7792  -10.1066  -16.9291 C   0  0  2  0  0  0  0  0  0  0  0  0
   25.0103  -10.9345  -18.0601 N   0  0  0  0  0  0  0  0  0  0  0  0
   23.5536   -9.2542  -17.0113 C   0  0  0  0  0  0  0  0  0  0  0  0
   23.2668   -8.6017  -18.0344 O   0  0  0  0  0  0  0  0  0  0  0  0
   28.1241   -9.9484  -17.3997 C   0  0  0  0  0  0  0  0  0  0  0  0
   29.3228  -10.6565  -17.4234 C   0  0  0  0  0  0  0  0  0  0  0  0
   22.7032   -9.1937  -15.8796 N   0  0  0  0  0  0  0  0  0  0  0  0
   21.4384   -8.4398  -15.8852 C   0  0  1  0  0  0  0  0  0  0  0  0
   20.3694   -9.4047  -15.5076 C   0  0  0  0  0  0  0  0  0  0  0  0
   19.0092   -8.8585  -15.4421 C   0  0  0  0  0  0  0  0  0  0  0  0
   18.7845   -7.4778  -15.4416 C   0  0  0  0  0  0  0  0  0  0  0  0
   17.4777   -7.2278  -15.3766 N   0  0  0  0  0  0  0  0  0  0  0  0
   16.8857   -8.4332  -15.3365 C   0  0  0  0  0  0  0  0  0  0  0  0
   17.8021   -9.4062  -15.3758 N   0  0  0  0  0  0  0  0  0  0  0  0
   21.5557   -7.2554  -15.0072 C   0  0  0  0  0  0  0  0  0  0  0  0
   20.9279   -6.0535  -15.2565 O   0  0  0  0  0  0  0  0  0  0  0  0
   22.2693   -7.3482  -13.9737 O   0  0  0  0  0  0  0  0  0  0  0  0
  2  1  1  1
  2  3  1  0
  4  5  2  0
  4  2  1  0
  6  7  1  0
  7  8  2  0
  8  9  1  0
 10  9  2  0
 10 11  1  0
 12 11  1  6
 12 13  1  0
 13  4  1  0
 14 12  1  0
 15 14  2  0
 16 10  1  0
 17  7  1  0
 17 16  2  0
 18 14  1  0
 19 26  1  0
 19 18  1  0
 20 21  1  0
 19 20  1  1
 21 22  2  0
 21 25  1  0
 22 23  1  0
 23 24  1  0
 25 24  2  0
 26 27  1  0
 28 26  2  0
M  END
$$$$
