AYH.pdb
     RDKit          3D

 28 29  0  0  1  0  0  0  0  0999 V2000
   27.7429  -20.0065  -19.1005 C   0  0  0  0  0  0  0  0  0  0  0  0
   28.6451  -20.7002  -18.1174 C   0  0  2  0  0  0  0  0  0  0  0  0
   29.3460  -21.8120  -18.6790 N   0  0  0  0  0  0  0  0  0  0  0  0
   27.9433  -21.0482  -16.8508 C   0  0  0  0  0  0  0  0  0  0  0  0
   27.4233  -22.1829  -16.7321 O   0  0  0  0  0  0  0  0  0  0  0  0
   24.7561  -20.7287   -8.5753 O   0  0  0  0  0  0  0  0  0  0  0  0
   25.4403  -20.4523   -9.7501 C   0  0  0  0  0  0  0  0  0  0  0  0
   26.4913  -21.2638  -10.1341 C   0  0  0  0  0  0  0  0  0  0  0  0
   27.2083  -21.0415  -11.2876 C   0  0  0  0  0  0  0  0  0  0  0  0
   26.8835  -19.9821  -12.0982 C   0  0  0  0  0  0  0  0  0  0  0  0
   27.6427  -19.7453  -13.3215 C   0  0  0  0  0  0  0  0  0  0  0  0
   27.0946  -20.3475  -14.5708 C   0  0  2  0  0  0  0  0  0  0  0  0
   27.8386  -20.1382  -15.7627 N   0  0  0  0  0  0  0  0  0  0  0  0
   25.6130  -20.2132  -14.7202 C   0  0  0  0  0  0  0  0  0  0  0  0
   25.0832  -19.1803  -15.1754 O   0  0  0  0  0  0  0  0  0  0  0  0
   25.8464  -19.1556  -11.7491 C   0  0  0  0  0  0  0  0  0  0  0  0
   25.1307  -19.3938  -10.5787 C   0  0  0  0  0  0  0  0  0  0  0  0
   24.7987  -21.3026  -14.3232 N   0  0  0  0  0  0  0  0  0  0  0  0
   23.3358  -21.2931  -14.4898 C   0  0  1  0  0  0  0  0  0  0  0  0
   22.9223  -22.7112  -14.6760 C   0  0  0  0  0  0  0  0  0  0  0  0
   21.4842  -22.9393  -14.8571 C   0  0  0  0  0  0  0  0  0  0  0  0
   20.5695  -21.8842  -14.7749 C   0  0  0  0  0  0  0  0  0  0  0  0
   19.3321  -22.3360  -14.9728 N   0  0  0  0  0  0  0  0  0  0  0  0
   19.4636  -23.6574  -15.1771 C   0  0  0  0  0  0  0  0  0  0  0  0
   20.7498  -24.0161  -15.1076 N   0  0  0  0  0  0  0  0  0  0  0  0
   22.7044  -20.5986  -13.3469 C   0  0  0  0  0  0  0  0  0  0  0  0
   23.3751  -20.2657  -12.1892 O   0  0  0  0  0  0  0  0  0  0  0  0
   21.4856  -20.2939  -13.4343 O   0  0  0  0  0  0  0  0  0  0  0  0
  2  1  1  6
  2  3  1  0
  4  5  2  0
  4  2  1  0
  6  7  1  0
  7  8  2  0
  8  9  1  0
 10  9  2  0
 10 11  1  0
 12 11  1  1
 12 13  1  0
 13  4  1  0
 14 12  1  0
 15 14  2  0
 16 10  1  0
 17  7  1  0
 17 16  2  0
 18 14  1  0
 19 26  1  0
 19 18  1  0
 20 21  1  0
 19 20  1  1
 21 22  2  0
 21 25  1  0
 22 23  1  0
 23 24  1  0
 25 24  2  0
 26 27  1  0
 28 26  2  0
M  END
$$$$
