AYH.pdb
     RDKit          3D

 28 29  0  0  1  0  0  0  0  0999 V2000
   27.5456  -19.5033  -18.5709 C   0  0  0  0  0  0  0  0  0  0  0  0
   28.0108  -20.6836  -17.7634 C   0  0  2  0  0  0  0  0  0  0  0  0
   28.1683  -21.8737  -18.5390 N   0  0  0  0  0  0  0  0  0  0  0  0
   27.1807  -20.9009  -16.5461 C   0  0  0  0  0  0  0  0  0  0  0  0
   26.0820  -21.4952  -16.6537 O   0  0  0  0  0  0  0  0  0  0  0  0
   24.4245  -20.6326   -8.0786 O   0  0  0  0  0  0  0  0  0  0  0  0
   25.1836  -20.5995   -9.2395 C   0  0  0  0  0  0  0  0  0  0  0  0
   25.6634  -19.3901   -9.7061 C   0  0  0  0  0  0  0  0  0  0  0  0
   26.4214  -19.2923  -10.8507 C   0  0  0  0  0  0  0  0  0  0  0  0
   26.7219  -20.4239  -11.5676 C   0  0  0  0  0  0  0  0  0  0  0  0
   27.5253  -20.3217  -12.7813 C   0  0  0  0  0  0  0  0  0  0  0  0
   26.8045  -20.5105  -14.0731 C   0  0  2  0  0  0  0  0  0  0  0  0
   27.5876  -20.4581  -15.2572 N   0  0  0  0  0  0  0  0  0  0  0  0
   25.4904  -19.8018  -14.1540 C   0  0  0  0  0  0  0  0  0  0  0  0
   25.3997  -18.6122  -14.5166 O   0  0  0  0  0  0  0  0  0  0  0  0
   26.2627  -21.6414  -11.1347 C   0  0  0  0  0  0  0  0  0  0  0  0
   25.4970  -21.7238   -9.9747 C   0  0  0  0  0  0  0  0  0  0  0  0
   24.3205  -20.5182  -13.7997 N   0  0  0  0  0  0  0  0  0  0  0  0
   22.9765  -19.9235  -13.8883 C   0  0  1  0  0  0  0  0  0  0  0  0
   22.7077  -19.6998  -15.3354 C   0  0  0  0  0  0  0  0  0  0  0  0
   21.3673  -19.2040  -15.6675 C   0  0  0  0  0  0  0  0  0  0  0  0
   20.4493  -18.8760  -14.6642 C   0  0  0  0  0  0  0  0  0  0  0  0
   19.3099  -18.4520  -15.2085 N   0  0  0  0  0  0  0  0  0  0  0  0
   19.5055  -18.5113  -16.5364 C   0  0  0  0  0  0  0  0  0  0  0  0
   20.7351  -18.9607  -16.8089 N   0  0  0  0  0  0  0  0  0  0  0  0
   21.9981  -20.7873  -13.1928 C   0  0  0  0  0  0  0  0  0  0  0  0
   21.9401  -22.1559  -13.3480 O   0  0  0  0  0  0  0  0  0  0  0  0
   21.1702  -20.2434  -12.4150 O   0  0  0  0  0  0  0  0  0  0  0  0
  2  1  1  6
  2  3  1  0
  4  5  2  0
  4  2  1  0
  6  7  1  0
  7  8  2  0
  8  9  1  0
 10  9  2  0
 10 11  1  0
 12 11  1  1
 12 13  1  0
 13  4  1  0
 14 12  1  0
 15 14  2  0
 16 10  1  0
 17  7  1  0
 17 16  2  0
 18 14  1  0
 19 26  1  0
 19 18  1  0
 20 21  1  0
 19 20  1  6
 21 22  2  0
 21 25  1  0
 22 23  1  0
 23 24  1  0
 25 24  2  0
 26 27  1  0
 28 26  2  0
M  END
$$$$
