AYH.pdb
     RDKit          3D

 28 29  0  0  1  0  0  0  0  0999 V2000
   43.0717  -15.9052  -13.4286 C   0  0  0  0  0  0  0  0  0  0  0  0
   43.7273  -16.7144  -12.3437 C   0  0  2  0  0  0  0  0  0  0  0  0
   43.1406  -18.0057  -12.1674 N   0  0  0  0  0  0  0  0  0  0  0  0
   43.8434  -15.9603  -11.0647 C   0  0  0  0  0  0  0  0  0  0  0  0
   42.8145  -15.7639  -10.3755 O   0  0  0  0  0  0  0  0  0  0  0  0
   43.6115  -20.3078   -6.6948 O   0  0  0  0  0  0  0  0  0  0  0  0
   44.1550  -19.0816   -7.0494 C   0  0  0  0  0  0  0  0  0  0  0  0
   45.1156  -19.0229   -8.0416 C   0  0  0  0  0  0  0  0  0  0  0  0
   45.6919  -17.8375   -8.4375 C   0  0  0  0  0  0  0  0  0  0  0  0
   45.3128  -16.6620   -7.8382 C   0  0  0  0  0  0  0  0  0  0  0  0
   45.9230  -15.4045   -8.2569 C   0  0  0  0  0  0  0  0  0  0  0  0
   45.2745  -14.6994   -9.3998 C   0  0  2  0  0  0  0  0  0  0  0  0
   45.0835  -15.4503  -10.5905 N   0  0  0  0  0  0  0  0  0  0  0  0
   45.7500  -13.2972   -9.6077 C   0  0  0  0  0  0  0  0  0  0  0  0
   46.6227  -13.0110  -10.4511 O   0  0  0  0  0  0  0  0  0  0  0  0
   44.3624  -16.6818   -6.8499 C   0  0  0  0  0  0  0  0  0  0  0  0
   43.7887  -17.8892   -6.4605 C   0  0  0  0  0  0  0  0  0  0  0  0
   45.1834  -12.2729   -8.8095 N   0  0  0  0  0  0  0  0  0  0  0  0
   45.6027  -10.8659   -8.9207 C   0  0  1  0  0  0  0  0  0  0  0  0
   44.4818  -10.0469   -8.3829 C   0  0  0  0  0  0  0  0  0  0  0  0
   44.6811   -8.5935   -8.4109 C   0  0  0  0  0  0  0  0  0  0  0  0
   45.8139   -8.0311   -9.0087 C   0  0  0  0  0  0  0  0  0  0  0  0
   45.7712   -6.7035   -8.9094 N   0  0  0  0  0  0  0  0  0  0  0  0
   44.6279   -6.4313   -8.2582 C   0  0  0  0  0  0  0  0  0  0  0  0
   43.9780   -7.5615   -7.9612 N   0  0  0  0  0  0  0  0  0  0  0  0
   46.9034  -10.6742   -8.2433 C   0  0  0  0  0  0  0  0  0  0  0  0
   47.9056   -9.8610   -8.7281 O   0  0  0  0  0  0  0  0  0  0  0  0
   47.1087  -11.2882   -7.1631 O   0  0  0  0  0  0  0  0  0  0  0  0
  2  1  1  6
  2  3  1  0
  4  5  2  0
  4  2  1  0
  6  7  1  0
  7  8  2  0
  8  9  1  0
 10  9  2  0
 10 11  1  0
 12 11  1  1
 12 13  1  0
 13  4  1  0
 14 12  1  0
 15 14  2  0
 16 10  1  0
 17  7  1  0
 17 16  2  0
 18 14  1  0
 19 26  1  0
 19 18  1  0
 20 21  1  0
 19 20  1  1
 21 22  2  0
 21 25  1  0
 22 23  1  0
 23 24  1  0
 25 24  2  0
 26 27  1  0
 28 26  2  0
M  END
$$$$
