AYH.pdb
     RDKit          3D

 28 29  0  0  1  0  0  0  0  0999 V2000
   18.6571  -12.7501  -20.2147 C   0  0  0  0  0  0  0  0  0  0  0  0
   18.7736  -12.3818  -18.7613 C   0  0  2  0  0  0  0  0  0  0  0  0
   17.8755  -13.1081  -17.9194 N   0  0  0  0  0  0  0  0  0  0  0  0
   18.6996  -10.9108  -18.5409 C   0  0  0  0  0  0  0  0  0  0  0  0
   19.5292  -10.1646  -19.1129 O   0  0  0  0  0  0  0  0  0  0  0  0
   15.5018  -10.3375  -23.4639 O   0  0  0  0  0  0  0  0  0  0  0  0
   15.7011   -9.8609  -22.1763 C   0  0  0  0  0  0  0  0  0  0  0  0
   16.5807   -8.8160  -21.9645 C   0  0  0  0  0  0  0  0  0  0  0  0
   16.8207   -8.2996  -20.7116 C   0  0  0  0  0  0  0  0  0  0  0  0
   16.1737   -8.8272  -19.6218 C   0  0  0  0  0  0  0  0  0  0  0  0
   16.4272   -8.2807  -18.2928 C   0  0  0  0  0  0  0  0  0  0  0  0
   17.5231   -8.9204  -17.5094 C   0  0  2  0  0  0  0  0  0  0  0  0
   17.7185  -10.3143  -17.7016 N   0  0  0  0  0  0  0  0  0  0  0  0
   17.6141   -8.4605  -16.0897 C   0  0  0  0  0  0  0  0  0  0  0  0
   17.1090   -9.1056  -15.1498 O   0  0  0  0  0  0  0  0  0  0  0  0
   15.2938   -9.8648  -19.7938 C   0  0  0  0  0  0  0  0  0  0  0  0
   15.0617  -10.3762  -21.0678 C   0  0  0  0  0  0  0  0  0  0  0  0
   18.2965   -7.2481  -15.8212 N   0  0  0  0  0  0  0  0  0  0  0  0
   18.5647   -6.7831  -14.4502 C   0  0  1  0  0  0  0  0  0  0  0  0
   19.4810   -7.7832  -13.8362 C   0  0  0  0  0  0  0  0  0  0  0  0
   18.8556   -8.7491  -12.9259 C   0  0  0  0  0  0  0  0  0  0  0  0
   18.0071   -8.3272  -11.8969 C   0  0  0  0  0  0  0  0  0  0  0  0
   17.5648   -9.3790  -11.2095 N   0  0  0  0  0  0  0  0  0  0  0  0
   18.1259  -10.4497  -11.7959 C   0  0  0  0  0  0  0  0  0  0  0  0
   18.8967  -10.0716  -12.8211 N   0  0  0  0  0  0  0  0  0  0  0  0
   19.0771   -5.3961  -14.4813 C   0  0  0  0  0  0  0  0  0  0  0  0
   18.9472   -4.5092  -13.4338 O   0  0  0  0  0  0  0  0  0  0  0  0
   19.6648   -5.0013  -15.5228 O   0  0  0  0  0  0  0  0  0  0  0  0
  2  1  1  6
  2  3  1  0
  4  5  2  0
  4  2  1  0
  6  7  1  0
  7  8  2  0
  8  9  1  0
 10  9  2  0
 10 11  1  0
 12 11  1  1
 12 13  1  0
 13  4  1  0
 14 12  1  0
 15 14  2  0
 16 10  1  0
 17  7  1  0
 17 16  2  0
 18 14  1  0
 19 26  1  0
 19 18  1  0
 20 21  1  0
 19 20  1  6
 21 22  2  0
 21 25  1  0
 22 23  1  0
 23 24  1  0
 25 24  2  0
 26 27  1  0
 28 26  2  0
M  END
$$$$
