HTK.pdb
     RDKit          3D

 27 27  0  0  1  0  0  0  0  0999 V2000
   17.5302  -12.8820  -17.7903 N   0  0  0  0  0  0  0  0  0  0  0  0
   18.0927  -13.2254  -16.5144 C   0  0  1  0  0  0  0  0  0  0  0  0
   19.3214  -14.0739  -16.6975 C   0  0  0  0  0  0  0  0  0  0  0  0
   18.9046  -15.3610  -17.2987 C   0  0  0  0  0  0  0  0  0  0  0  0
   17.5946  -15.8009  -17.4625 C   0  0  0  0  0  0  0  0  0  0  0  0
   17.6747  -17.0039  -18.0412 N   0  0  0  0  0  0  0  0  0  0  0  0
   18.9469  -17.3578  -18.2561 C   0  0  0  0  0  0  0  0  0  0  0  0
   19.6833  -16.3213  -17.7862 N   0  0  0  0  0  0  0  0  0  0  0  0
   18.5353  -11.9617  -15.8313 C   0  0  0  0  0  0  0  0  0  0  0  0
   19.0643  -12.0019  -14.6954 O   0  0  0  0  0  0  0  0  0  0  0  0
   21.0327   -9.6723  -16.4836 C   0  0  0  0  0  0  0  0  0  0  0  0
   19.7959   -8.8142  -16.6632 C   0  0  1  0  0  0  0  0  0  0  0  0
   19.4226   -8.9326  -18.0066 O   0  0  0  0  0  0  0  0  0  0  0  0
   18.6937   -9.4423  -15.8463 C   0  0  2  0  0  0  0  0  0  0  0  0
   18.3638  -10.7039  -16.4562 N   0  0  0  0  0  0  0  0  0  0  0  0
   17.4992   -8.6075  -15.7410 C   0  0  0  0  0  0  0  0  0  0  0  0
   16.4009   -9.0921  -16.1375 O   0  0  0  0  0  0  0  0  0  0  0  0
   17.5250   -7.2741  -15.2108 N   0  0  0  0  0  0  0  0  0  0  0  0
   16.3024   -6.5296  -15.1852 C   0  0  1  0  0  0  0  0  0  0  0  0
   15.1605   -7.2938  -14.5576 C   0  0  0  0  0  0  0  0  0  0  0  0
   13.9253   -6.4310  -14.6630 C   0  0  0  0  0  0  0  0  0  0  0  0
   12.7075   -7.0801  -14.0958 C   0  0  0  0  0  0  0  0  0  0  0  0
   11.4492   -6.2726  -14.3279 C   0  0  0  0  0  0  0  0  0  0  0  0
   10.3154   -6.9404  -13.7180 N   0  0  0  0  0  0  0  0  0  0  0  0
   16.5035   -5.2170  -14.4742 C   0  0  0  0  0  0  0  0  0  0  0  0
   15.7344   -4.1039  -14.7635 O   0  0  0  0  0  0  0  0  0  0  0  0
   17.3876   -5.1041  -13.5899 O   0  0  0  0  0  0  0  0  0  0  0  0
  2  1  1  6
  2  3  1  0
  3  4  1  0
  4  8  1  0
  5  6  1  0
  5  4  2  0
  6  7  1  0
  7  8  2  0
  9 10  2  0
  9  2  1  0
 12 11  1  6
 12 13  1  0
 12 14  1  0
 14 15  1  6
 15  9  1  0
 16 14  1  0
 16 18  1  0
 17 16  2  0
 19 18  1  0
 19 25  1  0
 19 20  1  1
 21 20  1  0
 22 21  1  0
 23 22  1  0
 24 23  1  0
 25 26  1  0
 27 25  2  0
M  END
$$$$
