HTK.pdb
     RDKit          3D

 27 27  0  0  1  0  0  0  0  0999 V2000
   26.3586  -14.6139  -18.8171 N   0  0  0  0  0  0  0  0  0  0  0  0
   25.5203  -13.4634  -19.0064 C   0  0  1  0  0  0  0  0  0  0  0  0
   24.2041  -13.8709  -19.6102 C   0  0  0  0  0  0  0  0  0  0  0  0
   24.4726  -14.4564  -20.9433 C   0  0  0  0  0  0  0  0  0  0  0  0
   23.9060  -15.6200  -21.4544 C   0  0  0  0  0  0  0  0  0  0  0  0
   24.4218  -15.7796  -22.6779 N   0  0  0  0  0  0  0  0  0  0  0  0
   25.2776  -14.7961  -22.9784 C   0  0  0  0  0  0  0  0  0  0  0  0
   25.2873  -13.9939  -21.8858 N   0  0  0  0  0  0  0  0  0  0  0  0
   25.2149  -12.8679  -17.6604 C   0  0  0  0  0  0  0  0  0  0  0  0
   25.2002  -13.5865  -16.6331 O   0  0  0  0  0  0  0  0  0  0  0  0
   26.8477  -11.4159  -15.5308 C   0  0  0  0  0  0  0  0  0  0  0  0
   25.8762  -10.2663  -15.7114 C   0  0  1  0  0  0  0  0  0  0  0  0
   26.4236   -9.4349  -16.6949 O   0  0  0  0  0  0  0  0  0  0  0  0
   24.6043  -10.8418  -16.2838 C   0  0  2  0  0  0  0  0  0  0  0  0
   24.9384  -11.4867  -17.5268 N   0  0  0  0  0  0  0  0  0  0  0  0
   23.5597   -9.8436  -16.5006 C   0  0  0  0  0  0  0  0  0  0  0  0
   23.5042   -9.2798  -17.6308 O   0  0  0  0  0  0  0  0  0  0  0  0
   22.6053   -9.4829  -15.4912 N   0  0  0  0  0  0  0  0  0  0  0  0
   21.6468   -8.4639  -15.7956 C   0  0  1  0  0  0  0  0  0  0  0  0
   20.2423   -9.0008  -15.9403 C   0  0  0  0  0  0  0  0  0  0  0  0
   19.3772   -7.8746  -16.4547 C   0  0  0  0  0  0  0  0  0  0  0  0
   17.9609   -8.2828  -16.6858 C   0  0  0  0  0  0  0  0  0  0  0  0
   17.1313   -7.1905  -17.3245 C   0  0  0  0  0  0  0  0  0  0  0  0
   15.8299   -7.7127  -17.6948 N   0  0  0  0  0  0  0  0  0  0  0  0
   21.6849   -7.3802  -14.7503 C   0  0  0  0  0  0  0  0  0  0  0  0
   21.3302   -6.0743  -15.0385 O   0  0  0  0  0  0  0  0  0  0  0  0
   22.0453   -7.6437  -13.5768 O   0  0  0  0  0  0  0  0  0  0  0  0
  2  1  1  1
  2  3  1  0
  3  4  1  0
  4  8  1  0
  5  6  1  0
  5  4  2  0
  6  7  1  0
  7  8  2  0
  9 10  2  0
  9  2  1  0
 12 11  1  6
 12 13  1  0
 12 14  1  0
 14 15  1  6
 15  9  1  0
 16 14  1  0
 16 18  1  0
 17 16  2  0
 19 18  1  0
 19 25  1  0
 19 20  1  1
 21 20  1  0
 22 21  1  0
 23 22  1  0
 24 23  1  0
 25 26  1  0
 27 25  2  0
M  END
$$$$
