HTK.pdb
     RDKit          3D

 27 27  0  0  1  0  0  0  0  0999 V2000
   25.2337  -34.0250   -9.0435 N   0  0  0  0  0  0  0  0  0  0  0  0
   25.1881  -33.3773   -7.7627 C   0  0  1  0  0  0  0  0  0  0  0  0
   23.8125  -32.8249   -7.5063 C   0  0  0  0  0  0  0  0  0  0  0  0
   23.7081  -31.5171   -8.1925 C   0  0  0  0  0  0  0  0  0  0  0  0
   24.6995  -30.9161   -8.9620 C   0  0  0  0  0  0  0  0  0  0  0  0
   24.1888  -29.7559   -9.3882 N   0  0  0  0  0  0  0  0  0  0  0  0
   22.9401  -29.5794   -8.9414 C   0  0  0  0  0  0  0  0  0  0  0  0
   22.6716  -30.6854   -8.2052 N   0  0  0  0  0  0  0  0  0  0  0  0
   25.4487  -34.4054   -6.6975 C   0  0  0  0  0  0  0  0  0  0  0  0
   25.0225  -35.5776   -6.8241 O   0  0  0  0  0  0  0  0  0  0  0  0
   28.6768  -35.2815   -5.6958 C   0  0  0  0  0  0  0  0  0  0  0  0
   28.0614  -34.9291   -4.3560 C   0  0  1  0  0  0  0  0  0  0  0  0
   28.3679  -33.5843   -4.1200 O   0  0  0  0  0  0  0  0  0  0  0  0
   26.5635  -35.0144   -4.5159 C   0  0  2  0  0  0  0  0  0  0  0  0
   26.1792  -34.0707   -5.5329 N   0  0  0  0  0  0  0  0  0  0  0  0
   25.8300  -34.7483   -3.2806 C   0  0  0  0  0  0  0  0  0  0  0  0
   24.9064  -33.8858   -3.3140 O   0  0  0  0  0  0  0  0  0  0  0  0
   26.1150  -35.4211   -2.0453 N   0  0  0  0  0  0  0  0  0  0  0  0
   25.2789  -35.1493   -0.9153 C   0  0  1  0  0  0  0  0  0  0  0  0
   23.8316  -35.5104   -1.1530 C   0  0  0  0  0  0  0  0  0  0  0  0
   23.0800  -35.2391    0.1287 C   0  0  0  0  0  0  0  0  0  0  0  0
   21.6397  -35.6211    0.0551 C   0  0  0  0  0  0  0  0  0  0  0  0
   20.8860  -35.3199    1.3319 C   0  0  0  0  0  0  0  0  0  0  0  0
   19.5096  -35.7598    1.2073 N   0  0  0  0  0  0  0  0  0  0  0  0
   25.7998  -35.8623    0.3050 C   0  0  0  0  0  0  0  0  0  0  0  0
   25.8424  -35.2514    1.5456 O   0  0  0  0  0  0  0  0  0  0  0  0
   26.2129  -37.0449    0.2201 O   0  0  0  0  0  0  0  0  0  0  0  0
  2  1  1  6
  2  3  1  0
  3  4  1  0
  4  8  1  0
  5  6  1  0
  5  4  2  0
  6  7  1  0
  7  8  2  0
  9 10  2  0
  9  2  1  0
 12 11  1  6
 12 13  1  0
 12 14  1  0
 14 15  1  6
 15  9  1  0
 16 14  1  0
 16 18  1  0
 17 16  2  0
 19 18  1  0
 19 25  1  0
 19 20  1  6
 21 20  1  0
 22 21  1  0
 23 22  1  0
 24 23  1  0
 25 26  1  0
 27 25  2  0
M  END
$$$$
