HTK.pdb
     RDKit          3D

 27 27  0  0  1  0  0  0  0  0999 V2000
   21.7710  -14.5789  -17.2389 N   0  0  0  0  0  0  0  0  0  0  0  0
   21.6600  -13.2586  -17.7927 C   0  0  1  0  0  0  0  0  0  0  0  0
   20.2984  -13.0612  -18.4013 C   0  0  0  0  0  0  0  0  0  0  0  0
   20.2018  -13.9257  -19.5994 C   0  0  0  0  0  0  0  0  0  0  0  0
   19.0445  -14.5310  -20.0796 C   0  0  0  0  0  0  0  0  0  0  0  0
   19.4064  -15.2142  -21.1709 N   0  0  0  0  0  0  0  0  0  0  0  0
   20.7152  -15.0838  -21.4161 C   0  0  0  0  0  0  0  0  0  0  0  0
   21.1788  -14.2813  -20.4270 N   0  0  0  0  0  0  0  0  0  0  0  0
   21.7858  -12.2598  -16.6765 C   0  0  0  0  0  0  0  0  0  0  0  0
   21.2145  -12.4555  -15.5777 O   0  0  0  0  0  0  0  0  0  0  0  0
   24.5344  -11.3501  -14.9326 C   0  0  0  0  0  0  0  0  0  0  0  0
   24.1433   -9.9829  -15.4577 C   0  0  1  0  0  0  0  0  0  0  0  0
   24.8682   -9.7892  -16.6389 O   0  0  0  0  0  0  0  0  0  0  0  0
   22.6868  -10.0530  -15.8453 C   0  0  2  0  0  0  0  0  0  0  0  0
   22.5503  -11.0810  -16.8437 N   0  0  0  0  0  0  0  0  0  0  0  0
   22.1574   -8.7884  -16.3506 C   0  0  0  0  0  0  0  0  0  0  0  0
   21.9207   -8.6978  -17.5892 O   0  0  0  0  0  0  0  0  0  0  0  0
   21.8989   -7.6584  -15.5043 N   0  0  0  0  0  0  0  0  0  0  0  0
   21.3182   -6.4888  -16.0914 C   0  0  1  0  0  0  0  0  0  0  0  0
   20.0814   -6.7900  -16.9045 C   0  0  0  0  0  0  0  0  0  0  0  0
   19.5845   -5.4829  -17.4752 C   0  0  0  0  0  0  0  0  0  0  0  0
   18.3602   -5.6377  -18.3137 C   0  0  0  0  0  0  0  0  0  0  0  0
   17.9322   -4.3449  -18.9730 C   0  0  0  0  0  0  0  0  0  0  0  0
   16.7579   -4.5748  -19.7925 N   0  0  0  0  0  0  0  0  0  0  0  0
   21.0066   -5.4688  -15.0278 C   0  0  0  0  0  0  0  0  0  0  0  0
   20.8220   -4.1313  -15.3298 O   0  0  0  0  0  0  0  0  0  0  0  0
   20.9062   -5.8169  -13.8256 O   0  0  0  0  0  0  0  0  0  0  0  0
  2  1  1  1
  2  3  1  0
  3  4  1  0
  4  8  1  0
  5  6  1  0
  5  4  2  0
  6  7  1  0
  7  8  2  0
  9 10  2  0
  9  2  1  0
 12 11  1  6
 12 13  1  0
 12 14  1  0
 14 15  1  6
 15  9  1  0
 16 14  1  0
 16 18  1  0
 17 16  2  0
 19 18  1  0
 19 25  1  0
 19 20  1  1
 21 20  1  0
 22 21  1  0
 23 22  1  0
 24 23  1  0
 25 26  1  0
 27 25  2  0
M  END
$$$$
