HTK.pdb
     RDKit          3D

 27 27  0  0  1  0  0  0  0  0999 V2000
   25.0944  -21.3794  -15.7925 N   0  0  0  0  0  0  0  0  0  0  0  0
   24.3582  -22.3974  -15.0969 C   0  0  1  0  0  0  0  0  0  0  0  0
   25.2991  -23.3046  -14.3521 C   0  0  0  0  0  0  0  0  0  0  0  0
   26.0553  -24.0980  -15.3473 C   0  0  0  0  0  0  0  0  0  0  0  0
   25.6471  -25.3014  -15.9144 C   0  0  0  0  0  0  0  0  0  0  0  0
   26.6220  -25.6680  -16.7533 N   0  0  0  0  0  0  0  0  0  0  0  0
   27.6218  -24.7789  -16.7574 C   0  0  0  0  0  0  0  0  0  0  0  0
   27.2415  -23.8200  -15.8779 N   0  0  0  0  0  0  0  0  0  0  0  0
   23.4854  -21.7367  -14.0668 C   0  0  0  0  0  0  0  0  0  0  0  0
   23.9522  -20.8585  -13.3034 O   0  0  0  0  0  0  0  0  0  0  0  0
   21.3276  -19.3271  -14.0227 C   0  0  0  0  0  0  0  0  0  0  0  0
   20.3969  -20.4733  -13.6789 C   0  0  1  0  0  0  0  0  0  0  0  0
   19.9883  -21.0312  -14.8954 O   0  0  0  0  0  0  0  0  0  0  0  0
   21.2208  -21.5213  -12.9722 C   0  0  2  0  0  0  0  0  0  0  0  0
   22.1219  -22.0924  -13.9388 N   0  0  0  0  0  0  0  0  0  0  0  0
   20.4176  -22.5724  -12.3517 C   0  0  0  0  0  0  0  0  0  0  0  0
   20.1940  -23.6208  -13.0219 O   0  0  0  0  0  0  0  0  0  0  0  0
   19.8792  -22.4612  -11.0260 N   0  0  0  0  0  0  0  0  0  0  0  0
   18.9872  -23.4828  -10.5672 C   0  0  1  0  0  0  0  0  0  0  0  0
   18.9133  -23.5671   -9.0609 C   0  0  0  0  0  0  0  0  0  0  0  0
   17.9382  -24.6677   -8.7157 C   0  0  0  0  0  0  0  0  0  0  0  0
   17.7650  -24.8568   -7.2459 C   0  0  0  0  0  0  0  0  0  0  0  0
   16.8158  -25.9851   -6.9066 C   0  0  0  0  0  0  0  0  0  0  0  0
   16.6745  -26.0944   -5.4673 N   0  0  0  0  0  0  0  0  0  0  0  0
   17.6119  -23.2753  -11.1453 C   0  0  0  0  0  0  0  0  0  0  0  0
   16.8754  -24.3213  -11.6722 O   0  0  0  0  0  0  0  0  0  0  0  0
   17.0971  -22.1302  -11.1613 O   0  0  0  0  0  0  0  0  0  0  0  0
  2  1  1  1
  2  3  1  0
  3  4  1  0
  4  8  1  0
  5  6  1  0
  5  4  2  0
  6  7  1  0
  7  8  2  0
  9 10  2  0
  9  2  1  0
 12 11  1  6
 12 13  1  0
 12 14  1  0
 14 15  1  6
 15  9  1  0
 16 14  1  0
 16 18  1  0
 17 16  2  0
 19 18  1  0
 19 25  1  0
 19 20  1  1
 21 20  1  0
 22 21  1  0
 23 22  1  0
 24 23  1  0
 25 26  1  0
 27 25  2  0
M  END
$$$$
