HTK.pdb
     RDKit          3D

 27 27  0  0  1  0  0  0  0  0999 V2000
   28.6842  -13.2029  -17.9552 N   0  0  0  0  0  0  0  0  0  0  0  0
   28.3258  -12.0169  -17.2291 C   0  0  1  0  0  0  0  0  0  0  0  0
   28.9632  -10.8079  -17.8577 C   0  0  0  0  0  0  0  0  0  0  0  0
   30.4318  -10.9925  -17.8215 C   0  0  0  0  0  0  0  0  0  0  0  0
   31.1046  -12.0969  -17.3078 C   0  0  0  0  0  0  0  0  0  0  0  0
   32.4083  -11.8506  -17.4756 N   0  0  0  0  0  0  0  0  0  0  0  0
   32.6090  -10.6644  -18.0609 C   0  0  0  0  0  0  0  0  0  0  0  0
   31.3677  -10.1583  -18.2622 N   0  0  0  0  0  0  0  0  0  0  0  0
   26.8383  -11.8257  -17.3301 C   0  0  0  0  0  0  0  0  0  0  0  0
   26.1989  -12.2958  -18.3007 O   0  0  0  0  0  0  0  0  0  0  0  0
   24.5706  -13.0464  -15.0196 C   0  0  0  0  0  0  0  0  0  0  0  0
   24.2186  -11.5721  -14.9940 C   0  0  1  0  0  0  0  0  0  0  0  0
   24.9877  -10.9982  -13.9756 O   0  0  0  0  0  0  0  0  0  0  0  0
   24.6992  -10.9753  -16.2938 C   0  0  2  0  0  0  0  0  0  0  0  0
   26.1317  -11.1124  -16.3332 N   0  0  0  0  0  0  0  0  0  0  0  0
   24.3237   -9.5737  -16.4649 C   0  0  0  0  0  0  0  0  0  0  0  0
   25.2454   -8.7085  -16.4598 O   0  0  0  0  0  0  0  0  0  0  0  0
   22.9642   -9.1469  -16.6364 N   0  0  0  0  0  0  0  0  0  0  0  0
   22.7063   -7.7473  -16.7927 C   0  0  1  0  0  0  0  0  0  0  0  0
   21.8971   -7.4320  -18.0287 C   0  0  0  0  0  0  0  0  0  0  0  0
   21.6618   -5.9402  -18.0482 C   0  0  0  0  0  0  0  0  0  0  0  0
   20.8104   -5.4965  -19.1902 C   0  0  0  0  0  0  0  0  0  0  0  0
   20.5386   -4.0082  -19.1770 C   0  0  0  0  0  0  0  0  0  0  0  0
   21.7410   -3.2842  -19.5423 N   0  0  0  0  0  0  0  0  0  0  0  0
   22.0202   -7.2014  -15.5679 C   0  0  0  0  0  0  0  0  0  0  0  0
   22.1646   -5.8822  -15.1765 O   0  0  0  0  0  0  0  0  0  0  0  0
   21.2914   -7.9442  -14.8654 O   0  0  0  0  0  0  0  0  0  0  0  0
  2  1  1  6
  2  3  1  0
  3  4  1  0
  4  8  1  0
  5  6  1  0
  5  4  2  0
  6  7  1  0
  7  8  2  0
  9 10  2  0
  9  2  1  0
 12 11  1  6
 12 13  1  0
 12 14  1  0
 14 15  1  1
 15  9  1  0
 16 14  1  0
 16 18  1  0
 17 16  2  0
 19 18  1  0
 19 25  1  0
 19 20  1  6
 21 20  1  0
 22 21  1  0
 23 22  1  0
 24 23  1  0
 25 26  1  0
 27 25  2  0
M  END
$$$$
