FVS.pdb
     RDKit          3D

 25 25  0  0  1  0  0  0  0  0999 V2000
    5.8927  -17.8784   25.4881 N   0  0  0  0  0  0  0  0  0  0  0  0
    6.2784  -16.5123   25.2267 C   0  0  1  0  0  0  0  0  0  0  0  0
    7.0476  -16.0316   26.4435 C   0  0  0  0  0  0  0  0  0  0  0  0
    7.0578  -14.5755   26.5696 C   0  0  0  0  0  0  0  0  0  0  0  0
    5.8851  -13.8551   26.5745 C   0  0  0  0  0  0  0  0  0  0  0  0
    5.9395  -12.4832   26.6934 C   0  0  0  0  0  0  0  0  0  0  0  0
    7.1508  -11.8218   26.8076 C   0  0  0  0  0  0  0  0  0  0  0  0
    8.3284  -12.5308   26.8038 C   0  0  0  0  0  0  0  0  0  0  0  0
    8.2629  -13.9196   26.6829 C   0  0  0  0  0  0  0  0  0  0  0  0
    7.1800  -16.4795   24.0478 C   0  0  0  0  0  0  0  0  0  0  0  0
    7.9584  -17.4457   23.7855 O   0  0  0  0  0  0  0  0  0  0  0  0
    8.7825  -14.2734   19.9095 C   0  0  0  0  0  0  0  0  0  0  0  0
    7.8927  -14.1514   21.1266 C   0  0  1  0  0  0  0  0  0  0  0  0
    6.4660  -14.1523   20.6549 C   0  0  0  0  0  0  0  0  0  0  0  0
    8.1181  -15.3874   21.9822 C   0  0  2  0  0  0  0  0  0  0  0  0
    7.2347  -15.3790   23.1414 N   0  0  0  0  0  0  0  0  0  0  0  0
    9.5255  -15.5502   22.3581 C   0  0  0  0  0  0  0  0  0  0  0  0
   10.0697  -14.6834   23.0812 O   0  0  0  0  0  0  0  0  0  0  0  0
   11.4889  -19.1013   21.9420 O   0  0  0  0  0  0  0  0  0  0  0  0
   12.0079  -18.1904   22.8438 C   0  0  0  0  0  0  0  0  0  0  0  0
   11.7311  -16.7912   22.2973 C   0  0  2  0  0  0  0  0  0  0  0  0
   10.3405  -16.6538   21.9496 N   0  0  0  0  0  0  0  0  0  0  0  0
   12.6563  -16.4529   21.2208 C   0  0  0  0  0  0  0  0  0  0  0  0
   12.1725  -16.1156   19.9712 O   0  0  0  0  0  0  0  0  0  0  0  0
   13.8938  -16.4603   21.4031 O   0  0  0  0  0  0  0  0  0  0  0  0
  2 10  1  0
  2  1  1  1
  3  2  1  0
  4  3  1  0
  5  4  2  0
  6  5  1  0
  7  8  1  0
  7  6  2  0
  8  9  2  0
  9  4  1  0
 10 11  2  0
 13 12  1  6
 14 13  1  0
 15 13  1  0
 15 16  1  1
 16 10  1  0
 17 22  1  0
 17 15  1  0
 18 17  2  0
 20 19  1  0
 21 20  1  6
 21 22  1  0
 23 24  1  0
 23 21  1  0
 25 23  2  0
M  END
$$$$
