FVS.pdb
     RDKit          3D

 25 25  0  0  1  0  0  0  0  0999 V2000
    6.0917  -17.9984   25.9499 N   0  0  0  0  0  0  0  0  0  0  0  0
    6.4550  -16.6338   25.6508 C   0  0  1  0  0  0  0  0  0  0  0  0
    7.2555  -16.1220   26.8343 C   0  0  0  0  0  0  0  0  0  0  0  0
    7.3703  -14.6651   26.8541 C   0  0  0  0  0  0  0  0  0  0  0  0
    8.6015  -14.0501   26.8671 C   0  0  0  0  0  0  0  0  0  0  0  0
    8.6652  -12.6736   26.8877 C   0  0  0  0  0  0  0  0  0  0  0  0
    7.5141  -11.9036   26.8955 C   0  0  0  0  0  0  0  0  0  0  0  0
    6.2790  -12.5067   26.8828 C   0  0  0  0  0  0  0  0  0  0  0  0
    6.2250  -13.9011   26.8620 C   0  0  0  0  0  0  0  0  0  0  0  0
    7.3201  -16.6150   24.4447 C   0  0  0  0  0  0  0  0  0  0  0  0
    8.0540  -17.6045   24.1437 O   0  0  0  0  0  0  0  0  0  0  0  0
    9.0517  -14.3145   20.4094 C   0  0  0  0  0  0  0  0  0  0  0  0
    8.0351  -14.2858   21.5289 C   0  0  1  0  0  0  0  0  0  0  0  0
    6.6725  -14.4497   20.9169 C   0  0  0  0  0  0  0  0  0  0  0  0
    8.3084  -15.4834   22.4242 C   0  0  2  0  0  0  0  0  0  0  0  0
    7.3871  -15.5029   23.5533 N   0  0  0  0  0  0  0  0  0  0  0  0
    9.7095  -15.5468   22.8500 C   0  0  0  0  0  0  0  0  0  0  0  0
   10.1924  -14.5960   23.5081 O   0  0  0  0  0  0  0  0  0  0  0  0
   11.9343  -18.9380   22.2850 O   0  0  0  0  0  0  0  0  0  0  0  0
   12.3679  -18.1234   23.3150 C   0  0  0  0  0  0  0  0  0  0  0  0
   11.9645  -16.6909   22.9715 C   0  0  2  0  0  0  0  0  0  0  0  0
   10.5848  -16.6422   22.5618 N   0  0  0  0  0  0  0  0  0  0  0  0
   12.8957  -16.0946   22.0194 C   0  0  0  0  0  0  0  0  0  0  0  0
   14.2059  -15.8555   22.3880 O   0  0  0  0  0  0  0  0  0  0  0  0
   12.5332  -15.7905   20.8614 O   0  0  0  0  0  0  0  0  0  0  0  0
  2 10  1  0
  2  1  1  1
  3  2  1  0
  4  3  1  0
  5  4  2  0
  6  5  1  0
  7  8  1  0
  7  6  2  0
  8  9  2  0
  9  4  1  0
 10 11  2  0
 13 12  1  6
 14 13  1  0
 15 13  1  0
 15 16  1  1
 16 10  1  0
 17 22  1  0
 17 15  1  0
 18 17  2  0
 20 19  1  0
 21 20  1  6
 21 22  1  0
 23 24  1  0
 23 21  1  0
 25 23  2  0
M  END
$$$$
