FVS.pdb
     RDKit          3D

 25 25  0  0  1  0  0  0  0  0999 V2000
    5.9076  -17.9546   25.5968 N   0  0  0  0  0  0  0  0  0  0  0  0
    6.2602  -16.5701   25.3908 C   0  0  1  0  0  0  0  0  0  0  0  0
    6.8917  -16.0802   26.6810 C   0  0  0  0  0  0  0  0  0  0  0  0
    6.9293  -14.6222   26.7764 C   0  0  0  0  0  0  0  0  0  0  0  0
    5.7697  -13.8810   26.7813 C   0  0  0  0  0  0  0  0  0  0  0  0
    5.8498  -12.5080   26.8708 C   0  0  0  0  0  0  0  0  0  0  0  0
    7.0741  -11.8663   26.9555 C   0  0  0  0  0  0  0  0  0  0  0  0
    8.2388  -12.5962   26.9514 C   0  0  0  0  0  0  0  0  0  0  0  0
    8.1472  -13.9858   26.8604 C   0  0  0  0  0  0  0  0  0  0  0  0
    7.2662  -16.4820   24.3028 C   0  0  0  0  0  0  0  0  0  0  0  0
    8.1155  -17.4045   24.1133 O   0  0  0  0  0  0  0  0  0  0  0  0
    9.1523  -14.1496   20.3564 C   0  0  0  0  0  0  0  0  0  0  0  0
    8.1396  -14.0895   21.4782 C   0  0  1  0  0  0  0  0  0  0  0  0
    6.7693  -14.1459   20.8641 C   0  0  0  0  0  0  0  0  0  0  0  0
    8.3347  -15.3291   22.3359 C   0  0  2  0  0  0  0  0  0  0  0  0
    7.3485  -15.3736   23.4081 N   0  0  0  0  0  0  0  0  0  0  0  0
    9.7068  -15.4429   22.8389 C   0  0  0  0  0  0  0  0  0  0  0  0
   10.1278  -14.5988   23.6639 O   0  0  0  0  0  0  0  0  0  0  0  0
   11.7439  -18.8867   22.7275 O   0  0  0  0  0  0  0  0  0  0  0  0
   12.2325  -17.9101   23.5761 C   0  0  0  0  0  0  0  0  0  0  0  0
   11.9790  -16.5562   22.9160 C   0  0  2  0  0  0  0  0  0  0  0  0
   10.6202  -16.4729   22.4466 N   0  0  0  0  0  0  0  0  0  0  0  0
   12.9851  -16.2688   21.8989 C   0  0  0  0  0  0  0  0  0  0  0  0
   14.3110  -16.1194   22.2579 O   0  0  0  0  0  0  0  0  0  0  0  0
   12.6734  -16.1529   20.6930 O   0  0  0  0  0  0  0  0  0  0  0  0
  2 10  1  0
  2  1  1  1
  3  2  1  0
  4  3  1  0
  5  4  2  0
  6  5  1  0
  7  8  1  0
  7  6  2  0
  8  9  2  0
  9  4  1  0
 10 11  2  0
 13 12  1  6
 14 13  1  0
 15 13  1  0
 15 16  1  1
 16 10  1  0
 17 22  1  0
 17 15  1  0
 18 17  2  0
 20 19  1  0
 21 20  1  6
 21 22  1  0
 23 24  1  0
 23 21  1  0
 25 23  2  0
M  END
$$$$
