FVS.pdb
     RDKit          3D

 25 25  0  0  1  0  0  0  0  0999 V2000
    5.3021  -17.4519   25.2651 N   0  0  0  0  0  0  0  0  0  0  0  0
    5.8952  -16.2022   24.8529 C   0  0  1  0  0  0  0  0  0  0  0  0
    6.9532  -15.8558   25.8845 C   0  0  0  0  0  0  0  0  0  0  0  0
    6.9556  -14.4384   26.2408 C   0  0  0  0  0  0  0  0  0  0  0  0
    5.7883  -13.7863   26.5670 C   0  0  0  0  0  0  0  0  0  0  0  0
    5.8346  -12.4486   26.8951 C   0  0  0  0  0  0  0  0  0  0  0  0
    7.0326  -11.7540   26.9014 C   0  0  0  0  0  0  0  0  0  0  0  0
    8.2048  -12.3946   26.5773 C   0  0  0  0  0  0  0  0  0  0  0  0
    8.1474  -13.7493   26.2465 C   0  0  0  0  0  0  0  0  0  0  0  0
    6.5547  -16.3888   23.5362 C   0  0  0  0  0  0  0  0  0  0  0  0
    5.8909  -16.7161   22.5064 O   0  0  0  0  0  0  0  0  0  0  0  0
    8.4861  -13.5022   20.8075 C   0  0  0  0  0  0  0  0  0  0  0  0
    7.7901  -14.2030   21.9530 C   0  0  1  0  0  0  0  0  0  0  0  0
    6.3696  -14.4633   21.5378 C   0  0  0  0  0  0  0  0  0  0  0  0
    8.4843  -15.5393   22.1598 C   0  0  2  0  0  0  0  0  0  0  0  0
    7.9571  -16.2164   23.3378 N   0  0  0  0  0  0  0  0  0  0  0  0
    9.9431  -15.4032   22.2042 C   0  0  0  0  0  0  0  0  0  0  0  0
   10.4760  -14.3730   21.7299 O   0  0  0  0  0  0  0  0  0  0  0  0
   11.7674  -17.9695   24.6051 O   0  0  0  0  0  0  0  0  0  0  0  0
   12.3643  -16.7221   24.6207 C   0  0  0  0  0  0  0  0  0  0  0  0
   12.1451  -16.0885   23.2483 C   0  0  2  0  0  0  0  0  0  0  0  0
   10.8218  -16.3849   22.7639 N   0  0  0  0  0  0  0  0  0  0  0  0
   13.2173  -16.4456   22.3253 C   0  0  0  0  0  0  0  0  0  0  0  0
   12.9234  -17.0796   21.1331 O   0  0  0  0  0  0  0  0  0  0  0  0
   14.4127  -16.1886   22.5892 O   0  0  0  0  0  0  0  0  0  0  0  0
  2 10  1  0
  2  1  1  1
  3  2  1  0
  4  3  1  0
  5  4  2  0
  6  5  1  0
  7  8  1  0
  7  6  2  0
  8  9  2  0
  9  4  1  0
 10 11  2  0
 13 12  1  6
 14 13  1  0
 15 13  1  0
 15 16  1  1
 16 10  1  0
 17 22  1  0
 17 15  1  0
 18 17  2  0
 20 19  1  0
 21 20  1  1
 21 22  1  0
 23 24  1  0
 23 21  1  0
 25 23  2  0
M  END
$$$$
