WVL.pdb
     RDKit          3D

 30 31  0  0  1  0  0  0  0  0999 V2000
   21.0803  -11.0958  -19.9019 N   0  0  0  0  0  0  0  0  0  0  0  0
   20.2307  -10.7049  -18.8077 C   0  0  1  0  0  0  0  0  0  0  0  0
   20.5109  -11.5617  -17.6184 C   0  0  0  0  0  0  0  0  0  0  0  0
   20.1856  -12.9640  -17.8535 C   0  0  0  0  0  0  0  0  0  0  0  0
   21.0565  -14.0525  -17.7784 C   0  0  0  0  0  0  0  0  0  0  0  0
   20.4024  -15.1924  -18.0151 N   0  0  0  0  0  0  0  0  0  0  0  0
   19.1035  -14.8612  -18.2469 C   0  0  0  0  0  0  0  0  0  0  0  0
   17.9917  -15.6360  -18.5509 C   0  0  0  0  0  0  0  0  0  0  0  0
   16.7490  -15.0739  -18.7602 C   0  0  0  0  0  0  0  0  0  0  0  0
   16.5964  -13.7071  -18.6675 C   0  0  0  0  0  0  0  0  0  0  0  0
   17.6842  -12.9300  -18.3680 C   0  0  0  0  0  0  0  0  0  0  0  0
   18.9355  -13.4948  -18.1557 C   0  0  0  0  0  0  0  0  0  0  0  0
   20.4555   -9.2629  -18.5428 C   0  0  0  0  0  0  0  0  0  0  0  0
   21.5339   -8.7351  -18.8995 O   0  0  0  0  0  0  0  0  0  0  0  0
   18.9187   -4.6838  -17.6831 C   0  0  0  0  0  0  0  0  0  0  0  0
   18.6923   -6.1035  -18.0854 C   0  0  1  0  0  0  0  0  0  0  0  0
   18.7086   -6.1700  -19.6006 C   0  0  0  0  0  0  0  0  0  0  0  0
   19.7370   -7.0462  -17.5829 C   0  0  2  0  0  0  0  0  0  0  0  0
   19.5188   -8.4194  -17.9008 N   0  0  0  0  0  0  0  0  0  0  0  0
   19.7973   -6.9142  -16.0794 C   0  0  0  0  0  0  0  0  0  0  0  0
   18.8555   -7.3707  -15.3853 O   0  0  0  0  0  0  0  0  0  0  0  0
   21.5214   -7.8678  -11.4981 C   0  0  0  0  0  0  0  0  0  0  0  0
   21.6851   -8.7655  -12.7046 C   0  0  2  0  0  0  0  0  0  0  0  0
   22.8674   -9.6852  -12.6304 C   0  0  0  0  0  0  0  0  0  0  0  0
   21.4261   -8.1180  -14.0047 C   0  0  0  0  0  0  0  0  0  0  0  0
   21.3890   -6.6593  -14.1216 C   0  0  2  0  0  0  0  0  0  0  0  0
   20.9051   -6.2821  -15.4572 N   0  0  0  0  0  0  0  0  0  0  0  0
   22.5145   -5.8584  -13.6603 C   0  0  0  0  0  0  0  0  0  0  0  0
   22.7186   -5.4226  -12.3638 O   0  0  0  0  0  0  0  0  0  0  0  0
   23.4067   -5.5011  -14.4674 O   0  0  0  0  0  0  0  0  0  0  0  0
  2  1  1  6
  2  3  1  0
  2 13  1  0
  3  4  1  0
  4  5  2  0
  4 12  1  0
  5  6  1  0
  6  7  1  0
  7  8  2  0
  8  9  1  0
 10  9  2  0
 11 10  1  0
 12 11  2  0
 12  7  1  0
 13 19  1  0
 14 13  2  0
 16 15  1  6
 16 17  1  0
 18 16  1  0
 18 19  1  1
 20 27  1  0
 20 18  1  0
 21 20  2  0
 23 22  1  1
 23 24  1  0
 25 23  1  0
 26 25  1  6
 26 27  1  0
 28 26  1  0
 28 29  1  0
 30 28  2  0
M  END
$$$$
