WVL.pdb
     RDKit          3D

 30 31  0  0  1  0  0  0  0  0999 V2000
   26.4868  -19.7388  -11.9767 N   0  0  0  0  0  0  0  0  0  0  0  0
   26.2411  -21.1552  -11.9050 C   0  0  1  0  0  0  0  0  0  0  0  0
   25.7084  -21.5086  -10.5564 C   0  0  0  0  0  0  0  0  0  0  0  0
   26.5453  -20.9988   -9.4762 C   0  0  0  0  0  0  0  0  0  0  0  0
   26.1251  -20.2798   -8.3556 C   0  0  0  0  0  0  0  0  0  0  0  0
   27.1604  -20.0131   -7.5555 N   0  0  0  0  0  0  0  0  0  0  0  0
   28.2625  -20.5521   -8.1432 C   0  0  0  0  0  0  0  0  0  0  0  0
   29.5980  -20.5707   -7.7624 C   0  0  0  0  0  0  0  0  0  0  0  0
   30.5659  -21.1793   -8.5349 C   0  0  0  0  0  0  0  0  0  0  0  0
   30.2080  -21.7879   -9.7187 C   0  0  0  0  0  0  0  0  0  0  0  0
   28.8943  -21.7778  -10.1071 C   0  0  0  0  0  0  0  0  0  0  0  0
   27.9187  -21.1667   -9.3296 C   0  0  0  0  0  0  0  0  0  0  0  0
   25.3117  -21.5174  -13.0028 C   0  0  0  0  0  0  0  0  0  0  0  0
   24.5212  -20.6533  -13.4466 O   0  0  0  0  0  0  0  0  0  0  0  0
   23.9181  -24.6015  -16.6525 C   0  0  0  0  0  0  0  0  0  0  0  0
   24.8047  -24.3258  -15.4835 C   0  0  1  0  0  0  0  0  0  0  0  0
   26.1879  -23.9962  -16.0112 C   0  0  0  0  0  0  0  0  0  0  0  0
   24.3566  -23.1723  -14.6461 C   0  0  2  0  0  0  0  0  0  0  0  0
   25.2511  -22.7984  -13.5999 N   0  0  0  0  0  0  0  0  0  0  0  0
   23.0297  -23.5379  -14.0237 C   0  0  0  0  0  0  0  0  0  0  0  0
   23.0140  -24.1312  -12.9170 O   0  0  0  0  0  0  0  0  0  0  0  0
   18.6239  -21.2531  -12.4955 C   0  0  0  0  0  0  0  0  0  0  0  0
   20.0638  -20.8288  -12.3080 C   0  0  2  0  0  0  0  0  0  0  0  0
   20.2490  -19.3539  -12.1090 C   0  0  0  0  0  0  0  0  0  0  0  0
   21.0347  -21.5088  -13.1863 C   0  0  0  0  0  0  0  0  0  0  0  0
   20.6433  -22.6814  -13.9705 C   0  0  2  0  0  0  0  0  0  0  0  0
   21.8142  -23.2148  -14.6810 N   0  0  0  0  0  0  0  0  0  0  0  0
   19.4328  -22.6511  -14.7797 C   0  0  0  0  0  0  0  0  0  0  0  0
   18.2076  -23.1830  -14.4212 O   0  0  0  0  0  0  0  0  0  0  0  0
   19.4449  -22.1097  -15.9119 O   0  0  0  0  0  0  0  0  0  0  0  0
  2  1  1  1
  2  3  1  0
  2 13  1  0
  3  4  1  0
  4  5  2  0
  4 12  1  0
  5  6  1  0
  6  7  1  0
  7  8  2  0
  8  9  1  0
 10  9  2  0
 11 10  1  0
 12 11  2  0
 12  7  1  0
 13 19  1  0
 14 13  2  0
 16 15  1  6
 16 17  1  0
 18 16  1  0
 18 19  1  1
 20 27  1  0
 20 18  1  0
 21 20  2  0
 23 22  1  6
 23 24  1  0
 25 23  1  0
 26 25  1  6
 26 27  1  0
 28 26  1  0
 28 29  1  0
 30 28  2  0
M  END
$$$$
