WVL.pdb
     RDKit          3D

 30 31  0  0  1  0  0  0  0  0999 V2000
   24.0606  -22.0483  -13.9420 N   0  0  0  0  0  0  0  0  0  0  0  0
   24.2497  -21.0552  -12.9174 C   0  0  1  0  0  0  0  0  0  0  0  0
   22.9569  -20.7979  -12.2176 C   0  0  0  0  0  0  0  0  0  0  0  0
   21.9299  -20.2839  -13.1167 C   0  0  0  0  0  0  0  0  0  0  0  0
   20.6259  -20.7610  -13.2629 C   0  0  0  0  0  0  0  0  0  0  0  0
   19.9533  -20.0209  -14.1477 N   0  0  0  0  0  0  0  0  0  0  0  0
   20.8076  -19.0578  -14.5871 C   0  0  0  0  0  0  0  0  0  0  0  0
   20.6482  -18.0304  -15.5080 C   0  0  0  0  0  0  0  0  0  0  0  0
   21.6756  -17.1610  -15.8123 C   0  0  0  0  0  0  0  0  0  0  0  0
   22.8974  -17.3078  -15.1912 C   0  0  0  0  0  0  0  0  0  0  0  0
   23.0693  -18.3166  -14.2803 C   0  0  0  0  0  0  0  0  0  0  0  0
   22.0353  -19.1916  -13.9720 C   0  0  0  0  0  0  0  0  0  0  0  0
   25.3131  -21.5354  -12.0016 C   0  0  0  0  0  0  0  0  0  0  0  0
   25.4663  -22.7668  -11.8327 O   0  0  0  0  0  0  0  0  0  0  0  0
   28.6186  -22.1438  -12.3133 C   0  0  0  0  0  0  0  0  0  0  0  0
   28.5954  -21.2014  -11.1558 C   0  0  1  0  0  0  0  0  0  0  0  0
   28.9238  -19.8141  -11.6737 C   0  0  0  0  0  0  0  0  0  0  0  0
   27.2708  -21.1228  -10.4690 C   0  0  2  0  0  0  0  0  0  0  0  0
   26.1881  -20.6838  -11.2873 N   0  0  0  0  0  0  0  0  0  0  0  0
   27.4046  -20.1637   -9.3098 C   0  0  0  0  0  0  0  0  0  0  0  0
   26.4672  -19.3654   -9.0628 O   0  0  0  0  0  0  0  0  0  0  0  0
   26.5912  -19.1646   -4.8955 C   0  0  0  0  0  0  0  0  0  0  0  0
   26.3299  -20.3411   -5.8097 C   0  0  2  0  0  0  0  0  0  0  0  0
   25.3420  -21.3317   -5.2693 C   0  0  0  0  0  0  0  0  0  0  0  0
   27.5249  -20.8902   -6.4784 C   0  0  0  0  0  0  0  0  0  0  0  0
   28.5398  -20.0022   -7.0478 C   0  0  2  0  0  0  0  0  0  0  0  0
   28.5757  -20.1640   -8.5083 N   0  0  0  0  0  0  0  0  0  0  0  0
   29.8590  -19.9106   -6.4376 C   0  0  0  0  0  0  0  0  0  0  0  0
   30.2472  -18.9840   -5.4873 O   0  0  0  0  0  0  0  0  0  0  0  0
   30.7632  -20.7163   -6.7672 O   0  0  0  0  0  0  0  0  0  0  0  0
  2  1  1  6
  2  3  1  0
  2 13  1  0
  3  4  1  0
  4  5  2  0
  4 12  1  0
  5  6  1  0
  6  7  1  0
  7  8  2  0
  8  9  1  0
 10  9  2  0
 11 10  1  0
 12 11  2  0
 12  7  1  0
 13 19  1  0
 14 13  2  0
 16 15  1  6
 16 17  1  0
 18 16  1  0
 18 19  1  6
 20 27  1  0
 20 18  1  0
 21 20  2  0
 23 22  1  1
 23 24  1  0
 25 23  1  0
 26 25  1  1
 26 27  1  0
 28 26  1  0
 28 29  1  0
 30 28  2  0
M  END
$$$$
