WVL.pdb
     RDKit          3D

 30 31  0  0  1  0  0  0  0  0999 V2000
   28.2081  -20.4080  -15.3246 N   0  0  0  0  0  0  0  0  0  0  0  0
   28.6035  -20.7902  -13.9944 C   0  0  1  0  0  0  0  0  0  0  0  0
   30.0400  -20.4494  -13.7761 C   0  0  0  0  0  0  0  0  0  0  0  0
   30.7960  -21.5610  -13.2103 C   0  0  0  0  0  0  0  0  0  0  0  0
   31.3714  -22.6261  -13.9058 C   0  0  0  0  0  0  0  0  0  0  0  0
   32.0233  -23.4352  -13.0670 N   0  0  0  0  0  0  0  0  0  0  0  0
   31.8802  -22.9094  -11.8205 C   0  0  0  0  0  0  0  0  0  0  0  0
   32.3376  -23.3339  -10.5798 C   0  0  0  0  0  0  0  0  0  0  0  0
   32.0573  -22.6350   -9.4235 C   0  0  0  0  0  0  0  0  0  0  0  0
   31.3033  -21.4831   -9.4909 C   0  0  0  0  0  0  0  0  0  0  0  0
   30.8455  -21.0519  -10.7081 C   0  0  0  0  0  0  0  0  0  0  0  0
   31.1282  -21.7539  -11.8730 C   0  0  0  0  0  0  0  0  0  0  0  0
   27.6998  -20.1127  -13.0330 C   0  0  0  0  0  0  0  0  0  0  0  0
   27.4925  -18.8831  -13.1489 O   0  0  0  0  0  0  0  0  0  0  0  0
   24.2466  -19.9134  -12.6590 C   0  0  0  0  0  0  0  0  0  0  0  0
   24.6949  -20.3751  -11.3120 C   0  0  1  0  0  0  0  0  0  0  0  0
   24.4476  -21.8688  -11.2217 C   0  0  0  0  0  0  0  0  0  0  0  0
   26.1472  -20.1433  -11.0480 C   0  0  2  0  0  0  0  0  0  0  0  0
   27.0388  -20.7695  -11.9686 N   0  0  0  0  0  0  0  0  0  0  0  0
   26.4567  -20.6635   -9.6641 C   0  0  0  0  0  0  0  0  0  0  0  0
   26.6326  -21.8957   -9.4971 O   0  0  0  0  0  0  0  0  0  0  0  0
   28.0483  -18.2071   -4.2309 C   0  0  0  0  0  0  0  0  0  0  0  0
   27.9538  -19.4733   -5.0532 C   0  0  2  0  0  0  0  0  0  0  0  0
   29.0204  -20.4834   -4.7511 C   0  0  0  0  0  0  0  0  0  0  0  0
   27.6120  -19.2712   -6.4741 C   0  0  0  0  0  0  0  0  0  0  0  0
   26.7626  -20.2288   -7.1844 C   0  0  2  0  0  0  0  0  0  0  0  0
   26.5480  -19.7710   -8.5646 N   0  0  0  0  0  0  0  0  0  0  0  0
   25.5619  -20.7546   -6.5499 C   0  0  0  0  0  0  0  0  0  0  0  0
   25.5249  -21.7473   -5.5879 O   0  0  0  0  0  0  0  0  0  0  0  0
   24.4334  -20.3061   -6.8672 O   0  0  0  0  0  0  0  0  0  0  0  0
  2  1  1  6
  2  3  1  0
  2 13  1  0
  3  4  1  0
  4  5  2  0
  4 12  1  0
  5  6  1  0
  6  7  1  0
  7  8  2  0
  8  9  1  0
 10  9  2  0
 11 10  1  0
 12 11  2  0
 12  7  1  0
 13 19  1  0
 14 13  2  0
 16 15  1  6
 16 17  1  0
 18 16  1  0
 18 19  1  6
 20 27  1  0
 20 18  1  0
 21 20  2  0
 23 22  1  6
 23 24  1  0
 25 23  1  0
 26 25  1  1
 26 27  1  0
 28 26  1  0
 28 29  1  0
 30 28  2  0
M  END
$$$$
