WVL.pdb
     RDKit          3D

 30 31  0  0  1  0  0  0  0  0999 V2000
   29.0296  -21.0774  -10.8322 N   0  0  0  0  0  0  0  0  0  0  0  0
   27.6759  -21.0959  -10.3434 C   0  0  1  0  0  0  0  0  0  0  0  0
   27.5683  -20.2486   -9.1196 C   0  0  0  0  0  0  0  0  0  0  0  0
   28.5139  -20.6458   -8.0826 C   0  0  0  0  0  0  0  0  0  0  0  0
   29.6289  -21.4722   -8.2342 C   0  0  0  0  0  0  0  0  0  0  0  0
   30.2891  -21.5839   -7.0789 N   0  0  0  0  0  0  0  0  0  0  0  0
   29.6145  -20.8356   -6.1649 C   0  0  0  0  0  0  0  0  0  0  0  0
   29.8424  -20.5968   -4.8158 C   0  0  0  0  0  0  0  0  0  0  0  0
   29.0040  -19.7963   -4.0674 C   0  0  0  0  0  0  0  0  0  0  0  0
   27.9075  -19.2132   -4.6654 C   0  0  0  0  0  0  0  0  0  0  0  0
   27.6701  -19.4394   -5.9956 C   0  0  0  0  0  0  0  0  0  0  0  0
   28.5143  -20.2440   -6.7505 C   0  0  0  0  0  0  0  0  0  0  0  0
   26.7849  -20.6399  -11.4381 C   0  0  0  0  0  0  0  0  0  0  0  0
   27.1081  -19.6357  -12.1131 O   0  0  0  0  0  0  0  0  0  0  0  0
   24.5585  -20.5124  -15.3530 C   0  0  0  0  0  0  0  0  0  0  0  0
   25.3711  -21.0750  -14.2341 C   0  0  1  0  0  0  0  0  0  0  0  0
   26.7018  -20.3476  -14.2088 C   0  0  0  0  0  0  0  0  0  0  0  0
   24.7419  -20.9080  -12.8892 C   0  0  2  0  0  0  0  0  0  0  0  0
   25.5671  -21.2711  -11.7840 N   0  0  0  0  0  0  0  0  0  0  0  0
   23.4972  -21.7628  -12.8492 C   0  0  0  0  0  0  0  0  0  0  0  0
   23.5363  -22.8764  -12.2701 O   0  0  0  0  0  0  0  0  0  0  0  0
   19.7984  -21.3956   -9.7839 C   0  0  0  0  0  0  0  0  0  0  0  0
   20.3073  -20.1384  -10.4537 C   0  0  2  0  0  0  0  0  0  0  0  0
   19.2373  -19.1391  -10.7788 C   0  0  0  0  0  0  0  0  0  0  0  0
   21.3499  -20.3531  -11.4753 C   0  0  0  0  0  0  0  0  0  0  0  0
   21.0553  -21.0942  -12.7029 C   0  0  2  0  0  0  0  0  0  0  0  0
   22.2969  -21.3135  -13.4584 N   0  0  0  0  0  0  0  0  0  0  0  0
   19.9241  -20.7113  -13.5364 C   0  0  0  0  0  0  0  0  0  0  0  0
   18.6786  -21.3123  -13.5341 O   0  0  0  0  0  0  0  0  0  0  0  0
   20.0329  -19.7607  -14.3486 O   0  0  0  0  0  0  0  0  0  0  0  0
  2  1  1  6
  2  3  1  0
  2 13  1  0
  3  4  1  0
  4  5  2  0
  4 12  1  0
  5  6  1  0
  6  7  1  0
  7  8  2  0
  8  9  1  0
 10  9  2  0
 11 10  1  0
 12 11  2  0
 12  7  1  0
 13 19  1  0
 14 13  2  0
 16 15  1  6
 16 17  1  0
 18 16  1  0
 18 19  1  1
 20 27  1  0
 20 18  1  0
 21 20  2  0
 23 22  1  6
 23 24  1  0
 25 23  1  0
 26 25  1  1
 26 27  1  0
 28 26  1  0
 28 29  1  0
 30 28  2  0
M  END
$$$$
