WVL.pdb
     RDKit          3D

 30 31  0  0  1  0  0  0  0  0999 V2000
   26.6988  -20.2553  -10.3567 N   0  0  0  0  0  0  0  0  0  0  0  0
   25.6245  -20.7627   -9.5441 C   0  0  1  0  0  0  0  0  0  0  0  0
   25.5636  -20.0086   -8.2577 C   0  0  0  0  0  0  0  0  0  0  0  0
   26.8843  -19.7837   -7.6812 C   0  0  0  0  0  0  0  0  0  0  0  0
   27.9579  -19.1173   -8.2750 C   0  0  0  0  0  0  0  0  0  0  0  0
   28.9972  -19.0655   -7.4381 N   0  0  0  0  0  0  0  0  0  0  0  0
   28.6149  -19.6955   -6.2946 C   0  0  0  0  0  0  0  0  0  0  0  0
   29.2888  -19.9436   -5.1059 C   0  0  0  0  0  0  0  0  0  0  0  0
   28.6959  -20.6246   -4.0624 C   0  0  0  0  0  0  0  0  0  0  0  0
   27.3999  -21.0754   -4.1936 C   0  0  0  0  0  0  0  0  0  0  0  0
   26.7225  -20.8377   -5.3605 C   0  0  0  0  0  0  0  0  0  0  0  0
   27.3179  -20.1511   -6.4111 C   0  0  0  0  0  0  0  0  0  0  0  0
   24.3689  -20.6647  -10.3276 C   0  0  0  0  0  0  0  0  0  0  0  0
   23.7889  -19.5585  -10.4199 O   0  0  0  0  0  0  0  0  0  0  0  0
   21.5086  -21.7182  -14.0405 C   0  0  0  0  0  0  0  0  0  0  0  0
   22.7703  -21.8279  -13.2500 C   0  0  1  0  0  0  0  0  0  0  0  0
   23.7036  -20.7203  -13.7002 C   0  0  0  0  0  0  0  0  0  0  0  0
   22.5732  -21.6783  -11.7765 C   0  0  2  0  0  0  0  0  0  0  0  0
   23.7633  -21.7555  -10.9942 N   0  0  0  0  0  0  0  0  0  0  0  0
   21.6368  -22.7720  -11.3196 C   0  0  0  0  0  0  0  0  0  0  0  0
   22.0166  -23.9677  -11.3757 O   0  0  0  0  0  0  0  0  0  0  0  0
   17.0009  -23.6656   -7.5122 C   0  0  0  0  0  0  0  0  0  0  0  0
   18.0264  -24.2730   -8.4437 C   0  0  2  0  0  0  0  0  0  0  0  0
   18.6388  -25.5452   -7.9379 C   0  0  0  0  0  0  0  0  0  0  0  0
   18.9364  -23.3061   -9.0868 C   0  0  0  0  0  0  0  0  0  0  0  0
   19.3505  -23.4788  -10.4803 C   0  0  2  0  0  0  0  0  0  0  0  0
   20.3428  -22.4531  -10.8322 N   0  0  0  0  0  0  0  0  0  0  0  0
   18.3546  -23.7084  -11.5176 C   0  0  0  0  0  0  0  0  0  0  0  0
   18.0284  -24.9347  -12.0675 O   0  0  0  0  0  0  0  0  0  0  0  0
   17.7064  -22.7448  -11.9935 O   0  0  0  0  0  0  0  0  0  0  0  0
  2  1  1  6
  2  3  1  0
  2 13  1  0
  3  4  1  0
  4  5  2  0
  4 12  1  0
  5  6  1  0
  6  7  1  0
  7  8  2  0
  8  9  1  0
 10  9  2  0
 11 10  1  0
 12 11  2  0
 12  7  1  0
 13 19  1  0
 14 13  2  0
 16 15  1  6
 16 17  1  0
 18 16  1  0
 18 19  1  1
 20 27  1  0
 20 18  1  0
 21 20  2  0
 23 22  1  1
 23 24  1  0
 25 23  1  0
 26 25  1  1
 26 27  1  0
 28 26  1  0
 28 29  1  0
 30 28  2  0
M  END
$$$$
