WVL.pdb
     RDKit          3D

 30 31  0  0  1  0  0  0  0  0999 V2000
   28.4989  -21.9949  -10.9746 N   0  0  0  0  0  0  0  0  0  0  0  0
   27.2553  -21.4411  -10.5070 C   0  0  1  0  0  0  0  0  0  0  0  0
   27.5184  -20.2037   -9.7153 C   0  0  0  0  0  0  0  0  0  0  0  0
   28.3865  -20.4501   -8.5694 C   0  0  0  0  0  0  0  0  0  0  0  0
   29.6868  -20.9578   -8.5942 C   0  0  0  0  0  0  0  0  0  0  0  0
   30.1922  -21.0103   -7.3594 N   0  0  0  0  0  0  0  0  0  0  0  0
   29.2311  -20.5404   -6.5192 C   0  0  0  0  0  0  0  0  0  0  0  0
   29.2066  -20.3799   -5.1399 C   0  0  0  0  0  0  0  0  0  0  0  0
   28.0974  -19.8846   -4.4852 C   0  0  0  0  0  0  0  0  0  0  0  0
   26.9781  -19.5371   -5.2108 C   0  0  0  0  0  0  0  0  0  0  0  0
   26.9879  -19.6897   -6.5723 C   0  0  0  0  0  0  0  0  0  0  0  0
   28.1044  -20.1869   -7.2326 C   0  0  0  0  0  0  0  0  0  0  0  0
   26.3887  -21.1957  -11.6856 C   0  0  0  0  0  0  0  0  0  0  0  0
   26.8766  -20.6507  -12.7021 O   0  0  0  0  0  0  0  0  0  0  0  0
   22.7534  -22.7601  -14.5306 C   0  0  0  0  0  0  0  0  0  0  0  0
   23.6127  -22.8277  -13.3117 C   0  0  1  0  0  0  0  0  0  0  0  0
   24.7485  -23.7932  -13.5914 C   0  0  0  0  0  0  0  0  0  0  0  0
   24.2206  -21.5174  -12.9295 C   0  0  2  0  0  0  0  0  0  0  0  0
   25.0181  -21.5403  -11.7472 N   0  0  0  0  0  0  0  0  0  0  0  0
   23.0986  -20.5275  -12.7224 C   0  0  0  0  0  0  0  0  0  0  0  0
   22.4678  -20.5338  -11.6365 O   0  0  0  0  0  0  0  0  0  0  0  0
   19.4674  -16.7232  -14.3652 C   0  0  0  0  0  0  0  0  0  0  0  0
   20.9307  -16.3693  -14.5130 C   0  0  2  0  0  0  0  0  0  0  0  0
   21.2021  -15.2799  -15.5074 C   0  0  0  0  0  0  0  0  0  0  0  0
   21.8541  -17.5199  -14.5178 C   0  0  0  0  0  0  0  0  0  0  0  0
   21.6415  -18.6556  -13.6190 C   0  0  2  0  0  0  0  0  0  0  0  0
   22.7607  -19.6004  -13.7422 N   0  0  0  0  0  0  0  0  0  0  0  0
   20.3376  -19.3005  -13.5489 C   0  0  0  0  0  0  0  0  0  0  0  0
   19.4303  -19.1782  -12.5124 O   0  0  0  0  0  0  0  0  0  0  0  0
   19.9522  -20.0461  -14.4821 O   0  0  0  0  0  0  0  0  0  0  0  0
  2  1  1  6
  2  3  1  0
  2 13  1  0
  3  4  1  0
  4  5  2  0
  4 12  1  0
  5  6  1  0
  6  7  1  0
  7  8  2  0
  8  9  1  0
 10  9  2  0
 11 10  1  0
 12 11  2  0
 12  7  1  0
 13 19  1  0
 14 13  2  0
 16 15  1  6
 16 17  1  0
 18 16  1  0
 18 19  1  1
 20 27  1  0
 20 18  1  0
 21 20  2  0
 23 22  1  6
 23 24  1  0
 25 23  1  0
 26 25  1  6
 26 27  1  0
 28 26  1  0
 28 29  1  0
 30 28  2  0
M  END
$$$$
