WVL.pdb
     RDKit          3D

 30 31  0  0  1  0  0  0  0  0999 V2000
   27.9578  -21.3386  -10.5676 N   0  0  0  0  0  0  0  0  0  0  0  0
   26.8371  -20.7243   -9.9055 C   0  0  1  0  0  0  0  0  0  0  0  0
   27.3207  -19.6755   -8.9602 C   0  0  0  0  0  0  0  0  0  0  0  0
   28.3205  -20.1845   -8.0282 C   0  0  0  0  0  0  0  0  0  0  0  0
   29.4328  -20.9703   -8.3356 C   0  0  0  0  0  0  0  0  0  0  0  0
   30.1512  -21.2146   -7.2368 N   0  0  0  0  0  0  0  0  0  0  0  0
   29.5177  -20.5944   -6.2051 C   0  0  0  0  0  0  0  0  0  0  0  0
   29.8114  -20.5211   -4.8496 C   0  0  0  0  0  0  0  0  0  0  0  0
   29.0055  -19.8309   -3.9674 C   0  0  0  0  0  0  0  0  0  0  0  0
   27.8758  -19.1938   -4.4340 C   0  0  0  0  0  0  0  0  0  0  0  0
   27.5735  -19.2572   -5.7688 C   0  0  0  0  0  0  0  0  0  0  0  0
   28.3848  -19.9505   -6.6581 C   0  0  0  0  0  0  0  0  0  0  0  0
   25.9272  -20.1849  -10.9454 C   0  0  0  0  0  0  0  0  0  0  0  0
   26.2585  -19.1541  -11.5747 O   0  0  0  0  0  0  0  0  0  0  0  0
   24.0224  -20.8363  -15.0177 C   0  0  0  0  0  0  0  0  0  0  0  0
   24.7270  -21.1020  -13.7287 C   0  0  1  0  0  0  0  0  0  0  0  0
   26.0794  -20.4175  -13.7836 C   0  0  0  0  0  0  0  0  0  0  0  0
   24.0066  -20.5781  -12.5291 C   0  0  2  0  0  0  0  0  0  0  0  0
   24.6822  -20.7634  -11.2866 N   0  0  0  0  0  0  0  0  0  0  0  0
   22.6700  -21.2771  -12.4478 C   0  0  0  0  0  0  0  0  0  0  0  0
   22.6231  -22.5265  -12.5659 O   0  0  0  0  0  0  0  0  0  0  0  0
   16.8405  -19.6098  -11.3866 C   0  0  0  0  0  0  0  0  0  0  0  0
   17.8614  -20.6919  -11.1124 C   0  0  2  0  0  0  0  0  0  0  0  0
   17.5854  -21.4986   -9.8786 C   0  0  0  0  0  0  0  0  0  0  0  0
   19.2640  -20.3028  -11.3532 C   0  0  0  0  0  0  0  0  0  0  0  0
   20.1561  -21.1603  -12.1355 C   0  0  2  0  0  0  0  0  0  0  0  0
   21.4805  -20.5316  -12.2402 N   0  0  0  0  0  0  0  0  0  0  0  0
   19.6929  -21.7576  -13.3803 C   0  0  0  0  0  0  0  0  0  0  0  0
   19.1401  -23.0180  -13.5152 O   0  0  0  0  0  0  0  0  0  0  0  0
   19.7810  -21.1188  -14.4570 O   0  0  0  0  0  0  0  0  0  0  0  0
  2  1  1  6
  2  3  1  0
  2 13  1  0
  3  4  1  0
  4  5  2  0
  4 12  1  0
  5  6  1  0
  6  7  1  0
  7  8  2  0
  8  9  1  0
 10  9  2  0
 11 10  1  0
 12 11  2  0
 12  7  1  0
 13 19  1  0
 14 13  2  0
 16 15  1  6
 16 17  1  0
 18 16  1  0
 18 19  1  1
 20 27  1  0
 20 18  1  0
 21 20  2  0
 23 22  1  1
 23 24  1  0
 25 23  1  0
 26 25  1  6
 26 27  1  0
 28 26  1  0
 28 29  1  0
 30 28  2  0
M  END
$$$$
