WVL.pdb
     RDKit          3D

 30 31  0  0  1  0  0  0  0  0999 V2000
   23.1874  -18.9028  -17.3833 N   0  0  0  0  0  0  0  0  0  0  0  0
   23.8225  -18.2819  -16.2506 C   0  0  1  0  0  0  0  0  0  0  0  0
   22.7878  -17.6972  -15.3480 C   0  0  0  0  0  0  0  0  0  0  0  0
   22.4627  -16.3180  -15.6937 C   0  0  0  0  0  0  0  0  0  0  0  0
   21.2225  -15.8243  -16.1029 C   0  0  0  0  0  0  0  0  0  0  0  0
   21.2845  -14.5042  -16.2945 N   0  0  0  0  0  0  0  0  0  0  0  0
   22.5603  -14.1242  -16.0146 C   0  0  0  0  0  0  0  0  0  0  0  0
   23.1853  -12.8846  -16.0523 C   0  0  0  0  0  0  0  0  0  0  0  0
   24.5187  -12.7325  -15.7312 C   0  0  0  0  0  0  0  0  0  0  0  0
   25.2594  -13.8348  -15.3621 C   0  0  0  0  0  0  0  0  0  0  0  0
   24.6561  -15.0642  -15.3201 C   0  0  0  0  0  0  0  0  0  0  0  0
   23.3136  -15.2183  -15.6417 C   0  0  0  0  0  0  0  0  0  0  0  0
   24.6620  -19.3025  -15.5769 C   0  0  0  0  0  0  0  0  0  0  0  0
   24.4837  -20.5138  -15.8405 O   0  0  0  0  0  0  0  0  0  0  0  0
   28.7253  -20.6971  -13.1606 C   0  0  0  0  0  0  0  0  0  0  0  0
   27.9324  -19.6889  -13.9245 C   0  0  1  0  0  0  0  0  0  0  0  0
   28.4196  -19.6995  -15.3608 C   0  0  0  0  0  0  0  0  0  0  0  0
   26.4645  -19.9670  -13.9457 C   0  0  2  0  0  0  0  0  0  0  0  0
   25.6738  -19.0008  -14.6355 N   0  0  0  0  0  0  0  0  0  0  0  0
   25.9839  -20.0352  -12.5153 C   0  0  0  0  0  0  0  0  0  0  0  0
   25.8940  -18.9757  -11.8473 O   0  0  0  0  0  0  0  0  0  0  0  0
   26.1070  -19.2290   -7.5822 C   0  0  0  0  0  0  0  0  0  0  0  0
   25.4173  -20.3891   -8.2653 C   0  0  2  0  0  0  0  0  0  0  0  0
   25.1418  -21.5566   -7.3652 C   0  0  0  0  0  0  0  0  0  0  0  0
   25.9081  -20.6964   -9.6223 C   0  0  0  0  0  0  0  0  0  0  0  0
   25.0577  -21.3964  -10.5865 C   0  0  2  0  0  0  0  0  0  0  0  0
   25.6374  -21.2817  -11.9323 N   0  0  0  0  0  0  0  0  0  0  0  0
   23.6129  -21.2162  -10.5555 C   0  0  0  0  0  0  0  0  0  0  0  0
   22.7494  -21.7679   -9.6267 O   0  0  0  0  0  0  0  0  0  0  0  0
   23.0469  -20.5103  -11.4253 O   0  0  0  0  0  0  0  0  0  0  0  0
  2  1  1  6
  2  3  1  0
  2 13  1  0
  3  4  1  0
  4  5  2  0
  4 12  1  0
  5  6  1  0
  6  7  1  0
  7  8  2  0
  8  9  1  0
 10  9  2  0
 11 10  1  0
 12 11  2  0
 12  7  1  0
 13 19  1  0
 14 13  2  0
 16 15  1  1
 16 17  1  0
 18 16  1  0
 18 19  1  6
 20 27  1  0
 20 18  1  0
 21 20  2  0
 23 22  1  1
 23 24  1  0
 25 23  1  0
 26 25  1  1
 26 27  1  0
 28 26  1  0
 28 29  1  0
 30 28  2  0
M  END
$$$$
