QHW.pdb
     RDKit          3D

 34 36  0  0  1  0  0  0  0  0999 V2000
    9.5285  -12.6634   19.7631 N   0  0  0  0  0  0  0  0  0  0  0  0
    8.2079  -12.7838   19.2886 C   0  0  0  0  0  0  0  0  0  0  0  0
    7.8007  -11.9675   18.4270 O   0  0  0  0  0  0  0  0  0  0  0  0
    7.2581  -13.8462   19.7654 C   0  0  0  0  0  0  0  0  0  0  0  0
    7.8792  -14.6522   20.8517 C   0  0  0  0  0  0  0  0  0  0  0  0
    8.4170  -15.9421   20.3278 C   0  0  2  0  0  0  0  0  0  0  0  0
    7.3305  -16.7496   19.7412 N   0  0  0  0  0  0  0  0  0  0  0  0
    9.0193  -16.7294   21.3934 C   0  0  0  0  0  0  0  0  0  0  0  0
    8.3778  -17.6971   21.9403 O   0  0  0  0  0  0  0  0  0  0  0  0
   10.3354  -16.4789   21.8865 N   0  0  0  0  0  0  0  0  0  0  0  0
   10.9117  -17.2273   22.9767 C   0  0  1  0  0  0  0  0  0  0  0  0
   12.3470  -17.6003   22.7297 C   0  0  0  0  0  0  0  0  0  0  0  0
   12.5052  -18.3850   21.4684 C   0  0  0  0  0  0  0  0  0  0  0  0
   12.0878  -19.6846   21.2638 C   0  0  0  0  0  0  0  0  0  0  0  0
   12.3999  -20.0399   20.0251 N   0  0  0  0  0  0  0  0  0  0  0  0
   13.0064  -19.0200   19.4111 C   0  0  0  0  0  0  0  0  0  0  0  0
   13.0654  -18.0138   20.3027 N   0  0  0  0  0  0  0  0  0  0  0  0
   10.7019  -16.5764   24.2813 C   0  0  0  0  0  0  0  0  0  0  0  0
   11.2098  -15.4195   24.4821 O   0  0  0  0  0  0  0  0  0  0  0  0
    9.9768  -17.1215   25.3554 N   0  0  0  0  0  0  0  0  0  0  0  0
    9.9027  -16.5306   26.6600 C   0  0  1  0  0  0  0  0  0  0  0  0
    8.4917  -16.5567   27.2165 C   0  0  0  0  0  0  0  0  0  0  0  0
    7.5556  -15.8528   26.3239 C   0  0  0  0  0  0  0  0  0  0  0  0
    6.6505  -16.3910   25.4214 C   0  0  0  0  0  0  0  0  0  0  0  0
    6.0023  -15.3781   24.8251 N   0  0  0  0  0  0  0  0  0  0  0  0
    6.4208  -14.1998   25.2757 C   0  0  0  0  0  0  0  0  0  0  0  0
    6.0932  -12.8789   25.0022 C   0  0  0  0  0  0  0  0  0  0  0  0
    6.7416  -11.8556   25.6702 C   0  0  0  0  0  0  0  0  0  0  0  0
    7.7080  -12.1714   26.6017 C   0  0  0  0  0  0  0  0  0  0  0  0
    8.0576  -13.4711   26.8975 C   0  0  0  0  0  0  0  0  0  0  0  0
    7.3944  -14.4817   26.2157 C   0  0  0  0  0  0  0  0  0  0  0  0
   10.8561  -17.2326   27.5434 C   0  0  0  0  0  0  0  0  0  0  0  0
   11.4715  -18.2506   27.1549 O   0  0  0  0  0  0  0  0  0  0  0  0
   11.0883  -16.7764   28.8236 O   0  0  0  0  0  0  0  0  0  0  0  0
  2  3  2  0
  2  1  1  0
  4  2  1  0
  5  4  1  0
  6  5  1  0
  6  7  1  1
  8 10  1  0
  8  6  1  0
  9  8  2  0
 11 10  1  0
 11 12  1  6
 12 13  1  0
 13 17  1  0
 14 13  2  0
 14 15  1  0
 15 16  1  0
 17 16  2  0
 18 11  1  0
 19 18  2  0
 20 18  1  0
 21 20  1  0
 22 23  1  0
 21 22  1  1
 23 31  1  0
 24 25  1  0
 24 23  2  0
 25 26  1  0
 26 31  2  0
 26 27  1  0
 27 28  2  0
 28 29  1  0
 30 29  2  0
 31 30  1  0
 32 21  1  0
 32 34  1  0
 33 32  2  0
M  END
$$$$
