QHW.pdb
     RDKit          3D

 34 36  0  0  1  0  0  0  0  0999 V2000
    9.5349  -17.1796   15.4867 N   0  0  0  0  0  0  0  0  0  0  0  0
    9.2255  -18.4948   15.8843 C   0  0  0  0  0  0  0  0  0  0  0  0
    9.3767  -19.4256   15.0563 O   0  0  0  0  0  0  0  0  0  0  0  0
    8.7209  -18.8401   17.2569 C   0  0  0  0  0  0  0  0  0  0  0  0
    8.5559  -17.6092   18.0773 C   0  0  0  0  0  0  0  0  0  0  0  0
    9.6364  -17.4925   19.1003 C   0  0  2  0  0  0  0  0  0  0  0  0
    9.4956  -18.5521   20.1171 N   0  0  0  0  0  0  0  0  0  0  0  0
    9.5675  -16.2131   19.7906 C   0  0  0  0  0  0  0  0  0  0  0  0
    9.3596  -15.1253   19.1421 O   0  0  0  0  0  0  0  0  0  0  0  0
    9.7236  -16.0915   21.2044 N   0  0  0  0  0  0  0  0  0  0  0  0
    9.5766  -14.8346   21.8966 C   0  0  1  0  0  0  0  0  0  0  0  0
    8.2898  -14.1336   21.5602 C   0  0  0  0  0  0  0  0  0  0  0  0
    8.1853  -13.8411   20.0991 C   0  0  0  0  0  0  0  0  0  0  0  0
    8.8722  -12.8567   19.4176 C   0  0  0  0  0  0  0  0  0  0  0  0
    8.5202  -12.9014   18.1401 N   0  0  0  0  0  0  0  0  0  0  0  0
    7.6279  -13.8793   17.9602 C   0  0  0  0  0  0  0  0  0  0  0  0
    7.4305  -14.4469   19.1643 N   0  0  0  0  0  0  0  0  0  0  0  0
    9.8028  -14.9590   23.3469 C   0  0  0  0  0  0  0  0  0  0  0  0
   10.3183  -13.9724   23.9775 O   0  0  0  0  0  0  0  0  0  0  0  0
    9.4975  -16.0901   24.1239 N   0  0  0  0  0  0  0  0  0  0  0  0
    9.7778  -16.2042   25.5258 C   0  0  1  0  0  0  0  0  0  0  0  0
    8.5620  -16.6545   26.3136 C   0  0  0  0  0  0  0  0  0  0  0  0
    7.4305  -15.7328   26.1173 C   0  0  0  0  0  0  0  0  0  0  0  0
    6.1755  -16.0031   25.5925 C   0  0  0  0  0  0  0  0  0  0  0  0
    5.4634  -14.8655   25.6050 N   0  0  0  0  0  0  0  0  0  0  0  0
    6.1676  -13.8556   26.1058 C   0  0  0  0  0  0  0  0  0  0  0  0
    5.9152  -12.5101   26.3359 C   0  0  0  0  0  0  0  0  0  0  0  0
    6.8988  -11.7090   26.8877 C   0  0  0  0  0  0  0  0  0  0  0  0
    8.1198  -12.2681   27.2005 C   0  0  0  0  0  0  0  0  0  0  0  0
    8.4039  -13.5992   26.9855 C   0  0  0  0  0  0  0  0  0  0  0  0
    7.4028  -14.3844   26.4312 C   0  0  0  0  0  0  0  0  0  0  0  0
   10.9185  -17.1267   25.6985 C   0  0  0  0  0  0  0  0  0  0  0  0
   11.3888  -17.3714   26.8321 O   0  0  0  0  0  0  0  0  0  0  0  0
   11.4920  -17.7409   24.6055 O   0  0  0  0  0  0  0  0  0  0  0  0
  2  3  2  0
  2  1  1  0
  4  2  1  0
  5  4  1  0
  6  5  1  0
  6  7  1  1
  8 10  1  0
  8  6  1  0
  9  8  2  0
 11 10  1  0
 11 12  1  1
 12 13  1  0
 13 17  1  0
 14 13  2  0
 14 15  1  0
 15 16  1  0
 17 16  2  0
 18 11  1  0
 19 18  2  0
 20 18  1  0
 21 20  1  0
 22 23  1  0
 21 22  1  1
 23 31  1  0
 24 25  1  0
 24 23  2  0
 25 26  1  0
 26 31  2  0
 26 27  1  0
 27 28  2  0
 28 29  1  0
 30 29  2  0
 31 30  1  0
 32 21  1  0
 32 34  1  0
 33 32  2  0
M  END
$$$$
