QHW.pdb
     RDKit          3D

 34 36  0  0  1  0  0  0  0  0999 V2000
    8.3545  -12.4672   16.4181 N   0  0  0  0  0  0  0  0  0  0  0  0
    7.9973  -13.8201   16.5788 C   0  0  0  0  0  0  0  0  0  0  0  0
    8.3776  -14.6497   15.7176 O   0  0  0  0  0  0  0  0  0  0  0  0
    7.1795  -14.3212   17.7355 C   0  0  0  0  0  0  0  0  0  0  0  0
    7.4709  -13.5304   18.9622 C   0  0  0  0  0  0  0  0  0  0  0  0
    8.7738  -13.9334   19.5685 C   0  0  2  0  0  0  0  0  0  0  0  0
    9.5738  -14.7043   18.5977 N   0  0  0  0  0  0  0  0  0  0  0  0
    8.5689  -14.7795   20.7348 C   0  0  0  0  0  0  0  0  0  0  0  0
    7.7770  -14.4195   21.6785 O   0  0  0  0  0  0  0  0  0  0  0  0
    9.2232  -16.0377   20.8981 N   0  0  0  0  0  0  0  0  0  0  0  0
    9.0111  -16.8796   22.0500 C   0  0  1  0  0  0  0  0  0  0  0  0
    9.2016  -18.3394   21.7449 C   0  0  0  0  0  0  0  0  0  0  0  0
    8.0782  -18.8840   20.9247 C   0  0  0  0  0  0  0  0  0  0  0  0
    6.8524  -18.2814   20.7260 C   0  0  0  0  0  0  0  0  0  0  0  0
    6.1189  -19.0610   19.9436 N   0  0  0  0  0  0  0  0  0  0  0  0
    6.8199  -20.1521   19.6226 C   0  0  0  0  0  0  0  0  0  0  0  0
    8.0159  -20.0334   20.2278 N   0  0  0  0  0  0  0  0  0  0  0  0
    9.7778  -16.4318   23.2253 C   0  0  0  0  0  0  0  0  0  0  0  0
   11.0159  -16.1438   23.0808 O   0  0  0  0  0  0  0  0  0  0  0  0
    9.2633  -16.2874   24.5257 N   0  0  0  0  0  0  0  0  0  0  0  0
   10.0669  -16.0382   25.6871 C   0  0  1  0  0  0  0  0  0  0  0  0
    9.5140  -14.9028   26.5278 C   0  0  0  0  0  0  0  0  0  0  0  0
    8.1490  -14.5456   26.1064 C   0  0  0  0  0  0  0  0  0  0  0  0
    7.1235  -15.3837   25.6948 C   0  0  0  0  0  0  0  0  0  0  0  0
    6.0534  -14.6255   25.4090 N   0  0  0  0  0  0  0  0  0  0  0  0
    6.3044  -13.3351   25.6053 C   0  0  0  0  0  0  0  0  0  0  0  0
    5.5690  -12.1662   25.4651 C   0  0  0  0  0  0  0  0  0  0  0  0
    6.1500  -10.9466   25.7628 C   0  0  0  0  0  0  0  0  0  0  0  0
    7.4587  -10.9168   26.1964 C   0  0  0  0  0  0  0  0  0  0  0  0
    8.2172  -12.0574   26.3466 C   0  0  0  0  0  0  0  0  0  0  0  0
    7.6143  -13.2699   26.0425 C   0  0  0  0  0  0  0  0  0  0  0  0
   10.1720  -17.2937   26.4582 C   0  0  0  0  0  0  0  0  0  0  0  0
   10.9480  -17.3918   27.4351 O   0  0  0  0  0  0  0  0  0  0  0  0
    9.4113  -18.3909   26.1139 O   0  0  0  0  0  0  0  0  0  0  0  0
  2  3  2  0
  2  1  1  0
  4  2  1  0
  5  4  1  0
  6  5  1  0
  6  7  1  6
  8 10  1  0
  8  6  1  0
  9  8  2  0
 11 10  1  0
 11 12  1  6
 12 13  1  0
 13 17  1  0
 14 13  2  0
 14 15  1  0
 15 16  1  0
 17 16  2  0
 18 11  1  0
 19 18  2  0
 20 18  1  0
 21 20  1  0
 22 23  1  0
 21 22  1  1
 23 31  1  0
 24 25  1  0
 24 23  2  0
 25 26  1  0
 26 31  2  0
 26 27  1  0
 27 28  2  0
 28 29  1  0
 30 29  2  0
 31 30  1  0
 32 21  1  0
 32 34  1  0
 33 32  2  0
M  END
$$$$
