QHW.pdb
     RDKit          3D

 34 36  0  0  1  0  0  0  0  0999 V2000
    7.1420  -12.4395   18.0325 N   0  0  0  0  0  0  0  0  0  0  0  0
    7.8814  -13.4014   17.3173 C   0  0  0  0  0  0  0  0  0  0  0  0
    7.8351  -13.3865   16.0634 O   0  0  0  0  0  0  0  0  0  0  0  0
    8.7266  -14.4495   17.9846 C   0  0  0  0  0  0  0  0  0  0  0  0
    8.5701  -14.3827   19.4632 C   0  0  0  0  0  0  0  0  0  0  0  0
    9.8676  -14.6355   20.1561 C   0  0  2  0  0  0  0  0  0  0  0  0
   10.8719  -15.1335   19.1970 N   0  0  0  0  0  0  0  0  0  0  0  0
    9.7184  -15.6440   21.1947 C   0  0  0  0  0  0  0  0  0  0  0  0
    8.6803  -15.6637   21.9491 O   0  0  0  0  0  0  0  0  0  0  0  0
   10.6983  -16.6542   21.4339 N   0  0  0  0  0  0  0  0  0  0  0  0
   10.6010  -17.5865   22.5302 C   0  0  1  0  0  0  0  0  0  0  0  0
   11.6176  -18.6909   22.4450 C   0  0  0  0  0  0  0  0  0  0  0  0
   11.2939  -19.6571   21.3527 C   0  0  0  0  0  0  0  0  0  0  0  0
   10.0375  -19.9126   20.8415 C   0  0  0  0  0  0  0  0  0  0  0  0
   10.1461  -20.8265   19.8871 N   0  0  0  0  0  0  0  0  0  0  0  0
   11.4280  -21.1787   19.7547 C   0  0  0  0  0  0  0  0  0  0  0  0
   12.1206  -20.4578   20.6556 N   0  0  0  0  0  0  0  0  0  0  0  0
   10.5872  -16.9162   23.8418 C   0  0  0  0  0  0  0  0  0  0  0  0
   11.4315  -15.9814   24.0655 O   0  0  0  0  0  0  0  0  0  0  0  0
    9.7101  -17.2149   24.8992 N   0  0  0  0  0  0  0  0  0  0  0  0
    9.6933  -16.5193   26.1532 C   0  0  1  0  0  0  0  0  0  0  0  0
    8.2824  -16.3211   26.6743 C   0  0  0  0  0  0  0  0  0  0  0  0
    7.5495  -15.3356   25.8619 C   0  0  0  0  0  0  0  0  0  0  0  0
    6.9139  -15.5203   24.6431 C   0  0  0  0  0  0  0  0  0  0  0  0
    6.3739  -14.3490   24.2716 N   0  0  0  0  0  0  0  0  0  0  0  0
    6.6114  -13.3971   25.1683 C   0  0  0  0  0  0  0  0  0  0  0  0
    6.2897  -12.0506   25.2696 C   0  0  0  0  0  0  0  0  0  0  0  0
    6.7067  -11.3233   26.3700 C   0  0  0  0  0  0  0  0  0  0  0  0
    7.4395  -11.9561   27.3518 C   0  0  0  0  0  0  0  0  0  0  0  0
    7.7762  -13.2906   27.2831 C   0  0  0  0  0  0  0  0  0  0  0  0
    7.3474  -14.0010   26.1706 C   0  0  0  0  0  0  0  0  0  0  0  0
   10.5342  -17.2662   27.1108 C   0  0  0  0  0  0  0  0  0  0  0  0
   10.7040  -16.8570   28.2812 O   0  0  0  0  0  0  0  0  0  0  0  0
   11.1534  -18.4380   26.7308 O   0  0  0  0  0  0  0  0  0  0  0  0
  2  3  2  0
  2  1  1  0
  4  2  1  0
  5  4  1  0
  6  5  1  0
  6  7  1  6
  8 10  1  0
  8  6  1  0
  9  8  2  0
 11 10  1  0
 11 12  1  1
 12 13  1  0
 13 17  1  0
 14 13  2  0
 14 15  1  0
 15 16  1  0
 17 16  2  0
 18 11  1  0
 19 18  2  0
 20 18  1  0
 21 20  1  0
 22 23  1  0
 21 22  1  1
 23 31  1  0
 24 25  1  0
 24 23  2  0
 25 26  1  0
 26 31  2  0
 26 27  1  0
 27 28  2  0
 28 29  1  0
 30 29  2  0
 31 30  1  0
 32 21  1  0
 32 34  1  0
 33 32  2  0
M  END
$$$$
