QHW.pdb
     RDKit          3D

 34 36  0  0  1  0  0  0  0  0999 V2000
   15.9607  -15.5576   16.4755 N   0  0  0  0  0  0  0  0  0  0  0  0
   15.5716  -14.2621   16.8675 C   0  0  0  0  0  0  0  0  0  0  0  0
   16.4468  -13.3655   16.9370 O   0  0  0  0  0  0  0  0  0  0  0  0
   14.1538  -13.8989   17.2084 C   0  0  0  0  0  0  0  0  0  0  0  0
   14.0012  -13.7135   18.6772 C   0  0  0  0  0  0  0  0  0  0  0  0
   13.4975  -14.9577   19.3297 C   0  0  2  0  0  0  0  0  0  0  0  0
   13.1745  -15.9754   18.3115 N   0  0  0  0  0  0  0  0  0  0  0  0
   12.2822  -14.6966   20.0866 C   0  0  0  0  0  0  0  0  0  0  0  0
   12.2621  -13.8101   21.0145 O   0  0  0  0  0  0  0  0  0  0  0  0
   11.0611  -15.3965   19.8483 N   0  0  0  0  0  0  0  0  0  0  0  0
    9.8939  -15.2268   20.6787 C   0  0  1  0  0  0  0  0  0  0  0  0
    8.6102  -15.4448   19.9270 C   0  0  0  0  0  0  0  0  0  0  0  0
    8.4680  -14.4899   18.7871 C   0  0  0  0  0  0  0  0  0  0  0  0
    8.1037  -13.1620   18.8818 C   0  0  0  0  0  0  0  0  0  0  0  0
    8.0851  -12.6398   17.6632 N   0  0  0  0  0  0  0  0  0  0  0  0
    8.4240  -13.5776   16.7740 C   0  0  0  0  0  0  0  0  0  0  0  0
    8.6557  -14.7044   17.4721 N   0  0  0  0  0  0  0  0  0  0  0  0
    9.9705  -16.0061   21.9263 C   0  0  0  0  0  0  0  0  0  0  0  0
   10.7067  -17.0520   21.9559 O   0  0  0  0  0  0  0  0  0  0  0  0
    9.2925  -15.7007   23.1194 N   0  0  0  0  0  0  0  0  0  0  0  0
    9.6934  -16.1652   24.4157 C   0  0  1  0  0  0  0  0  0  0  0  0
    9.0571  -15.3572   25.5309 C   0  0  0  0  0  0  0  0  0  0  0  0
    9.4180  -15.8987   26.8518 C   0  0  0  0  0  0  0  0  0  0  0  0
    9.5451  -17.2247   27.2379 C   0  0  0  0  0  0  0  0  0  0  0  0
    9.8933  -17.2511   28.5340 N   0  0  0  0  0  0  0  0  0  0  0  0
   10.0054  -16.0243   29.0331 C   0  0  0  0  0  0  0  0  0  0  0  0
   10.3295  -15.5041   30.2786 C   0  0  0  0  0  0  0  0  0  0  0  0
   10.3548  -14.1340   30.4678 C   0  0  0  0  0  0  0  0  0  0  0  0
   10.0552  -13.3063   29.4064 C   0  0  0  0  0  0  0  0  0  0  0  0
    9.7295  -13.7888   28.1574 C   0  0  0  0  0  0  0  0  0  0  0  0
    9.7103  -15.1664   27.9901 C   0  0  0  0  0  0  0  0  0  0  0  0
    9.3623  -17.6012   24.5181 C   0  0  0  0  0  0  0  0  0  0  0  0
    8.2848  -18.0520   24.0689 O   0  0  0  0  0  0  0  0  0  0  0  0
   10.2410  -18.4799   25.1154 O   0  0  0  0  0  0  0  0  0  0  0  0
  2  3  2  0
  2  1  1  0
  4  2  1  0
  5  4  1  0
  6  5  1  0
  6  7  1  6
  8 10  1  0
  8  6  1  0
  9  8  2  0
 11 10  1  0
 11 12  1  6
 12 13  1  0
 13 17  1  0
 14 13  2  0
 14 15  1  0
 15 16  1  0
 17 16  2  0
 18 11  1  0
 19 18  2  0
 20 18  1  0
 21 20  1  0
 22 23  1  0
 21 22  1  1
 23 31  1  0
 24 25  1  0
 24 23  2  0
 25 26  1  0
 26 31  2  0
 26 27  1  0
 27 28  2  0
 28 29  1  0
 30 29  2  0
 31 30  1  0
 32 21  1  0
 32 34  1  0
 33 32  2  0
M  END
$$$$
