QHW.pdb
     RDKit          3D

 34 36  0  0  1  0  0  0  0  0999 V2000
    6.2818  -13.1698   18.0768 N   0  0  0  0  0  0  0  0  0  0  0  0
    7.3674  -13.6866   17.3433 C   0  0  0  0  0  0  0  0  0  0  0  0
    7.3144  -13.6602   16.0899 O   0  0  0  0  0  0  0  0  0  0  0  0
    8.5914  -14.2708   17.9904 C   0  0  0  0  0  0  0  0  0  0  0  0
    8.3508  -14.5128   19.4391 C   0  0  0  0  0  0  0  0  0  0  0  0
    9.6200  -14.4273   20.2196 C   0  0  2  0  0  0  0  0  0  0  0  0
   10.7617  -14.8561   19.3894 N   0  0  0  0  0  0  0  0  0  0  0  0
    9.5771  -15.2973   21.3855 C   0  0  0  0  0  0  0  0  0  0  0  0
    8.5807  -15.2664   22.1938 O   0  0  0  0  0  0  0  0  0  0  0  0
   10.6203  -16.2209   21.6961 N   0  0  0  0  0  0  0  0  0  0  0  0
   10.6375  -16.9919   22.9151 C   0  0  1  0  0  0  0  0  0  0  0  0
   11.7291  -18.0256   22.9327 C   0  0  0  0  0  0  0  0  0  0  0  0
   11.9001  -18.6719   21.5970 C   0  0  0  0  0  0  0  0  0  0  0  0
   10.8912  -18.9610   20.7004 C   0  0  0  0  0  0  0  0  0  0  0  0
   11.4264  -19.5304   19.6293 N   0  0  0  0  0  0  0  0  0  0  0  0
   12.7491  -19.6247   19.7919 C   0  0  0  0  0  0  0  0  0  0  0  0
   13.0275  -19.0970   20.9981 N   0  0  0  0  0  0  0  0  0  0  0  0
   10.6274  -16.1440   24.1195 C   0  0  0  0  0  0  0  0  0  0  0  0
   10.4697  -14.8817   23.9837 O   0  0  0  0  0  0  0  0  0  0  0  0
   10.7789  -16.6036   25.4395 N   0  0  0  0  0  0  0  0  0  0  0  0
    9.7496  -16.5449   26.4364 C   0  0  1  0  0  0  0  0  0  0  0  0
    8.3905  -16.9143   25.8724 C   0  0  0  0  0  0  0  0  0  0  0  0
    7.5098  -15.7367   25.7944 C   0  0  0  0  0  0  0  0  0  0  0  0
    6.2592  -15.6293   25.2044 C   0  0  0  0  0  0  0  0  0  0  0  0
    5.8228  -14.3717   25.3761 N   0  0  0  0  0  0  0  0  0  0  0  0
    6.7062  -13.6365   26.0436 C   0  0  0  0  0  0  0  0  0  0  0  0
    6.7510  -12.3172   26.4732 C   0  0  0  0  0  0  0  0  0  0  0  0
    7.8559  -11.8550   27.1655 C   0  0  0  0  0  0  0  0  0  0  0  0
    8.8987  -12.7215   27.4168 C   0  0  0  0  0  0  0  0  0  0  0  0
    8.8871  -14.0365   27.0051 C   0  0  0  0  0  0  0  0  0  0  0  0
    7.7688  -14.4789   26.3124 C   0  0  0  0  0  0  0  0  0  0  0  0
   10.1377  -17.4240   27.5582 C   0  0  0  0  0  0  0  0  0  0  0  0
    9.4131  -17.5403   28.5718 O   0  0  0  0  0  0  0  0  0  0  0  0
   11.3154  -18.1394   27.5100 O   0  0  0  0  0  0  0  0  0  0  0  0
  2  3  2  0
  2  1  1  0
  4  2  1  0
  5  4  1  0
  6  5  1  0
  6  7  1  6
  8 10  1  0
  8  6  1  0
  9  8  2  0
 11 10  1  0
 11 12  1  6
 12 13  1  0
 13 17  1  0
 14 13  2  0
 14 15  1  0
 15 16  1  0
 17 16  2  0
 18 11  1  0
 19 18  2  0
 20 18  1  0
 21 20  1  0
 22 23  1  0
 21 22  1  6
 23 31  1  0
 24 25  1  0
 24 23  2  0
 25 26  1  0
 26 31  2  0
 26 27  1  0
 27 28  2  0
 28 29  1  0
 30 29  2  0
 31 30  1  0
 32 21  1  0
 32 34  1  0
 33 32  2  0
M  END
$$$$
