QHW.pdb
     RDKit          3D

 34 36  0  0  1  0  0  0  0  0999 V2000
    6.5577  -22.6195   26.3039 N   0  0  0  0  0  0  0  0  0  0  0  0
    5.4322  -21.8267   26.0061 C   0  0  0  0  0  0  0  0  0  0  0  0
    4.2898  -22.3283   26.1401 O   0  0  0  0  0  0  0  0  0  0  0  0
    5.5324  -20.4038   25.5336 C   0  0  0  0  0  0  0  0  0  0  0  0
    6.7591  -20.2114   24.7129 C   0  0  0  0  0  0  0  0  0  0  0  0
    6.4332  -20.1601   23.2574 C   0  0  2  0  0  0  0  0  0  0  0  0
    6.8588  -21.4067   22.5929 N   0  0  0  0  0  0  0  0  0  0  0  0
    7.1257  -19.0592   22.6045 C   0  0  0  0  0  0  0  0  0  0  0  0
    8.3597  -19.1647   22.2677 O   0  0  0  0  0  0  0  0  0  0  0  0
    6.4877  -17.8180   22.3038 N   0  0  0  0  0  0  0  0  0  0  0  0
    7.2144  -16.6667   21.8273 C   0  0  1  0  0  0  0  0  0  0  0  0
    6.3878  -15.7901   20.9280 C   0  0  0  0  0  0  0  0  0  0  0  0
    7.2057  -14.7020   20.3127 C   0  0  0  0  0  0  0  0  0  0  0  0
    8.5559  -14.4925   20.5082 C   0  0  0  0  0  0  0  0  0  0  0  0
    8.9278  -13.4356   19.7993 N   0  0  0  0  0  0  0  0  0  0  0  0
    7.8701  -12.9454   19.1466 C   0  0  0  0  0  0  0  0  0  0  0  0
    6.8230  -13.7271   19.4679 N   0  0  0  0  0  0  0  0  0  0  0  0
    7.8679  -15.9210   22.9166 C   0  0  0  0  0  0  0  0  0  0  0  0
    7.1691  -15.1048   23.6111 O   0  0  0  0  0  0  0  0  0  0  0  0
    9.2235  -16.0246   23.2746 N   0  0  0  0  0  0  0  0  0  0  0  0
    9.8279  -15.3061   24.3587 C   0  0  1  0  0  0  0  0  0  0  0  0
    9.2147  -15.6745   25.6965 C   0  0  0  0  0  0  0  0  0  0  0  0
    7.8993  -15.0362   25.8719 C   0  0  0  0  0  0  0  0  0  0  0  0
    6.6406  -15.6138   25.7979 C   0  0  0  0  0  0  0  0  0  0  0  0
    5.7276  -14.6571   26.0275 N   0  0  0  0  0  0  0  0  0  0  0  0
    6.3018  -13.4792   26.2495 C   0  0  0  0  0  0  0  0  0  0  0  0
    5.8329  -12.2027   26.5283 C   0  0  0  0  0  0  0  0  0  0  0  0
    6.7283  -11.1639   26.7091 C   0  0  0  0  0  0  0  0  0  0  0  0
    8.0795  -11.4198   26.6080 C   0  0  0  0  0  0  0  0  0  0  0  0
    8.5790  -12.6741   26.3326 C   0  0  0  0  0  0  0  0  0  0  0  0
    7.6630  -13.7015   26.1550 C   0  0  0  0  0  0  0  0  0  0  0  0
   11.2828  -15.5598   24.3312 C   0  0  0  0  0  0  0  0  0  0  0  0
   11.7828  -16.3817   23.5309 O   0  0  0  0  0  0  0  0  0  0  0  0
   12.1251  -14.8908   25.1937 O   0  0  0  0  0  0  0  0  0  0  0  0
  2  3  2  0
  2  1  1  0
  4  2  1  0
  5  4  1  0
  6  5  1  0
  6  7  1  6
  8 10  1  0
  8  6  1  0
  9  8  2  0
 11 10  1  0
 11 12  1  1
 12 13  1  0
 13 17  1  0
 14 13  2  0
 14 15  1  0
 15 16  1  0
 17 16  2  0
 18 11  1  0
 19 18  2  0
 20 18  1  0
 21 20  1  0
 22 23  1  0
 21 22  1  1
 23 31  1  0
 24 25  1  0
 24 23  2  0
 25 26  1  0
 26 31  2  0
 26 27  1  0
 27 28  2  0
 28 29  1  0
 30 29  2  0
 31 30  1  0
 32 21  1  0
 32 34  1  0
 33 32  2  0
M  END
$$$$
