DQM.pdb
     RDKit          3D

 26 25  0  0  1  0  0  0  0  0999 V2000
   17.5729  -28.6852   -3.8169 N   0  0  0  0  0  0  0  0  0  0  0  0
   17.1743  -29.1179   -2.5107 C   0  0  1  0  0  0  0  0  0  0  0  0
   18.1246  -30.1998   -2.0275 C   0  0  0  0  0  0  0  0  0  0  0  0
   18.1711  -31.3395   -2.9739 C   0  0  0  0  0  0  0  0  0  0  0  0
   17.1864  -32.0589   -3.2717 O   0  0  0  0  0  0  0  0  0  0  0  0
   17.0268  -28.0410   -1.5310 C   0  0  0  0  0  0  0  0  0  0  0  0
   17.7961  -27.0574   -1.5909 O   0  0  0  0  0  0  0  0  0  0  0  0
   19.3818  -31.6366   -3.5747 O   0  0  0  0  0  0  0  0  0  0  0  0
   12.4959  -27.1034    2.9376 N   0  0  0  0  0  0  0  0  0  0  0  0
   13.4140  -26.0585    3.2043 C   0  0  0  0  0  0  0  0  0  0  0  0
   13.2201  -25.2371    4.1116 O   0  0  0  0  0  0  0  0  0  0  0  0
   14.6398  -25.9463    2.3740 C   0  0  0  0  0  0  0  0  0  0  0  0
   14.7342  -27.0833    1.3739 C   0  0  0  0  0  0  0  0  0  0  0  0
   15.9311  -27.0399    0.5155 C   0  0  2  0  0  0  0  0  0  0  0  0
   16.0659  -28.0108   -0.4935 N   0  0  0  0  0  0  0  0  0  0  0  0
   17.1361  -26.9735    1.3996 C   0  0  0  0  0  0  0  0  0  0  0  0
   17.9199  -27.9647    1.5159 O   0  0  0  0  0  0  0  0  0  0  0  0
   21.6960  -24.4168   -0.0775 C   0  0  0  0  0  0  0  0  0  0  0  0
   22.2490  -24.1840    1.6327 S   0  0  0  0  0  0  0  0  0  0  0  0
   21.0653  -24.8987    2.8068 C   0  0  0  0  0  0  0  0  0  0  0  0
   19.7621  -25.1104    2.0848 C   0  0  0  0  0  0  0  0  0  0  0  0
   18.7110  -25.7891    2.9378 C   0  0  2  0  0  0  0  0  0  0  0  0
   17.4842  -25.8208    2.1576 N   0  0  0  0  0  0  0  0  0  0  0  0
   18.5240  -24.8824    4.1299 C   0  0  0  0  0  0  0  0  0  0  0  0
   17.4523  -24.2554    4.3260 O   0  0  0  0  0  0  0  0  0  0  0  0
   19.5415  -24.7109    5.0575 O   0  0  0  0  0  0  0  0  0  0  0  0
  2  1  1  6
  2  3  1  0
  4  3  1  0
  4  8  1  0
  5  4  2  0
  6  2  1  0
  7  6  2  0
  9 10  1  0
 10 12  1  0
 11 10  2  0
 12 13  1  0
 14 13  1  1
 14 15  1  0
 15  6  1  0
 16 23  1  0
 16 14  1  0
 17 16  2  0
 18 19  1  0
 19 20  1  0
 21 20  1  0
 22 21  1  6
 22 23  1  0
 24 22  1  0
 24 26  1  0
 25 24  2  0
M  END
$$$$
