DQM.pdb
     RDKit          3D

 26 25  0  0  1  0  0  0  0  0999 V2000
   19.8757  -18.8982  -16.6185 N   0  0  0  0  0  0  0  0  0  0  0  0
   20.7920  -18.1771  -15.7861 C   0  0  1  0  0  0  0  0  0  0  0  0
   20.0864  -17.7558  -14.5087 C   0  0  0  0  0  0  0  0  0  0  0  0
   19.1213  -16.6598  -14.7614 C   0  0  0  0  0  0  0  0  0  0  0  0
   19.1445  -15.9075  -15.7660 O   0  0  0  0  0  0  0  0  0  0  0  0
   22.0474  -18.8775  -15.5130 C   0  0  0  0  0  0  0  0  0  0  0  0
   22.0058  -20.0371  -15.0477 O   0  0  0  0  0  0  0  0  0  0  0  0
   18.1222  -16.4454  -13.8281 O   0  0  0  0  0  0  0  0  0  0  0  0
   28.0168  -17.4735  -17.3692 N   0  0  0  0  0  0  0  0  0  0  0  0
   28.2040  -18.6426  -16.5920 C   0  0  0  0  0  0  0  0  0  0  0  0
   29.3029  -19.2114  -16.5257 O   0  0  0  0  0  0  0  0  0  0  0  0
   27.0525  -19.1992  -15.8380 C   0  0  0  0  0  0  0  0  0  0  0  0
   25.7854  -18.4081  -16.1034 C   0  0  0  0  0  0  0  0  0  0  0  0
   24.5733  -18.9775  -15.4886 C   0  0  2  0  0  0  0  0  0  0  0  0
   23.3398  -18.3472  -15.7340 N   0  0  0  0  0  0  0  0  0  0  0  0
   24.8338  -19.1585  -14.0266 C   0  0  0  0  0  0  0  0  0  0  0  0
   24.6351  -18.2139  -13.2029 O   0  0  0  0  0  0  0  0  0  0  0  0
   21.0247  -19.1052   -9.1184 C   0  0  0  0  0  0  0  0  0  0  0  0
   21.9094  -20.4001  -10.0269 S   0  0  0  0  0  0  0  0  0  0  0  0
   23.4959  -19.7890  -10.6594 C   0  0  0  0  0  0  0  0  0  0  0  0
   24.1394  -20.8947  -11.4516 C   0  0  0  0  0  0  0  0  0  0  0  0
   25.4861  -20.5102  -12.0275 C   0  0  2  0  0  0  0  0  0  0  0  0
   25.3123  -20.3750  -13.4649 N   0  0  0  0  0  0  0  0  0  0  0  0
   26.3889  -21.6851  -11.7396 C   0  0  0  0  0  0  0  0  0  0  0  0
   26.7736  -22.4651  -12.6471 O   0  0  0  0  0  0  0  0  0  0  0  0
   26.8274  -21.9435  -10.4488 O   0  0  0  0  0  0  0  0  0  0  0  0
  2  1  1  1
  2  3  1  0
  4  3  1  0
  4  8  1  0
  5  4  2  0
  6  2  1  0
  7  6  2  0
  9 10  1  0
 10 12  1  0
 11 10  2  0
 12 13  1  0
 14 13  1  1
 14 15  1  0
 15  6  1  0
 16 23  1  0
 16 14  1  0
 17 16  2  0
 18 19  1  0
 19 20  1  0
 21 20  1  0
 22 21  1  1
 22 23  1  0
 24 22  1  0
 24 26  1  0
 25 24  2  0
M  END
$$$$
