DQM.pdb
     RDKit          3D

 26 25  0  0  1  0  0  0  0  0999 V2000
   18.0866  -12.0636  -15.2168 N   0  0  0  0  0  0  0  0  0  0  0  0
   17.6437  -10.7177  -15.4288 C   0  0  1  0  0  0  0  0  0  0  0  0
   16.3765  -10.4732  -14.6277 C   0  0  0  0  0  0  0  0  0  0  0  0
   15.2383  -11.2550  -15.1661 C   0  0  0  0  0  0  0  0  0  0  0  0
   15.0970  -11.5686  -16.3733 O   0  0  0  0  0  0  0  0  0  0  0  0
   18.6588   -9.6952  -15.1737 C   0  0  0  0  0  0  0  0  0  0  0  0
   18.9696   -9.4309  -13.9919 O   0  0  0  0  0  0  0  0  0  0  0  0
   14.2593  -11.6714  -14.2810 O   0  0  0  0  0  0  0  0  0  0  0  0
   24.2292   -8.9312  -17.3584 N   0  0  0  0  0  0  0  0  0  0  0  0
   24.0753   -7.6489  -16.7770 C   0  0  0  0  0  0  0  0  0  0  0  0
   25.0195   -6.8498  -16.7033 O   0  0  0  0  0  0  0  0  0  0  0  0
   22.7475   -7.2542  -16.2426 C   0  0  0  0  0  0  0  0  0  0  0  0
   21.7262   -8.3600  -16.4318 C   0  0  0  0  0  0  0  0  0  0  0  0
   20.3662   -8.0149  -15.9814 C   0  0  2  0  0  0  0  0  0  0  0  0
   19.3397   -8.9580  -16.1705 N   0  0  0  0  0  0  0  0  0  0  0  0
   20.0138   -6.6758  -16.5478 C   0  0  0  0  0  0  0  0  0  0  0  0
   19.9291   -6.4952  -17.8010 O   0  0  0  0  0  0  0  0  0  0  0  0
   14.0726   -4.0447  -17.5222 C   0  0  0  0  0  0  0  0  0  0  0  0
   15.3895   -3.6799  -16.3317 S   0  0  0  0  0  0  0  0  0  0  0  0
   17.0179   -4.1131  -17.0033 C   0  0  0  0  0  0  0  0  0  0  0  0
   18.0439   -3.8770  -15.9281 C   0  0  0  0  0  0  0  0  0  0  0  0
   19.4492   -4.2484  -16.3526 C   0  0  2  0  0  0  0  0  0  0  0  0
   19.7537   -5.5325  -15.7418 N   0  0  0  0  0  0  0  0  0  0  0  0
   20.3369   -3.1848  -15.7535 C   0  0  0  0  0  0  0  0  0  0  0  0
   21.1195   -3.4317  -14.8012 O   0  0  0  0  0  0  0  0  0  0  0  0
   20.3165   -1.8860  -16.2412 O   0  0  0  0  0  0  0  0  0  0  0  0
  2  1  1  1
  2  3  1  0
  4  3  1  0
  4  8  1  0
  5  4  2  0
  6  2  1  0
  7  6  2  0
  9 10  1  0
 10 12  1  0
 11 10  2  0
 12 13  1  0
 14 13  1  6
 14 15  1  0
 15  6  1  0
 16 23  1  0
 16 14  1  0
 17 16  2  0
 18 19  1  0
 19 20  1  0
 21 20  1  0
 22 21  1  1
 22 23  1  0
 24 22  1  0
 24 26  1  0
 25 24  2  0
M  END
$$$$
