DQM.pdb
     RDKit          3D

 26 25  0  0  1  0  0  0  0  0999 V2000
   19.6750  -11.3042  -17.1836 N   0  0  0  0  0  0  0  0  0  0  0  0
   19.3490  -10.7183  -15.9176 C   0  0  1  0  0  0  0  0  0  0  0  0
   19.0090  -11.8185  -14.9270 C   0  0  0  0  0  0  0  0  0  0  0  0
   17.8754  -12.6445  -15.4056 C   0  0  0  0  0  0  0  0  0  0  0  0
   16.8675  -12.1935  -16.0028 O   0  0  0  0  0  0  0  0  0  0  0  0
   20.3612   -9.8016  -15.3920 C   0  0  0  0  0  0  0  0  0  0  0  0
   20.1860   -9.2855  -14.2668 O   0  0  0  0  0  0  0  0  0  0  0  0
   17.9254  -14.0092  -15.1816 O   0  0  0  0  0  0  0  0  0  0  0  0
   26.5199   -9.6505  -16.4000 N   0  0  0  0  0  0  0  0  0  0  0  0
   25.7874  -10.5472  -15.5844 C   0  0  0  0  0  0  0  0  0  0  0  0
   26.2922  -11.5917  -15.1488 O   0  0  0  0  0  0  0  0  0  0  0  0
   24.3786  -10.2253  -15.2436 C   0  0  0  0  0  0  0  0  0  0  0  0
   23.9574   -8.8951  -15.8393 C   0  0  0  0  0  0  0  0  0  0  0  0
   22.5446   -8.5458  -15.6084 C   0  0  2  0  0  0  0  0  0  0  0  0
   21.5533   -9.4361  -16.0597 N   0  0  0  0  0  0  0  0  0  0  0  0
   22.3217   -7.1531  -16.1069 C   0  0  0  0  0  0  0  0  0  0  0  0
   22.0282   -6.9299  -17.3211 O   0  0  0  0  0  0  0  0  0  0  0  0
   17.5246   -4.3625  -15.5598 C   0  0  0  0  0  0  0  0  0  0  0  0
   18.3586   -3.4331  -16.8735 S   0  0  0  0  0  0  0  0  0  0  0  0
   20.1400   -3.3062  -16.5563 C   0  0  0  0  0  0  0  0  0  0  0  0
   20.6167   -4.6344  -16.0337 C   0  0  0  0  0  0  0  0  0  0  0  0
   22.1119   -4.6812  -15.7987 C   0  0  2  0  0  0  0  0  0  0  0  0
   22.4200   -6.0026  -15.2755 N   0  0  0  0  0  0  0  0  0  0  0  0
   22.3768   -3.6455  -14.7332 C   0  0  0  0  0  0  0  0  0  0  0  0
   22.4549   -3.9496  -13.5160 O   0  0  0  0  0  0  0  0  0  0  0  0
   22.5445   -2.3095  -15.0682 O   0  0  0  0  0  0  0  0  0  0  0  0
  2  1  1  6
  2  3  1  0
  4  3  1  0
  4  8  1  0
  5  4  2  0
  6  2  1  0
  7  6  2  0
  9 10  1  0
 10 12  1  0
 11 10  2  0
 12 13  1  0
 14 13  1  6
 14 15  1  0
 15  6  1  0
 16 23  1  0
 16 14  1  0
 17 16  2  0
 18 19  1  0
 19 20  1  0
 21 20  1  0
 22 21  1  1
 22 23  1  0
 24 22  1  0
 24 26  1  0
 25 24  2  0
M  END
$$$$
