DQM.pdb
     RDKit          3D

 26 25  0  0  1  0  0  0  0  0999 V2000
   17.5050  -12.2272  -14.9564 N   0  0  0  0  0  0  0  0  0  0  0  0
   17.2559  -10.8249  -15.1113 C   0  0  1  0  0  0  0  0  0  0  0  0
   15.7723  -10.6009  -15.3481 C   0  0  0  0  0  0  0  0  0  0  0  0
   15.3647  -11.0643  -16.6956 C   0  0  0  0  0  0  0  0  0  0  0  0
   14.8015  -12.1610  -16.9317 O   0  0  0  0  0  0  0  0  0  0  0  0
   17.7690   -9.9914  -14.0237 C   0  0  0  0  0  0  0  0  0  0  0  0
   17.7199  -10.4254  -12.8523 O   0  0  0  0  0  0  0  0  0  0  0  0
   15.6201  -10.2343  -17.7732 O   0  0  0  0  0  0  0  0  0  0  0  0
   21.6931   -4.9562  -14.2115 N   0  0  0  0  0  0  0  0  0  0  0  0
   21.4549   -5.1088  -12.8238 C   0  0  0  0  0  0  0  0  0  0  0  0
   22.0443   -4.4165  -11.9819 O   0  0  0  0  0  0  0  0  0  0  0  0
   20.4731   -6.1252  -12.3683 C   0  0  0  0  0  0  0  0  0  0  0  0
   19.9256   -6.9248  -13.5356 C   0  0  0  0  0  0  0  0  0  0  0  0
   18.8571   -7.8733  -13.1747 C   0  0  2  0  0  0  0  0  0  0  0  0
   18.3315   -8.7032  -14.1816 N   0  0  0  0  0  0  0  0  0  0  0  0
   17.7881   -7.1173  -12.4511 C   0  0  0  0  0  0  0  0  0  0  0  0
   16.9998   -6.3400  -13.0714 O   0  0  0  0  0  0  0  0  0  0  0  0
   12.2842   -7.3419   -7.0077 C   0  0  0  0  0  0  0  0  0  0  0  0
   13.6680   -8.0467   -7.9421 S   0  0  0  0  0  0  0  0  0  0  0  0
   14.5984   -6.7537   -8.8098 C   0  0  0  0  0  0  0  0  0  0  0  0
   15.7256   -7.4124   -9.5581 C   0  0  0  0  0  0  0  0  0  0  0  0
   16.5302   -6.4434  -10.3986 C   0  0  2  0  0  0  0  0  0  0  0  0
   17.5811   -7.2118  -11.0466 N   0  0  0  0  0  0  0  0  0  0  0  0
   17.1473   -5.4825   -9.4117 C   0  0  0  0  0  0  0  0  0  0  0  0
   18.3527   -5.5685   -9.0657 O   0  0  0  0  0  0  0  0  0  0  0  0
   16.3941   -4.4621   -8.8489 O   0  0  0  0  0  0  0  0  0  0  0  0
  2  1  1  1
  2  3  1  0
  4  3  1  0
  4  8  1  0
  5  4  2  0
  6  2  1  0
  7  6  2  0
  9 10  1  0
 10 12  1  0
 11 10  2  0
 12 13  1  0
 14 13  1  6
 14 15  1  0
 15  6  1  0
 16 23  1  0
 16 14  1  0
 17 16  2  0
 18 19  1  0
 19 20  1  0
 21 20  1  0
 22 21  1  1
 22 23  1  0
 24 22  1  0
 24 26  1  0
 25 24  2  0
M  END
$$$$
