DQM.pdb
     RDKit          3D

 26 25  0  0  1  0  0  0  0  0999 V2000
   19.2195  -12.1327  -17.8370 N   0  0  0  0  0  0  0  0  0  0  0  0
   18.6373  -10.9742  -17.2276 C   0  0  1  0  0  0  0  0  0  0  0  0
   17.8728  -11.3913  -15.9831 C   0  0  0  0  0  0  0  0  0  0  0  0
   16.6171  -12.0970  -16.3320 C   0  0  0  0  0  0  0  0  0  0  0  0
   16.1066  -12.1181  -17.4786 O   0  0  0  0  0  0  0  0  0  0  0  0
   19.5817   -9.8908  -16.9530 C   0  0  0  0  0  0  0  0  0  0  0  0
   20.1338   -9.8374  -15.8327 O   0  0  0  0  0  0  0  0  0  0  0  0
   15.9563  -12.7828  -15.3279 O   0  0  0  0  0  0  0  0  0  0  0  0
   22.0369   -5.5406  -20.9853 N   0  0  0  0  0  0  0  0  0  0  0  0
   22.2463   -6.9369  -21.0971 C   0  0  0  0  0  0  0  0  0  0  0  0
   22.7605   -7.4394  -22.1064 O   0  0  0  0  0  0  0  0  0  0  0  0
   21.8384   -7.8193  -19.9749 C   0  0  0  0  0  0  0  0  0  0  0  0
   21.2671   -7.0161  -18.8215 C   0  0  0  0  0  0  0  0  0  0  0  0
   20.8573   -7.8262  -17.6608 C   0  0  2  0  0  0  0  0  0  0  0  0
   19.9368   -8.8701  -17.8655 N   0  0  0  0  0  0  0  0  0  0  0  0
   20.4227   -6.8954  -16.5734 C   0  0  0  0  0  0  0  0  0  0  0  0
   19.3176   -6.2755  -16.6432 O   0  0  0  0  0  0  0  0  0  0  0  0
   19.2071   -5.6928   -9.1214 C   0  0  0  0  0  0  0  0  0  0  0  0
   19.7679   -6.6584  -10.5490 S   0  0  0  0  0  0  0  0  0  0  0  0
   20.1034   -5.5866  -11.9734 C   0  0  0  0  0  0  0  0  0  0  0  0
   20.5273   -6.4589  -13.1240 C   0  0  0  0  0  0  0  0  0  0  0  0
   20.7455   -5.6875  -14.4087 C   0  0  2  0  0  0  0  0  0  0  0  0
   21.1982   -6.6424  -15.4076 N   0  0  0  0  0  0  0  0  0  0  0  0
   21.8594   -4.7163  -14.1019 C   0  0  0  0  0  0  0  0  0  0  0  0
   23.0468   -4.9356  -14.4512 O   0  0  0  0  0  0  0  0  0  0  0  0
   21.6040   -3.5370  -13.4168 O   0  0  0  0  0  0  0  0  0  0  0  0
  2  1  1  1
  2  3  1  0
  4  3  1  0
  4  8  1  0
  5  4  2  0
  6  2  1  0
  7  6  2  0
  9 10  1  0
 10 12  1  0
 11 10  2  0
 12 13  1  0
 14 13  1  6
 14 15  1  0
 15  6  1  0
 16 23  1  0
 16 14  1  0
 17 16  2  0
 18 19  1  0
 19 20  1  0
 21 20  1  0
 22 21  1  1
 22 23  1  0
 24 22  1  0
 24 26  1  0
 25 24  2  0
M  END
$$$$
