DQM.pdb
     RDKit          3D

 26 25  0  0  1  0  0  0  0  0999 V2000
   19.2760  -21.3847  -12.2104 N   0  0  0  0  0  0  0  0  0  0  0  0
   20.3330  -20.4238  -12.3193 C   0  0  1  0  0  0  0  0  0  0  0  0
   19.9513  -19.1676  -11.5554 C   0  0  0  0  0  0  0  0  0  0  0  0
   18.8431  -18.4452  -12.2238 C   0  0  0  0  0  0  0  0  0  0  0  0
   17.7384  -18.1829  -11.6885 O   0  0  0  0  0  0  0  0  0  0  0  0
   21.6521  -20.9226  -11.9291 C   0  0  0  0  0  0  0  0  0  0  0  0
   21.7328  -21.7754  -11.0185 O   0  0  0  0  0  0  0  0  0  0  0  0
   19.0333  -18.0279  -13.5295 O   0  0  0  0  0  0  0  0  0  0  0  0
   26.2521  -22.2944  -15.7927 N   0  0  0  0  0  0  0  0  0  0  0  0
   26.8804  -22.5882  -14.5579 C   0  0  0  0  0  0  0  0  0  0  0  0
   27.9676  -23.1805  -14.5052 O   0  0  0  0  0  0  0  0  0  0  0  0
   26.2176  -22.1748  -13.2953 C   0  0  0  0  0  0  0  0  0  0  0  0
   24.8644  -21.5437  -13.5640 C   0  0  0  0  0  0  0  0  0  0  0  0
   24.1360  -21.1286  -12.3522 C   0  0  2  0  0  0  0  0  0  0  0  0
   22.8786  -20.5164  -12.5046 N   0  0  0  0  0  0  0  0  0  0  0  0
   25.0629  -20.3119  -11.5085 C   0  0  0  0  0  0  0  0  0  0  0  0
   25.3698  -19.1240  -11.8322 O   0  0  0  0  0  0  0  0  0  0  0  0
   28.1886  -21.1675   -5.4833 C   0  0  0  0  0  0  0  0  0  0  0  0
   27.1706  -19.6820   -5.6869 S   0  0  0  0  0  0  0  0  0  0  0  0
   27.0831  -19.1816   -7.4283 C   0  0  0  0  0  0  0  0  0  0  0  0
   26.8059  -20.4093   -8.2531 C   0  0  0  0  0  0  0  0  0  0  0  0
   26.8254  -20.1433   -9.7437 C   0  0  2  0  0  0  0  0  0  0  0  0
   25.6549  -20.7957  -10.3085 N   0  0  0  0  0  0  0  0  0  0  0  0
   28.0730  -20.8252  -10.2504 C   0  0  0  0  0  0  0  0  0  0  0  0
   28.0843  -22.0426  -10.5632 O   0  0  0  0  0  0  0  0  0  0  0  0
   29.2605  -20.1207  -10.3882 O   0  0  0  0  0  0  0  0  0  0  0  0
  2  1  1  1
  2  3  1  0
  4  3  1  0
  4  8  1  0
  5  4  2  0
  6  2  1  0
  7  6  2  0
  9 10  1  0
 10 12  1  0
 11 10  2  0
 12 13  1  0
 14 13  1  6
 14 15  1  0
 15  6  1  0
 16 23  1  0
 16 14  1  0
 17 16  2  0
 18 19  1  0
 19 20  1  0
 21 20  1  0
 22 21  1  1
 22 23  1  0
 24 22  1  0
 24 26  1  0
 25 24  2  0
M  END
$$$$
