DQM.pdb
     RDKit          3D

 26 25  0  0  1  0  0  0  0  0999 V2000
   13.5466  -10.3255  -12.3689 N   0  0  0  0  0  0  0  0  0  0  0  0
   14.9440  -10.2124  -12.0745 C   0  0  1  0  0  0  0  0  0  0  0  0
   15.7424  -10.9560  -13.1314 C   0  0  0  0  0  0  0  0  0  0  0  0
   15.4560  -12.4099  -13.1006 C   0  0  0  0  0  0  0  0  0  0  0  0
   15.4446  -13.1119  -12.0600 O   0  0  0  0  0  0  0  0  0  0  0  0
   15.4193   -8.8404  -11.8937 C   0  0  0  0  0  0  0  0  0  0  0  0
   15.1869   -7.9958  -12.7857 O   0  0  0  0  0  0  0  0  0  0  0  0
   15.1811  -13.0437  -14.2997 O   0  0  0  0  0  0  0  0  0  0  0  0
   15.1505   -5.3181   -6.9606 N   0  0  0  0  0  0  0  0  0  0  0  0
   14.1643   -5.5991   -7.9374 C   0  0  0  0  0  0  0  0  0  0  0  0
   12.9604   -5.3974   -7.7241 O   0  0  0  0  0  0  0  0  0  0  0  0
   14.5860   -6.1496   -9.2502 C   0  0  0  0  0  0  0  0  0  0  0  0
   16.0843   -6.3845   -9.2939 C   0  0  0  0  0  0  0  0  0  0  0  0
   16.5595   -7.0511  -10.5191 C   0  0  2  0  0  0  0  0  0  0  0  0
   16.1375   -8.3694  -10.7699 N   0  0  0  0  0  0  0  0  0  0  0  0
   18.0482   -6.9145  -10.5761 C   0  0  0  0  0  0  0  0  0  0  0  0
   18.7973   -7.5621   -9.7827 O   0  0  0  0  0  0  0  0  0  0  0  0
   23.3219   -9.5937  -14.7774 C   0  0  0  0  0  0  0  0  0  0  0  0
   21.6491   -9.1723  -14.2218 S   0  0  0  0  0  0  0  0  0  0  0  0
   21.6622   -7.6994  -13.1632 C   0  0  0  0  0  0  0  0  0  0  0  0
   20.2618   -7.4732  -12.6611 C   0  0  0  0  0  0  0  0  0  0  0  0
   20.1343   -6.2474  -11.7813 C   0  0  2  0  0  0  0  0  0  0  0  0
   18.7183   -6.0679  -11.5028 N   0  0  0  0  0  0  0  0  0  0  0  0
   20.6283   -5.1000  -12.6284 C   0  0  0  0  0  0  0  0  0  0  0  0
   19.8685   -4.4794  -13.4144 O   0  0  0  0  0  0  0  0  0  0  0  0
   21.9522   -4.6897  -12.5651 O   0  0  0  0  0  0  0  0  0  0  0  0
  2  1  1  6
  2  3  1  0
  4  3  1  0
  4  8  1  0
  5  4  2  0
  6  2  1  0
  7  6  2  0
  9 10  1  0
 10 12  1  0
 11 10  2  0
 12 13  1  0
 14 13  1  1
 14 15  1  0
 15  6  1  0
 16 23  1  0
 16 14  1  0
 17 16  2  0
 18 19  1  0
 19 20  1  0
 21 20  1  0
 22 21  1  6
 22 23  1  0
 24 22  1  0
 24 26  1  0
 25 24  2  0
M  END
$$$$
