DQM.pdb
     RDKit          3D

 26 25  0  0  1  0  0  0  0  0999 V2000
   17.7341  -13.4064  -17.5076 N   0  0  0  0  0  0  0  0  0  0  0  0
   17.8592  -12.5988  -16.3309 C   0  0  1  0  0  0  0  0  0  0  0  0
   18.4957  -13.4199  -15.2228 C   0  0  0  0  0  0  0  0  0  0  0  0
   17.6292  -14.5551  -14.8264 C   0  0  0  0  0  0  0  0  0  0  0  0
   16.3803  -14.4936  -14.7162 O   0  0  0  0  0  0  0  0  0  0  0  0
   18.5516  -11.3262  -16.5364 C   0  0  0  0  0  0  0  0  0  0  0  0
   19.5987  -11.3091  -17.2192 O   0  0  0  0  0  0  0  0  0  0  0  0
   18.2333  -15.7709  -14.5577 O   0  0  0  0  0  0  0  0  0  0  0  0
   16.5061   -5.3415  -15.5038 N   0  0  0  0  0  0  0  0  0  0  0  0
   17.7851   -5.1436  -16.0790 C   0  0  0  0  0  0  0  0  0  0  0  0
   18.1860   -4.0167  -16.4031 O   0  0  0  0  0  0  0  0  0  0  0  0
   18.6666   -6.3180  -16.2984 C   0  0  0  0  0  0  0  0  0  0  0  0
   17.9613   -7.6118  -15.9375 C   0  0  0  0  0  0  0  0  0  0  0  0
   18.7498   -8.8282  -16.2021 C   0  0  2  0  0  0  0  0  0  0  0  0
   18.1320  -10.0787  -16.0186 N   0  0  0  0  0  0  0  0  0  0  0  0
   20.0391   -8.7199  -15.4513 C   0  0  0  0  0  0  0  0  0  0  0  0
   20.0795   -8.8694  -14.1918 O   0  0  0  0  0  0  0  0  0  0  0  0
   27.4489  -10.9099  -15.5544 C   0  0  0  0  0  0  0  0  0  0  0  0
   25.8920  -10.5282  -16.4000 S   0  0  0  0  0  0  0  0  0  0  0  0
   24.8244   -9.4864  -15.3679 C   0  0  0  0  0  0  0  0  0  0  0  0
   23.5145   -9.3048  -16.0860 C   0  0  0  0  0  0  0  0  0  0  0  0
   22.5218   -8.4628  -15.3124 C   0  0  2  0  0  0  0  0  0  0  0  0
   21.2865   -8.4478  -16.0795 N   0  0  0  0  0  0  0  0  0  0  0  0
   23.1147   -7.0749  -15.2891 C   0  0  0  0  0  0  0  0  0  0  0  0
   22.8519   -6.2253  -16.1775 O   0  0  0  0  0  0  0  0  0  0  0  0
   23.9785   -6.6892  -14.2741 O   0  0  0  0  0  0  0  0  0  0  0  0
  2  1  1  6
  2  3  1  0
  4  3  1  0
  4  8  1  0
  5  4  2  0
  6  2  1  0
  7  6  2  0
  9 10  1  0
 10 12  1  0
 11 10  2  0
 12 13  1  0
 14 13  1  1
 14 15  1  0
 15  6  1  0
 16 23  1  0
 16 14  1  0
 17 16  2  0
 18 19  1  0
 19 20  1  0
 21 20  1  0
 22 21  1  6
 22 23  1  0
 24 22  1  0
 24 26  1  0
 25 24  2  0
M  END
$$$$
