DQM.pdb
     RDKit          3D

 26 25  0  0  1  0  0  0  0  0999 V2000
   25.7463  -18.3729  -16.1381 N   0  0  0  0  0  0  0  0  0  0  0  0
   26.6216  -19.0561  -15.2328 C   0  0  1  0  0  0  0  0  0  0  0  0
   27.9179  -18.2753  -15.1011 C   0  0  0  0  0  0  0  0  0  0  0  0
   28.6192  -18.1699  -16.4026 C   0  0  0  0  0  0  0  0  0  0  0  0
   28.9158  -19.1466  -17.1332 O   0  0  0  0  0  0  0  0  0  0  0  0
   26.0316  -19.3620  -13.9292 C   0  0  0  0  0  0  0  0  0  0  0  0
   25.6898  -18.4195  -13.1823 O   0  0  0  0  0  0  0  0  0  0  0  0
   28.9746  -16.9092  -16.8491 O   0  0  0  0  0  0  0  0  0  0  0  0
   24.0362  -24.3254  -13.8704 N   0  0  0  0  0  0  0  0  0  0  0  0
   23.0811  -23.3007  -14.0792 C   0  0  0  0  0  0  0  0  0  0  0  0
   22.2016  -23.3972  -14.9468 O   0  0  0  0  0  0  0  0  0  0  0  0
   23.1368  -22.0803  -13.2355 C   0  0  0  0  0  0  0  0  0  0  0  0
   24.2561  -22.1662  -12.2149 C   0  0  0  0  0  0  0  0  0  0  0  0
   25.1708  -21.0109  -12.2172 C   0  0  2  0  0  0  0  0  0  0  0  0
   25.8062  -20.6634  -13.4232 N   0  0  0  0  0  0  0  0  0  0  0  0
   26.1454  -21.1863  -11.0959 C   0  0  0  0  0  0  0  0  0  0  0  0
   27.1052  -22.0117  -11.1839 O   0  0  0  0  0  0  0  0  0  0  0  0
   27.4318  -17.3236   -6.1762 C   0  0  0  0  0  0  0  0  0  0  0  0
   28.2427  -18.8375   -5.5971 S   0  0  0  0  0  0  0  0  0  0  0  0
   27.5800  -20.2996   -6.4418 C   0  0  0  0  0  0  0  0  0  0  0  0
   27.1000  -19.8744   -7.8031 C   0  0  0  0  0  0  0  0  0  0  0  0
   26.5828  -21.0257   -8.6398 C   0  0  2  0  0  0  0  0  0  0  0  0
   26.0698  -20.4575   -9.8762 N   0  0  0  0  0  0  0  0  0  0  0  0
   25.4409  -21.6103   -7.8446 C   0  0  0  0  0  0  0  0  0  0  0  0
   24.2405  -21.3912   -8.1466 O   0  0  0  0  0  0  0  0  0  0  0  0
   25.6837  -22.4173   -6.7423 O   0  0  0  0  0  0  0  0  0  0  0  0
  2  1  1  6
  2  3  1  0
  4  3  1  0
  4  8  1  0
  5  4  2  0
  6  2  1  0
  7  6  2  0
  9 10  1  0
 10 12  1  0
 11 10  2  0
 12 13  1  0
 14 13  1  6
 14 15  1  0
 15  6  1  0
 16 23  1  0
 16 14  1  0
 17 16  2  0
 18 19  1  0
 19 20  1  0
 21 20  1  0
 22 21  1  1
 22 23  1  0
 24 22  1  0
 24 26  1  0
 25 24  2  0
M  END
$$$$
