WFN.pdb
     RDKit          3D

 34 36  0  0  1  0  0  0  0  0999 V2000
   11.7434  -17.2549   20.3638 N   0  0  0  0  0  0  0  0  0  0  0  0
   10.7756  -16.6216   21.1841 C   0  0  1  0  0  0  0  0  0  0  0  0
    9.3608  -17.1284   21.0331 C   0  0  0  0  0  0  0  0  0  0  0  0
    8.4705  -16.2199   20.3024 C   0  0  0  0  0  0  0  0  0  0  0  0
    7.7339  -16.5021   19.1757 C   0  0  0  0  0  0  0  0  0  0  0  0
    7.0229  -15.4291   18.8030 N   0  0  0  0  0  0  0  0  0  0  0  0
    7.2816  -14.4414   19.6700 C   0  0  0  0  0  0  0  0  0  0  0  0
    6.8369  -13.1615   19.7529 C   0  0  0  0  0  0  0  0  0  0  0  0
    7.2370  -12.2869   20.7388 C   0  0  0  0  0  0  0  0  0  0  0  0
    8.1292  -12.7569   21.6702 C   0  0  0  0  0  0  0  0  0  0  0  0
    8.5959  -14.0459   21.6120 C   0  0  0  0  0  0  0  0  0  0  0  0
    8.1888  -14.9133   20.6218 C   0  0  0  0  0  0  0  0  0  0  0  0
   11.1798  -16.5951   22.6284 C   0  0  0  0  0  0  0  0  0  0  0  0
   12.3747  -16.8786   22.9317 O   0  0  0  0  0  0  0  0  0  0  0  0
   10.1863  -16.2511   23.5646 N   0  0  0  0  0  0  0  0  0  0  0  0
   10.5109  -15.9088   24.9031 C   0  0  1  0  0  0  0  0  0  0  0  0
    9.3612  -15.1888   25.5624 C   0  0  0  0  0  0  0  0  0  0  0  0
    9.6710  -14.7967   26.9528 C   0  0  0  0  0  0  0  0  0  0  0  0
    9.5181  -15.6789   27.9932 C   0  0  0  0  0  0  0  0  0  0  0  0
    9.8112  -15.2928   29.2894 C   0  0  0  0  0  0  0  0  0  0  0  0
   10.2594  -14.0188   29.5470 C   0  0  0  0  0  0  0  0  0  0  0  0
   10.4128  -13.1349   28.5061 C   0  0  0  0  0  0  0  0  0  0  0  0
   10.1168  -13.5269   27.2035 C   0  0  0  0  0  0  0  0  0  0  0  0
   10.8622  -17.1771   25.6456 C   0  0  0  0  0  0  0  0  0  0  0  0
   11.2137  -17.1926   26.8483 O   0  0  0  0  0  0  0  0  0  0  0  0
    9.8352  -20.6441   22.6126 N   0  0  0  0  0  0  0  0  0  0  0  0
    9.6688  -20.7358   24.0151 C   0  0  0  0  0  0  0  0  0  0  0  0
    8.5073  -20.6910   24.4780 O   0  0  0  0  0  0  0  0  0  0  0  0
   10.8354  -20.8800   24.8992 C   0  0  0  0  0  0  0  0  0  0  0  0
   11.1020  -19.6374   25.7417 C   0  0  2  0  0  0  0  0  0  0  0  0
   10.8054  -18.4380   24.9879 N   0  0  0  0  0  0  0  0  0  0  0  0
   12.5100  -19.5301   26.1738 C   0  0  0  0  0  0  0  0  0  0  0  0
   12.8808  -19.9271   27.3061 O   0  0  0  0  0  0  0  0  0  0  0  0
   13.5195  -18.9857   25.3645 O   0  0  0  0  0  0  0  0  0  0  0  0
  2  1  1  6
  3  2  1  0
  4  3  1  0
  4  5  2  0
  6  5  1  0
  7  6  1  0
  8  7  2  0
  9  8  1  0
 10  9  2  0
 10 11  1  0
 11 12  2  0
 12  7  1  0
 12  4  1  0
 13  2  1  0
 14 13  2  0
 15 13  1  0
 16 15  1  0
 16 17  1  1
 18 17  1  0
 18 19  2  0
 20 19  1  0
 21 20  2  0
 22 23  2  0
 22 21  1  0
 23 18  1  0
 24 16  1  0
 25 24  2  0
 26 27  1  0
 27 28  2  0
 30 29  1  6
 29 27  1  0
 30 31  1  0
 31 24  1  0
 32 34  1  0
 32 30  1  0
 33 32  2  0
M  END
$$$$
