WFN.pdb
     RDKit          3D

 34 36  0  0  1  0  0  0  0  0999 V2000
    7.7836  -17.5037   22.7677 N   0  0  0  0  0  0  0  0  0  0  0  0
    8.2622  -16.1736   22.6562 C   0  0  1  0  0  0  0  0  0  0  0  0
    7.2401  -15.1466   22.2296 C   0  0  0  0  0  0  0  0  0  0  0  0
    7.1842  -14.9182   20.7816 C   0  0  0  0  0  0  0  0  0  0  0  0
    6.5848  -15.7154   19.8347 C   0  0  0  0  0  0  0  0  0  0  0  0
    6.7213  -15.1746   18.6163 N   0  0  0  0  0  0  0  0  0  0  0  0
    7.4041  -14.0296   18.7473 C   0  0  0  0  0  0  0  0  0  0  0  0
    7.8139  -13.1041   17.8428 C   0  0  0  0  0  0  0  0  0  0  0  0
    8.5240  -11.9756   18.1882 C   0  0  0  0  0  0  0  0  0  0  0  0
    8.8188  -11.8021   19.5175 C   0  0  0  0  0  0  0  0  0  0  0  0
    8.4175  -12.7207   20.4545 C   0  0  0  0  0  0  0  0  0  0  0  0
    7.7068  -13.8462   20.0987 C   0  0  0  0  0  0  0  0  0  0  0  0
    8.9875  -15.7220   23.8891 C   0  0  0  0  0  0  0  0  0  0  0  0
    9.8743  -14.8264   23.7803 O   0  0  0  0  0  0  0  0  0  0  0  0
    8.6271  -16.3348   25.1041 N   0  0  0  0  0  0  0  0  0  0  0  0
    9.2980  -16.0336   26.3179 C   0  0  1  0  0  0  0  0  0  0  0  0
    8.3084  -15.6803   27.3999 C   0  0  0  0  0  0  0  0  0  0  0  0
    7.6129  -14.4057   27.1267 C   0  0  0  0  0  0  0  0  0  0  0  0
    8.2794  -13.2065   27.1699 C   0  0  0  0  0  0  0  0  0  0  0  0
    7.6106  -12.0225   26.9132 C   0  0  0  0  0  0  0  0  0  0  0  0
    6.2692  -12.0370   26.6120 C   0  0  0  0  0  0  0  0  0  0  0  0
    5.6011  -13.2371   26.5685 C   0  0  0  0  0  0  0  0  0  0  0  0
    6.2773  -14.4261   26.8273 C   0  0  0  0  0  0  0  0  0  0  0  0
   10.1337  -17.2305   26.7082 C   0  0  0  0  0  0  0  0  0  0  0  0
   10.6844  -17.3466   27.8277 O   0  0  0  0  0  0  0  0  0  0  0  0
   11.0917  -22.8577   26.4099 N   0  0  0  0  0  0  0  0  0  0  0  0
   11.6525  -21.8190   25.6290 C   0  0  0  0  0  0  0  0  0  0  0  0
   12.8381  -21.9386   25.2476 O   0  0  0  0  0  0  0  0  0  0  0  0
   10.8563  -20.6329   25.2788 C   0  0  0  0  0  0  0  0  0  0  0  0
   11.0989  -19.4543   26.2153 C   0  0  2  0  0  0  0  0  0  0  0  0
   10.3323  -18.3018   25.7925 N   0  0  0  0  0  0  0  0  0  0  0  0
   12.5139  -19.0333   26.2510 C   0  0  0  0  0  0  0  0  0  0  0  0
   13.2866  -19.4065   27.1679 O   0  0  0  0  0  0  0  0  0  0  0  0
   13.0889  -18.1995   25.2791 O   0  0  0  0  0  0  0  0  0  0  0  0
  2  1  1  1
  3  2  1  0
  4  3  1  0
  4  5  2  0
  6  5  1  0
  7  6  1  0
  8  7  2  0
  9  8  1  0
 10  9  2  0
 10 11  1  0
 11 12  2  0
 12  7  1  0
 12  4  1  0
 13  2  1  0
 14 13  2  0
 15 13  1  0
 16 15  1  0
 16 17  1  1
 18 17  1  0
 18 19  2  0
 20 19  1  0
 21 20  2  0
 22 23  2  0
 22 21  1  0
 23 18  1  0
 24 16  1  0
 25 24  2  0
 26 27  1  0
 27 28  2  0
 30 29  1  6
 29 27  1  0
 30 31  1  0
 31 24  1  0
 32 34  1  0
 32 30  1  0
 33 32  2  0
M  END
$$$$
