WFN.pdb
     RDKit          3D

 34 36  0  0  1  0  0  0  0  0999 V2000
    8.5226  -17.0638   21.5780 N   0  0  0  0  0  0  0  0  0  0  0  0
    8.6979  -15.6567   21.5666 C   0  0  1  0  0  0  0  0  0  0  0  0
    7.4892  -14.8525   21.1500 C   0  0  0  0  0  0  0  0  0  0  0  0
    7.0755  -15.0643   19.7586 C   0  0  0  0  0  0  0  0  0  0  0  0
    6.2608  -16.0608   19.2738 C   0  0  0  0  0  0  0  0  0  0  0  0
    6.0901  -15.9212   17.9521 N   0  0  0  0  0  0  0  0  0  0  0  0
    6.7827  -14.8444   17.5580 C   0  0  0  0  0  0  0  0  0  0  0  0
    6.9543  -14.2657   16.3422 C   0  0  0  0  0  0  0  0  0  0  0  0
    7.7266  -13.1426   16.1442 C   0  0  0  0  0  0  0  0  0  0  0  0
    8.3418  -12.6021   17.2459 C   0  0  0  0  0  0  0  0  0  0  0  0
    8.1866  -13.1651   18.4875 C   0  0  0  0  0  0  0  0  0  0  0  0
    7.4111  -14.2885   18.6750 C   0  0  0  0  0  0  0  0  0  0  0  0
    9.2611  -15.1405   22.8574 C   0  0  0  0  0  0  0  0  0  0  0  0
    9.7651  -13.9804   22.8814 O   0  0  0  0  0  0  0  0  0  0  0  0
    9.1901  -15.9952   23.9738 N   0  0  0  0  0  0  0  0  0  0  0  0
    9.8008  -15.6582   25.2098 C   0  0  1  0  0  0  0  0  0  0  0  0
    8.7660  -15.5424   26.3010 C   0  0  0  0  0  0  0  0  0  0  0  0
    9.3487  -15.0774   27.5765 C   0  0  0  0  0  0  0  0  0  0  0  0
    9.4007  -13.7424   27.8917 C   0  0  0  0  0  0  0  0  0  0  0  0
    9.9524  -13.3255   29.0905 C   0  0  0  0  0  0  0  0  0  0  0  0
   10.4544  -14.2472   29.9785 C   0  0  0  0  0  0  0  0  0  0  0  0
   10.4028  -15.5839   29.6638 C   0  0  0  0  0  0  0  0  0  0  0  0
    9.8472  -15.9995   28.4570 C   0  0  0  0  0  0  0  0  0  0  0  0
   10.8268  -16.7182   25.5369 C   0  0  0  0  0  0  0  0  0  0  0  0
   11.4824  -16.7316   26.6048 O   0  0  0  0  0  0  0  0  0  0  0  0
   12.1933  -22.3132   24.5559 N   0  0  0  0  0  0  0  0  0  0  0  0
   12.0627  -21.2875   25.5225 C   0  0  0  0  0  0  0  0  0  0  0  0
   12.7002  -21.3979   26.5933 O   0  0  0  0  0  0  0  0  0  0  0  0
   11.1984  -20.1250   25.2677 C   0  0  0  0  0  0  0  0  0  0  0  0
   11.9834  -18.8422   25.0165 C   0  0  2  0  0  0  0  0  0  0  0  0
   11.0950  -17.7714   24.6180 N   0  0  0  0  0  0  0  0  0  0  0  0
   12.9850  -18.9854   23.9409 C   0  0  0  0  0  0  0  0  0  0  0  0
   14.1939  -19.2108   24.1959 O   0  0  0  0  0  0  0  0  0  0  0  0
   12.6647  -18.8820   22.5781 O   0  0  0  0  0  0  0  0  0  0  0  0
  2  1  1  1
  3  2  1  0
  4  3  1  0
  4  5  2  0
  6  5  1  0
  7  6  1  0
  8  7  2  0
  9  8  1  0
 10  9  2  0
 10 11  1  0
 11 12  2  0
 12  7  1  0
 12  4  1  0
 13  2  1  0
 14 13  2  0
 15 13  1  0
 16 15  1  0
 16 17  1  1
 18 17  1  0
 18 19  2  0
 20 19  1  0
 21 20  2  0
 22 23  2  0
 22 21  1  0
 23 18  1  0
 24 16  1  0
 25 24  2  0
 26 27  1  0
 27 28  2  0
 30 29  1  6
 29 27  1  0
 30 31  1  0
 31 24  1  0
 32 34  1  0
 32 30  1  0
 33 32  2  0
M  END
$$$$
