WFN.pdb
     RDKit          3D

 34 36  0  0  1  0  0  0  0  0999 V2000
    6.0049  -17.1189   21.2765 N   0  0  0  0  0  0  0  0  0  0  0  0
    6.4923  -17.6117   22.5135 C   0  0  1  0  0  0  0  0  0  0  0  0
    7.0495  -19.0152   22.4821 C   0  0  0  0  0  0  0  0  0  0  0  0
    6.0455  -20.0663   22.6805 C   0  0  0  0  0  0  0  0  0  0  0  0
    5.2303  -20.6307   21.7274 C   0  0  0  0  0  0  0  0  0  0  0  0
    4.4546  -21.5748   22.2776 N   0  0  0  0  0  0  0  0  0  0  0  0
    4.7477  -21.6403   23.5831 C   0  0  0  0  0  0  0  0  0  0  0  0
    4.2611  -22.4110   24.5890 C   0  0  0  0  0  0  0  0  0  0  0  0
    4.7018  -22.3179   25.8906 C   0  0  0  0  0  0  0  0  0  0  0  0
    5.6807  -21.3932   26.1570 C   0  0  0  0  0  0  0  0  0  0  0  0
    6.1918  -20.6004   25.1605 C   0  0  0  0  0  0  0  0  0  0  0  0
    5.7446  -20.7019   23.8612 C   0  0  0  0  0  0  0  0  0  0  0  0
    7.4619  -16.6689   23.1622 C   0  0  0  0  0  0  0  0  0  0  0  0
    8.2406  -15.9951   22.4273 O   0  0  0  0  0  0  0  0  0  0  0  0
    7.4402  -16.5958   24.5679 N   0  0  0  0  0  0  0  0  0  0  0  0
    8.4236  -15.8720   25.2913 C   0  0  1  0  0  0  0  0  0  0  0  0
    7.8628  -15.3733   26.5996 C   0  0  0  0  0  0  0  0  0  0  0  0
    7.2353  -14.0423   26.4675 C   0  0  0  0  0  0  0  0  0  0  0  0
    7.9648  -12.9454   26.0816 C   0  0  0  0  0  0  0  0  0  0  0  0
    7.3601  -11.7060   25.9656 C   0  0  0  0  0  0  0  0  0  0  0  0
    6.0199  -11.5622   26.2364 C   0  0  0  0  0  0  0  0  0  0  0  0
    5.2888  -12.6598   26.6228 C   0  0  0  0  0  0  0  0  0  0  0  0
    5.9005  -13.9049   26.7385 C   0  0  0  0  0  0  0  0  0  0  0  0
    9.6121  -16.7782   25.5136 C   0  0  0  0  0  0  0  0  0  0  0  0
    9.5086  -18.0149   25.6868 O   0  0  0  0  0  0  0  0  0  0  0  0
   12.2331  -17.5913   22.9597 N   0  0  0  0  0  0  0  0  0  0  0  0
   13.1089  -16.6683   23.5796 C   0  0  0  0  0  0  0  0  0  0  0  0
   13.7234  -15.8553   22.8538 O   0  0  0  0  0  0  0  0  0  0  0  0
   13.2869  -16.6705   25.0397 C   0  0  0  0  0  0  0  0  0  0  0  0
   12.0443  -17.1357   25.7910 C   0  0  2  0  0  0  0  0  0  0  0  0
   10.9319  -16.2458   25.5352 N   0  0  0  0  0  0  0  0  0  0  0  0
   12.2375  -17.1641   27.2547 C   0  0  0  0  0  0  0  0  0  0  0  0
   11.6047  -16.3905   28.0152 O   0  0  0  0  0  0  0  0  0  0  0  0
   13.1273  -18.0430   27.8922 O   0  0  0  0  0  0  0  0  0  0  0  0
  2  1  1  6
  3  2  1  0
  4  3  1  0
  4  5  2  0
  6  5  1  0
  7  6  1  0
  8  7  2  0
  9  8  1  0
 10  9  2  0
 10 11  1  0
 11 12  2  0
 12  7  1  0
 12  4  1  0
 13  2  1  0
 14 13  2  0
 15 13  1  0
 16 15  1  0
 16 17  1  1
 18 17  1  0
 18 19  2  0
 20 19  1  0
 21 20  2  0
 22 23  2  0
 22 21  1  0
 23 18  1  0
 24 16  1  0
 25 24  2  0
 26 27  1  0
 27 28  2  0
 30 29  1  6
 29 27  1  0
 30 31  1  0
 31 24  1  0
 32 34  1  0
 32 30  1  0
 33 32  2  0
M  END
$$$$
