WFN.pdb
     RDKit          3D

 34 36  0  0  1  0  0  0  0  0999 V2000
   10.2454  -16.4430   21.2731 N   0  0  0  0  0  0  0  0  0  0  0  0
    9.4963  -16.0505   22.4113 C   0  0  1  0  0  0  0  0  0  0  0  0
    7.9951  -16.0939   22.2505 C   0  0  0  0  0  0  0  0  0  0  0  0
    7.4931  -15.3605   21.0834 C   0  0  0  0  0  0  0  0  0  0  0  0
    6.3642  -15.6367   20.3479 C   0  0  0  0  0  0  0  0  0  0  0  0
    6.2160  -14.7367   19.3662 N   0  0  0  0  0  0  0  0  0  0  0  0
    7.2339  -13.8694   19.4445 C   0  0  0  0  0  0  0  0  0  0  0  0
    7.5645  -12.7824   18.7017 C   0  0  0  0  0  0  0  0  0  0  0  0
    8.6790  -12.0116   18.9483 C   0  0  0  0  0  0  0  0  0  0  0  0
    9.4775  -12.3820   20.0016 C   0  0  0  0  0  0  0  0  0  0  0  0
    9.1686  -13.4760   20.7701 C   0  0  0  0  0  0  0  0  0  0  0  0
    8.0507  -14.2402   20.5155 C   0  0  0  0  0  0  0  0  0  0  0  0
    9.9195  -16.7783   23.6528 C   0  0  0  0  0  0  0  0  0  0  0  0
    9.7897  -18.0359   23.6957 O   0  0  0  0  0  0  0  0  0  0  0  0
   10.4411  -16.0006   24.7039 N   0  0  0  0  0  0  0  0  0  0  0  0
    9.5949  -15.3136   25.6130 C   0  0  1  0  0  0  0  0  0  0  0  0
    8.7462  -14.2993   24.8879 C   0  0  0  0  0  0  0  0  0  0  0  0
    7.8711  -13.5433   25.8074 C   0  0  0  0  0  0  0  0  0  0  0  0
    6.5172  -13.4609   25.5966 C   0  0  0  0  0  0  0  0  0  0  0  0
    5.7138  -12.7461   26.4676 C   0  0  0  0  0  0  0  0  0  0  0  0
    6.2660  -12.1107   27.5546 C   0  0  0  0  0  0  0  0  0  0  0  0
    7.6213  -12.1925   27.7664 C   0  0  0  0  0  0  0  0  0  0  0  0
    8.4264  -12.9124   26.8880 C   0  0  0  0  0  0  0  0  0  0  0  0
    8.7398  -16.3333   26.3287 C   0  0  0  0  0  0  0  0  0  0  0  0
    7.9508  -16.0369   27.2560 O   0  0  0  0  0  0  0  0  0  0  0  0
    6.5054  -20.7194   27.8599 N   0  0  0  0  0  0  0  0  0  0  0  0
    6.3787  -20.5418   26.4615 C   0  0  0  0  0  0  0  0  0  0  0  0
    5.5954  -21.2918   25.8376 O   0  0  0  0  0  0  0  0  0  0  0  0
    7.1509  -19.5005   25.7665 C   0  0  0  0  0  0  0  0  0  0  0  0
    8.0104  -18.6663   26.7100 C   0  0  2  0  0  0  0  0  0  0  0  0
    8.8003  -17.7083   25.9662 N   0  0  0  0  0  0  0  0  0  0  0  0
    8.9598  -19.4830   27.4924 C   0  0  0  0  0  0  0  0  0  0  0  0
    9.1481  -20.6976   27.2344 O   0  0  0  0  0  0  0  0  0  0  0  0
    9.7084  -18.9704   28.5636 O   0  0  0  0  0  0  0  0  0  0  0  0
  2  1  1  6
  3  2  1  0
  4  3  1  0
  4  5  2  0
  6  5  1  0
  7  6  1  0
  8  7  2  0
  9  8  1  0
 10  9  2  0
 10 11  1  0
 11 12  2  0
 12  7  1  0
 12  4  1  0
 13  2  1  0
 14 13  2  0
 15 13  1  0
 16 15  1  0
 16 17  1  6
 18 17  1  0
 18 19  2  0
 20 19  1  0
 21 20  2  0
 22 23  2  0
 22 21  1  0
 23 18  1  0
 24 16  1  0
 25 24  2  0
 26 27  1  0
 27 28  2  0
 30 29  1  6
 29 27  1  0
 30 31  1  0
 31 24  1  0
 32 34  1  0
 32 30  1  0
 33 32  2  0
M  END
$$$$
