WFN.pdb
     RDKit          3D

 34 36  0  0  1  0  0  0  0  0999 V2000
    6.7730  -18.9035   21.7820 N   0  0  0  0  0  0  0  0  0  0  0  0
    7.3980  -17.7141   21.3287 C   0  0  1  0  0  0  0  0  0  0  0  0
    6.4730  -16.6748   20.7409 C   0  0  0  0  0  0  0  0  0  0  0  0
    7.1614  -15.5305   20.1336 C   0  0  0  0  0  0  0  0  0  0  0  0
    7.6099  -15.4193   18.8382 C   0  0  0  0  0  0  0  0  0  0  0  0
    8.1730  -14.2193   18.6415 N   0  0  0  0  0  0  0  0  0  0  0  0
    8.1019  -13.5367   19.7919 C   0  0  0  0  0  0  0  0  0  0  0  0
    8.5187  -12.2929   20.1410 C   0  0  0  0  0  0  0  0  0  0  0  0
    8.3521  -11.7690   21.4038 C   0  0  0  0  0  0  0  0  0  0  0  0
    7.7318  -12.5632   22.3359 C   0  0  0  0  0  0  0  0  0  0  0  0
    7.2996  -13.8246   22.0119 C   0  0  0  0  0  0  0  0  0  0  0  0
    7.4706  -14.3394   20.7453 C   0  0  0  0  0  0  0  0  0  0  0  0
    8.2899  -17.1047   22.3694 C   0  0  0  0  0  0  0  0  0  0  0  0
    9.4610  -16.7577   22.0404 O   0  0  0  0  0  0  0  0  0  0  0  0
    7.7554  -16.9576   23.6635 N   0  0  0  0  0  0  0  0  0  0  0  0
    8.5040  -16.3695   24.7160 C   0  0  1  0  0  0  0  0  0  0  0  0
    7.5905  -15.6819   25.6997 C   0  0  0  0  0  0  0  0  0  0  0  0
    8.3354  -14.8475   26.6650 C   0  0  0  0  0  0  0  0  0  0  0  0
    8.3899  -13.4822   26.5338 C   0  0  0  0  0  0  0  0  0  0  0  0
    9.0945  -12.7172   27.4467 C   0  0  0  0  0  0  0  0  0  0  0  0
    9.7478  -13.3196   28.4958 C   0  0  0  0  0  0  0  0  0  0  0  0
    9.6938  -14.6864   28.6279 C   0  0  0  0  0  0  0  0  0  0  0  0
    8.9841  -15.4526   27.7075 C   0  0  0  0  0  0  0  0  0  0  0  0
    9.3146  -17.4546   25.3859 C   0  0  0  0  0  0  0  0  0  0  0  0
    8.8304  -18.5572   25.7324 O   0  0  0  0  0  0  0  0  0  0  0  0
   13.2344  -20.6004   26.2390 N   0  0  0  0  0  0  0  0  0  0  0  0
   13.2544  -19.9361   24.9894 C   0  0  0  0  0  0  0  0  0  0  0  0
   14.0175  -20.3719   24.0989 O   0  0  0  0  0  0  0  0  0  0  0  0
   12.3975  -18.7645   24.7511 C   0  0  0  0  0  0  0  0  0  0  0  0
   11.5256  -18.4100   25.9507 C   0  0  2  0  0  0  0  0  0  0  0  0
   10.6982  -17.2595   25.6564 N   0  0  0  0  0  0  0  0  0  0  0  0
   12.3148  -18.0694   27.1513 C   0  0  0  0  0  0  0  0  0  0  0  0
   12.3705  -18.8411   28.1406 O   0  0  0  0  0  0  0  0  0  0  0  0
   13.0481  -16.8785   27.2727 O   0  0  0  0  0  0  0  0  0  0  0  0
  2  1  1  1
  3  2  1  0
  4  3  1  0
  4  5  2  0
  6  5  1  0
  7  6  1  0
  8  7  2  0
  9  8  1  0
 10  9  2  0
 10 11  1  0
 11 12  2  0
 12  7  1  0
 12  4  1  0
 13  2  1  0
 14 13  2  0
 15 13  1  0
 16 15  1  0
 16 17  1  1
 18 17  1  0
 18 19  2  0
 20 19  1  0
 21 20  2  0
 22 23  2  0
 22 21  1  0
 23 18  1  0
 24 16  1  0
 25 24  2  0
 26 27  1  0
 27 28  2  0
 30 29  1  6
 29 27  1  0
 30 31  1  0
 31 24  1  0
 32 34  1  0
 32 30  1  0
 33 32  2  0
M  END
$$$$
