WFN.pdb
     RDKit          3D

 34 36  0  0  1  0  0  0  0  0999 V2000
    7.8898  -18.6393   21.8350 N   0  0  0  0  0  0  0  0  0  0  0  0
    8.1787  -17.3122   21.4275 C   0  0  1  0  0  0  0  0  0  0  0  0
    7.1226  -16.6467   20.5772 C   0  0  0  0  0  0  0  0  0  0  0  0
    7.5566  -15.3943   19.9487 C   0  0  0  0  0  0  0  0  0  0  0  0
    8.0576  -15.2290   18.6785 C   0  0  0  0  0  0  0  0  0  0  0  0
    8.3272  -13.9367   18.4485 N   0  0  0  0  0  0  0  0  0  0  0  0
    8.0106  -13.2465   19.5520 C   0  0  0  0  0  0  0  0  0  0  0  0
    8.0886  -11.9255   19.8547 C   0  0  0  0  0  0  0  0  0  0  0  0
    7.7096  -11.4078   21.0734 C   0  0  0  0  0  0  0  0  0  0  0  0
    7.2336  -12.2914   22.0098 C   0  0  0  0  0  0  0  0  0  0  0  0
    7.1431  -13.6322   21.7323 C   0  0  0  0  0  0  0  0  0  0  0  0
    7.5243  -14.1401   20.5095 C   0  0  0  0  0  0  0  0  0  0  0  0
    8.5667  -16.4325   22.5789 C   0  0  0  0  0  0  0  0  0  0  0  0
    9.0512  -15.2895   22.3358 O   0  0  0  0  0  0  0  0  0  0  0  0
    8.3626  -16.9460   23.8736 N   0  0  0  0  0  0  0  0  0  0  0  0
    8.5421  -16.1432   25.0301 C   0  0  1  0  0  0  0  0  0  0  0  0
    7.2293  -15.5485   25.4747 C   0  0  0  0  0  0  0  0  0  0  0  0
    7.3127  -14.0850   25.6591 C   0  0  0  0  0  0  0  0  0  0  0  0
    8.5014  -13.4720   25.9677 C   0  0  0  0  0  0  0  0  0  0  0  0
    8.5596  -12.0999   26.1389 C   0  0  0  0  0  0  0  0  0  0  0  0
    7.4243  -11.3369   26.0011 C   0  0  0  0  0  0  0  0  0  0  0  0
    6.2337  -11.9497   25.6922 C   0  0  0  0  0  0  0  0  0  0  0  0
    6.1791  -13.3302   25.5208 C   0  0  0  0  0  0  0  0  0  0  0  0
    9.1507  -17.0019   26.1143 C   0  0  0  0  0  0  0  0  0  0  0  0
    9.2681  -16.6241   27.3033 O   0  0  0  0  0  0  0  0  0  0  0  0
   12.3901  -19.6220   23.5390 N   0  0  0  0  0  0  0  0  0  0  0  0
   12.7989  -18.4346   24.1917 C   0  0  0  0  0  0  0  0  0  0  0  0
   13.9741  -18.0400   24.0227 O   0  0  0  0  0  0  0  0  0  0  0  0
   11.8610  -17.6889   25.0449 C   0  0  0  0  0  0  0  0  0  0  0  0
   11.0396  -18.5918   25.9586 C   0  0  2  0  0  0  0  0  0  0  0  0
    9.6271  -18.3097   25.8173 N   0  0  0  0  0  0  0  0  0  0  0  0
   11.3677  -18.4113   27.3871 C   0  0  0  0  0  0  0  0  0  0  0  0
   10.5227  -17.9677   28.2034 O   0  0  0  0  0  0  0  0  0  0  0  0
   12.6266  -18.7172   27.9277 O   0  0  0  0  0  0  0  0  0  0  0  0
  2  1  1  1
  3  2  1  0
  4  3  1  0
  4  5  2  0
  6  5  1  0
  7  6  1  0
  8  7  2  0
  9  8  1  0
 10  9  2  0
 10 11  1  0
 11 12  2  0
 12  7  1  0
 12  4  1  0
 13  2  1  0
 14 13  2  0
 15 13  1  0
 16 15  1  0
 16 17  1  1
 18 17  1  0
 18 19  2  0
 20 19  1  0
 21 20  2  0
 22 23  2  0
 22 21  1  0
 23 18  1  0
 24 16  1  0
 25 24  2  0
 26 27  1  0
 27 28  2  0
 30 29  1  6
 29 27  1  0
 30 31  1  0
 31 24  1  0
 32 34  1  0
 32 30  1  0
 33 32  2  0
M  END
$$$$
