WFN.pdb
     RDKit          3D

 34 36  0  0  1  0  0  0  0  0999 V2000
    7.7929  -18.8002   21.8139 N   0  0  0  0  0  0  0  0  0  0  0  0
    8.9166  -18.0498   21.3839 C   0  0  1  0  0  0  0  0  0  0  0  0
    8.7367  -17.2890   20.0916 C   0  0  0  0  0  0  0  0  0  0  0  0
    7.8026  -16.1615   20.1816 C   0  0  0  0  0  0  0  0  0  0  0  0
    6.4295  -16.2189   20.2342 C   0  0  0  0  0  0  0  0  0  0  0  0
    5.9150  -14.9855   20.3325 N   0  0  0  0  0  0  0  0  0  0  0  0
    6.9322  -14.1140   20.3451 C   0  0  0  0  0  0  0  0  0  0  0  0
    6.9712  -12.7594   20.4240 C   0  0  0  0  0  0  0  0  0  0  0  0
    8.1440  -12.0373   20.4159 C   0  0  0  0  0  0  0  0  0  0  0  0
    9.3162  -12.7454   20.3224 C   0  0  0  0  0  0  0  0  0  0  0  0
    9.3080  -14.1152   20.2414 C   0  0  0  0  0  0  0  0  0  0  0  0
    8.1291  -14.8284   20.2510 C   0  0  0  0  0  0  0  0  0  0  0  0
    9.4496  -17.1513   22.4603 C   0  0  0  0  0  0  0  0  0  0  0  0
   10.5360  -16.5358   22.2573 O   0  0  0  0  0  0  0  0  0  0  0  0
    8.6932  -17.0516   23.6434 N   0  0  0  0  0  0  0  0  0  0  0  0
    9.0382  -16.1381   24.6733 C   0  0  1  0  0  0  0  0  0  0  0  0
    7.8011  -15.6264   25.3678 C   0  0  0  0  0  0  0  0  0  0  0  0
    8.1068  -14.5508   26.3334 C   0  0  0  0  0  0  0  0  0  0  0  0
    8.8187  -14.8030   27.4796 C   0  0  0  0  0  0  0  0  0  0  0  0
    9.0936  -13.7830   28.3736 C   0  0  0  0  0  0  0  0  0  0  0  0
    8.6548  -12.5048   28.1209 C   0  0  0  0  0  0  0  0  0  0  0  0
    7.9419  -12.2514   26.9737 C   0  0  0  0  0  0  0  0  0  0  0  0
    7.6673  -13.2800   26.0768 C   0  0  0  0  0  0  0  0  0  0  0  0
    9.9602  -16.8412   25.6421 C   0  0  0  0  0  0  0  0  0  0  0  0
    9.6390  -17.8818   26.2621 O   0  0  0  0  0  0  0  0  0  0  0  0
   14.4873  -15.3292   24.4808 N   0  0  0  0  0  0  0  0  0  0  0  0
   14.0063  -16.5477   25.0168 C   0  0  0  0  0  0  0  0  0  0  0  0
   13.9124  -17.5346   24.2536 O   0  0  0  0  0  0  0  0  0  0  0  0
   13.6287  -16.6438   26.4352 C   0  0  0  0  0  0  0  0  0  0  0  0
   12.2035  -17.1457   26.6398 C   0  0  2  0  0  0  0  0  0  0  0  0
   11.2657  -16.3335   25.8942 N   0  0  0  0  0  0  0  0  0  0  0  0
   11.7770  -17.0977   28.0527 C   0  0  0  0  0  0  0  0  0  0  0  0
   12.4471  -17.6509   28.9595 O   0  0  0  0  0  0  0  0  0  0  0  0
   10.6114  -16.4414   28.4784 O   0  0  0  0  0  0  0  0  0  0  0  0
  2  1  1  1
  3  2  1  0
  4  3  1  0
  4  5  2  0
  6  5  1  0
  7  6  1  0
  8  7  2  0
  9  8  1  0
 10  9  2  0
 10 11  1  0
 11 12  2  0
 12  7  1  0
 12  4  1  0
 13  2  1  0
 14 13  2  0
 15 13  1  0
 16 15  1  0
 16 17  1  1
 18 17  1  0
 18 19  2  0
 20 19  1  0
 21 20  2  0
 22 23  2  0
 22 21  1  0
 23 18  1  0
 24 16  1  0
 25 24  2  0
 26 27  1  0
 27 28  2  0
 30 29  1  1
 29 27  1  0
 30 31  1  0
 31 24  1  0
 32 34  1  0
 32 30  1  0
 33 32  2  0
M  END
$$$$
