YAG.pdb
     RDKit          3D

 22 22  0  0  1  0  0  0  0  0999 V2000
    5.9612  -10.4137   28.0917 O   0  0  0  0  0  0  0  0  0  0  0  0
    6.4660  -11.4919   27.3624 C   0  0  0  0  0  0  0  0  0  0  0  0
    6.0747  -11.7665   26.0681 C   0  0  0  0  0  0  0  0  0  0  0  0
    6.5814  -12.8361   25.3570 C   0  0  0  0  0  0  0  0  0  0  0  0
    7.5132  -13.6816   25.9277 C   0  0  0  0  0  0  0  0  0  0  0  0
    8.0869  -14.8449   25.2026 C   0  0  0  0  0  0  0  0  0  0  0  0
    7.0136  -15.7989   24.7306 C   0  0  2  0  0  0  0  0  0  0  0  0
    6.9092  -16.9341   25.5970 N   0  0  0  0  0  0  0  0  0  0  0  0
    7.3993  -16.2197   23.3464 C   0  0  0  0  0  0  0  0  0  0  0  0
    7.7496  -17.4070   23.1592 O   0  0  0  0  0  0  0  0  0  0  0  0
    7.9028  -13.4052   27.2215 C   0  0  0  0  0  0  0  0  0  0  0  0
    7.3963  -12.3347   27.9341 C   0  0  0  0  0  0  0  0  0  0  0  0
    7.1487  -14.6946   19.8862 C   0  0  0  0  0  0  0  0  0  0  0  0
    7.6701  -15.6819   20.9012 C   0  0  2  0  0  0  0  0  0  0  0  0
    7.3747  -15.3073   22.2584 N   0  0  0  0  0  0  0  0  0  0  0  0
    9.1163  -15.9765   20.7082 C   0  0  0  0  0  0  0  0  0  0  0  0
    9.5458  -16.4110   19.6018 O   0  0  0  0  0  0  0  0  0  0  0  0
   10.0743  -15.7882   21.7398 N   0  0  0  0  0  0  0  0  0  0  0  0
   11.4963  -15.8784   21.5184 C   0  0  0  0  0  0  0  0  0  0  0  0
   12.0347  -17.2199   21.7852 C   0  0  0  0  0  0  0  0  0  0  0  0
   11.2707  -18.2035   21.8321 O   0  0  0  0  0  0  0  0  0  0  0  0
   13.3864  -17.3880   21.9834 O   0  0  0  0  0  0  0  0  0  0  0  0
  2  1  1  0
  2 12  2  0
  3  2  1  0
  4  3  2  0
  4  5  1  0
  5 11  2  0
  6  7  1  0
  6  5  1  0
  7  8  1  1
  9  7  1  0
  9 10  2  0
 11 12  1  0
 14 13  1  6
 14 15  1  0
 14 16  1  0
 15  9  1  0
 16 18  1  0
 17 16  2  0
 18 19  1  0
 19 20  1  0
 20 21  2  0
 20 22  1  0
M  END
$$$$
