YAG.pdb
     RDKit          3D

 22 22  0  0  1  0  0  0  0  0999 V2000
    6.9630  -12.7064   17.1745 O   0  0  0  0  0  0  0  0  0  0  0  0
    7.3972  -13.1872   18.4112 C   0  0  0  0  0  0  0  0  0  0  0  0
    6.5468  -13.3665   19.4828 C   0  0  0  0  0  0  0  0  0  0  0  0
    6.9884  -13.8429   20.7014 C   0  0  0  0  0  0  0  0  0  0  0  0
    8.3193  -14.1613   20.8913 C   0  0  0  0  0  0  0  0  0  0  0  0
    8.8413  -14.6768   22.1835 C   0  0  0  0  0  0  0  0  0  0  0  0
    9.0522  -16.1732   22.1484 C   0  0  2  0  0  0  0  0  0  0  0  0
    7.8083  -16.8708   22.0208 N   0  0  0  0  0  0  0  0  0  0  0  0
    9.7361  -16.5351   23.4303 C   0  0  0  0  0  0  0  0  0  0  0  0
    9.0935  -16.4309   24.4998 O   0  0  0  0  0  0  0  0  0  0  0  0
    9.1674  -13.9812   19.8187 C   0  0  0  0  0  0  0  0  0  0  0  0
    8.7264  -13.5044   18.5986 C   0  0  0  0  0  0  0  0  0  0  0  0
   11.8486  -18.7940   24.9370 C   0  0  0  0  0  0  0  0  0  0  0  0
   11.7910  -17.3115   24.6617 C   0  0  2  0  0  0  0  0  0  0  0  0
   11.0819  -16.9877   23.4525 N   0  0  0  0  0  0  0  0  0  0  0  0
   13.1376  -16.6787   24.7026 C   0  0  0  0  0  0  0  0  0  0  0  0
   13.8594  -16.7606   25.7368 O   0  0  0  0  0  0  0  0  0  0  0  0
   13.6739  -15.9615   23.6003 N   0  0  0  0  0  0  0  0  0  0  0  0
   14.9847  -15.3607   23.6156 C   0  0  0  0  0  0  0  0  0  0  0  0
   16.0516  -16.3016   23.2456 C   0  0  0  0  0  0  0  0  0  0  0  0
   15.7899  -17.5074   23.0691 O   0  0  0  0  0  0  0  0  0  0  0  0
   17.3423  -15.8480   23.0941 O   0  0  0  0  0  0  0  0  0  0  0  0
  2  1  1  0
  2 12  2  0
  3  2  1  0
  4  3  2  0
  4  5  1  0
  5 11  2  0
  6  7  1  0
  6  5  1  0
  7  8  1  1
  9  7  1  0
  9 10  2  0
 11 12  1  0
 14 13  1  6
 14 15  1  0
 14 16  1  0
 15  9  1  0
 16 18  1  0
 17 16  2  0
 18 19  1  0
 19 20  1  0
 20 21  2  0
 20 22  1  0
M  END
$$$$
