YAG.pdb
     RDKit          3D

 22 22  0  0  1  0  0  0  0  0999 V2000
   10.5553  -14.3174   30.5962 O   0  0  0  0  0  0  0  0  0  0  0  0
   10.2239  -14.6040   29.2707 C   0  0  0  0  0  0  0  0  0  0  0  0
   10.4511  -15.8367   28.6941 C   0  0  0  0  0  0  0  0  0  0  0  0
   10.1188  -16.1081   27.3816 C   0  0  0  0  0  0  0  0  0  0  0  0
    9.5377  -15.1375   26.5884 C   0  0  0  0  0  0  0  0  0  0  0  0
    9.1628  -15.3822   25.1715 C   0  0  0  0  0  0  0  0  0  0  0  0
    7.6673  -15.5214   25.0010 C   0  0  2  0  0  0  0  0  0  0  0  0
    7.1657  -16.6556   25.7166 N   0  0  0  0  0  0  0  0  0  0  0  0
    7.4199  -15.6674   23.5315 C   0  0  0  0  0  0  0  0  0  0  0  0
    7.1020  -16.7945   23.0888 O   0  0  0  0  0  0  0  0  0  0  0  0
    9.3115  -13.9062   27.1669 C   0  0  0  0  0  0  0  0  0  0  0  0
    9.6438  -13.6336   28.4805 C   0  0  0  0  0  0  0  0  0  0  0  0
    6.8436  -13.3126   20.6438 C   0  0  0  0  0  0  0  0  0  0  0  0
    7.2426  -14.6405   21.2390 C   0  0  2  0  0  0  0  0  0  0  0  0
    7.5384  -14.5645   22.6448 N   0  0  0  0  0  0  0  0  0  0  0  0
    8.3408  -15.2925   20.4745 C   0  0  0  0  0  0  0  0  0  0  0  0
    8.2285  -15.5028   19.2334 O   0  0  0  0  0  0  0  0  0  0  0  0
    9.5527  -15.7060   21.0889 N   0  0  0  0  0  0  0  0  0  0  0  0
   10.6456  -16.2946   20.3551 C   0  0  0  0  0  0  0  0  0  0  0  0
   11.8392  -16.5174   21.1836 C   0  0  0  0  0  0  0  0  0  0  0  0
   12.9136  -16.8621   20.6541 O   0  0  0  0  0  0  0  0  0  0  0  0
   11.7680  -16.3444   22.5472 O   0  0  0  0  0  0  0  0  0  0  0  0
  2  1  1  0
  2 12  2  0
  3  2  1  0
  4  3  2  0
  4  5  1  0
  5 11  2  0
  6  7  1  0
  6  5  1  0
  7  8  1  1
  9  7  1  0
  9 10  2  0
 11 12  1  0
 14 13  1  6
 14 15  1  0
 14 16  1  0
 15  9  1  0
 16 18  1  0
 17 16  2  0
 18 19  1  0
 19 20  1  0
 20 21  2  0
 20 22  1  0
M  END
$$$$
