YAG.pdb
     RDKit          3D

 22 22  0  0  1  0  0  0  0  0999 V2000
    5.4566  -10.7460   28.4281 O   0  0  0  0  0  0  0  0  0  0  0  0
    6.1590  -11.6288   27.6056 C   0  0  0  0  0  0  0  0  0  0  0  0
    7.5047  -11.8879   27.7655 C   0  0  0  0  0  0  0  0  0  0  0  0
    8.1885  -12.7634   26.9454 C   0  0  0  0  0  0  0  0  0  0  0  0
    7.5365  -13.4205   25.9197 C   0  0  0  0  0  0  0  0  0  0  0  0
    8.2293  -14.3711   25.0117 C   0  0  0  0  0  0  0  0  0  0  0  0
    7.3632  -15.5646   24.6794 C   0  0  2  0  0  0  0  0  0  0  0  0
    7.3642  -16.5207   25.7451 N   0  0  0  0  0  0  0  0  0  0  0  0
    7.9272  -16.1622   23.4277 C   0  0  0  0  0  0  0  0  0  0  0  0
    8.4926  -17.2769   23.5006 O   0  0  0  0  0  0  0  0  0  0  0  0
    6.1914  -13.1600   25.7618 C   0  0  0  0  0  0  0  0  0  0  0  0
    5.5061  -12.2838   26.5822 C   0  0  0  0  0  0  0  0  0  0  0  0
    7.6651  -15.4286   19.7238 C   0  0  0  0  0  0  0  0  0  0  0  0
    8.2989  -16.0594   20.9392 C   0  0  2  0  0  0  0  0  0  0  0  0
    7.8326  -15.4951   22.1776 N   0  0  0  0  0  0  0  0  0  0  0  0
    9.7851  -16.0692   20.8577 C   0  0  0  0  0  0  0  0  0  0  0  0
   10.3735  -16.5116   19.8304 O   0  0  0  0  0  0  0  0  0  0  0  0
   10.6070  -15.5902   21.9123 N   0  0  0  0  0  0  0  0  0  0  0  0
   12.0478  -15.6214   21.8627 C   0  0  0  0  0  0  0  0  0  0  0  0
   12.6068  -16.9281   22.2376 C   0  0  0  0  0  0  0  0  0  0  0  0
   12.0544  -17.6164   23.1178 O   0  0  0  0  0  0  0  0  0  0  0  0
   13.7431  -17.3910   21.6139 O   0  0  0  0  0  0  0  0  0  0  0  0
  2  1  1  0
  2 12  2  0
  3  2  1  0
  4  3  2  0
  4  5  1  0
  5 11  2  0
  6  7  1  0
  6  5  1  0
  7  8  1  1
  9  7  1  0
  9 10  2  0
 11 12  1  0
 14 13  1  6
 14 15  1  0
 14 16  1  0
 15  9  1  0
 16 18  1  0
 17 16  2  0
 18 19  1  0
 19 20  1  0
 20 21  2  0
 20 22  1  0
M  END
$$$$
