YAG.pdb
     RDKit          3D

 22 22  0  0  1  0  0  0  0  0999 V2000
    1.8351  -26.6263   38.7107 O   0  0  0  0  0  0  0  0  0  0  0  0
    2.7410  -26.4853   37.6578 C   0  0  0  0  0  0  0  0  0  0  0  0
    2.3435  -26.3594   36.3426 C   0  0  0  0  0  0  0  0  0  0  0  0
    3.2493  -26.2206   35.3098 C   0  0  0  0  0  0  0  0  0  0  0  0
    4.6074  -26.2027   35.5633 C   0  0  0  0  0  0  0  0  0  0  0  0
    5.6198  -26.0556   34.4857 C   0  0  0  0  0  0  0  0  0  0  0  0
    5.6920  -27.2854   33.6097 C   0  0  2  0  0  0  0  0  0  0  0  0
    6.1489  -28.4238   34.3481 N   0  0  0  0  0  0  0  0  0  0  0  0
    6.6387  -26.9580   32.4968 C   0  0  0  0  0  0  0  0  0  0  0  0
    7.8378  -27.2987   32.6135 O   0  0  0  0  0  0  0  0  0  0  0  0
    5.0023  -26.3286   36.8787 C   0  0  0  0  0  0  0  0  0  0  0  0
    4.0964  -26.4677   37.9132 C   0  0  0  0  0  0  0  0  0  0  0  0
    6.2695  -25.7599   28.9237 C   0  0  0  0  0  0  0  0  0  0  0  0
    7.0469  -26.0481   30.1845 C   0  0  2  0  0  0  0  0  0  0  0  0
    6.2051  -26.2775   31.3283 N   0  0  0  0  0  0  0  0  0  0  0  0
    8.0830  -25.0143   30.4554 C   0  0  0  0  0  0  0  0  0  0  0  0
    8.9188  -24.6876   29.5655 O   0  0  0  0  0  0  0  0  0  0  0  0
    8.1856  -24.3513   31.7072 N   0  0  0  0  0  0  0  0  0  0  0  0
    9.1960  -23.3631   31.9933 C   0  0  0  0  0  0  0  0  0  0  0  0
   10.5410  -23.9405   32.1297 C   0  0  0  0  0  0  0  0  0  0  0  0
   11.5026  -23.2177   32.4557 O   0  0  0  0  0  0  0  0  0  0  0  0
   10.7366  -25.2828   31.8963 O   0  0  0  0  0  0  0  0  0  0  0  0
  2  1  1  0
  2 12  2  0
  3  2  1  0
  4  3  2  0
  4  5  1  0
  5 11  2  0
  6  7  1  0
  6  5  1  0
  7  8  1  1
  9  7  1  0
  9 10  2  0
 11 12  1  0
 14 13  1  6
 14 15  1  0
 14 16  1  0
 15  9  1  0
 16 18  1  0
 17 16  2  0
 18 19  1  0
 19 20  1  0
 20 21  2  0
 20 22  1  0
M  END
$$$$
