YAG.pdb
     RDKit          3D

 22 22  0  0  1  0  0  0  0  0999 V2000
    8.3993  -12.1800   18.3320 O   0  0  0  0  0  0  0  0  0  0  0  0
    8.0246  -12.9072   19.4633 C   0  0  0  0  0  0  0  0  0  0  0  0
    6.8838  -13.6818   19.5090 C   0  0  0  0  0  0  0  0  0  0  0  0
    6.5238  -14.3967   20.6342 C   0  0  0  0  0  0  0  0  0  0  0  0
    7.3076  -14.3594   21.7714 C   0  0  0  0  0  0  0  0  0  0  0  0
    6.9617  -15.1112   23.0056 C   0  0  0  0  0  0  0  0  0  0  0  0
    7.4065  -16.5538   22.9291 C   0  0  2  0  0  0  0  0  0  0  0  0
    6.8386  -17.2136   21.7923 N   0  0  0  0  0  0  0  0  0  0  0  0
    6.9574  -17.2038   24.2010 C   0  0  0  0  0  0  0  0  0  0  0  0
    5.7319  -17.3918   24.3749 O   0  0  0  0  0  0  0  0  0  0  0  0
    8.4475  -13.5845   21.7233 C   0  0  0  0  0  0  0  0  0  0  0  0
    8.8086  -12.8686   20.5976 C   0  0  0  0  0  0  0  0  0  0  0  0
    7.9734  -20.0049   24.6642 C   0  0  0  0  0  0  0  0  0  0  0  0
    7.9502  -18.9392   25.7322 C   0  0  2  0  0  0  0  0  0  0  0  0
    7.8852  -17.6047   25.1985 N   0  0  0  0  0  0  0  0  0  0  0  0
    9.0648  -19.0944   26.7064 C   0  0  0  0  0  0  0  0  0  0  0  0
    9.4084  -20.2385   27.1190 O   0  0  0  0  0  0  0  0  0  0  0  0
    9.7892  -17.9838   27.2154 N   0  0  0  0  0  0  0  0  0  0  0  0
   10.9668  -18.1223   28.0360 C   0  0  0  0  0  0  0  0  0  0  0  0
   10.6726  -18.6422   29.3790 C   0  0  0  0  0  0  0  0  0  0  0  0
    9.5090  -18.9699   29.6827 O   0  0  0  0  0  0  0  0  0  0  0  0
   11.6860  -18.7667   30.3021 O   0  0  0  0  0  0  0  0  0  0  0  0
  2  1  1  0
  2 12  2  0
  3  2  1  0
  4  3  2  0
  4  5  1  0
  5 11  2  0
  6  7  1  0
  6  5  1  0
  7  8  1  6
  9  7  1  0
  9 10  2  0
 11 12  1  0
 14 13  1  6
 14 15  1  0
 14 16  1  0
 15  9  1  0
 16 18  1  0
 17 16  2  0
 18 19  1  0
 19 20  1  0
 20 21  2  0
 20 22  1  0
M  END
$$$$
