YAG.pdb
     RDKit          3D

 22 22  0  0  1  0  0  0  0  0999 V2000
    5.9574  -10.7926   28.3683 O   0  0  0  0  0  0  0  0  0  0  0  0
    6.4318  -11.7533   27.4733 C   0  0  0  0  0  0  0  0  0  0  0  0
    7.6710  -12.3462   27.6019 C   0  0  0  0  0  0  0  0  0  0  0  0
    8.1291  -13.2955   26.7099 C   0  0  0  0  0  0  0  0  0  0  0  0
    7.3483  -13.6901   25.6406 C   0  0  0  0  0  0  0  0  0  0  0  0
    7.7978  -14.7073   24.6550 C   0  0  0  0  0  0  0  0  0  0  0  0
    6.8930  -15.9181   24.6434 C   0  0  2  0  0  0  0  0  0  0  0  0
    6.9184  -16.5984   25.9030 N   0  0  0  0  0  0  0  0  0  0  0  0
    7.3906  -16.8087   23.5475 C   0  0  0  0  0  0  0  0  0  0  0  0
    6.8344  -17.9179   23.3808 O   0  0  0  0  0  0  0  0  0  0  0  0
    6.1101  -13.0962   25.5141 C   0  0  0  0  0  0  0  0  0  0  0  0
    5.6506  -12.1459   26.4064 C   0  0  0  0  0  0  0  0  0  0  0  0
    7.5667  -14.5038   21.4553 C   0  0  0  0  0  0  0  0  0  0  0  0
    8.2874  -15.8287   21.4081 C   0  0  2  0  0  0  0  0  0  0  0  0
    8.4674  -16.4215   22.7065 N   0  0  0  0  0  0  0  0  0  0  0  0
    9.5670  -15.7467   20.6523 C   0  0  0  0  0  0  0  0  0  0  0  0
    9.6318  -15.1210   19.5562 O   0  0  0  0  0  0  0  0  0  0  0  0
   10.7632  -16.3569   21.1151 N   0  0  0  0  0  0  0  0  0  0  0  0
   11.6319  -15.7451   22.0901 C   0  0  0  0  0  0  0  0  0  0  0  0
   12.7907  -16.5824   22.4318 C   0  0  0  0  0  0  0  0  0  0  0  0
   12.8933  -17.7320   21.9611 O   0  0  0  0  0  0  0  0  0  0  0  0
   13.7637  -16.0939   23.2738 O   0  0  0  0  0  0  0  0  0  0  0  0
  2  1  1  0
  2 12  2  0
  3  2  1  0
  4  3  2  0
  4  5  1  0
  5 11  2  0
  6  7  1  0
  6  5  1  0
  7  8  1  1
  9  7  1  0
  9 10  2  0
 11 12  1  0
 14 13  1  1
 14 15  1  0
 14 16  1  0
 15  9  1  0
 16 18  1  0
 17 16  2  0
 18 19  1  0
 19 20  1  0
 20 21  2  0
 20 22  1  0
M  END
$$$$
