YAG.pdb
     RDKit          3D

 22 22  0  0  1  0  0  0  0  0999 V2000
    5.5170  -10.6310   28.4722 O   0  0  0  0  0  0  0  0  0  0  0  0
    6.1389  -11.5399   27.6141 C   0  0  0  0  0  0  0  0  0  0  0  0
    7.2357  -12.2890   27.9877 C   0  0  0  0  0  0  0  0  0  0  0  0
    7.8422  -13.1849   27.1298 C   0  0  0  0  0  0  0  0  0  0  0  0
    7.3627  -13.3641   25.8464 C   0  0  0  0  0  0  0  0  0  0  0  0
    7.9814  -14.3158   24.8876 C   0  0  0  0  0  0  0  0  0  0  0  0
    6.9872  -15.3404   24.3909 C   0  0  2  0  0  0  0  0  0  0  0  0
    6.8128  -16.3984   25.3397 N   0  0  0  0  0  0  0  0  0  0  0  0
    7.5315  -15.8680   23.0996 C   0  0  0  0  0  0  0  0  0  0  0  0
    7.9462  -17.0488   23.0648 O   0  0  0  0  0  0  0  0  0  0  0  0
    6.2664  -12.6142   25.4752 C   0  0  0  0  0  0  0  0  0  0  0  0
    5.6586  -11.7172   26.3333 C   0  0  0  0  0  0  0  0  0  0  0  0
    7.5039  -14.7049   19.4982 C   0  0  0  0  0  0  0  0  0  0  0  0
    7.9917  -15.5579   20.6433 C   0  0  2  0  0  0  0  0  0  0  0  0
    7.5843  -15.0628   21.9312 N   0  0  0  0  0  0  0  0  0  0  0  0
    9.4589  -15.7998   20.5796 C   0  0  0  0  0  0  0  0  0  0  0  0
    9.9886  -16.2932   19.5436 O   0  0  0  0  0  0  0  0  0  0  0  0
   10.3270  -15.4942   21.6614 N   0  0  0  0  0  0  0  0  0  0  0  0
   11.7608  -15.6251   21.5804 C   0  0  0  0  0  0  0  0  0  0  0  0
   12.2486  -16.9169   22.0842 C   0  0  0  0  0  0  0  0  0  0  0  0
   11.5256  -17.9298   22.0142 O   0  0  0  0  0  0  0  0  0  0  0  0
   13.5071  -17.0061   22.6342 O   0  0  0  0  0  0  0  0  0  0  0  0
  2  1  1  0
  2 12  2  0
  3  2  1  0
  4  3  2  0
  4  5  1  0
  5 11  2  0
  6  7  1  0
  6  5  1  0
  7  8  1  1
  9  7  1  0
  9 10  2  0
 11 12  1  0
 14 13  1  6
 14 15  1  0
 14 16  1  0
 15  9  1  0
 16 18  1  0
 17 16  2  0
 18 19  1  0
 19 20  1  0
 20 21  2  0
 20 22  1  0
M  END
$$$$
