YAG.pdb
     RDKit          3D

 22 22  0  0  1  0  0  0  0  0999 V2000
   -2.4548  -21.6094   24.6446 O   0  0  0  0  0  0  0  0  0  0  0  0
   -3.0009  -20.9861   23.5210 C   0  0  0  0  0  0  0  0  0  0  0  0
   -3.3517  -19.6518   23.5040 C   0  0  0  0  0  0  0  0  0  0  0  0
   -3.8912  -19.0466   22.3863 C   0  0  0  0  0  0  0  0  0  0  0  0
   -4.1013  -19.7695   21.2277 C   0  0  0  0  0  0  0  0  0  0  0  0
   -4.6788  -19.1626   20.0005 C   0  0  0  0  0  0  0  0  0  0  0  0
   -6.1306  -18.7860   20.1885 C   0  0  2  0  0  0  0  0  0  0  0  0
   -6.9358  -19.9384   20.4599 N   0  0  0  0  0  0  0  0  0  0  0  0
   -6.5639  -18.1211   18.9188 C   0  0  0  0  0  0  0  0  0  0  0  0
   -7.3993  -18.7069   18.1933 O   0  0  0  0  0  0  0  0  0  0  0  0
   -3.7499  -21.1030   21.2472 C   0  0  0  0  0  0  0  0  0  0  0  0
   -3.2098  -21.7097   22.3655 C   0  0  0  0  0  0  0  0  0  0  0  0
   -6.3410  -14.6711   17.4358 C   0  0  0  0  0  0  0  0  0  0  0  0
   -6.4484  -16.1723   17.3281 C   0  0  2  0  0  0  0  0  0  0  0  0
   -6.0502  -16.8557   18.5298 N   0  0  0  0  0  0  0  0  0  0  0  0
   -5.7448  -16.7022   16.1283 C   0  0  0  0  0  0  0  0  0  0  0  0
   -6.0064  -16.2555   14.9753 O   0  0  0  0  0  0  0  0  0  0  0  0
   -4.7587  -17.7208   16.2139 N   0  0  0  0  0  0  0  0  0  0  0  0
   -4.0610  -18.2387   15.0631 C   0  0  0  0  0  0  0  0  0  0  0  0
   -4.8408  -19.2403   14.3220 C   0  0  0  0  0  0  0  0  0  0  0  0
   -5.2995  -20.2383   14.9112 O   0  0  0  0  0  0  0  0  0  0  0  0
   -5.0639  -19.0739   12.9740 O   0  0  0  0  0  0  0  0  0  0  0  0
  2  1  1  0
  2 12  2  0
  3  2  1  0
  4  3  2  0
  4  5  1  0
  5 11  2  0
  6  7  1  0
  6  5  1  0
  7  8  1  6
  9  7  1  0
  9 10  2  0
 11 12  1  0
 14 13  1  1
 14 15  1  0
 14 16  1  0
 15  9  1  0
 16 18  1  0
 17 16  2  0
 18 19  1  0
 19 20  1  0
 20 21  2  0
 20 22  1  0
M  END
$$$$
