YAG.pdb
     RDKit          3D

 22 22  0  0  1  0  0  0  0  0999 V2000
    7.8403  -11.7775   18.4709 O   0  0  0  0  0  0  0  0  0  0  0  0
    8.0394  -12.8012   19.3991 C   0  0  0  0  0  0  0  0  0  0  0  0
    9.2931  -13.2624   19.7446 C   0  0  0  0  0  0  0  0  0  0  0  0
    9.4772  -14.2758   20.6642 C   0  0  0  0  0  0  0  0  0  0  0  0
    8.3934  -14.8719   21.2798 C   0  0  0  0  0  0  0  0  0  0  0  0
    8.5412  -15.9653   22.2752 C   0  0  0  0  0  0  0  0  0  0  0  0
    8.9765  -17.2602   21.6283 C   0  0  2  0  0  0  0  0  0  0  0  0
    7.9185  -17.8365   20.8547 N   0  0  0  0  0  0  0  0  0  0  0  0
    9.3808  -18.1755   22.7422 C   0  0  0  0  0  0  0  0  0  0  0  0
    8.5553  -19.0262   23.1452 O   0  0  0  0  0  0  0  0  0  0  0  0
    7.1413  -14.4093   20.9330 C   0  0  0  0  0  0  0  0  0  0  0  0
    6.9560  -13.3950   20.0125 C   0  0  0  0  0  0  0  0  0  0  0  0
   12.5936  -18.8776   24.6549 C   0  0  0  0  0  0  0  0  0  0  0  0
   11.1124  -18.9786   24.3847 C   0  0  2  0  0  0  0  0  0  0  0  0
   10.6663  -18.0956   23.3403 N   0  0  0  0  0  0  0  0  0  0  0  0
   10.3027  -18.8269   25.6244 C   0  0  0  0  0  0  0  0  0  0  0  0
   10.5409  -19.5358   26.6432 O   0  0  0  0  0  0  0  0  0  0  0  0
    9.2374  -17.8931   25.7265 N   0  0  0  0  0  0  0  0  0  0  0  0
    8.4799  -17.6935   26.9371 C   0  0  0  0  0  0  0  0  0  0  0  0
    7.7110  -18.8813   27.3355 C   0  0  0  0  0  0  0  0  0  0  0  0
    7.7927  -19.9322   26.6704 O   0  0  0  0  0  0  0  0  0  0  0  0
    6.8995  -18.8306   28.4460 O   0  0  0  0  0  0  0  0  0  0  0  0
  2  1  1  0
  2 12  2  0
  3  2  1  0
  4  3  2  0
  4  5  1  0
  5 11  2  0
  6  7  1  0
  6  5  1  0
  7  8  1  1
  9  7  1  0
  9 10  2  0
 11 12  1  0
 14 13  1  1
 14 15  1  0
 14 16  1  0
 15  9  1  0
 16 18  1  0
 17 16  2  0
 18 19  1  0
 19 20  1  0
 20 21  2  0
 20 22  1  0
M  END
$$$$
