YAG.pdb
     RDKit          3D

 22 22  0  0  1  0  0  0  0  0999 V2000
    6.5676  -10.8849   28.1872 O   0  0  0  0  0  0  0  0  0  0  0  0
    6.6055  -11.7676   27.1062 C   0  0  0  0  0  0  0  0  0  0  0  0
    6.0682  -13.0372   27.1598 C   0  0  0  0  0  0  0  0  0  0  0  0
    6.1118  -13.9013   26.0837 C   0  0  0  0  0  0  0  0  0  0  0  0
    6.7053  -13.5164   24.8968 C   0  0  0  0  0  0  0  0  0  0  0  0
    6.7766  -14.4105   23.7121 C   0  0  0  0  0  0  0  0  0  0  0  0
    7.8916  -15.4234   23.8378 C   0  0  2  0  0  0  0  0  0  0  0  0
    9.1502  -14.7843   24.0777 N   0  0  0  0  0  0  0  0  0  0  0  0
    7.9190  -16.1858   22.5494 C   0  0  0  0  0  0  0  0  0  0  0  0
    6.8951  -16.8214   22.2100 O   0  0  0  0  0  0  0  0  0  0  0  0
    7.2416  -12.2469   24.8455 C   0  0  0  0  0  0  0  0  0  0  0  0
    7.1984  -11.3813   25.9222 C   0  0  0  0  0  0  0  0  0  0  0  0
    9.1756  -16.2016   19.2600 C   0  0  0  0  0  0  0  0  0  0  0  0
    9.1858  -17.0091   20.5347 C   0  0  2  0  0  0  0  0  0  0  0  0
    9.0704  -16.1995   21.7183 N   0  0  0  0  0  0  0  0  0  0  0  0
   10.3497  -17.9342   20.6055 C   0  0  0  0  0  0  0  0  0  0  0  0
   10.2061  -19.1716   20.3926 O   0  0  0  0  0  0  0  0  0  0  0  0
   11.6613  -17.4830   20.9109 N   0  0  0  0  0  0  0  0  0  0  0  0
   12.8021  -18.3631   20.9689 C   0  0  0  0  0  0  0  0  0  0  0  0
   13.5653  -18.3969   19.7131 C   0  0  0  0  0  0  0  0  0  0  0  0
   12.9798  -18.5864   18.6293 O   0  0  0  0  0  0  0  0  0  0  0  0
   14.9299  -18.2186   19.7364 O   0  0  0  0  0  0  0  0  0  0  0  0
  2  1  1  0
  2 12  2  0
  3  2  1  0
  4  3  2  0
  4  5  1  0
  5 11  2  0
  6  7  1  0
  6  5  1  0
  7  8  1  6
  9  7  1  0
  9 10  2  0
 11 12  1  0
 14 13  1  6
 14 15  1  0
 14 16  1  0
 15  9  1  0
 16 18  1  0
 17 16  2  0
 18 19  1  0
 19 20  1  0
 20 21  2  0
 20 22  1  0
M  END
$$$$
