KRN.pdb
     RDKit          3D

 29 28  0  0  1  0  0  0  0  0999 V2000
    6.6039  -16.6031   19.9531 N   0  0  0  0  0  0  0  0  0  0  0  0
    7.7684  -16.0154   20.5757 C   0  0  1  0  0  0  0  0  0  0  0  0
    7.4678  -14.5804   20.8654 C   0  0  0  0  0  0  0  0  0  0  0  0
    7.6516  -13.8100   19.5744 C   0  0  0  0  0  0  0  0  0  0  0  0
    8.3750  -12.5032   19.7737 C   0  0  0  0  0  0  0  0  0  0  0  0
    8.3942  -11.7547   18.4624 C   0  0  0  0  0  0  0  0  0  0  0  0
    9.0165  -10.4523   18.6037 N   0  0  0  0  0  0  0  0  0  0  0  0
    8.2425  -16.7896   21.7480 C   0  0  0  0  0  0  0  0  0  0  0  0
    7.3683  -17.1899   22.5561 O   0  0  0  0  0  0  0  0  0  0  0  0
   14.8370  -18.8795   26.1185 N   0  0  0  0  0  0  0  0  0  0  0  0
   14.6081  -20.2688   25.8581 C   0  0  0  0  0  0  0  0  0  0  0  0
   15.5047  -21.1464   26.1704 N   0  0  0  0  0  0  0  0  0  0  0  0
   13.4142  -20.7353   25.2615 N   0  0  0  0  0  0  0  0  0  0  0  0
   12.8652  -20.2180   24.0283 C   0  0  0  0  0  0  0  0  0  0  0  0
   11.7195  -19.2615   24.2795 C   0  0  0  0  0  0  0  0  0  0  0  0
   11.2358  -18.6102   23.0223 C   0  0  0  0  0  0  0  0  0  0  0  0
   10.0414  -17.7249   23.1775 C   0  0  2  0  0  0  0  0  0  0  0  0
    9.6104  -17.0783   21.9724 N   0  0  0  0  0  0  0  0  0  0  0  0
   10.3999  -16.6755   24.2013 C   0  0  0  0  0  0  0  0  0  0  0  0
   11.2107  -15.8010   23.8826 O   0  0  0  0  0  0  0  0  0  0  0  0
   15.3353  -22.1334   25.9297 N   0  0  0  0  0  0  0  0  0  0  0  0
   10.7153  -14.0797   28.8698 C   0  0  0  0  0  0  0  0  0  0  0  0
    9.4180  -14.2869   28.3720 O   0  0  0  0  0  0  0  0  0  0  0  0
    8.4607  -13.6555   28.9382 C   0  0  0  0  0  0  0  0  0  0  0  0
    9.0451  -15.1646   27.2549 C   0  0  2  0  0  0  0  0  0  0  0  0
   10.2137  -15.7802   26.5478 N   0  0  0  0  0  0  0  0  0  0  0  0
    9.8291  -16.6823   25.4945 C   0  0  0  0  0  0  0  0  0  0  0  0
   11.2012  -16.3830   27.4727 O   0  0  0  0  0  0  0  0  0  0  0  0
   12.3247  -15.8673   27.5981 O   0  0  0  0  0  0  0  0  0  0  0  0
  2  1  1  1
  3  2  1  0
  3  4  1  0
  4  5  1  0
  6  5  1  0
  7  6  1  0
  8  9  2  0
  8  2  1  0
 10 11  1  0
 11 12  2  0
 13 14  1  0
 13 11  1  0
 15 14  1  0
 15 16  1  0
 17 16  1  6
 17 18  1  0
 18  8  1  0
 19 17  1  0
 19 26  1  0
 20 19  2  0
 21 22  1  0
 22 24  1  0
 23 22  2  0
 25 24  1  6
 25 26  1  0
 25 27  1  0
 27 28  2  0
 27 29  1  0
M  END
$$$$
