KRN.pdb
     RDKit          3D

 29 28  0  0  1  0  0  0  0  0999 V2000
    7.8374  -12.6431   18.7248 N   0  0  0  0  0  0  0  0  0  0  0  0
    7.9361  -14.0558   19.0131 C   0  0  1  0  0  0  0  0  0  0  0  0
    8.8272  -14.6796   17.9882 C   0  0  0  0  0  0  0  0  0  0  0  0
   10.2481  -14.2680   18.3134 C   0  0  0  0  0  0  0  0  0  0  0  0
   11.2547  -14.8342   17.3455 C   0  0  0  0  0  0  0  0  0  0  0  0
   12.6347  -14.3851   17.7628 C   0  0  0  0  0  0  0  0  0  0  0  0
   13.6488  -14.8598   16.8411 N   0  0  0  0  0  0  0  0  0  0  0  0
    8.3337  -14.3274   20.4156 C   0  0  0  0  0  0  0  0  0  0  0  0
    9.2478  -13.6122   20.8957 O   0  0  0  0  0  0  0  0  0  0  0  0
    7.4970  -20.7697   26.2992 N   0  0  0  0  0  0  0  0  0  0  0  0
    7.9515  -19.5993   26.9877 C   0  0  0  0  0  0  0  0  0  0  0  0
    8.8163  -19.7004   27.9434 N   0  0  0  0  0  0  0  0  0  0  0  0
    7.4861  -18.3053   26.6590 N   0  0  0  0  0  0  0  0  0  0  0  0
    6.9621  -17.9341   25.3639 C   0  0  0  0  0  0  0  0  0  0  0  0
    7.8936  -16.9958   24.6275 C   0  0  0  0  0  0  0  0  0  0  0  0
    7.3357  -16.5581   23.3100 C   0  0  0  0  0  0  0  0  0  0  0  0
    8.2060  -15.6342   22.5202 C   0  0  2  0  0  0  0  0  0  0  0  0
    7.7296  -15.3392   21.2003 N   0  0  0  0  0  0  0  0  0  0  0  0
    9.5648  -16.2840   22.4222 C   0  0  0  0  0  0  0  0  0  0  0  0
    9.7326  -17.1622   21.5711 O   0  0  0  0  0  0  0  0  0  0  0  0
    9.0862  -18.8500   28.4580 N   0  0  0  0  0  0  0  0  0  0  0  0
   14.9875  -16.9186   21.8080 C   0  0  0  0  0  0  0  0  0  0  0  0
   14.3521  -16.1412   22.7906 O   0  0  0  0  0  0  0  0  0  0  0  0
   15.0107  -15.8830   23.8561 C   0  0  0  0  0  0  0  0  0  0  0  0
   12.9932  -15.5886   22.7179 C   0  0  1  0  0  0  0  0  0  0  0  0
   11.9336  -16.5056   23.2479 N   0  0  0  0  0  0  0  0  0  0  0  0
   10.6258  -15.9057   23.2762 C   0  0  0  0  0  0  0  0  0  0  0  0
   12.2966  -17.1264   24.5428 O   0  0  0  0  0  0  0  0  0  0  0  0
   11.7646  -16.7239   25.5911 O   0  0  0  0  0  0  0  0  0  0  0  0
  2  1  1  6
  3  2  1  0
  3  4  1  0
  4  5  1  0
  6  5  1  0
  7  6  1  0
  8  9  2  0
  8  2  1  0
 10 11  1  0
 11 12  2  0
 13 14  1  0
 13 11  1  0
 15 14  1  0
 15 16  1  0
 17 16  1  6
 17 18  1  0
 18  8  1  0
 19 17  1  0
 19 26  1  0
 20 19  2  0
 21 22  1  0
 22 24  1  0
 23 22  2  0
 25 24  1  6
 25 26  1  0
 25 27  1  0
 27 28  2  0
 27 29  1  0
M  END
$$$$
