KRN.pdb
     RDKit          3D

 29 28  0  0  1  0  0  0  0  0999 V2000
   10.1193  -20.5729   18.7227 N   0  0  0  0  0  0  0  0  0  0  0  0
   10.7848  -19.5141   17.9982 C   0  0  1  0  0  0  0  0  0  0  0  0
    9.9550  -19.1744   16.8025 C   0  0  0  0  0  0  0  0  0  0  0  0
    9.8760  -20.4162   15.9390 C   0  0  0  0  0  0  0  0  0  0  0  0
    8.6942  -20.4016   15.0042 C   0  0  0  0  0  0  0  0  0  0  0  0
    8.6954  -21.6802   14.2010 C   0  0  0  0  0  0  0  0  0  0  0  0
    7.5658  -21.7379   13.2932 N   0  0  0  0  0  0  0  0  0  0  0  0
   11.1201  -18.3544   18.8592 C   0  0  0  0  0  0  0  0  0  0  0  0
   11.7860  -17.4289   18.3322 O   0  0  0  0  0  0  0  0  0  0  0  0
    7.6511  -11.8381   21.7380 N   0  0  0  0  0  0  0  0  0  0  0  0
    7.4279  -12.4902   20.4829 C   0  0  0  0  0  0  0  0  0  0  0  0
    7.3584  -11.7985   19.3928 N   0  0  0  0  0  0  0  0  0  0  0  0
    7.2783  -13.8923   20.3802 N   0  0  0  0  0  0  0  0  0  0  0  0
    7.9092  -14.8447   21.2661 C   0  0  0  0  0  0  0  0  0  0  0  0
    9.1556  -15.4447   20.6523 C   0  0  0  0  0  0  0  0  0  0  0  0
    9.8372  -16.4068   21.5736 C   0  0  0  0  0  0  0  0  0  0  0  0
   11.0272  -17.1081   21.0021 C   0  0  2  0  0  0  0  0  0  0  0  0
   10.7225  -18.2676   20.2154 N   0  0  0  0  0  0  0  0  0  0  0  0
   11.9004  -17.5141   22.1644 C   0  0  0  0  0  0  0  0  0  0  0  0
   11.3782  -18.1218   23.1035 O   0  0  0  0  0  0  0  0  0  0  0  0
    7.2448  -12.2960   18.4982 N   0  0  0  0  0  0  0  0  0  0  0  0
   13.3624  -20.2920   23.8714 C   0  0  0  0  0  0  0  0  0  0  0  0
   14.5994  -19.9940   23.2758 O   0  0  0  0  0  0  0  0  0  0  0  0
   15.3624  -20.9759   22.9771 C   0  0  0  0  0  0  0  0  0  0  0  0
   15.1111  -18.6546   22.9576 C   0  0  2  0  0  0  0  0  0  0  0  0
   14.1573  -17.5455   23.2814 N   0  0  0  0  0  0  0  0  0  0  0  0
   13.2813  -17.2129   22.1890 C   0  0  0  0  0  0  0  0  0  0  0  0
   14.8250  -16.3523   23.8510 O   0  0  0  0  0  0  0  0  0  0  0  0
   15.5457  -16.4691   24.8564 O   0  0  0  0  0  0  0  0  0  0  0  0
  2  1  1  1
  3  2  1  0
  3  4  1  0
  4  5  1  0
  6  5  1  0
  7  6  1  0
  8  9  2  0
  8  2  1  0
 10 11  1  0
 11 12  2  0
 13 14  1  0
 13 11  1  0
 15 14  1  0
 15 16  1  0
 17 16  1  1
 17 18  1  0
 18  8  1  0
 19 17  1  0
 19 26  1  0
 20 19  2  0
 21 22  1  0
 22 24  1  0
 23 22  2  0
 25 24  1  1
 25 26  1  0
 25 27  1  0
 27 28  2  0
 27 29  1  0
M  END
$$$$
