KRN.pdb
     RDKit          3D

 29 28  0  0  1  0  0  0  0  0999 V2000
    5.6973  -20.3165   21.2263 N   0  0  0  0  0  0  0  0  0  0  0  0
    5.9623  -19.6810   22.4970 C   0  0  1  0  0  0  0  0  0  0  0  0
    6.1430  -20.7511   23.5246 C   0  0  0  0  0  0  0  0  0  0  0  0
    4.7987  -21.4203   23.7222 C   0  0  0  0  0  0  0  0  0  0  0  0
    4.7959  -22.3936   24.8725 C   0  0  0  0  0  0  0  0  0  0  0  0
    3.4218  -23.0100   24.9830 C   0  0  0  0  0  0  0  0  0  0  0  0
    3.4129  -24.1243   25.9111 N   0  0  0  0  0  0  0  0  0  0  0  0
    7.0768  -18.7055   22.4276 C   0  0  0  0  0  0  0  0  0  0  0  0
    8.1548  -19.1089   21.9249 O   0  0  0  0  0  0  0  0  0  0  0  0
    6.6266  -12.0988   19.5982 N   0  0  0  0  0  0  0  0  0  0  0  0
    7.3878  -12.9586   18.7427 C   0  0  0  0  0  0  0  0  0  0  0  0
    7.0745  -13.0784   17.4941 N   0  0  0  0  0  0  0  0  0  0  0  0
    8.4957  -13.6994   19.2145 N   0  0  0  0  0  0  0  0  0  0  0  0
    8.7060  -14.0549   20.5998 C   0  0  0  0  0  0  0  0  0  0  0  0
    7.4345  -14.5526   21.2526 C   0  0  0  0  0  0  0  0  0  0  0  0
    7.6609  -15.0215   22.6554 C   0  0  0  0  0  0  0  0  0  0  0  0
    8.0562  -16.4562   22.7959 C   0  0  2  0  0  0  0  0  0  0  0  0
    6.9605  -17.3754   22.8990 N   0  0  0  0  0  0  0  0  0  0  0  0
    8.9077  -16.5598   24.0379 C   0  0  0  0  0  0  0  0  0  0  0  0
    8.5133  -16.0004   25.0652 O   0  0  0  0  0  0  0  0  0  0  0  0
    7.6512  -13.6869   16.8959 N   0  0  0  0  0  0  0  0  0  0  0  0
    9.2346  -19.1390   26.1798 C   0  0  0  0  0  0  0  0  0  0  0  0
   10.5726  -19.4480   25.8831 O   0  0  0  0  0  0  0  0  0  0  0  0
   10.9122  -20.6808   25.9042 C   0  0  0  0  0  0  0  0  0  0  0  0
   11.6327  -18.4886   25.5472 C   0  0  2  0  0  0  0  0  0  0  0  0
   11.1250  -17.1630   25.0683 N   0  0  0  0  0  0  0  0  0  0  0  0
   10.1264  -17.2758   24.0381 C   0  0  0  0  0  0  0  0  0  0  0  0
   12.2095  -16.2234   24.7007 O   0  0  0  0  0  0  0  0  0  0  0  0
   13.0513  -15.8889   25.5513 O   0  0  0  0  0  0  0  0  0  0  0  0
  2  1  1  6
  3  2  1  0
  3  4  1  0
  4  5  1  0
  6  5  1  0
  7  6  1  0
  8  9  2  0
  8  2  1  0
 10 11  1  0
 11 12  2  0
 13 14  1  0
 13 11  1  0
 15 14  1  0
 15 16  1  0
 17 16  1  1
 17 18  1  0
 18  8  1  0
 19 17  1  0
 19 26  1  0
 20 19  2  0
 21 22  1  0
 22 24  1  0
 23 22  2  0
 25 24  1  1
 25 26  1  0
 25 27  1  0
 27 28  2  0
 27 29  1  0
M  END
$$$$
