KRN.pdb
     RDKit          3D

 29 28  0  0  1  0  0  0  0  0999 V2000
    7.4898  -16.6896   20.7783 N   0  0  0  0  0  0  0  0  0  0  0  0
    8.7283  -16.0483   20.3994 C   0  0  1  0  0  0  0  0  0  0  0  0
    8.9082  -14.8380   21.2576 C   0  0  0  0  0  0  0  0  0  0  0  0
    7.8044  -13.8635   20.9026 C   0  0  0  0  0  0  0  0  0  0  0  0
    7.8980  -12.5715   21.6724 C   0  0  0  0  0  0  0  0  0  0  0  0
    6.7777  -11.6610   21.2299 C   0  0  0  0  0  0  0  0  0  0  0  0
    6.7825  -10.4144   21.9710 N   0  0  0  0  0  0  0  0  0  0  0  0
    9.8814  -16.9804   20.4075 C   0  0  0  0  0  0  0  0  0  0  0  0
    9.8426  -17.9252   21.2343 O   0  0  0  0  0  0  0  0  0  0  0  0
   11.6340  -18.9417   12.8490 N   0  0  0  0  0  0  0  0  0  0  0  0
   12.0252  -18.2577   14.0447 C   0  0  0  0  0  0  0  0  0  0  0  0
   11.3945  -17.1943   14.4228 N   0  0  0  0  0  0  0  0  0  0  0  0
   13.0963  -18.7062   14.8512 N   0  0  0  0  0  0  0  0  0  0  0  0
   13.5419  -18.0411   16.0550 C   0  0  0  0  0  0  0  0  0  0  0  0
   12.5766  -18.2471   17.2022 C   0  0  0  0  0  0  0  0  0  0  0  0
   13.0687  -17.6365   18.4766 C   0  0  0  0  0  0  0  0  0  0  0  0
   12.1213  -17.7104   19.6305 C   0  0  2  0  0  0  0  0  0  0  0  0
   10.9884  -16.8365   19.5366 N   0  0  0  0  0  0  0  0  0  0  0  0
   12.9095  -17.3674   20.8712 C   0  0  0  0  0  0  0  0  0  0  0  0
   13.1266  -16.1770   21.1152 O   0  0  0  0  0  0  0  0  0  0  0  0
   11.6392  -16.7705   15.3291 N   0  0  0  0  0  0  0  0  0  0  0  0
   14.3500  -18.8789   26.4200 C   0  0  0  0  0  0  0  0  0  0  0  0
   14.8713  -19.0742   25.1301 O   0  0  0  0  0  0  0  0  0  0  0  0
   16.1436  -19.0636   24.9999 C   0  0  0  0  0  0  0  0  0  0  0  0
   14.0953  -19.2920   23.9023 C   0  0  1  0  0  0  0  0  0  0  0  0
   14.0588  -18.1069   22.9865 N   0  0  0  0  0  0  0  0  0  0  0  0
   13.3916  -18.3733   21.7395 C   0  0  0  0  0  0  0  0  0  0  0  0
   15.3872  -17.4815   22.7920 O   0  0  0  0  0  0  0  0  0  0  0  0
   16.0694  -17.7777   21.7965 O   0  0  0  0  0  0  0  0  0  0  0  0
  2  1  1  1
  3  2  1  0
  3  4  1  0
  4  5  1  0
  6  5  1  0
  7  6  1  0
  8  9  2  0
  8  2  1  0
 10 11  1  0
 11 12  2  0
 13 14  1  0
 13 11  1  0
 15 14  1  0
 15 16  1  0
 17 16  1  6
 17 18  1  0
 18  8  1  0
 19 17  1  0
 19 26  1  0
 20 19  2  0
 21 22  1  0
 22 24  1  0
 23 22  2  0
 25 24  1  1
 25 26  1  0
 25 27  1  0
 27 28  2  0
 27 29  1  0
M  END
$$$$
