KRN.pdb
     RDKit          3D

 29 28  0  0  1  0  0  0  0  0999 V2000
   10.4140  -16.5981   13.3862 N   0  0  0  0  0  0  0  0  0  0  0  0
   10.6130  -17.3079   14.6293 C   0  0  1  0  0  0  0  0  0  0  0  0
   11.6488  -18.3614   14.4039 C   0  0  0  0  0  0  0  0  0  0  0  0
   12.5307  -17.8925   13.2653 C   0  0  0  0  0  0  0  0  0  0  0  0
   13.6288  -18.8711   12.9378 C   0  0  0  0  0  0  0  0  0  0  0  0
   14.4923  -18.2840   11.8470 C   0  0  0  0  0  0  0  0  0  0  0  0
   15.6517  -19.1143   11.5830 N   0  0  0  0  0  0  0  0  0  0  0  0
   10.9008  -16.4009   15.7665 C   0  0  0  0  0  0  0  0  0  0  0  0
   12.1094  -16.1613   16.0105 O   0  0  0  0  0  0  0  0  0  0  0  0
    9.2998  -13.8558   23.1752 N   0  0  0  0  0  0  0  0  0  0  0  0
    8.1621  -13.5326   22.3679 C   0  0  0  0  0  0  0  0  0  0  0  0
    7.0630  -14.2018   22.4937 N   0  0  0  0  0  0  0  0  0  0  0  0
    8.1876  -12.4868   21.4169 N   0  0  0  0  0  0  0  0  0  0  0  0
    8.1348  -12.6870   19.9862 C   0  0  0  0  0  0  0  0  0  0  0  0
    9.3550  -13.4222   19.4752 C   0  0  0  0  0  0  0  0  0  0  0  0
    9.0269  -14.3611   18.3573 C   0  0  0  0  0  0  0  0  0  0  0  0
   10.2025  -15.0018   17.6923 C   0  0  2  0  0  0  0  0  0  0  0  0
    9.8816  -15.8185   16.5582 N   0  0  0  0  0  0  0  0  0  0  0  0
   10.8908  -15.8499   18.7340 C   0  0  0  0  0  0  0  0  0  0  0  0
   10.1962  -16.5880   19.4388 O   0  0  0  0  0  0  0  0  0  0  0  0
    6.2524  -13.9337   21.9177 N   0  0  0  0  0  0  0  0  0  0  0  0
   14.6311  -12.9601   18.6278 C   0  0  0  0  0  0  0  0  0  0  0  0
   14.6271  -13.9795   19.5945 O   0  0  0  0  0  0  0  0  0  0  0  0
   15.7010  -14.6583   19.7410 C   0  0  0  0  0  0  0  0  0  0  0  0
   13.5024  -14.3490   20.4638 C   0  0  2  0  0  0  0  0  0  0  0  0
   12.9418  -15.7108   20.1887 N   0  0  0  0  0  0  0  0  0  0  0  0
   12.2930  -15.8097   18.9079 C   0  0  0  0  0  0  0  0  0  0  0  0
   12.0948  -16.2242   21.2900 O   0  0  0  0  0  0  0  0  0  0  0  0
   11.0613  -15.6133   21.6105 O   0  0  0  0  0  0  0  0  0  0  0  0
  2  1  1  6
  3  2  1  0
  3  4  1  0
  4  5  1  0
  6  5  1  0
  7  6  1  0
  8  9  2  0
  8  2  1  0
 10 11  1  0
 11 12  2  0
 13 14  1  0
 13 11  1  0
 15 14  1  0
 15 16  1  0
 17 16  1  1
 17 18  1  0
 18  8  1  0
 19 17  1  0
 19 26  1  0
 20 19  2  0
 21 22  1  0
 22 24  1  0
 23 22  2  0
 25 24  1  6
 25 26  1  0
 25 27  1  0
 27 28  2  0
 27 29  1  0
M  END
$$$$
