KRN.pdb
     RDKit          3D

 29 28  0  0  1  0  0  0  0  0999 V2000
    9.7233  -20.7447   16.8887 N   0  0  0  0  0  0  0  0  0  0  0  0
    8.7933  -19.9663   17.6749 C   0  0  1  0  0  0  0  0  0  0  0  0
    7.9111  -20.9117   18.4242 C   0  0  0  0  0  0  0  0  0  0  0  0
    8.7989  -21.9869   19.0156 C   0  0  0  0  0  0  0  0  0  0  0  0
    8.0229  -23.0278   19.7803 C   0  0  0  0  0  0  0  0  0  0  0  0
    8.9856  -24.0744   20.2883 C   0  0  0  0  0  0  0  0  0  0  0  0
    8.2957  -25.1205   21.0184 N   0  0  0  0  0  0  0  0  0  0  0  0
    9.4682  -18.9559   18.5248 C   0  0  0  0  0  0  0  0  0  0  0  0
   10.7179  -19.0371   18.6205 O   0  0  0  0  0  0  0  0  0  0  0  0
    7.5626  -12.5306   15.5605 N   0  0  0  0  0  0  0  0  0  0  0  0
    7.5360  -13.5882   16.5255 C   0  0  0  0  0  0  0  0  0  0  0  0
    7.8892  -14.7856   16.1894 N   0  0  0  0  0  0  0  0  0  0  0  0
    7.1322  -13.3752   17.8636 N   0  0  0  0  0  0  0  0  0  0  0  0
    7.1655  -14.3882   18.8942 C   0  0  0  0  0  0  0  0  0  0  0  0
    8.5761  -14.6625   19.3689 C   0  0  0  0  0  0  0  0  0  0  0  0
    8.6328  -15.7666   20.3772 C   0  0  0  0  0  0  0  0  0  0  0  0
    9.4564  -16.9509   19.9854 C   0  0  2  0  0  0  0  0  0  0  0  0
    8.7626  -17.9367   19.2090 N   0  0  0  0  0  0  0  0  0  0  0  0
    9.9522  -17.5854   21.2621 C   0  0  0  0  0  0  0  0  0  0  0  0
   10.5692  -16.8790   22.0646 O   0  0  0  0  0  0  0  0  0  0  0  0
    7.8518  -15.5299   16.9003 N   0  0  0  0  0  0  0  0  0  0  0  0
   10.3889  -22.9049   24.2918 C   0  0  0  0  0  0  0  0  0  0  0  0
   10.0427  -21.5437   24.2579 O   0  0  0  0  0  0  0  0  0  0  0  0
   10.2375  -20.8586   25.3202 C   0  0  0  0  0  0  0  0  0  0  0  0
    9.4737  -20.8194   23.1139 C   0  0  2  0  0  0  0  0  0  0  0  0
   10.2935  -19.6483   22.6658 N   0  0  0  0  0  0  0  0  0  0  0  0
    9.7223  -18.9514   21.5436 C   0  0  0  0  0  0  0  0  0  0  0  0
   11.7202  -19.9847   22.4527 O   0  0  0  0  0  0  0  0  0  0  0  0
   12.5584  -19.7010   23.3250 O   0  0  0  0  0  0  0  0  0  0  0  0
  2  1  1  1
  3  2  1  0
  3  4  1  0
  4  5  1  0
  6  5  1  0
  7  6  1  0
  8  9  2  0
  8  2  1  0
 10 11  1  0
 11 12  2  0
 13 14  1  0
 13 11  1  0
 15 14  1  0
 15 16  1  0
 17 16  1  1
 17 18  1  0
 18  8  1  0
 19 17  1  0
 19 26  1  0
 20 19  2  0
 21 22  1  0
 22 24  1  0
 23 22  2  0
 25 24  1  1
 25 26  1  0
 25 27  1  0
 27 28  2  0
 27 29  1  0
M  END
$$$$
