KRN.pdb
     RDKit          3D

 29 28  0  0  1  0  0  0  0  0999 V2000
    8.8891  -21.3570   22.1961 N   0  0  0  0  0  0  0  0  0  0  0  0
    9.9067  -21.1912   21.1833 C   0  0  1  0  0  0  0  0  0  0  0  0
    9.6747  -22.2130   20.1177 C   0  0  0  0  0  0  0  0  0  0  0  0
    8.1911  -22.5175   20.0980 C   0  0  0  0  0  0  0  0  0  0  0  0
    7.8232  -23.5566   19.0706 C   0  0  0  0  0  0  0  0  0  0  0  0
    6.3257  -23.7500   19.0912 C   0  0  0  0  0  0  0  0  0  0  0  0
    5.8948  -24.6683   18.0546 N   0  0  0  0  0  0  0  0  0  0  0  0
    9.9962  -19.7976   20.6848 C   0  0  0  0  0  0  0  0  0  0  0  0
   10.5755  -19.6238   19.5839 O   0  0  0  0  0  0  0  0  0  0  0  0
    7.0827  -12.3539   20.0806 N   0  0  0  0  0  0  0  0  0  0  0  0
    8.2270  -12.5345   19.2391 C   0  0  0  0  0  0  0  0  0  0  0  0
    9.1020  -11.5903   19.1180 N   0  0  0  0  0  0  0  0  0  0  0  0
    8.4491  -13.7303   18.5182 N   0  0  0  0  0  0  0  0  0  0  0  0
    8.2258  -15.0551   19.0519 C   0  0  0  0  0  0  0  0  0  0  0  0
    8.4779  -15.1112   20.5431 C   0  0  0  0  0  0  0  0  0  0  0  0
    8.3745  -16.5018   21.0858 C   0  0  0  0  0  0  0  0  0  0  0  0
    9.5819  -17.3599   20.8849 C   0  0  2  0  0  0  0  0  0  0  0  0
    9.4638  -18.6947   21.3954 N   0  0  0  0  0  0  0  0  0  0  0  0
   10.7344  -16.6677   21.5711 C   0  0  0  0  0  0  0  0  0  0  0  0
   10.9860  -15.5008   21.2569 O   0  0  0  0  0  0  0  0  0  0  0  0
    9.9147  -11.7452   18.5046 N   0  0  0  0  0  0  0  0  0  0  0  0
   11.2443  -19.1207   25.5530 C   0  0  0  0  0  0  0  0  0  0  0  0
   11.6691  -17.7992   25.3367 O   0  0  0  0  0  0  0  0  0  0  0  0
   10.9526  -16.8610   25.8286 C   0  0  0  0  0  0  0  0  0  0  0  0
   12.8658  -17.3809   24.5950 C   0  0  2  0  0  0  0  0  0  0  0  0
   12.5689  -16.6958   23.2963 N   0  0  0  0  0  0  0  0  0  0  0  0
   11.5126  -17.3269   22.5498 C   0  0  0  0  0  0  0  0  0  0  0  0
   13.7776  -16.4612   22.4730 O   0  0  0  0  0  0  0  0  0  0  0  0
   13.8409  -16.9262   21.3224 O   0  0  0  0  0  0  0  0  0  0  0  0
  2  1  1  1
  3  2  1  0
  3  4  1  0
  4  5  1  0
  6  5  1  0
  7  6  1  0
  8  9  2  0
  8  2  1  0
 10 11  1  0
 11 12  2  0
 13 14  1  0
 13 11  1  0
 15 14  1  0
 15 16  1  0
 17 16  1  1
 17 18  1  0
 18  8  1  0
 19 17  1  0
 19 26  1  0
 20 19  2  0
 21 22  1  0
 22 24  1  0
 23 22  2  0
 25 24  1  1
 25 26  1  0
 25 27  1  0
 27 28  2  0
 27 29  1  0
M  END
$$$$
