KRN.pdb
     RDKit          3D

 29 28  0  0  1  0  0  0  0  0999 V2000
    9.8135  -20.0094   20.2800 N   0  0  0  0  0  0  0  0  0  0  0  0
   10.9904  -19.2509   19.9214 C   0  0  1  0  0  0  0  0  0  0  0  0
   11.0287  -19.1261   18.4326 C   0  0  0  0  0  0  0  0  0  0  0  0
   10.2728  -20.3071   17.8599 C   0  0  0  0  0  0  0  0  0  0  0  0
   10.3020  -20.3427   16.3537 C   0  0  0  0  0  0  0  0  0  0  0  0
    9.5234  -21.5473   15.8819 C   0  0  0  0  0  0  0  0  0  0  0  0
    9.4210  -21.5800   14.4356 N   0  0  0  0  0  0  0  0  0  0  0  0
   11.0822  -17.9604   20.6457 C   0  0  0  0  0  0  0  0  0  0  0  0
   12.1770  -17.3482   20.5796 O   0  0  0  0  0  0  0  0  0  0  0  0
    7.6368  -12.9047   17.3029 N   0  0  0  0  0  0  0  0  0  0  0  0
    7.6873  -12.7143   18.7212 C   0  0  0  0  0  0  0  0  0  0  0  0
    8.5391  -11.8902   19.2379 N   0  0  0  0  0  0  0  0  0  0  0  0
    6.8240  -13.4035   19.6036 N   0  0  0  0  0  0  0  0  0  0  0  0
    7.2256  -13.9297   20.8887 C   0  0  0  0  0  0  0  0  0  0  0  0
    8.5058  -14.7312   20.7938 C   0  0  0  0  0  0  0  0  0  0  0  0
    8.8991  -15.3330   22.1061 C   0  0  0  0  0  0  0  0  0  0  0  0
   10.1356  -16.1726   22.0815 C   0  0  2  0  0  0  0  0  0  0  0  0
   10.0032  -17.4195   21.3859 N   0  0  0  0  0  0  0  0  0  0  0  0
   10.5130  -16.4446   23.5174 C   0  0  0  0  0  0  0  0  0  0  0  0
    9.6579  -16.2675   24.3900 O   0  0  0  0  0  0  0  0  0  0  0  0
    8.6265  -11.8479   20.2632 N   0  0  0  0  0  0  0  0  0  0  0  0
   11.8936  -20.4544   27.1416 C   0  0  0  0  0  0  0  0  0  0  0  0
   11.5821  -19.1048   26.9064 O   0  0  0  0  0  0  0  0  0  0  0  0
   11.6157  -18.3084   27.9065 C   0  0  0  0  0  0  0  0  0  0  0  0
   11.2181  -18.5088   25.6143 C   0  0  2  0  0  0  0  0  0  0  0  0
   12.1514  -17.4299   25.1567 N   0  0  0  0  0  0  0  0  0  0  0  0
   11.8077  -16.8911   23.8672 C   0  0  0  0  0  0  0  0  0  0  0  0
   13.5777  -17.8203   25.2419 O   0  0  0  0  0  0  0  0  0  0  0  0
   14.1402  -17.8663   26.3489 O   0  0  0  0  0  0  0  0  0  0  0  0
  2  1  1  6
  3  2  1  0
  3  4  1  0
  4  5  1  0
  6  5  1  0
  7  6  1  0
  8  9  2  0
  8  2  1  0
 10 11  1  0
 11 12  2  0
 13 14  1  0
 13 11  1  0
 15 14  1  0
 15 16  1  0
 17 16  1  1
 17 18  1  0
 18  8  1  0
 19 17  1  0
 19 26  1  0
 20 19  2  0
 21 22  1  0
 22 24  1  0
 23 22  2  0
 25 24  1  1
 25 26  1  0
 25 27  1  0
 27 28  2  0
 27 29  1  0
M  END
$$$$
