KRN.pdb
     RDKit          3D

 29 28  0  0  1  0  0  0  0  0999 V2000
    9.4650  -21.9781   21.4248 N   0  0  0  0  0  0  0  0  0  0  0  0
    9.4701  -20.7683   22.2155 C   0  0  1  0  0  0  0  0  0  0  0  0
   10.3628  -20.9856   23.3943 C   0  0  0  0  0  0  0  0  0  0  0  0
   11.6744  -21.5354   22.8733 C   0  0  0  0  0  0  0  0  0  0  0  0
   12.6097  -21.9556   23.9776 C   0  0  0  0  0  0  0  0  0  0  0  0
   13.8096  -22.6366   23.3639 C   0  0  0  0  0  0  0  0  0  0  0  0
   14.7144  -23.1362   24.3813 N   0  0  0  0  0  0  0  0  0  0  0  0
    9.7963  -19.5631   21.4156 C   0  0  0  0  0  0  0  0  0  0  0  0
   10.5140  -19.7330   20.3989 O   0  0  0  0  0  0  0  0  0  0  0  0
    7.0020  -13.8265   17.3825 N   0  0  0  0  0  0  0  0  0  0  0  0
    7.8488  -12.9297   18.1099 C   0  0  0  0  0  0  0  0  0  0  0  0
    8.7881  -12.2828   17.5010 N   0  0  0  0  0  0  0  0  0  0  0  0
    7.6981  -12.7135   19.4990 N   0  0  0  0  0  0  0  0  0  0  0  0
    7.6631  -13.7680   20.4872 C   0  0  0  0  0  0  0  0  0  0  0  0
    8.6435  -14.8749   20.1643 C   0  0  0  0  0  0  0  0  0  0  0  0
    8.5604  -16.0099   21.1358 C   0  0  0  0  0  0  0  0  0  0  0  0
    9.4447  -17.1770   20.8353 C   0  0  2  0  0  0  0  0  0  0  0  0
    9.3351  -18.2690   21.7581 N   0  0  0  0  0  0  0  0  0  0  0  0
   10.8653  -16.6668   20.8387 C   0  0  0  0  0  0  0  0  0  0  0  0
   11.2124  -15.8983   19.9373 O   0  0  0  0  0  0  0  0  0  0  0  0
    9.3952  -11.6586   18.0512 N   0  0  0  0  0  0  0  0  0  0  0  0
   13.0102  -14.2764   19.1626 C   0  0  0  0  0  0  0  0  0  0  0  0
   13.7229  -14.8229   20.2429 O   0  0  0  0  0  0  0  0  0  0  0  0
   14.9444  -15.1442   20.0420 C   0  0  0  0  0  0  0  0  0  0  0  0
   13.2022  -15.0651   21.5947 C   0  0  2  0  0  0  0  0  0  0  0  0
   13.1138  -16.5147   21.9626 N   0  0  0  0  0  0  0  0  0  0  0  0
   11.7837  -17.0510   21.8422 C   0  0  0  0  0  0  0  0  0  0  0  0
   13.7270  -16.8196   23.2760 O   0  0  0  0  0  0  0  0  0  0  0  0
   14.8847  -16.4399   23.5200 O   0  0  0  0  0  0  0  0  0  0  0  0
  2  1  1  6
  3  2  1  0
  3  4  1  0
  4  5  1  0
  6  5  1  0
  7  6  1  0
  8  9  2  0
  8  2  1  0
 10 11  1  0
 11 12  2  0
 13 14  1  0
 13 11  1  0
 15 14  1  0
 15 16  1  0
 17 16  1  1
 17 18  1  0
 18  8  1  0
 19 17  1  0
 19 26  1  0
 20 19  2  0
 21 22  1  0
 22 24  1  0
 23 22  2  0
 25 24  1  6
 25 26  1  0
 25 27  1  0
 27 28  2  0
 27 29  1  0
M  END
$$$$
