KRN.pdb
     RDKit          3D

 29 28  0  0  1  0  0  0  0  0999 V2000
    8.6962  -14.6483   13.7657 N   0  0  0  0  0  0  0  0  0  0  0  0
    7.8830  -15.2744   14.7833 C   0  0  1  0  0  0  0  0  0  0  0  0
    7.1033  -16.3774   14.1437 C   0  0  0  0  0  0  0  0  0  0  0  0
    6.8838  -15.9950   12.6947 C   0  0  0  0  0  0  0  0  0  0  0  0
    5.9583  -16.9423   11.9758 C   0  0  0  0  0  0  0  0  0  0  0  0
    5.8479  -16.5110   10.5329 C   0  0  0  0  0  0  0  0  0  0  0  0
    4.8496  -17.2864    9.8220 N   0  0  0  0  0  0  0  0  0  0  0  0
    8.6700  -15.6901   15.9693 C   0  0  0  0  0  0  0  0  0  0  0  0
    8.0560  -16.3181   16.8672 O   0  0  0  0  0  0  0  0  0  0  0  0
   16.1244  -13.6458   18.5757 N   0  0  0  0  0  0  0  0  0  0  0  0
   15.2664  -14.6284   19.1664 C   0  0  0  0  0  0  0  0  0  0  0  0
   14.3816  -14.2787   20.0419 N   0  0  0  0  0  0  0  0  0  0  0  0
   15.3448  -15.9981   18.8247 N   0  0  0  0  0  0  0  0  0  0  0  0
   14.5483  -16.6262   17.7947 C   0  0  0  0  0  0  0  0  0  0  0  0
   13.0701  -16.5726   18.1148 C   0  0  0  0  0  0  0  0  0  0  0  0
   12.2828  -15.8726   17.0522 C   0  0  0  0  0  0  0  0  0  0  0  0
   10.7984  -15.9104   17.2245 C   0  0  2  0  0  0  0  0  0  0  0  0
   10.0498  -15.4054   16.1106 N   0  0  0  0  0  0  0  0  0  0  0  0
   10.4753  -15.0909   18.4501 C   0  0  0  0  0  0  0  0  0  0  0  0
   10.3042  -13.8761   18.3125 O   0  0  0  0  0  0  0  0  0  0  0  0
   13.7568  -15.0004   20.4286 N   0  0  0  0  0  0  0  0  0  0  0  0
    7.9617  -12.2485   19.6511 C   0  0  0  0  0  0  0  0  0  0  0  0
    8.0719  -13.1969   20.6816 O   0  0  0  0  0  0  0  0  0  0  0  0
    7.9694  -12.7756   21.8848 C   0  0  0  0  0  0  0  0  0  0  0  0
    8.2950  -14.6391   20.5160 C   0  0  2  0  0  0  0  0  0  0  0  0
    9.6887  -15.0812   20.8425 N   0  0  0  0  0  0  0  0  0  0  0  0
   10.3682  -15.6865   19.7276 C   0  0  0  0  0  0  0  0  0  0  0  0
    9.7632  -15.9126   22.0661 O   0  0  0  0  0  0  0  0  0  0  0  0
    9.3480  -15.4601   23.1463 O   0  0  0  0  0  0  0  0  0  0  0  0
  2  1  1  6
  3  2  1  0
  3  4  1  0
  4  5  1  0
  6  5  1  0
  7  6  1  0
  8  9  2  0
  8  2  1  0
 10 11  1  0
 11 12  2  0
 13 14  1  0
 13 11  1  0
 15 14  1  0
 15 16  1  0
 17 16  1  6
 17 18  1  0
 18  8  1  0
 19 17  1  0
 19 26  1  0
 20 19  2  0
 21 22  1  0
 22 24  1  0
 23 22  2  0
 25 24  1  6
 25 26  1  0
 25 27  1  0
 27 28  2  0
 27 29  1  0
M  END
$$$$
