GKI.pdb
     RDKit          3D

 22 21  0  0  1  0  0  0  0  0999 V2000
   22.1460  -19.8295  -15.8350 N   0  0  0  0  0  0  0  0  0  0  0  0
   22.6228  -18.9231  -16.8485 C   0  0  0  0  0  0  0  0  0  0  0  0
   22.7620  -17.5432  -16.3408 C   0  0  0  0  0  0  0  0  0  0  0  0
   21.7655  -17.0259  -15.7627 O   0  0  0  0  0  0  0  0  0  0  0  0
   23.9926  -16.8673  -16.5221 N   0  0  0  0  0  0  0  0  0  0  0  0
   24.1010  -15.4745  -16.1449 C   0  0  1  0  0  0  0  0  0  0  0  0
   25.5504  -15.1475  -15.9041 C   0  0  0  0  0  0  0  0  0  0  0  0
   26.2162  -15.9640  -14.8510 C   0  0  0  0  0  0  0  0  0  0  0  0
   26.5658  -17.3550  -15.3084 C   0  0  0  0  0  0  0  0  0  0  0  0
   27.3695  -18.0624  -14.2372 C   0  0  0  0  0  0  0  0  0  0  0  0
   27.8469  -19.3494  -14.6418 N   0  0  0  0  0  0  0  0  0  0  0  0
   23.4665  -14.5957  -17.1615 C   0  0  0  0  0  0  0  0  0  0  0  0
   23.6504  -14.8432  -18.3662 O   0  0  0  0  0  0  0  0  0  0  0  0
   18.3166  -13.3993  -17.6737 C   0  0  0  0  0  0  0  0  0  0  0  0
   19.7708  -13.6170  -17.9696 C   0  0  0  0  0  0  0  0  0  0  0  0
   20.6130  -12.4085  -17.6191 C   0  0  2  0  0  0  0  0  0  0  0  0
   20.2365  -11.2337  -18.5012 C   0  0  0  0  0  0  0  0  0  0  0  0
   22.0857  -12.6776  -17.8323 C   0  0  2  0  0  0  0  0  0  0  0  0
   22.6561  -13.4812  -16.7965 N   0  0  0  0  0  0  0  0  0  0  0  0
   22.7816  -11.3658  -17.8513 C   0  0  0  0  0  0  0  0  0  0  0  0
   23.4076  -11.0201  -16.8102 O   0  0  0  0  0  0  0  0  0  0  0  0
   22.7649  -10.5226  -18.9610 O   0  0  0  0  0  0  0  0  0  0  0  0
  2  3  1  0
  2  1  1  0
  3  4  2  0
  5  6  1  0
  5  3  1  0
  7  8  1  0
  6  7  1  6
  9 10  1  0
  9  8  1  0
 10 11  1  0
 12  6  1  0
 12 19  1  0
 13 12  2  0
 15 14  1  0
 16 15  1  0
 16 17  1  6
 18 19  1  1
 18 16  1  0
 20 18  1  0
 21 20  2  0
 22 20  1  0
M  END
$$$$
