GKI.pdb
     RDKit          3D

 22 21  0  0  1  0  0  0  0  0999 V2000
   44.2919  -10.5100   -5.4107 N   0  0  0  0  0  0  0  0  0  0  0  0
   43.5438  -10.7856   -6.6108 C   0  0  0  0  0  0  0  0  0  0  0  0
   43.0614   -9.5511   -7.2624 C   0  0  0  0  0  0  0  0  0  0  0  0
   42.9502   -8.5147   -6.5493 O   0  0  0  0  0  0  0  0  0  0  0  0
   42.7479   -9.5822   -8.6425 N   0  0  0  0  0  0  0  0  0  0  0  0
   42.3737   -8.3564   -9.3143 C   0  0  1  0  0  0  0  0  0  0  0  0
   42.9817   -8.3516  -10.6912 C   0  0  0  0  0  0  0  0  0  0  0  0
   42.8127   -7.0824  -11.4524 C   0  0  0  0  0  0  0  0  0  0  0  0
   43.4247   -7.1267  -12.8272 C   0  0  0  0  0  0  0  0  0  0  0  0
   43.2671   -5.7814  -13.5046 C   0  0  0  0  0  0  0  0  0  0  0  0
   43.6150   -5.7996  -14.8926 N   0  0  0  0  0  0  0  0  0  0  0  0
   40.8976   -8.1852   -9.3285 C   0  0  0  0  0  0  0  0  0  0  0  0
   40.1940   -9.0904   -9.8102 O   0  0  0  0  0  0  0  0  0  0  0  0
   36.1763   -6.2923   -6.1176 C   0  0  0  0  0  0  0  0  0  0  0  0
   36.7575   -6.5719   -7.4717 C   0  0  0  0  0  0  0  0  0  0  0  0
   38.2711   -6.6069   -7.4484 C   0  0  2  0  0  0  0  0  0  0  0  0
   38.8208   -5.2484   -7.0584 C   0  0  0  0  0  0  0  0  0  0  0  0
   38.8393   -6.9493   -8.8073 C   0  0  2  0  0  0  0  0  0  0  0  0
   40.2674   -7.0175   -8.8078 N   0  0  0  0  0  0  0  0  0  0  0  0
   38.4159   -5.8830   -9.7502 C   0  0  0  0  0  0  0  0  0  0  0  0
   39.2285   -4.9421   -9.9732 O   0  0  0  0  0  0  0  0  0  0  0  0
   37.1743   -5.8898  -10.3835 O   0  0  0  0  0  0  0  0  0  0  0  0
  2  3  1  0
  2  1  1  0
  3  4  2  0
  5  6  1  0
  5  3  1  0
  7  8  1  0
  6  7  1  6
  9 10  1  0
  9  8  1  0
 10 11  1  0
 12  6  1  0
 12 19  1  0
 13 12  2  0
 15 14  1  0
 16 15  1  0
 16 17  1  6
 18 19  1  1
 18 16  1  0
 20 18  1  0
 21 20  2  0
 22 20  1  0
M  END
$$$$
