GKI.pdb
     RDKit          3D

 22 21  0  0  1  0  0  0  0  0999 V2000
   18.3418  -31.6220   -8.8468 N   0  0  0  0  0  0  0  0  0  0  0  0
   17.0011  -31.1201   -8.6834 C   0  0  0  0  0  0  0  0  0  0  0  0
   16.9769  -29.6622   -8.4486 C   0  0  0  0  0  0  0  0  0  0  0  0
   17.7747  -29.1915   -7.5902 O   0  0  0  0  0  0  0  0  0  0  0  0
   16.0707  -28.8641   -9.1874 N   0  0  0  0  0  0  0  0  0  0  0  0
   15.9832  -27.4465   -8.9108 C   0  0  1  0  0  0  0  0  0  0  0  0
   15.2648  -26.7726  -10.0490 C   0  0  0  0  0  0  0  0  0  0  0  0
   14.9627  -25.3291   -9.8396 C   0  0  0  0  0  0  0  0  0  0  0  0
   15.6504  -24.4272  -10.8296 C   0  0  0  0  0  0  0  0  0  0  0  0
   15.3079  -22.9819  -10.5339 C   0  0  0  0  0  0  0  0  0  0  0  0
   15.7242  -22.0774  -11.5617 N   0  0  0  0  0  0  0  0  0  0  0  0
   15.3459  -27.1989   -7.5913 C   0  0  0  0  0  0  0  0  0  0  0  0
   14.2652  -27.7576   -7.3336 O   0  0  0  0  0  0  0  0  0  0  0  0
   16.3890  -26.6238   -1.6959 C   0  0  0  0  0  0  0  0  0  0  0  0
   15.5297  -26.2319   -2.8610 C   0  0  0  0  0  0  0  0  0  0  0  0
   16.1851  -26.5510   -4.1882 C   0  0  2  0  0  0  0  0  0  0  0  0
   17.4663  -25.7549   -4.3447 C   0  0  0  0  0  0  0  0  0  0  0  0
   15.2873  -26.1924   -5.3510 C   0  0  2  0  0  0  0  0  0  0  0  0
   15.9357  -26.3425   -6.6163 N   0  0  0  0  0  0  0  0  0  0  0  0
   14.8910  -24.7706   -5.1877 C   0  0  0  0  0  0  0  0  0  0  0  0
   15.4471  -23.9182   -5.9356 O   0  0  0  0  0  0  0  0  0  0  0  0
   13.9430  -24.3575   -4.2532 O   0  0  0  0  0  0  0  0  0  0  0  0
  2  3  1  0
  2  1  1  0
  3  4  2  0
  5  6  1  0
  5  3  1  0
  7  8  1  0
  6  7  1  6
  9 10  1  0
  9  8  1  0
 10 11  1  0
 12  6  1  0
 12 19  1  0
 13 12  2  0
 15 14  1  0
 16 15  1  0
 16 17  1  6
 18 19  1  6
 18 16  1  0
 20 18  1  0
 21 20  2  0
 22 20  1  0
M  END
$$$$
