GKI.pdb
     RDKit          3D

 22 21  0  0  1  0  0  0  0  0999 V2000
   25.2875  -23.4401  -14.4303 N   0  0  0  0  0  0  0  0  0  0  0  0
   24.0538  -24.1445  -14.6712 C   0  0  0  0  0  0  0  0  0  0  0  0
   22.8979  -23.4747  -14.0415 C   0  0  0  0  0  0  0  0  0  0  0  0
   23.1311  -22.5121  -13.2580 O   0  0  0  0  0  0  0  0  0  0  0  0
   21.5930  -23.9354  -14.3398 N   0  0  0  0  0  0  0  0  0  0  0  0
   20.4491  -23.1997  -13.8456 C   0  0  1  0  0  0  0  0  0  0  0  0
   19.7493  -22.5502  -15.0093 C   0  0  0  0  0  0  0  0  0  0  0  0
   18.5302  -21.7696  -14.6581 C   0  0  0  0  0  0  0  0  0  0  0  0
   17.8001  -21.2328  -15.8602 C   0  0  0  0  0  0  0  0  0  0  0  0
   16.6424  -20.3643  -15.4141 C   0  0  0  0  0  0  0  0  0  0  0  0
   15.9302  -19.7643  -16.5008 N   0  0  0  0  0  0  0  0  0  0  0  0
   19.5563  -24.0770  -13.0446 C   0  0  0  0  0  0  0  0  0  0  0  0
   19.4517  -25.2749  -13.3615 O   0  0  0  0  0  0  0  0  0  0  0  0
   19.3783  -24.3479   -7.6272 C   0  0  0  0  0  0  0  0  0  0  0  0
   19.3471  -24.5817   -9.1084 C   0  0  0  0  0  0  0  0  0  0  0  0
   18.0013  -24.2412   -9.7130 C   0  0  2  0  0  0  0  0  0  0  0  0
   16.9166  -25.1032   -9.0964 C   0  0  0  0  0  0  0  0  0  0  0  0
   17.9831  -24.4928  -11.2040 C   0  0  2  0  0  0  0  0  0  0  0  0
   18.8191  -23.5864  -11.9275 N   0  0  0  0  0  0  0  0  0  0  0  0
   16.5834  -24.3201  -11.6693 C   0  0  0  0  0  0  0  0  0  0  0  0
   16.1489  -23.1406  -11.7930 O   0  0  0  0  0  0  0  0  0  0  0  0
   15.7524  -25.3986  -11.9676 O   0  0  0  0  0  0  0  0  0  0  0  0
  2  3  1  0
  2  1  1  0
  3  4  2  0
  5  6  1  0
  5  3  1  0
  7  8  1  0
  6  7  1  6
  9 10  1  0
  9  8  1  0
 10 11  1  0
 12  6  1  0
 12 19  1  0
 13 12  2  0
 15 14  1  0
 16 15  1  0
 16 17  1  1
 18 19  1  6
 18 16  1  0
 20 18  1  0
 21 20  2  0
 22 20  1  0
M  END
$$$$
