GKI.pdb
     RDKit          3D

 22 21  0  0  1  0  0  0  0  0999 V2000
   25.7236  -25.6204  -16.6731 N   0  0  0  0  0  0  0  0  0  0  0  0
   24.7263  -24.9909  -15.8455 C   0  0  0  0  0  0  0  0  0  0  0  0
   25.3142  -24.0024  -14.9190 C   0  0  0  0  0  0  0  0  0  0  0  0
   25.9907  -24.4384  -13.9458 O   0  0  0  0  0  0  0  0  0  0  0  0
   25.0967  -22.6243  -15.1589 N   0  0  0  0  0  0  0  0  0  0  0  0
   25.7756  -21.6442  -14.3390 C   0  0  1  0  0  0  0  0  0  0  0  0
   25.7812  -20.3246  -15.0632 C   0  0  0  0  0  0  0  0  0  0  0  0
   26.3863  -20.3529  -16.4240 C   0  0  0  0  0  0  0  0  0  0  0  0
   26.3380  -19.0214  -17.1249 C   0  0  0  0  0  0  0  0  0  0  0  0
   26.9390  -19.1462  -18.5094 C   0  0  0  0  0  0  0  0  0  0  0  0
   28.2875  -19.6252  -18.5027 N   0  0  0  0  0  0  0  0  0  0  0  0
   25.1641  -21.5642  -12.9870 C   0  0  0  0  0  0  0  0  0  0  0  0
   23.9548  -21.8246  -12.8599 O   0  0  0  0  0  0  0  0  0  0  0  0
   26.2684  -19.8485   -7.0861 C   0  0  0  0  0  0  0  0  0  0  0  0
   25.4174  -20.4518   -8.1637 C   0  0  0  0  0  0  0  0  0  0  0  0
   26.1279  -20.4887   -9.5003 C   0  0  2  0  0  0  0  0  0  0  0  0
   26.4998  -19.0843   -9.9351 C   0  0  0  0  0  0  0  0  0  0  0  0
   25.2478  -21.0762  -10.5806 C   0  0  2  0  0  0  0  0  0  0  0  0
   25.9213  -21.1989  -11.8358 N   0  0  0  0  0  0  0  0  0  0  0  0
   24.0859  -20.1678  -10.7535 C   0  0  0  0  0  0  0  0  0  0  0  0
   24.1746  -19.2644  -11.6317 O   0  0  0  0  0  0  0  0  0  0  0  0
   22.9243  -20.2806   -9.9916 O   0  0  0  0  0  0  0  0  0  0  0  0
  2  3  1  0
  2  1  1  0
  3  4  2  0
  5  6  1  0
  5  3  1  0
  7  8  1  0
  6  7  1  6
  9 10  1  0
  9  8  1  0
 10 11  1  0
 12  6  1  0
 12 19  1  0
 13 12  2  0
 15 14  1  0
 16 15  1  0
 16 17  1  6
 18 19  1  6
 18 16  1  0
 20 18  1  0
 21 20  2  0
 22 20  1  0
M  END
$$$$
