GKI.pdb
     RDKit          3D

 22 21  0  0  1  0  0  0  0  0999 V2000
   28.6546  -19.8875  -16.7715 N   0  0  0  0  0  0  0  0  0  0  0  0
   28.6569  -20.7235  -15.5981 C   0  0  0  0  0  0  0  0  0  0  0  0
   27.7115  -20.2433  -14.5701 C   0  0  0  0  0  0  0  0  0  0  0  0
   27.9029  -19.0924  -14.0868 O   0  0  0  0  0  0  0  0  0  0  0  0
   26.6434  -21.0843  -14.1752 N   0  0  0  0  0  0  0  0  0  0  0  0
   25.6541  -20.5870  -13.2436 C   0  0  1  0  0  0  0  0  0  0  0  0
   24.2858  -20.7711  -13.8433 C   0  0  0  0  0  0  0  0  0  0  0  0
   23.1544  -20.3144  -12.9888 C   0  0  0  0  0  0  0  0  0  0  0  0
   21.8047  -20.5472  -13.6137 C   0  0  0  0  0  0  0  0  0  0  0  0
   20.7178  -20.0069  -12.7079 C   0  0  0  0  0  0  0  0  0  0  0  0
   19.4018  -20.1489  -13.2519 N   0  0  0  0  0  0  0  0  0  0  0  0
   25.7997  -21.2353  -11.9144 C   0  0  0  0  0  0  0  0  0  0  0  0
   25.9473  -22.4690  -11.8624 O   0  0  0  0  0  0  0  0  0  0  0  0
   27.3453  -18.6172   -7.0560 C   0  0  0  0  0  0  0  0  0  0  0  0
   26.4450  -19.1748   -8.1181 C   0  0  0  0  0  0  0  0  0  0  0  0
   26.8032  -20.6005   -8.4810 C   0  0  2  0  0  0  0  0  0  0  0  0
   28.1681  -20.6464   -9.1403 C   0  0  0  0  0  0  0  0  0  0  0  0
   25.8112  -21.1905   -9.4581 C   0  0  2  0  0  0  0  0  0  0  0  0
   25.7753  -20.4863  -10.7018 N   0  0  0  0  0  0  0  0  0  0  0  0
   24.4670  -21.1136   -8.8315 C   0  0  0  0  0  0  0  0  0  0  0  0
   24.2640  -21.8057   -7.7946 O   0  0  0  0  0  0  0  0  0  0  0  0
   23.4443  -20.3165   -9.3428 O   0  0  0  0  0  0  0  0  0  0  0  0
  2  3  1  0
  2  1  1  0
  3  4  2  0
  5  6  1  0
  5  3  1  0
  7  8  1  0
  6  7  1  6
  9 10  1  0
  9  8  1  0
 10 11  1  0
 12  6  1  0
 12 19  1  0
 13 12  2  0
 15 14  1  0
 16 15  1  0
 16 17  1  6
 18 19  1  6
 18 16  1  0
 20 18  1  0
 21 20  2  0
 22 20  1  0
M  END
$$$$
