GKI.pdb
     RDKit          3D

 22 21  0  0  1  0  0  0  0  0999 V2000
   21.1278  -20.9240  -10.2790 N   0  0  0  0  0  0  0  0  0  0  0  0
   22.2159  -19.9824  -10.3525 C   0  0  0  0  0  0  0  0  0  0  0  0
   23.4538  -20.5133   -9.7467 C   0  0  0  0  0  0  0  0  0  0  0  0
   23.3453  -21.1968   -8.6903 O   0  0  0  0  0  0  0  0  0  0  0  0
   24.6947  -20.2363  -10.3692 N   0  0  0  0  0  0  0  0  0  0  0  0
   25.9131  -20.7590   -9.7895 C   0  0  1  0  0  0  0  0  0  0  0  0
   26.9896  -20.7622  -10.8416 C   0  0  0  0  0  0  0  0  0  0  0  0
   26.7845  -21.7327  -11.9529 C   0  0  0  0  0  0  0  0  0  0  0  0
   27.1279  -21.1695  -13.3061 C   0  0  0  0  0  0  0  0  0  0  0  0
   26.9094  -22.2224  -14.3726 C   0  0  0  0  0  0  0  0  0  0  0  0
   27.2170  -21.7658  -15.6935 N   0  0  0  0  0  0  0  0  0  0  0  0
   26.2924  -19.9988   -8.5702 C   0  0  0  0  0  0  0  0  0  0  0  0
   25.9477  -18.8078   -8.4752 O   0  0  0  0  0  0  0  0  0  0  0  0
   28.9896  -19.9130   -3.2974 C   0  0  0  0  0  0  0  0  0  0  0  0
   27.6028  -19.8000   -3.8573 C   0  0  0  0  0  0  0  0  0  0  0  0
   27.4121  -20.6581   -5.0902 C   0  0  2  0  0  0  0  0  0  0  0  0
   28.5944  -21.5912   -5.2672 C   0  0  0  0  0  0  0  0  0  0  0  0
   27.3116  -19.8161   -6.3423 C   0  0  2  0  0  0  0  0  0  0  0  0
   27.0373  -20.5936   -7.5103 N   0  0  0  0  0  0  0  0  0  0  0  0
   28.6160  -19.1304   -6.5255 C   0  0  0  0  0  0  0  0  0  0  0  0
   29.4212  -19.6191   -7.3670 O   0  0  0  0  0  0  0  0  0  0  0  0
   28.9705  -17.9871   -5.8115 O   0  0  0  0  0  0  0  0  0  0  0  0
  2  3  1  0
  2  1  1  0
  3  4  2  0
  5  6  1  0
  5  3  1  0
  7  8  1  0
  6  7  1  6
  9 10  1  0
  9  8  1  0
 10 11  1  0
 12  6  1  0
 12 19  1  0
 13 12  2  0
 15 14  1  0
 16 15  1  0
 16 17  1  6
 18 19  1  6
 18 16  1  0
 20 18  1  0
 21 20  2  0
 22 20  1  0
M  END
$$$$
