GKI.pdb
     RDKit          3D

 22 21  0  0  1  0  0  0  0  0999 V2000
   17.9431  -21.4136  -12.5514 N   0  0  0  0  0  0  0  0  0  0  0  0
   18.9026  -20.4282  -12.9807 C   0  0  0  0  0  0  0  0  0  0  0  0
   20.2660  -20.9865  -13.0847 C   0  0  0  0  0  0  0  0  0  0  0  0
   20.7984  -21.4379  -12.0322 O   0  0  0  0  0  0  0  0  0  0  0  0
   20.9099  -20.9917  -14.3454 N   0  0  0  0  0  0  0  0  0  0  0  0
   22.2224  -21.5880  -14.4707 C   0  0  1  0  0  0  0  0  0  0  0  0
   22.5468  -21.7466  -15.9320 C   0  0  0  0  0  0  0  0  0  0  0  0
   23.8303  -22.4443  -16.2225 C   0  0  0  0  0  0  0  0  0  0  0  0
   23.9127  -23.8180  -15.6120 C   0  0  0  0  0  0  0  0  0  0  0  0
   25.2000  -24.4937  -16.0362 C   0  0  0  0  0  0  0  0  0  0  0  0
   25.3957  -25.7752  -15.4301 N   0  0  0  0  0  0  0  0  0  0  0  0
   23.2401  -20.7977  -13.7304 C   0  0  0  0  0  0  0  0  0  0  0  0
   23.2055  -19.5568  -13.8045 O   0  0  0  0  0  0  0  0  0  0  0  0
   26.1368  -20.2775   -8.5084 C   0  0  0  0  0  0  0  0  0  0  0  0
   26.1333  -20.0009   -9.9826 C   0  0  0  0  0  0  0  0  0  0  0  0
   25.1855  -20.9124  -10.7333 C   0  0  2  0  0  0  0  0  0  0  0  0
   25.6269  -22.3566  -10.5939 C   0  0  0  0  0  0  0  0  0  0  0  0
   25.1592  -20.5903  -12.2106 C   0  0  2  0  0  0  0  0  0  0  0  0
   24.2512  -21.4189  -12.9406 N   0  0  0  0  0  0  0  0  0  0  0  0
   26.5294  -20.8084  -12.7400 C   0  0  0  0  0  0  0  0  0  0  0  0
   26.7457  -21.8733  -13.3838 O   0  0  0  0  0  0  0  0  0  0  0  0
   27.5623  -19.8917  -12.5516 O   0  0  0  0  0  0  0  0  0  0  0  0
  2  3  1  0
  2  1  1  0
  3  4  2  0
  5  6  1  0
  5  3  1  0
  7  8  1  0
  6  7  1  6
  9 10  1  0
  9  8  1  0
 10 11  1  0
 12  6  1  0
 12 19  1  0
 13 12  2  0
 15 14  1  0
 16 15  1  0
 16 17  1  6
 18 19  1  6
 18 16  1  0
 20 18  1  0
 21 20  2  0
 22 20  1  0
M  END
$$$$
