EYY.pdb
     RDKit          3D

 34 35  0  0  1  0  0  0  0  0999 V2000
   10.7147  -17.6593   18.9192 N   0  0  0  0  0  0  0  0  0  0  0  0
    9.9674  -18.0365   20.1379 C   0  0  1  0  0  0  0  0  0  0  0  0
   10.7699  -19.1246   20.7742 C   0  0  0  0  0  0  0  0  0  0  0  0
   10.9111  -20.3802   19.9946 C   0  0  0  0  0  0  0  0  0  0  0  0
   11.6389  -21.3661   20.8401 C   0  0  0  0  0  0  0  0  0  0  0  0
   11.0736  -22.1883   21.5968 O   0  0  0  0  0  0  0  0  0  0  0  0
    9.9374  -16.8588   21.0637 C   0  0  0  0  0  0  0  0  0  0  0  0
   10.9072  -16.0864   21.1942 O   0  0  0  0  0  0  0  0  0  0  0  0
   13.0418  -21.4254   20.8311 O   0  0  0  0  0  0  0  0  0  0  0  0
    7.5429  -12.7707   17.0925 O   0  0  0  0  0  0  0  0  0  0  0  0
    7.5572  -13.2035   18.3956 C   0  0  0  0  0  0  0  0  0  0  0  0
    7.0087  -14.4020   18.7561 C   0  0  0  0  0  0  0  0  0  0  0  0
    7.0291  -14.8234   20.0659 C   0  0  0  0  0  0  0  0  0  0  0  0
    7.5962  -14.0755   21.0797 C   0  0  0  0  0  0  0  0  0  0  0  0
    7.6042  -14.5891   22.4732 C   0  0  0  0  0  0  0  0  0  0  0  0
    8.7395  -15.4656   22.8109 C   0  0  2  0  0  0  0  0  0  0  0  0
    8.7790  -16.5726   21.8456 N   0  0  0  0  0  0  0  0  0  0  0  0
    8.8721  -15.9322   24.1860 C   0  0  0  0  0  0  0  0  0  0  0  0
    8.1035  -16.8726   24.5681 O   0  0  0  0  0  0  0  0  0  0  0  0
    8.1486  -12.8725   20.7167 C   0  0  0  0  0  0  0  0  0  0  0  0
    8.1327  -12.4427   19.4171 C   0  0  0  0  0  0  0  0  0  0  0  0
    6.1067  -10.6488   27.2754 O   0  0  0  0  0  0  0  0  0  0  0  0
    6.6805  -11.9086   27.2215 C   0  0  0  0  0  0  0  0  0  0  0  0
    8.0193  -12.1212   27.5185 C   0  0  0  0  0  0  0  0  0  0  0  0
    8.5686  -13.3847   27.4562 C   0  0  0  0  0  0  0  0  0  0  0  0
    7.8242  -14.5062   27.0969 C   0  0  0  0  0  0  0  0  0  0  0  0
    8.4244  -15.8572   27.0341 C   0  0  0  0  0  0  0  0  0  0  0  0
    9.8324  -15.8649   26.5149 C   0  0  2  0  0  0  0  0  0  0  0  0
    9.7848  -15.4312   25.1369 N   0  0  0  0  0  0  0  0  0  0  0  0
   10.5751  -17.0932   26.7400 C   0  0  0  0  0  0  0  0  0  0  0  0
   10.7104  -17.5394   27.9155 O   0  0  0  0  0  0  0  0  0  0  0  0
    6.4946  -14.2894   26.8023 C   0  0  0  0  0  0  0  0  0  0  0  0
    5.9429  -13.0204   26.8653 C   0  0  0  0  0  0  0  0  0  0  0  0
   11.1677  -17.8433   25.7374 O   0  0  0  0  0  0  0  0  0  0  0  0
  2  1  1  6
  2  3  1  0
  3  4  1  0
  4  5  1  0
  5  9  1  0
  5  6  2  0
  7  8  2  0
  7  2  1  0
 10 11  1  0
 11 21  2  0
 12 11  1  0
 12 13  2  0
 13 14  1  0
 14 20  2  0
 14 15  1  0
 16 15  1  1
 16 17  1  0
 17  7  1  0
 18 16  1  0
 19 18  2  0
 21 20  1  0
 23 24  2  0
 23 22  1  0
 25 24  1  0
 26 25  2  0
 27 26  1  0
 28 27  1  6
 28 30  1  0
 28 29  1  0
 29 18  1  0
 30 34  1  0
 31 30  2  0
 32 26  1  0
 32 33  2  0
 33 23  1  0
M  END
$$$$
