EYY.pdb
     RDKit          3D

 34 35  0  0  1  0  0  0  0  0999 V2000
   11.2356  -16.9216   19.9408 N   0  0  0  0  0  0  0  0  0  0  0  0
   10.3696  -17.4444   21.0191 C   0  0  1  0  0  0  0  0  0  0  0  0
   11.1398  -18.5653   21.6380 C   0  0  0  0  0  0  0  0  0  0  0  0
   11.7860  -19.5168   20.6993 C   0  0  0  0  0  0  0  0  0  0  0  0
   12.3650  -20.6302   21.5004 C   0  0  0  0  0  0  0  0  0  0  0  0
   13.5915  -20.8715   21.5756 O   0  0  0  0  0  0  0  0  0  0  0  0
   10.1813  -16.3684   22.0447 C   0  0  0  0  0  0  0  0  0  0  0  0
   11.0910  -15.5744   22.3550 O   0  0  0  0  0  0  0  0  0  0  0  0
   11.5376  -21.4939   22.2361 O   0  0  0  0  0  0  0  0  0  0  0  0
    5.8136  -10.9892   27.6972 O   0  0  0  0  0  0  0  0  0  0  0  0
    6.1981  -11.8713   26.7175 C   0  0  0  0  0  0  0  0  0  0  0  0
    5.8264  -13.1857   26.7541 C   0  0  0  0  0  0  0  0  0  0  0  0
    6.2193  -14.0594   25.7662 C   0  0  0  0  0  0  0  0  0  0  0  0
    6.9991  -13.6692   24.6945 C   0  0  0  0  0  0  0  0  0  0  0  0
    7.3786  -14.6528   23.6484 C   0  0  0  0  0  0  0  0  0  0  0  0
    8.7363  -15.2109   23.7769 C   0  0  2  0  0  0  0  0  0  0  0  0
    8.9336  -16.2098   22.7177 N   0  0  0  0  0  0  0  0  0  0  0  0
    9.1650  -15.7025   25.0811 C   0  0  0  0  0  0  0  0  0  0  0  0
    8.7309  -16.8390   25.4564 O   0  0  0  0  0  0  0  0  0  0  0  0
    7.3707  -12.3483   24.6573 C   0  0  0  0  0  0  0  0  0  0  0  0
    6.9867  -11.4708   25.6353 C   0  0  0  0  0  0  0  0  0  0  0  0
   14.0932  -19.1327   23.3029 O   0  0  0  0  0  0  0  0  0  0  0  0
   13.5719  -18.2859   24.2675 C   0  0  0  0  0  0  0  0  0  0  0  0
   13.2402  -18.7335   25.5385 C   0  0  0  0  0  0  0  0  0  0  0  0
   12.7209  -17.8717   26.4818 C   0  0  0  0  0  0  0  0  0  0  0  0
   12.5016  -16.5212   26.2197 C   0  0  0  0  0  0  0  0  0  0  0  0
   11.9444  -15.6058   27.2401 C   0  0  0  0  0  0  0  0  0  0  0  0
   10.4446  -15.5564   27.2470 C   0  0  2  0  0  0  0  0  0  0  0  0
   10.0259  -15.0258   25.9693 N   0  0  0  0  0  0  0  0  0  0  0  0
    9.8457  -14.9064   28.4004 C   0  0  0  0  0  0  0  0  0  0  0  0
   10.0762  -15.3503   29.5619 O   0  0  0  0  0  0  0  0  0  0  0  0
   12.8324  -16.0817   24.9551 C   0  0  0  0  0  0  0  0  0  0  0  0
   13.3542  -16.9472   24.0079 C   0  0  0  0  0  0  0  0  0  0  0  0
    9.0142  -13.8006   28.3304 O   0  0  0  0  0  0  0  0  0  0  0  0
  2  1  1  6
  2  3  1  0
  3  4  1  0
  4  5  1  0
  5  9  1  0
  5  6  2  0
  7  8  2  0
  7  2  1  0
 10 11  1  0
 11 21  2  0
 12 11  1  0
 12 13  2  0
 13 14  1  0
 14 20  2  0
 14 15  1  0
 16 15  1  1
 16 17  1  0
 17  7  1  0
 18 16  1  0
 19 18  2  0
 21 20  1  0
 23 24  2  0
 23 22  1  0
 25 24  1  0
 26 25  2  0
 27 26  1  0
 28 27  1  1
 28 30  1  0
 28 29  1  0
 29 18  1  0
 30 34  1  0
 31 30  2  0
 32 26  1  0
 32 33  2  0
 33 23  1  0
M  END
$$$$
