EYY.pdb
     RDKit          3D

 34 35  0  0  1  0  0  0  0  0999 V2000
   13.1671  -18.5050   17.2233 N   0  0  0  0  0  0  0  0  0  0  0  0
   13.6074  -18.9486   18.5633 C   0  0  1  0  0  0  0  0  0  0  0  0
   14.9029  -18.2454   18.8079 C   0  0  0  0  0  0  0  0  0  0  0  0
   15.5003  -17.5428   17.6445 C   0  0  0  0  0  0  0  0  0  0  0  0
   16.8592  -17.0781   18.0371 C   0  0  0  0  0  0  0  0  0  0  0  0
   17.1011  -16.4331   19.0829 O   0  0  0  0  0  0  0  0  0  0  0  0
   12.6076  -18.4774   19.5749 C   0  0  0  0  0  0  0  0  0  0  0  0
   11.9316  -17.4423   19.4146 O   0  0  0  0  0  0  0  0  0  0  0  0
   17.9744  -17.3488   17.2278 O   0  0  0  0  0  0  0  0  0  0  0  0
    7.0339  -21.7092   17.9731 O   0  0  0  0  0  0  0  0  0  0  0  0
    7.8893  -21.2956   18.9645 C   0  0  0  0  0  0  0  0  0  0  0  0
    7.6219  -20.1912   19.7236 C   0  0  0  0  0  0  0  0  0  0  0  0
    8.4881  -19.7872   20.7136 C   0  0  0  0  0  0  0  0  0  0  0  0
    9.6603  -20.4610   20.9977 C   0  0  0  0  0  0  0  0  0  0  0  0
   10.5489  -19.9883   22.0898 C   0  0  0  0  0  0  0  0  0  0  0  0
   11.3701  -18.8094   21.7628 C   0  0  2  0  0  0  0  0  0  0  0  0
   12.3887  -19.2066   20.7814 N   0  0  0  0  0  0  0  0  0  0  0  0
   11.9377  -18.0324   22.8584 C   0  0  0  0  0  0  0  0  0  0  0  0
   13.0512  -18.4171   23.3414 O   0  0  0  0  0  0  0  0  0  0  0  0
    9.9276  -21.5713   20.2360 C   0  0  0  0  0  0  0  0  0  0  0  0
    9.0737  -21.9815   19.2477 C   0  0  0  0  0  0  0  0  0  0  0  0
   10.4333  -14.1317   30.7112 O   0  0  0  0  0  0  0  0  0  0  0  0
   10.4272  -14.4955   29.3745 C   0  0  0  0  0  0  0  0  0  0  0  0
   11.1734  -13.8149   28.4228 C   0  0  0  0  0  0  0  0  0  0  0  0
   11.1498  -14.1947   27.0971 C   0  0  0  0  0  0  0  0  0  0  0  0
   10.3875  -15.2677   26.6408 C   0  0  0  0  0  0  0  0  0  0  0  0
   10.3707  -15.6665   25.2159 C   0  0  0  0  0  0  0  0  0  0  0  0
   11.5656  -16.4762   24.8052 C   0  0  2  0  0  0  0  0  0  0  0  0
   11.3587  -16.8826   23.4336 N   0  0  0  0  0  0  0  0  0  0  0  0
   11.9318  -17.5532   25.7093 C   0  0  0  0  0  0  0  0  0  0  0  0
   12.9699  -17.4482   26.4238 O   0  0  0  0  0  0  0  0  0  0  0  0
    9.6476  -15.9404   27.5904 C   0  0  0  0  0  0  0  0  0  0  0  0
    9.6715  -15.5590   28.9217 C   0  0  0  0  0  0  0  0  0  0  0  0
   11.2114  -18.7269   25.8594 O   0  0  0  0  0  0  0  0  0  0  0  0
  2  1  1  6
  2  3  1  0
  3  4  1  0
  4  5  1  0
  5  9  1  0
  5  6  2  0
  7  8  2  0
  7  2  1  0
 10 11  1  0
 11 21  2  0
 12 11  1  0
 12 13  2  0
 13 14  1  0
 14 20  2  0
 14 15  1  0
 16 15  1  1
 16 17  1  0
 17  7  1  0
 18 16  1  0
 19 18  2  0
 21 20  1  0
 23 24  2  0
 23 22  1  0
 25 24  1  0
 26 25  2  0
 27 26  1  0
 28 27  1  1
 28 30  1  0
 28 29  1  0
 29 18  1  0
 30 34  1  0
 31 30  2  0
 32 26  1  0
 32 33  2  0
 33 23  1  0
M  END
$$$$
