EYY.pdb
     RDKit          3D

 34 35  0  0  1  0  0  0  0  0999 V2000
   10.1282  -16.3684   17.9410 N   0  0  0  0  0  0  0  0  0  0  0  0
   10.0990  -17.2218   19.1480 C   0  0  1  0  0  0  0  0  0  0  0  0
   11.4183  -17.9230   19.1699 C   0  0  0  0  0  0  0  0  0  0  0  0
   11.4929  -19.2082   18.4305 C   0  0  0  0  0  0  0  0  0  0  0  0
   12.7907  -19.8562   18.7660 C   0  0  0  0  0  0  0  0  0  0  0  0
   12.9604  -20.6094   19.7518 O   0  0  0  0  0  0  0  0  0  0  0  0
   10.0049  -16.3392   20.3551 C   0  0  0  0  0  0  0  0  0  0  0  0
   10.9215  -15.5627   20.6882 O   0  0  0  0  0  0  0  0  0  0  0  0
   13.9268  -19.6482   17.9674 O   0  0  0  0  0  0  0  0  0  0  0  0
    6.1884  -11.9023   27.0682 O   0  0  0  0  0  0  0  0  0  0  0  0
    6.4606  -12.6543   25.9520 C   0  0  0  0  0  0  0  0  0  0  0  0
    6.9895  -12.0928   24.8240 C   0  0  0  0  0  0  0  0  0  0  0  0
    7.2568  -12.8579   23.7119 C   0  0  0  0  0  0  0  0  0  0  0  0
    7.0128  -14.2171   23.6673 C   0  0  0  0  0  0  0  0  0  0  0  0
    7.3375  -14.9954   22.4448 C   0  0  0  0  0  0  0  0  0  0  0  0
    8.7193  -15.5020   22.3738 C   0  0  2  0  0  0  0  0  0  0  0  0
    8.8441  -16.3553   21.1842 N   0  0  0  0  0  0  0  0  0  0  0  0
    9.2919  -16.1278   23.5599 C   0  0  0  0  0  0  0  0  0  0  0  0
    9.0728  -17.3693   23.7376 O   0  0  0  0  0  0  0  0  0  0  0  0
    6.4832  -14.7810   24.8013 C   0  0  0  0  0  0  0  0  0  0  0  0
    6.2120  -14.0292   25.9126 C   0  0  0  0  0  0  0  0  0  0  0  0
   12.1915  -16.5525   32.0012 O   0  0  0  0  0  0  0  0  0  0  0  0
   11.8944  -16.1550   30.7078 C   0  0  0  0  0  0  0  0  0  0  0  0
   10.9133  -15.2124   30.4343 C   0  0  0  0  0  0  0  0  0  0  0  0
   10.6341  -14.8338   29.1378 C   0  0  0  0  0  0  0  0  0  0  0  0
   11.3095  -15.3664   28.0419 C   0  0  0  0  0  0  0  0  0  0  0  0
   11.0016  -14.9519   26.6552 C   0  0  0  0  0  0  0  0  0  0  0  0
   10.4002  -16.0452   25.8216 C   0  0  2  0  0  0  0  0  0  0  0  0
   10.0743  -15.4745   24.5342 N   0  0  0  0  0  0  0  0  0  0  0  0
    9.3194  -16.7869   26.4484 C   0  0  0  0  0  0  0  0  0  0  0  0
    9.5773  -17.8293   27.1163 O   0  0  0  0  0  0  0  0  0  0  0  0
   12.2830  -16.3029   28.3192 C   0  0  0  0  0  0  0  0  0  0  0  0
   12.5636  -16.6829   29.6212 C   0  0  0  0  0  0  0  0  0  0  0  0
    7.9821  -16.4334   26.3730 O   0  0  0  0  0  0  0  0  0  0  0  0
  2  1  1  6
  2  3  1  0
  3  4  1  0
  4  5  1  0
  5  9  1  0
  5  6  2  0
  7  8  2  0
  7  2  1  0
 10 11  1  0
 11 21  2  0
 12 11  1  0
 12 13  2  0
 13 14  1  0
 14 20  2  0
 14 15  1  0
 16 15  1  1
 16 17  1  0
 17  7  1  0
 18 16  1  0
 19 18  2  0
 21 20  1  0
 23 24  2  0
 23 22  1  0
 25 24  1  0
 26 25  2  0
 27 26  1  0
 28 27  1  1
 28 30  1  0
 28 29  1  0
 29 18  1  0
 30 34  1  0
 31 30  2  0
 32 26  1  0
 32 33  2  0
 33 23  1  0
M  END
$$$$
