EYY.pdb
     RDKit          3D

 34 35  0  0  1  0  0  0  0  0999 V2000
    9.1907  -19.8006   20.9755 N   0  0  0  0  0  0  0  0  0  0  0  0
   10.2434  -18.8401   21.3693 C   0  0  1  0  0  0  0  0  0  0  0  0
   10.3685  -17.8951   20.2186 C   0  0  0  0  0  0  0  0  0  0  0  0
   10.9161  -18.4600   18.9596 C   0  0  0  0  0  0  0  0  0  0  0  0
   11.1265  -17.3365   18.0056 C   0  0  0  0  0  0  0  0  0  0  0  0
   12.2263  -16.7623   17.8353 O   0  0  0  0  0  0  0  0  0  0  0  0
    9.7690  -18.0761   22.5677 C   0  0  0  0  0  0  0  0  0  0  0  0
    8.5593  -17.9296   22.8310 O   0  0  0  0  0  0  0  0  0  0  0  0
   10.0675  -16.8484   17.2233 O   0  0  0  0  0  0  0  0  0  0  0  0
   10.1325  -14.6543   30.7645 O   0  0  0  0  0  0  0  0  0  0  0  0
   10.4400  -15.1595   29.5253 C   0  0  0  0  0  0  0  0  0  0  0  0
   10.4699  -16.5052   29.2900 C   0  0  0  0  0  0  0  0  0  0  0  0
   10.7804  -16.9983   28.0433 C   0  0  0  0  0  0  0  0  0  0  0  0
   11.0749  -16.1786   26.9708 C   0  0  0  0  0  0  0  0  0  0  0  0
   11.3862  -16.7670   25.6432 C   0  0  0  0  0  0  0  0  0  0  0  0
   10.2697  -16.7688   24.6818 C   0  0  2  0  0  0  0  0  0  0  0  0
   10.6992  -17.4756   23.4674 N   0  0  0  0  0  0  0  0  0  0  0  0
    9.6136  -15.5028   24.3763 C   0  0  0  0  0  0  0  0  0  0  0  0
   10.2787  -14.6343   23.7249 O   0  0  0  0  0  0  0  0  0  0  0  0
   11.0430  -14.8268   27.2073 C   0  0  0  0  0  0  0  0  0  0  0  0
   10.7367  -14.3254   28.4437 C   0  0  0  0  0  0  0  0  0  0  0  0
    8.2774  -13.8864   18.2707 O   0  0  0  0  0  0  0  0  0  0  0  0
    7.8764  -13.8748   19.5967 C   0  0  0  0  0  0  0  0  0  0  0  0
    7.3054  -14.9848   20.2029 C   0  0  0  0  0  0  0  0  0  0  0  0
    6.9123  -14.9487   21.5244 C   0  0  0  0  0  0  0  0  0  0  0  0
    7.0624  -13.8135   22.3178 C   0  0  0  0  0  0  0  0  0  0  0  0
    6.6375  -13.7868   23.7350 C   0  0  0  0  0  0  0  0  0  0  0  0
    7.7823  -13.8034   24.7052 C   0  0  2  0  0  0  0  0  0  0  0  0
    8.2968  -15.1537   24.7400 N   0  0  0  0  0  0  0  0  0  0  0  0
    7.5053  -13.2249   26.0090 C   0  0  0  0  0  0  0  0  0  0  0  0
    7.1471  -12.0153   26.0966 O   0  0  0  0  0  0  0  0  0  0  0  0
    7.6299  -12.7132   21.7105 C   0  0  0  0  0  0  0  0  0  0  0  0
    8.0249  -12.7496   20.3834 C   0  0  0  0  0  0  0  0  0  0  0  0
    7.6038  -13.9139   27.2068 O   0  0  0  0  0  0  0  0  0  0  0  0
  2  1  1  6
  2  3  1  0
  3  4  1  0
  4  5  1  0
  5  9  1  0
  5  6  2  0
  7  8  2  0
  7  2  1  0
 10 11  1  0
 11 21  2  0
 12 11  1  0
 12 13  2  0
 13 14  1  0
 14 20  2  0
 14 15  1  0
 16 15  1  1
 16 17  1  0
 17  7  1  0
 18 16  1  0
 19 18  2  0
 21 20  1  0
 23 24  2  0
 23 22  1  0
 25 24  1  0
 26 25  2  0
 27 26  1  0
 28 27  1  6
 28 30  1  0
 28 29  1  0
 29 18  1  0
 30 34  1  0
 31 30  2  0
 32 26  1  0
 32 33  2  0
 33 23  1  0
M  END
$$$$
