EYY.pdb
     RDKit          3D

 34 35  0  0  1  0  0  0  0  0999 V2000
    9.2673  -18.6538   19.1480 N   0  0  0  0  0  0  0  0  0  0  0  0
    8.6197  -18.4241   20.4572 C   0  0  1  0  0  0  0  0  0  0  0  0
    9.0329  -19.5780   21.3118 C   0  0  0  0  0  0  0  0  0  0  0  0
    8.6886  -20.9298   20.8038 C   0  0  0  0  0  0  0  0  0  0  0  0
    9.1172  -21.9264   21.8235 C   0  0  0  0  0  0  0  0  0  0  0  0
    8.8713  -23.1520   21.7480 O   0  0  0  0  0  0  0  0  0  0  0  0
    9.1746  -17.1651   21.0504 C   0  0  0  0  0  0  0  0  0  0  0  0
   10.3568  -16.8092   20.8771 O   0  0  0  0  0  0  0  0  0  0  0  0
    9.8426  -21.5290   22.9583 O   0  0  0  0  0  0  0  0  0  0  0  0
    7.4946  -12.9153   16.6608 O   0  0  0  0  0  0  0  0  0  0  0  0
    7.6284  -13.1638   18.0046 C   0  0  0  0  0  0  0  0  0  0  0  0
    6.8713  -14.1112   18.6345 C   0  0  0  0  0  0  0  0  0  0  0  0
    7.0149  -14.3497   19.9822 C   0  0  0  0  0  0  0  0  0  0  0  0
    7.9178  -13.6599   20.7681 C   0  0  0  0  0  0  0  0  0  0  0  0
    8.0414  -13.9722   22.2148 C   0  0  0  0  0  0  0  0  0  0  0  0
    8.8967  -15.1285   22.5349 C   0  0  2  0  0  0  0  0  0  0  0  0
    8.3582  -16.3122   21.8511 N   0  0  0  0  0  0  0  0  0  0  0  0
    9.2069  -15.3973   23.9341 C   0  0  0  0  0  0  0  0  0  0  0  0
    9.9572  -14.5683   24.5432 O   0  0  0  0  0  0  0  0  0  0  0  0
    8.6793  -12.7097   20.1345 C   0  0  0  0  0  0  0  0  0  0  0  0
    8.5438  -12.4631   18.7949 C   0  0  0  0  0  0  0  0  0  0  0  0
    6.2694  -10.9832   27.1718 O   0  0  0  0  0  0  0  0  0  0  0  0
    6.6441  -12.3149   27.0973 C   0  0  0  0  0  0  0  0  0  0  0  0
    7.8993  -12.7501   27.4983 C   0  0  0  0  0  0  0  0  0  0  0  0
    8.2501  -14.0812   27.4130 C   0  0  0  0  0  0  0  0  0  0  0  0
    7.3792  -15.0538   26.9269 C   0  0  0  0  0  0  0  0  0  0  0  0
    7.7666  -16.4793   26.8407 C   0  0  0  0  0  0  0  0  0  0  0  0
    9.0382  -16.7105   26.0782 C   0  0  2  0  0  0  0  0  0  0  0  0
    8.7443  -16.5018   24.6785 N   0  0  0  0  0  0  0  0  0  0  0  0
    9.7280  -17.9544   26.3753 C   0  0  0  0  0  0  0  0  0  0  0  0
    9.9638  -18.7796   25.4465 O   0  0  0  0  0  0  0  0  0  0  0  0
    6.1334  -14.6160   26.5294 C   0  0  0  0  0  0  0  0  0  0  0  0
    5.7811  -13.2792   26.6153 C   0  0  0  0  0  0  0  0  0  0  0  0
   10.1652  -18.3239   27.6368 O   0  0  0  0  0  0  0  0  0  0  0  0
  2  1  1  6
  2  3  1  0
  3  4  1  0
  4  5  1  0
  5  9  1  0
  5  6  2  0
  7  8  2  0
  7  2  1  0
 10 11  1  0
 11 21  2  0
 12 11  1  0
 12 13  2  0
 13 14  1  0
 14 20  2  0
 14 15  1  0
 16 15  1  1
 16 17  1  0
 17  7  1  0
 18 16  1  0
 19 18  2  0
 21 20  1  0
 23 24  2  0
 23 22  1  0
 25 24  1  0
 26 25  2  0
 27 26  1  0
 28 27  1  1
 28 30  1  0
 28 29  1  0
 29 18  1  0
 30 34  1  0
 31 30  2  0
 32 26  1  0
 32 33  2  0
 33 23  1  0
M  END
$$$$
