EYY.pdb
     RDKit          3D

 34 35  0  0  1  0  0  0  0  0999 V2000
    9.5382  -16.8392   17.6350 N   0  0  0  0  0  0  0  0  0  0  0  0
    9.2162  -17.4788   18.9286 C   0  0  1  0  0  0  0  0  0  0  0  0
   10.2832  -18.5030   19.1411 C   0  0  0  0  0  0  0  0  0  0  0  0
   10.5834  -19.3895   17.9886 C   0  0  0  0  0  0  0  0  0  0  0  0
   11.8508  -20.1128   18.2837 C   0  0  0  0  0  0  0  0  0  0  0  0
   12.8614  -20.0798   17.5450 O   0  0  0  0  0  0  0  0  0  0  0  0
    9.3194  -16.4473   20.0104 C   0  0  0  0  0  0  0  0  0  0  0  0
   10.1447  -15.5140   19.9673 O   0  0  0  0  0  0  0  0  0  0  0  0
   11.9808  -20.8939   19.4434 O   0  0  0  0  0  0  0  0  0  0  0  0
    6.4955  -11.8401   27.1457 O   0  0  0  0  0  0  0  0  0  0  0  0
    6.6679  -12.5859   26.0057 C   0  0  0  0  0  0  0  0  0  0  0  0
    6.3094  -13.9035   25.9533 C   0  0  0  0  0  0  0  0  0  0  0  0
    6.4883  -14.6398   24.8046 C   0  0  0  0  0  0  0  0  0  0  0  0
    7.0306  -14.1025   23.6530 C   0  0  0  0  0  0  0  0  0  0  0  0
    7.1842  -14.9410   22.4369 C   0  0  0  0  0  0  0  0  0  0  0  0
    8.5329  -15.4952   22.2248 C   0  0  2  0  0  0  0  0  0  0  0  0
    8.4640  -16.4957   21.1510 N   0  0  0  0  0  0  0  0  0  0  0  0
    9.2736  -15.9831   23.3822 C   0  0  0  0  0  0  0  0  0  0  0  0
    8.7547  -16.9268   24.0615 O   0  0  0  0  0  0  0  0  0  0  0  0
    7.3889  -12.7784   23.7057 C   0  0  0  0  0  0  0  0  0  0  0  0
    7.2167  -12.0370   24.8434 C   0  0  0  0  0  0  0  0  0  0  0  0
   11.2709  -15.6739   31.6183 O   0  0  0  0  0  0  0  0  0  0  0  0
   10.9375  -15.5791   30.2770 C   0  0  0  0  0  0  0  0  0  0  0  0
   11.0908  -14.3998   29.5619 C   0  0  0  0  0  0  0  0  0  0  0  0
   10.7502  -14.3292   28.2273 C   0  0  0  0  0  0  0  0  0  0  0  0
   10.2397  -15.4204   27.5277 C   0  0  0  0  0  0  0  0  0  0  0  0
    9.8784  -15.3329   26.0954 C   0  0  0  0  0  0  0  0  0  0  0  0
   11.0176  -15.6429   25.1691 C   0  0  2  0  0  0  0  0  0  0  0  0
   10.5244  -15.4996   23.8180 N   0  0  0  0  0  0  0  0  0  0  0  0
   11.7158  -16.8898   25.4319 C   0  0  0  0  0  0  0  0  0  0  0  0
   12.9177  -16.8664   25.8243 O   0  0  0  0  0  0  0  0  0  0  0  0
   10.0890  -16.5897   28.2430 C   0  0  0  0  0  0  0  0  0  0  0  0
   10.4313  -16.6606   29.5833 C   0  0  0  0  0  0  0  0  0  0  0  0
   11.1531  -18.1470   25.2839 O   0  0  0  0  0  0  0  0  0  0  0  0
  2  1  1  6
  2  3  1  0
  3  4  1  0
  4  5  1  0
  5  9  1  0
  5  6  2  0
  7  8  2  0
  7  2  1  0
 10 11  1  0
 11 21  2  0
 12 11  1  0
 12 13  2  0
 13 14  1  0
 14 20  2  0
 14 15  1  0
 16 15  1  1
 16 17  1  0
 17  7  1  0
 18 16  1  0
 19 18  2  0
 21 20  1  0
 23 24  2  0
 23 22  1  0
 25 24  1  0
 26 25  2  0
 27 26  1  0
 28 27  1  1
 28 30  1  0
 28 29  1  0
 29 18  1  0
 30 34  1  0
 31 30  2  0
 32 26  1  0
 32 33  2  0
 33 23  1  0
M  END
$$$$
