EYY.pdb
     RDKit          3D

 34 35  0  0  1  0  0  0  0  0999 V2000
   11.6298  -16.6019   19.9403 N   0  0  0  0  0  0  0  0  0  0  0  0
   10.7990  -17.2769   20.9602 C   0  0  1  0  0  0  0  0  0  0  0  0
   11.6262  -18.4198   21.4524 C   0  0  0  0  0  0  0  0  0  0  0  0
   11.7910  -19.5627   20.5193 C   0  0  0  0  0  0  0  0  0  0  0  0
   12.5124  -20.6457   21.2429 C   0  0  0  0  0  0  0  0  0  0  0  0
   12.0015  -21.3368   22.1537 O   0  0  0  0  0  0  0  0  0  0  0  0
   10.5704  -16.3264   22.0957 C   0  0  0  0  0  0  0  0  0  0  0  0
   11.4598  -15.5602   22.5152 O   0  0  0  0  0  0  0  0  0  0  0  0
   13.8455  -20.9566   20.9300 O   0  0  0  0  0  0  0  0  0  0  0  0
    6.1202  -10.9234   27.5350 O   0  0  0  0  0  0  0  0  0  0  0  0
    6.4904  -11.8549   26.5964 C   0  0  0  0  0  0  0  0  0  0  0  0
    7.2110  -11.5057   25.4892 C   0  0  0  0  0  0  0  0  0  0  0  0
    7.5748  -12.4492   24.5558 C   0  0  0  0  0  0  0  0  0  0  0  0
    7.2414  -13.7844   24.6782 C   0  0  0  0  0  0  0  0  0  0  0  0
    7.6764  -14.7612   23.6475 C   0  0  0  0  0  0  0  0  0  0  0  0
    9.0324  -15.3066   23.8344 C   0  0  2  0  0  0  0  0  0  0  0  0
    9.3056  -16.2622   22.7522 N   0  0  0  0  0  0  0  0  0  0  0  0
    9.3919  -15.8418   25.1423 C   0  0  0  0  0  0  0  0  0  0  0  0
    9.0253  -17.0300   25.4161 O   0  0  0  0  0  0  0  0  0  0  0  0
    6.5191  -14.1349   25.7915 C   0  0  0  0  0  0  0  0  0  0  0  0
    6.1506  -13.2045   26.7256 C   0  0  0  0  0  0  0  0  0  0  0  0
   15.3635  -19.6608   26.2308 O   0  0  0  0  0  0  0  0  0  0  0  0
   14.5136  -18.6251   26.5832 C   0  0  0  0  0  0  0  0  0  0  0  0
   14.2857  -17.5423   25.7457 C   0  0  0  0  0  0  0  0  0  0  0  0
   13.4362  -16.5220   26.1193 C   0  0  0  0  0  0  0  0  0  0  0  0
   12.7663  -16.5170   27.3407 C   0  0  0  0  0  0  0  0  0  0  0  0
   11.8566  -15.4170   27.7304 C   0  0  0  0  0  0  0  0  0  0  0  0
   10.4117  -15.7025   27.4424 C   0  0  2  0  0  0  0  0  0  0  0  0
   10.1170  -15.1550   26.1376 N   0  0  0  0  0  0  0  0  0  0  0  0
    9.4781  -15.3184   28.4875 C   0  0  0  0  0  0  0  0  0  0  0  0
    9.5281  -15.8883   29.6153 O   0  0  0  0  0  0  0  0  0  0  0  0
   12.9965  -17.5950   28.1693 C   0  0  0  0  0  0  0  0  0  0  0  0
   13.8494  -18.6198   27.7939 C   0  0  0  0  0  0  0  0  0  0  0  0
    8.5036  -14.3441   28.3457 O   0  0  0  0  0  0  0  0  0  0  0  0
  2  1  1  6
  2  3  1  0
  3  4  1  0
  4  5  1  0
  5  9  1  0
  5  6  2  0
  7  8  2  0
  7  2  1  0
 10 11  1  0
 11 21  2  0
 12 11  1  0
 12 13  2  0
 13 14  1  0
 14 20  2  0
 14 15  1  0
 16 15  1  1
 16 17  1  0
 17  7  1  0
 18 16  1  0
 19 18  2  0
 21 20  1  0
 23 24  2  0
 23 22  1  0
 25 24  1  0
 26 25  2  0
 27 26  1  0
 28 27  1  1
 28 30  1  0
 28 29  1  0
 29 18  1  0
 30 34  1  0
 31 30  2  0
 32 26  1  0
 32 33  2  0
 33 23  1  0
M  END
$$$$
