QKN.pdb
     RDKit          3D

 27 26  0  0  1  0  0  0  0  0999 V2000
   25.0974  -18.6991  -17.7355 N   0  0  0  0  0  0  0  0  0  0  0  0
   25.3550  -19.5027  -16.5931 C   0  0  0  0  0  0  0  0  0  0  0  0
   26.4675  -20.0603  -16.4110 O   0  0  0  0  0  0  0  0  0  0  0  0
   24.2339  -19.6570  -15.6075 C   0  0  0  0  0  0  0  0  0  0  0  0
   23.0968  -18.7445  -16.0030 C   0  0  0  0  0  0  0  0  0  0  0  0
   21.9713  -18.7876  -14.9992 C   0  0  2  0  0  0  0  0  0  0  0  0
   21.5363  -20.1494  -14.8487 N   0  0  0  0  0  0  0  0  0  0  0  0
   20.8963  -17.8506  -15.3329 C   0  0  0  0  0  0  0  0  0  0  0  0
   20.3392  -17.9426  -16.4485 O   0  0  0  0  0  0  0  0  0  0  0  0
   20.4198  -16.8086  -14.4570 N   0  0  0  0  0  0  0  0  0  0  0  0
   19.3868  -15.9022  -14.8577 C   0  0  1  0  0  0  0  0  0  0  0  0
   18.6178  -15.3472  -13.7333 C   0  0  0  0  0  0  0  0  0  0  0  0
   17.2275  -14.9234  -13.8535 C   0  0  0  0  0  0  0  0  0  0  0  0
   16.1264  -15.8902  -13.6179 C   0  0  0  0  0  0  0  0  0  0  0  0
   14.7577  -15.2301  -13.9349 C   0  0  0  0  0  0  0  0  0  0  0  0
   13.7093  -16.2235  -13.8911 N   0  0  0  0  0  0  0  0  0  0  0  0
   19.8908  -14.8749  -15.8116 C   0  0  0  0  0  0  0  0  0  0  0  0
   21.0977  -14.5621  -15.7272 O   0  0  0  0  0  0  0  0  0  0  0  0
   20.0780  -12.9396  -20.5790 N   0  0  0  0  0  0  0  0  0  0  0  0
   20.6361  -14.1904  -20.1761 C   0  0  0  0  0  0  0  0  0  0  0  0
   21.4072  -14.7602  -20.9942 O   0  0  0  0  0  0  0  0  0  0  0  0
   20.2917  -14.7430  -18.8537 C   0  0  0  0  0  0  0  0  0  0  0  0
   19.4709  -13.7893  -18.0824 C   0  0  2  0  0  0  0  0  0  0  0  0
   19.0816  -14.2559  -16.7827 N   0  0  0  0  0  0  0  0  0  0  0  0
   18.3520  -13.2204  -18.8854 C   0  0  0  0  0  0  0  0  0  0  0  0
   17.1991  -13.7145  -18.9314 O   0  0  0  0  0  0  0  0  0  0  0  0
   18.5182  -12.0609  -19.6626 O   0  0  0  0  0  0  0  0  0  0  0  0
  1  2  1  0
  2  3  2  0
  4  5  1  0
  4  2  1  0
  5  6  1  0
  6  8  1  0
  6  7  1  6
  8  9  2  0
 10 11  1  0
 10  8  1  0
 11 12  1  1
 13 14  1  0
 13 12  1  0
 14 15  1  0
 16 15  1  0
 17 24  1  0
 17 11  1  0
 18 17  2  0
 19 20  1  0
 20 21  2  0
 20 22  1  0
 23 22  1  6
 23 24  1  0
 25 27  1  0
 25 23  1  0
 26 25  2  0
M  END
$$$$
