QKN.pdb
     RDKit          3D

 27 26  0  0  1  0  0  0  0  0999 V2000
   17.0902  -19.5398    2.3430 N   0  0  0  0  0  0  0  0  0  0  0  0
   17.3595  -19.7970    3.7136 C   0  0  0  0  0  0  0  0  0  0  0  0
   18.1168  -20.7331    4.0769 O   0  0  0  0  0  0  0  0  0  0  0  0
   16.6963  -18.8965    4.7142 C   0  0  0  0  0  0  0  0  0  0  0  0
   15.8256  -17.9006    3.9846 C   0  0  0  0  0  0  0  0  0  0  0  0
   15.1873  -16.9165    4.9335 C   0  0  2  0  0  0  0  0  0  0  0  0
   14.2847  -16.0776    4.1933 N   0  0  0  0  0  0  0  0  0  0  0  0
   16.1811  -16.1793    5.7170 C   0  0  0  0  0  0  0  0  0  0  0  0
   16.7815  -15.2210    5.1835 O   0  0  0  0  0  0  0  0  0  0  0  0
   16.5285  -16.4784    7.0846 N   0  0  0  0  0  0  0  0  0  0  0  0
   17.4311  -15.6540    7.8294 C   0  0  1  0  0  0  0  0  0  0  0  0
   16.7832  -14.8918    8.9078 C   0  0  0  0  0  0  0  0  0  0  0  0
   17.4817  -13.8878    9.7021 C   0  0  0  0  0  0  0  0  0  0  0  0
   16.7924  -13.2115   10.8291 C   0  0  0  0  0  0  0  0  0  0  0  0
   17.7461  -12.1894   11.5038 C   0  0  0  0  0  0  0  0  0  0  0  0
   17.1291  -11.6508   12.6943 N   0  0  0  0  0  0  0  0  0  0  0  0
   18.6400  -16.4085    8.2637 C   0  0  0  0  0  0  0  0  0  0  0  0
   18.5037  -17.6332    8.4711 O   0  0  0  0  0  0  0  0  0  0  0  0
   24.2047  -17.1532    8.2973 N   0  0  0  0  0  0  0  0  0  0  0  0
   23.5114  -16.3330    9.2381 C   0  0  0  0  0  0  0  0  0  0  0  0
   23.9763  -16.2910   10.4088 O   0  0  0  0  0  0  0  0  0  0  0  0
   22.3129  -15.5920    8.8055 C   0  0  0  0  0  0  0  0  0  0  0  0
   21.1038  -16.4296    8.9275 C   0  0  2  0  0  0  0  0  0  0  0  0
   19.9018  -15.8118    8.4459 N   0  0  0  0  0  0  0  0  0  0  0  0
   20.9721  -17.0477   10.2770 C   0  0  0  0  0  0  0  0  0  0  0  0
   20.3443  -16.5252   11.2300 O   0  0  0  0  0  0  0  0  0  0  0  0
   21.5558  -18.2906   10.5780 O   0  0  0  0  0  0  0  0  0  0  0  0
  1  2  1  0
  2  3  2  0
  4  5  1  0
  4  2  1  0
  5  6  1  0
  6  8  1  0
  6  7  1  6
  8  9  2  0
 10 11  1  0
 10  8  1  0
 11 12  1  1
 13 14  1  0
 13 12  1  0
 14 15  1  0
 16 15  1  0
 17 24  1  0
 17 11  1  0
 18 17  2  0
 19 20  1  0
 20 21  2  0
 20 22  1  0
 23 22  1  1
 23 24  1  0
 25 27  1  0
 25 23  1  0
 26 25  2  0
M  END
$$$$
