QKN.pdb
     RDKit          3D

 27 26  0  0  1  0  0  0  0  0999 V2000
   11.0330   -8.6368   -7.8069 N   0  0  0  0  0  0  0  0  0  0  0  0
   10.5717   -9.5697   -8.7734 C   0  0  0  0  0  0  0  0  0  0  0  0
    9.3564   -9.8786   -8.8705 O   0  0  0  0  0  0  0  0  0  0  0  0
   11.6053  -10.1734   -9.6785 C   0  0  0  0  0  0  0  0  0  0  0  0
   12.9617   -9.6073   -9.3294 C   0  0  0  0  0  0  0  0  0  0  0  0
   14.0441  -10.1593  -10.2237 C   0  0  2  0  0  0  0  0  0  0  0  0
   14.2437  -11.5473   -9.9073 N   0  0  0  0  0  0  0  0  0  0  0  0
   15.2663   -9.3538  -10.1747 C   0  0  0  0  0  0  0  0  0  0  0  0
   16.0421   -9.4912   -9.2037 O   0  0  0  0  0  0  0  0  0  0  0  0
   15.6533   -8.3947  -11.1800 N   0  0  0  0  0  0  0  0  0  0  0  0
   16.9196   -7.7286  -11.1369 C   0  0  1  0  0  0  0  0  0  0  0  0
   17.8084   -8.0747  -12.2567 C   0  0  0  0  0  0  0  0  0  0  0  0
   19.1087   -7.4472  -12.4627 C   0  0  0  0  0  0  0  0  0  0  0  0
   19.9566   -7.8411  -13.6154 C   0  0  0  0  0  0  0  0  0  0  0  0
   21.3365   -7.1356  -13.5305 C   0  0  0  0  0  0  0  0  0  0  0  0
   22.1096   -7.4201  -14.7176 N   0  0  0  0  0  0  0  0  0  0  0  0
   16.7673   -6.2633  -10.9158 C   0  0  0  0  0  0  0  0  0  0  0  0
   16.0360   -5.6394  -11.7142 O   0  0  0  0  0  0  0  0  0  0  0  0
   17.0340   -1.5390   -9.0037 N   0  0  0  0  0  0  0  0  0  0  0  0
   17.7068   -2.3350   -8.0280 C   0  0  0  0  0  0  0  0  0  0  0  0
   18.1327   -1.7395   -7.0021 O   0  0  0  0  0  0  0  0  0  0  0  0
   17.8677   -3.7815   -8.2615 C   0  0  0  0  0  0  0  0  0  0  0  0
   17.3429   -4.1620   -9.5874 C   0  0  2  0  0  0  0  0  0  0  0  0
   17.3991   -5.5680   -9.8677 N   0  0  0  0  0  0  0  0  0  0  0  0
   17.8769   -3.3015  -10.6805 C   0  0  0  0  0  0  0  0  0  0  0  0
   18.9785   -3.4937  -11.2504 O   0  0  0  0  0  0  0  0  0  0  0  0
   17.1615   -2.1901  -11.1592 O   0  0  0  0  0  0  0  0  0  0  0  0
  1  2  1  0
  2  3  2  0
  4  5  1  0
  4  2  1  0
  5  6  1  0
  6  8  1  0
  6  7  1  1
  8  9  2  0
 10 11  1  0
 10  8  1  0
 11 12  1  6
 13 14  1  0
 13 12  1  0
 14 15  1  0
 16 15  1  0
 17 24  1  0
 17 11  1  0
 18 17  2  0
 19 20  1  0
 20 21  2  0
 20 22  1  0
 23 22  1  1
 23 24  1  0
 25 27  1  0
 25 23  1  0
 26 25  2  0
M  END
$$$$
