QKN.pdb
     RDKit          3D

 27 26  0  0  1  0  0  0  0  0999 V2000
   24.1283  -21.2503  -10.2808 N   0  0  0  0  0  0  0  0  0  0  0  0
   24.7324  -20.8524   -9.0585 C   0  0  0  0  0  0  0  0  0  0  0  0
   24.2721  -21.2089   -7.9437 O   0  0  0  0  0  0  0  0  0  0  0  0
   25.9515  -19.9830   -9.1577 C   0  0  0  0  0  0  0  0  0  0  0  0
   26.1974  -19.6372  -10.6076 C   0  0  0  0  0  0  0  0  0  0  0  0
   26.9651  -20.7243  -11.3184 C   0  0  2  0  0  0  0  0  0  0  0  0
   28.2532  -20.8648  -10.6960 N   0  0  0  0  0  0  0  0  0  0  0  0
   27.0216  -20.5059  -12.7655 C   0  0  0  0  0  0  0  0  0  0  0  0
   27.0135  -19.3337  -13.2005 O   0  0  0  0  0  0  0  0  0  0  0  0
   27.0876  -21.5593  -13.7484 N   0  0  0  0  0  0  0  0  0  0  0  0
   26.7174  -21.3391  -15.1136 C   0  0  1  0  0  0  0  0  0  0  0  0
   27.4701  -22.1640  -16.0711 C   0  0  0  0  0  0  0  0  0  0  0  0
   28.1638  -21.6070  -17.2267 C   0  0  0  0  0  0  0  0  0  0  0  0
   28.8978  -22.4969  -18.1606 C   0  0  0  0  0  0  0  0  0  0  0  0
   29.6359  -21.6536  -19.2345 C   0  0  0  0  0  0  0  0  0  0  0  0
   30.3206  -22.5255  -20.1612 N   0  0  0  0  0  0  0  0  0  0  0  0
   25.2404  -21.3894  -15.3018 C   0  0  0  0  0  0  0  0  0  0  0  0
   24.5876  -22.0936  -14.5022 O   0  0  0  0  0  0  0  0  0  0  0  0
   20.7813  -19.0376  -16.0741 N   0  0  0  0  0  0  0  0  0  0  0  0
   21.6064  -18.9051  -14.9164 C   0  0  0  0  0  0  0  0  0  0  0  0
   21.0885  -18.3550  -13.9076 O   0  0  0  0  0  0  0  0  0  0  0  0
   22.9921  -19.4061  -14.9554 C   0  0  0  0  0  0  0  0  0  0  0  0
   23.2797  -20.0582  -16.2478 C   0  0  2  0  0  0  0  0  0  0  0  0
   24.5649  -20.6917  -16.3207 N   0  0  0  0  0  0  0  0  0  0  0  0
   22.9663  -19.1814  -17.4112 C   0  0  0  0  0  0  0  0  0  0  0  0
   23.7432  -18.3019  -17.8566 O   0  0  0  0  0  0  0  0  0  0  0  0
   21.7487  -19.2865  -18.1059 O   0  0  0  0  0  0  0  0  0  0  0  0
  1  2  1  0
  2  3  2  0
  4  5  1  0
  4  2  1  0
  5  6  1  0
  6  8  1  0
  6  7  1  1
  8  9  2  0
 10 11  1  0
 10  8  1  0
 11 12  1  6
 13 14  1  0
 13 12  1  0
 14 15  1  0
 16 15  1  0
 17 24  1  0
 17 11  1  0
 18 17  2  0
 19 20  1  0
 20 21  2  0
 20 22  1  0
 23 22  1  1
 23 24  1  0
 25 27  1  0
 25 23  1  0
 26 25  2  0
M  END
$$$$
