QKN.pdb
     RDKit          3D

 27 26  0  0  1  0  0  0  0  0999 V2000
   14.0045   -7.9494  -15.7256 N   0  0  0  0  0  0  0  0  0  0  0  0
   13.5774   -8.7762  -16.7986 C   0  0  0  0  0  0  0  0  0  0  0  0
   12.4906   -8.5758  -17.3989 O   0  0  0  0  0  0  0  0  0  0  0  0
   14.4863   -9.9057  -17.1859 C   0  0  0  0  0  0  0  0  0  0  0  0
   15.7630   -9.8123  -16.3836 C   0  0  0  0  0  0  0  0  0  0  0  0
   16.7281  -10.9159  -16.7397 C   0  0  2  0  0  0  0  0  0  0  0  0
   16.2842  -12.1365  -16.1238 N   0  0  0  0  0  0  0  0  0  0  0  0
   18.1144  -10.5600  -16.4290 C   0  0  0  0  0  0  0  0  0  0  0  0
   18.5535  -10.7865  -15.2804 O   0  0  0  0  0  0  0  0  0  0  0  0
   19.0318   -9.9563  -17.3639 N   0  0  0  0  0  0  0  0  0  0  0  0
   20.3889   -9.6707  -17.0089 C   0  0  1  0  0  0  0  0  0  0  0  0
   21.3779  -10.3069  -17.8926 C   0  0  0  0  0  0  0  0  0  0  0  0
   22.8127  -10.0712  -17.7797 C   0  0  0  0  0  0  0  0  0  0  0  0
   23.7529  -10.6971  -18.7424 C   0  0  0  0  0  0  0  0  0  0  0  0
   23.7750  -12.2366  -18.5450 C   0  0  0  0  0  0  0  0  0  0  0  0
   25.1368  -12.6942  -18.3898 N   0  0  0  0  0  0  0  0  0  0  0  0
   20.6120   -8.2124  -16.8019 C   0  0  0  0  0  0  0  0  0  0  0  0
   20.2917   -7.4483  -17.7374 O   0  0  0  0  0  0  0  0  0  0  0  0
   21.6832   -3.6743  -14.6797 N   0  0  0  0  0  0  0  0  0  0  0  0
   20.3971   -4.0446  -15.1771 C   0  0  0  0  0  0  0  0  0  0  0  0
   19.5606   -3.1162  -15.3408 O   0  0  0  0  0  0  0  0  0  0  0  0
   20.1156   -5.4619  -15.4684 C   0  0  0  0  0  0  0  0  0  0  0  0
   21.3259   -6.2868  -15.2874 C   0  0  2  0  0  0  0  0  0  0  0  0
   21.1568   -7.6716  -15.6220 N   0  0  0  0  0  0  0  0  0  0  0  0
   21.9826   -6.0546  -13.9701 C   0  0  0  0  0  0  0  0  0  0  0  0
   22.1997   -6.9572  -13.1254 O   0  0  0  0  0  0  0  0  0  0  0  0
   22.4158   -4.7760  -13.5782 O   0  0  0  0  0  0  0  0  0  0  0  0
  1  2  1  0
  2  3  2  0
  4  5  1  0
  4  2  1  0
  5  6  1  0
  6  8  1  0
  6  7  1  1
  8  9  2  0
 10 11  1  0
 10  8  1  0
 11 12  1  6
 13 14  1  0
 13 12  1  0
 14 15  1  0
 16 15  1  0
 17 24  1  0
 17 11  1  0
 18 17  2  0
 19 20  1  0
 20 21  2  0
 20 22  1  0
 23 22  1  1
 23 24  1  0
 25 27  1  0
 25 23  1  0
 26 25  2  0
M  END
$$$$
