QKN.pdb
     RDKit          3D

 27 26  0  0  1  0  0  0  0  0999 V2000
   12.8105  -10.4745   -9.0887 N   0  0  0  0  0  0  0  0  0  0  0  0
   12.1122   -9.2644   -8.8336 C   0  0  0  0  0  0  0  0  0  0  0  0
   11.3161   -9.1486   -7.8669 O   0  0  0  0  0  0  0  0  0  0  0  0
   12.3686   -8.1238   -9.7746 C   0  0  0  0  0  0  0  0  0  0  0  0
   13.5068   -8.4892  -10.6983 C   0  0  0  0  0  0  0  0  0  0  0  0
   13.2509   -8.0243  -12.1106 C   0  0  2  0  0  0  0  0  0  0  0  0
   12.2069   -8.8305  -12.6820 N   0  0  0  0  0  0  0  0  0  0  0  0
   14.4776   -7.9814  -12.9096 C   0  0  0  0  0  0  0  0  0  0  0  0
   15.3274   -8.8865  -12.7612 O   0  0  0  0  0  0  0  0  0  0  0  0
   14.7883   -6.9555  -13.8746 N   0  0  0  0  0  0  0  0  0  0  0  0
   15.9420   -7.0400  -14.7179 C   0  0  1  0  0  0  0  0  0  0  0  0
   15.6845   -6.6521  -16.1132 C   0  0  0  0  0  0  0  0  0  0  0  0
   16.7214   -6.6378  -17.1386 C   0  0  0  0  0  0  0  0  0  0  0  0
   16.4034   -6.1979  -18.5199 C   0  0  0  0  0  0  0  0  0  0  0  0
   17.6563   -6.3321  -19.4261 C   0  0  0  0  0  0  0  0  0  0  0  0
   17.3461   -5.8872  -20.7655 N   0  0  0  0  0  0  0  0  0  0  0  0
   17.1227   -6.3647  -14.1102 C   0  0  0  0  0  0  0  0  0  0  0  0
   16.9101   -5.3153  -13.4660 O   0  0  0  0  0  0  0  0  0  0  0  0
   21.8747   -5.0354  -12.8007 N   0  0  0  0  0  0  0  0  0  0  0  0
   21.8574   -6.4629  -12.7800 C   0  0  0  0  0  0  0  0  0  0  0  0
   22.8982   -7.0393  -12.3641 O   0  0  0  0  0  0  0  0  0  0  0  0
   20.6515   -7.1777  -13.2357 C   0  0  0  0  0  0  0  0  0  0  0  0
   19.6470   -6.2330  -13.7618 C   0  0  2  0  0  0  0  0  0  0  0  0
   18.4388   -6.8494  -14.2291 N   0  0  0  0  0  0  0  0  0  0  0  0
   20.2344   -5.2468  -14.7120 C   0  0  0  0  0  0  0  0  0  0  0  0
   20.6042   -5.5298  -15.8776 O   0  0  0  0  0  0  0  0  0  0  0  0
   20.4151   -3.8988  -14.3567 O   0  0  0  0  0  0  0  0  0  0  0  0
  1  2  1  0
  2  3  2  0
  4  5  1  0
  4  2  1  0
  5  6  1  0
  6  8  1  0
  6  7  1  6
  8  9  2  0
 10 11  1  0
 10  8  1  0
 11 12  1  6
 13 14  1  0
 13 12  1  0
 14 15  1  0
 16 15  1  0
 17 24  1  0
 17 11  1  0
 18 17  2  0
 19 20  1  0
 20 21  2  0
 20 22  1  0
 23 22  1  6
 23 24  1  0
 25 27  1  0
 25 23  1  0
 26 25  2  0
M  END
$$$$
