QKN.pdb
     RDKit          3D

 27 26  0  0  1  0  0  0  0  0999 V2000
   26.9814  -32.3013   -3.4162 N   0  0  0  0  0  0  0  0  0  0  0  0
   26.0201  -32.8484   -4.3071 C   0  0  0  0  0  0  0  0  0  0  0  0
   24.7857  -32.7773   -4.0769 O   0  0  0  0  0  0  0  0  0  0  0  0
   26.5464  -33.5187   -5.5423 C   0  0  0  0  0  0  0  0  0  0  0  0
   28.0506  -33.3827   -5.5775 C   0  0  0  0  0  0  0  0  0  0  0  0
   28.7047  -34.5821   -6.2177 C   0  0  2  0  0  0  0  0  0  0  0  0
   27.6878  -35.3931   -6.8297 N   0  0  0  0  0  0  0  0  0  0  0  0
   29.5648  -35.3088   -5.2810 C   0  0  0  0  0  0  0  0  0  0  0  0
   29.1244  -36.3436   -4.7345 O   0  0  0  0  0  0  0  0  0  0  0  0
   30.9081  -34.9160   -4.9327 N   0  0  0  0  0  0  0  0  0  0  0  0
   31.6851  -35.6523   -3.9822 C   0  0  1  0  0  0  0  0  0  0  0  0
   33.1237  -35.3497   -4.0328 C   0  0  0  0  0  0  0  0  0  0  0  0
   34.1005  -35.9826   -3.1541 C   0  0  0  0  0  0  0  0  0  0  0  0
   35.5120  -35.5238   -3.1491 C   0  0  0  0  0  0  0  0  0  0  0  0
   36.3268  -36.3111   -2.0882 C   0  0  0  0  0  0  0  0  0  0  0  0
   37.6801  -35.8077   -2.0327 N   0  0  0  0  0  0  0  0  0  0  0  0
   31.0995  -35.5809   -2.6143 C   0  0  0  0  0  0  0  0  0  0  0  0
   30.3616  -34.6048   -2.3603 O   0  0  0  0  0  0  0  0  0  0  0  0
   27.8977  -37.5811    1.5040 N   0  0  0  0  0  0  0  0  0  0  0  0
   28.7733  -36.5306    1.0940 C   0  0  0  0  0  0  0  0  0  0  0  0
   29.0646  -35.6614    1.9590 O   0  0  0  0  0  0  0  0  0  0  0  0
   29.2826  -36.5128   -0.2891 C   0  0  0  0  0  0  0  0  0  0  0  0
   30.7544  -36.6198   -0.3093 C   0  0  2  0  0  0  0  0  0  0  0  0
   31.3377  -36.5462   -1.6180 N   0  0  0  0  0  0  0  0  0  0  0  0
   31.2551  -37.7538    0.5176 C   0  0  0  0  0  0  0  0  0  0  0  0
   31.5733  -38.8751    0.0519 O   0  0  0  0  0  0  0  0  0  0  0  0
   31.4105  -37.6380    1.9099 O   0  0  0  0  0  0  0  0  0  0  0  0
  1  2  1  0
  2  3  2  0
  4  5  1  0
  4  2  1  0
  5  6  1  0
  6  8  1  0
  6  7  1  1
  8  9  2  0
 10 11  1  0
 10  8  1  0
 11 12  1  1
 13 14  1  0
 13 12  1  0
 14 15  1  0
 16 15  1  0
 17 24  1  0
 17 11  1  0
 18 17  2  0
 19 20  1  0
 20 21  2  0
 20 22  1  0
 23 22  1  6
 23 24  1  0
 25 27  1  0
 25 23  1  0
 26 25  2  0
M  END
$$$$
