QKN.pdb
     RDKit          3D

 27 26  0  0  1  0  0  0  0  0999 V2000
   17.5182  -14.9455  -15.1802 N   0  0  0  0  0  0  0  0  0  0  0  0
   16.1958  -14.4590  -15.0020 C   0  0  0  0  0  0  0  0  0  0  0  0
   15.2337  -15.2288  -14.7502 O   0  0  0  0  0  0  0  0  0  0  0  0
   15.9971  -12.9769  -15.1283 C   0  0  0  0  0  0  0  0  0  0  0  0
   17.3202  -12.3254  -15.4557 C   0  0  0  0  0  0  0  0  0  0  0  0
   17.1731  -10.8391  -15.6687 C   0  0  2  0  0  0  0  0  0  0  0  0
   16.1085  -10.6084  -16.6067 N   0  0  0  0  0  0  0  0  0  0  0  0
   18.4409  -10.2048  -16.0364 C   0  0  0  0  0  0  0  0  0  0  0  0
   19.4315  -10.3560  -15.2887 O   0  0  0  0  0  0  0  0  0  0  0  0
   18.6403   -9.4028  -17.2185 N   0  0  0  0  0  0  0  0  0  0  0  0
   19.8775   -8.7282  -17.4706 C   0  0  1  0  0  0  0  0  0  0  0  0
   20.2855   -8.7490  -18.8836 C   0  0  0  0  0  0  0  0  0  0  0  0
   21.4933   -8.0936  -19.3720 C   0  0  0  0  0  0  0  0  0  0  0  0
   21.8068   -8.0850  -20.8227 C   0  0  0  0  0  0  0  0  0  0  0  0
   23.0954   -7.2609  -21.0868 C   0  0  0  0  0  0  0  0  0  0  0  0
   23.4188   -7.2893  -22.4948 N   0  0  0  0  0  0  0  0  0  0  0  0
   19.9051   -7.3730  -16.8527 C   0  0  0  0  0  0  0  0  0  0  0  0
   19.0978   -6.5281  -17.2955 O   0  0  0  0  0  0  0  0  0  0  0  0
   21.2269   -3.2903  -14.0611 N   0  0  0  0  0  0  0  0  0  0  0  0
   19.8875   -3.7592  -14.2180 C   0  0  0  0  0  0  0  0  0  0  0  0
   18.9661   -2.9924  -13.8286 O   0  0  0  0  0  0  0  0  0  0  0  0
   19.6517   -5.0867  -14.8136 C   0  0  0  0  0  0  0  0  0  0  0  0
   20.9262   -5.7286  -15.1900 C   0  0  2  0  0  0  0  0  0  0  0  0
   20.7835   -7.0128  -15.8135 N   0  0  0  0  0  0  0  0  0  0  0  0
   21.9288   -5.6948  -14.0881 C   0  0  0  0  0  0  0  0  0  0  0  0
   22.2791   -4.6486  -13.4898 O   0  0  0  0  0  0  0  0  0  0  0  0
   22.5628   -6.8640  -13.6329 O   0  0  0  0  0  0  0  0  0  0  0  0
  1  2  1  0
  2  3  2  0
  4  5  1  0
  4  2  1  0
  5  6  1  0
  6  8  1  0
  6  7  1  6
  8  9  2  0
 10 11  1  0
 10  8  1  0
 11 12  1  6
 13 14  1  0
 13 12  1  0
 14 15  1  0
 16 15  1  0
 17 24  1  0
 17 11  1  0
 18 17  2  0
 19 20  1  0
 20 21  2  0
 20 22  1  0
 23 22  1  1
 23 24  1  0
 25 27  1  0
 25 23  1  0
 26 25  2  0
M  END
$$$$
