NLL.pdb
     RDKit          3D

 25 24  0  0  1  0  0  0  0  0999 V2000
   12.0356  -21.5812   24.0414 N   0  0  0  0  0  0  0  0  0  0  0  0
   10.8588  -21.0866   23.3832 C   0  0  0  0  0  0  0  0  0  0  0  0
   10.0237  -21.8806   22.9371 O   0  0  0  0  0  0  0  0  0  0  0  0
   10.7111  -19.6443   23.2753 C   0  0  0  0  0  0  0  0  0  0  0  0
   10.4690  -19.0904   21.8995 C   0  0  2  0  0  0  0  0  0  0  0  0
   11.7746  -19.3315   21.1991 N   0  0  0  0  0  0  0  0  0  0  0  0
   10.3119  -17.6200   21.8492 C   0  0  0  0  0  0  0  0  0  0  0  0
   11.3562  -16.9010   22.0374 O   0  0  0  0  0  0  0  0  0  0  0  0
    6.3717  -12.7909   20.8087 C   0  0  0  0  0  0  0  0  0  0  0  0
    7.6695  -13.3916   21.2125 C   0  0  2  0  0  0  0  0  0  0  0  0
    8.8312  -12.8293   20.3796 C   0  0  0  0  0  0  0  0  0  0  0  0
    7.7343  -14.8769   21.2610 C   0  0  0  0  0  0  0  0  0  0  0  0
    9.0267  -15.4636   21.7602 C   0  0  2  0  0  0  0  0  0  0  0  0
    9.1138  -16.9029   21.6064 N   0  0  0  0  0  0  0  0  0  0  0  0
    9.2027  -15.0055   23.1586 C   0  0  0  0  0  0  0  0  0  0  0  0
   10.0922  -14.1243   23.3462 O   0  0  0  0  0  0  0  0  0  0  0  0
    5.9557  -12.4431   26.2645 C   0  0  0  0  0  0  0  0  0  0  0  0
    7.2780  -13.0085   25.7937 C   0  0  1  0  0  0  0  0  0  0  0  0
    8.3395  -12.1229   26.5021 C   0  0  0  0  0  0  0  0  0  0  0  0
    7.4841  -14.4254   26.2351 C   0  0  0  0  0  0  0  0  0  0  0  0
    8.7220  -15.0042   25.6508 C   0  0  2  0  0  0  0  0  0  0  0  0
    8.4878  -15.4501   24.2691 N   0  0  0  0  0  0  0  0  0  0  0  0
    9.2065  -16.1530   26.4447 C   0  0  0  0  0  0  0  0  0  0  0  0
    9.3440  -17.4181   25.9320 O   0  0  0  0  0  0  0  0  0  0  0  0
    9.5262  -16.0220   27.6775 O   0  0  0  0  0  0  0  0  0  0  0  0
  1  2  1  0
  2  4  1  0
  3  2  2  0
  5  4  1  0
  5  6  1  6
  7  8  2  0
  7  5  1  0
 10  9  1  6
 10 11  1  0
 10 12  1  0
 13 12  1  1
 13 14  1  0
 14  7  1  0
 15 13  1  0
 15 22  1  0
 16 15  2  0
 18 17  1  1
 18 20  1  0
 19 18  1  0
 21 20  1  1
 21 22  1  0
 21 23  1  0
 23 25  2  0
 23 24  1  0
M  END
$$$$
