NLL.pdb
     RDKit          3D

 25 24  0  0  1  0  0  0  0  0999 V2000
   12.1228  -21.5695   19.2669 N   0  0  0  0  0  0  0  0  0  0  0  0
   10.9257  -20.8604   19.6233 C   0  0  0  0  0  0  0  0  0  0  0  0
    9.8435  -21.4560   19.6528 O   0  0  0  0  0  0  0  0  0  0  0  0
   11.0562  -19.4469   19.9374 C   0  0  0  0  0  0  0  0  0  0  0  0
   10.6157  -19.0153   21.3078 C   0  0  2  0  0  0  0  0  0  0  0  0
    9.2141  -19.5451   21.3991 N   0  0  0  0  0  0  0  0  0  0  0  0
   10.4477  -17.5538   21.4660 C   0  0  0  0  0  0  0  0  0  0  0  0
   11.5050  -16.8427   21.6059 O   0  0  0  0  0  0  0  0  0  0  0  0
    6.5309  -12.6431   20.9999 C   0  0  0  0  0  0  0  0  0  0  0  0
    7.8494  -13.2820   21.2478 C   0  0  2  0  0  0  0  0  0  0  0  0
    8.9394  -12.6883   20.3426 C   0  0  0  0  0  0  0  0  0  0  0  0
    7.8920  -14.7683   21.2082 C   0  0  0  0  0  0  0  0  0  0  0  0
    9.1684  -15.4034   21.6888 C   0  0  2  0  0  0  0  0  0  0  0  0
    9.2253  -16.8366   21.4753 N   0  0  0  0  0  0  0  0  0  0  0  0
    9.3463  -15.0081   23.1059 C   0  0  0  0  0  0  0  0  0  0  0  0
   10.3218  -14.2387   23.3494 O   0  0  0  0  0  0  0  0  0  0  0  0
    5.9121  -12.4918   26.0138 C   0  0  0  0  0  0  0  0  0  0  0  0
    7.2651  -13.0311   25.6037 C   0  0  1  0  0  0  0  0  0  0  0  0
    8.2757  -12.0527   26.2629 C   0  0  0  0  0  0  0  0  0  0  0  0
    7.5230  -14.4032   26.1478 C   0  0  0  0  0  0  0  0  0  0  0  0
    8.7613  -14.9930   25.5758 C   0  0  2  0  0  0  0  0  0  0  0  0
    8.5481  -15.4005   24.1788 N   0  0  0  0  0  0  0  0  0  0  0  0
    9.2053  -16.1704   26.3512 C   0  0  0  0  0  0  0  0  0  0  0  0
    9.3638  -17.4176   25.8019 O   0  0  0  0  0  0  0  0  0  0  0  0
    9.4672  -16.0833   27.6013 O   0  0  0  0  0  0  0  0  0  0  0  0
  1  2  1  0
  2  4  1  0
  3  2  2  0
  5  4  1  0
  5  6  1  6
  7  8  2  0
  7  5  1  0
 10  9  1  6
 10 11  1  0
 10 12  1  0
 13 12  1  1
 13 14  1  0
 14  7  1  0
 15 13  1  0
 15 22  1  0
 16 15  2  0
 18 17  1  1
 18 20  1  0
 19 18  1  0
 21 20  1  1
 21 22  1  0
 21 23  1  0
 23 25  2  0
 23 24  1  0
M  END
$$$$
