NLL.pdb
     RDKit          3D

 25 24  0  0  1  0  0  0  0  0999 V2000
   11.2230  -18.6949   18.2867 N   0  0  0  0  0  0  0  0  0  0  0  0
   10.0453  -18.4071   19.0567 C   0  0  0  0  0  0  0  0  0  0  0  0
    9.0727  -19.1671   19.0009 O   0  0  0  0  0  0  0  0  0  0  0  0
   10.0626  -17.2084   19.8793 C   0  0  0  0  0  0  0  0  0  0  0  0
    9.9240  -17.4043   21.3628 C   0  0  2  0  0  0  0  0  0  0  0  0
    8.6180  -18.1333   21.4909 N   0  0  0  0  0  0  0  0  0  0  0  0
    9.7046  -16.1573   22.1283 C   0  0  0  0  0  0  0  0  0  0  0  0
   10.6457  -15.2870   22.1347 O   0  0  0  0  0  0  0  0  0  0  0  0
    8.2106  -12.5567   25.6607 C   0  0  0  0  0  0  0  0  0  0  0  0
    6.9742  -13.0610   25.0086 C   0  0  2  0  0  0  0  0  0  0  0  0
    5.8226  -13.1935   26.0165 C   0  0  0  0  0  0  0  0  0  0  0  0
    7.1022  -14.3014   24.1977 C   0  0  0  0  0  0  0  0  0  0  0  0
    8.4846  -14.6209   23.6970 C   0  0  2  0  0  0  0  0  0  0  0  0
    8.5460  -15.8074   22.8656 N   0  0  0  0  0  0  0  0  0  0  0  0
    9.3747  -14.6801   24.8804 C   0  0  0  0  0  0  0  0  0  0  0  0
    9.7198  -13.5654   25.3718 O   0  0  0  0  0  0  0  0  0  0  0  0
   11.5240  -14.1491   29.1182 C   0  0  0  0  0  0  0  0  0  0  0  0
   10.4301  -15.1939   29.1600 C   0  0  1  0  0  0  0  0  0  0  0  0
    9.4426  -14.6618   30.2346 C   0  0  0  0  0  0  0  0  0  0  0  0
    9.6912  -15.3010   27.8610 C   0  0  0  0  0  0  0  0  0  0  0  0
   10.5505  -15.8693   26.7898 C   0  0  2  0  0  0  0  0  0  0  0  0
    9.8585  -15.8348   25.4925 N   0  0  0  0  0  0  0  0  0  0  0  0
   10.9305  -17.2662   27.0881 C   0  0  0  0  0  0  0  0  0  0  0  0
   10.4254  -18.3454   26.4082 O   0  0  0  0  0  0  0  0  0  0  0  0
   11.7659  -17.5442   28.0175 O   0  0  0  0  0  0  0  0  0  0  0  0
  1  2  1  0
  2  4  1  0
  3  2  2  0
  5  4  1  0
  5  6  1  6
  7  8  2  0
  7  5  1  0
 10  9  1  1
 10 11  1  0
 10 12  1  0
 13 12  1  1
 13 14  1  0
 14  7  1  0
 15 13  1  0
 15 22  1  0
 16 15  2  0
 18 17  1  6
 18 20  1  0
 19 18  1  0
 21 20  1  1
 21 22  1  0
 21 23  1  0
 23 25  2  0
 23 24  1  0
M  END
$$$$
