NLL.pdb
     RDKit          3D

 25 24  0  0  1  0  0  0  0  0999 V2000
    8.5044  -19.6719   19.5992 N   0  0  0  0  0  0  0  0  0  0  0  0
    9.4721  -19.9486   20.6239 C   0  0  0  0  0  0  0  0  0  0  0  0
    9.8224  -21.1135   20.8408 O   0  0  0  0  0  0  0  0  0  0  0  0
    9.9989  -18.8157   21.3674 C   0  0  0  0  0  0  0  0  0  0  0  0
    9.3977  -17.4716   21.0673 C   0  0  2  0  0  0  0  0  0  0  0  0
   10.3588  -16.8805   20.0772 N   0  0  0  0  0  0  0  0  0  0  0  0
    9.4313  -16.5184   22.1985 C   0  0  0  0  0  0  0  0  0  0  0  0
   10.5757  -16.0873   22.5826 O   0  0  0  0  0  0  0  0  0  0  0  0
    6.0874  -13.1165   26.3369 C   0  0  0  0  0  0  0  0  0  0  0  0
    7.3411  -13.5904   25.6950 C   0  0  2  0  0  0  0  0  0  0  0  0
    8.2251  -12.4139   25.2544 C   0  0  0  0  0  0  0  0  0  0  0  0
    7.1974  -14.5763   24.5905 C   0  0  0  0  0  0  0  0  0  0  0  0
    8.4654  -15.2481   24.1385 C   0  0  2  0  0  0  0  0  0  0  0  0
    8.3180  -16.0143   22.9162 N   0  0  0  0  0  0  0  0  0  0  0  0
    8.9676  -16.0469   25.2813 C   0  0  0  0  0  0  0  0  0  0  0  0
    8.6496  -17.2724   25.2843 O   0  0  0  0  0  0  0  0  0  0  0  0
   10.0362  -13.9011   30.0738 C   0  0  0  0  0  0  0  0  0  0  0  0
    9.9403  -14.4978   28.6865 C   0  0  1  0  0  0  0  0  0  0  0  0
   10.4796  -13.3764   27.7566 C   0  0  0  0  0  0  0  0  0  0  0  0
   10.8160  -15.7021   28.5198 C   0  0  0  0  0  0  0  0  0  0  0  0
   10.5059  -16.4323   27.2631 C   0  0  2  0  0  0  0  0  0  0  0  0
    9.7473  -15.5781   26.3369 N   0  0  0  0  0  0  0  0  0  0  0  0
    9.7215  -17.6562   27.5306 C   0  0  0  0  0  0  0  0  0  0  0  0
   10.2366  -18.7562   28.1683 O   0  0  0  0  0  0  0  0  0  0  0  0
    8.4969  -17.7533   27.1702 O   0  0  0  0  0  0  0  0  0  0  0  0
  1  2  1  0
  2  4  1  0
  3  2  2  0
  5  4  1  0
  5  6  1  6
  7  8  2  0
  7  5  1  0
 10  9  1  6
 10 11  1  0
 10 12  1  0
 13 12  1  1
 13 14  1  0
 14  7  1  0
 15 13  1  0
 15 22  1  0
 16 15  2  0
 18 17  1  1
 18 20  1  0
 19 18  1  0
 21 20  1  1
 21 22  1  0
 21 23  1  0
 23 25  2  0
 23 24  1  0
M  END
$$$$
