NLL.pdb
     RDKit          3D

 25 24  0  0  1  0  0  0  0  0999 V2000
   11.0312  -21.6760   18.7386 N   0  0  0  0  0  0  0  0  0  0  0  0
   11.4118  -20.9584   19.9231 C   0  0  0  0  0  0  0  0  0  0  0  0
   11.9418  -21.5599   20.8633 O   0  0  0  0  0  0  0  0  0  0  0  0
   11.1463  -19.5292   19.9515 C   0  0  0  0  0  0  0  0  0  0  0  0
   10.6052  -18.9674   21.2359 C   0  0  2  0  0  0  0  0  0  0  0  0
    9.2038  -19.5038   21.2802 N   0  0  0  0  0  0  0  0  0  0  0  0
   10.4175  -17.4998   21.2324 C   0  0  0  0  0  0  0  0  0  0  0  0
   11.4650  -16.7638   21.1678 O   0  0  0  0  0  0  0  0  0  0  0  0
    6.4402  -12.6982   20.4992 C   0  0  0  0  0  0  0  0  0  0  0  0
    7.7654  -13.3127   20.7721 C   0  0  2  0  0  0  0  0  0  0  0  0
    8.7888  -12.9436   19.6876 C   0  0  0  0  0  0  0  0  0  0  0  0
    7.7847  -14.7776   21.0296 C   0  0  0  0  0  0  0  0  0  0  0  0
    9.1156  -15.3598   21.4210 C   0  0  2  0  0  0  0  0  0  0  0  0
    9.1851  -16.8021   21.2883 N   0  0  0  0  0  0  0  0  0  0  0  0
    9.4188  -14.8755   22.7884 C   0  0  0  0  0  0  0  0  0  0  0  0
   10.0468  -13.7786   22.8623 O   0  0  0  0  0  0  0  0  0  0  0  0
    8.3044  -12.1632   26.7714 C   0  0  0  0  0  0  0  0  0  0  0  0
    7.3228  -13.2702   26.4541 C   0  0  1  0  0  0  0  0  0  0  0  0
    5.9611  -12.5361   26.3118 C   0  0  0  0  0  0  0  0  0  0  0  0
    7.6251  -13.9472   25.1521 C   0  0  0  0  0  0  0  0  0  0  0  0
    8.8252  -14.8176   25.2555 C   0  0  2  0  0  0  0  0  0  0  0  0
    9.0797  -15.5088   23.9826 N   0  0  0  0  0  0  0  0  0  0  0  0
    8.6670  -15.8291   26.3216 C   0  0  0  0  0  0  0  0  0  0  0  0
    8.6296  -17.1789   26.0792 O   0  0  0  0  0  0  0  0  0  0  0  0
    8.5520  -15.4881   27.5502 O   0  0  0  0  0  0  0  0  0  0  0  0
  1  2  1  0
  2  4  1  0
  3  2  2  0
  5  4  1  0
  5  6  1  6
  7  8  2  0
  7  5  1  0
 10  9  1  6
 10 11  1  0
 10 12  1  0
 13 12  1  1
 13 14  1  0
 14  7  1  0
 15 13  1  0
 15 22  1  0
 16 15  2  0
 18 17  1  6
 18 20  1  0
 19 18  1  0
 21 20  1  6
 21 22  1  0
 21 23  1  0
 23 25  2  0
 23 24  1  0
M  END
$$$$
