NLL.pdb
     RDKit          3D

 25 24  0  0  1  0  0  0  0  0999 V2000
    8.6740  -20.9819   19.6458 N   0  0  0  0  0  0  0  0  0  0  0  0
    9.0999  -20.0140   18.6738 C   0  0  0  0  0  0  0  0  0  0  0  0
    9.2538  -20.3521   17.4954 O   0  0  0  0  0  0  0  0  0  0  0  0
    9.3321  -18.6570   19.1411 C   0  0  0  0  0  0  0  0  0  0  0  0
    9.1598  -18.4101   20.6133 C   0  0  2  0  0  0  0  0  0  0  0  0
    7.6688  -18.4089   20.7876 N   0  0  0  0  0  0  0  0  0  0  0  0
    9.5648  -17.0589   21.0601 C   0  0  0  0  0  0  0  0  0  0  0  0
   10.8182  -16.8226   21.1874 O   0  0  0  0  0  0  0  0  0  0  0  0
    8.9993  -13.2994   18.9760 C   0  0  0  0  0  0  0  0  0  0  0  0
    7.9489  -13.5206   20.0036 C   0  0  2  0  0  0  0  0  0  0  0  0
    6.7624  -12.5647   19.8076 C   0  0  0  0  0  0  0  0  0  0  0  0
    8.3900  -13.5189   21.4241 C   0  0  0  0  0  0  0  0  0  0  0  0
    9.2046  -14.7057   21.8619 C   0  0  2  0  0  0  0  0  0  0  0  0
    8.7060  -15.9732   21.3642 N   0  0  0  0  0  0  0  0  0  0  0  0
    9.3027  -14.6469   23.3395 C   0  0  0  0  0  0  0  0  0  0  0  0
   10.1221  -13.8032   23.8083 O   0  0  0  0  0  0  0  0  0  0  0  0
    6.1388  -12.7196   26.5320 C   0  0  0  0  0  0  0  0  0  0  0  0
    7.4091  -13.3286   25.9794 C   0  0  1  0  0  0  0  0  0  0  0  0
    8.5438  -12.5249   26.6718 C   0  0  0  0  0  0  0  0  0  0  0  0
    7.5632  -14.7706   26.3560 C   0  0  0  0  0  0  0  0  0  0  0  0
    8.7529  -15.3800   25.7065 C   0  0  2  0  0  0  0  0  0  0  0  0
    8.5846  -15.4243   24.2461 N   0  0  0  0  0  0  0  0  0  0  0  0
    8.9914  -16.7531   26.1988 C   0  0  0  0  0  0  0  0  0  0  0  0
    9.2772  -17.0444   27.5086 O   0  0  0  0  0  0  0  0  0  0  0  0
    8.9445  -17.7601   25.4096 O   0  0  0  0  0  0  0  0  0  0  0  0
  1  2  1  0
  2  4  1  0
  3  2  2  0
  5  4  1  0
  5  6  1  6
  7  8  2  0
  7  5  1  0
 10  9  1  6
 10 11  1  0
 10 12  1  0
 13 12  1  1
 13 14  1  0
 14  7  1  0
 15 13  1  0
 15 22  1  0
 16 15  2  0
 18 17  1  1
 18 20  1  0
 19 18  1  0
 21 20  1  1
 21 22  1  0
 21 23  1  0
 23 25  2  0
 23 24  1  0
M  END
$$$$
