NLL.pdb
     RDKit          3D

 25 24  0  0  1  0  0  0  0  0999 V2000
   11.5101  -18.9765   19.6126 N   0  0  0  0  0  0  0  0  0  0  0  0
   10.6769  -18.0011   18.9666 C   0  0  0  0  0  0  0  0  0  0  0  0
   10.7875  -17.8055   17.7516 O   0  0  0  0  0  0  0  0  0  0  0  0
    9.7264  -17.2802   19.7976 C   0  0  0  0  0  0  0  0  0  0  0  0
    9.6929  -17.6418   21.2558 C   0  0  2  0  0  0  0  0  0  0  0  0
    8.3417  -18.2748   21.4201 N   0  0  0  0  0  0  0  0  0  0  0  0
    9.6496  -16.4826   22.1743 C   0  0  0  0  0  0  0  0  0  0  0  0
   10.7118  -15.7751   22.2934 O   0  0  0  0  0  0  0  0  0  0  0  0
    6.0998  -13.0868   26.1512 C   0  0  0  0  0  0  0  0  0  0  0  0
    7.3236  -13.3420   25.3479 C   0  0  2  0  0  0  0  0  0  0  0  0
    7.7561  -12.0892   24.5713 C   0  0  0  0  0  0  0  0  0  0  0  0
    7.3017  -14.5288   24.4516 C   0  0  0  0  0  0  0  0  0  0  0  0
    8.6293  -14.9477   23.8810 C   0  0  2  0  0  0  0  0  0  0  0  0
    8.5423  -16.0549   22.9487 N   0  0  0  0  0  0  0  0  0  0  0  0
    9.5343  -15.2068   25.0256 C   0  0  0  0  0  0  0  0  0  0  0  0
   10.6036  -14.5294   25.0523 O   0  0  0  0  0  0  0  0  0  0  0  0
    8.8977  -13.8845   29.6909 C   0  0  0  0  0  0  0  0  0  0  0  0
    9.4427  -14.4177   28.3838 C   0  0  1  0  0  0  0  0  0  0  0  0
   10.7842  -13.6570   28.1972 C   0  0  0  0  0  0  0  0  0  0  0  0
    9.7437  -15.8842   28.4451 C   0  0  0  0  0  0  0  0  0  0  0  0
   10.2677  -16.3882   27.1490 C   0  0  2  0  0  0  0  0  0  0  0  0
    9.3175  -16.1148   26.0603 N   0  0  0  0  0  0  0  0  0  0  0  0
   10.5246  -17.8429   27.2007 C   0  0  0  0  0  0  0  0  0  0  0  0
   11.4709  -18.4119   28.0149 O   0  0  0  0  0  0  0  0  0  0  0  0
    9.8642  -18.6613   26.4705 O   0  0  0  0  0  0  0  0  0  0  0  0
  1  2  1  0
  2  4  1  0
  3  2  2  0
  5  4  1  0
  5  6  1  6
  7  8  2  0
  7  5  1  0
 10  9  1  6
 10 11  1  0
 10 12  1  0
 13 12  1  1
 13 14  1  0
 14  7  1  0
 15 13  1  0
 15 22  1  0
 16 15  2  0
 18 17  1  1
 18 20  1  0
 19 18  1  0
 21 20  1  1
 21 22  1  0
 21 23  1  0
 23 25  2  0
 23 24  1  0
M  END
$$$$
