NLL.pdb
     RDKit          3D

 25 24  0  0  1  0  0  0  0  0999 V2000
   15.3992  -19.5535   20.1477 N   0  0  0  0  0  0  0  0  0  0  0  0
   13.9644  -19.4901   20.1471 C   0  0  0  0  0  0  0  0  0  0  0  0
   13.3084  -20.4009   19.6306 O   0  0  0  0  0  0  0  0  0  0  0  0
   13.3477  -18.3298   20.7693 C   0  0  0  0  0  0  0  0  0  0  0  0
   12.0299  -17.8799   20.2042 C   0  0  2  0  0  0  0  0  0  0  0  0
   12.4269  -17.1306   18.9655 N   0  0  0  0  0  0  0  0  0  0  0  0
   11.3288  -16.8625   21.0182 C   0  0  0  0  0  0  0  0  0  0  0  0
   11.8760  -15.7092   21.1336 O   0  0  0  0  0  0  0  0  0  0  0  0
    6.2186  -13.8654   21.9987 C   0  0  0  0  0  0  0  0  0  0  0  0
    7.5706  -14.2590   22.4736 C   0  0  2  0  0  0  0  0  0  0  0  0
    8.5321  -13.0611   22.4839 C   0  0  0  0  0  0  0  0  0  0  0  0
    8.2019  -15.4281   21.8048 C   0  0  0  0  0  0  0  0  0  0  0  0
    9.4690  -15.9410   22.4332 C   0  0  2  0  0  0  0  0  0  0  0  0
   10.0931  -17.0212   21.6939 N   0  0  0  0  0  0  0  0  0  0  0  0
    9.1494  -16.2914   23.8372 C   0  0  0  0  0  0  0  0  0  0  0  0
    8.9103  -17.5140   24.0635 O   0  0  0  0  0  0  0  0  0  0  0  0
    9.4148  -12.2614   27.5301 C   0  0  0  0  0  0  0  0  0  0  0  0
    9.7890  -13.6578   27.0830 C   0  0  1  0  0  0  0  0  0  0  0  0
   10.8669  -14.1049   28.1083 C   0  0  0  0  0  0  0  0  0  0  0  0
    8.6387  -14.6139   27.1700 C   0  0  0  0  0  0  0  0  0  0  0  0
    8.8552  -15.8075   26.3114 C   0  0  2  0  0  0  0  0  0  0  0  0
    9.0896  -15.4100   24.9149 N   0  0  0  0  0  0  0  0  0  0  0  0
    7.6944  -16.7214   26.3564 C   0  0  0  0  0  0  0  0  0  0  0  0
    6.7015  -16.7246   25.4096 O   0  0  0  0  0  0  0  0  0  0  0  0
    7.5538  -17.5719   27.3029 O   0  0  0  0  0  0  0  0  0  0  0  0
  1  2  1  0
  2  4  1  0
  3  2  2  0
  5  4  1  0
  5  6  1  6
  7  8  2  0
  7  5  1  0
 10  9  1  6
 10 11  1  0
 10 12  1  0
 13 12  1  6
 13 14  1  0
 14  7  1  0
 15 13  1  0
 15 22  1  0
 16 15  2  0
 18 17  1  1
 18 20  1  0
 19 18  1  0
 21 20  1  1
 21 22  1  0
 21 23  1  0
 23 25  2  0
 23 24  1  0
M  END
$$$$
