NLL.pdb
     RDKit          3D

 25 24  0  0  1  0  0  0  0  0999 V2000
   11.4677  -20.7093   20.2207 N   0  0  0  0  0  0  0  0  0  0  0  0
   11.6425  -19.6694   19.2455 C   0  0  0  0  0  0  0  0  0  0  0  0
   12.1214  -19.9382   18.1386 O   0  0  0  0  0  0  0  0  0  0  0  0
   11.2365  -18.3255   19.6233 C   0  0  0  0  0  0  0  0  0  0  0  0
   10.7312  -18.1411   21.0264 C   0  0  2  0  0  0  0  0  0  0  0  0
    9.3509  -18.7286   20.9728 N   0  0  0  0  0  0  0  0  0  0  0  0
   10.4966  -16.7325   21.4136 C   0  0  0  0  0  0  0  0  0  0  0  0
   11.5215  -15.9874   21.6069 O   0  0  0  0  0  0  0  0  0  0  0  0
    8.6394  -13.1094   19.3532 C   0  0  0  0  0  0  0  0  0  0  0  0
    7.6725  -13.9545   20.1009 C   0  0  2  0  0  0  0  0  0  0  0  0
    6.2216  -13.5767   19.7663 C   0  0  0  0  0  0  0  0  0  0  0  0
    7.8608  -14.0455   21.5736 C   0  0  0  0  0  0  0  0  0  0  0  0
    9.1216  -14.7242   22.0354 C   0  0  2  0  0  0  0  0  0  0  0  0
    9.2410  -16.1002   21.5935 N   0  0  0  0  0  0  0  0  0  0  0  0
    9.1881  -14.5670   23.5075 C   0  0  0  0  0  0  0  0  0  0  0  0
    9.6764  -13.4771   23.9279 O   0  0  0  0  0  0  0  0  0  0  0  0
    5.9282  -12.8621   26.3404 C   0  0  0  0  0  0  0  0  0  0  0  0
    7.3386  -13.3371   26.0663 C   0  0  1  0  0  0  0  0  0  0  0  0
    8.2170  -12.4735   27.0127 C   0  0  0  0  0  0  0  0  0  0  0  0
    7.5384  -14.7767   26.4302 C   0  0  0  0  0  0  0  0  0  0  0  0
    8.8310  -15.2960   25.9124 C   0  0  2  0  0  0  0  0  0  0  0  0
    8.7672  -15.4964   24.4568 N   0  0  0  0  0  0  0  0  0  0  0  0
    9.1919  -16.5783   26.5528 C   0  0  0  0  0  0  0  0  0  0  0  0
    9.4607  -17.7233   25.8464 O   0  0  0  0  0  0  0  0  0  0  0  0
    9.2707  -16.6870   27.8259 O   0  0  0  0  0  0  0  0  0  0  0  0
  1  2  1  0
  2  4  1  0
  3  2  2  0
  5  4  1  0
  5  6  1  6
  7  8  2  0
  7  5  1  0
 10  9  1  1
 10 11  1  0
 10 12  1  0
 13 12  1  1
 13 14  1  0
 14  7  1  0
 15 13  1  0
 15 22  1  0
 16 15  2  0
 18 17  1  1
 18 20  1  0
 19 18  1  0
 21 20  1  1
 21 22  1  0
 21 23  1  0
 23 25  2  0
 23 24  1  0
M  END
$$$$
