NLL.pdb
     RDKit          3D

 25 24  0  0  1  0  0  0  0  0999 V2000
   10.6647  -19.5423   17.1846 N   0  0  0  0  0  0  0  0  0  0  0  0
   10.3845  -19.4568   18.5907 C   0  0  0  0  0  0  0  0  0  0  0  0
   10.1674  -20.4863   19.2386 O   0  0  0  0  0  0  0  0  0  0  0  0
   10.3713  -18.1318   19.1889 C   0  0  0  0  0  0  0  0  0  0  0  0
    9.9325  -18.0419   20.6233 C   0  0  2  0  0  0  0  0  0  0  0  0
    8.4529  -18.2828   20.5441 N   0  0  0  0  0  0  0  0  0  0  0  0
   10.0349  -16.6884   21.2123 C   0  0  0  0  0  0  0  0  0  0  0  0
   11.1981  -16.2720   21.5536 O   0  0  0  0  0  0  0  0  0  0  0  0
    9.0487  -12.7849   19.2681 C   0  0  0  0  0  0  0  0  0  0  0  0
    7.9512  -13.3583   20.0897 C   0  0  2  0  0  0  0  0  0  0  0  0
    6.6102  -12.6703   19.7929 C   0  0  0  0  0  0  0  0  0  0  0  0
    8.1831  -13.4368   21.5569 C   0  0  0  0  0  0  0  0  0  0  0  0
    9.1840  -14.4640   22.0112 C   0  0  2  0  0  0  0  0  0  0  0  0
    8.9711  -15.7804   21.4415 N   0  0  0  0  0  0  0  0  0  0  0  0
    9.1797  -14.4522   23.4932 C   0  0  0  0  0  0  0  0  0  0  0  0
    9.7713  -13.4767   24.0422 O   0  0  0  0  0  0  0  0  0  0  0  0
    5.5257  -13.0431   26.2117 C   0  0  0  0  0  0  0  0  0  0  0  0
    6.9540  -13.4534   25.9266 C   0  0  1  0  0  0  0  0  0  0  0  0
    7.7978  -12.5704   26.8866 C   0  0  0  0  0  0  0  0  0  0  0  0
    7.2151  -14.8895   26.2647 C   0  0  0  0  0  0  0  0  0  0  0  0
    8.5551  -15.3261   25.7928 C   0  0  2  0  0  0  0  0  0  0  0  0
    8.5915  -15.4034   24.3246 N   0  0  0  0  0  0  0  0  0  0  0  0
    8.9172  -16.6477   26.3468 C   0  0  0  0  0  0  0  0  0  0  0  0
    9.3452  -17.6968   25.5733 O   0  0  0  0  0  0  0  0  0  0  0  0
    8.8453  -16.8847   27.6029 O   0  0  0  0  0  0  0  0  0  0  0  0
  1  2  1  0
  2  4  1  0
  3  2  2  0
  5  4  1  0
  5  6  1  6
  7  8  2  0
  7  5  1  0
 10  9  1  6
 10 11  1  0
 10 12  1  0
 13 12  1  6
 13 14  1  0
 14  7  1  0
 15 13  1  0
 15 22  1  0
 16 15  2  0
 18 17  1  1
 18 20  1  0
 19 18  1  0
 21 20  1  6
 21 22  1  0
 21 23  1  0
 23 25  2  0
 23 24  1  0
M  END
$$$$
