NLL.pdb
     RDKit          3D

 25 24  0  0  1  0  0  0  0  0999 V2000
   11.0980  -22.2655   20.2439 N   0  0  0  0  0  0  0  0  0  0  0  0
    9.8275  -21.5956   20.2449 C   0  0  0  0  0  0  0  0  0  0  0  0
    8.7851  -22.2535   20.3303 O   0  0  0  0  0  0  0  0  0  0  0  0
    9.8379  -20.1453   20.1431 C   0  0  0  0  0  0  0  0  0  0  0  0
    9.5033  -19.3775   21.3907 C   0  0  2  0  0  0  0  0  0  0  0  0
    8.0192  -19.5629   21.5187 N   0  0  0  0  0  0  0  0  0  0  0  0
    9.6631  -17.9115   21.2700 C   0  0  0  0  0  0  0  0  0  0  0  0
   10.8350  -17.4571   21.0190 O   0  0  0  0  0  0  0  0  0  0  0  0
    6.8804  -12.2738   21.0307 C   0  0  0  0  0  0  0  0  0  0  0  0
    8.0357  -13.1984   20.8935 C   0  0  2  0  0  0  0  0  0  0  0  0
    8.8096  -12.9397   19.5920 C   0  0  0  0  0  0  0  0  0  0  0  0
    7.7546  -14.6503   21.0528 C   0  0  0  0  0  0  0  0  0  0  0  0
    8.9322  -15.5127   21.4176 C   0  0  2  0  0  0  0  0  0  0  0  0
    8.6449  -16.9340   21.3981 N   0  0  0  0  0  0  0  0  0  0  0  0
    9.4400  -15.0289   22.7231 C   0  0  0  0  0  0  0  0  0  0  0  0
   10.0557  -13.9227   22.7038 O   0  0  0  0  0  0  0  0  0  0  0  0
    8.1427  -12.4221   26.7398 C   0  0  0  0  0  0  0  0  0  0  0  0
    7.3597  -13.6958   26.5066 C   0  0  1  0  0  0  0  0  0  0  0  0
    5.8805  -13.2240   26.4553 C   0  0  0  0  0  0  0  0  0  0  0  0
    7.6895  -14.3379   25.1937 C   0  0  0  0  0  0  0  0  0  0  0  0
    9.0229  -14.9933   25.2265 C   0  0  2  0  0  0  0  0  0  0  0  0
    9.3024  -15.6716   23.9519 N   0  0  0  0  0  0  0  0  0  0  0  0
    9.1098  -15.9836   26.3203 C   0  0  0  0  0  0  0  0  0  0  0  0
    9.7585  -15.7422   27.5049 O   0  0  0  0  0  0  0  0  0  0  0  0
    8.5747  -17.1417   26.2131 O   0  0  0  0  0  0  0  0  0  0  0  0
  1  2  1  0
  2  4  1  0
  3  2  2  0
  5  4  1  0
  5  6  1  6
  7  8  2  0
  7  5  1  0
 10  9  1  6
 10 11  1  0
 10 12  1  0
 13 12  1  1
 13 14  1  0
 14  7  1  0
 15 13  1  0
 15 22  1  0
 16 15  2  0
 18 17  1  6
 18 20  1  0
 19 18  1  0
 21 20  1  6
 21 22  1  0
 21 23  1  0
 23 25  2  0
 23 24  1  0
M  END
$$$$
