NLL.pdb
     RDKit          3D

 25 24  0  0  1  0  0  0  0  0999 V2000
   11.8015  -20.6941   20.2676 N   0  0  0  0  0  0  0  0  0  0  0  0
   11.6170  -19.7384   19.2115 C   0  0  0  0  0  0  0  0  0  0  0  0
   11.8077  -20.0740   18.0377 O   0  0  0  0  0  0  0  0  0  0  0  0
   11.2062  -18.3963   19.5905 C   0  0  0  0  0  0  0  0  0  0  0  0
   10.6489  -18.2256   20.9756 C   0  0  2  0  0  0  0  0  0  0  0  0
    9.2371  -18.7171   20.8392 N   0  0  0  0  0  0  0  0  0  0  0  0
   10.4891  -16.8182   21.4033 C   0  0  0  0  0  0  0  0  0  0  0  0
   11.5510  -16.1475   21.6591 O   0  0  0  0  0  0  0  0  0  0  0  0
    8.6753  -12.9131   19.4893 C   0  0  0  0  0  0  0  0  0  0  0  0
    7.7577  -13.8385   20.2034 C   0  0  2  0  0  0  0  0  0  0  0  0
    6.2867  -13.5031   19.9148 C   0  0  0  0  0  0  0  0  0  0  0  0
    7.9772  -14.0044   21.6652 C   0  0  0  0  0  0  0  0  0  0  0  0
    9.2196  -14.7536   22.0636 C   0  0  2  0  0  0  0  0  0  0  0  0
    9.2700  -16.1126   21.5602 N   0  0  0  0  0  0  0  0  0  0  0  0
    9.3294  -14.6639   23.5387 C   0  0  0  0  0  0  0  0  0  0  0  0
   10.0942  -13.7587   23.9844 O   0  0  0  0  0  0  0  0  0  0  0  0
    5.8982  -12.8149   26.3377 C   0  0  0  0  0  0  0  0  0  0  0  0
    7.2897  -13.3244   26.0315 C   0  0  1  0  0  0  0  0  0  0  0  0
    8.2176  -12.4276   26.8963 C   0  0  0  0  0  0  0  0  0  0  0  0
    7.4854  -14.7467   26.4601 C   0  0  0  0  0  0  0  0  0  0  0  0
    8.7533  -15.3081   25.9253 C   0  0  2  0  0  0  0  0  0  0  0  0
    8.6760  -15.4735   24.4659 N   0  0  0  0  0  0  0  0  0  0  0  0
    9.0623  -16.6183   26.5358 C   0  0  0  0  0  0  0  0  0  0  0  0
    9.2562  -16.7944   27.8825 O   0  0  0  0  0  0  0  0  0  0  0  0
    9.1691  -17.6759   25.8223 O   0  0  0  0  0  0  0  0  0  0  0  0
  1  2  1  0
  2  4  1  0
  3  2  2  0
  5  4  1  0
  5  6  1  6
  7  8  2  0
  7  5  1  0
 10  9  1  1
 10 11  1  0
 10 12  1  0
 13 12  1  1
 13 14  1  0
 14  7  1  0
 15 13  1  0
 15 22  1  0
 16 15  2  0
 18 17  1  1
 18 20  1  0
 19 18  1  0
 21 20  1  1
 21 22  1  0
 21 23  1  0
 23 25  2  0
 23 24  1  0
M  END
$$$$
