PMD.pdb
     RDKit          3D

 24 24  0  0  1  0  0  0  0  0999 V2000
   18.5910  -14.4980  -18.3616 N   0  0  0  0  0  0  0  0  0  0  0  0
   18.9943  -15.8621  -18.0857 C   0  0  0  0  0  0  0  0  0  0  0  0
   18.4908  -16.2427  -16.7331 C   0  0  0  0  0  0  0  0  0  0  0  0
   17.5077  -15.1631  -16.3977 C   0  0  0  0  0  0  0  0  0  0  0  0
   18.0700  -13.9724  -17.1168 C   0  0  1  0  0  0  0  0  0  0  0  0
   19.0738  -13.2206  -16.3557 C   0  0  0  0  0  0  0  0  0  0  0  0
   18.7412  -12.7987  -15.2116 O   0  0  0  0  0  0  0  0  0  0  0  0
   26.7514  -12.0682  -15.0229 C   0  0  0  0  0  0  0  0  0  0  0  0
   25.3771  -12.8441  -15.8841 S   0  0  0  0  0  0  0  0  0  0  0  0
   23.7830  -12.0282  -15.4782 C   0  0  0  0  0  0  0  0  0  0  0  0
   22.6925  -12.7241  -16.2317 C   0  0  0  0  0  0  0  0  0  0  0  0
   21.3284  -12.1334  -16.0619 C   0  0  2  0  0  0  0  0  0  0  0  0
   20.3758  -12.9370  -16.8073 N   0  0  0  0  0  0  0  0  0  0  0  0
   21.2297  -10.7038  -16.4189 C   0  0  0  0  0  0  0  0  0  0  0  0
   21.3620  -10.3347  -17.5887 O   0  0  0  0  0  0  0  0  0  0  0  0
   20.9870   -9.7505  -15.4254 N   0  0  0  0  0  0  0  0  0  0  0  0
   20.8784   -8.3403  -15.5933 C   0  0  1  0  0  0  0  0  0  0  0  0
   19.5323   -7.7950  -15.9037 C   0  0  0  0  0  0  0  0  0  0  0  0
   19.4507   -6.3402  -16.0731 C   0  0  0  0  0  0  0  0  0  0  0  0
   18.9131   -5.5591  -15.2518 O   0  0  0  0  0  0  0  0  0  0  0  0
   21.4261   -7.5739  -14.4516 C   0  0  0  0  0  0  0  0  0  0  0  0
   21.8348   -8.1840  -13.2835 O   0  0  0  0  0  0  0  0  0  0  0  0
   19.9972   -5.7620  -17.2105 O   0  0  0  0  0  0  0  0  0  0  0  0
   21.5203   -6.3308  -14.5520 O   0  0  0  0  0  0  0  0  0  0  0  0
  2  1  1  0
  2  3  1  0
  3  4  1  0
  5  1  1  0
  5  6  1  1
  5  4  1  0
  6  7  2  0
  8  9  1  0
  9 10  1  0
 10 11  1  0
 12 11  1  6
 12 14  1  0
 13 12  1  0
 13  6  1  0
 14 15  2  0
 14 16  1  0
 16 17  1  0
 17 21  1  0
 17 18  1  1
 19 18  1  0
 20 19  2  0
 21 24  2  0
 21 22  1  0
 23 19  1  0
M  END
$$$$
