PMD.pdb
     RDKit          3D

 24 24  0  0  1  0  0  0  0  0999 V2000
   28.8496  -20.4284  -15.0564 N   0  0  0  0  0  0  0  0  0  0  0  0
   28.2620  -19.9479  -16.2908 C   0  0  0  0  0  0  0  0  0  0  0  0
   27.4528  -18.7303  -15.9900 C   0  0  0  0  0  0  0  0  0  0  0  0
   27.8754  -18.3502  -14.6038 C   0  0  0  0  0  0  0  0  0  0  0  0
   28.2208  -19.6755  -13.9911 C   0  0  1  0  0  0  0  0  0  0  0  0
   27.0838  -20.3835  -13.3927 C   0  0  0  0  0  0  0  0  0  0  0  0
   26.6003  -21.3577  -14.0368 O   0  0  0  0  0  0  0  0  0  0  0  0
   27.7890  -20.4648   -6.5952 C   0  0  0  0  0  0  0  0  0  0  0  0
   26.3192  -20.1912   -7.5939 S   0  0  0  0  0  0  0  0  0  0  0  0
   26.5193  -20.8760   -9.2859 C   0  0  0  0  0  0  0  0  0  0  0  0
   25.3327  -20.4678  -10.1024 C   0  0  0  0  0  0  0  0  0  0  0  0
   25.4137  -20.8155  -11.5554 C   0  0  2  0  0  0  0  0  0  0  0  0
   26.4955  -20.0563  -12.1572 N   0  0  0  0  0  0  0  0  0  0  0  0
   24.1497  -20.6429  -12.2993 C   0  0  0  0  0  0  0  0  0  0  0  0
   23.8443  -19.5482  -12.7797 O   0  0  0  0  0  0  0  0  0  0  0  0
   23.2815  -21.7265  -12.4631 N   0  0  0  0  0  0  0  0  0  0  0  0
   22.0462  -21.7406  -13.1718 C   0  0  1  0  0  0  0  0  0  0  0  0
   21.6162  -23.0342  -13.7613 C   0  0  0  0  0  0  0  0  0  0  0  0
   20.3417  -23.0184  -14.4875 C   0  0  0  0  0  0  0  0  0  0  0  0
   20.1853  -22.5391  -15.6362 O   0  0  0  0  0  0  0  0  0  0  0  0
   20.9153  -21.2038  -12.3820 C   0  0  0  0  0  0  0  0  0  0  0  0
   19.7308  -20.8069  -12.9677 O   0  0  0  0  0  0  0  0  0  0  0  0
   19.2160  -23.5643  -13.8862 O   0  0  0  0  0  0  0  0  0  0  0  0
   21.0407  -21.1078  -11.1413 O   0  0  0  0  0  0  0  0  0  0  0  0
  2  1  1  0
  2  3  1  0
  3  4  1  0
  5  1  1  0
  5  6  1  6
  5  4  1  0
  6  7  2  0
  8  9  1  0
  9 10  1  0
 10 11  1  0
 12 11  1  1
 12 14  1  0
 13 12  1  0
 13  6  1  0
 14 15  2  0
 14 16  1  0
 16 17  1  0
 17 21  1  0
 17 18  1  1
 19 18  1  0
 20 19  2  0
 21 24  2  0
 21 22  1  0
 23 19  1  0
M  END
$$$$
