PMD.pdb
     RDKit          3D

 24 24  0  0  1  0  0  0  0  0999 V2000
   28.4791  -21.2823  -15.0935 N   0  0  0  0  0  0  0  0  0  0  0  0
   27.8978  -20.6644  -16.2682 C   0  0  0  0  0  0  0  0  0  0  0  0
   27.5543  -19.2493  -15.9406 C   0  0  0  0  0  0  0  0  0  0  0  0
   28.2669  -18.9956  -14.6474 C   0  0  0  0  0  0  0  0  0  0  0  0
   28.2716  -20.3511  -14.0040 C   0  0  1  0  0  0  0  0  0  0  0  0
   27.0697  -20.6562  -13.2201 C   0  0  0  0  0  0  0  0  0  0  0  0
   26.2773  -21.5248  -13.6838 O   0  0  0  0  0  0  0  0  0  0  0  0
   27.8660  -20.4241   -6.1635 C   0  0  0  0  0  0  0  0  0  0  0  0
   26.6937  -19.6693   -7.2986 S   0  0  0  0  0  0  0  0  0  0  0  0
   26.5553  -20.6286   -8.8581 C   0  0  0  0  0  0  0  0  0  0  0  0
   25.7349  -19.8358   -9.8275 C   0  0  0  0  0  0  0  0  0  0  0  0
   25.5958  -20.4454  -11.1867 C   0  0  2  0  0  0  0  0  0  0  0  0
   26.7377  -20.0526  -11.9933 N   0  0  0  0  0  0  0  0  0  0  0  0
   24.3205  -20.1433  -11.8674 C   0  0  0  0  0  0  0  0  0  0  0  0
   24.1542  -19.0674  -12.4480 O   0  0  0  0  0  0  0  0  0  0  0  0
   23.2830  -21.0805  -11.8560 N   0  0  0  0  0  0  0  0  0  0  0  0
   22.1218  -21.0896  -12.6806 C   0  0  1  0  0  0  0  0  0  0  0  0
   21.9044  -22.2853  -13.5342 C   0  0  0  0  0  0  0  0  0  0  0  0
   20.6786  -22.2864  -14.3400 C   0  0  0  0  0  0  0  0  0  0  0  0
   19.8204  -21.3716  -14.3279 O   0  0  0  0  0  0  0  0  0  0  0  0
   20.8720  -20.8352  -11.9294 C   0  0  0  0  0  0  0  0  0  0  0  0
   20.8168  -20.8897  -10.5519 O   0  0  0  0  0  0  0  0  0  0  0  0
   20.4259  -23.3607  -15.1819 O   0  0  0  0  0  0  0  0  0  0  0  0
   19.8320  -20.5616  -12.5680 O   0  0  0  0  0  0  0  0  0  0  0  0
  2  1  1  0
  2  3  1  0
  3  4  1  0
  5  1  1  0
  5  6  1  6
  5  4  1  0
  6  7  2  0
  8  9  1  0
  9 10  1  0
 10 11  1  0
 12 11  1  1
 12 14  1  0
 13 12  1  0
 13  6  1  0
 14 15  2  0
 14 16  1  0
 16 17  1  0
 17 21  1  0
 17 18  1  1
 19 18  1  0
 20 19  2  0
 21 24  2  0
 21 22  1  0
 23 19  1  0
M  END
$$$$
