PMD.pdb
     RDKit          3D

 24 24  0  0  1  0  0  0  0  0999 V2000
   20.6460  -15.9298  -17.4634 N   0  0  0  0  0  0  0  0  0  0  0  0
   19.2151  -15.7054  -17.5062 C   0  0  0  0  0  0  0  0  0  0  0  0
   18.9443  -14.5282  -18.3829 C   0  0  0  0  0  0  0  0  0  0  0  0
   20.2424  -14.3041  -19.0965 C   0  0  0  0  0  0  0  0  0  0  0  0
   21.2537  -14.7764  -18.0938 C   0  0  1  0  0  0  0  0  0  0  0  0
   21.6717  -13.7569  -17.1253 C   0  0  0  0  0  0  0  0  0  0  0  0
   20.8720  -13.4845  -16.1851 O   0  0  0  0  0  0  0  0  0  0  0  0
   27.6756  -12.2948  -14.6023 C   0  0  0  0  0  0  0  0  0  0  0  0
   26.9154  -13.8249  -15.1622 S   0  0  0  0  0  0  0  0  0  0  0  0
   25.0888  -13.6690  -15.2661 C   0  0  0  0  0  0  0  0  0  0  0  0
   24.7631  -12.3326  -15.8571 C   0  0  0  0  0  0  0  0  0  0  0  0
   23.3146  -12.1089  -16.1576 C   0  0  2  0  0  0  0  0  0  0  0  0
   22.8950  -13.0632  -17.1686 N   0  0  0  0  0  0  0  0  0  0  0  0
   22.9744  -10.7245  -16.5432 C   0  0  0  0  0  0  0  0  0  0  0  0
   23.1303  -10.3359  -17.7038 O   0  0  0  0  0  0  0  0  0  0  0  0
   22.4722   -9.8361  -15.5875 N   0  0  0  0  0  0  0  0  0  0  0  0
   22.0036   -8.5092  -15.8073 C   0  0  1  0  0  0  0  0  0  0  0  0
   20.9855   -8.3161  -16.8713 C   0  0  0  0  0  0  0  0  0  0  0  0
   20.5289   -6.9381  -17.0825 C   0  0  0  0  0  0  0  0  0  0  0  0
   21.2856   -5.9714  -17.3404 O   0  0  0  0  0  0  0  0  0  0  0  0
   21.5029   -7.8569  -14.5766 C   0  0  0  0  0  0  0  0  0  0  0  0
   21.2386   -6.5042  -14.5155 O   0  0  0  0  0  0  0  0  0  0  0  0
   19.1725   -6.6565  -16.9967 O   0  0  0  0  0  0  0  0  0  0  0  0
   21.3139   -8.5587  -13.5587 O   0  0  0  0  0  0  0  0  0  0  0  0
  2  1  1  0
  2  3  1  0
  3  4  1  0
  5  1  1  0
  5  6  1  1
  5  4  1  0
  6  7  2  0
  8  9  1  0
  9 10  1  0
 10 11  1  0
 12 11  1  6
 12 14  1  0
 13 12  1  0
 13  6  1  0
 14 15  2  0
 14 16  1  0
 16 17  1  0
 17 21  1  0
 17 18  1  6
 19 18  1  0
 20 19  2  0
 21 24  2  0
 21 22  1  0
 23 19  1  0
M  END
$$$$
