PMD.pdb
     RDKit          3D

 24 24  0  0  1  0  0  0  0  0999 V2000
   27.6255  -19.3684  -15.5890 N   0  0  0  0  0  0  0  0  0  0  0  0
   28.9246  -19.3126  -14.9496 C   0  0  0  0  0  0  0  0  0  0  0  0
   29.5210  -20.6808  -14.9640 C   0  0  0  0  0  0  0  0  0  0  0  0
   28.6606  -21.4388  -15.9281 C   0  0  0  0  0  0  0  0  0  0  0  0
   27.3251  -20.7736  -15.7691 C   0  0  1  0  0  0  0  0  0  0  0  0
   26.4993  -21.3188  -14.6862 C   0  0  0  0  0  0  0  0  0  0  0  0
   25.7867  -22.3290  -14.9498 O   0  0  0  0  0  0  0  0  0  0  0  0
   26.3882  -19.1662   -8.1975 C   0  0  0  0  0  0  0  0  0  0  0  0
   25.7455  -20.8391   -8.3417 S   0  0  0  0  0  0  0  0  0  0  0  0
   24.9058  -21.0998   -9.9537 C   0  0  0  0  0  0  0  0  0  0  0  0
   25.9089  -20.8936  -11.0459 C   0  0  0  0  0  0  0  0  0  0  0  0
   25.3912  -21.1164  -12.4318 C   0  0  2  0  0  0  0  0  0  0  0  0
   26.4442  -20.7991  -13.3799 N   0  0  0  0  0  0  0  0  0  0  0  0
   24.1426  -20.3924  -12.7445 C   0  0  0  0  0  0  0  0  0  0  0  0
   24.1616  -19.1885  -13.0141 O   0  0  0  0  0  0  0  0  0  0  0  0
   22.9200  -21.0705  -12.7341 N   0  0  0  0  0  0  0  0  0  0  0  0
   21.7294  -20.7101  -13.4279 C   0  0  1  0  0  0  0  0  0  0  0  0
   21.7268  -20.8759  -14.9037 C   0  0  0  0  0  0  0  0  0  0  0  0
   20.4715  -20.5437  -15.5863 C   0  0  0  0  0  0  0  0  0  0  0  0
   19.6240  -19.7256  -15.1549 O   0  0  0  0  0  0  0  0  0  0  0  0
   20.5201  -21.3762  -12.8943 C   0  0  0  0  0  0  0  0  0  0  0  0
   19.3133  -20.7196  -12.7671 O   0  0  0  0  0  0  0  0  0  0  0  0
   20.1761  -21.1621  -16.7934 O   0  0  0  0  0  0  0  0  0  0  0  0
   20.5979  -22.5755  -12.5478 O   0  0  0  0  0  0  0  0  0  0  0  0
  2  1  1  0
  2  3  1  0
  3  4  1  0
  5  1  1  0
  5  6  1  1
  5  4  1  0
  6  7  2  0
  8  9  1  0
  9 10  1  0
 10 11  1  0
 12 11  1  1
 12 14  1  0
 13 12  1  0
 13  6  1  0
 14 15  2  0
 14 16  1  0
 16 17  1  0
 17 21  1  0
 17 18  1  6
 19 18  1  0
 20 19  2  0
 21 24  2  0
 21 22  1  0
 23 19  1  0
M  END
$$$$
