PMD.pdb
     RDKit          3D

 24 24  0  0  1  0  0  0  0  0999 V2000
   28.6628  -20.8896  -15.0484 N   0  0  0  0  0  0  0  0  0  0  0  0
   29.2979  -22.1117  -15.4985 C   0  0  0  0  0  0  0  0  0  0  0  0
   28.3645  -22.8204  -16.4228 C   0  0  0  0  0  0  0  0  0  0  0  0
   27.3206  -21.7931  -16.7382 C   0  0  0  0  0  0  0  0  0  0  0  0
   27.2845  -20.9670  -15.4861 C   0  0  1  0  0  0  0  0  0  0  0  0
   26.3881  -21.4804  -14.4446 C   0  0  0  0  0  0  0  0  0  0  0  0
   25.6508  -22.4626  -14.7434 O   0  0  0  0  0  0  0  0  0  0  0  0
   25.6535  -19.7646   -7.9790 C   0  0  0  0  0  0  0  0  0  0  0  0
   27.0657  -20.6208   -8.6899 S   0  0  0  0  0  0  0  0  0  0  0  0
   26.6191  -21.4679  -10.2566 C   0  0  0  0  0  0  0  0  0  0  0  0
   25.4934  -20.7149  -10.8947 C   0  0  0  0  0  0  0  0  0  0  0  0
   25.1395  -21.1578  -12.2793 C   0  0  2  0  0  0  0  0  0  0  0  0
   26.2909  -20.9589  -13.1415 N   0  0  0  0  0  0  0  0  0  0  0  0
   23.9280  -20.5229  -12.8361 C   0  0  0  0  0  0  0  0  0  0  0  0
   23.9732  -19.3853  -13.3118 O   0  0  0  0  0  0  0  0  0  0  0  0
   22.7106  -21.2104  -12.8252 N   0  0  0  0  0  0  0  0  0  0  0  0
   21.4885  -20.8073  -13.4357 C   0  0  1  0  0  0  0  0  0  0  0  0
   20.8452  -21.7687  -14.3670 C   0  0  0  0  0  0  0  0  0  0  0  0
   19.5485  -21.3608  -14.9186 C   0  0  0  0  0  0  0  0  0  0  0  0
   18.9765  -20.2752  -14.6583 O   0  0  0  0  0  0  0  0  0  0  0  0
   20.4665  -20.3688  -12.4589 C   0  0  0  0  0  0  0  0  0  0  0  0
   19.3991  -19.5715  -12.8179 O   0  0  0  0  0  0  0  0  0  0  0  0
   18.8876  -22.2151  -15.7904 O   0  0  0  0  0  0  0  0  0  0  0  0
   20.5768  -20.7350  -11.2682 O   0  0  0  0  0  0  0  0  0  0  0  0
  2  1  1  0
  2  3  1  0
  3  4  1  0
  5  1  1  0
  5  6  1  1
  5  4  1  0
  6  7  2  0
  8  9  1  0
  9 10  1  0
 10 11  1  0
 12 11  1  1
 12 14  1  0
 13 12  1  0
 13  6  1  0
 14 15  2  0
 14 16  1  0
 16 17  1  0
 17 21  1  0
 17 18  1  1
 19 18  1  0
 20 19  2  0
 21 24  2  0
 21 22  1  0
 23 19  1  0
M  END
$$$$
