PMD.pdb
     RDKit          3D

 24 24  0  0  1  0  0  0  0  0999 V2000
   21.0599  -11.5906  -19.6086 N   0  0  0  0  0  0  0  0  0  0  0  0
   21.3274  -12.9777  -19.2863 C   0  0  0  0  0  0  0  0  0  0  0  0
   20.4675  -13.3722  -18.1319 C   0  0  0  0  0  0  0  0  0  0  0  0
   19.4682  -12.2606  -18.0305 C   0  0  0  0  0  0  0  0  0  0  0  0
   20.2431  -11.0764  -18.5289 C   0  0  1  0  0  0  0  0  0  0  0  0
   21.0319  -10.3892  -17.5005 C   0  0  0  0  0  0  0  0  0  0  0  0
   20.4171   -9.9704  -16.4786 O   0  0  0  0  0  0  0  0  0  0  0  0
   27.6300  -10.4966  -17.0362 C   0  0  0  0  0  0  0  0  0  0  0  0
   26.9956  -10.3529  -15.3601 S   0  0  0  0  0  0  0  0  0  0  0  0
   25.3704   -9.4989  -15.3276 C   0  0  0  0  0  0  0  0  0  0  0  0
   24.5223  -10.0586  -16.4269 C   0  0  0  0  0  0  0  0  0  0  0  0
   23.1679   -9.4373  -16.5610 C   0  0  2  0  0  0  0  0  0  0  0  0
   22.4189  -10.1641  -17.5707 N   0  0  0  0  0  0  0  0  0  0  0  0
   23.1826   -7.9863  -16.8354 C   0  0  0  0  0  0  0  0  0  0  0  0
   23.5470   -7.5549  -17.9325 O   0  0  0  0  0  0  0  0  0  0  0  0
   22.7837   -7.0835  -15.8451 N   0  0  0  0  0  0  0  0  0  0  0  0
   22.7720   -5.6618  -15.9300 C   0  0  1  0  0  0  0  0  0  0  0  0
   21.8271   -4.9362  -15.0434 C   0  0  0  0  0  0  0  0  0  0  0  0
   20.4009   -5.1278  -15.3287 C   0  0  0  0  0  0  0  0  0  0  0  0
   19.9369   -5.4326  -16.4535 O   0  0  0  0  0  0  0  0  0  0  0  0
   24.1119   -5.0570  -15.7569 C   0  0  0  0  0  0  0  0  0  0  0  0
   24.3456   -3.7132  -15.9647 O   0  0  0  0  0  0  0  0  0  0  0  0
   19.4803   -4.9669  -14.3024 O   0  0  0  0  0  0  0  0  0  0  0  0
   25.0628   -5.7918  -15.4102 O   0  0  0  0  0  0  0  0  0  0  0  0
  2  1  1  0
  2  3  1  0
  3  4  1  0
  5  1  1  0
  5  6  1  1
  5  4  1  0
  6  7  2  0
  8  9  1  0
  9 10  1  0
 10 11  1  0
 12 11  1  6
 12 14  1  0
 13 12  1  0
 13  6  1  0
 14 15  2  0
 14 16  1  0
 16 17  1  0
 17 21  1  0
 17 18  1  1
 19 18  1  0
 20 19  2  0
 21 24  2  0
 21 22  1  0
 23 19  1  0
M  END
$$$$
