PMD.pdb
     RDKit          3D

 24 24  0  0  1  0  0  0  0  0999 V2000
   28.7330  -19.7994  -16.1903 N   0  0  0  0  0  0  0  0  0  0  0  0
   28.0005  -19.3087  -17.3403 C   0  0  0  0  0  0  0  0  0  0  0  0
   27.1643  -18.1489  -16.9121 C   0  0  0  0  0  0  0  0  0  0  0  0
   27.7038  -17.7953  -15.5600 C   0  0  0  0  0  0  0  0  0  0  0  0
   28.1766  -19.1204  -15.0386 C   0  0  1  0  0  0  0  0  0  0  0  0
   27.1433  -19.9106  -14.3605 C   0  0  0  0  0  0  0  0  0  0  0  0
   26.5861  -20.8314  -15.0233 O   0  0  0  0  0  0  0  0  0  0  0  0
   26.9538  -20.5615   -7.9977 C   0  0  0  0  0  0  0  0  0  0  0  0
   25.2027  -20.8277   -8.3070 S   0  0  0  0  0  0  0  0  0  0  0  0
   24.8772  -21.1614  -10.0830 C   0  0  0  0  0  0  0  0  0  0  0  0
   25.8380  -20.3526  -10.8979 C   0  0  0  0  0  0  0  0  0  0  0  0
   25.7103  -20.5207  -12.3791 C   0  0  2  0  0  0  0  0  0  0  0  0
   26.7299  -19.7170  -13.0296 N   0  0  0  0  0  0  0  0  0  0  0  0
   24.3655  -20.2305  -12.9162 C   0  0  0  0  0  0  0  0  0  0  0  0
   24.0425  -19.0794  -13.2212 O   0  0  0  0  0  0  0  0  0  0  0  0
   23.4403  -21.2657  -13.0811 N   0  0  0  0  0  0  0  0  0  0  0  0
   22.1404  -21.1753  -13.6560 C   0  0  1  0  0  0  0  0  0  0  0  0
   21.7521  -22.2303  -14.6265 C   0  0  0  0  0  0  0  0  0  0  0  0
   20.4597  -22.0453  -15.2953 C   0  0  0  0  0  0  0  0  0  0  0  0
   19.5447  -22.9030  -15.3212 O   0  0  0  0  0  0  0  0  0  0  0  0
   21.0632  -21.0690  -12.6464 C   0  0  0  0  0  0  0  0  0  0  0  0
   21.3076  -21.1867  -11.2936 O   0  0  0  0  0  0  0  0  0  0  0  0
   20.2054  -20.8492  -15.9522 O   0  0  0  0  0  0  0  0  0  0  0  0
   19.8922  -20.8654  -13.0360 O   0  0  0  0  0  0  0  0  0  0  0  0
  2  1  1  0
  2  3  1  0
  3  4  1  0
  5  1  1  0
  5  6  1  6
  5  4  1  0
  6  7  2  0
  8  9  1  0
  9 10  1  0
 10 11  1  0
 12 11  1  1
 12 14  1  0
 13 12  1  0
 13  6  1  0
 14 15  2  0
 14 16  1  0
 16 17  1  0
 17 21  1  0
 17 18  1  1
 19 18  1  0
 20 19  2  0
 21 24  2  0
 21 22  1  0
 23 19  1  0
M  END
$$$$
