RMM.pdb
     RDKit          3D

 28 27  0  0  1  0  0  0  0  0999 V2000
    9.7596  -14.6769   14.7752 N   0  0  0  0  0  0  0  0  0  0  0  0
    8.5701  -13.9833   14.4343 C   0  0  0  0  0  0  0  0  0  0  0  0
    8.4503  -13.4943   13.2544 N   0  0  0  0  0  0  0  0  0  0  0  0
    7.5333  -13.8495   15.4194 N   0  0  0  0  0  0  0  0  0  0  0  0
    7.6202  -14.5022   16.6805 C   0  0  0  0  0  0  0  0  0  0  0  0
    8.3320  -13.8274   17.7839 C   0  0  0  0  0  0  0  0  0  0  0  0
    7.7326  -13.9048   19.1340 C   0  0  0  0  0  0  0  0  0  0  0  0
    8.3742  -14.9009   20.0196 C   0  0  2  0  0  0  0  0  0  0  0  0
    7.8318  -16.2404   19.8582 N   0  0  0  0  0  0  0  0  0  0  0  0
    8.2383  -14.4966   21.4786 C   0  0  0  0  0  0  0  0  0  0  0  0
    7.6365  -13.4561   21.7452 O   0  0  0  0  0  0  0  0  0  0  0  0
    7.6056  -12.9656   13.0146 C   0  0  0  0  0  0  0  0  0  0  0  0
    6.1512  -11.9060   25.2605 S   0  0  0  0  0  0  0  0  0  0  0  0
    7.1077  -13.0872   26.2551 C   0  0  0  0  0  0  0  0  0  0  0  0
    6.7767  -14.8001   25.6874 C   0  0  0  0  0  0  0  0  0  0  0  0
    7.1036  -14.8535   24.2330 C   0  0  1  0  0  0  0  0  0  0  0  0
    8.5098  -15.1759   23.9164 N   0  0  0  0  0  0  0  0  0  0  0  0
    8.7847  -15.2885   22.5121 C   0  0  0  0  0  0  0  0  0  0  0  0
    9.1210  -16.2654   24.7165 O   0  0  0  0  0  0  0  0  0  0  0  0
    8.3729  -17.1473   25.1880 C   0  0  0  0  0  0  0  0  0  0  0  0
   10.0286  -12.8099   28.8755 S   0  0  0  0  0  0  0  0  0  0  0  0
    9.6996  -14.4217   29.6319 C   0  0  0  0  0  0  0  0  0  0  0  0
   10.4879  -15.6979   28.6698 C   0  0  0  0  0  0  0  0  0  0  0  0
   10.3286  -15.6493   27.2082 C   0  0  1  0  0  0  0  0  0  0  0  0
   10.9731  -16.6802   26.3621 N   0  0  0  0  0  0  0  0  0  0  0  0
   10.4871  -16.3746   24.9820 C   0  0  0  0  0  0  0  0  0  0  0  0
   10.7163  -18.0802   26.6659 O   0  0  0  0  0  0  0  0  0  0  0  0
   11.5221  -18.8961   27.4205 O   0  0  0  0  0  0  0  0  0  0  0  0
  2  1  1  0
  3  2  2  0
  4  2  1  0
  5  4  1  0
  6  5  1  0
  7  6  1  0
  7  8  1  0
  8  9  1  1
 10  8  1  0
 10 17  1  0
 11 10  2  0
 12 13  1  0
 13 14  1  0
 16 15  1  6
 15 14  1  0
 16 17  1  0
 18 16  1  0
 19 18  2  0
 21 20  1  0
 21 22  1  0
 22 23  1  0
 24 23  1  6
 24 25  1  0
 24 26  1  0
 25 18  1  0
 26 27  1  0
 28 26  2  0
M  END
$$$$
