RMM.pdb
     RDKit          3D

 28 27  0  0  1  0  0  0  0  0999 V2000
    9.3323  -15.0274   15.9130 N   0  0  0  0  0  0  0  0  0  0  0  0
    8.4892  -13.9044   15.7124 C   0  0  0  0  0  0  0  0  0  0  0  0
    8.7129  -13.1272   14.7166 N   0  0  0  0  0  0  0  0  0  0  0  0
    7.4084  -13.6702   16.6291 N   0  0  0  0  0  0  0  0  0  0  0  0
    7.6349  -13.5585   18.0292 C   0  0  0  0  0  0  0  0  0  0  0  0
    8.2356  -14.7004   18.7465 C   0  0  0  0  0  0  0  0  0  0  0  0
    7.3187  -15.6388   19.4296 C   0  0  0  0  0  0  0  0  0  0  0  0
    7.9516  -16.4073   20.5237 C   0  0  2  0  0  0  0  0  0  0  0  0
    7.0578  -17.3835   21.1260 N   0  0  0  0  0  0  0  0  0  0  0  0
    8.4600  -15.4791   21.6148 C   0  0  0  0  0  0  0  0  0  0  0  0
    9.2760  -14.6086   21.3110 O   0  0  0  0  0  0  0  0  0  0  0  0
    8.1074  -12.3133   14.5703 C   0  0  0  0  0  0  0  0  0  0  0  0
    6.1534  -10.7758   26.1291 S   0  0  0  0  0  0  0  0  0  0  0  0
    5.9311  -12.5515   26.4399 C   0  0  0  0  0  0  0  0  0  0  0  0
    7.4704  -13.4598   26.0260 C   0  0  0  0  0  0  0  0  0  0  0  0
    7.1631  -14.3406   24.8621 C   0  0  1  0  0  0  0  0  0  0  0  0
    8.3293  -14.7304   24.0439 N   0  0  0  0  0  0  0  0  0  0  0  0
    8.0132  -15.6026   22.9485 C   0  0  0  0  0  0  0  0  0  0  0  0
    9.5352  -15.1565   24.7955 O   0  0  0  0  0  0  0  0  0  0  0  0
   10.0121  -14.3753   25.6453 C   0  0  0  0  0  0  0  0  0  0  0  0
   10.8598  -13.0334   28.9372 S   0  0  0  0  0  0  0  0  0  0  0  0
   10.9916  -14.8090   29.2665 C   0  0  0  0  0  0  0  0  0  0  0  0
   11.6138  -15.6346   27.8150 C   0  0  0  0  0  0  0  0  0  0  0  0
   10.6362  -16.2682   26.9168 C   0  0  2  0  0  0  0  0  0  0  0  0
   11.0965  -16.9201   25.6688 N   0  0  0  0  0  0  0  0  0  0  0  0
   10.1808  -16.3814   24.6174 C   0  0  0  0  0  0  0  0  0  0  0  0
   11.0967  -18.3743   25.6107 O   0  0  0  0  0  0  0  0  0  0  0  0
   12.1523  -19.1882   25.9388 O   0  0  0  0  0  0  0  0  0  0  0  0
  2  1  1  0
  3  2  2  0
  4  2  1  0
  5  4  1  0
  6  5  1  0
  7  6  1  0
  7  8  1  0
  8  9  1  1
 10  8  1  0
 10 17  1  0
 11 10  2  0
 12 13  1  0
 13 14  1  0
 16 15  1  6
 15 14  1  0
 16 17  1  0
 18 16  1  0
 19 18  2  0
 21 20  1  0
 21 22  1  0
 22 23  1  0
 24 23  1  6
 24 25  1  0
 24 26  1  0
 25 18  1  0
 26 27  1  0
 28 26  2  0
M  END
$$$$
