RMM.pdb
     RDKit          3D

 28 27  0  0  1  0  0  0  0  0999 V2000
   10.5532  -19.9014   16.9805 N   0  0  0  0  0  0  0  0  0  0  0  0
   11.9694  -19.9227   17.0579 C   0  0  0  0  0  0  0  0  0  0  0  0
   12.6496  -20.0951   15.9840 N   0  0  0  0  0  0  0  0  0  0  0  0
   12.6016  -19.7495   18.3360 N   0  0  0  0  0  0  0  0  0  0  0  0
   11.8414  -19.6927   19.5373 C   0  0  0  0  0  0  0  0  0  0  0  0
   10.9348  -18.5477   19.7526 C   0  0  0  0  0  0  0  0  0  0  0  0
    9.6380  -18.8157   20.4118 C   0  0  0  0  0  0  0  0  0  0  0  0
    8.7422  -17.6402   20.4748 C   0  0  2  0  0  0  0  0  0  0  0  0
    8.7781  -16.8306   19.2673 N   0  0  0  0  0  0  0  0  0  0  0  0
    9.0909  -16.7555   21.6607 C   0  0  0  0  0  0  0  0  0  0  0  0
   10.2539  -16.3701   21.7829 O   0  0  0  0  0  0  0  0  0  0  0  0
   13.6733  -20.0965   16.0340 C   0  0  0  0  0  0  0  0  0  0  0  0
    6.5729  -11.6680   26.6495 S   0  0  0  0  0  0  0  0  0  0  0  0
    6.3477  -12.8954   25.3297 C   0  0  0  0  0  0  0  0  0  0  0  0
    7.2562  -14.4352   25.7412 C   0  0  0  0  0  0  0  0  0  0  0  0
    7.0965  -15.3638   24.5849 C   0  0  2  0  0  0  0  0  0  0  0  0
    8.3198  -15.5935   23.7898 N   0  0  0  0  0  0  0  0  0  0  0  0
    8.1121  -16.3776   22.6056 C   0  0  0  0  0  0  0  0  0  0  0  0
    9.5224  -16.0051   24.5547 O   0  0  0  0  0  0  0  0  0  0  0  0
   10.5806  -15.3630   24.3883 C   0  0  0  0  0  0  0  0  0  0  0  0
    9.4230  -12.9140   29.0867 S   0  0  0  0  0  0  0  0  0  0  0  0
   10.9749  -13.8461   29.1188 C   0  0  0  0  0  0  0  0  0  0  0  0
   10.6510  -15.5477   28.7001 C   0  0  0  0  0  0  0  0  0  0  0  0
   10.0653  -15.8275   27.3800 C   0  0  1  0  0  0  0  0  0  0  0  0
   10.4709  -17.0429   26.6365 N   0  0  0  0  0  0  0  0  0  0  0  0
    9.5543  -17.0706   25.4561 C   0  0  0  0  0  0  0  0  0  0  0  0
   10.4112  -18.3237   27.3250 O   0  0  0  0  0  0  0  0  0  0  0  0
   11.3762  -18.8289   28.1604 O   0  0  0  0  0  0  0  0  0  0  0  0
  2  1  1  0
  3  2  2  0
  4  2  1  0
  5  4  1  0
  6  5  1  0
  7  6  1  0
  7  8  1  0
  8  9  1  6
 10  8  1  0
 10 17  1  0
 11 10  2  0
 12 13  1  0
 13 14  1  0
 16 15  1  6
 15 14  1  0
 16 17  1  0
 18 16  1  0
 19 18  2  0
 21 20  1  0
 21 22  1  0
 22 23  1  0
 24 23  1  6
 24 25  1  0
 24 26  1  0
 25 18  1  0
 26 27  1  0
 28 26  2  0
M  END
$$$$
