RMM.pdb
     RDKit          3D

 28 27  0  0  1  0  0  0  0  0999 V2000
    7.3367  -12.3990   14.9902 N   0  0  0  0  0  0  0  0  0  0  0  0
    8.0529  -13.6147   14.8435 C   0  0  0  0  0  0  0  0  0  0  0  0
    8.5367  -13.9181   13.6949 N   0  0  0  0  0  0  0  0  0  0  0  0
    8.2169  -14.4705   15.9854 N   0  0  0  0  0  0  0  0  0  0  0  0
    7.6258  -14.1538   17.2401 C   0  0  0  0  0  0  0  0  0  0  0  0
    7.8208  -15.0802   18.3730 C   0  0  0  0  0  0  0  0  0  0  0  0
    9.1678  -15.6631   18.5567 C   0  0  0  0  0  0  0  0  0  0  0  0
    9.2668  -16.5981   19.6987 C   0  0  2  0  0  0  0  0  0  0  0  0
    8.0598  -17.3842   19.8983 N   0  0  0  0  0  0  0  0  0  0  0  0
    9.5758  -15.8511   20.9861 C   0  0  0  0  0  0  0  0  0  0  0  0
   10.5780  -15.1367   21.0234 O   0  0  0  0  0  0  0  0  0  0  0  0
    9.0075  -14.8202   13.5719 C   0  0  0  0  0  0  0  0  0  0  0  0
    6.5880  -11.8968   26.9396 S   0  0  0  0  0  0  0  0  0  0  0  0
    6.3710  -13.2656   25.7654 C   0  0  0  0  0  0  0  0  0  0  0  0
    7.9325  -13.5612   24.8488 C   0  0  0  0  0  0  0  0  0  0  0  0
    7.7104  -14.7457   23.9699 C   0  0  2  0  0  0  0  0  0  0  0  0
    8.9343  -15.3403   23.3955 N   0  0  0  0  0  0  0  0  0  0  0  0
    8.7399  -15.9656   22.1182 C   0  0  0  0  0  0  0  0  0  0  0  0
    9.7548  -16.1575   24.3227 O   0  0  0  0  0  0  0  0  0  0  0  0
   10.4158  -17.1066   23.8513 C   0  0  0  0  0  0  0  0  0  0  0  0
   10.0361  -14.1890   31.3629 S   0  0  0  0  0  0  0  0  0  0  0  0
   11.1206  -14.1718   29.9132 C   0  0  0  0  0  0  0  0  0  0  0  0
   10.5862  -15.4212   28.7604 C   0  0  0  0  0  0  0  0  0  0  0  0
   11.3080  -15.5267   27.4830 C   0  0  1  0  0  0  0  0  0  0  0  0
   10.9270  -16.5724   26.5054 N   0  0  0  0  0  0  0  0  0  0  0  0
    9.8403  -15.9379   25.6986 C   0  0  0  0  0  0  0  0  0  0  0  0
   10.4652  -17.8554   27.0139 O   0  0  0  0  0  0  0  0  0  0  0  0
   11.2608  -18.8364   27.5515 O   0  0  0  0  0  0  0  0  0  0  0  0
  2  1  1  0
  3  2  2  0
  4  2  1  0
  5  4  1  0
  6  5  1  0
  7  6  1  0
  7  8  1  0
  8  9  1  1
 10  8  1  0
 10 17  1  0
 11 10  2  0
 12 13  1  0
 13 14  1  0
 16 15  1  6
 15 14  1  0
 16 17  1  0
 18 16  1  0
 19 18  2  0
 21 20  1  0
 21 22  1  0
 22 23  1  0
 24 23  1  6
 24 25  1  0
 24 26  1  0
 25 18  1  0
 26 27  1  0
 28 26  2  0
M  END
$$$$
