RMM.pdb
     RDKit          3D

 28 27  0  0  1  0  0  0  0  0999 V2000
    8.4065  -12.8488   17.9424 N   0  0  0  0  0  0  0  0  0  0  0  0
    7.9791  -13.6502   16.8527 C   0  0  0  0  0  0  0  0  0  0  0  0
    6.8178  -13.4464   16.3472 N   0  0  0  0  0  0  0  0  0  0  0  0
    8.8590  -14.6659   16.3457 N   0  0  0  0  0  0  0  0  0  0  0  0
   10.1286  -14.9107   16.9394 C   0  0  0  0  0  0  0  0  0  0  0  0
   10.2737  -16.0522   17.8643 C   0  0  0  0  0  0  0  0  0  0  0  0
   10.5444  -15.7505   19.2869 C   0  0  0  0  0  0  0  0  0  0  0  0
    9.7957  -16.6045   20.2348 C   0  0  2  0  0  0  0  0  0  0  0  0
    8.3662  -16.6334   19.9696 N   0  0  0  0  0  0  0  0  0  0  0  0
   10.0127  -16.1443   21.6672 C   0  0  0  0  0  0  0  0  0  0  0  0
   11.1669  -16.0599   22.0876 O   0  0  0  0  0  0  0  0  0  0  0  0
    6.5545  -13.9329   15.4843 C   0  0  0  0  0  0  0  0  0  0  0  0
    5.2410  -13.0757   26.7513 S   0  0  0  0  0  0  0  0  0  0  0  0
    6.6365  -12.5548   25.7118 C   0  0  0  0  0  0  0  0  0  0  0  0
    7.8748  -13.9038   25.5996 C   0  0  0  0  0  0  0  0  0  0  0  0
    7.8938  -14.3681   24.1822 C   0  0  1  0  0  0  0  0  0  0  0  0
    8.9941  -15.2913   23.8381 N   0  0  0  0  0  0  0  0  0  0  0  0
    8.9237  -15.8179   22.5046 C   0  0  0  0  0  0  0  0  0  0  0  0
    9.3153  -16.3241   24.8535 O   0  0  0  0  0  0  0  0  0  0  0  0
    8.3713  -16.8985   25.4354 C   0  0  0  0  0  0  0  0  0  0  0  0
   10.8841  -12.6098   28.3473 S   0  0  0  0  0  0  0  0  0  0  0  0
   11.1641  -14.1588   29.2420 C   0  0  0  0  0  0  0  0  0  0  0  0
   11.6284  -15.4332   28.0862 C   0  0  0  0  0  0  0  0  0  0  0  0
   10.5552  -16.2591   27.5116 C   0  0  2  0  0  0  0  0  0  0  0  0
   10.8869  -17.3253   26.5382 N   0  0  0  0  0  0  0  0  0  0  0  0
   10.6116  -16.7022   25.2077 C   0  0  0  0  0  0  0  0  0  0  0  0
   10.1765  -18.5919   26.6349 O   0  0  0  0  0  0  0  0  0  0  0  0
   10.6757  -19.7499   27.1775 O   0  0  0  0  0  0  0  0  0  0  0  0
  2  1  1  0
  3  2  2  0
  4  2  1  0
  5  4  1  0
  6  5  1  0
  7  6  1  0
  7  8  1  0
  8  9  1  6
 10  8  1  0
 10 17  1  0
 11 10  2  0
 12 13  1  0
 13 14  1  0
 16 15  1  6
 15 14  1  0
 16 17  1  0
 18 16  1  0
 19 18  2  0
 21 20  1  0
 21 22  1  0
 22 23  1  0
 24 23  1  6
 24 25  1  0
 24 26  1  0
 25 18  1  0
 26 27  1  0
 28 26  2  0
M  END
$$$$
