RMM.pdb
     RDKit          3D

 28 27  0  0  1  0  0  0  0  0999 V2000
    8.3854  -17.6870   14.2856 N   0  0  0  0  0  0  0  0  0  0  0  0
    7.0647  -17.9015   14.7569 C   0  0  0  0  0  0  0  0  0  0  0  0
    6.1613  -18.2799   13.9285 N   0  0  0  0  0  0  0  0  0  0  0  0
    6.7769  -17.6901   16.1482 N   0  0  0  0  0  0  0  0  0  0  0  0
    7.7993  -17.3322   17.0706 C   0  0  0  0  0  0  0  0  0  0  0  0
    7.4276  -17.0508   18.4713 C   0  0  0  0  0  0  0  0  0  0  0  0
    8.4848  -16.5395   19.3707 C   0  0  0  0  0  0  0  0  0  0  0  0
    8.4862  -17.1639   20.7117 C   0  0  2  0  0  0  0  0  0  0  0  0
    7.1766  -17.6506   21.1153 N   0  0  0  0  0  0  0  0  0  0  0  0
    8.9846  -16.1871   21.7644 C   0  0  0  0  0  0  0  0  0  0  0  0
   10.1142  -15.7139   21.6372 O   0  0  0  0  0  0  0  0  0  0  0  0
    5.2034  -18.4247   14.2633 C   0  0  0  0  0  0  0  0  0  0  0  0
    6.4459  -11.1797   27.3701 S   0  0  0  0  0  0  0  0  0  0  0  0
    6.1265  -12.3795   26.0443 C   0  0  0  0  0  0  0  0  0  0  0  0
    7.6728  -13.2686   25.6150 C   0  0  0  0  0  0  0  0  0  0  0  0
    7.3690  -14.1414   24.4442 C   0  0  1  0  0  0  0  0  0  0  0  0
    8.5193  -14.8972   23.9085 N   0  0  0  0  0  0  0  0  0  0  0  0
    8.1795  -15.8232   22.8657 C   0  0  0  0  0  0  0  0  0  0  0  0
    9.4433  -15.4721   24.9166 O   0  0  0  0  0  0  0  0  0  0  0  0
    9.0244  -15.6342   26.0820 C   0  0  0  0  0  0  0  0  0  0  0  0
   11.4701  -12.5637   29.5511 S   0  0  0  0  0  0  0  0  0  0  0  0
   11.6963  -14.2978   29.0821 C   0  0  0  0  0  0  0  0  0  0  0  0
   10.9219  -14.5889   27.5038 C   0  0  0  0  0  0  0  0  0  0  0  0
   10.9134  -15.9673   26.9901 C   0  0  2  0  0  0  0  0  0  0  0  0
   11.6623  -16.2984   25.7557 N   0  0  0  0  0  0  0  0  0  0  0  0
   10.7613  -15.8481   24.6513 C   0  0  0  0  0  0  0  0  0  0  0  0
   12.0446  -17.6848   25.5326 O   0  0  0  0  0  0  0  0  0  0  0  0
   13.2045  -18.2752   25.9690 O   0  0  0  0  0  0  0  0  0  0  0  0
  2  1  1  0
  3  2  2  0
  4  2  1  0
  5  4  1  0
  6  5  1  0
  7  6  1  0
  7  8  1  0
  8  9  1  1
 10  8  1  0
 10 17  1  0
 11 10  2  0
 12 13  1  0
 13 14  1  0
 16 15  1  6
 15 14  1  0
 16 17  1  0
 18 16  1  0
 19 18  2  0
 21 20  1  0
 21 22  1  0
 22 23  1  0
 24 23  1  1
 24 25  1  0
 24 26  1  0
 25 18  1  0
 26 27  1  0
 28 26  2  0
M  END
$$$$
