RMM.pdb
     RDKit          3D

 28 27  0  0  1  0  0  0  0  0999 V2000
    7.4609  -21.8657   20.1389 N   0  0  0  0  0  0  0  0  0  0  0  0
    8.7995  -22.2254   20.4407 C   0  0  0  0  0  0  0  0  0  0  0  0
    9.3462  -23.1899   19.7953 N   0  0  0  0  0  0  0  0  0  0  0  0
    9.5050  -21.4986   21.4592 N   0  0  0  0  0  0  0  0  0  0  0  0
    8.8550  -20.5105   22.2498 C   0  0  0  0  0  0  0  0  0  0  0  0
    8.7287  -19.1404   21.7146 C   0  0  0  0  0  0  0  0  0  0  0  0
    7.3731  -18.5517   21.6527 C   0  0  0  0  0  0  0  0  0  0  0  0
    7.3326  -17.1991   21.0554 C   0  0  2  0  0  0  0  0  0  0  0  0
    7.7947  -17.1704   19.6768 N   0  0  0  0  0  0  0  0  0  0  0  0
    8.1693  -16.2228   21.8662 C   0  0  0  0  0  0  0  0  0  0  0  0
    9.3709  -16.1300   21.6140 O   0  0  0  0  0  0  0  0  0  0  0  0
   10.3101  -23.4584   20.0171 C   0  0  0  0  0  0  0  0  0  0  0  0
    5.5651  -11.1943   25.7865 S   0  0  0  0  0  0  0  0  0  0  0  0
    6.8017  -12.1425   26.7198 C   0  0  0  0  0  0  0  0  0  0  0  0
    8.0725  -12.8127   25.5789 C   0  0  0  0  0  0  0  0  0  0  0  0
    7.3878  -13.7848   24.6784 C   0  0  1  0  0  0  0  0  0  0  0  0
    8.2735  -14.5035   23.7400 N   0  0  0  0  0  0  0  0  0  0  0  0
    7.5926  -15.4352   22.8864 C   0  0  0  0  0  0  0  0  0  0  0  0
    9.5226  -15.0544   24.3206 O   0  0  0  0  0  0  0  0  0  0  0  0
   10.4637  -14.2687   24.5586 C   0  0  0  0  0  0  0  0  0  0  0  0
   11.7991  -13.5654   28.3805 S   0  0  0  0  0  0  0  0  0  0  0  0
   10.7056  -14.7288   29.2342 C   0  0  0  0  0  0  0  0  0  0  0  0
   10.5645  -16.2220   28.2720 C   0  0  0  0  0  0  0  0  0  0  0  0
    9.9455  -16.1221   26.9413 C   0  0  2  0  0  0  0  0  0  0  0  0
   10.5694  -16.8065   25.7851 N   0  0  0  0  0  0  0  0  0  0  0  0
    9.7216  -16.4028   24.6221 C   0  0  0  0  0  0  0  0  0  0  0  0
   10.6811  -18.2571   25.8214 O   0  0  0  0  0  0  0  0  0  0  0  0
   11.7490  -18.9654   26.3137 O   0  0  0  0  0  0  0  0  0  0  0  0
  2  1  1  0
  3  2  2  0
  4  2  1  0
  5  4  1  0
  6  5  1  0
  7  6  1  0
  7  8  1  0
  8  9  1  6
 10  8  1  0
 10 17  1  0
 11 10  2  0
 12 13  1  0
 13 14  1  0
 16 15  1  6
 15 14  1  0
 16 17  1  0
 18 16  1  0
 19 18  2  0
 21 20  1  0
 21 22  1  0
 22 23  1  0
 24 23  1  6
 24 25  1  0
 24 26  1  0
 25 18  1  0
 26 27  1  0
 28 26  2  0
M  END
$$$$
