GRM.pdb
     RDKit          3D

 24 23  0  0  1  0  0  0  0  0999 V2000
    6.5839  -20.4348   23.9216 N   0  0  0  0  0  0  0  0  0  0  0  0
    6.1699  -19.0621   23.8426 C   0  0  0  0  0  0  0  0  0  0  0  0
    7.2018  -18.2790   23.1306 C   0  0  0  0  0  0  0  0  0  0  0  0
    8.3248  -18.7949   22.9292 O   0  0  0  0  0  0  0  0  0  0  0  0
    8.1494  -12.0711   18.5293 N   0  0  0  0  0  0  0  0  0  0  0  0
    8.4896  -13.4116   18.2801 C   0  0  0  0  0  0  0  0  0  0  0  0
    9.7300  -13.8240   18.3240 N   0  0  0  0  0  0  0  0  0  0  0  0
    7.5038  -14.3835   17.9689 N   0  0  0  0  0  0  0  0  0  0  0  0
    7.6910  -15.7636   18.5251 C   0  0  0  0  0  0  0  0  0  0  0  0
    6.8959  -15.8951   19.7770 C   0  0  0  0  0  0  0  0  0  0  0  0
    7.4385  -15.3764   21.0195 C   0  0  0  0  0  0  0  0  0  0  0  0
    8.0994  -16.1523   22.0686 C   0  0  2  0  0  0  0  0  0  0  0  0
    6.9735  -16.9662   22.6652 N   0  0  0  0  0  0  0  0  0  0  0  0
    8.6349  -15.4373   23.2562 C   0  0  0  0  0  0  0  0  0  0  0  0
    9.0484  -14.2627   23.1830 O   0  0  0  0  0  0  0  0  0  0  0  0
    9.9619  -14.8239   18.1943 C   0  0  0  0  0  0  0  0  0  0  0  0
    6.4606  -11.2111   28.5776 S   0  0  0  0  0  0  0  0  0  0  0  0
    6.2962  -12.2026   27.0792 C   0  0  0  0  0  0  0  0  0  0  0  0
    7.6929  -13.3218   26.9755 C   0  0  0  0  0  0  0  0  0  0  0  0
    7.7845  -14.1816   25.7813 C   0  0  1  0  0  0  0  0  0  0  0  0
    8.9043  -15.1382   25.7511 N   0  0  0  0  0  0  0  0  0  0  0  0
    8.7180  -16.0267   24.5521 C   0  0  0  0  0  0  0  0  0  0  0  0
    9.0081  -15.9783   26.9418 O   0  0  0  0  0  0  0  0  0  0  0  0
    9.5168  -15.5558   28.1516 O   0  0  0  0  0  0  0  0  0  0  0  0
  1  2  1  0
  3  2  1  0
  3 13  1  0
  4  3  2  0
  5  6  1  0
  6  8  1  0
  7  6  2  0
  8  9  1  0
  9 10  1  0
 10 11  1  0
 12 11  1  6
 12 13  1  0
 14 12  1  0
 14 21  1  0
 15 14  2  0
 17 16  1  0
 18 19  1  0
 18 17  1  0
 20 21  1  0
 20 19  1  6
 22 20  1  0
 23 22  1  0
 24 22  2  0
M  END
$$$$
