GRM.pdb
     RDKit          3D

 24 23  0  0  1  0  0  0  0  0999 V2000
    8.1882  -11.9784   18.5158 N   0  0  0  0  0  0  0  0  0  0  0  0
    9.0813  -13.0114   18.9600 C   0  0  0  0  0  0  0  0  0  0  0  0
    8.3869  -13.8713   19.9414 C   0  0  0  0  0  0  0  0  0  0  0  0
    7.2560  -13.5294   20.3561 O   0  0  0  0  0  0  0  0  0  0  0  0
    7.9827  -22.4451   20.2324 N   0  0  0  0  0  0  0  0  0  0  0  0
    9.0919  -21.6091   20.0186 C   0  0  0  0  0  0  0  0  0  0  0  0
   10.2960  -22.0944   19.8592 N   0  0  0  0  0  0  0  0  0  0  0  0
    8.9598  -20.1974   19.9651 N   0  0  0  0  0  0  0  0  0  0  0  0
    7.6108  -19.6154   20.2660 C   0  0  0  0  0  0  0  0  0  0  0  0
    7.6515  -18.1462   20.0285 C   0  0  0  0  0  0  0  0  0  0  0  0
    8.4807  -17.3128   20.8801 C   0  0  0  0  0  0  0  0  0  0  0  0
    8.1583  -15.9685   21.3578 C   0  0  2  0  0  0  0  0  0  0  0  0
    8.9481  -15.0690   20.4341 N   0  0  0  0  0  0  0  0  0  0  0  0
    8.6460  -15.5502   22.6978 C   0  0  0  0  0  0  0  0  0  0  0  0
    9.8531  -15.3219   22.9143 O   0  0  0  0  0  0  0  0  0  0  0  0
   11.0990  -21.4703   19.6693 C   0  0  0  0  0  0  0  0  0  0  0  0
    5.6797  -11.5443   26.6755 S   0  0  0  0  0  0  0  0  0  0  0  0
    6.5614  -12.4774   27.9433 C   0  0  0  0  0  0  0  0  0  0  0  0
    7.7242  -13.5803   27.1398 C   0  0  0  0  0  0  0  0  0  0  0  0
    7.4128  -14.0065   25.7632 C   0  0  1  0  0  0  0  0  0  0  0  0
    8.3760  -14.9246   25.1314 N   0  0  0  0  0  0  0  0  0  0  0  0
    7.7881  -15.3798   23.8241 C   0  0  0  0  0  0  0  0  0  0  0  0
    8.6966  -16.1028   25.9334 O   0  0  0  0  0  0  0  0  0  0  0  0
    9.6609  -16.1363   26.9181 O   0  0  0  0  0  0  0  0  0  0  0  0
  1  2  1  0
  3  2  1  0
  3 13  1  0
  4  3  2  0
  5  6  1  0
  6  8  1  0
  7  6  2  0
  8  9  1  0
  9 10  1  0
 10 11  1  0
 12 11  1  6
 12 13  1  0
 14 12  1  0
 14 21  1  0
 15 14  2  0
 17 16  1  0
 18 19  1  0
 18 17  1  0
 20 21  1  0
 20 19  1  6
 22 20  1  0
 23 22  1  0
 24 22  2  0
M  END
$$$$
