GRM.pdb
     RDKit          3D

 24 23  0  0  1  0  0  0  0  0999 V2000
    5.3580  -20.1407   24.1697 N   0  0  0  0  0  0  0  0  0  0  0  0
    5.2581  -18.7084   24.1912 C   0  0  0  0  0  0  0  0  0  0  0  0
    6.5348  -18.1210   23.7330 C   0  0  0  0  0  0  0  0  0  0  0  0
    7.5487  -18.8521   23.6603 O   0  0  0  0  0  0  0  0  0  0  0  0
    9.2115  -14.3502   17.3298 N   0  0  0  0  0  0  0  0  0  0  0  0
    8.4039  -13.4610   18.0592 C   0  0  0  0  0  0  0  0  0  0  0  0
    8.6525  -12.1773   18.0912 N   0  0  0  0  0  0  0  0  0  0  0  0
    7.2788  -13.9125   18.7966 N   0  0  0  0  0  0  0  0  0  0  0  0
    7.2624  -15.3494   19.2257 C   0  0  0  0  0  0  0  0  0  0  0  0
    8.1657  -15.5170   20.3973 C   0  0  0  0  0  0  0  0  0  0  0  0
    7.6192  -15.3985   21.7369 C   0  0  0  0  0  0  0  0  0  0  0  0
    7.9851  -16.2088   22.8983 C   0  0  2  0  0  0  0  0  0  0  0  0
    6.6600  -16.7623   23.3716 N   0  0  0  0  0  0  0  0  0  0  0  0
    8.4935  -15.5245   24.1155 C   0  0  0  0  0  0  0  0  0  0  0  0
    8.3704  -14.2935   24.2753 O   0  0  0  0  0  0  0  0  0  0  0  0
    8.0139  -11.5250   18.5781 C   0  0  0  0  0  0  0  0  0  0  0  0
    5.9044  -11.4247   26.9330 S   0  0  0  0  0  0  0  0  0  0  0  0
    6.2811  -13.0792   27.5464 C   0  0  0  0  0  0  0  0  0  0  0  0
    7.7173  -13.7021   26.6726 C   0  0  0  0  0  0  0  0  0  0  0  0
    8.2220  -15.0319   27.0608 C   0  0  2  0  0  0  0  0  0  0  0  0
    9.4877  -15.4560   26.4379 N   0  0  0  0  0  0  0  0  0  0  0  0
    9.1518  -16.2083   25.1798 C   0  0  0  0  0  0  0  0  0  0  0  0
   10.3164  -16.3107   27.2846 O   0  0  0  0  0  0  0  0  0  0  0  0
   11.1520  -15.8477   28.2787 O   0  0  0  0  0  0  0  0  0  0  0  0
  1  2  1  0
  3  2  1  0
  3 13  1  0
  4  3  2  0
  5  6  1  0
  6  8  1  0
  7  6  2  0
  8  9  1  0
  9 10  1  0
 10 11  1  0
 12 11  1  6
 12 13  1  0
 14 12  1  0
 14 21  1  0
 15 14  2  0
 17 16  1  0
 18 19  1  0
 18 17  1  0
 20 21  1  0
 20 19  1  6
 22 20  1  0
 23 22  1  0
 24 22  2  0
M  END
$$$$
