GRM.pdb
     RDKit          3D

 24 23  0  0  1  0  0  0  0  0999 V2000
    4.9111  -20.3908   23.6956 N   0  0  0  0  0  0  0  0  0  0  0  0
    5.1180  -19.0506   23.2235 C   0  0  0  0  0  0  0  0  0  0  0  0
    6.5682  -18.7726   23.1570 C   0  0  0  0  0  0  0  0  0  0  0  0
    7.3608  -19.5325   23.7589 O   0  0  0  0  0  0  0  0  0  0  0  0
    9.9894  -12.9640   18.8007 N   0  0  0  0  0  0  0  0  0  0  0  0
    8.5952  -13.0757   18.6639 C   0  0  0  0  0  0  0  0  0  0  0  0
    7.8164  -12.0255   18.6976 N   0  0  0  0  0  0  0  0  0  0  0  0
    7.9642  -14.3335   18.4822 N   0  0  0  0  0  0  0  0  0  0  0  0
    8.7037  -15.5534   18.9451 C   0  0  0  0  0  0  0  0  0  0  0  0
    8.2018  -15.9442   20.2913 C   0  0  0  0  0  0  0  0  0  0  0  0
    8.8159  -17.0653   20.9792 C   0  0  0  0  0  0  0  0  0  0  0  0
    8.5945  -17.4562   22.3711 C   0  0  2  0  0  0  0  0  0  0  0  0
    7.1007  -17.6801   22.4394 N   0  0  0  0  0  0  0  0  0  0  0  0
    8.8110  -16.4466   23.4399 C   0  0  0  0  0  0  0  0  0  0  0  0
    8.8443  -15.2248   23.1906 O   0  0  0  0  0  0  0  0  0  0  0  0
    6.7896  -12.1233   18.6164 C   0  0  0  0  0  0  0  0  0  0  0  0
    7.4540  -10.9727   27.1027 S   0  0  0  0  0  0  0  0  0  0  0  0
    6.6906  -12.4491   26.4007 C   0  0  0  0  0  0  0  0  0  0  0  0
    7.6942  -13.8722   26.8271 C   0  0  0  0  0  0  0  0  0  0  0  0
    7.8395  -14.9282   25.8085 C   0  0  1  0  0  0  0  0  0  0  0  0
    9.1007  -15.6887   25.8333 N   0  0  0  0  0  0  0  0  0  0  0  0
    8.9952  -16.7878   24.8123 C   0  0  0  0  0  0  0  0  0  0  0  0
    9.4164  -16.2852   27.1289 O   0  0  0  0  0  0  0  0  0  0  0  0
    9.8971  -15.5831   28.2137 O   0  0  0  0  0  0  0  0  0  0  0  0
  1  2  1  0
  3  2  1  0
  3 13  1  0
  4  3  2  0
  5  6  1  0
  6  8  1  0
  7  6  2  0
  8  9  1  0
  9 10  1  0
 10 11  1  0
 12 11  1  6
 12 13  1  0
 14 12  1  0
 14 21  1  0
 15 14  2  0
 17 16  1  0
 18 19  1  0
 18 17  1  0
 20 21  1  0
 20 19  1  6
 22 20  1  0
 23 22  1  0
 24 22  2  0
M  END
$$$$
