GRM.pdb
     RDKit          3D

 24 23  0  0  1  0  0  0  0  0999 V2000
   14.2859  -17.9605   20.0237 N   0  0  0  0  0  0  0  0  0  0  0  0
   13.1062  -18.4413   20.6864 C   0  0  0  0  0  0  0  0  0  0  0  0
   12.4300  -17.3143   21.3627 C   0  0  0  0  0  0  0  0  0  0  0  0
   13.0945  -16.2943   21.6556 O   0  0  0  0  0  0  0  0  0  0  0  0
    7.6359  -12.4648   19.8926 N   0  0  0  0  0  0  0  0  0  0  0  0
    7.4863  -13.5881   19.0615 C   0  0  0  0  0  0  0  0  0  0  0  0
    7.7205  -13.5264   17.7762 N   0  0  0  0  0  0  0  0  0  0  0  0
    7.0741  -14.8444   19.5762 N   0  0  0  0  0  0  0  0  0  0  0  0
    6.9325  -14.9715   21.0638 C   0  0  0  0  0  0  0  0  0  0  0  0
    8.2804  -14.8803   21.6898 C   0  0  0  0  0  0  0  0  0  0  0  0
    9.0971  -16.0760   21.7921 C   0  0  0  0  0  0  0  0  0  0  0  0
   10.4171  -16.1747   22.4144 C   0  0  2  0  0  0  0  0  0  0  0  0
   11.0583  -17.3395   21.6944 N   0  0  0  0  0  0  0  0  0  0  0  0
   10.5069  -16.5955   23.8368 C   0  0  0  0  0  0  0  0  0  0  0  0
   10.4131  -17.7929   24.1735 O   0  0  0  0  0  0  0  0  0  0  0  0
    7.6234  -14.3650   17.1781 C   0  0  0  0  0  0  0  0  0  0  0  0
    9.5249  -12.7199   29.0924 S   0  0  0  0  0  0  0  0  0  0  0  0
   10.5849  -13.9873   29.8173 C   0  0  0  0  0  0  0  0  0  0  0  0
   10.6932  -15.3662   28.6766 C   0  0  0  0  0  0  0  0  0  0  0  0
   10.6635  -15.0567   27.2354 C   0  0  1  0  0  0  0  0  0  0  0  0
   10.7715  -16.2055   26.3197 N   0  0  0  0  0  0  0  0  0  0  0  0
   10.7036  -15.6798   24.9123 C   0  0  0  0  0  0  0  0  0  0  0  0
    9.7258  -17.2109   26.4924 O   0  0  0  0  0  0  0  0  0  0  0  0
    8.4929  -17.1665   25.8770 O   0  0  0  0  0  0  0  0  0  0  0  0
  1  2  1  0
  3  2  1  0
  3 13  1  0
  4  3  2  0
  5  6  1  0
  6  8  1  0
  7  6  2  0
  8  9  1  0
  9 10  1  0
 10 11  1  0
 12 11  1  6
 12 13  1  0
 14 12  1  0
 14 21  1  0
 15 14  2  0
 17 16  1  0
 18 19  1  0
 18 17  1  0
 20 21  1  0
 20 19  1  6
 22 20  1  0
 23 22  1  0
 24 22  2  0
M  END
$$$$
