GRM.pdb
     RDKit          3D

 24 23  0  0  1  0  0  0  0  0999 V2000
    5.2960  -21.0180   24.0501 N   0  0  0  0  0  0  0  0  0  0  0  0
    5.0701  -19.6219   23.8016 C   0  0  0  0  0  0  0  0  0  0  0  0
    6.3294  -18.9946   23.3485 C   0  0  0  0  0  0  0  0  0  0  0  0
    7.3727  -19.6857   23.3087 O   0  0  0  0  0  0  0  0  0  0  0  0
    9.7878  -13.5570   18.9463 N   0  0  0  0  0  0  0  0  0  0  0  0
    8.7336  -12.6919   19.2858 C   0  0  0  0  0  0  0  0  0  0  0  0
    8.9434  -11.4315   19.5650 N   0  0  0  0  0  0  0  0  0  0  0  0
    7.3897  -13.1436   19.3421 N   0  0  0  0  0  0  0  0  0  0  0  0
    7.1593  -14.6201   19.4690 C   0  0  0  0  0  0  0  0  0  0  0  0
    7.6003  -15.0663   20.8193 C   0  0  0  0  0  0  0  0  0  0  0  0
    7.3981  -16.4497   21.2101 C   0  0  0  0  0  0  0  0  0  0  0  0
    7.7198  -17.0404   22.5089 C   0  0  2  0  0  0  0  0  0  0  0  0
    6.4062  -17.6409   22.9563 N   0  0  0  0  0  0  0  0  0  0  0  0
    8.0555  -16.1380   23.6409 C   0  0  0  0  0  0  0  0  0  0  0  0
    7.2272  -15.3262   24.1001 O   0  0  0  0  0  0  0  0  0  0  0  0
    8.1747  -10.8278   19.9041 C   0  0  0  0  0  0  0  0  0  0  0  0
    6.1581  -11.6638   25.8083 S   0  0  0  0  0  0  0  0  0  0  0  0
    6.6496  -12.8462   27.0795 C   0  0  0  0  0  0  0  0  0  0  0  0
    8.2050  -13.5952   26.5962 C   0  0  0  0  0  0  0  0  0  0  0  0
    8.1533  -14.9507   26.0186 C   0  0  2  0  0  0  0  0  0  0  0  0
    9.4480  -15.5602   25.6691 N   0  0  0  0  0  0  0  0  0  0  0  0
    9.3296  -16.1278   24.2815 C   0  0  0  0  0  0  0  0  0  0  0  0
    9.8734  -16.6257   26.5735 O   0  0  0  0  0  0  0  0  0  0  0  0
   10.7889  -16.4644   27.5916 O   0  0  0  0  0  0  0  0  0  0  0  0
  1  2  1  0
  3  2  1  0
  3 13  1  0
  4  3  2  0
  5  6  1  0
  6  8  1  0
  7  6  2  0
  8  9  1  0
  9 10  1  0
 10 11  1  0
 12 11  1  6
 12 13  1  0
 14 12  1  0
 14 21  1  0
 15 14  2  0
 17 16  1  0
 18 19  1  0
 18 17  1  0
 20 21  1  0
 20 19  1  6
 22 20  1  0
 23 22  1  0
 24 22  2  0
M  END
$$$$
