GRM.pdb
     RDKit          3D

 24 23  0  0  1  0  0  0  0  0999 V2000
    7.7523  -12.6740   18.6918 N   0  0  0  0  0  0  0  0  0  0  0  0
    8.4528  -13.8676   19.0744 C   0  0  0  0  0  0  0  0  0  0  0  0
    7.7694  -14.4885   20.2287 C   0  0  0  0  0  0  0  0  0  0  0  0
    6.8700  -13.8478   20.8190 O   0  0  0  0  0  0  0  0  0  0  0  0
    6.9200  -22.5533   23.9351 N   0  0  0  0  0  0  0  0  0  0  0  0
    5.7807  -22.0068   23.3202 C   0  0  0  0  0  0  0  0  0  0  0  0
    4.9192  -22.7565   22.6827 N   0  0  0  0  0  0  0  0  0  0  0  0
    5.5090  -20.6148   23.3613 N   0  0  0  0  0  0  0  0  0  0  0  0
    6.6640  -19.6771   23.1722 C   0  0  0  0  0  0  0  0  0  0  0  0
    6.3673  -18.7639   22.0342 C   0  0  0  0  0  0  0  0  0  0  0  0
    7.3728  -17.8053   21.6135 C   0  0  0  0  0  0  0  0  0  0  0  0
    7.3725  -16.3691   21.8907 C   0  0  2  0  0  0  0  0  0  0  0  0
    8.0898  -15.7810   20.6967 N   0  0  0  0  0  0  0  0  0  0  0  0
    8.1835  -15.8606   23.0274 C   0  0  0  0  0  0  0  0  0  0  0  0
    9.4267  -15.7816   22.9622 O   0  0  0  0  0  0  0  0  0  0  0  0
    4.1044  -22.3375   22.2020 C   0  0  0  0  0  0  0  0  0  0  0  0
    5.5986  -11.2447   26.4872 S   0  0  0  0  0  0  0  0  0  0  0  0
    7.3185  -11.0236   26.9858 C   0  0  0  0  0  0  0  0  0  0  0  0
    8.2315  -12.5102   26.5726 C   0  0  0  0  0  0  0  0  0  0  0  0
    7.6585  -13.3915   25.5387 C   0  0  1  0  0  0  0  0  0  0  0  0
    8.4425  -14.5908   25.1970 N   0  0  0  0  0  0  0  0  0  0  0  0
    7.6154  -15.4301   24.2625 C   0  0  0  0  0  0  0  0  0  0  0  0
    8.8202  -15.4086   26.3470 O   0  0  0  0  0  0  0  0  0  0  0  0
    9.8666  -15.1214   27.1975 O   0  0  0  0  0  0  0  0  0  0  0  0
  1  2  1  0
  3  2  1  0
  3 13  1  0
  4  3  2  0
  5  6  1  0
  6  8  1  0
  7  6  2  0
  8  9  1  0
  9 10  1  0
 10 11  1  0
 12 11  1  6
 12 13  1  0
 14 12  1  0
 14 21  1  0
 15 14  2  0
 17 16  1  0
 18 19  1  0
 18 17  1  0
 20 21  1  0
 20 19  1  6
 22 20  1  0
 23 22  1  0
 24 22  2  0
M  END
$$$$
