GRM.pdb
     RDKit          3D

 24 23  0  0  1  0  0  0  0  0999 V2000
    5.9020  -20.3922   23.9638 N   0  0  0  0  0  0  0  0  0  0  0  0
    5.4793  -19.0312   23.7879 C   0  0  0  0  0  0  0  0  0  0  0  0
    6.5692  -18.2569   23.1573 C   0  0  0  0  0  0  0  0  0  0  0  0
    7.6913  -18.7935   23.0135 O   0  0  0  0  0  0  0  0  0  0  0  0
    8.1323  -14.7898   17.1953 N   0  0  0  0  0  0  0  0  0  0  0  0
    8.3840  -13.4436   17.5103 C   0  0  0  0  0  0  0  0  0  0  0  0
    9.3821  -12.7890   16.9755 N   0  0  0  0  0  0  0  0  0  0  0  0
    7.5674  -12.7284   18.4241 N   0  0  0  0  0  0  0  0  0  0  0  0
    6.6966  -13.5272   19.3475 C   0  0  0  0  0  0  0  0  0  0  0  0
    7.5151  -14.5953   19.9847 C   0  0  0  0  0  0  0  0  0  0  0  0
    6.8847  -15.5092   20.9199 C   0  0  0  0  0  0  0  0  0  0  0  0
    7.5338  -16.1881   22.0412 C   0  0  2  0  0  0  0  0  0  0  0  0
    6.3974  -16.9302   22.7075 N   0  0  0  0  0  0  0  0  0  0  0  0
    8.0724  -15.3685   23.1576 C   0  0  0  0  0  0  0  0  0  0  0  0
    7.8391  -14.1463   23.2457 O   0  0  0  0  0  0  0  0  0  0  0  0
    9.5440  -11.7920   17.1998 C   0  0  0  0  0  0  0  0  0  0  0  0
    6.6811  -10.9917   26.7130 S   0  0  0  0  0  0  0  0  0  0  0  0
    6.7646  -12.5772   27.5702 C   0  0  0  0  0  0  0  0  0  0  0  0
    8.2161  -13.4619   27.0005 C   0  0  0  0  0  0  0  0  0  0  0  0
    8.0651  -14.3126   25.8058 C   0  0  1  0  0  0  0  0  0  0  0  0
    9.2744  -15.0217   25.3535 N   0  0  0  0  0  0  0  0  0  0  0  0
    8.8855  -15.9043   24.1995 C   0  0  0  0  0  0  0  0  0  0  0  0
    9.9048  -15.8480   26.3801 O   0  0  0  0  0  0  0  0  0  0  0  0
   10.7372  -15.3644   27.3670 O   0  0  0  0  0  0  0  0  0  0  0  0
  1  2  1  0
  3  2  1  0
  3 13  1  0
  4  3  2  0
  5  6  1  0
  6  8  1  0
  7  6  2  0
  8  9  1  0
  9 10  1  0
 10 11  1  0
 12 11  1  6
 12 13  1  0
 14 12  1  0
 14 21  1  0
 15 14  2  0
 17 16  1  0
 18 19  1  0
 18 17  1  0
 20 21  1  0
 20 19  1  6
 22 20  1  0
 23 22  1  0
 24 22  2  0
M  END
$$$$
