GRM.pdb
     RDKit          3D

 24 23  0  0  1  0  0  0  0  0999 V2000
    7.4372  -19.9091   20.6289 N   0  0  0  0  0  0  0  0  0  0  0  0
    6.7894  -18.9619   21.4919 C   0  0  0  0  0  0  0  0  0  0  0  0
    7.6339  -17.7552   21.6172 C   0  0  0  0  0  0  0  0  0  0  0  0
    8.8795  -17.8806   21.5979 O   0  0  0  0  0  0  0  0  0  0  0  0
    7.5669  -13.1312   16.8661 N   0  0  0  0  0  0  0  0  0  0  0  0
    8.6513  -14.0090   17.0342 C   0  0  0  0  0  0  0  0  0  0  0  0
    9.7400  -13.8993   16.3177 N   0  0  0  0  0  0  0  0  0  0  0  0
    8.6184  -15.0573   17.9899 N   0  0  0  0  0  0  0  0  0  0  0  0
    7.3975  -15.1698   18.8536 C   0  0  0  0  0  0  0  0  0  0  0  0
    7.3341  -13.9914   19.7613 C   0  0  0  0  0  0  0  0  0  0  0  0
    7.3036  -14.2029   21.1971 C   0  0  0  0  0  0  0  0  0  0  0  0
    7.9961  -15.2601   21.9334 C   0  0  2  0  0  0  0  0  0  0  0  0
    7.0921  -16.4595   21.7585 N   0  0  0  0  0  0  0  0  0  0  0  0
    8.0954  -15.1536   23.4123 C   0  0  0  0  0  0  0  0  0  0  0  0
    7.1696  -15.5269   24.1603 O   0  0  0  0  0  0  0  0  0  0  0  0
   10.5147  -14.5772   16.4220 C   0  0  0  0  0  0  0  0  0  0  0  0
    5.7391  -11.5630   26.5788 S   0  0  0  0  0  0  0  0  0  0  0  0
    6.1823  -12.7740   27.8407 C   0  0  0  0  0  0  0  0  0  0  0  0
    7.7304  -13.5486   27.3743 C   0  0  0  0  0  0  0  0  0  0  0  0
    7.9940  -13.7218   25.9340 C   0  0  1  0  0  0  0  0  0  0  0  0
    9.2065  -14.4796   25.5798 N   0  0  0  0  0  0  0  0  0  0  0  0
    9.2374  -14.6248   24.0833 C   0  0  0  0  0  0  0  0  0  0  0  0
    9.2788  -15.8102   26.1785 O   0  0  0  0  0  0  0  0  0  0  0  0
    9.6939  -16.0627   27.4688 O   0  0  0  0  0  0  0  0  0  0  0  0
  1  2  1  0
  3  2  1  0
  3 13  1  0
  4  3  2  0
  5  6  1  0
  6  8  1  0
  7  6  2  0
  8  9  1  0
  9 10  1  0
 10 11  1  0
 12 11  1  1
 12 13  1  0
 14 12  1  0
 14 21  1  0
 15 14  2  0
 17 16  1  0
 18 19  1  0
 18 17  1  0
 20 21  1  0
 20 19  1  6
 22 20  1  0
 23 22  1  0
 24 22  2  0
M  END
$$$$
