IET.pdb
     RDKit          3D

 25 24  0  0  1  0  0  0  0  0999 V2000
   25.5752  -32.2929   -7.6821 C   0  0  0  0  0  0  0  0  0  0  0  0
   26.8549  -32.7256   -7.0503 C   0  0  0  0  0  0  0  0  0  0  0  0
   26.6659  -33.4716   -5.7593 C   0  0  2  0  0  0  0  0  0  0  0  0
   26.0231  -32.5454   -4.7507 C   0  0  0  0  0  0  0  0  0  0  0  0
   27.9868  -33.9323   -5.1935 C   0  0  2  0  0  0  0  0  0  0  0  0
   28.6585  -34.7279   -6.1394 N   0  0  0  0  0  0  0  0  0  0  0  0
   27.7864  -34.7457   -3.9504 C   0  0  0  0  0  0  0  0  0  0  0  0
   27.3859  -35.9478   -3.9974 O   0  0  0  0  0  0  0  0  0  0  0  0
   28.0335  -34.2156   -2.6582 N   0  0  0  0  0  0  0  0  0  0  0  0
   27.9549  -35.0182   -1.4358 C   0  0  1  0  0  0  0  0  0  0  0  0
   29.1616  -34.6569   -0.6281 C   0  0  0  0  0  0  0  0  0  0  0  0
   30.3248  -35.5903   -0.7788 C   0  0  0  0  0  0  0  0  0  0  0  0
   30.3475  -36.5339    0.3543 C   0  0  0  0  0  0  0  0  0  0  0  0
   30.6129  -36.1328    1.5032 O   0  0  0  0  0  0  0  0  0  0  0  0
   26.6729  -34.7522   -0.7802 C   0  0  0  0  0  0  0  0  0  0  0  0
   26.1592  -33.6101   -0.6690 O   0  0  0  0  0  0  0  0  0  0  0  0
   30.0726  -37.8657    0.1347 O   0  0  0  0  0  0  0  0  0  0  0  0
   22.3202  -36.5720    0.7949 C   0  0  0  0  0  0  0  0  0  0  0  0
   23.7327  -36.8251    0.3452 C   0  0  1  0  0  0  0  0  0  0  0  0
   23.6765  -37.3451   -0.9388 O   0  0  0  0  0  0  0  0  0  0  0  0
   24.5870  -35.5773    0.3587 C   0  0  2  0  0  0  0  0  0  0  0  0
   25.8985  -35.8241   -0.2040 N   0  0  0  0  0  0  0  0  0  0  0  0
   24.6885  -34.9861    1.7068 C   0  0  0  0  0  0  0  0  0  0  0  0
   23.8512  -33.9826    2.1629 O   0  0  0  0  0  0  0  0  0  0  0  0
   25.5772  -35.4096    2.4857 O   0  0  0  0  0  0  0  0  0  0  0  0
  2  1  1  0
  3  2  1  0
  3  4  1  1
  5  3  1  0
  5  6  1  6
  7  5  1  0
  7  8  2  0
  9  7  1  0
 10  9  1  0
 10 11  1  1
 12 11  1  0
 13 12  1  0
 14 13  2  0
 15 22  1  0
 15 10  1  0
 16 15  2  0
 17 13  1  0
 19 20  1  0
 19 18  1  6
 19 21  1  0
 21 22  1  1
 21 23  1  0
 23 25  2  0
 23 24  1  0
M  END
$$$$
