IET.pdb
     RDKit          3D

 25 24  0  0  1  0  0  0  0  0999 V2000
   28.8010  -12.3903  -16.5026 C   0  0  0  0  0  0  0  0  0  0  0  0
   27.4177  -12.9263  -16.3496 C   0  0  0  0  0  0  0  0  0  0  0  0
   26.3501  -11.8735  -16.4543 C   0  0  2  0  0  0  0  0  0  0  0  0
   26.4085  -10.9959  -15.2235 C   0  0  0  0  0  0  0  0  0  0  0  0
   24.9751  -12.4916  -16.5212 C   0  0  2  0  0  0  0  0  0  0  0  0
   24.9317  -13.4457  -17.5540 N   0  0  0  0  0  0  0  0  0  0  0  0
   23.9298  -11.4525  -16.7949 C   0  0  0  0  0  0  0  0  0  0  0  0
   23.8337  -10.8847  -17.9246 O   0  0  0  0  0  0  0  0  0  0  0  0
   22.9947  -11.0497  -15.8075 N   0  0  0  0  0  0  0  0  0  0  0  0
   21.9337  -10.0728  -16.0616 C   0  0  1  0  0  0  0  0  0  0  0  0
   20.6526  -10.7510  -15.6906 C   0  0  0  0  0  0  0  0  0  0  0  0
   19.4231   -9.9082  -15.8489 C   0  0  0  0  0  0  0  0  0  0  0  0
   18.2430  -10.6724  -15.4036 C   0  0  0  0  0  0  0  0  0  0  0  0
   18.3811  -11.7811  -14.8533 O   0  0  0  0  0  0  0  0  0  0  0  0
   22.2263   -8.8534  -15.3057 C   0  0  0  0  0  0  0  0  0  0  0  0
   22.6665   -8.8401  -14.1281 O   0  0  0  0  0  0  0  0  0  0  0  0
   16.9829  -10.1517  -15.6002 O   0  0  0  0  0  0  0  0  0  0  0  0
   24.5345   -5.9461  -16.2548 C   0  0  0  0  0  0  0  0  0  0  0  0
   23.1703   -5.3915  -15.9498 C   0  0  1  0  0  0  0  0  0  0  0  0
   22.5538   -5.1078  -17.1587 O   0  0  0  0  0  0  0  0  0  0  0  0
   22.3141   -6.3442  -15.1459 C   0  0  2  0  0  0  0  0  0  0  0  0
   22.0185   -7.5511  -15.8901 N   0  0  0  0  0  0  0  0  0  0  0  0
   21.0781   -5.7046  -14.6559 C   0  0  0  0  0  0  0  0  0  0  0  0
   21.0701   -4.6618  -13.7454 O   0  0  0  0  0  0  0  0  0  0  0  0
   19.9734   -6.1217  -15.0817 O   0  0  0  0  0  0  0  0  0  0  0  0
  2  1  1  0
  3  2  1  0
  3  4  1  1
  5  3  1  0
  5  6  1  6
  7  5  1  0
  7  8  2  0
  9  7  1  0
 10  9  1  0
 10 11  1  1
 12 11  1  0
 13 12  1  0
 14 13  2  0
 15 22  1  0
 15 10  1  0
 16 15  2  0
 17 13  1  0
 19 20  1  0
 19 18  1  6
 19 21  1  0
 21 22  1  6
 21 23  1  0
 23 25  2  0
 23 24  1  0
M  END
$$$$
