IET.pdb
     RDKit          3D

 25 24  0  0  1  0  0  0  0  0999 V2000
   22.2799  -18.3921  -18.6448 C   0  0  0  0  0  0  0  0  0  0  0  0
   21.9958  -17.6794  -17.3659 C   0  0  0  0  0  0  0  0  0  0  0  0
   21.8135  -16.1967  -17.5316 C   0  0  2  0  0  0  0  0  0  0  0  0
   23.0898  -15.6082  -18.0910 C   0  0  0  0  0  0  0  0  0  0  0  0
   21.5323  -15.5275  -16.2087 C   0  0  2  0  0  0  0  0  0  0  0  0
   20.4607  -16.1739  -15.5663 N   0  0  0  0  0  0  0  0  0  0  0  0
   21.1670  -14.0863  -16.4006 C   0  0  0  0  0  0  0  0  0  0  0  0
   21.9761  -13.2561  -16.9143 O   0  0  0  0  0  0  0  0  0  0  0  0
   19.9000  -13.5755  -16.0191 N   0  0  0  0  0  0  0  0  0  0  0  0
   19.5401  -12.1607  -16.1343 C   0  0  1  0  0  0  0  0  0  0  0  0
   18.0510  -12.1027  -16.0001 C   0  0  0  0  0  0  0  0  0  0  0  0
   17.4677  -10.7222  -16.0287 C   0  0  0  0  0  0  0  0  0  0  0  0
   16.0010  -10.8057  -15.8986 C   0  0  0  0  0  0  0  0  0  0  0  0
   15.3159   -9.7690  -15.8138 O   0  0  0  0  0  0  0  0  0  0  0  0
   20.2795  -11.4035  -15.1224 C   0  0  0  0  0  0  0  0  0  0  0  0
   20.3062  -11.6960  -13.9000 O   0  0  0  0  0  0  0  0  0  0  0  0
   15.3908  -12.0403  -15.8714 O   0  0  0  0  0  0  0  0  0  0  0  0
   23.7518  -10.9673  -14.4404 C   0  0  0  0  0  0  0  0  0  0  0  0
   23.2415   -9.5655  -14.6305 C   0  0  1  0  0  0  0  0  0  0  0  0
   23.6169   -9.1518  -15.8994 O   0  0  0  0  0  0  0  0  0  0  0  0
   21.7408   -9.4599  -14.4771 C   0  0  2  0  0  0  0  0  0  0  0  0
   21.0470  -10.2368  -15.4836 N   0  0  0  0  0  0  0  0  0  0  0  0
   21.2782   -8.0588  -14.4734 C   0  0  0  0  0  0  0  0  0  0  0  0
   21.6386   -7.1408  -13.5020 O   0  0  0  0  0  0  0  0  0  0  0  0
   20.5188   -7.6720  -15.3950 O   0  0  0  0  0  0  0  0  0  0  0  0
  2  1  1  0
  3  2  1  0
  3  4  1  1
  5  3  1  0
  5  6  1  6
  7  5  1  0
  7  8  2  0
  9  7  1  0
 10  9  1  0
 10 11  1  1
 12 11  1  0
 13 12  1  0
 14 13  2  0
 15 22  1  0
 15 10  1  0
 16 15  2  0
 17 13  1  0
 19 20  1  0
 19 18  1  6
 19 21  1  0
 21 22  1  6
 21 23  1  0
 23 25  2  0
 23 24  1  0
M  END
$$$$
