IET.pdb
     RDKit          3D

 25 24  0  0  1  0  0  0  0  0999 V2000
   28.7281  -12.3318  -16.0944 C   0  0  0  0  0  0  0  0  0  0  0  0
   27.3183  -12.7464  -16.3491 C   0  0  0  0  0  0  0  0  0  0  0  0
   26.3769  -11.5904  -16.5406 C   0  0  2  0  0  0  0  0  0  0  0  0
   26.2446  -10.8473  -15.2296 C   0  0  0  0  0  0  0  0  0  0  0  0
   25.0034  -12.0635  -16.9489 C   0  0  2  0  0  0  0  0  0  0  0  0
   25.0944  -12.8331  -18.1230 N   0  0  0  0  0  0  0  0  0  0  0  0
   24.0910  -10.9041  -17.2145 C   0  0  0  0  0  0  0  0  0  0  0  0
   24.2238  -10.1727  -18.2417 O   0  0  0  0  0  0  0  0  0  0  0  0
   23.0328  -10.5640  -16.3333 N   0  0  0  0  0  0  0  0  0  0  0  0
   22.0756   -9.4907  -16.6093 C   0  0  1  0  0  0  0  0  0  0  0  0
   20.7192  -10.1159  -16.5190 C   0  0  0  0  0  0  0  0  0  0  0  0
   19.5734   -9.1691  -16.7129 C   0  0  0  0  0  0  0  0  0  0  0  0
   18.3014   -9.8955  -16.5416 C   0  0  0  0  0  0  0  0  0  0  0  0
   18.3001  -11.0872  -16.1797 O   0  0  0  0  0  0  0  0  0  0  0  0
   22.3128   -8.3953  -15.6670 C   0  0  0  0  0  0  0  0  0  0  0  0
   22.5983   -8.5562  -14.4532 O   0  0  0  0  0  0  0  0  0  0  0  0
   17.1108   -9.2469  -16.7848 O   0  0  0  0  0  0  0  0  0  0  0  0
   23.3799   -4.4210  -16.9590 C   0  0  0  0  0  0  0  0  0  0  0  0
   23.6307   -5.0676  -15.6246 C   0  0  1  0  0  0  0  0  0  0  0  0
   23.8547   -4.0553  -14.7043 O   0  0  0  0  0  0  0  0  0  0  0  0
   22.4804   -5.9356  -15.1661 C   0  0  2  0  0  0  0  0  0  0  0  0
   22.2293   -7.0198  -16.0931 N   0  0  0  0  0  0  0  0  0  0  0  0
   21.2550   -5.1519  -14.9188 C   0  0  0  0  0  0  0  0  0  0  0  0
   20.0598   -5.3792  -15.5794 O   0  0  0  0  0  0  0  0  0  0  0  0
   21.2901   -4.2301  -14.0675 O   0  0  0  0  0  0  0  0  0  0  0  0
  2  1  1  0
  3  2  1  0
  3  4  1  1
  5  3  1  0
  5  6  1  6
  7  5  1  0
  7  8  2  0
  9  7  1  0
 10  9  1  0
 10 11  1  1
 12 11  1  0
 13 12  1  0
 14 13  2  0
 15 22  1  0
 15 10  1  0
 16 15  2  0
 17 13  1  0
 19 20  1  0
 19 18  1  6
 19 21  1  0
 21 22  1  6
 21 23  1  0
 23 25  2  0
 23 24  1  0
M  END
$$$$
