IET.pdb
     RDKit          3D

 25 24  0  0  1  0  0  0  0  0999 V2000
   17.8434  -13.0529  -19.3740 C   0  0  0  0  0  0  0  0  0  0  0  0
   19.0593  -12.5132  -18.6999 C   0  0  0  0  0  0  0  0  0  0  0  0
   18.7581  -11.4641  -17.6665 C   0  0  2  0  0  0  0  0  0  0  0  0
   18.1238  -10.2736  -18.3510 C   0  0  0  0  0  0  0  0  0  0  0  0
   20.0169  -10.9918  -16.9813 C   0  0  2  0  0  0  0  0  0  0  0  0
   20.6612  -12.0803  -16.3658 N   0  0  0  0  0  0  0  0  0  0  0  0
   19.7069   -9.9705  -15.9287 C   0  0  0  0  0  0  0  0  0  0  0  0
   19.0676  -10.2712  -14.8757 O   0  0  0  0  0  0  0  0  0  0  0  0
   20.1110   -8.6167  -16.0536 N   0  0  0  0  0  0  0  0  0  0  0  0
   19.7245   -7.5751  -15.0995 C   0  0  1  0  0  0  0  0  0  0  0  0
   21.0027   -6.9666  -14.6147 C   0  0  0  0  0  0  0  0  0  0  0  0
   20.8364   -5.8526  -13.6257 C   0  0  0  0  0  0  0  0  0  0  0  0
   22.1632   -5.3985  -13.1693 C   0  0  0  0  0  0  0  0  0  0  0  0
   22.6910   -4.3887  -13.6723 O   0  0  0  0  0  0  0  0  0  0  0  0
   18.8122   -6.6430  -15.7648 C   0  0  0  0  0  0  0  0  0  0  0  0
   18.9633   -6.2236  -16.9404 O   0  0  0  0  0  0  0  0  0  0  0  0
   22.8179   -6.0994  -12.1806 O   0  0  0  0  0  0  0  0  0  0  0  0
   14.9719   -6.8879  -16.3261 C   0  0  0  0  0  0  0  0  0  0  0  0
   15.3025   -5.6261  -15.5776 C   0  0  1  0  0  0  0  0  0  0  0  0
   15.0224   -5.8483  -14.2381 O   0  0  0  0  0  0  0  0  0  0  0  0
   16.7465   -5.2072  -15.7395 C   0  0  2  0  0  0  0  0  0  0  0  0
   17.6461   -6.1345  -15.0848 N   0  0  0  0  0  0  0  0  0  0  0  0
   16.9805   -3.8245  -15.2807 C   0  0  0  0  0  0  0  0  0  0  0  0
   16.3063   -2.7287  -15.7916 O   0  0  0  0  0  0  0  0  0  0  0  0
   17.8328   -3.6236  -14.3814 O   0  0  0  0  0  0  0  0  0  0  0  0
  2  1  1  0
  3  2  1  0
  3  4  1  6
  5  3  1  0
  5  6  1  1
  7  5  1  0
  7  8  2  0
  9  7  1  0
 10  9  1  0
 10 11  1  6
 12 11  1  0
 13 12  1  0
 14 13  2  0
 15 22  1  0
 15 10  1  0
 16 15  2  0
 17 13  1  0
 19 20  1  0
 19 18  1  6
 19 21  1  0
 21 22  1  1
 21 23  1  0
 23 25  2  0
 23 24  1  0
M  END
$$$$
