IQS.pdb
     RDKit          3D

 24 23  0  0  1  0  0  0  0  0999 V2000
   25.1575  -12.1726  -16.0547 C   0  0  0  0  0  0  0  0  0  0  0  0
   23.7935  -11.6736  -16.4149 C   0  0  0  0  0  0  0  0  0  0  0  0
   23.2827  -10.5587  -15.5895 C   0  0  2  0  0  0  0  0  0  0  0  0
   23.3990  -10.9564  -14.1282 C   0  0  0  0  0  0  0  0  0  0  0  0
   21.9314  -10.0582  -15.9479 C   0  0  2  0  0  0  0  0  0  0  0  0
   21.8164   -9.9680  -17.4059 N   0  0  0  0  0  0  0  0  0  0  0  0
   21.5925   -8.7548  -15.3868 C   0  0  0  0  0  0  0  0  0  0  0  0
   21.5405   -8.5988  -14.1439 O   0  0  0  0  0  0  0  0  0  0  0  0
   22.4007   -4.9568  -13.3430 N   0  0  0  0  0  0  0  0  0  0  0  0
   21.9422   -3.8223  -14.0636 C   0  0  0  0  0  0  0  0  0  0  0  0
   21.8532   -2.7333  -13.4528 O   0  0  0  0  0  0  0  0  0  0  0  0
   21.5736   -3.9320  -15.5263 C   0  0  0  0  0  0  0  0  0  0  0  0
   21.8700   -5.3255  -15.9309 C   0  0  0  0  0  0  0  0  0  0  0  0
   20.8380   -6.3630  -15.6361 C   0  0  2  0  0  0  0  0  0  0  0  0
   21.3163   -7.6436  -16.2153 N   0  0  0  0  0  0  0  0  0  0  0  0
   19.4800   -6.0775  -16.0953 C   0  0  0  0  0  0  0  0  0  0  0  0
   19.2017   -6.1218  -17.3520 O   0  0  0  0  0  0  0  0  0  0  0  0
   14.7862   -5.9180  -15.7676 O   0  0  0  0  0  0  0  0  0  0  0  0
   16.0075   -6.3465  -15.2355 C   0  0  0  0  0  0  0  0  0  0  0  0
   17.0750   -5.4393  -15.8160 C   0  0  2  0  0  0  0  0  0  0  0  0
   18.3827   -5.7453  -15.2677 N   0  0  0  0  0  0  0  0  0  0  0  0
   16.7029   -4.0589  -15.4349 C   0  0  0  0  0  0  0  0  0  0  0  0
   15.7895   -3.3106  -16.1542 O   0  0  0  0  0  0  0  0  0  0  0  0
   17.2215   -3.5174  -14.4212 O   0  0  0  0  0  0  0  0  0  0  0  0
  1  2  1  0
  3  2  1  0
  3  4  1  1
  5  3  1  0
  5  6  1  6
  7  5  1  0
  7  8  2  0
  9 10  1  0
 10 12  1  0
 11 10  2  0
 12 13  1  0
 14 15  1  0
 14 13  1  6
 15  7  1  0
 16 14  1  0
 17 16  2  0
 18 19  1  0
 20 19  1  1
 20 21  1  0
 21 16  1  0
 22 23  1  0
 22 20  1  0
 24 22  2  0
M  END
$$$$
