IQS.pdb
     RDKit          3D

 24 23  0  0  1  0  0  0  0  0999 V2000
   29.1008  -11.3052  -16.7595 C   0  0  0  0  0  0  0  0  0  0  0  0
   27.8001  -12.0002  -16.5053 C   0  0  0  0  0  0  0  0  0  0  0  0
   26.5865  -11.1875  -16.7331 C   0  0  2  0  0  0  0  0  0  0  0  0
   26.6331   -9.9906  -15.7991 C   0  0  0  0  0  0  0  0  0  0  0  0
   25.2977  -11.9222  -16.6693 C   0  0  2  0  0  0  0  0  0  0  0  0
   25.3500  -13.0763  -17.5706 N   0  0  0  0  0  0  0  0  0  0  0  0
   24.1233  -11.1299  -17.0179 C   0  0  0  0  0  0  0  0  0  0  0  0
   23.9267  -10.7857  -18.2074 O   0  0  0  0  0  0  0  0  0  0  0  0
   18.7604  -11.9939  -14.9967 N   0  0  0  0  0  0  0  0  0  0  0  0
   18.4410  -10.7053  -15.5008 C   0  0  0  0  0  0  0  0  0  0  0  0
   17.2381  -10.3593  -15.5129 O   0  0  0  0  0  0  0  0  0  0  0  0
   19.5265   -9.7819  -16.0071 C   0  0  0  0  0  0  0  0  0  0  0  0
   20.7935  -10.5459  -15.9395 C   0  0  0  0  0  0  0  0  0  0  0  0
   22.0375   -9.8590  -16.3964 C   0  0  2  0  0  0  0  0  0  0  0  0
   23.1844  -10.7316  -16.0395 N   0  0  0  0  0  0  0  0  0  0  0  0
   22.2562   -8.5056  -15.8891 C   0  0  0  0  0  0  0  0  0  0  0  0
   22.6384   -8.3272  -14.6722 O   0  0  0  0  0  0  0  0  0  0  0  0
   21.8982   -5.1731  -18.1848 O   0  0  0  0  0  0  0  0  0  0  0  0
   22.7897   -5.0151  -17.1178 C   0  0  0  0  0  0  0  0  0  0  0  0
   22.3708   -6.0098  -16.0525 C   0  0  2  0  0  0  0  0  0  0  0  0
   22.0894   -7.3115  -16.6276 N   0  0  0  0  0  0  0  0  0  0  0  0
   21.1336   -5.4737  -15.4434 C   0  0  0  0  0  0  0  0  0  0  0  0
   21.1080   -4.2846  -14.7382 O   0  0  0  0  0  0  0  0  0  0  0  0
   20.0462   -6.1020  -15.5545 O   0  0  0  0  0  0  0  0  0  0  0  0
  1  2  1  0
  3  2  1  0
  3  4  1  1
  5  3  1  0
  5  6  1  6
  7  5  1  0
  7  8  2  0
  9 10  1  0
 10 12  1  0
 11 10  2  0
 12 13  1  0
 14 15  1  0
 14 13  1  1
 15  7  1  0
 16 14  1  0
 17 16  2  0
 18 19  1  0
 20 19  1  6
 20 21  1  0
 21 16  1  0
 22 23  1  0
 22 20  1  0
 24 22  2  0
M  END
$$$$
