IQS.pdb
     RDKit          3D

 24 23  0  0  1  0  0  0  0  0999 V2000
   18.3683  -19.0483  -14.2485 C   0  0  0  0  0  0  0  0  0  0  0  0
   19.3350  -18.6028  -15.3003 C   0  0  0  0  0  0  0  0  0  0  0  0
   19.6733  -17.1637  -15.2886 C   0  0  2  0  0  0  0  0  0  0  0  0
   18.3800  -16.3717  -15.2038 C   0  0  0  0  0  0  0  0  0  0  0  0
   20.5644  -16.7025  -16.3830 C   0  0  2  0  0  0  0  0  0  0  0  0
   21.8104  -17.4730  -16.3540 N   0  0  0  0  0  0  0  0  0  0  0  0
   20.9087  -15.2855  -16.3361 C   0  0  0  0  0  0  0  0  0  0  0  0
   21.7431  -14.8678  -15.4987 O   0  0  0  0  0  0  0  0  0  0  0  0
   22.8076  -11.8663  -20.5300 N   0  0  0  0  0  0  0  0  0  0  0  0
   23.4883  -12.7615  -19.6630 C   0  0  0  0  0  0  0  0  0  0  0  0
   24.6146  -13.1796  -20.0146 O   0  0  0  0  0  0  0  0  0  0  0  0
   22.8662  -13.1939  -18.3540 C   0  0  0  0  0  0  0  0  0  0  0  0
   21.5196  -12.5792  -18.3055 C   0  0  0  0  0  0  0  0  0  0  0  0
   20.6536  -12.9088  -17.1352 C   0  0  2  0  0  0  0  0  0  0  0  0
   20.3208  -14.3531  -17.2208 N   0  0  0  0  0  0  0  0  0  0  0  0
   19.4334  -12.1178  -16.9866 C   0  0  0  0  0  0  0  0  0  0  0  0
   18.3996  -12.3859  -17.7064 O   0  0  0  0  0  0  0  0  0  0  0  0
   18.3240  -10.7909  -13.7291 O   0  0  0  0  0  0  0  0  0  0  0  0
   17.7363   -9.8481  -14.5800 C   0  0  0  0  0  0  0  0  0  0  0  0
   17.9971  -10.3215  -15.9970 C   0  0  2  0  0  0  0  0  0  0  0  0
   19.2545  -11.0388  -16.0905 N   0  0  0  0  0  0  0  0  0  0  0  0
   18.0715   -9.1057  -16.8368 C   0  0  0  0  0  0  0  0  0  0  0  0
   17.0165   -8.2200  -16.9563 O   0  0  0  0  0  0  0  0  0  0  0  0
   19.1230   -8.8404  -17.4798 O   0  0  0  0  0  0  0  0  0  0  0  0
  1  2  1  0
  3  2  1  0
  3  4  1  6
  5  3  1  0
  5  6  1  1
  7  5  1  0
  7  8  2  0
  9 10  1  0
 10 12  1  0
 11 10  2  0
 12 13  1  0
 14 15  1  0
 14 13  1  6
 15  7  1  0
 16 14  1  0
 17 16  2  0
 18 19  1  0
 20 19  1  1
 20 21  1  0
 21 16  1  0
 22 23  1  0
 22 20  1  0
 24 22  2  0
M  END
$$$$
