IQS.pdb
     RDKit          3D

 24 23  0  0  1  0  0  0  0  0999 V2000
   18.6780  -14.2724  -15.4836 C   0  0  0  0  0  0  0  0  0  0  0  0
   17.9659  -13.3024  -16.3733 C   0  0  0  0  0  0  0  0  0  0  0  0
   18.5135  -11.9295  -16.3891 C   0  0  2  0  0  0  0  0  0  0  0  0
   18.5907  -11.4315  -14.9562 C   0  0  0  0  0  0  0  0  0  0  0  0
   17.8314  -10.9742  -17.2984 C   0  0  2  0  0  0  0  0  0  0  0  0
   17.8428  -11.5080  -18.6629 N   0  0  0  0  0  0  0  0  0  0  0  0
   18.4151   -9.6375  -17.3318 C   0  0  0  0  0  0  0  0  0  0  0  0
   19.5589   -9.4619  -17.8141 O   0  0  0  0  0  0  0  0  0  0  0  0
   15.0866   -4.6990  -17.6928 N   0  0  0  0  0  0  0  0  0  0  0  0
   16.3117   -4.0032  -17.5147 C   0  0  0  0  0  0  0  0  0  0  0  0
   16.2990   -2.7550  -17.6090 O   0  0  0  0  0  0  0  0  0  0  0  0
   17.5915   -4.7533  -17.2199 C   0  0  0  0  0  0  0  0  0  0  0  0
   17.2373   -6.1909  -17.1845 C   0  0  0  0  0  0  0  0  0  0  0  0
   18.3270   -7.1614  -16.8698 C   0  0  2  0  0  0  0  0  0  0  0  0
   17.7189   -8.5151  -16.8285 N   0  0  0  0  0  0  0  0  0  0  0  0
   19.0862   -6.9116  -15.6459 C   0  0  0  0  0  0  0  0  0  0  0  0
   18.6778   -7.3947  -14.5241 O   0  0  0  0  0  0  0  0  0  0  0  0
   22.6067   -6.9215  -12.8663 O   0  0  0  0  0  0  0  0  0  0  0  0
   22.0378   -7.1076  -14.1312 C   0  0  0  0  0  0  0  0  0  0  0  0
   21.0008   -6.0148  -14.3047 C   0  0  2  0  0  0  0  0  0  0  0  0
   20.2823   -6.1631  -15.5562 N   0  0  0  0  0  0  0  0  0  0  0  0
   21.7418   -4.7343  -14.3225 C   0  0  0  0  0  0  0  0  0  0  0  0
   21.7621   -3.9034  -15.4274 O   0  0  0  0  0  0  0  0  0  0  0  0
   22.3886   -4.3598  -13.3071 O   0  0  0  0  0  0  0  0  0  0  0  0
  1  2  1  0
  3  2  1  0
  3  4  1  1
  5  3  1  0
  5  6  1  6
  7  5  1  0
  7  8  2  0
  9 10  1  0
 10 12  1  0
 11 10  2  0
 12 13  1  0
 14 15  1  0
 14 13  1  1
 15  7  1  0
 16 14  1  0
 17 16  2  0
 18 19  1  0
 20 19  1  6
 20 21  1  0
 21 16  1  0
 22 23  1  0
 22 20  1  0
 24 22  2  0
M  END
$$$$
