IQS.pdb
     RDKit          3D

 24 23  0  0  1  0  0  0  0  0999 V2000
   18.9942  -16.6889  -15.9450 C   0  0  0  0  0  0  0  0  0  0  0  0
   17.8045  -15.8358  -15.6350 C   0  0  0  0  0  0  0  0  0  0  0  0
   17.9759  -14.3879  -15.8790 C   0  0  2  0  0  0  0  0  0  0  0  0
   19.2034  -13.9191  -15.1172 C   0  0  0  0  0  0  0  0  0  0  0  0
   16.7797  -13.5457  -15.6248 C   0  0  2  0  0  0  0  0  0  0  0  0
   15.6618  -14.0290  -16.4396 N   0  0  0  0  0  0  0  0  0  0  0  0
   16.9605  -12.1252  -15.9036 C   0  0  0  0  0  0  0  0  0  0  0  0
   17.1805  -11.7366  -17.0752 O   0  0  0  0  0  0  0  0  0  0  0  0
   13.4212   -9.7678  -13.8127 N   0  0  0  0  0  0  0  0  0  0  0  0
   13.4377   -9.6184  -15.2248 C   0  0  0  0  0  0  0  0  0  0  0  0
   12.3866   -9.8712  -15.8559 O   0  0  0  0  0  0  0  0  0  0  0  0
   14.6912   -9.1666  -15.9403 C   0  0  0  0  0  0  0  0  0  0  0  0
   15.7458   -9.0495  -14.9071 C   0  0  0  0  0  0  0  0  0  0  0  0
   17.0549   -9.7126  -15.1805 C   0  0  2  0  0  0  0  0  0  0  0  0
   16.8944  -11.1568  -14.8763 N   0  0  0  0  0  0  0  0  0  0  0  0
   18.2160   -9.1742  -14.4744 C   0  0  0  0  0  0  0  0  0  0  0  0
   18.3352   -9.3473  -13.2038 O   0  0  0  0  0  0  0  0  0  0  0  0
   21.7259   -8.6564  -16.1052 O   0  0  0  0  0  0  0  0  0  0  0  0
   21.6902   -8.6882  -14.7067 C   0  0  0  0  0  0  0  0  0  0  0  0
   20.4123   -7.9861  -14.2899 C   0  0  2  0  0  0  0  0  0  0  0  0
   19.2778   -8.4512  -15.0653 N   0  0  0  0  0  0  0  0  0  0  0  0
   20.6208   -6.5457  -14.5562 C   0  0  0  0  0  0  0  0  0  0  0  0
   21.5750   -5.7981  -13.8911 O   0  0  0  0  0  0  0  0  0  0  0  0
   19.9173   -5.9497  -15.4162 O   0  0  0  0  0  0  0  0  0  0  0  0
  1  2  1  0
  3  2  1  0
  3  4  1  1
  5  3  1  0
  5  6  1  6
  7  5  1  0
  7  8  2  0
  9 10  1  0
 10 12  1  0
 11 10  2  0
 12 13  1  0
 14 15  1  0
 14 13  1  1
 15  7  1  0
 16 14  1  0
 17 16  2  0
 18 19  1  0
 20 19  1  6
 20 21  1  0
 21 16  1  0
 22 23  1  0
 22 20  1  0
 24 22  2  0
M  END
$$$$
