IQS.pdb
     RDKit          3D

 24 23  0  0  1  0  0  0  0  0999 V2000
   18.8762  -13.2496  -17.3475 C   0  0  0  0  0  0  0  0  0  0  0  0
   17.9969  -12.9445  -16.1756 C   0  0  0  0  0  0  0  0  0  0  0  0
   18.0428  -11.5495  -15.6888 C   0  0  2  0  0  0  0  0  0  0  0  0
   19.4926  -11.1882  -15.4158 C   0  0  0  0  0  0  0  0  0  0  0  0
   17.1430  -11.2345  -14.5504 C   0  0  2  0  0  0  0  0  0  0  0  0
   15.7675  -11.5970  -14.9020 N   0  0  0  0  0  0  0  0  0  0  0  0
   17.1490   -9.8363  -14.1339 C   0  0  0  0  0  0  0  0  0  0  0  0
   16.9390   -8.9286  -14.9729 O   0  0  0  0  0  0  0  0  0  0  0  0
   15.5977   -7.8723   -8.7298 N   0  0  0  0  0  0  0  0  0  0  0  0
   16.1902   -6.6451   -9.1293 C   0  0  0  0  0  0  0  0  0  0  0  0
   16.0844   -5.6625   -8.3610 O   0  0  0  0  0  0  0  0  0  0  0  0
   16.9263   -6.5340  -10.4458 C   0  0  0  0  0  0  0  0  0  0  0  0
   16.8443   -7.8666  -11.0869 C   0  0  0  0  0  0  0  0  0  0  0  0
   17.5207   -8.0392  -12.4063 C   0  0  2  0  0  0  0  0  0  0  0  0
   17.3884   -9.4670  -12.7908 N   0  0  0  0  0  0  0  0  0  0  0  0
   18.9207   -7.6250  -12.4779 C   0  0  0  0  0  0  0  0  0  0  0  0
   19.8587   -8.4918  -12.3117 O   0  0  0  0  0  0  0  0  0  0  0  0
   22.4999   -6.4497  -14.5875 O   0  0  0  0  0  0  0  0  0  0  0  0
   21.1852   -6.8327  -14.2990 C   0  0  0  0  0  0  0  0  0  0  0  0
   20.7595   -6.0362  -13.0807 C   0  0  2  0  0  0  0  0  0  0  0  0
   19.3800   -6.3111  -12.7263 N   0  0  0  0  0  0  0  0  0  0  0  0
   20.8881   -4.6089  -13.4487 C   0  0  0  0  0  0  0  0  0  0  0  0
   22.0909   -3.9303  -13.3820 O   0  0  0  0  0  0  0  0  0  0  0  0
   19.8808   -3.9602  -13.8412 O   0  0  0  0  0  0  0  0  0  0  0  0
  1  2  1  0
  3  2  1  0
  3  4  1  1
  5  3  1  0
  5  6  1  6
  7  5  1  0
  7  8  2  0
  9 10  1  0
 10 12  1  0
 11 10  2  0
 12 13  1  0
 14 15  1  0
 14 13  1  1
 15  7  1  0
 16 14  1  0
 17 16  2  0
 18 19  1  0
 20 19  1  6
 20 21  1  0
 21 16  1  0
 22 23  1  0
 22 20  1  0
 24 22  2  0
M  END
$$$$
