IQS.pdb
     RDKit          3D

 24 23  0  0  1  0  0  0  0  0999 V2000
   14.7747  -11.2254  -18.9726 C   0  0  0  0  0  0  0  0  0  0  0  0
   15.9827  -11.2663  -18.0902 C   0  0  0  0  0  0  0  0  0  0  0  0
   16.2095  -10.0631  -17.2619 C   0  0  2  0  0  0  0  0  0  0  0  0
   16.3611   -8.8692  -18.1886 C   0  0  0  0  0  0  0  0  0  0  0  0
   17.3046  -10.1648  -16.2643 C   0  0  2  0  0  0  0  0  0  0  0  0
   17.0196  -11.2645  -15.3388 N   0  0  0  0  0  0  0  0  0  0  0  0
   17.5286   -8.9579  -15.4758 C   0  0  0  0  0  0  0  0  0  0  0  0
   16.8176   -8.7217  -14.4705 O   0  0  0  0  0  0  0  0  0  0  0  0
   22.6909   -7.1368  -13.7386 N   0  0  0  0  0  0  0  0  0  0  0  0
   22.1166   -5.8579  -13.5121 C   0  0  0  0  0  0  0  0  0  0  0  0
   22.8313   -4.9767  -12.9833 O   0  0  0  0  0  0  0  0  0  0  0  0
   20.6827   -5.5742  -13.9003 C   0  0  0  0  0  0  0  0  0  0  0  0
   20.1859   -6.7875  -14.5893 C   0  0  0  0  0  0  0  0  0  0  0  0
   18.7524   -6.8054  -15.0052 C   0  0  2  0  0  0  0  0  0  0  0  0
   18.5397   -8.0308  -15.8160 N   0  0  0  0  0  0  0  0  0  0  0  0
   18.2715   -5.6308  -15.7303 C   0  0  0  0  0  0  0  0  0  0  0  0
   18.6173   -5.4440  -16.9567 O   0  0  0  0  0  0  0  0  0  0  0  0
   15.3043   -3.2983  -14.3864 O   0  0  0  0  0  0  0  0  0  0  0  0
   15.5093   -3.2040  -15.7675 C   0  0  0  0  0  0  0  0  0  0  0  0
   16.9755   -3.5067  -16.0092 C   0  0  2  0  0  0  0  0  0  0  0  0
   17.4218   -4.6294  -15.2063 N   0  0  0  0  0  0  0  0  0  0  0  0
   17.7244   -2.2964  -15.6050 C   0  0  0  0  0  0  0  0  0  0  0  0
   17.5120   -1.0618  -16.1901 O   0  0  0  0  0  0  0  0  0  0  0  0
   18.5954   -2.3616  -14.6957 O   0  0  0  0  0  0  0  0  0  0  0  0
  1  2  1  0
  3  2  1  0
  3  4  1  6
  5  3  1  0
  5  6  1  1
  7  5  1  0
  7  8  2  0
  9 10  1  0
 10 12  1  0
 11 10  2  0
 12 13  1  0
 14 15  1  0
 14 13  1  6
 15  7  1  0
 16 14  1  0
 17 16  2  0
 18 19  1  0
 20 19  1  1
 20 21  1  0
 21 16  1  0
 22 23  1  0
 22 20  1  0
 24 22  2  0
M  END
$$$$
