IQS.pdb
     RDKit          3D

 24 23  0  0  1  0  0  0  0  0999 V2000
   18.6396  -14.4316  -15.8616 C   0  0  0  0  0  0  0  0  0  0  0  0
   17.6789  -14.4273  -14.7142 C   0  0  0  0  0  0  0  0  0  0  0  0
   16.8683  -13.2002  -14.5644 C   0  0  2  0  0  0  0  0  0  0  0  0
   17.8132  -12.0157  -14.4590 C   0  0  0  0  0  0  0  0  0  0  0  0
   15.8512  -13.2280  -13.4830 C   0  0  2  0  0  0  0  0  0  0  0  0
   14.9789  -14.3912  -13.6646 N   0  0  0  0  0  0  0  0  0  0  0  0
   15.0085  -12.0396  -13.4044 C   0  0  0  0  0  0  0  0  0  0  0  0
   14.1014  -11.8541  -14.2497 O   0  0  0  0  0  0  0  0  0  0  0  0
   11.7032  -10.3134   -9.2975 N   0  0  0  0  0  0  0  0  0  0  0  0
   11.6574   -9.0287   -9.9009 C   0  0  0  0  0  0  0  0  0  0  0  0
   10.8213   -8.2040   -9.4674 O   0  0  0  0  0  0  0  0  0  0  0  0
   12.5936   -8.6724  -11.0340 C   0  0  0  0  0  0  0  0  0  0  0  0
   13.4509   -9.8589  -11.2596 C   0  0  0  0  0  0  0  0  0  0  0  0
   14.4143   -9.8063  -12.3985 C   0  0  2  0  0  0  0  0  0  0  0  0
   15.1862  -11.0744  -12.3873 N   0  0  0  0  0  0  0  0  0  0  0  0
   15.3236   -8.6623  -12.4281 C   0  0  0  0  0  0  0  0  0  0  0  0
   16.2739   -8.5716  -11.5636 O   0  0  0  0  0  0  0  0  0  0  0  0
   17.8461   -5.3326  -14.5727 O   0  0  0  0  0  0  0  0  0  0  0  0
   16.9601   -6.4106  -14.6787 C   0  0  0  0  0  0  0  0  0  0  0  0
   16.2550   -6.5249  -13.3410 C   0  0  2  0  0  0  0  0  0  0  0  0
   15.2732   -7.5929  -13.3517 N   0  0  0  0  0  0  0  0  0  0  0  0
   15.5631   -5.2356  -13.1217 C   0  0  0  0  0  0  0  0  0  0  0  0
   16.2435   -4.0683  -12.8279 O   0  0  0  0  0  0  0  0  0  0  0  0
   14.3065   -5.1670  -13.1989 O   0  0  0  0  0  0  0  0  0  0  0  0
  1  2  1  0
  3  2  1  0
  3  4  1  1
  5  3  1  0
  5  6  1  6
  7  5  1  0
  7  8  2  0
  9 10  1  0
 10 12  1  0
 11 10  2  0
 12 13  1  0
 14 15  1  0
 14 13  1  1
 15  7  1  0
 16 14  1  0
 17 16  2  0
 18 19  1  0
 20 19  1  6
 20 21  1  0
 21 16  1  0
 22 23  1  0
 22 20  1  0
 24 22  2  0
M  END
$$$$
