IQS.pdb
     RDKit          3D

 24 23  0  0  1  0  0  0  0  0999 V2000
   16.4367  -13.3280  -17.5903 C   0  0  0  0  0  0  0  0  0  0  0  0
   17.3156  -12.2136  -18.0649 C   0  0  0  0  0  0  0  0  0  0  0  0
   18.2420  -11.6571  -17.0563 C   0  0  2  0  0  0  0  0  0  0  0  0
   17.4317  -11.2559  -15.8359 C   0  0  0  0  0  0  0  0  0  0  0  0
   19.1421  -10.5773  -17.5347 C   0  0  2  0  0  0  0  0  0  0  0  0
   19.8531  -11.0311  -18.7328 N   0  0  0  0  0  0  0  0  0  0  0  0
   20.1344  -10.1318  -16.5624 C   0  0  0  0  0  0  0  0  0  0  0  0
   19.7760   -9.7776  -15.4143 O   0  0  0  0  0  0  0  0  0  0  0  0
   25.9065  -11.7992  -16.7007 N   0  0  0  0  0  0  0  0  0  0  0  0
   26.0973  -10.7763  -15.7343 C   0  0  0  0  0  0  0  0  0  0  0  0
   27.2227  -10.6784  -15.1948 O   0  0  0  0  0  0  0  0  0  0  0  0
   24.9704   -9.8352  -15.3711 C   0  0  0  0  0  0  0  0  0  0  0  0
   23.7889  -10.2748  -16.1484 C   0  0  0  0  0  0  0  0  0  0  0  0
   22.4999   -9.5626  -15.9047 C   0  0  2  0  0  0  0  0  0  0  0  0
   21.5108  -10.0862  -16.8802 N   0  0  0  0  0  0  0  0  0  0  0  0
   22.5429   -8.1027  -15.9640 C   0  0  0  0  0  0  0  0  0  0  0  0
   22.5311   -7.5032  -17.1039 O   0  0  0  0  0  0  0  0  0  0  0  0
   20.8422   -4.1154  -15.4862 O   0  0  0  0  0  0  0  0  0  0  0  0
   21.0008   -5.5047  -15.5398 C   0  0  0  0  0  0  0  0  0  0  0  0
   22.3788   -5.8051  -14.9825 C   0  0  2  0  0  0  0  0  0  0  0  0
   22.5945   -7.2335  -14.8500 N   0  0  0  0  0  0  0  0  0  0  0  0
   22.4321   -5.1826  -13.6413 C   0  0  0  0  0  0  0  0  0  0  0  0
   22.4734   -3.8125  -13.4597 O   0  0  0  0  0  0  0  0  0  0  0  0
   22.4416   -5.9023  -12.6061 O   0  0  0  0  0  0  0  0  0  0  0  0
  1  2  1  0
  3  2  1  0
  3  4  1  1
  5  3  1  0
  5  6  1  6
  7  5  1  0
  7  8  2  0
  9 10  1  0
 10 12  1  0
 11 10  2  0
 12 13  1  0
 14 15  1  0
 14 13  1  6
 15  7  1  0
 16 14  1  0
 17 16  2  0
 18 19  1  0
 20 19  1  1
 20 21  1  0
 21 16  1  0
 22 23  1  0
 22 20  1  0
 24 22  2  0
M  END
$$$$
