IQS.pdb
     RDKit          3D

 24 23  0  0  1  0  0  0  0  0999 V2000
   21.1568  -18.4015  -18.8542 C   0  0  0  0  0  0  0  0  0  0  0  0
   21.0945  -17.5286  -17.6402 C   0  0  0  0  0  0  0  0  0  0  0  0
   20.9038  -16.0859  -17.9001 C   0  0  2  0  0  0  0  0  0  0  0  0
   22.0069  -15.6211  -18.8352 C   0  0  0  0  0  0  0  0  0  0  0  0
   20.7645  -15.2274  -16.6967 C   0  0  2  0  0  0  0  0  0  0  0  0
   19.6628  -15.7248  -15.8685 N   0  0  0  0  0  0  0  0  0  0  0  0
   20.5182  -13.8168  -16.9760 C   0  0  0  0  0  0  0  0  0  0  0  0
   21.3179  -13.1676  -17.6907 O   0  0  0  0  0  0  0  0  0  0  0  0
   15.1282  -11.2973  -17.3021 N   0  0  0  0  0  0  0  0  0  0  0  0
   15.8117  -10.0614  -17.1538 C   0  0  0  0  0  0  0  0  0  0  0  0
   15.1392   -9.0068  -17.2042 O   0  0  0  0  0  0  0  0  0  0  0  0
   17.3087  -10.0259  -16.9412 C   0  0  0  0  0  0  0  0  0  0  0  0
   17.7573  -11.4359  -16.8757 C   0  0  0  0  0  0  0  0  0  0  0  0
   19.2114  -11.6865  -16.6499 C   0  0  2  0  0  0  0  0  0  0  0  0
   19.3864  -13.1481  -16.4569 N   0  0  0  0  0  0  0  0  0  0  0  0
   19.8336  -10.9541  -15.5484 C   0  0  0  0  0  0  0  0  0  0  0  0
   19.7157  -11.3842  -14.3402 O   0  0  0  0  0  0  0  0  0  0  0  0
   23.1928   -8.9543  -15.6294 O   0  0  0  0  0  0  0  0  0  0  0  0
   22.6350   -9.3131  -14.3971 C   0  0  0  0  0  0  0  0  0  0  0  0
   21.1405   -9.0848  -14.5154 C   0  0  2  0  0  0  0  0  0  0  0  0
   20.5924   -9.7674  -15.6722 N   0  0  0  0  0  0  0  0  0  0  0  0
   20.9522   -7.6267  -14.6815 C   0  0  0  0  0  0  0  0  0  0  0  0
   21.2727   -6.7188  -13.6892 O   0  0  0  0  0  0  0  0  0  0  0  0
   20.4838   -7.1644  -15.7570 O   0  0  0  0  0  0  0  0  0  0  0  0
  1  2  1  0
  3  2  1  0
  3  4  1  1
  5  3  1  0
  5  6  1  1
  7  5  1  0
  7  8  2  0
  9 10  1  0
 10 12  1  0
 11 10  2  0
 12 13  1  0
 14 15  1  0
 14 13  1  1
 15  7  1  0
 16 14  1  0
 17 16  2  0
 18 19  1  0
 20 19  1  6
 20 21  1  0
 21 16  1  0
 22 23  1  0
 22 20  1  0
 24 22  2  0
M  END
$$$$
