IQS.pdb
     RDKit          3D

 24 23  0  0  1  0  0  0  0  0999 V2000
   16.3243  -10.8813  -16.9393 C   0  0  0  0  0  0  0  0  0  0  0  0
   17.6816  -11.2341  -17.4617 C   0  0  0  0  0  0  0  0  0  0  0  0
   18.8009  -10.4312  -16.9252 C   0  0  2  0  0  0  0  0  0  0  0  0
   18.5014   -8.9648  -17.1840 C   0  0  0  0  0  0  0  0  0  0  0  0
   20.1569  -10.8339  -17.3765 C   0  0  2  0  0  0  0  0  0  0  0  0
   20.4189  -12.2141  -16.9600 N   0  0  0  0  0  0  0  0  0  0  0  0
   21.2424   -9.9975  -16.8757 C   0  0  0  0  0  0  0  0  0  0  0  0
   21.6012  -10.0825  -15.6774 O   0  0  0  0  0  0  0  0  0  0  0  0
   25.8489   -8.2018  -20.1683 N   0  0  0  0  0  0  0  0  0  0  0  0
   26.1186   -7.2927  -19.1112 C   0  0  0  0  0  0  0  0  0  0  0  0
   27.1669   -6.6114  -19.1735 O   0  0  0  0  0  0  0  0  0  0  0  0
   25.1637   -7.1555  -17.9464 C   0  0  0  0  0  0  0  0  0  0  0  0
   24.0329   -8.0720  -18.2198 C   0  0  0  0  0  0  0  0  0  0  0  0
   22.9738   -8.1906  -17.1746 C   0  0  2  0  0  0  0  0  0  0  0  0
   21.9136   -9.0787  -17.7141 N   0  0  0  0  0  0  0  0  0  0  0  0
   22.3890   -6.9388  -16.6972 C   0  0  0  0  0  0  0  0  0  0  0  0
   21.5109   -6.3240  -17.4112 O   0  0  0  0  0  0  0  0  0  0  0  0
   21.2243   -5.9316  -13.0974 O   0  0  0  0  0  0  0  0  0  0  0  0
   22.0297   -4.8940  -13.5801 C   0  0  0  0  0  0  0  0  0  0  0  0
   22.0747   -5.0464  -15.0882 C   0  0  2  0  0  0  0  0  0  0  0  0
   22.6949   -6.2999  -15.4736 N   0  0  0  0  0  0  0  0  0  0  0  0
   22.8952   -3.9254  -15.5974 C   0  0  0  0  0  0  0  0  0  0  0  0
   24.0621   -4.1241  -16.3120 O   0  0  0  0  0  0  0  0  0  0  0  0
   22.5431   -2.7331  -15.3876 O   0  0  0  0  0  0  0  0  0  0  0  0
  1  2  1  0
  3  2  1  0
  3  4  1  6
  5  3  1  0
  5  6  1  1
  7  5  1  0
  7  8  2  0
  9 10  1  0
 10 12  1  0
 11 10  2  0
 12 13  1  0
 14 15  1  0
 14 13  1  6
 15  7  1  0
 16 14  1  0
 17 16  2  0
 18 19  1  0
 20 19  1  1
 20 21  1  0
 21 16  1  0
 22 23  1  0
 22 20  1  0
 24 22  2  0
M  END
$$$$
