SSS.pdb
     RDKit          3D

 19 18  0  0  1  0  0  0  0  0999 V2000
   14.0693  -17.6321   16.3443 O   0  0  0  0  0  0  0  0  0  0  0  0
   13.5467  -17.1181   15.1592 C   0  0  0  0  0  0  0  0  0  0  0  0
   13.5682  -15.6123   15.1969 C   0  0  2  0  0  0  0  0  0  0  0  0
   14.7637  -15.0913   14.6059 N   0  0  0  0  0  0  0  0  0  0  0  0
   13.4798  -15.0873   16.5850 C   0  0  0  0  0  0  0  0  0  0  0  0
   14.5280  -14.7207   17.1377 O   0  0  0  0  0  0  0  0  0  0  0  0
    9.9266  -15.2699   19.0660 O   0  0  0  0  0  0  0  0  0  0  0  0
   10.7146  -14.1212   19.0229 C   0  0  0  0  0  0  0  0  0  0  0  0
   12.1188  -14.4827   18.6277 C   0  0  2  0  0  0  0  0  0  0  0  0
   12.2564  -14.9865   17.3041 N   0  0  0  0  0  0  0  0  0  0  0  0
   12.7955  -15.3275   19.6471 C   0  0  0  0  0  0  0  0  0  0  0  0
   12.9291  -16.5648   19.4608 O   0  0  0  0  0  0  0  0  0  0  0  0
   15.9261  -15.7545   23.2334 O   0  0  0  0  0  0  0  0  0  0  0  0
   15.2733  -14.9351   22.3170 C   0  0  0  0  0  0  0  0  0  0  0  0
   14.0347  -15.6415   21.8122 C   0  0  2  0  0  0  0  0  0  0  0  0
   13.3192  -14.7987   20.8643 N   0  0  0  0  0  0  0  0  0  0  0  0
   13.1351  -16.0107   22.9399 C   0  0  0  0  0  0  0  0  0  0  0  0
   13.5212  -17.0256   23.8167 O   0  0  0  0  0  0  0  0  0  0  0  0
   12.0374  -15.4452   23.1379 O   0  0  0  0  0  0  0  0  0  0  0  0
  2  3  1  0
  2  1  1  0
  3  4  1  1
  5  6  2  0
  5  3  1  0
  7  8  1  0
  9  8  1  1
  9 10  1  0
 10  5  1  0
 11 12  2  0
 11  9  1  0
 13 14  1  0
 15 16  1  0
 15 14  1  1
 16 11  1  0
 17 15  1  0
 18 17  1  0
 19 17  2  0
M  END
$$$$
