SSS.pdb
     RDKit          3D

 19 18  0  0  1  0  0  0  0  0999 V2000
   11.0300  -20.0350   18.4460 O   0  0  0  0  0  0  0  0  0  0  0  0
   10.2064  -19.1110   17.8058 C   0  0  0  0  0  0  0  0  0  0  0  0
   10.8490  -17.7487   17.8235 C   0  0  2  0  0  0  0  0  0  0  0  0
   12.0256  -17.7148   17.0084 N   0  0  0  0  0  0  0  0  0  0  0  0
   11.2341  -17.3308   19.1973 C   0  0  0  0  0  0  0  0  0  0  0  0
   12.4351  -17.3727   19.5044 O   0  0  0  0  0  0  0  0  0  0  0  0
    9.9013  -15.6335   23.5843 O   0  0  0  0  0  0  0  0  0  0  0  0
    9.4802  -15.9237   22.2879 C   0  0  0  0  0  0  0  0  0  0  0  0
   10.5974  -16.5787   21.5252 C   0  0  2  0  0  0  0  0  0  0  0  0
   10.2947  -16.8879   20.1696 N   0  0  0  0  0  0  0  0  0  0  0  0
   11.1959  -17.7211   22.2650 C   0  0  0  0  0  0  0  0  0  0  0  0
   10.6621  -18.8597   22.2171 O   0  0  0  0  0  0  0  0  0  0  0  0
   14.8628  -20.0554   24.1058 O   0  0  0  0  0  0  0  0  0  0  0  0
   14.3632  -18.9764   23.3823 C   0  0  0  0  0  0  0  0  0  0  0  0
   12.9261  -18.7302   23.7849 C   0  0  2  0  0  0  0  0  0  0  0  0
   12.3795  -17.5968   23.0518 N   0  0  0  0  0  0  0  0  0  0  0  0
   12.8179  -18.4847   25.2496 C   0  0  0  0  0  0  0  0  0  0  0  0
   12.3425  -17.2529   25.7020 O   0  0  0  0  0  0  0  0  0  0  0  0
   13.1377  -19.3430   26.1011 O   0  0  0  0  0  0  0  0  0  0  0  0
  2  3  1  0
  2  1  1  0
  3  4  1  6
  5  6  2  0
  5  3  1  0
  7  8  1  0
  9  8  1  1
  9 10  1  0
 10  5  1  0
 11 12  2  0
 11  9  1  0
 13 14  1  0
 15 16  1  0
 15 14  1  6
 16 11  1  0
 17 15  1  0
 18 17  1  0
 19 17  2  0
M  END
$$$$
