SSS.pdb
     RDKit          3D

 19 18  0  0  1  0  0  0  0  0999 V2000
    0.3176  -21.6762   23.9920 O   0  0  0  0  0  0  0  0  0  0  0  0
    1.5878  -22.1855   23.7291 C   0  0  0  0  0  0  0  0  0  0  0  0
    1.4840  -23.6143   23.2635 C   0  0  2  0  0  0  0  0  0  0  0  0
    0.4738  -23.7653   22.2601 N   0  0  0  0  0  0  0  0  0  0  0  0
    1.1611  -24.5429   24.3787 C   0  0  0  0  0  0  0  0  0  0  0  0
   -0.0179  -24.9035   24.5145 O   0  0  0  0  0  0  0  0  0  0  0  0
    3.9327  -25.5606   27.4851 O   0  0  0  0  0  0  0  0  0  0  0  0
    3.1065  -26.5575   26.9695 C   0  0  0  0  0  0  0  0  0  0  0  0
    1.8804  -25.9372   26.3608 C   0  0  2  0  0  0  0  0  0  0  0  0
    2.1357  -25.0339   25.2914 N   0  0  0  0  0  0  0  0  0  0  0  0
    0.9569  -25.3824   27.3856 C   0  0  0  0  0  0  0  0  0  0  0  0
    0.9283  -24.1451   27.6131 O   0  0  0  0  0  0  0  0  0  0  0  0
   -3.0453  -25.5741   29.9409 O   0  0  0  0  0  0  0  0  0  0  0  0
   -2.2012  -26.2084   29.0341 C   0  0  0  0  0  0  0  0  0  0  0  0
   -0.8108  -25.6255   29.1570 C   0  0  2  0  0  0  0  0  0  0  0  0
    0.0721  -26.1991   28.1510 N   0  0  0  0  0  0  0  0  0  0  0  0
   -0.2514  -25.8645   30.5162 C   0  0  0  0  0  0  0  0  0  0  0  0
   -0.6613  -25.0531   31.5753 O   0  0  0  0  0  0  0  0  0  0  0  0
    0.5783  -26.7698   30.7528 O   0  0  0  0  0  0  0  0  0  0  0  0
  2  3  1  0
  2  1  1  0
  3  4  1  6
  5  6  2  0
  5  3  1  0
  7  8  1  0
  9  8  1  1
  9 10  1  0
 10  5  1  0
 11 12  2  0
 11  9  1  0
 13 14  1  0
 15 16  1  0
 15 14  1  1
 16 11  1  0
 17 15  1  0
 18 17  1  0
 19 17  2  0
M  END
$$$$
