SSS.pdb
     RDKit          3D

 19 18  0  0  1  0  0  0  0  0999 V2000
   17.3203  -14.8019   18.0381 O   0  0  0  0  0  0  0  0  0  0  0  0
   16.1985  -15.2236   18.7494 C   0  0  0  0  0  0  0  0  0  0  0  0
   14.9673  -15.1003   17.8903 C   0  0  2  0  0  0  0  0  0  0  0  0
   14.9905  -13.8986   17.1122 N   0  0  0  0  0  0  0  0  0  0  0  0
   13.7201  -15.0952   18.6995 C   0  0  0  0  0  0  0  0  0  0  0  0
   13.4246  -14.0561   19.3089 O   0  0  0  0  0  0  0  0  0  0  0  0
   11.2097  -18.5950   19.3764 O   0  0  0  0  0  0  0  0  0  0  0  0
   10.6817  -17.3187   19.1906 C   0  0  0  0  0  0  0  0  0  0  0  0
   11.6872  -16.2858   19.6160 C   0  0  2  0  0  0  0  0  0  0  0  0
   12.8554  -16.2199   18.8063 N   0  0  0  0  0  0  0  0  0  0  0  0
   11.9881  -16.3522   21.0706 C   0  0  0  0  0  0  0  0  0  0  0  0
   13.1157  -16.7429   21.4698 O   0  0  0  0  0  0  0  0  0  0  0  0
   10.6092  -15.5481   25.6704 O   0  0  0  0  0  0  0  0  0  0  0  0
   10.2653  -15.4609   24.3245 C   0  0  0  0  0  0  0  0  0  0  0  0
   11.3541  -16.0989   23.4905 C   0  0  2  0  0  0  0  0  0  0  0  0
   11.0407  -15.9865   22.0728 N   0  0  0  0  0  0  0  0  0  0  0  0
   11.5351  -17.5309   23.8564 C   0  0  0  0  0  0  0  0  0  0  0  0
   12.4804  -17.8737   24.8243 O   0  0  0  0  0  0  0  0  0  0  0  0
   10.8703  -18.4495   23.3289 O   0  0  0  0  0  0  0  0  0  0  0  0
  2  3  1  0
  2  1  1  0
  3  4  1  1
  5  6  2  0
  5  3  1  0
  7  8  1  0
  9  8  1  6
  9 10  1  0
 10  5  1  0
 11 12  2  0
 11  9  1  0
 13 14  1  0
 15 16  1  0
 15 14  1  1
 16 11  1  0
 17 15  1  0
 18 17  1  0
 19 17  2  0
M  END
$$$$
