SSS.pdb
     RDKit          3D

 19 18  0  0  1  0  0  0  0  0999 V2000
   10.2095  -17.8486   15.0775 O   0  0  0  0  0  0  0  0  0  0  0  0
    8.9189  -17.3793   14.8407 C   0  0  0  0  0  0  0  0  0  0  0  0
    8.9483  -15.8942   14.5904 C   0  0  2  0  0  0  0  0  0  0  0  0
    9.4724  -15.5928   13.2925 N   0  0  0  0  0  0  0  0  0  0  0  0
    9.7761  -15.1751   15.5943 C   0  0  0  0  0  0  0  0  0  0  0  0
   10.9457  -14.8939   15.2921 O   0  0  0  0  0  0  0  0  0  0  0  0
    8.4878  -14.4195   19.6348 O   0  0  0  0  0  0  0  0  0  0  0  0
    9.2255  -13.4579   18.9469 C   0  0  0  0  0  0  0  0  0  0  0  0
   10.0461  -14.1179   17.8746 C   0  0  2  0  0  0  0  0  0  0  0  0
    9.2916  -14.7969   16.8774 N   0  0  0  0  0  0  0  0  0  0  0  0
   11.1514  -14.9414   18.4321 C   0  0  0  0  0  0  0  0  0  0  0  0
   11.0280  -16.1900   18.5289 O   0  0  0  0  0  0  0  0  0  0  0  0
   15.0925  -14.4852   17.9942 O   0  0  0  0  0  0  0  0  0  0  0  0
   14.7712  -14.5562   19.3466 C   0  0  0  0  0  0  0  0  0  0  0  0
   13.4119  -15.2013   19.5019 C   0  0  2  0  0  0  0  0  0  0  0  0
   12.3844  -14.3791   18.8783 N   0  0  0  0  0  0  0  0  0  0  0  0
   13.0851  -15.4157   20.9388 C   0  0  0  0  0  0  0  0  0  0  0  0
   13.8854  -16.2681   21.7009 O   0  0  0  0  0  0  0  0  0  0  0  0
   12.1147  -14.8596   21.4984 O   0  0  0  0  0  0  0  0  0  0  0  0
  2  3  1  0
  2  1  1  0
  3  4  1  6
  5  6  2  0
  5  3  1  0
  7  8  1  0
  9  8  1  1
  9 10  1  0
 10  5  1  0
 11 12  2  0
 11  9  1  0
 13 14  1  0
 15 16  1  0
 15 14  1  1
 16 11  1  0
 17 15  1  0
 18 17  1  0
 19 17  2  0
M  END
$$$$
