SSS.pdb
     RDKit          3D

 19 18  0  0  1  0  0  0  0  0999 V2000
   13.1486  -17.7551   15.0393 O   0  0  0  0  0  0  0  0  0  0  0  0
   12.5022  -17.3167   16.1934 C   0  0  0  0  0  0  0  0  0  0  0  0
   11.0344  -17.6469   16.1190 C   0  0  2  0  0  0  0  0  0  0  0  0
   10.3892  -16.9272   15.0626 N   0  0  0  0  0  0  0  0  0  0  0  0
   10.3255  -17.3285   17.3865 C   0  0  0  0  0  0  0  0  0  0  0  0
    9.5822  -16.3358   17.4054 O   0  0  0  0  0  0  0  0  0  0  0  0
   10.0967  -20.0233   20.7770 O   0  0  0  0  0  0  0  0  0  0  0  0
    9.0977  -19.1569   20.3371 C   0  0  0  0  0  0  0  0  0  0  0  0
    9.7186  -17.9112   19.7703 C   0  0  2  0  0  0  0  0  0  0  0  0
   10.4595  -18.1051   18.5710 N   0  0  0  0  0  0  0  0  0  0  0  0
   10.4609  -17.1303   20.7950 C   0  0  0  0  0  0  0  0  0  0  0  0
   11.7168  -17.0633   20.7573 O   0  0  0  0  0  0  0  0  0  0  0  0
    8.5294  -15.4041   24.0317 O   0  0  0  0  0  0  0  0  0  0  0  0
    9.6728  -14.7361   23.6031 C   0  0  0  0  0  0  0  0  0  0  0  0
   10.5681  -15.7060   22.8643 C   0  0  2  0  0  0  0  0  0  0  0  0
    9.8095  -16.4296   21.8536 N   0  0  0  0  0  0  0  0  0  0  0  0
   11.2022  -16.6691   23.8065 C   0  0  0  0  0  0  0  0  0  0  0  0
   12.1588  -16.2084   24.7123 O   0  0  0  0  0  0  0  0  0  0  0  0
   10.9120  -17.8855   23.8219 O   0  0  0  0  0  0  0  0  0  0  0  0
  2  3  1  0
  2  1  1  0
  3  4  1  6
  5  6  2  0
  5  3  1  0
  7  8  1  0
  9  8  1  1
  9 10  1  0
 10  5  1  0
 11 12  2  0
 11  9  1  0
 13 14  1  0
 15 16  1  0
 15 14  1  1
 16 11  1  0
 17 15  1  0
 18 17  1  0
 19 17  2  0
M  END
$$$$
