QHD.pdb
     RDKit          3D

 28 28  0  0  1  0  0  0  0  0999 V2000
   11.1806  -15.5482   12.5319 N   0  0  0  0  0  0  0  0  0  0  0  0
   10.0192  -16.2229   12.9892 C   0  0  0  0  0  0  0  0  0  0  0  0
    9.2354  -16.6857   12.1405 O   0  0  0  0  0  0  0  0  0  0  0  0
    9.7615  -16.3652   14.4155 C   0  0  0  0  0  0  0  0  0  0  0  0
   10.7547  -15.8183   15.3569 C   0  0  0  0  0  0  0  0  0  0  0  0
   11.1898  -16.6558   16.4958 C   0  0  2  0  0  0  0  0  0  0  0  0
   10.4332  -17.8273   16.7707 N   0  0  0  0  0  0  0  0  0  0  0  0
   11.4833  -15.8535   17.7289 C   0  0  0  0  0  0  0  0  0  0  0  0
   12.4853  -15.1025   17.7098 O   0  0  0  0  0  0  0  0  0  0  0  0
   10.6955  -15.9067   18.8851 N   0  0  0  0  0  0  0  0  0  0  0  0
   10.9188  -15.1908   20.1068 C   0  0  1  0  0  0  0  0  0  0  0  0
    9.6199  -14.9949   20.8431 C   0  0  0  0  0  0  0  0  0  0  0  0
    8.7518  -13.9789   20.1957 C   0  0  0  0  0  0  0  0  0  0  0  0
    9.0970  -13.1483   19.1549 C   0  0  0  0  0  0  0  0  0  0  0  0
    8.0602  -12.3745   18.8457 N   0  0  0  0  0  0  0  0  0  0  0  0
    7.0646  -12.7102   19.6823 C   0  0  0  0  0  0  0  0  0  0  0  0
    7.4778  -13.6862   20.5072 N   0  0  0  0  0  0  0  0  0  0  0  0
   11.9327  -15.8724   20.9593 C   0  0  0  0  0  0  0  0  0  0  0  0
   11.9132  -17.1238   20.9790 O   0  0  0  0  0  0  0  0  0  0  0  0
   12.8861  -15.1601   21.7235 N   0  0  0  0  0  0  0  0  0  0  0  0
   14.0535  -15.7863   22.2768 C   0  0  1  0  0  0  0  0  0  0  0  0
   15.2295  -14.8707   22.3806 C   0  0  0  0  0  0  0  0  0  0  0  0
   16.4335  -15.5038   22.9189 C   0  0  0  0  0  0  0  0  0  0  0  0
   16.4918  -15.8572   24.1161 O   0  0  0  0  0  0  0  0  0  0  0  0
   13.7664  -16.4320   23.5936 C   0  0  0  0  0  0  0  0  0  0  0  0
   12.5243  -16.2597   24.1817 O   0  0  0  0  0  0  0  0  0  0  0  0
   17.5291  -15.7220   22.1086 O   0  0  0  0  0  0  0  0  0  0  0  0
   14.6072  -17.1372   24.2092 O   0  0  0  0  0  0  0  0  0  0  0  0
  2  1  1  0
  2  3  2  0
  4  5  1  0
  4  2  1  0
  5  6  1  0
  6  8  1  0
  6  7  1  1
  8  9  2  0
 10 11  1  0
 10  8  1  0
 11 12  1  1
 13 12  1  0
 14 13  2  0
 15 14  1  0
 16 15  1  0
 16 17  2  0
 17 13  1  0
 18 11  1  0
 19 18  2  0
 20 18  1  0
 21 22  1  1
 21 20  1  0
 23 22  1  0
 24 23  2  0
 25 26  1  0
 25 21  1  0
 27 23  1  0
 28 25  2  0
M  END
$$$$
