QHD.pdb
     RDKit          3D

 28 28  0  0  1  0  0  0  0  0999 V2000
    7.0407  -15.0503   15.8860 N   0  0  0  0  0  0  0  0  0  0  0  0
    7.0968  -13.6370   15.9981 C   0  0  0  0  0  0  0  0  0  0  0  0
    6.7871  -12.9555   15.0039 O   0  0  0  0  0  0  0  0  0  0  0  0
    7.5059  -13.0112   17.2479 C   0  0  0  0  0  0  0  0  0  0  0  0
    7.7775  -13.8843   18.4036 C   0  0  0  0  0  0  0  0  0  0  0  0
    8.8924  -13.5352   19.3106 C   0  0  2  0  0  0  0  0  0  0  0  0
    9.5435  -12.2902   19.0951 N   0  0  0  0  0  0  0  0  0  0  0  0
    9.8575  -14.6666   19.5081 C   0  0  0  0  0  0  0  0  0  0  0  0
    9.3859  -15.8219   19.6150 O   0  0  0  0  0  0  0  0  0  0  0  0
   11.2446  -14.4896   19.5768 N   0  0  0  0  0  0  0  0  0  0  0  0
   12.2372  -15.5218   19.6412 C   0  0  1  0  0  0  0  0  0  0  0  0
   13.2604  -15.3322   18.5527 C   0  0  0  0  0  0  0  0  0  0  0  0
   12.8040  -15.8755   17.2483 C   0  0  0  0  0  0  0  0  0  0  0  0
   12.3514  -15.1501   16.1707 C   0  0  0  0  0  0  0  0  0  0  0  0
   12.0314  -15.9812   15.1827 N   0  0  0  0  0  0  0  0  0  0  0  0
   12.2784  -17.2239   15.6280 C   0  0  0  0  0  0  0  0  0  0  0  0
   12.7490  -17.1680   16.8847 N   0  0  0  0  0  0  0  0  0  0  0  0
   12.8749  -15.5802   20.9863 C   0  0  0  0  0  0  0  0  0  0  0  0
   13.3620  -14.5175   21.4334 O   0  0  0  0  0  0  0  0  0  0  0  0
   12.9411  -16.7719   21.7451 N   0  0  0  0  0  0  0  0  0  0  0  0
   13.4809  -16.8096   23.0750 C   0  0  1  0  0  0  0  0  0  0  0  0
   12.9933  -17.9667   23.8845 C   0  0  0  0  0  0  0  0  0  0  0  0
   12.5416  -17.6069   25.2286 C   0  0  0  0  0  0  0  0  0  0  0  0
   12.7525  -16.4657   25.6920 O   0  0  0  0  0  0  0  0  0  0  0  0
   14.9744  -16.7579   23.0700 C   0  0  0  0  0  0  0  0  0  0  0  0
   15.6359  -16.0462   24.0570 O   0  0  0  0  0  0  0  0  0  0  0  0
   11.8721  -18.5268   26.0097 O   0  0  0  0  0  0  0  0  0  0  0  0
   15.6775  -17.3365   22.2016 O   0  0  0  0  0  0  0  0  0  0  0  0
  2  1  1  0
  2  3  2  0
  4  5  1  0
  4  2  1  0
  5  6  1  0
  6  8  1  0
  6  7  1  6
  8  9  2  0
 10 11  1  0
 10  8  1  0
 11 12  1  6
 13 12  1  0
 14 13  2  0
 15 14  1  0
 16 15  1  0
 16 17  2  0
 17 13  1  0
 18 11  1  0
 19 18  2  0
 20 18  1  0
 21 22  1  6
 21 20  1  0
 23 22  1  0
 24 23  2  0
 25 26  1  0
 25 21  1  0
 27 23  1  0
 28 25  2  0
M  END
$$$$
