QHD.pdb
     RDKit          3D

 28 28  0  0  1  0  0  0  0  0999 V2000
    7.9229  -14.5131   14.7685 N   0  0  0  0  0  0  0  0  0  0  0  0
    8.5852  -15.7641   14.8668 C   0  0  0  0  0  0  0  0  0  0  0  0
    9.2941  -16.1307   13.9118 O   0  0  0  0  0  0  0  0  0  0  0  0
    8.4337  -16.5881   16.0579 C   0  0  0  0  0  0  0  0  0  0  0  0
    9.6425  -16.9066   16.8385 C   0  0  0  0  0  0  0  0  0  0  0  0
    9.4994  -17.7073   18.0738 C   0  0  2  0  0  0  0  0  0  0  0  0
    8.2841  -18.4231   18.2502 N   0  0  0  0  0  0  0  0  0  0  0  0
    9.9128  -16.9563   19.3048 C   0  0  0  0  0  0  0  0  0  0  0  0
   11.0134  -16.3591   19.2801 O   0  0  0  0  0  0  0  0  0  0  0  0
    9.1316  -16.8942   20.4650 N   0  0  0  0  0  0  0  0  0  0  0  0
    9.4352  -16.1691   21.6637 C   0  0  1  0  0  0  0  0  0  0  0  0
    8.3325  -15.1929   21.9781 C   0  0  0  0  0  0  0  0  0  0  0  0
    8.1726  -14.1624   20.9209 C   0  0  0  0  0  0  0  0  0  0  0  0
    7.0181  -13.8625   20.2357 C   0  0  0  0  0  0  0  0  0  0  0  0
    7.2623  -12.8856   19.3667 N   0  0  0  0  0  0  0  0  0  0  0  0
    8.5604  -12.5671   19.4982 C   0  0  0  0  0  0  0  0  0  0  0  0
    9.1215  -13.3400   20.4424 N   0  0  0  0  0  0  0  0  0  0  0  0
    9.6921  -17.0898   22.8063 C   0  0  0  0  0  0  0  0  0  0  0  0
    8.7202  -17.7517   23.2352 O   0  0  0  0  0  0  0  0  0  0  0  0
   10.9687  -17.2279   23.3993 N   0  0  0  0  0  0  0  0  0  0  0  0
   11.2248  -18.1477   24.4716 C   0  0  1  0  0  0  0  0  0  0  0  0
   12.6505  -18.5866   24.5537 C   0  0  0  0  0  0  0  0  0  0  0  0
   13.1568  -19.2034   23.3276 C   0  0  0  0  0  0  0  0  0  0  0  0
   12.4202  -19.3417   22.3277 O   0  0  0  0  0  0  0  0  0  0  0  0
   10.7583  -17.6120   25.7864 C   0  0  0  0  0  0  0  0  0  0  0  0
   10.7709  -18.4337   26.9012 O   0  0  0  0  0  0  0  0  0  0  0  0
   14.4626  -19.6442   23.2557 O   0  0  0  0  0  0  0  0  0  0  0  0
   10.3467  -16.4328   25.9391 O   0  0  0  0  0  0  0  0  0  0  0  0
  2  1  1  0
  2  3  2  0
  4  5  1  0
  4  2  1  0
  5  6  1  0
  6  8  1  0
  6  7  1  1
  8  9  2  0
 10 11  1  0
 10  8  1  0
 11 12  1  1
 13 12  1  0
 14 13  2  0
 15 14  1  0
 16 15  1  0
 16 17  2  0
 17 13  1  0
 18 11  1  0
 19 18  2  0
 20 18  1  0
 21 22  1  1
 21 20  1  0
 23 22  1  0
 24 23  2  0
 25 26  1  0
 25 21  1  0
 27 23  1  0
 28 25  2  0
M  END
$$$$
