QHD.pdb
     RDKit          3D

 28 28  0  0  1  0  0  0  0  0999 V2000
   10.0722  -16.5838   13.3237 N   0  0  0  0  0  0  0  0  0  0  0  0
    8.9567  -17.3889   13.6711 C   0  0  0  0  0  0  0  0  0  0  0  0
    8.3422  -17.9682   12.7569 O   0  0  0  0  0  0  0  0  0  0  0  0
    8.5513  -17.5277   15.0629 C   0  0  0  0  0  0  0  0  0  0  0  0
    9.3698  -16.8632   16.0925 C   0  0  0  0  0  0  0  0  0  0  0  0
   10.0009  -17.6924   17.1422 C   0  0  2  0  0  0  0  0  0  0  0  0
    9.3207  -18.8771   17.5345 N   0  0  0  0  0  0  0  0  0  0  0  0
   10.4787  -16.8846   18.3125 C   0  0  0  0  0  0  0  0  0  0  0  0
   11.5564  -16.2591   18.1868 O   0  0  0  0  0  0  0  0  0  0  0  0
    9.7810  -16.8003   19.5234 N   0  0  0  0  0  0  0  0  0  0  0  0
   10.1869  -16.0845   20.6972 C   0  0  1  0  0  0  0  0  0  0  0  0
    9.0030  -15.4003   21.3281 C   0  0  0  0  0  0  0  0  0  0  0  0
    8.5735  -14.1997   20.5672 C   0  0  0  0  0  0  0  0  0  0  0  0
    9.1762  -13.6810   19.4447 C   0  0  0  0  0  0  0  0  0  0  0  0
    8.5095  -12.6016   19.0451 N   0  0  0  0  0  0  0  0  0  0  0  0
    7.4919  -12.4355   19.9058 C   0  0  0  0  0  0  0  0  0  0  0  0
    7.5240  -13.4043   20.8353 N   0  0  0  0  0  0  0  0  0  0  0  0
   10.8820  -16.9776   21.6660 C   0  0  0  0  0  0  0  0  0  0  0  0
   10.4277  -18.1360   21.8013 O   0  0  0  0  0  0  0  0  0  0  0  0
   12.0075  -16.5592   22.4133 N   0  0  0  0  0  0  0  0  0  0  0  0
   12.7148  -17.4400   23.2994 C   0  0  1  0  0  0  0  0  0  0  0  0
   14.1832  -17.5036   23.0311 C   0  0  0  0  0  0  0  0  0  0  0  0
   14.8311  -16.1950   22.9423 C   0  0  0  0  0  0  0  0  0  0  0  0
   15.0693  -15.5262   23.9707 O   0  0  0  0  0  0  0  0  0  0  0  0
   12.4515  -17.1139   24.7339 C   0  0  0  0  0  0  0  0  0  0  0  0
   12.9204  -17.9618   25.7236 O   0  0  0  0  0  0  0  0  0  0  0  0
   15.1912  -15.6762   21.7153 O   0  0  0  0  0  0  0  0  0  0  0  0
   11.8149  -16.0918   25.0989 O   0  0  0  0  0  0  0  0  0  0  0  0
  2  1  1  0
  2  3  2  0
  4  5  1  0
  4  2  1  0
  5  6  1  0
  6  8  1  0
  6  7  1  1
  8  9  2  0
 10 11  1  0
 10  8  1  0
 11 12  1  1
 13 12  1  0
 14 13  2  0
 15 14  1  0
 16 15  1  0
 16 17  2  0
 17 13  1  0
 18 11  1  0
 19 18  2  0
 20 18  1  0
 21 22  1  1
 21 20  1  0
 23 22  1  0
 24 23  2  0
 25 26  1  0
 25 21  1  0
 27 23  1  0
 28 25  2  0
M  END
$$$$
