QHD.pdb
     RDKit          3D

 28 28  0  0  1  0  0  0  0  0999 V2000
    9.0103  -14.9118   14.3405 N   0  0  0  0  0  0  0  0  0  0  0  0
    7.7759  -14.2266   14.4820 C   0  0  0  0  0  0  0  0  0  0  0  0
    6.9340  -14.3379   13.5722 O   0  0  0  0  0  0  0  0  0  0  0  0
    7.5113  -13.4187   15.6643 C   0  0  0  0  0  0  0  0  0  0  0  0
    8.4979  -13.4481   16.7586 C   0  0  0  0  0  0  0  0  0  0  0  0
    8.6258  -14.6806   17.5663 C   0  0  2  0  0  0  0  0  0  0  0  0
    7.7218  -15.7411   17.2860 N   0  0  0  0  0  0  0  0  0  0  0  0
    8.7548  -14.4028   19.0348 C   0  0  0  0  0  0  0  0  0  0  0  0
    9.6067  -13.5583   19.3947 O   0  0  0  0  0  0  0  0  0  0  0  0
    7.9740  -15.0380   20.0080 N   0  0  0  0  0  0  0  0  0  0  0  0
    8.1920  -15.0224   21.4247 C   0  0  1  0  0  0  0  0  0  0  0  0
    6.8883  -14.8268   22.1525 C   0  0  0  0  0  0  0  0  0  0  0  0
    7.0538  -14.8672   23.6276 C   0  0  0  0  0  0  0  0  0  0  0  0
    7.5046  -13.8455   24.4307 C   0  0  0  0  0  0  0  0  0  0  0  0
    7.5189  -14.2533   25.6967 N   0  0  0  0  0  0  0  0  0  0  0  0
    7.0812  -15.5230   25.6986 C   0  0  0  0  0  0  0  0  0  0  0  0
    6.7959  -15.9041   24.4427 N   0  0  0  0  0  0  0  0  0  0  0  0
    8.8928  -16.2553   21.8809 C   0  0  0  0  0  0  0  0  0  0  0  0
    8.9748  -17.2003   21.0642 O   0  0  0  0  0  0  0  0  0  0  0  0
    9.4492  -16.3788   23.1753 N   0  0  0  0  0  0  0  0  0  0  0  0
   10.7606  -16.9174   23.4022 C   0  0  1  0  0  0  0  0  0  0  0  0
   11.8333  -16.2225   22.6286 C   0  0  0  0  0  0  0  0  0  0  0  0
   13.1840  -16.7063   22.9141 C   0  0  0  0  0  0  0  0  0  0  0  0
   13.3895  -17.9066   23.1945 O   0  0  0  0  0  0  0  0  0  0  0  0
   11.0993  -16.9609   24.8571 C   0  0  0  0  0  0  0  0  0  0  0  0
   11.9088  -17.9760   25.3392 O   0  0  0  0  0  0  0  0  0  0  0  0
   14.2579  -15.8402   22.8779 O   0  0  0  0  0  0  0  0  0  0  0  0
   10.6815  -16.1094   25.6839 O   0  0  0  0  0  0  0  0  0  0  0  0
  2  1  1  0
  2  3  2  0
  4  5  1  0
  4  2  1  0
  5  6  1  0
  6  8  1  0
  6  7  1  1
  8  9  2  0
 10 11  1  0
 10  8  1  0
 11 12  1  1
 13 12  1  0
 14 13  2  0
 15 14  1  0
 16 15  1  0
 16 17  2  0
 17 13  1  0
 18 11  1  0
 19 18  2  0
 20 18  1  0
 21 22  1  6
 21 20  1  0
 23 22  1  0
 24 23  2  0
 25 26  1  0
 25 21  1  0
 27 23  1  0
 28 25  2  0
M  END
$$$$
