QHD.pdb
     RDKit          3D

 28 28  0  0  1  0  0  0  0  0999 V2000
   15.4990  -12.7800   18.0624 N   0  0  0  0  0  0  0  0  0  0  0  0
   14.6855  -13.4651   17.1232 C   0  0  0  0  0  0  0  0  0  0  0  0
   14.9598  -13.3517   15.9146 O   0  0  0  0  0  0  0  0  0  0  0  0
   13.5632  -14.2771   17.5723 C   0  0  0  0  0  0  0  0  0  0  0  0
   13.7630  -15.1476   18.7445 C   0  0  0  0  0  0  0  0  0  0  0  0
   12.6477  -16.0141   19.1837 C   0  0  2  0  0  0  0  0  0  0  0  0
   11.8915  -16.6670   18.1726 N   0  0  0  0  0  0  0  0  0  0  0  0
   11.7840  -15.3669   20.2256 C   0  0  0  0  0  0  0  0  0  0  0  0
   11.5875  -14.1334   20.1344 O   0  0  0  0  0  0  0  0  0  0  0  0
   11.1952  -16.0728   21.2816 N   0  0  0  0  0  0  0  0  0  0  0  0
    9.8890  -15.8581   21.8319 C   0  0  1  0  0  0  0  0  0  0  0  0
    8.8528  -15.8695   20.7393 C   0  0  0  0  0  0  0  0  0  0  0  0
    8.7346  -14.5546   20.0597 C   0  0  0  0  0  0  0  0  0  0  0  0
    9.5042  -13.4385   20.2931 C   0  0  0  0  0  0  0  0  0  0  0  0
    9.1042  -12.4523   19.4952 N   0  0  0  0  0  0  0  0  0  0  0  0
    8.0893  -12.9369   18.7610 C   0  0  0  0  0  0  0  0  0  0  0  0
    7.8583  -14.2161   19.0988 N   0  0  0  0  0  0  0  0  0  0  0  0
    9.5750  -16.8553   22.8931 C   0  0  0  0  0  0  0  0  0  0  0  0
    8.5680  -16.6350   23.6030 O   0  0  0  0  0  0  0  0  0  0  0  0
   10.3646  -18.0085   23.1104 N   0  0  0  0  0  0  0  0  0  0  0  0
   10.7357  -18.4518   24.4246 C   0  0  1  0  0  0  0  0  0  0  0  0
   11.4930  -17.4294   25.2077 C   0  0  0  0  0  0  0  0  0  0  0  0
   12.6519  -17.9635   25.9232 C   0  0  0  0  0  0  0  0  0  0  0  0
   13.5471  -18.5900   25.3169 O   0  0  0  0  0  0  0  0  0  0  0  0
    9.5562  -18.9455   25.1981 C   0  0  0  0  0  0  0  0  0  0  0  0
    9.6915  -20.0567   26.0136 O   0  0  0  0  0  0  0  0  0  0  0  0
   12.7752  -17.7826   27.2858 O   0  0  0  0  0  0  0  0  0  0  0  0
    8.4252  -18.3964   25.1483 O   0  0  0  0  0  0  0  0  0  0  0  0
  2  1  1  0
  2  3  2  0
  4  5  1  0
  4  2  1  0
  5  6  1  0
  6  8  1  0
  6  7  1  6
  8  9  2  0
 10 11  1  0
 10  8  1  0
 11 12  1  6
 13 12  1  0
 14 13  2  0
 15 14  1  0
 16 15  1  0
 16 17  2  0
 17 13  1  0
 18 11  1  0
 19 18  2  0
 20 18  1  0
 21 22  1  1
 21 20  1  0
 23 22  1  0
 24 23  2  0
 25 26  1  0
 25 21  1  0
 27 23  1  0
 28 25  2  0
M  END
$$$$
