QRM.pdb
     RDKit          3D

 29 28  0  0  1  0  0  0  0  0999 V2000
    7.1596  -20.2877   25.9949 N   0  0  0  0  0  0  0  0  0  0  0  0
    6.5746  -21.4066   25.3101 C   0  0  0  0  0  0  0  0  0  0  0  0
    5.4774  -21.9270   25.6867 O   0  0  0  0  0  0  0  0  0  0  0  0
    7.2554  -22.0768   24.2029 C   0  0  0  0  0  0  0  0  0  0  0  0
    8.5273  -21.3022   23.8206 C   0  0  0  0  0  0  0  0  0  0  0  0
    8.2326  -20.7608   22.4995 C   0  0  2  0  0  0  0  0  0  0  0  0
    9.3202  -21.3021   21.5876 N   0  0  0  0  0  0  0  0  0  0  0  0
    8.4244  -19.2912   22.2162 C   0  0  0  0  0  0  0  0  0  0  0  0
    9.4458  -18.7345   21.8460 O   0  0  0  0  0  0  0  0  0  0  0  0
    9.3080  -13.9147   17.6137 N   0  0  0  0  0  0  0  0  0  0  0  0
    8.4889  -13.0618   18.2967 C   0  0  0  0  0  0  0  0  0  0  0  0
    8.6835  -11.9070   18.5623 N   0  0  0  0  0  0  0  0  0  0  0  0
    7.1304  -13.4975   18.7130 N   0  0  0  0  0  0  0  0  0  0  0  0
    6.9048  -13.9689   20.1093 C   0  0  0  0  0  0  0  0  0  0  0  0
    7.6123  -15.1257   20.4179 C   0  0  0  0  0  0  0  0  0  0  0  0
    7.1849  -16.4372   20.9133 C   0  0  0  0  0  0  0  0  0  0  0  0
    7.8909  -16.9904   21.9825 C   0  0  2  0  0  0  0  0  0  0  0  0
    7.2285  -18.3217   22.4333 N   0  0  0  0  0  0  0  0  0  0  0  0
    8.4040  -16.3589   23.1323 C   0  0  0  0  0  0  0  0  0  0  0  0
    9.6910  -15.9109   23.0966 O   0  0  0  0  0  0  0  0  0  0  0  0
    8.1696  -11.1217   19.1220 C   0  0  0  0  0  0  0  0  0  0  0  0
    6.5509  -10.9281   28.3596 S   0  0  0  0  0  0  0  0  0  0  0  0
    6.1858  -12.3093   27.2586 C   0  0  0  0  0  0  0  0  0  0  0  0
    7.6512  -13.2953   26.8214 C   0  0  0  0  0  0  0  0  0  0  0  0
    7.2624  -14.2772   25.8373 C   0  0  2  0  0  0  0  0  0  0  0  0
    8.5116  -15.1684   25.2962 N   0  0  0  0  0  0  0  0  0  0  0  0
    7.8135  -15.9249   24.3527 C   0  0  0  0  0  0  0  0  0  0  0  0
    9.1343  -15.7384   26.4508 O   0  0  0  0  0  0  0  0  0  0  0  0
    9.9079  -14.9372   27.2906 O   0  0  0  0  0  0  0  0  0  0  0  0
  1  2  1  0
  2  3  2  0
  4  2  1  0
  4  5  1  0
  6  5  1  0
  6  7  1  6
  8  6  1  0
  8  9  2  0
 10 11  1  0
 11 13  1  0
 11 12  2  0
 13 14  1  0
 14 15  1  0
 16 15  1  0
 17 16  1  1
 18 17  1  0
 18  8  1  0
 19 20  2  0
 19 17  1  0
 22 23  1  0
 22 21  1  0
 23 24  1  0
 25 24  1  6
 25 26  1  0
 25 27  1  0
 26 19  1  0
 27 28  1  0
 29 27  2  0
M  END
$$$$
