QRM.pdb
     RDKit          3D

 29 28  0  0  1  0  0  0  0  0999 V2000
   15.1733  -15.2427   18.4122 N   0  0  0  0  0  0  0  0  0  0  0  0
   14.3377  -16.2156   17.7652 C   0  0  0  0  0  0  0  0  0  0  0  0
   14.4754  -16.5094   16.5359 O   0  0  0  0  0  0  0  0  0  0  0  0
   13.2152  -16.8506   18.4544 C   0  0  0  0  0  0  0  0  0  0  0  0
   12.7415  -15.9636   19.6174 C   0  0  0  0  0  0  0  0  0  0  0  0
   11.6741  -16.7346   20.2432 C   0  0  2  0  0  0  0  0  0  0  0  0
   10.6522  -16.9774   19.1459 N   0  0  0  0  0  0  0  0  0  0  0  0
   10.7576  -16.0897   21.2536 C   0  0  0  0  0  0  0  0  0  0  0  0
   11.0749  -15.5216   22.2864 O   0  0  0  0  0  0  0  0  0  0  0  0
    9.3056  -12.4847   18.5041 N   0  0  0  0  0  0  0  0  0  0  0  0
    8.5683  -13.4597   17.8955 C   0  0  0  0  0  0  0  0  0  0  0  0
    8.9080  -14.1967   17.0104 N   0  0  0  0  0  0  0  0  0  0  0  0
    7.2052  -13.7882   18.3882 N   0  0  0  0  0  0  0  0  0  0  0  0
    6.7949  -13.3615   19.7565 C   0  0  0  0  0  0  0  0  0  0  0  0
    7.7194  -13.7041   20.7373 C   0  0  0  0  0  0  0  0  0  0  0  0
    7.6258  -14.5664   21.9187 C   0  0  0  0  0  0  0  0  0  0  0  0
    8.7418  -15.3347   22.2534 C   0  0  2  0  0  0  0  0  0  0  0  0
    9.2214  -16.1519   21.0219 N   0  0  0  0  0  0  0  0  0  0  0  0
    8.9709  -16.1189   23.4009 C   0  0  0  0  0  0  0  0  0  0  0  0
    8.8431  -17.4715   23.2882 O   0  0  0  0  0  0  0  0  0  0  0  0
    8.4577  -15.0089   16.4344 C   0  0  0  0  0  0  0  0  0  0  0  0
    5.7654  -11.5899   26.7494 S   0  0  0  0  0  0  0  0  0  0  0  0
    7.3998  -12.1688   27.2462 C   0  0  0  0  0  0  0  0  0  0  0  0
    7.5859  -13.9768   27.1602 C   0  0  0  0  0  0  0  0  0  0  0  0
    8.3475  -14.3004   25.9774 C   0  0  2  0  0  0  0  0  0  0  0  0
    8.6768  -15.8884   25.8445 N   0  0  0  0  0  0  0  0  0  0  0  0
    9.4736  -15.8243   24.6996 C   0  0  0  0  0  0  0  0  0  0  0  0
    7.4194  -16.5689   25.8859 O   0  0  0  0  0  0  0  0  0  0  0  0
    7.0054  -17.1940   27.0621 O   0  0  0  0  0  0  0  0  0  0  0  0
  1  2  1  0
  2  3  2  0
  4  2  1  0
  4  5  1  0
  6  5  1  0
  6  7  1  6
  8  6  1  0
  8  9  2  0
 10 11  1  0
 11 13  1  0
 11 12  2  0
 13 14  1  0
 14 15  1  0
 16 15  1  0
 17 16  1  6
 18 17  1  0
 18  8  1  0
 19 20  2  0
 19 17  1  0
 22 23  1  0
 22 21  1  0
 23 24  1  0
 25 24  1  1
 25 26  1  0
 25 27  1  0
 26 19  1  0
 27 28  1  0
 29 27  2  0
M  END
$$$$
