QRM.pdb
     RDKit          3D

 29 28  0  0  1  0  0  0  0  0999 V2000
    8.9498  -11.6025   19.1157 N   0  0  0  0  0  0  0  0  0  0  0  0
    8.4143  -12.8317   18.6004 C   0  0  0  0  0  0  0  0  0  0  0  0
    8.9933  -13.4812   17.6734 O   0  0  0  0  0  0  0  0  0  0  0  0
    7.1216  -13.3556   19.0395 C   0  0  0  0  0  0  0  0  0  0  0  0
    7.2500  -13.9634   20.4459 C   0  0  0  0  0  0  0  0  0  0  0  0
    7.7814  -15.3003   20.2104 C   0  0  2  0  0  0  0  0  0  0  0  0
    6.5682  -16.1824   19.9701 N   0  0  0  0  0  0  0  0  0  0  0  0
    8.3999  -16.0863   21.3402 C   0  0  0  0  0  0  0  0  0  0  0  0
    7.8229  -16.7683   22.1720 O   0  0  0  0  0  0  0  0  0  0  0  0
   15.1309  -16.5981   18.4022 N   0  0  0  0  0  0  0  0  0  0  0  0
   14.1020  -17.3270   18.9264 C   0  0  0  0  0  0  0  0  0  0  0  0
   13.0969  -17.6856   18.3757 N   0  0  0  0  0  0  0  0  0  0  0  0
   14.1941  -17.8717   20.3060 N   0  0  0  0  0  0  0  0  0  0  0  0
   13.0483  -18.6397   20.8717 C   0  0  0  0  0  0  0  0  0  0  0  0
   12.0981  -17.8319   21.4870 C   0  0  0  0  0  0  0  0  0  0  0  0
   10.8876  -18.1453   22.2516 C   0  0  0  0  0  0  0  0  0  0  0  0
   10.0918  -17.0799   22.6754 C   0  0  2  0  0  0  0  0  0  0  0  0
    9.9414  -16.0343   21.5359 N   0  0  0  0  0  0  0  0  0  0  0  0
   10.1200  -16.3786   23.8966 C   0  0  0  0  0  0  0  0  0  0  0  0
   10.2584  -15.0230   23.8536 O   0  0  0  0  0  0  0  0  0  0  0  0
   12.2544  -18.3423   18.6059 C   0  0  0  0  0  0  0  0  0  0  0  0
    6.6497  -11.4928   27.3775 S   0  0  0  0  0  0  0  0  0  0  0  0
    7.0534  -12.8759   26.2925 C   0  0  0  0  0  0  0  0  0  0  0  0
    8.4774  -13.8541   26.8636 C   0  0  0  0  0  0  0  0  0  0  0  0
    8.7229  -14.9041   25.9040 C   0  0  1  0  0  0  0  0  0  0  0  0
    9.9763  -15.8594   26.3092 N   0  0  0  0  0  0  0  0  0  0  0  0
    9.8822  -16.7608   25.2470 C   0  0  0  0  0  0  0  0  0  0  0  0
    9.7759  -16.2352   27.6747 O   0  0  0  0  0  0  0  0  0  0  0  0
    9.2824  -17.5032   27.9818 O   0  0  0  0  0  0  0  0  0  0  0  0
  1  2  1  0
  2  3  2  0
  4  2  1  0
  4  5  1  0
  6  5  1  0
  6  7  1  1
  8  6  1  0
  8  9  2  0
 10 11  1  0
 11 13  1  0
 11 12  2  0
 13 14  1  0
 14 15  1  0
 16 15  1  0
 17 16  1  6
 18 17  1  0
 18  8  1  0
 19 20  2  0
 19 17  1  0
 22 23  1  0
 22 21  1  0
 23 24  1  0
 25 24  1  6
 25 26  1  0
 25 27  1  0
 26 19  1  0
 27 28  1  0
 29 27  2  0
M  END
$$$$
