QRM.pdb
     RDKit          3D

 29 28  0  0  1  0  0  0  0  0999 V2000
   18.2568  -14.7143   14.8871 N   0  0  0  0  0  0  0  0  0  0  0  0
   18.1422  -13.6800   15.8771 C   0  0  0  0  0  0  0  0  0  0  0  0
   19.1479  -13.0058   16.2650 O   0  0  0  0  0  0  0  0  0  0  0  0
   16.8833  -13.4102   16.5705 C   0  0  0  0  0  0  0  0  0  0  0  0
   16.2510  -14.7284   17.0461 C   0  0  0  0  0  0  0  0  0  0  0  0
   15.0553  -14.3113   17.7682 C   0  0  2  0  0  0  0  0  0  0  0  0
   15.4090  -12.9768   18.4018 N   0  0  0  0  0  0  0  0  0  0  0  0
   14.6262  -15.0377   19.0192 C   0  0  0  0  0  0  0  0  0  0  0  0
   15.3421  -15.5989   19.8334 O   0  0  0  0  0  0  0  0  0  0  0  0
   11.5942  -15.5077   13.5446 N   0  0  0  0  0  0  0  0  0  0  0  0
   12.2336  -16.6486   13.1521 C   0  0  0  0  0  0  0  0  0  0  0  0
   12.6542  -16.9198   12.0605 N   0  0  0  0  0  0  0  0  0  0  0  0
   12.5845  -17.6937   14.1488 N   0  0  0  0  0  0  0  0  0  0  0  0
   11.7477  -17.8539   15.3722 C   0  0  0  0  0  0  0  0  0  0  0  0
   12.4524  -17.6331   16.5506 C   0  0  0  0  0  0  0  0  0  0  0  0
   12.7248  -16.4158   17.3200 C   0  0  0  0  0  0  0  0  0  0  0  0
   12.8058  -16.5285   18.7088 C   0  0  2  0  0  0  0  0  0  0  0  0
   13.1095  -15.1434   19.3440 N   0  0  0  0  0  0  0  0  0  0  0  0
   13.4573  -17.5060   19.4860 C   0  0  0  0  0  0  0  0  0  0  0  0
   13.1861  -18.8165   19.2259 O   0  0  0  0  0  0  0  0  0  0  0  0
   13.2150  -17.7397   11.6049 C   0  0  0  0  0  0  0  0  0  0  0  0
   19.1357  -20.1256   18.5962 S   0  0  0  0  0  0  0  0  0  0  0  0
   17.4768  -20.8186   18.4506 C   0  0  0  0  0  0  0  0  0  0  0  0
   16.4077  -20.4461   19.8750 C   0  0  0  0  0  0  0  0  0  0  0  0
   15.9374  -19.0872   19.7484 C   0  0  2  0  0  0  0  0  0  0  0  0
   15.0567  -18.5946   21.0248 N   0  0  0  0  0  0  0  0  0  0  0  0
   14.5055  -17.4489   20.4473 C   0  0  0  0  0  0  0  0  0  0  0  0
   15.9479  -18.5562   22.1429 O   0  0  0  0  0  0  0  0  0  0  0  0
   16.1971  -19.7177   22.8738 O   0  0  0  0  0  0  0  0  0  0  0  0
  1  2  1  0
  2  3  2  0
  4  2  1  0
  4  5  1  0
  6  5  1  0
  6  7  1  1
  8  6  1  0
  8  9  2  0
 10 11  1  0
 11 13  1  0
 11 12  2  0
 13 14  1  0
 14 15  1  0
 16 15  1  0
 17 16  1  6
 18 17  1  0
 18  8  1  0
 19 20  2  0
 19 17  1  0
 22 23  1  0
 22 21  1  0
 23 24  1  0
 25 24  1  6
 25 26  1  0
 25 27  1  0
 26 19  1  0
 27 28  1  0
 29 27  2  0
M  END
$$$$
