QRM.pdb
     RDKit          3D

 29 28  0  0  1  0  0  0  0  0999 V2000
   14.3338  -21.8842   22.5127 N   0  0  0  0  0  0  0  0  0  0  0  0
   13.7359  -20.6494   22.9380 C   0  0  0  0  0  0  0  0  0  0  0  0
   13.5996  -20.3566   24.1677 O   0  0  0  0  0  0  0  0  0  0  0  0
   13.1573  -19.7026   21.9856 C   0  0  0  0  0  0  0  0  0  0  0  0
   11.6640  -20.0066   21.7821 C   0  0  0  0  0  0  0  0  0  0  0  0
   11.2085  -18.9657   20.8686 C   0  0  2  0  0  0  0  0  0  0  0  0
   12.4613  -18.4574   20.1760 N   0  0  0  0  0  0  0  0  0  0  0  0
   10.7064  -17.6469   21.4028 C   0  0  0  0  0  0  0  0  0  0  0  0
   11.3379  -16.6102   21.5316 O   0  0  0  0  0  0  0  0  0  0  0  0
    6.9683  -12.8652   17.1517 N   0  0  0  0  0  0  0  0  0  0  0  0
    8.1461  -13.4943   17.4373 C   0  0  0  0  0  0  0  0  0  0  0  0
    8.8384  -14.1358   16.6947 N   0  0  0  0  0  0  0  0  0  0  0  0
    8.7756  -13.3388   18.7745 N   0  0  0  0  0  0  0  0  0  0  0  0
    7.9161  -13.0978   19.9686 C   0  0  0  0  0  0  0  0  0  0  0  0
    8.1000  -14.0399   20.9749 C   0  0  0  0  0  0  0  0  0  0  0  0
    8.4380  -15.4655   20.9374 C   0  0  0  0  0  0  0  0  0  0  0  0
    9.1154  -16.0024   22.0332 C   0  0  2  0  0  0  0  0  0  0  0  0
    9.2333  -17.5451   21.8895 N   0  0  0  0  0  0  0  0  0  0  0  0
    8.9634  -15.7123   23.4031 C   0  0  0  0  0  0  0  0  0  0  0  0
    8.0394  -16.4234   24.1097 O   0  0  0  0  0  0  0  0  0  0  0  0
    9.7694  -14.7035   16.7662 C   0  0  0  0  0  0  0  0  0  0  0  0
    5.5348  -11.3851   26.9043 S   0  0  0  0  0  0  0  0  0  0  0  0
    7.2534  -11.9237   27.0026 C   0  0  0  0  0  0  0  0  0  0  0  0
    7.4549  -13.7289   26.8954 C   0  0  0  0  0  0  0  0  0  0  0  0
    8.0011  -14.0499   25.5983 C   0  0  2  0  0  0  0  0  0  0  0  0
    9.4086  -14.8622   25.6813 N   0  0  0  0  0  0  0  0  0  0  0  0
    9.6916  -14.8965   24.3143 C   0  0  0  0  0  0  0  0  0  0  0  0
    9.1549  -16.0364   26.4578 O   0  0  0  0  0  0  0  0  0  0  0  0
    8.2519  -16.9938   25.9959 O   0  0  0  0  0  0  0  0  0  0  0  0
  1  2  1  0
  2  3  2  0
  4  2  1  0
  4  5  1  0
  6  5  1  0
  6  7  1  6
  8  6  1  0
  8  9  2  0
 10 11  1  0
 11 13  1  0
 11 12  2  0
 13 14  1  0
 14 15  1  0
 16 15  1  0
 17 16  1  6
 18 17  1  0
 18  8  1  0
 19 20  2  0
 19 17  1  0
 22 23  1  0
 22 21  1  0
 23 24  1  0
 25 24  1  1
 25 26  1  0
 25 27  1  0
 26 19  1  0
 27 28  1  0
 29 27  2  0
M  END
$$$$
