LHQ.pdb
     RDKit          3D

 28 28  0  0  1  0  0  0  0  0999 V2000
    6.3470  -12.4002   19.0421 C   0  0  0  0  0  0  0  0  0  0  0  0
    7.4163  -13.2867   18.4442 C   0  0  1  0  0  0  0  0  0  0  0  0
    8.5296  -12.4139   17.9635 C   0  0  0  0  0  0  0  0  0  0  0  0
    7.8298  -14.3028   19.4664 C   0  0  0  0  0  0  0  0  0  0  0  0
    9.0183  -15.1153   18.9457 C   0  0  2  0  0  0  0  0  0  0  0  0
    8.7560  -15.6741   17.6582 N   0  0  0  0  0  0  0  0  0  0  0  0
    9.4575  -16.1090   19.9421 C   0  0  0  0  0  0  0  0  0  0  0  0
    9.7520  -15.7202   21.1017 O   0  0  0  0  0  0  0  0  0  0  0  0
    9.5589  -17.5042   19.6288 N   0  0  0  0  0  0  0  0  0  0  0  0
    9.9443  -18.4846   20.5972 C   0  0  1  0  0  0  0  0  0  0  0  0
    9.4739  -19.8679   20.2086 C   0  0  0  0  0  0  0  0  0  0  0  0
    9.8894  -20.8464   21.2455 C   0  0  0  0  0  0  0  0  0  0  0  0
    9.2098  -21.0844   22.4383 C   0  0  0  0  0  0  0  0  0  0  0  0
    9.8797  -22.0227   23.1077 N   0  0  0  0  0  0  0  0  0  0  0  0
   10.9528  -22.3975   22.4055 C   0  0  0  0  0  0  0  0  0  0  0  0
   10.9419  -21.6693   21.2732 N   0  0  0  0  0  0  0  0  0  0  0  0
   11.3827  -18.4275   20.8675 C   0  0  0  0  0  0  0  0  0  0  0  0
   12.1768  -18.4712   19.8780 O   0  0  0  0  0  0  0  0  0  0  0  0
   14.0109  -14.4029   19.9037 N   0  0  0  0  0  0  0  0  0  0  0  0
   15.0542  -14.7810   20.7666 C   0  0  0  0  0  0  0  0  0  0  0  0
   16.1210  -14.1562   20.7642 O   0  0  0  0  0  0  0  0  0  0  0  0
   14.8503  -15.9561   21.6905 C   0  0  0  0  0  0  0  0  0  0  0  0
   13.4970  -16.5677   21.4716 C   0  0  0  0  0  0  0  0  0  0  0  0
   13.3033  -17.7672   22.3235 C   0  0  2  0  0  0  0  0  0  0  0  0
   11.9579  -18.3275   22.1426 N   0  0  0  0  0  0  0  0  0  0  0  0
   13.5726  -17.5037   23.7339 C   0  0  0  0  0  0  0  0  0  0  0  0
   12.6254  -17.1507   24.6632 O   0  0  0  0  0  0  0  0  0  0  0  0
   14.7673  -17.5999   24.1519 O   0  0  0  0  0  0  0  0  0  0  0  0
  2  1  1  1
  2  3  1  0
  4  5  1  0
  4  2  1  0
  5  6  1  6
  7  8  2  0
  7  5  1  0
  9  7  1  0
 10  9  1  0
 11 12  1  0
 10 11  1  6
 12 13  2  0
 12 16  1  0
 13 14  1  0
 14 15  1  0
 16 15  2  0
 17 18  2  0
 17 10  1  0
 19 20  1  0
 20 22  1  0
 21 20  2  0
 22 23  1  0
 24 23  1  6
 24 25  1  0
 25 17  1  0
 26 24  1  0
 27 26  1  0
 28 26  2  0
M  END
$$$$
