LHQ.pdb
     RDKit          3D

 28 28  0  0  1  0  0  0  0  0999 V2000
    7.0230  -12.7065   27.6979 C   0  0  0  0  0  0  0  0  0  0  0  0
    6.5349  -13.3497   26.4193 C   0  0  1  0  0  0  0  0  0  0  0  0
    6.7466  -12.3819   25.3008 C   0  0  0  0  0  0  0  0  0  0  0  0
    7.2385  -14.6613   26.2381 C   0  0  0  0  0  0  0  0  0  0  0  0
    6.7461  -15.3474   24.9611 C   0  0  2  0  0  0  0  0  0  0  0  0
    5.5814  -16.1383   25.1987 N   0  0  0  0  0  0  0  0  0  0  0  0
    7.8381  -16.0876   24.3030 C   0  0  0  0  0  0  0  0  0  0  0  0
    8.1024  -17.2551   24.6897 O   0  0  0  0  0  0  0  0  0  0  0  0
    8.6070  -15.5166   23.2363 N   0  0  0  0  0  0  0  0  0  0  0  0
    9.7039  -16.2026   22.6251 C   0  0  1  0  0  0  0  0  0  0  0  0
   10.0268  -15.6354   21.2614 C   0  0  0  0  0  0  0  0  0  0  0  0
    9.0393  -16.1295   20.2684 C   0  0  0  0  0  0  0  0  0  0  0  0
    8.0134  -17.0317   20.5419 C   0  0  0  0  0  0  0  0  0  0  0  0
    7.3388  -17.2355   19.4103 N   0  0  0  0  0  0  0  0  0  0  0  0
    7.8795  -16.5107   18.4267 C   0  0  0  0  0  0  0  0  0  0  0  0
    8.9151  -15.8431   18.9691 N   0  0  0  0  0  0  0  0  0  0  0  0
   10.8668  -16.2436   23.5146 C   0  0  0  0  0  0  0  0  0  0  0  0
   11.0016  -15.3081   24.3621 O   0  0  0  0  0  0  0  0  0  0  0  0
    9.7337  -19.0845   27.6465 N   0  0  0  0  0  0  0  0  0  0  0  0
   11.0346  -18.7866   28.0878 C   0  0  0  0  0  0  0  0  0  0  0  0
   11.3030  -18.8097   29.2944 O   0  0  0  0  0  0  0  0  0  0  0  0
   12.0917  -18.4401   27.0687 C   0  0  0  0  0  0  0  0  0  0  0  0
   11.4567  -18.0331   25.7708 C   0  0  0  0  0  0  0  0  0  0  0  0
   12.4813  -17.6951   24.7520 C   0  0  2  0  0  0  0  0  0  0  0  0
   11.8517  -17.2418   23.5050 N   0  0  0  0  0  0  0  0  0  0  0  0
   13.4058  -18.7961   24.4986 C   0  0  0  0  0  0  0  0  0  0  0  0
   14.6544  -18.9194   25.0567 O   0  0  0  0  0  0  0  0  0  0  0  0
   13.0483  -19.7178   23.7023 O   0  0  0  0  0  0  0  0  0  0  0  0
  2  1  1  1
  2  3  1  0
  4  5  1  0
  4  2  1  0
  5  6  1  1
  7  8  2  0
  7  5  1  0
  9  7  1  0
 10  9  1  0
 11 12  1  0
 10 11  1  6
 12 13  2  0
 12 16  1  0
 13 14  1  0
 14 15  1  0
 16 15  2  0
 17 18  2  0
 17 10  1  0
 19 20  1  0
 20 22  1  0
 21 20  2  0
 22 23  1  0
 24 23  1  1
 24 25  1  0
 25 17  1  0
 26 24  1  0
 27 26  1  0
 28 26  2  0
M  END
$$$$
