LHQ.pdb
     RDKit          3D

 28 28  0  0  1  0  0  0  0  0999 V2000
    7.0627  -12.2079   19.7231 C   0  0  0  0  0  0  0  0  0  0  0  0
    8.0106  -13.3546   19.4524 C   0  0  1  0  0  0  0  0  0  0  0  0
    9.2925  -12.7870   18.9357 C   0  0  0  0  0  0  0  0  0  0  0  0
    8.1586  -14.1661   20.7045 C   0  0  0  0  0  0  0  0  0  0  0  0
    9.1966  -15.2713   20.4923 C   0  0  2  0  0  0  0  0  0  0  0  0
    8.8730  -16.0954   19.3722 N   0  0  0  0  0  0  0  0  0  0  0  0
    9.4249  -16.0290   21.7362 C   0  0  0  0  0  0  0  0  0  0  0  0
    8.4331  -16.3869   22.4224 O   0  0  0  0  0  0  0  0  0  0  0  0
   10.7425  -16.3697   22.1863 N   0  0  0  0  0  0  0  0  0  0  0  0
   10.9800  -17.0778   23.4068 C   0  0  1  0  0  0  0  0  0  0  0  0
   12.2037  -17.9606   23.3109 C   0  0  0  0  0  0  0  0  0  0  0  0
   11.9079  -19.1321   22.4476 C   0  0  0  0  0  0  0  0  0  0  0  0
   12.3542  -19.2928   21.1375 C   0  0  0  0  0  0  0  0  0  0  0  0
   11.8900  -20.4596   20.6901 N   0  0  0  0  0  0  0  0  0  0  0  0
   11.1697  -21.0541   21.6456 C   0  0  0  0  0  0  0  0  0  0  0  0
   11.1921  -20.2296   22.7097 N   0  0  0  0  0  0  0  0  0  0  0  0
   11.0254  -16.1643   24.5508 C   0  0  0  0  0  0  0  0  0  0  0  0
   11.1647  -14.9242   24.3175 O   0  0  0  0  0  0  0  0  0  0  0  0
    7.4413  -12.8099   26.2352 N   0  0  0  0  0  0  0  0  0  0  0  0
    7.7095  -13.2397   27.5464 C   0  0  0  0  0  0  0  0  0  0  0  0
    6.8905  -13.0323   28.4491 O   0  0  0  0  0  0  0  0  0  0  0  0
    9.0072  -13.9545   27.8311 C   0  0  0  0  0  0  0  0  0  0  0  0
    9.3538  -14.8831   26.7037 C   0  0  0  0  0  0  0  0  0  0  0  0
   10.6471  -15.5685   26.9480 C   0  0  2  0  0  0  0  0  0  0  0  0
   10.9263  -16.5529   25.8946 N   0  0  0  0  0  0  0  0  0  0  0  0
   10.7148  -16.1857   28.2691 C   0  0  0  0  0  0  0  0  0  0  0  0
   10.7052  -17.5380   28.5073 O   0  0  0  0  0  0  0  0  0  0  0  0
   10.7852  -15.4322   29.2882 O   0  0  0  0  0  0  0  0  0  0  0  0
  2  1  1  1
  2  3  1  0
  4  5  1  0
  4  2  1  0
  5  6  1  6
  7  8  2  0
  7  5  1  0
  9  7  1  0
 10  9  1  0
 11 12  1  0
 10 11  1  6
 12 13  2  0
 12 16  1  0
 13 14  1  0
 14 15  1  0
 16 15  2  0
 17 18  2  0
 17 10  1  0
 19 20  1  0
 20 22  1  0
 21 20  2  0
 22 23  1  0
 24 23  1  6
 24 25  1  0
 25 17  1  0
 26 24  1  0
 27 26  1  0
 28 26  2  0
M  END
$$$$
