LHQ.pdb
     RDKit          3D

 28 28  0  0  1  0  0  0  0  0999 V2000
    7.4218  -11.9673   27.9920 C   0  0  0  0  0  0  0  0  0  0  0  0
    6.4855  -12.8894   27.2438 C   0  0  1  0  0  0  0  0  0  0  0  0
    5.3346  -12.0784   26.7434 C   0  0  0  0  0  0  0  0  0  0  0  0
    7.2565  -13.5918   26.1666 C   0  0  0  0  0  0  0  0  0  0  0  0
    6.3372  -14.5509   25.4056 C   0  0  2  0  0  0  0  0  0  0  0  0
    5.8928  -15.6275   26.2313 N   0  0  0  0  0  0  0  0  0  0  0  0
    6.9601  -14.9925   24.1445 C   0  0  0  0  0  0  0  0  0  0  0  0
    7.3499  -16.1842   24.0420 O   0  0  0  0  0  0  0  0  0  0  0  0
    7.1347  -14.1047   23.0326 N   0  0  0  0  0  0  0  0  0  0  0  0
    7.7579  -14.5139   21.8112 C   0  0  1  0  0  0  0  0  0  0  0  0
    7.7652  -13.4007   20.7882 C   0  0  0  0  0  0  0  0  0  0  0  0
    8.2253  -13.9288   19.4788 C   0  0  0  0  0  0  0  0  0  0  0  0
    7.6116  -13.6749   18.2540 C   0  0  0  0  0  0  0  0  0  0  0  0
    8.3041  -14.3150   17.3117 N   0  0  0  0  0  0  0  0  0  0  0  0
    9.3292  -14.9655   17.8697 C   0  0  0  0  0  0  0  0  0  0  0  0
    9.2647  -14.7181   19.1915 N   0  0  0  0  0  0  0  0  0  0  0  0
    9.0902  -15.0714   22.0555 C   0  0  0  0  0  0  0  0  0  0  0  0
    9.8913  -14.4041   22.7798 O   0  0  0  0  0  0  0  0  0  0  0  0
   10.9277  -19.6536   24.7969 N   0  0  0  0  0  0  0  0  0  0  0  0
   12.1524  -19.4751   24.1305 C   0  0  0  0  0  0  0  0  0  0  0  0
   13.1833  -19.9943   24.5735 O   0  0  0  0  0  0  0  0  0  0  0  0
   12.1865  -18.6435   22.8722 C   0  0  0  0  0  0  0  0  0  0  0  0
   10.8188  -18.1111   22.5572 C   0  0  0  0  0  0  0  0  0  0  0  0
   10.8961  -16.7901   21.8855 C   0  0  2  0  0  0  0  0  0  0  0  0
    9.5556  -16.2934   21.5491 N   0  0  0  0  0  0  0  0  0  0  0  0
   11.7558  -16.8094   20.7058 C   0  0  0  0  0  0  0  0  0  0  0  0
   11.3438  -16.5251   19.4272 O   0  0  0  0  0  0  0  0  0  0  0  0
   12.9798  -17.1127   20.8517 O   0  0  0  0  0  0  0  0  0  0  0  0
  2  1  1  6
  2  3  1  0
  4  5  1  0
  4  2  1  0
  5  6  1  1
  7  8  2  0
  7  5  1  0
  9  7  1  0
 10  9  1  0
 11 12  1  0
 10 11  1  6
 12 13  2  0
 12 16  1  0
 13 14  1  0
 14 15  1  0
 16 15  2  0
 17 18  2  0
 17 10  1  0
 19 20  1  0
 20 22  1  0
 21 20  2  0
 22 23  1  0
 24 23  1  6
 24 25  1  0
 25 17  1  0
 26 24  1  0
 27 26  1  0
 28 26  2  0
M  END
$$$$
