LHQ.pdb
     RDKit          3D

 28 28  0  0  1  0  0  0  0  0999 V2000
    6.7312  -12.8464   18.4864 C   0  0  0  0  0  0  0  0  0  0  0  0
    8.0793  -13.4802   18.7461 C   0  0  1  0  0  0  0  0  0  0  0  0
    9.0975  -12.3901   18.8330 C   0  0  0  0  0  0  0  0  0  0  0  0
    7.9847  -14.3318   19.9767 C   0  0  0  0  0  0  0  0  0  0  0  0
    9.3843  -14.7601   20.4256 C   0  0  2  0  0  0  0  0  0  0  0  0
   10.1136  -15.3830   19.3679 N   0  0  0  0  0  0  0  0  0  0  0  0
    9.3209  -15.5702   21.6557 C   0  0  0  0  0  0  0  0  0  0  0  0
    8.3841  -15.3683   22.4707 O   0  0  0  0  0  0  0  0  0  0  0  0
   10.2945  -16.5802   21.9503 N   0  0  0  0  0  0  0  0  0  0  0  0
   10.2439  -17.3749   23.1392 C   0  0  1  0  0  0  0  0  0  0  0  0
   11.2501  -18.5027   23.0999 C   0  0  0  0  0  0  0  0  0  0  0  0
   10.7667  -19.5719   22.1898 C   0  0  0  0  0  0  0  0  0  0  0  0
    9.6844  -20.4110   22.4460 C   0  0  0  0  0  0  0  0  0  0  0  0
    9.5554  -21.2369   21.4075 N   0  0  0  0  0  0  0  0  0  0  0  0
   10.4989  -20.9700   20.4998 C   0  0  0  0  0  0  0  0  0  0  0  0
   11.2278  -19.9519   20.9945 N   0  0  0  0  0  0  0  0  0  0  0  0
   10.3665  -16.5441   24.3391 C   0  0  0  0  0  0  0  0  0  0  0  0
   11.4253  -15.8588   24.4834 O   0  0  0  0  0  0  0  0  0  0  0  0
    5.9242  -12.9810   26.0993 N   0  0  0  0  0  0  0  0  0  0  0  0
    6.8986  -12.5721   27.0263 C   0  0  0  0  0  0  0  0  0  0  0  0
    6.7223  -11.5549   27.7064 O   0  0  0  0  0  0  0  0  0  0  0  0
    8.1562  -13.3919   27.1756 C   0  0  0  0  0  0  0  0  0  0  0  0
    8.1742  -14.5129   26.1775 C   0  0  0  0  0  0  0  0  0  0  0  0
    9.4111  -15.3235   26.2993 C   0  0  2  0  0  0  0  0  0  0  0  0
    9.3997  -16.4441   25.3501 N   0  0  0  0  0  0  0  0  0  0  0  0
    9.6407  -15.7966   27.6611 C   0  0  0  0  0  0  0  0  0  0  0  0
    9.7014  -17.1162   28.0360 O   0  0  0  0  0  0  0  0  0  0  0  0
    9.7951  -14.9385   28.5838 O   0  0  0  0  0  0  0  0  0  0  0  0
  2  1  1  1
  2  3  1  0
  4  5  1  0
  4  2  1  0
  5  6  1  6
  7  8  2  0
  7  5  1  0
  9  7  1  0
 10  9  1  0
 11 12  1  0
 10 11  1  6
 12 13  2  0
 12 16  1  0
 13 14  1  0
 14 15  1  0
 16 15  2  0
 17 18  2  0
 17 10  1  0
 19 20  1  0
 20 22  1  0
 21 20  2  0
 22 23  1  0
 24 23  1  1
 24 25  1  0
 25 17  1  0
 26 24  1  0
 27 26  1  0
 28 26  2  0
M  END
$$$$
