LHQ.pdb
     RDKit          3D

 28 28  0  0  1  0  0  0  0  0999 V2000
    6.4069  -12.7803   18.9458 C   0  0  0  0  0  0  0  0  0  0  0  0
    7.8058  -13.3345   19.0964 C   0  0  1  0  0  0  0  0  0  0  0  0
    8.7619  -12.1866   19.1167 C   0  0  0  0  0  0  0  0  0  0  0  0
    7.8553  -14.1969   20.3220 C   0  0  0  0  0  0  0  0  0  0  0  0
    9.2804  -14.7109   20.5431 C   0  0  2  0  0  0  0  0  0  0  0  0
    9.8183  -15.3081   19.3631 N   0  0  0  0  0  0  0  0  0  0  0  0
    9.3507  -15.5821   21.7303 C   0  0  0  0  0  0  0  0  0  0  0  0
    8.4557  -15.4877   22.6094 O   0  0  0  0  0  0  0  0  0  0  0  0
   10.4080  -16.5328   21.9124 N   0  0  0  0  0  0  0  0  0  0  0  0
   10.5493  -17.3076   23.1071 C   0  0  1  0  0  0  0  0  0  0  0  0
   11.7688  -18.1996   23.0528 C   0  0  0  0  0  0  0  0  0  0  0  0
   11.7589  -19.1301   24.2102 C   0  0  0  0  0  0  0  0  0  0  0  0
   10.8054  -19.1322   25.2261 C   0  0  0  0  0  0  0  0  0  0  0  0
   11.1260  -20.1022   26.0826 N   0  0  0  0  0  0  0  0  0  0  0  0
   12.2352  -20.7210   25.6677 C   0  0  0  0  0  0  0  0  0  0  0  0
   12.6062  -20.1144   24.5246 N   0  0  0  0  0  0  0  0  0  0  0  0
   10.5190  -16.4566   24.2988 C   0  0  0  0  0  0  0  0  0  0  0  0
   10.9786  -15.2773   24.2003 O   0  0  0  0  0  0  0  0  0  0  0  0
    6.0551  -13.5696   25.7923 N   0  0  0  0  0  0  0  0  0  0  0  0
    7.1182  -13.0090   26.5213 C   0  0  0  0  0  0  0  0  0  0  0  0
    7.1684  -11.7881   26.7091 O   0  0  0  0  0  0  0  0  0  0  0  0
    8.1910  -13.9185   27.0673 C   0  0  0  0  0  0  0  0  0  0  0  0
    8.5806  -14.9449   26.0436 C   0  0  0  0  0  0  0  0  0  0  0  0
    9.6448  -15.8422   26.5578 C   0  0  2  0  0  0  0  0  0  0  0  0
   10.0189  -16.8434   25.5506 N   0  0  0  0  0  0  0  0  0  0  0  0
    9.2794  -16.4822   27.8179 C   0  0  0  0  0  0  0  0  0  0  0  0
    9.0661  -17.8285   27.9839 O   0  0  0  0  0  0  0  0  0  0  0  0
    9.1403  -15.7558   28.8496 O   0  0  0  0  0  0  0  0  0  0  0  0
  2  1  1  1
  2  3  1  0
  4  5  1  0
  4  2  1  0
  5  6  1  6
  7  8  2  0
  7  5  1  0
  9  7  1  0
 10  9  1  0
 11 12  1  0
 10 11  1  6
 12 13  2  0
 12 16  1  0
 13 14  1  0
 14 15  1  0
 16 15  2  0
 17 18  2  0
 17 10  1  0
 19 20  1  0
 20 22  1  0
 21 20  2  0
 22 23  1  0
 24 23  1  6
 24 25  1  0
 25 17  1  0
 26 24  1  0
 27 26  1  0
 28 26  2  0
M  END
$$$$
