LHQ.pdb
     RDKit          3D

 28 28  0  0  1  0  0  0  0  0999 V2000
    7.0879  -12.5944   20.6330 C   0  0  0  0  0  0  0  0  0  0  0  0
    7.7200  -13.1788   19.3898 C   0  0  1  0  0  0  0  0  0  0  0  0
    7.9368  -12.0699   18.4123 C   0  0  0  0  0  0  0  0  0  0  0  0
    8.9713  -13.9072   19.7798 C   0  0  0  0  0  0  0  0  0  0  0  0
    9.6278  -14.5206   18.5402 C   0  0  2  0  0  0  0  0  0  0  0  0
    8.7392  -15.3982   17.8483 N   0  0  0  0  0  0  0  0  0  0  0  0
   10.9231  -15.1382   18.8779 C   0  0  0  0  0  0  0  0  0  0  0  0
   10.9481  -16.3430   19.2391 O   0  0  0  0  0  0  0  0  0  0  0  0
   12.1540  -14.4069   18.8068 N   0  0  0  0  0  0  0  0  0  0  0  0
   13.4175  -14.9927   19.1354 C   0  0  1  0  0  0  0  0  0  0  0  0
   14.5650  -14.2300   18.5130 C   0  0  0  0  0  0  0  0  0  0  0  0
   14.8067  -14.7280   17.1350 C   0  0  0  0  0  0  0  0  0  0  0  0
   14.3740  -15.9572   16.6418 C   0  0  0  0  0  0  0  0  0  0  0  0
   14.7770  -16.0515   15.3746 N   0  0  0  0  0  0  0  0  0  0  0  0
   15.4451  -14.9466   15.0309 C   0  0  0  0  0  0  0  0  0  0  0  0
   15.4528  -14.1514   16.1173 N   0  0  0  0  0  0  0  0  0  0  0  0
   13.5646  -15.1612   20.5829 C   0  0  0  0  0  0  0  0  0  0  0  0
   13.3417  -14.1558   21.3252 O   0  0  0  0  0  0  0  0  0  0  0  0
   14.1901  -20.1066   25.7523 N   0  0  0  0  0  0  0  0  0  0  0  0
   13.2737  -19.2529   25.1141 C   0  0  0  0  0  0  0  0  0  0  0  0
   12.1043  -19.6141   24.9393 O   0  0  0  0  0  0  0  0  0  0  0  0
   13.7398  -17.8956   24.6486 C   0  0  0  0  0  0  0  0  0  0  0  0
   13.5055  -17.7368   23.1745 C   0  0  0  0  0  0  0  0  0  0  0  0
   14.0214  -16.4348   22.6838 C   0  0  2  0  0  0  0  0  0  0  0  0
   13.9350  -16.3543   21.2200 N   0  0  0  0  0  0  0  0  0  0  0  0
   15.3803  -16.1607   23.1414 C   0  0  0  0  0  0  0  0  0  0  0  0
   15.7281  -15.8510   24.4331 O   0  0  0  0  0  0  0  0  0  0  0  0
   16.3258  -16.2038   22.2955 O   0  0  0  0  0  0  0  0  0  0  0  0
  2  1  1  1
  2  3  1  0
  4  5  1  0
  4  2  1  0
  5  6  1  1
  7  8  2  0
  7  5  1  0
  9  7  1  0
 10  9  1  0
 11 12  1  0
 10 11  1  1
 12 13  2  0
 12 16  1  0
 13 14  1  0
 14 15  1  0
 16 15  2  0
 17 18  2  0
 17 10  1  0
 19 20  1  0
 20 22  1  0
 21 20  2  0
 22 23  1  0
 24 23  1  6
 24 25  1  0
 25 17  1  0
 26 24  1  0
 27 26  1  0
 28 26  2  0
M  END
$$$$
