MVH.pdb
     RDKit          3D

 26 26  0  0  1  0  0  0  0  0999 V2000
   28.5805  -19.2399   -5.8130 C   0  0  0  0  0  0  0  0  0  0  0  0
   26.9018  -19.4395   -6.3581 S   0  0  0  0  0  0  0  0  0  0  0  0
   26.5762  -20.7228   -7.5359 C   0  0  0  0  0  0  0  0  0  0  0  0
   26.6998  -20.2378   -8.9455 C   0  0  0  0  0  0  0  0  0  0  0  0
   26.4651  -21.3422   -9.9104 C   0  0  2  0  0  0  0  0  0  0  0  0
   27.6194  -22.2318   -9.8348 N   0  0  0  0  0  0  0  0  0  0  0  0
   26.3274  -20.8112  -11.3239 C   0  0  0  0  0  0  0  0  0  0  0  0
   27.3939  -20.4201  -11.8549 O   0  0  0  0  0  0  0  0  0  0  0  0
   25.3196  -22.6903  -14.3389 C   0  0  0  0  0  0  0  0  0  0  0  0
   24.3389  -21.5380  -14.1873 C   0  0  1  0  0  0  0  0  0  0  0  0
   22.9848  -21.9890  -13.7432 C   0  0  0  0  0  0  0  0  0  0  0  0
   24.9408  -20.4402  -13.3344 C   0  0  2  0  0  0  0  0  0  0  0  0
   25.0712  -20.7741  -11.9668 N   0  0  0  0  0  0  0  0  0  0  0  0
   24.2260  -19.1653  -13.5766 C   0  0  0  0  0  0  0  0  0  0  0  0
   23.2068  -18.9617  -12.8591 O   0  0  0  0  0  0  0  0  0  0  0  0
   24.5867  -18.1966  -14.5154 N   0  0  0  0  0  0  0  0  0  0  0  0
   23.8624  -16.9699  -14.7564 C   0  0  1  0  0  0  0  0  0  0  0  0
   24.7383  -15.8799  -15.3147 C   0  0  0  0  0  0  0  0  0  0  0  0
   23.9240  -14.6861  -15.6470 C   0  0  0  0  0  0  0  0  0  0  0  0
   22.5757  -14.4681  -15.3957 C   0  0  0  0  0  0  0  0  0  0  0  0
   22.2043  -13.2581  -15.8508 N   0  0  0  0  0  0  0  0  0  0  0  0
   23.2902  -12.7062  -16.3849 C   0  0  0  0  0  0  0  0  0  0  0  0
   24.3364  -13.5647  -16.2656 N   0  0  0  0  0  0  0  0  0  0  0  0
   22.6775  -17.2612  -15.5826 C   0  0  0  0  0  0  0  0  0  0  0  0
   21.4560  -16.7410  -15.1849 O   0  0  0  0  0  0  0  0  0  0  0  0
   22.6698  -17.9467  -16.6294 O   0  0  0  0  0  0  0  0  0  0  0  0
  2  3  1  0
  2  1  1  0
  4  3  1  0
  4  5  1  0
  5  6  1  6
  5  7  1  0
  7  8  2  0
 10 11  1  1
 10  9  1  0
 12 10  1  0
 13  7  1  0
 12 13  1  1
 14 12  1  0
 14 15  2  0
 16 14  1  0
 17 24  1  0
 17 16  1  0
 17 18  1  6
 19 18  1  0
 19 23  1  0
 20 21  1  0
 20 19  2  0
 21 22  1  0
 22 23  2  0
 24 25  1  0
 26 24  2  0
M  END
$$$$
