MVH.pdb
     RDKit          3D

 26 26  0  0  1  0  0  0  0  0999 V2000
   26.4118  -24.3637  -15.2862 C   0  0  0  0  0  0  0  0  0  0  0  0
   27.6916  -24.0344  -16.4732 S   0  0  0  0  0  0  0  0  0  0  0  0
   28.4906  -22.4548  -16.3906 C   0  0  0  0  0  0  0  0  0  0  0  0
   27.5866  -21.3944  -15.8471 C   0  0  0  0  0  0  0  0  0  0  0  0
   26.9109  -20.6574  -16.9453 C   0  0  2  0  0  0  0  0  0  0  0  0
   27.8897  -19.7335  -17.5091 N   0  0  0  0  0  0  0  0  0  0  0  0
   25.7193  -19.8769  -16.4257 C   0  0  0  0  0  0  0  0  0  0  0  0
   25.9986  -18.9001  -15.6908 O   0  0  0  0  0  0  0  0  0  0  0  0
   21.9637  -20.3207  -18.2352 C   0  0  0  0  0  0  0  0  0  0  0  0
   22.2652  -19.1573  -17.3034 C   0  0  1  0  0  0  0  0  0  0  0  0
   21.0277  -18.5246  -16.7534 C   0  0  0  0  0  0  0  0  0  0  0  0
   23.2743  -19.5700  -16.2517 C   0  0  2  0  0  0  0  0  0  0  0  0
   24.4014  -20.2516  -16.7654 N   0  0  0  0  0  0  0  0  0  0  0  0
   22.5893  -20.2857  -15.1501 C   0  0  0  0  0  0  0  0  0  0  0  0
   22.3516  -21.5092  -15.3536 O   0  0  0  0  0  0  0  0  0  0  0  0
   22.1973  -19.7221  -13.9341 N   0  0  0  0  0  0  0  0  0  0  0  0
   21.4983  -20.4269  -12.8843 C   0  0  1  0  0  0  0  0  0  0  0  0
   22.0152  -20.0837  -11.5123 C   0  0  0  0  0  0  0  0  0  0  0  0
   23.3186  -20.7492  -11.2733 C   0  0  0  0  0  0  0  0  0  0  0  0
   24.0270  -21.5840  -12.1275 C   0  0  0  0  0  0  0  0  0  0  0  0
   25.1700  -21.9887  -11.5452 N   0  0  0  0  0  0  0  0  0  0  0  0
   25.1989  -21.4269  -10.3400 C   0  0  0  0  0  0  0  0  0  0  0  0
   24.0810  -20.6743  -10.1673 N   0  0  0  0  0  0  0  0  0  0  0  0
   20.0483  -20.2172  -13.0421 C   0  0  0  0  0  0  0  0  0  0  0  0
   19.1880  -21.1931  -12.5641 O   0  0  0  0  0  0  0  0  0  0  0  0
   19.5099  -19.2222  -13.5770 O   0  0  0  0  0  0  0  0  0  0  0  0
  2  3  1  0
  2  1  1  0
  4  3  1  0
  4  5  1  0
  5  6  1  1
  5  7  1  0
  7  8  2  0
 10 11  1  1
 10  9  1  0
 12 10  1  0
 13  7  1  0
 12 13  1  6
 14 12  1  0
 14 15  2  0
 16 14  1  0
 17 24  1  0
 17 16  1  0
 17 18  1  1
 19 18  1  0
 19 23  1  0
 20 21  1  0
 20 19  2  0
 21 22  1  0
 22 23  2  0
 24 25  1  0
 26 24  2  0
M  END
$$$$
