MVH.pdb
     RDKit          3D

 26 26  0  0  1  0  0  0  0  0999 V2000
   28.7693  -19.6195   -5.7181 C   0  0  0  0  0  0  0  0  0  0  0  0
   27.9709  -21.1089   -6.2656 S   0  0  0  0  0  0  0  0  0  0  0  0
   26.1993  -21.1140   -6.3068 C   0  0  0  0  0  0  0  0  0  0  0  0
   25.6689  -21.1689   -7.7043 C   0  0  0  0  0  0  0  0  0  0  0  0
   26.3208  -20.1459   -8.5612 C   0  0  2  0  0  0  0  0  0  0  0  0
   26.1545  -18.8580   -7.8955 N   0  0  0  0  0  0  0  0  0  0  0  0
   25.6771  -20.0931   -9.9329 C   0  0  0  0  0  0  0  0  0  0  0  0
   24.6415  -19.3905  -10.0114 O   0  0  0  0  0  0  0  0  0  0  0  0
   27.4503  -22.1849  -13.3112 C   0  0  0  0  0  0  0  0  0  0  0  0
   26.9008  -20.7691  -13.3899 C   0  0  1  0  0  0  0  0  0  0  0  0
   26.5066  -20.3810  -14.7785 C   0  0  0  0  0  0  0  0  0  0  0  0
   25.8146  -20.5652  -12.3538 C   0  0  2  0  0  0  0  0  0  0  0  0
   26.2316  -20.7980  -11.0231 N   0  0  0  0  0  0  0  0  0  0  0  0
   24.5994  -21.3176  -12.7436 C   0  0  0  0  0  0  0  0  0  0  0  0
   24.4894  -22.4762  -12.2532 O   0  0  0  0  0  0  0  0  0  0  0  0
   23.5918  -20.8523  -13.5911 N   0  0  0  0  0  0  0  0  0  0  0  0
   22.1796  -20.8766  -13.2865 C   0  0  1  0  0  0  0  0  0  0  0  0
   21.8795  -20.3961  -11.8915 C   0  0  0  0  0  0  0  0  0  0  0  0
   21.0951  -21.4161  -11.1545 C   0  0  0  0  0  0  0  0  0  0  0  0
   20.6706  -22.6610  -11.5999 C   0  0  0  0  0  0  0  0  0  0  0  0
   19.9817  -23.2941  -10.6334 N   0  0  0  0  0  0  0  0  0  0  0  0
   19.9620  -22.4749   -9.5858 C   0  0  0  0  0  0  0  0  0  0  0  0
   20.6342  -21.3350   -9.8932 N   0  0  0  0  0  0  0  0  0  0  0  0
   21.4450  -20.1488  -14.3362 C   0  0  0  0  0  0  0  0  0  0  0  0
   20.2564  -20.6895  -14.8008 O   0  0  0  0  0  0  0  0  0  0  0  0
   21.7995  -19.0679  -14.8578 O   0  0  0  0  0  0  0  0  0  0  0  0
  2  3  1  0
  2  1  1  0
  4  3  1  0
  4  5  1  0
  5  6  1  1
  5  7  1  0
  7  8  2  0
 10 11  1  6
 10  9  1  0
 12 10  1  0
 13  7  1  0
 12 13  1  1
 14 12  1  0
 14 15  2  0
 16 14  1  0
 17 24  1  0
 17 16  1  0
 17 18  1  1
 19 18  1  0
 19 23  1  0
 20 21  1  0
 20 19  2  0
 21 22  1  0
 22 23  2  0
 24 25  1  0
 26 24  2  0
M  END
$$$$
