MVH.pdb
     RDKit          3D

 26 26  0  0  1  0  0  0  0  0999 V2000
   25.8525  -17.1417  -17.9410 C   0  0  0  0  0  0  0  0  0  0  0  0
   27.4870  -16.7202  -17.3877 S   0  0  0  0  0  0  0  0  0  0  0  0
   28.2674  -17.8234  -16.2414 C   0  0  0  0  0  0  0  0  0  0  0  0
   27.3193  -18.8559  -15.7194 C   0  0  0  0  0  0  0  0  0  0  0  0
   27.9914  -19.7491  -14.7414 C   0  0  2  0  0  0  0  0  0  0  0  0
   29.0194  -20.4867  -15.4685 N   0  0  0  0  0  0  0  0  0  0  0  0
   27.0066  -20.7252  -14.1282 C   0  0  0  0  0  0  0  0  0  0  0  0
   26.9039  -21.8253  -14.7211 O   0  0  0  0  0  0  0  0  0  0  0  0
   26.7599  -21.6524  -10.3754 C   0  0  0  0  0  0  0  0  0  0  0  0
   25.3670  -21.3026  -10.8753 C   0  0  1  0  0  0  0  0  0  0  0  0
   24.8151  -20.0733  -10.2284 C   0  0  0  0  0  0  0  0  0  0  0  0
   25.3401  -21.2755  -12.3897 C   0  0  2  0  0  0  0  0  0  0  0  0
   26.2733  -20.3864  -12.9704 N   0  0  0  0  0  0  0  0  0  0  0  0
   23.9501  -21.0834  -12.8651 C   0  0  0  0  0  0  0  0  0  0  0  0
   23.5497  -19.8871  -12.9238 O   0  0  0  0  0  0  0  0  0  0  0  0
   23.0723  -22.1012  -13.2440 N   0  0  0  0  0  0  0  0  0  0  0  0
   21.7733  -21.8919  -13.8410 C   0  0  1  0  0  0  0  0  0  0  0  0
   21.3019  -23.0814  -14.6346 C   0  0  0  0  0  0  0  0  0  0  0  0
   20.0006  -22.7850  -15.2805 C   0  0  0  0  0  0  0  0  0  0  0  0
   19.2724  -21.6030  -15.2443 C   0  0  0  0  0  0  0  0  0  0  0  0
   18.1387  -21.7295  -15.9571 N   0  0  0  0  0  0  0  0  0  0  0  0
   18.1350  -22.9674  -16.4434 C   0  0  0  0  0  0  0  0  0  0  0  0
   19.2593  -23.6136  -16.0382 N   0  0  0  0  0  0  0  0  0  0  0  0
   20.8252  -21.4596  -12.7991 C   0  0  0  0  0  0  0  0  0  0  0  0
   19.8348  -20.5548  -13.1475 O   0  0  0  0  0  0  0  0  0  0  0  0
   20.8297  -21.8395  -11.6068 O   0  0  0  0  0  0  0  0  0  0  0  0
  2  3  1  0
  2  1  1  0
  4  3  1  0
  4  5  1  0
  5  6  1  6
  5  7  1  0
  7  8  2  0
 10 11  1  1
 10  9  1  0
 12 10  1  0
 13  7  1  0
 12 13  1  1
 14 12  1  0
 14 15  2  0
 16 14  1  0
 17 24  1  0
 17 16  1  0
 17 18  1  1
 19 18  1  0
 19 23  1  0
 20 21  1  0
 20 19  2  0
 21 22  1  0
 22 23  2  0
 24 25  1  0
 26 24  2  0
M  END
$$$$
