MVH.pdb
     RDKit          3D

 26 26  0  0  1  0  0  0  0  0999 V2000
   23.4849  -13.9689  -14.8318 C   0  0  0  0  0  0  0  0  0  0  0  0
   24.4482  -13.5886  -16.2750 S   0  0  0  0  0  0  0  0  0  0  0  0
   25.7024  -14.7490  -16.7446 C   0  0  0  0  0  0  0  0  0  0  0  0
   25.4092  -16.1280  -16.2448 C   0  0  0  0  0  0  0  0  0  0  0  0
   26.5375  -17.0496  -16.5338 C   0  0  2  0  0  0  0  0  0  0  0  0
   26.5559  -17.2677  -17.9765 N   0  0  0  0  0  0  0  0  0  0  0  0
   26.3532  -18.3765  -15.8239 C   0  0  0  0  0  0  0  0  0  0  0  0
   25.5836  -19.1860  -16.3938 O   0  0  0  0  0  0  0  0  0  0  0  0
   28.8432  -20.9022  -15.0446 C   0  0  0  0  0  0  0  0  0  0  0  0
   28.1554  -20.6371  -13.7145 C   0  0  1  0  0  0  0  0  0  0  0  0
   29.0696  -20.0185  -12.7067 C   0  0  0  0  0  0  0  0  0  0  0  0
   26.8615  -19.8792  -13.9302 C   0  0  2  0  0  0  0  0  0  0  0  0
   27.0167  -18.6482  -14.6078 N   0  0  0  0  0  0  0  0  0  0  0  0
   26.1214  -19.7725  -12.6513 C   0  0  0  0  0  0  0  0  0  0  0  0
   26.3333  -18.7244  -11.9793 O   0  0  0  0  0  0  0  0  0  0  0  0
   25.2290  -20.7207  -12.1467 N   0  0  0  0  0  0  0  0  0  0  0  0
   24.5942  -20.6501  -10.8507 C   0  0  1  0  0  0  0  0  0  0  0  0
   23.3090  -21.4323  -10.7916 C   0  0  0  0  0  0  0  0  0  0  0  0
   22.3061  -20.8427  -11.7109 C   0  0  0  0  0  0  0  0  0  0  0  0
   22.3809  -19.6459  -12.4115 C   0  0  0  0  0  0  0  0  0  0  0  0
   21.2664  -19.4603  -13.1414 N   0  0  0  0  0  0  0  0  0  0  0  0
   20.4883  -20.5153  -12.9168 C   0  0  0  0  0  0  0  0  0  0  0  0
   21.1106  -21.3575  -12.0513 N   0  0  0  0  0  0  0  0  0  0  0  0
   25.5687  -21.0296   -9.8126 C   0  0  0  0  0  0  0  0  0  0  0  0
   25.3998  -20.5185   -8.5355 O   0  0  0  0  0  0  0  0  0  0  0  0
   26.5530  -21.7844   -9.9782 O   0  0  0  0  0  0  0  0  0  0  0  0
  2  3  1  0
  2  1  1  0
  4  3  1  0
  4  5  1  0
  5  6  1  6
  5  7  1  0
  7  8  2  0
 10 11  1  1
 10  9  1  0
 12 10  1  0
 13  7  1  0
 12 13  1  1
 14 12  1  0
 14 15  2  0
 16 14  1  0
 17 24  1  0
 17 16  1  0
 17 18  1  6
 19 18  1  0
 19 23  1  0
 20 21  1  0
 20 19  2  0
 21 22  1  0
 22 23  2  0
 24 25  1  0
 26 24  2  0
M  END
$$$$
