MVH.pdb
     RDKit          3D

 26 26  0  0  1  0  0  0  0  0999 V2000
   15.5638  -13.0055  -18.8654 C   0  0  0  0  0  0  0  0  0  0  0  0
   16.1199  -14.6482  -19.2497 S   0  0  0  0  0  0  0  0  0  0  0  0
   17.6859  -15.1517  -18.5906 C   0  0  0  0  0  0  0  0  0  0  0  0
   18.1944  -14.1981  -17.5566 C   0  0  0  0  0  0  0  0  0  0  0  0
   19.5636  -14.5700  -17.1176 C   0  0  2  0  0  0  0  0  0  0  0  0
   19.4768  -15.8965  -16.5157 N   0  0  0  0  0  0  0  0  0  0  0  0
   20.0950  -13.5844  -16.0953 C   0  0  0  0  0  0  0  0  0  0  0  0
   19.5787  -13.6652  -14.9554 O   0  0  0  0  0  0  0  0  0  0  0  0
   23.8661  -11.7834  -16.4848 C   0  0  0  0  0  0  0  0  0  0  0  0
   23.0484  -11.7984  -15.2026 C   0  0  1  0  0  0  0  0  0  0  0  0
   23.5377  -10.8076  -14.1961 C   0  0  0  0  0  0  0  0  0  0  0  0
   21.5705  -11.6895  -15.5169 C   0  0  2  0  0  0  0  0  0  0  0  0
   21.1007  -12.6546  -16.4370 N   0  0  0  0  0  0  0  0  0  0  0  0
   21.2356  -10.2942  -15.8854 C   0  0  0  0  0  0  0  0  0  0  0  0
   21.4919   -9.9639  -17.0771 O   0  0  0  0  0  0  0  0  0  0  0  0
   20.6716   -9.3415  -15.0345 N   0  0  0  0  0  0  0  0  0  0  0  0
   20.3385   -7.9881  -15.4152 C   0  0  1  0  0  0  0  0  0  0  0  0
   18.9185   -7.6227  -15.0728 C   0  0  0  0  0  0  0  0  0  0  0  0
   17.9742   -8.3468  -15.9574 C   0  0  0  0  0  0  0  0  0  0  0  0
   18.1151   -8.6419  -17.3071 C   0  0  0  0  0  0  0  0  0  0  0  0
   17.0391   -9.3140  -17.7542 N   0  0  0  0  0  0  0  0  0  0  0  0
   16.2206   -9.4501  -16.7148 C   0  0  0  0  0  0  0  0  0  0  0  0
   16.7795   -8.8669  -15.6224 N   0  0  0  0  0  0  0  0  0  0  0  0
   21.3410   -7.0659  -14.8530 C   0  0  0  0  0  0  0  0  0  0  0  0
   21.3265   -5.7452  -15.2731 O   0  0  0  0  0  0  0  0  0  0  0  0
   22.2208   -7.3682  -14.0162 O   0  0  0  0  0  0  0  0  0  0  0  0
  2  3  1  0
  2  1  1  0
  4  3  1  0
  4  5  1  0
  5  6  1  1
  5  7  1  0
  7  8  2  0
 10 11  1  1
 10  9  1  0
 12 10  1  0
 13  7  1  0
 12 13  1  6
 14 12  1  0
 14 15  2  0
 16 14  1  0
 17 24  1  0
 17 16  1  0
 17 18  1  1
 19 18  1  0
 19 23  1  0
 20 21  1  0
 20 19  2  0
 21 22  1  0
 22 23  2  0
 24 25  1  0
 26 24  2  0
M  END
$$$$
