MVH.pdb
     RDKit          3D

 26 26  0  0  1  0  0  0  0  0999 V2000
   19.0357  -19.5927  -20.1069 C   0  0  0  0  0  0  0  0  0  0  0  0
   19.4260  -17.8606  -20.0567 S   0  0  0  0  0  0  0  0  0  0  0  0
   18.2753  -16.7910  -19.2369 C   0  0  0  0  0  0  0  0  0  0  0  0
   18.7126  -15.3610  -19.2718 C   0  0  0  0  0  0  0  0  0  0  0  0
   19.2659  -14.9418  -17.9588 C   0  0  2  0  0  0  0  0  0  0  0  0
   18.2444  -15.2176  -16.9539 N   0  0  0  0  0  0  0  0  0  0  0  0
   19.5946  -13.4617  -17.9532 C   0  0  0  0  0  0  0  0  0  0  0  0
   20.4484  -13.0998  -18.7971 O   0  0  0  0  0  0  0  0  0  0  0  0
   18.6214   -8.8943  -16.3378 C   0  0  0  0  0  0  0  0  0  0  0  0
   18.1326  -10.3129  -16.5853 C   0  0  1  0  0  0  0  0  0  0  0  0
   16.9566  -10.3641  -17.5065 C   0  0  0  0  0  0  0  0  0  0  0  0
   19.2856  -11.2052  -16.9964 C   0  0  2  0  0  0  0  0  0  0  0  0
   18.9645  -12.5811  -17.0474 N   0  0  0  0  0  0  0  0  0  0  0  0
   20.4790  -10.8964  -16.1746 C   0  0  0  0  0  0  0  0  0  0  0  0
   20.8029  -11.7726  -15.3248 O   0  0  0  0  0  0  0  0  0  0  0  0
   21.2529   -9.7378  -16.2680 N   0  0  0  0  0  0  0  0  0  0  0  0
   22.6445   -9.6415  -15.8914 C   0  0  1  0  0  0  0  0  0  0  0  0
   23.4953  -10.7000  -16.5418 C   0  0  0  0  0  0  0  0  0  0  0  0
   24.9161  -10.5268  -16.1542 C   0  0  0  0  0  0  0  0  0  0  0  0
   25.4560   -9.6236  -15.2480 C   0  0  0  0  0  0  0  0  0  0  0  0
   26.7900   -9.7778  -15.1716 N   0  0  0  0  0  0  0  0  0  0  0  0
   27.1049  -10.7603  -16.0110 C   0  0  0  0  0  0  0  0  0  0  0  0
   25.9754  -11.2195  -16.6104 N   0  0  0  0  0  0  0  0  0  0  0  0
   23.1180   -8.2673  -16.1337 C   0  0  0  0  0  0  0  0  0  0  0  0
   23.7228   -7.5875  -15.0882 O   0  0  0  0  0  0  0  0  0  0  0  0
   23.0241   -7.6442  -17.2148 O   0  0  0  0  0  0  0  0  0  0  0  0
  2  3  1  0
  2  1  1  0
  4  3  1  0
  4  5  1  0
  5  6  1  1
  5  7  1  0
  7  8  2  0
 10 11  1  6
 10  9  1  0
 12 10  1  0
 13  7  1  0
 12 13  1  1
 14 12  1  0
 14 15  2  0
 16 14  1  0
 17 24  1  0
 17 16  1  0
 17 18  1  6
 19 18  1  0
 19 23  1  0
 20 21  1  0
 20 19  2  0
 21 22  1  0
 22 23  2  0
 24 25  1  0
 26 24  2  0
M  END
$$$$
