MVH.pdb
     RDKit          3D

 26 26  0  0  1  0  0  0  0  0999 V2000
   10.3093  -11.2208   -8.1343 C   0  0  0  0  0  0  0  0  0  0  0  0
   10.1928  -11.4654   -9.8898 S   0  0  0  0  0  0  0  0  0  0  0  0
   11.7027  -11.7458  -10.7739 C   0  0  0  0  0  0  0  0  0  0  0  0
   12.8228  -10.8995  -10.2577 C   0  0  0  0  0  0  0  0  0  0  0  0
   14.0776  -11.1629  -11.0074 C   0  0  2  0  0  0  0  0  0  0  0  0
   14.5295  -12.4991  -10.6335 N   0  0  0  0  0  0  0  0  0  0  0  0
   15.1477  -10.1492  -10.6525 C   0  0  0  0  0  0  0  0  0  0  0  0
   15.8942  -10.4711   -9.6978 O   0  0  0  0  0  0  0  0  0  0  0  0
   18.3625   -6.8422  -11.8815 C   0  0  0  0  0  0  0  0  0  0  0  0
   17.3789   -7.9655  -12.1702 C   0  0  1  0  0  0  0  0  0  0  0  0
   18.0565   -9.2744  -12.4187 C   0  0  0  0  0  0  0  0  0  0  0  0
   16.3032   -8.0131  -11.1046 C   0  0  2  0  0  0  0  0  0  0  0  0
   15.2669   -8.9380  -11.3678 N   0  0  0  0  0  0  0  0  0  0  0  0
   15.8252   -6.6421  -10.8102 C   0  0  0  0  0  0  0  0  0  0  0  0
   15.0571   -6.1308  -11.6725 O   0  0  0  0  0  0  0  0  0  0  0  0
   16.1524   -5.8924   -9.6784 N   0  0  0  0  0  0  0  0  0  0  0  0
   15.7529   -4.5226   -9.4512 C   0  0  1  0  0  0  0  0  0  0  0  0
   15.6273   -4.1908   -7.9879 C   0  0  0  0  0  0  0  0  0  0  0  0
   14.3474   -4.7123   -7.4509 C   0  0  0  0  0  0  0  0  0  0  0  0
   13.3678   -5.4376   -8.1165 C   0  0  0  0  0  0  0  0  0  0  0  0
   12.3525   -5.7275   -7.2832 N   0  0  0  0  0  0  0  0  0  0  0  0
   12.6699   -5.2002   -6.1041 C   0  0  0  0  0  0  0  0  0  0  0  0
   13.8768   -4.5834   -6.1971 N   0  0  0  0  0  0  0  0  0  0  0  0
   16.6598   -3.6248  -10.1880 C   0  0  0  0  0  0  0  0  0  0  0  0
   16.2097   -2.3529  -10.5051 O   0  0  0  0  0  0  0  0  0  0  0  0
   17.8202   -3.9075  -10.5615 O   0  0  0  0  0  0  0  0  0  0  0  0
  2  3  1  0
  2  1  1  0
  4  3  1  0
  4  5  1  0
  5  6  1  1
  5  7  1  0
  7  8  2  0
 10 11  1  1
 10  9  1  0
 12 10  1  0
 13  7  1  0
 12 13  1  6
 14 12  1  0
 14 15  2  0
 16 14  1  0
 17 24  1  0
 17 16  1  0
 17 18  1  1
 19 18  1  0
 19 23  1  0
 20 21  1  0
 20 19  2  0
 21 22  1  0
 22 23  2  0
 24 25  1  0
 26 24  2  0
M  END
$$$$
