DDL.pdb
     RDKit          3D

 25 24  0  0  1  0  0  0  0  0999 V2000
    7.5049  -16.5961   18.9354 N   0  0  0  0  0  0  0  0  0  0  0  0
    8.4567  -15.7160   19.5899 C   0  0  1  0  0  0  0  0  0  0  0  0
    8.0460  -14.2751   19.4293 C   0  0  0  0  0  0  0  0  0  0  0  0
    8.0380  -13.8638   18.0180 C   0  0  0  0  0  0  0  0  0  0  0  0
    8.7446  -14.4184   17.1545 O   0  0  0  0  0  0  0  0  0  0  0  0
    8.6507  -16.1161   20.9850 C   0  0  0  0  0  0  0  0  0  0  0  0
    7.6372  -16.3011   21.7069 O   0  0  0  0  0  0  0  0  0  0  0  0
    7.2222  -12.8248   17.6157 O   0  0  0  0  0  0  0  0  0  0  0  0
    9.9033  -16.3121   21.5884 N   0  0  0  0  0  0  0  0  0  0  0  0
   10.1050  -16.7502   22.9620 C   0  0  1  0  0  0  0  0  0  0  0  0
   11.4661  -17.3156   23.1813 C   0  0  0  0  0  0  0  0  0  0  0  0
   11.6298  -18.5457   22.3808 C   0  0  0  0  0  0  0  0  0  0  0  0
   10.7034  -19.3858   22.1594 O   0  0  0  0  0  0  0  0  0  0  0  0
    9.8117  -15.6357   23.9077 C   0  0  0  0  0  0  0  0  0  0  0  0
    9.8106  -14.4343   23.5546 O   0  0  0  0  0  0  0  0  0  0  0  0
   12.8640  -18.8702   21.7960 O   0  0  0  0  0  0  0  0  0  0  0  0
    7.9345  -11.7532   26.4901 C   0  0  0  0  0  0  0  0  0  0  0  0
    7.2743  -13.1065   26.5323 C   0  0  1  0  0  0  0  0  0  0  0  0
    5.8270  -12.8920   26.0887 C   0  0  0  0  0  0  0  0  0  0  0  0
    7.8786  -14.1085   25.6049 C   0  0  0  0  0  0  0  0  0  0  0  0
    9.1047  -14.8050   26.1566 C   0  0  2  0  0  0  0  0  0  0  0  0
    9.5144  -15.8922   25.2756 N   0  0  0  0  0  0  0  0  0  0  0  0
    8.9227  -15.3175   27.5254 C   0  0  0  0  0  0  0  0  0  0  0  0
    9.1807  -14.5446   28.4926 O   0  0  0  0  0  0  0  0  0  0  0  0
    8.4813  -16.6072   27.8040 O   0  0  0  0  0  0  0  0  0  0  0  0
  2  1  1  1
  2  6  1  0
  2  3  1  0
  4  3  1  0
  5  4  2  0
  6  7  2  0
  8  4  1  0
  9 10  1  0
  9  6  1  0
 10 14  1  0
 10 11  1  6
 12 11  1  0
 13 12  2  0
 14 15  2  0
 16 12  1  0
 18 17  1  6
 18 19  1  0
 20 18  1  0
 21 20  1  6
 22 14  1  0
 22 21  1  0
 23 21  1  0
 24 23  2  0
 25 23  1  0
M  END
$$$$
