DDL.pdb
     RDKit          3D

 25 24  0  0  1  0  0  0  0  0999 V2000
    9.5939  -12.6236   19.5609 N   0  0  0  0  0  0  0  0  0  0  0  0
    8.2658  -13.1566   19.8077 C   0  0  1  0  0  0  0  0  0  0  0  0
    7.5453  -13.4114   18.5090 C   0  0  0  0  0  0  0  0  0  0  0  0
    8.3021  -14.3180   17.6336 C   0  0  0  0  0  0  0  0  0  0  0  0
    9.4235  -14.7656   17.9414 O   0  0  0  0  0  0  0  0  0  0  0  0
    8.3379  -14.3332   20.6763 C   0  0  0  0  0  0  0  0  0  0  0  0
    7.2668  -14.8940   21.0239 O   0  0  0  0  0  0  0  0  0  0  0  0
    7.7650  -14.6992   16.4198 O   0  0  0  0  0  0  0  0  0  0  0  0
    9.5319  -14.8924   21.1590 N   0  0  0  0  0  0  0  0  0  0  0  0
    9.6103  -15.9831   22.1201 C   0  0  1  0  0  0  0  0  0  0  0  0
   10.6152  -17.0112   21.7284 C   0  0  0  0  0  0  0  0  0  0  0  0
   10.6396  -18.0927   22.7336 C   0  0  0  0  0  0  0  0  0  0  0  0
   11.5515  -18.2413   23.6050 O   0  0  0  0  0  0  0  0  0  0  0  0
    9.8719  -15.4487   23.4871 C   0  0  0  0  0  0  0  0  0  0  0  0
   10.9867  -14.9939   23.8313 O   0  0  0  0  0  0  0  0  0  0  0  0
    9.6188  -19.0548   22.7871 O   0  0  0  0  0  0  0  0  0  0  0  0
    6.1313  -13.4326   26.4801 C   0  0  0  0  0  0  0  0  0  0  0  0
    7.2695  -13.3621   25.4960 C   0  0  1  0  0  0  0  0  0  0  0  0
    7.2807  -11.9324   24.9545 C   0  0  0  0  0  0  0  0  0  0  0  0
    8.6118  -13.6191   26.0974 C   0  0  0  0  0  0  0  0  0  0  0  0
    9.1514  -15.0102   25.8399 C   0  0  2  0  0  0  0  0  0  0  0  0
    8.8496  -15.4311   24.4769 N   0  0  0  0  0  0  0  0  0  0  0  0
    8.6544  -16.0183   26.7919 C   0  0  0  0  0  0  0  0  0  0  0  0
    8.8612  -15.8295   28.0251 O   0  0  0  0  0  0  0  0  0  0  0  0
    7.9698  -17.1643   26.4001 O   0  0  0  0  0  0  0  0  0  0  0  0
  2  1  1  6
  2  6  1  0
  2  3  1  0
  4  3  1  0
  5  4  2  0
  6  7  2  0
  8  4  1  0
  9 10  1  0
  9  6  1  0
 10 14  1  0
 10 11  1  6
 12 11  1  0
 13 12  2  0
 14 15  2  0
 16 12  1  0
 18 17  1  1
 18 19  1  0
 20 18  1  0
 21 20  1  1
 22 14  1  0
 22 21  1  0
 23 21  1  0
 24 23  2  0
 25 23  1  0
M  END
$$$$
