DDL.pdb
     RDKit          3D

 25 24  0  0  1  0  0  0  0  0999 V2000
    8.3163  -15.0640   20.4946 N   0  0  0  0  0  0  0  0  0  0  0  0
    7.9290  -16.4538   20.3298 C   0  0  1  0  0  0  0  0  0  0  0  0
    8.4475  -16.9991   19.0242 C   0  0  0  0  0  0  0  0  0  0  0  0
    8.1117  -16.1210   17.8941 C   0  0  0  0  0  0  0  0  0  0  0  0
    7.4609  -15.0677   18.0343 O   0  0  0  0  0  0  0  0  0  0  0  0
    8.3360  -17.2420   21.4948 C   0  0  0  0  0  0  0  0  0  0  0  0
    8.2703  -18.4965   21.4283 O   0  0  0  0  0  0  0  0  0  0  0  0
    8.5253  -16.4606   16.6211 O   0  0  0  0  0  0  0  0  0  0  0  0
    8.8019  -16.6946   22.7010 N   0  0  0  0  0  0  0  0  0  0  0  0
   10.1358  -16.8998   23.2468 C   0  0  1  0  0  0  0  0  0  0  0  0
   11.2053  -16.6113   22.2503 C   0  0  0  0  0  0  0  0  0  0  0  0
   12.1787  -17.7216   22.2282 C   0  0  0  0  0  0  0  0  0  0  0  0
   12.8119  -18.0997   21.1942 O   0  0  0  0  0  0  0  0  0  0  0  0
   10.3124  -16.1005   24.4927 C   0  0  0  0  0  0  0  0  0  0  0  0
   11.3693  -16.1226   25.1640 O   0  0  0  0  0  0  0  0  0  0  0  0
   12.4719  -18.4508   23.3914 O   0  0  0  0  0  0  0  0  0  0  0  0
    6.1434  -12.6216   25.7020 C   0  0  0  0  0  0  0  0  0  0  0  0
    7.3388  -13.4626   25.3376 C   0  0  1  0  0  0  0  0  0  0  0  0
    7.8646  -12.9097   24.0127 C   0  0  0  0  0  0  0  0  0  0  0  0
    8.4577  -13.3909   26.3235 C   0  0  0  0  0  0  0  0  0  0  0  0
    9.4324  -14.5467   26.2417 C   0  0  2  0  0  0  0  0  0  0  0  0
    9.2711  -15.2628   24.9817 N   0  0  0  0  0  0  0  0  0  0  0  0
    9.3195  -15.4908   27.3667 C   0  0  0  0  0  0  0  0  0  0  0  0
    9.0071  -16.6895   27.1124 O   0  0  0  0  0  0  0  0  0  0  0  0
    9.5403  -15.1275   28.6914 O   0  0  0  0  0  0  0  0  0  0  0  0
  2  1  1  1
  2  6  1  0
  2  3  1  0
  4  3  1  0
  5  4  2  0
  6  7  2  0
  8  4  1  0
  9 10  1  0
  9  6  1  0
 10 14  1  0
 10 11  1  6
 12 11  1  0
 13 12  2  0
 14 15  2  0
 16 12  1  0
 18 17  1  1
 18 19  1  0
 20 18  1  0
 21 20  1  1
 22 14  1  0
 22 21  1  0
 23 21  1  0
 24 23  2  0
 25 23  1  0
M  END
$$$$
