DDL.pdb
     RDKit          3D

 25 24  0  0  1  0  0  0  0  0999 V2000
   12.2018  -17.4158   21.1477 N   0  0  0  0  0  0  0  0  0  0  0  0
   10.8770  -16.8238   21.0926 C   0  0  1  0  0  0  0  0  0  0  0  0
   10.1000  -17.3671   19.9214 C   0  0  0  0  0  0  0  0  0  0  0  0
   10.9509  -17.5412   18.7354 C   0  0  0  0  0  0  0  0  0  0  0  0
   12.1711  -17.2889   18.7433 O   0  0  0  0  0  0  0  0  0  0  0  0
   10.1890  -16.9845   22.3752 C   0  0  0  0  0  0  0  0  0  0  0  0
    9.0191  -16.5376   22.4932 O   0  0  0  0  0  0  0  0  0  0  0  0
   10.3936  -18.0012   17.5586 O   0  0  0  0  0  0  0  0  0  0  0  0
   10.7455  -17.6101   23.5023 N   0  0  0  0  0  0  0  0  0  0  0  0
   10.0720  -17.7672   24.7834 C   0  0  1  0  0  0  0  0  0  0  0  0
   10.2180  -19.1440   25.3341 C   0  0  0  0  0  0  0  0  0  0  0  0
   11.6439  -19.5280   25.3448 C   0  0  0  0  0  0  0  0  0  0  0  0
   12.2688  -19.9931   24.3417 O   0  0  0  0  0  0  0  0  0  0  0  0
   10.5482  -16.7342   25.7471 C   0  0  0  0  0  0  0  0  0  0  0  0
   11.6886  -16.2217   25.6774 O   0  0  0  0  0  0  0  0  0  0  0  0
   12.4207  -19.3963   26.5067 O   0  0  0  0  0  0  0  0  0  0  0  0
    7.3263  -13.0956   27.2483 C   0  0  0  0  0  0  0  0  0  0  0  0
    8.6303  -13.7785   26.9289 C   0  0  1  0  0  0  0  0  0  0  0  0
    9.5021  -12.7340   26.2314 C   0  0  0  0  0  0  0  0  0  0  0  0
    9.3805  -14.2520   28.1298 C   0  0  0  0  0  0  0  0  0  0  0  0
   10.2657  -15.4537   27.8750 C   0  0  2  0  0  0  0  0  0  0  0  0
    9.7139  -16.2771   26.8055 N   0  0  0  0  0  0  0  0  0  0  0  0
   10.4910  -16.2815   29.0723 C   0  0  0  0  0  0  0  0  0  0  0  0
   10.9994  -15.7326   30.0918 O   0  0  0  0  0  0  0  0  0  0  0  0
   10.1713  -17.6341   29.1349 O   0  0  0  0  0  0  0  0  0  0  0  0
  2  1  1  1
  2  6  1  0
  2  3  1  0
  4  3  1  0
  5  4  2  0
  6  7  2  0
  8  4  1  0
  9 10  1  0
  9  6  1  0
 10 14  1  0
 10 11  1  1
 12 11  1  0
 13 12  2  0
 14 15  2  0
 16 12  1  0
 18 17  1  1
 18 19  1  0
 20 18  1  0
 21 20  1  1
 22 14  1  0
 22 21  1  0
 23 21  1  0
 24 23  2  0
 25 23  1  0
M  END
$$$$
