DDL.pdb
     RDKit          3D

 25 24  0  0  1  0  0  0  0  0999 V2000
    9.5701  -15.8124   19.5111 N   0  0  0  0  0  0  0  0  0  0  0  0
    8.2583  -15.6986   20.1233 C   0  0  1  0  0  0  0  0  0  0  0  0
    7.2255  -16.4334   19.3083 C   0  0  0  0  0  0  0  0  0  0  0  0
    7.5072  -16.3510   17.8679 C   0  0  0  0  0  0  0  0  0  0  0  0
    8.5711  -15.8830   17.4189 O   0  0  0  0  0  0  0  0  0  0  0  0
    8.3068  -16.1225   21.5241 C   0  0  0  0  0  0  0  0  0  0  0  0
    7.2643  -16.0242   22.2214 O   0  0  0  0  0  0  0  0  0  0  0  0
    6.5682  -16.8053   16.9630 O   0  0  0  0  0  0  0  0  0  0  0  0
    9.4478  -16.6389   22.1588 N   0  0  0  0  0  0  0  0  0  0  0  0
    9.5011  -17.0763   23.5464 C   0  0  1  0  0  0  0  0  0  0  0  0
   10.5272  -18.1339   23.7671 C   0  0  0  0  0  0  0  0  0  0  0  0
   10.2554  -19.2845   22.8821 C   0  0  0  0  0  0  0  0  0  0  0  0
   11.0210  -19.6627   21.9421 O   0  0  0  0  0  0  0  0  0  0  0  0
    9.7104  -15.9079   24.4483 C   0  0  0  0  0  0  0  0  0  0  0  0
   10.6952  -15.1418   24.3419 O   0  0  0  0  0  0  0  0  0  0  0  0
    9.0923  -20.0558   23.0338 O   0  0  0  0  0  0  0  0  0  0  0  0
    5.8452  -12.5684   26.1192 C   0  0  0  0  0  0  0  0  0  0  0  0
    7.1586  -13.2050   25.7469 C   0  0  1  0  0  0  0  0  0  0  0  0
    8.0436  -12.0802   25.2093 C   0  0  0  0  0  0  0  0  0  0  0  0
    7.8813  -13.8275   26.8956 C   0  0  0  0  0  0  0  0  0  0  0  0
    9.1146  -14.6125   26.5012 C   0  0  2  0  0  0  0  0  0  0  0  0
    8.7849  -15.6063   25.4864 N   0  0  0  0  0  0  0  0  0  0  0  0
    9.7821  -15.2680   27.6389 C   0  0  0  0  0  0  0  0  0  0  0  0
   10.2073  -14.5412   28.5824 O   0  0  0  0  0  0  0  0  0  0  0  0
    9.9658  -16.6444   27.7248 O   0  0  0  0  0  0  0  0  0  0  0  0
  2  1  1  6
  2  6  1  0
  2  3  1  0
  4  3  1  0
  5  4  2  0
  6  7  2  0
  8  4  1  0
  9 10  1  0
  9  6  1  0
 10 14  1  0
 10 11  1  6
 12 11  1  0
 13 12  2  0
 14 15  2  0
 16 12  1  0
 18 17  1  1
 18 19  1  0
 20 18  1  0
 21 20  1  1
 22 14  1  0
 22 21  1  0
 23 21  1  0
 24 23  2  0
 25 23  1  0
M  END
$$$$
