DDL.pdb
     RDKit          3D

 25 24  0  0  1  0  0  0  0  0999 V2000
    9.9538  -17.0048   19.1912 N   0  0  0  0  0  0  0  0  0  0  0  0
    8.8727  -16.0778   19.4751 C   0  0  1  0  0  0  0  0  0  0  0  0
    7.7677  -16.2229   18.4609 C   0  0  0  0  0  0  0  0  0  0  0  0
    8.2323  -15.9177   17.1000 C   0  0  0  0  0  0  0  0  0  0  0  0
    9.4315  -15.9890   16.7697 O   0  0  0  0  0  0  0  0  0  0  0  0
    8.4185  -16.2269   20.8592 C   0  0  0  0  0  0  0  0  0  0  0  0
    7.4296  -15.5527   21.2464 O   0  0  0  0  0  0  0  0  0  0  0  0
    7.3184  -15.5357   16.1378 O   0  0  0  0  0  0  0  0  0  0  0  0
    9.0132  -17.0797   21.8029 N   0  0  0  0  0  0  0  0  0  0  0  0
    8.5292  -17.2836   23.1607 C   0  0  1  0  0  0  0  0  0  0  0  0
    8.7975  -18.6631   23.6558 C   0  0  0  0  0  0  0  0  0  0  0  0
    8.0152  -19.6364   22.8675 C   0  0  0  0  0  0  0  0  0  0  0  0
    6.8147  -19.4569   22.4937 O   0  0  0  0  0  0  0  0  0  0  0  0
    9.0980  -16.2500   24.0722 C   0  0  0  0  0  0  0  0  0  0  0  0
   10.3023  -15.9087   24.0365 O   0  0  0  0  0  0  0  0  0  0  0  0
    8.5730  -20.8619   22.4704 O   0  0  0  0  0  0  0  0  0  0  0  0
    5.8872  -12.2728   26.1093 C   0  0  0  0  0  0  0  0  0  0  0  0
    7.0150  -13.1017   25.5526 C   0  0  1  0  0  0  0  0  0  0  0  0
    7.9157  -12.1373   24.7804 C   0  0  0  0  0  0  0  0  0  0  0  0
    7.8591  -13.7598   26.5935 C   0  0  0  0  0  0  0  0  0  0  0  0
    8.8872  -14.7242   26.0407 C   0  0  2  0  0  0  0  0  0  0  0  0
    8.2841  -15.5946   25.0382 N   0  0  0  0  0  0  0  0  0  0  0  0
    9.5431  -15.5407   27.0764 C   0  0  0  0  0  0  0  0  0  0  0  0
    9.2801  -16.7769   27.1188 O   0  0  0  0  0  0  0  0  0  0  0  0
   10.4357  -15.0182   28.0069 O   0  0  0  0  0  0  0  0  0  0  0  0
  2  1  1  6
  2  6  1  0
  2  3  1  0
  4  3  1  0
  5  4  2  0
  6  7  2  0
  8  4  1  0
  9 10  1  0
  9  6  1  0
 10 14  1  0
 10 11  1  1
 12 11  1  0
 13 12  2  0
 14 15  2  0
 16 12  1  0
 18 17  1  1
 18 19  1  0
 20 18  1  0
 21 20  1  1
 22 14  1  0
 22 21  1  0
 23 21  1  0
 24 23  2  0
 25 23  1  0
M  END
$$$$
