DDL.pdb
     RDKit          3D

 25 24  0  0  1  0  0  0  0  0999 V2000
    7.2943  -16.2341   20.8174 N   0  0  0  0  0  0  0  0  0  0  0  0
    7.4298  -17.4635   21.5783 C   0  0  1  0  0  0  0  0  0  0  0  0
    7.2238  -18.6636   20.6906 C   0  0  0  0  0  0  0  0  0  0  0  0
    6.0676  -18.4912   19.7992 C   0  0  0  0  0  0  0  0  0  0  0  0
    5.2792  -19.4198   19.5373 O   0  0  0  0  0  0  0  0  0  0  0  0
    8.7036  -17.4827   22.3003 C   0  0  0  0  0  0  0  0  0  0  0  0
    8.9779  -18.4811   23.0148 O   0  0  0  0  0  0  0  0  0  0  0  0
    5.8306  -17.2597   19.2213 O   0  0  0  0  0  0  0  0  0  0  0  0
    9.6581  -16.4540   22.2550 N   0  0  0  0  0  0  0  0  0  0  0  0
   10.9281  -16.4663   22.9666 C   0  0  1  0  0  0  0  0  0  0  0  0
   11.9744  -15.6659   22.2703 C   0  0  0  0  0  0  0  0  0  0  0  0
   12.5434  -16.4509   21.1564 C   0  0  0  0  0  0  0  0  0  0  0  0
   12.5910  -17.7196   21.1241 O   0  0  0  0  0  0  0  0  0  0  0  0
   10.7353  -16.0162   24.3747 C   0  0  0  0  0  0  0  0  0  0  0  0
   11.6841  -15.9119   25.1852 O   0  0  0  0  0  0  0  0  0  0  0  0
   13.0846  -15.8176   20.0265 O   0  0  0  0  0  0  0  0  0  0  0  0
    6.1544  -13.1833   26.2886 C   0  0  0  0  0  0  0  0  0  0  0  0
    7.2736  -13.8981   25.5777 C   0  0  1  0  0  0  0  0  0  0  0  0
    7.5564  -13.0960   24.3072 C   0  0  0  0  0  0  0  0  0  0  0  0
    8.5469  -13.9614   26.3549 C   0  0  0  0  0  0  0  0  0  0  0  0
    9.2656  -15.2909   26.2619 C   0  0  2  0  0  0  0  0  0  0  0  0
    9.4436  -15.6790   24.8677 N   0  0  0  0  0  0  0  0  0  0  0  0
    8.5918  -16.3752   26.9965 C   0  0  0  0  0  0  0  0  0  0  0  0
    8.0286  -17.2898   26.3290 O   0  0  0  0  0  0  0  0  0  0  0  0
    8.5463  -16.4412   28.3855 O   0  0  0  0  0  0  0  0  0  0  0  0
  2  1  1  6
  2  6  1  0
  2  3  1  0
  4  3  1  0
  5  4  2  0
  6  7  2  0
  8  4  1  0
  9 10  1  0
  9  6  1  0
 10 14  1  0
 10 11  1  6
 12 11  1  0
 13 12  2  0
 14 15  2  0
 16 12  1  0
 18 17  1  1
 18 19  1  0
 20 18  1  0
 21 20  1  6
 22 14  1  0
 22 21  1  0
 23 21  1  0
 24 23  2  0
 25 23  1  0
M  END
$$$$
