DDL.pdb
     RDKit          3D

 25 24  0  0  1  0  0  0  0  0999 V2000
    7.3656  -16.2802   19.3894 N   0  0  0  0  0  0  0  0  0  0  0  0
    8.2481  -15.4005   20.1352 C   0  0  1  0  0  0  0  0  0  0  0  0
    7.8795  -13.9577   19.9047 C   0  0  0  0  0  0  0  0  0  0  0  0
    8.0998  -13.5543   18.5084 C   0  0  0  0  0  0  0  0  0  0  0  0
    8.5595  -14.3325   17.6507 O   0  0  0  0  0  0  0  0  0  0  0  0
    8.2741  -15.7780   21.5497 C   0  0  0  0  0  0  0  0  0  0  0  0
    7.2594  -15.5448   22.2559 O   0  0  0  0  0  0  0  0  0  0  0  0
    7.7909  -12.2674   18.1141 O   0  0  0  0  0  0  0  0  0  0  0  0
    9.3639  -16.3908   22.1885 N   0  0  0  0  0  0  0  0  0  0  0  0
    9.3600  -16.8697   23.5634 C   0  0  1  0  0  0  0  0  0  0  0  0
   10.3138  -17.9950   23.7731 C   0  0  0  0  0  0  0  0  0  0  0  0
    9.9428  -19.1312   22.9058 C   0  0  0  0  0  0  0  0  0  0  0  0
    8.9138  -19.8561   23.0747 O   0  0  0  0  0  0  0  0  0  0  0  0
    9.6213  -15.7425   24.5034 C   0  0  0  0  0  0  0  0  0  0  0  0
   10.6020  -14.9739   24.3785 O   0  0  0  0  0  0  0  0  0  0  0  0
   10.7345  -19.4893   21.8033 O   0  0  0  0  0  0  0  0  0  0  0  0
    5.8587  -12.5188   26.6254 C   0  0  0  0  0  0  0  0  0  0  0  0
    7.1391  -13.1320   26.1220 C   0  0  1  0  0  0  0  0  0  0  0  0
    7.9784  -11.9799   25.5691 C   0  0  0  0  0  0  0  0  0  0  0  0
    7.9504  -13.8037   27.1802 C   0  0  0  0  0  0  0  0  0  0  0  0
    9.1526  -14.5597   26.6548 C   0  0  2  0  0  0  0  0  0  0  0  0
    8.7535  -15.4857   25.6016 N   0  0  0  0  0  0  0  0  0  0  0  0
    9.8920  -15.2869   27.7007 C   0  0  0  0  0  0  0  0  0  0  0  0
    9.8157  -16.5491   27.7192 O   0  0  0  0  0  0  0  0  0  0  0  0
   10.6684  -14.6532   28.6658 O   0  0  0  0  0  0  0  0  0  0  0  0
  2  1  1  6
  2  6  1  0
  2  3  1  0
  4  3  1  0
  5  4  2  0
  6  7  2  0
  8  4  1  0
  9 10  1  0
  9  6  1  0
 10 14  1  0
 10 11  1  6
 12 11  1  0
 13 12  2  0
 14 15  2  0
 16 12  1  0
 18 17  1  1
 18 19  1  0
 20 18  1  0
 21 20  1  1
 22 14  1  0
 22 21  1  0
 23 21  1  0
 24 23  2  0
 25 23  1  0
M  END
$$$$
