DDL.pdb
     RDKit          3D

 25 24  0  0  1  0  0  0  0  0999 V2000
    9.1738  -14.8972   19.9512 N   0  0  0  0  0  0  0  0  0  0  0  0
    7.8941  -15.0077   20.6286 C   0  0  1  0  0  0  0  0  0  0  0  0
    6.8956  -15.7331   19.7640 C   0  0  0  0  0  0  0  0  0  0  0  0
    7.5339  -16.3471   18.5907 C   0  0  0  0  0  0  0  0  0  0  0  0
    8.6935  -16.8021   18.6202 O   0  0  0  0  0  0  0  0  0  0  0  0
    8.0645  -15.6080   21.9534 C   0  0  0  0  0  0  0  0  0  0  0  0
    7.0625  -15.6998   22.7083 O   0  0  0  0  0  0  0  0  0  0  0  0
    6.8364  -16.4316   17.4018 O   0  0  0  0  0  0  0  0  0  0  0  0
    9.2821  -16.0969   22.4533 N   0  0  0  0  0  0  0  0  0  0  0  0
    9.4714  -16.6491   23.7870 C   0  0  1  0  0  0  0  0  0  0  0  0
   10.5361  -17.6909   23.8219 C   0  0  0  0  0  0  0  0  0  0  0  0
   10.1782  -18.8000   22.9149 C   0  0  0  0  0  0  0  0  0  0  0  0
   10.6459  -18.9479   21.7435 O   0  0  0  0  0  0  0  0  0  0  0  0
    9.7368  -15.5562   24.7655 C   0  0  0  0  0  0  0  0  0  0  0  0
   10.7208  -14.7878   24.6677 O   0  0  0  0  0  0  0  0  0  0  0  0
    9.2667  -19.7923   23.3091 O   0  0  0  0  0  0  0  0  0  0  0  0
    5.9320  -12.4358   26.3110 C   0  0  0  0  0  0  0  0  0  0  0  0
    7.3230  -12.9393   26.0274 C   0  0  1  0  0  0  0  0  0  0  0  0
    8.1234  -11.7338   25.5339 C   0  0  0  0  0  0  0  0  0  0  0  0
    8.0308  -13.4815   27.2250 C   0  0  0  0  0  0  0  0  0  0  0  0
    9.2201  -14.3600   26.8985 C   0  0  2  0  0  0  0  0  0  0  0  0
    8.8692  -15.3337   25.8714 N   0  0  0  0  0  0  0  0  0  0  0  0
    9.7763  -15.0553   28.0718 C   0  0  0  0  0  0  0  0  0  0  0  0
   10.2313  -14.3552   29.0217 O   0  0  0  0  0  0  0  0  0  0  0  0
    9.8240  -16.4412   28.1847 O   0  0  0  0  0  0  0  0  0  0  0  0
  2  1  1  6
  2  6  1  0
  2  3  1  0
  4  3  1  0
  5  4  2  0
  6  7  2  0
  8  4  1  0
  9 10  1  0
  9  6  1  0
 10 14  1  0
 10 11  1  6
 12 11  1  0
 13 12  2  0
 14 15  2  0
 16 12  1  0
 18 17  1  1
 18 19  1  0
 20 18  1  0
 21 20  1  1
 22 14  1  0
 22 21  1  0
 23 21  1  0
 24 23  2  0
 25 23  1  0
M  END
$$$$
