DDL.pdb
     RDKit          3D

 25 24  0  0  1  0  0  0  0  0999 V2000
    7.3158  -15.9887   18.7814 N   0  0  0  0  0  0  0  0  0  0  0  0
    8.2039  -15.2818   19.6871 C   0  0  1  0  0  0  0  0  0  0  0  0
    7.9964  -13.7930   19.5810 C   0  0  0  0  0  0  0  0  0  0  0  0
    8.4273  -13.2735   18.2750 C   0  0  0  0  0  0  0  0  0  0  0  0
    8.9299  -14.0011   17.3972 O   0  0  0  0  0  0  0  0  0  0  0  0
    8.0619  -15.7956   21.0509 C   0  0  0  0  0  0  0  0  0  0  0  0
    6.9056  -16.0022   21.5012 O   0  0  0  0  0  0  0  0  0  0  0  0
    8.2765  -11.9302   17.9927 O   0  0  0  0  0  0  0  0  0  0  0  0
    9.1365  -16.0799   21.9086 N   0  0  0  0  0  0  0  0  0  0  0  0
    9.0068  -16.6363   23.2477 C   0  0  1  0  0  0  0  0  0  0  0  0
    9.8124  -17.8772   23.4251 C   0  0  0  0  0  0  0  0  0  0  0  0
    9.6311  -18.7606   22.2557 C   0  0  0  0  0  0  0  0  0  0  0  0
    8.5479  -19.3591   21.9702 O   0  0  0  0  0  0  0  0  0  0  0  0
    9.3479  -15.6063   24.2700 C   0  0  0  0  0  0  0  0  0  0  0  0
   10.4507  -15.0132   24.2879 O   0  0  0  0  0  0  0  0  0  0  0  0
   10.6838  -18.9991   21.3582 O   0  0  0  0  0  0  0  0  0  0  0  0
    5.6604  -12.2455   26.4406 C   0  0  0  0  0  0  0  0  0  0  0  0
    6.9013  -12.9218   25.9195 C   0  0  1  0  0  0  0  0  0  0  0  0
    7.7857  -11.8139   25.3470 C   0  0  0  0  0  0  0  0  0  0  0  0
    7.6968  -13.6272   26.9677 C   0  0  0  0  0  0  0  0  0  0  0  0
    8.8512  -14.4440   26.4264 C   0  0  2  0  0  0  0  0  0  0  0  0
    8.4201  -15.2451   25.2868 N   0  0  0  0  0  0  0  0  0  0  0  0
    9.4788  -15.3143   27.4355 C   0  0  0  0  0  0  0  0  0  0  0  0
    9.9956  -14.7722   28.4545 O   0  0  0  0  0  0  0  0  0  0  0  0
    9.5294  -16.7000   27.3214 O   0  0  0  0  0  0  0  0  0  0  0  0
  2  1  1  6
  2  6  1  0
  2  3  1  0
  4  3  1  0
  5  4  2  0
  6  7  2  0
  8  4  1  0
  9 10  1  0
  9  6  1  0
 10 14  1  0
 10 11  1  6
 12 11  1  0
 13 12  2  0
 14 15  2  0
 16 12  1  0
 18 17  1  1
 18 19  1  0
 20 18  1  0
 21 20  1  1
 22 14  1  0
 22 21  1  0
 23 21  1  0
 24 23  2  0
 25 23  1  0
M  END
$$$$
