DDL.pdb
     RDKit          3D

 25 24  0  0  1  0  0  0  0  0999 V2000
   11.4601  -18.1899   21.2914 N   0  0  0  0  0  0  0  0  0  0  0  0
   10.5951  -17.0404   21.0935 C   0  0  1  0  0  0  0  0  0  0  0  0
    9.8106  -17.1792   19.8144 C   0  0  0  0  0  0  0  0  0  0  0  0
   10.6915  -17.3353   18.6479 C   0  0  0  0  0  0  0  0  0  0  0  0
   11.9298  -17.4279   18.7511 O   0  0  0  0  0  0  0  0  0  0  0  0
    9.7554  -16.8204   22.2728 C   0  0  0  0  0  0  0  0  0  0  0  0
    8.9052  -15.8937   22.2445 O   0  0  0  0  0  0  0  0  0  0  0  0
   10.1431  -17.3833   17.3815 O   0  0  0  0  0  0  0  0  0  0  0  0
    9.8285  -17.5781   23.4526 N   0  0  0  0  0  0  0  0  0  0  0  0
    8.9937  -17.3705   24.6271 C   0  0  1  0  0  0  0  0  0  0  0  0
    8.8842  -18.5964   25.4671 C   0  0  0  0  0  0  0  0  0  0  0  0
    8.2086  -19.6649   24.7037 C   0  0  0  0  0  0  0  0  0  0  0  0
    7.3994  -19.4604   23.7465 O   0  0  0  0  0  0  0  0  0  0  0  0
    9.4898  -16.2053   25.4137 C   0  0  0  0  0  0  0  0  0  0  0  0
   10.6905  -15.8500   25.4081 O   0  0  0  0  0  0  0  0  0  0  0  0
    8.4296  -21.0186   25.0023 O   0  0  0  0  0  0  0  0  0  0  0  0
    5.9517  -12.2006   26.6065 C   0  0  0  0  0  0  0  0  0  0  0  0
    7.1778  -12.9932   26.2357 C   0  0  1  0  0  0  0  0  0  0  0  0
    8.0159  -12.0890   25.3315 C   0  0  0  0  0  0  0  0  0  0  0  0
    8.0331  -13.3726   27.3991 C   0  0  0  0  0  0  0  0  0  0  0  0
    9.1255  -14.3677   27.0683 C   0  0  2  0  0  0  0  0  0  0  0  0
    8.6062  -15.4325   26.2182 N   0  0  0  0  0  0  0  0  0  0  0  0
    9.7678  -14.9517   28.2583 C   0  0  0  0  0  0  0  0  0  0  0  0
    9.6074  -16.1865   28.4790 O   0  0  0  0  0  0  0  0  0  0  0  0
   10.5405  -14.2118   29.1477 O   0  0  0  0  0  0  0  0  0  0  0  0
  2  1  1  1
  2  6  1  0
  2  3  1  0
  4  3  1  0
  5  4  2  0
  6  7  2  0
  8  4  1  0
  9 10  1  0
  9  6  1  0
 10 14  1  0
 10 11  1  1
 12 11  1  0
 13 12  2  0
 14 15  2  0
 16 12  1  0
 18 17  1  1
 18 19  1  0
 20 18  1  0
 21 20  1  1
 22 14  1  0
 22 21  1  0
 23 21  1  0
 24 23  2  0
 25 23  1  0
M  END
$$$$
