DDL.pdb
     RDKit          3D

 25 24  0  0  1  0  0  0  0  0999 V2000
    9.3745  -14.2083   19.6534 N   0  0  0  0  0  0  0  0  0  0  0  0
    8.0630  -14.2220   20.2767 C   0  0  1  0  0  0  0  0  0  0  0  0
    7.0085  -14.6462   19.2874 C   0  0  0  0  0  0  0  0  0  0  0  0
    7.2607  -15.9976   18.7667 C   0  0  0  0  0  0  0  0  0  0  0  0
    8.3200  -16.6147   18.9896 O   0  0  0  0  0  0  0  0  0  0  0  0
    8.0818  -15.0344   21.4949 C   0  0  0  0  0  0  0  0  0  0  0  0
    7.0556  -15.0565   22.2221 O   0  0  0  0  0  0  0  0  0  0  0  0
    6.2977  -16.6228   17.9993 O   0  0  0  0  0  0  0  0  0  0  0  0
    9.1769  -15.8035   21.9200 N   0  0  0  0  0  0  0  0  0  0  0  0
    9.2205  -16.5783   23.1518 C   0  0  1  0  0  0  0  0  0  0  0  0
   10.2095  -17.6908   23.0855 C   0  0  0  0  0  0  0  0  0  0  0  0
   10.7948  -17.7574   21.7313 C   0  0  0  0  0  0  0  0  0  0  0  0
   11.8214  -17.1079   21.3610 O   0  0  0  0  0  0  0  0  0  0  0  0
    9.4748  -15.6828   24.3162 C   0  0  0  0  0  0  0  0  0  0  0  0
   10.4852  -14.9471   24.3931 O   0  0  0  0  0  0  0  0  0  0  0  0
   10.2301  -18.5727   20.7377 O   0  0  0  0  0  0  0  0  0  0  0  0
    5.9391  -12.4386   26.4776 C   0  0  0  0  0  0  0  0  0  0  0  0
    7.2655  -13.0578   26.1226 C   0  0  1  0  0  0  0  0  0  0  0  0
    8.2820  -11.9158   26.1084 C   0  0  0  0  0  0  0  0  0  0  0  0
    7.7490  -14.0697   27.1082 C   0  0  0  0  0  0  0  0  0  0  0  0
    8.9202  -14.8982   26.6236 C   0  0  2  0  0  0  0  0  0  0  0  0
    8.5654  -15.6231   25.4092 N   0  0  0  0  0  0  0  0  0  0  0  0
    9.4297  -15.8416   27.6335 C   0  0  0  0  0  0  0  0  0  0  0  0
    9.2127  -17.0757   27.4623 O   0  0  0  0  0  0  0  0  0  0  0  0
   10.1368  -15.4409   28.7627 O   0  0  0  0  0  0  0  0  0  0  0  0
  2  1  1  6
  2  6  1  0
  2  3  1  0
  4  3  1  0
  5  4  2  0
  6  7  2  0
  8  4  1  0
  9 10  1  0
  9  6  1  0
 10 14  1  0
 10 11  1  6
 12 11  1  0
 13 12  2  0
 14 15  2  0
 16 12  1  0
 18 17  1  1
 18 19  1  0
 20 18  1  0
 21 20  1  1
 22 14  1  0
 22 21  1  0
 23 21  1  0
 24 23  2  0
 25 23  1  0
M  END
$$$$
