WVP.pdb
     RDKit          3D

 29 31  0  0  1  0  0  0  0  0999 V2000
   19.8748  -13.7368  -17.1444 N   0  0  0  0  0  0  0  0  0  0  0  0
   20.0972  -12.4079  -17.5936 C   0  0  1  0  0  0  0  0  0  0  0  0
   19.1552  -11.9533  -18.6668 C   0  0  0  0  0  0  0  0  0  0  0  0
   19.1989  -12.8454  -19.8441 C   0  0  0  0  0  0  0  0  0  0  0  0
   18.4145  -13.9625  -20.0398 C   0  0  0  0  0  0  0  0  0  0  0  0
   18.7293  -14.5429  -21.1914 N   0  0  0  0  0  0  0  0  0  0  0  0
   19.7184  -13.8332  -21.7815 C   0  0  0  0  0  0  0  0  0  0  0  0
   20.3850  -14.0058  -22.9682 C   0  0  0  0  0  0  0  0  0  0  0  0
   21.3587  -13.1359  -23.3573 C   0  0  0  0  0  0  0  0  0  0  0  0
   21.6613  -12.0846  -22.5430 C   0  0  0  0  0  0  0  0  0  0  0  0
   21.0149  -11.8808  -21.3483 C   0  0  0  0  0  0  0  0  0  0  0  0
   20.0224  -12.7665  -20.9485 C   0  0  0  0  0  0  0  0  0  0  0  0
   20.1573  -11.4448  -16.4565 C   0  0  0  0  0  0  0  0  0  0  0  0
   19.3207  -11.5868  -15.5284 O   0  0  0  0  0  0  0  0  0  0  0  0
   23.5249   -9.0776  -15.7192 C   0  0  0  0  0  0  0  0  0  0  0  0
   22.4812   -9.4359  -14.7110 C   0  0  2  0  0  0  0  0  0  0  0  0
   22.7954  -10.7348  -13.9940 C   0  0  0  0  0  0  0  0  0  0  0  0
   21.0506   -9.4218  -15.2294 C   0  0  2  0  0  0  0  0  0  0  0  0
   21.0805  -10.4037  -16.3613 N   0  0  0  0  0  0  0  0  0  0  0  0
   20.6089   -8.1395  -15.7580 C   0  0  0  0  0  0  0  0  0  0  0  0
   21.3472   -7.5940  -16.6566 O   0  0  0  0  0  0  0  0  0  0  0  0
   19.4428   -7.4192  -15.3931 N   0  0  0  0  0  0  0  0  0  0  0  0
   18.2811   -7.8815  -14.6644 C   0  0  0  0  0  0  0  0  0  0  0  0
   17.9667   -6.6680  -13.7922 C   0  0  0  0  0  0  0  0  0  0  0  0
   17.9640   -5.6070  -14.9096 C   0  0  0  0  0  0  0  0  0  0  0  0
   19.1569   -6.0504  -15.7743 C   0  0  1  0  0  0  0  0  0  0  0  0
   20.2943   -5.1269  -15.5566 C   0  0  0  0  0  0  0  0  0  0  0  0
   21.3683   -5.5479  -14.7981 O   0  0  0  0  0  0  0  0  0  0  0  0
   20.3119   -3.9792  -16.0377 O   0  0  0  0  0  0  0  0  0  0  0  0
  2  1  1  1
  2  3  1  0
  2 13  1  0
  4 12  1  0
  4  3  1  0
  5  4  2  0
  6  5  1  0
  6  7  1  0
  7  8  1  0
  7 12  2  0
  8  9  2  0
  9 10  1  0
 11 10  2  0
 12 11  1  0
 13 14  2  0
 16 18  1  0
 16 15  1  6
 17 16  1  0
 19 13  1  0
 18 19  1  6
 20 18  1  0
 20 21  2  0
 22 26  1  0
 22 20  1  0
 23 22  1  0
 24 23  1  0
 24 25  1  0
 25 26  1  0
 26 27  1  1
 27 29  2  0
 27 28  1  0
M  END
$$$$
