WVP.pdb
     RDKit          3D

 29 31  0  0  1  0  0  0  0  0999 V2000
   24.3280  -19.8945  -10.9957 N   0  0  0  0  0  0  0  0  0  0  0  0
   25.6784  -20.2691  -11.2265 C   0  0  1  0  0  0  0  0  0  0  0  0
   26.1992  -21.3119  -10.2846 C   0  0  0  0  0  0  0  0  0  0  0  0
   26.2825  -20.8027   -8.8999 C   0  0  0  0  0  0  0  0  0  0  0  0
   25.2117  -20.5114   -8.0812 C   0  0  0  0  0  0  0  0  0  0  0  0
   25.6442  -20.0541   -6.9125 N   0  0  0  0  0  0  0  0  0  0  0  0
   26.9968  -20.0314   -6.9265 C   0  0  0  0  0  0  0  0  0  0  0  0
   27.9149  -19.6544   -5.9792 C   0  0  0  0  0  0  0  0  0  0  0  0
   29.2518  -19.7297   -6.2308 C   0  0  0  0  0  0  0  0  0  0  0  0
   29.6645  -20.1889   -7.4469 C   0  0  0  0  0  0  0  0  0  0  0  0
   28.7740  -20.5747   -8.4188 C   0  0  0  0  0  0  0  0  0  0  0  0
   27.4104  -20.4982   -8.1655 C   0  0  0  0  0  0  0  0  0  0  0  0
   25.9122  -20.6361  -12.6530 C   0  0  0  0  0  0  0  0  0  0  0  0
   25.0229  -21.3089  -13.2344 O   0  0  0  0  0  0  0  0  0  0  0  0
   26.7372  -17.6807  -14.7607 C   0  0  0  0  0  0  0  0  0  0  0  0
   27.6135  -18.8236  -15.1610 C   0  0  2  0  0  0  0  0  0  0  0  0
   28.0870  -18.7103  -16.5973 C   0  0  0  0  0  0  0  0  0  0  0  0
   27.0447  -20.2053  -14.8729 C   0  0  2  0  0  0  0  0  0  0  0  0
   27.0502  -20.2792  -13.3760 N   0  0  0  0  0  0  0  0  0  0  0  0
   27.8457  -21.3096  -15.3807 C   0  0  0  0  0  0  0  0  0  0  0  0
   29.1217  -21.1954  -15.2868 O   0  0  0  0  0  0  0  0  0  0  0  0
   27.3726  -22.5104  -15.9687 N   0  0  0  0  0  0  0  0  0  0  0  0
   26.0309  -23.0528  -15.9714 C   0  0  0  0  0  0  0  0  0  0  0  0
   25.9354  -23.6207  -17.3859 C   0  0  0  0  0  0  0  0  0  0  0  0
   27.2382  -24.4433  -17.3654 C   0  0  0  0  0  0  0  0  0  0  0  0
   28.2033  -23.4955  -16.6323 C   0  0  1  0  0  0  0  0  0  0  0  0
   29.1525  -22.9081  -17.6059 C   0  0  0  0  0  0  0  0  0  0  0  0
   30.3584  -23.5397  -17.8363 O   0  0  0  0  0  0  0  0  0  0  0  0
   28.8959  -21.8594  -18.2249 O   0  0  0  0  0  0  0  0  0  0  0  0
  2  1  1  6
  2  3  1  0
  2 13  1  0
  4 12  1  0
  4  3  1  0
  5  4  2  0
  6  5  1  0
  6  7  1  0
  7  8  1  0
  7 12  2  0
  8  9  2  0
  9 10  1  0
 11 10  2  0
 12 11  1  0
 13 14  2  0
 16 18  1  0
 16 15  1  6
 17 16  1  0
 19 13  1  0
 18 19  1  1
 20 18  1  0
 20 21  2  0
 22 26  1  0
 22 20  1  0
 23 22  1  0
 24 23  1  0
 24 25  1  0
 25 26  1  0
 26 27  1  6
 27 29  2  0
 27 28  1  0
M  END
$$$$
