WVP.pdb
     RDKit          3D

 29 31  0  0  1  0  0  0  0  0999 V2000
   23.2374  -21.7761  -17.9990 N   0  0  0  0  0  0  0  0  0  0  0  0
   23.0352  -21.1794  -16.7261 C   0  0  1  0  0  0  0  0  0  0  0  0
   21.8936  -21.7589  -15.9473 C   0  0  0  0  0  0  0  0  0  0  0  0
   21.1211  -20.7095  -15.2502 C   0  0  0  0  0  0  0  0  0  0  0  0
   20.3418  -19.7454  -15.8541 C   0  0  0  0  0  0  0  0  0  0  0  0
   19.8079  -18.9508  -14.9345 N   0  0  0  0  0  0  0  0  0  0  0  0
   20.2145  -19.3636  -13.7120 C   0  0  0  0  0  0  0  0  0  0  0  0
   19.9459  -18.8927  -12.4517 C   0  0  0  0  0  0  0  0  0  0  0  0
   20.4788  -19.4938  -11.3513 C   0  0  0  0  0  0  0  0  0  0  0  0
   21.2881  -20.5778  -11.5245 C   0  0  0  0  0  0  0  0  0  0  0  0
   21.5788  -21.0763  -12.7709 C   0  0  0  0  0  0  0  0  0  0  0  0
   21.0377  -20.4650  -13.8947 C   0  0  0  0  0  0  0  0  0  0  0  0
   24.2950  -21.1417  -15.9289 C   0  0  0  0  0  0  0  0  0  0  0  0
   24.9584  -22.2062  -15.8378 O   0  0  0  0  0  0  0  0  0  0  0  0
   28.0528  -18.5728  -14.0982 C   0  0  0  0  0  0  0  0  0  0  0  0
   26.7505  -18.7782  -14.8024 C   0  0  2  0  0  0  0  0  0  0  0  0
   25.8522  -17.5591  -14.7186 C   0  0  0  0  0  0  0  0  0  0  0  0
   26.0011  -20.0455  -14.4177 C   0  0  2  0  0  0  0  0  0  0  0  0
   24.7785  -20.0038  -15.2836 N   0  0  0  0  0  0  0  0  0  0  0  0
   25.5673  -20.0965  -13.0292 C   0  0  0  0  0  0  0  0  0  0  0  0
   24.6967  -19.2278  -12.6583 O   0  0  0  0  0  0  0  0  0  0  0  0
   25.9974  -21.0079  -12.0311 N   0  0  0  0  0  0  0  0  0  0  0  0
   26.7566  -22.2303  -12.1844 C   0  0  0  0  0  0  0  0  0  0  0  0
   27.6750  -22.1726  -10.9655 C   0  0  0  0  0  0  0  0  0  0  0  0
   26.5896  -21.9151   -9.9025 C   0  0  0  0  0  0  0  0  0  0  0  0
   25.6672  -20.9163  -10.6228 C   0  0  1  0  0  0  0  0  0  0  0  0
   25.8676  -19.5627  -10.0560 C   0  0  0  0  0  0  0  0  0  0  0  0
   25.1982  -19.2099   -8.9011 O   0  0  0  0  0  0  0  0  0  0  0  0
   26.6231  -18.7305  -10.5903 O   0  0  0  0  0  0  0  0  0  0  0  0
  2  1  1  6
  2  3  1  0
  2 13  1  0
  4 12  1  0
  4  3  1  0
  5  4  2  0
  6  5  1  0
  6  7  1  0
  7  8  1  0
  7 12  2  0
  8  9  2  0
  9 10  1  0
 11 10  2  0
 12 11  1  0
 13 14  2  0
 16 18  1  0
 16 15  1  1
 17 16  1  0
 19 13  1  0
 18 19  1  6
 20 18  1  0
 20 21  2  0
 22 26  1  0
 22 20  1  0
 23 22  1  0
 24 23  1  0
 24 25  1  0
 25 26  1  0
 26 27  1  1
 27 29  2  0
 27 28  1  0
M  END
$$$$
