WVP.pdb
     RDKit          3D

 29 31  0  0  1  0  0  0  0  0999 V2000
   23.1491  -18.2305  -15.3015 N   0  0  0  0  0  0  0  0  0  0  0  0
   24.4498  -18.2061  -14.7316 C   0  0  1  0  0  0  0  0  0  0  0  0
   25.0761  -16.8456  -14.6811 C   0  0  0  0  0  0  0  0  0  0  0  0
   25.7735  -16.5195  -15.9425 C   0  0  0  0  0  0  0  0  0  0  0  0
   25.3132  -15.6642  -16.9214 C   0  0  0  0  0  0  0  0  0  0  0  0
   26.1771  -15.6188  -17.9282 N   0  0  0  0  0  0  0  0  0  0  0  0
   27.2199  -16.4328  -17.6453 C   0  0  0  0  0  0  0  0  0  0  0  0
   28.3618  -16.7325  -18.3443 C   0  0  0  0  0  0  0  0  0  0  0  0
   29.2868  -17.5950  -17.8376 C   0  0  0  0  0  0  0  0  0  0  0  0
   29.0575  -18.1585  -16.6170 C   0  0  0  0  0  0  0  0  0  0  0  0
   27.9258  -17.8818  -15.8896 C   0  0  0  0  0  0  0  0  0  0  0  0
   26.9805  -17.0035  -16.4039 C   0  0  0  0  0  0  0  0  0  0  0  0
   24.4830  -18.8873  -13.4053 C   0  0  0  0  0  0  0  0  0  0  0  0
   23.5102  -18.7007  -12.6304 O   0  0  0  0  0  0  0  0  0  0  0  0
   23.8685  -22.1686  -12.9211 C   0  0  0  0  0  0  0  0  0  0  0  0
   25.1851  -21.9459  -12.2493 C   0  0  2  0  0  0  0  0  0  0  0  0
   25.4680  -22.9827  -11.1792 C   0  0  0  0  0  0  0  0  0  0  0  0
   25.4132  -20.5349  -11.7271 C   0  0  2  0  0  0  0  0  0  0  0  0
   25.5210  -19.7142  -12.9765 N   0  0  0  0  0  0  0  0  0  0  0  0
   26.6420  -20.3602  -10.9667 C   0  0  0  0  0  0  0  0  0  0  0  0
   27.7435  -20.6352  -11.5678 O   0  0  0  0  0  0  0  0  0  0  0  0
   26.7627  -19.9123   -9.6263 N   0  0  0  0  0  0  0  0  0  0  0  0
   25.7544  -19.3228   -8.7719 C   0  0  0  0  0  0  0  0  0  0  0  0
   26.0858  -19.9621   -7.4251 C   0  0  0  0  0  0  0  0  0  0  0  0
   27.5900  -19.6284   -7.4038 C   0  0  0  0  0  0  0  0  0  0  0  0
   27.9958  -19.8882   -8.8650 C   0  0  1  0  0  0  0  0  0  0  0  0
   28.7649  -21.1514   -8.9462 C   0  0  0  0  0  0  0  0  0  0  0  0
   30.0578  -21.1853   -8.4631 O   0  0  0  0  0  0  0  0  0  0  0  0
   28.2802  -22.1868   -9.4381 O   0  0  0  0  0  0  0  0  0  0  0  0
  2  1  1  1
  2  3  1  0
  2 13  1  0
  4 12  1  0
  4  3  1  0
  5  4  2  0
  6  5  1  0
  6  7  1  0
  7  8  1  0
  7 12  2  0
  8  9  2  0
  9 10  1  0
 11 10  2  0
 12 11  1  0
 13 14  2  0
 16 18  1  0
 16 15  1  1
 17 16  1  0
 19 13  1  0
 18 19  1  6
 20 18  1  0
 20 21  2  0
 22 26  1  0
 22 20  1  0
 23 22  1  0
 24 23  1  0
 24 25  1  0
 25 26  1  0
 26 27  1  1
 27 29  2  0
 27 28  1  0
M  END
$$$$
