WVP.pdb
     RDKit          3D

 29 31  0  0  1  0  0  0  0  0999 V2000
   24.8784  -20.9947   -8.7809 N   0  0  0  0  0  0  0  0  0  0  0  0
   26.0441  -20.5164   -9.4363 C   0  0  1  0  0  0  0  0  0  0  0  0
   27.3267  -20.8536   -8.7385 C   0  0  0  0  0  0  0  0  0  0  0  0
   27.4448  -20.1492   -7.4448 C   0  0  0  0  0  0  0  0  0  0  0  0
   26.5635  -19.2087   -6.9545 C   0  0  0  0  0  0  0  0  0  0  0  0
   26.9832  -18.7630   -5.7767 N   0  0  0  0  0  0  0  0  0  0  0  0
   28.1395  -19.3897   -5.4599 C   0  0  0  0  0  0  0  0  0  0  0  0
   28.9623  -19.2928   -4.3663 C   0  0  0  0  0  0  0  0  0  0  0  0
   30.0917  -20.0488   -4.2705 C   0  0  0  0  0  0  0  0  0  0  0  0
   30.3923  -20.9085   -5.2857 C   0  0  0  0  0  0  0  0  0  0  0  0
   29.5921  -21.0315   -6.3952 C   0  0  0  0  0  0  0  0  0  0  0  0
   28.4404  -20.2615   -6.4960 C   0  0  0  0  0  0  0  0  0  0  0  0
   26.0686  -20.9109  -10.8744 C   0  0  0  0  0  0  0  0  0  0  0  0
   26.4802  -22.0657  -11.1544 O   0  0  0  0  0  0  0  0  0  0  0  0
   23.4288  -21.7010  -12.7831 C   0  0  0  0  0  0  0  0  0  0  0  0
   24.1478  -20.7037  -13.6333 C   0  0  2  0  0  0  0  0  0  0  0  0
   23.8955  -20.9206  -15.1130 C   0  0  0  0  0  0  0  0  0  0  0  0
   25.6339  -20.5576  -13.3406 C   0  0  2  0  0  0  0  0  0  0  0  0
   25.6640  -20.0813  -11.9199 N   0  0  0  0  0  0  0  0  0  0  0  0
   26.3200  -19.5700  -14.1607 C   0  0  0  0  0  0  0  0  0  0  0  0
   25.7631  -18.4179  -14.2738 O   0  0  0  0  0  0  0  0  0  0  0  0
   27.5474  -19.7354  -14.8521 N   0  0  0  0  0  0  0  0  0  0  0  0
   28.5602  -20.7534  -14.6729 C   0  0  0  0  0  0  0  0  0  0  0  0
   28.9813  -21.0206  -16.1164 C   0  0  0  0  0  0  0  0  0  0  0  0
   29.2386  -19.5586  -16.5294 C   0  0  0  0  0  0  0  0  0  0  0  0
   28.0688  -18.8242  -15.8514 C   0  0  1  0  0  0  0  0  0  0  0  0
   27.0708  -18.4358  -16.8746 C   0  0  0  0  0  0  0  0  0  0  0  0
   27.2429  -17.2555  -17.5697 O   0  0  0  0  0  0  0  0  0  0  0  0
   26.0785  -19.1429  -17.1281 O   0  0  0  0  0  0  0  0  0  0  0  0
  2  1  1  1
  2  3  1  0
  2 13  1  0
  4 12  1  0
  4  3  1  0
  5  4  2  0
  6  5  1  0
  6  7  1  0
  7  8  1  0
  7 12  2  0
  8  9  2  0
  9 10  1  0
 11 10  2  0
 12 11  1  0
 13 14  2  0
 16 18  1  0
 16 15  1  1
 17 16  1  0
 19 13  1  0
 18 19  1  1
 20 18  1  0
 20 21  2  0
 22 26  1  0
 22 20  1  0
 23 22  1  0
 24 23  1  0
 24 25  1  0
 25 26  1  0
 26 27  1  6
 27 29  2  0
 27 28  1  0
M  END
$$$$
