WVP.pdb
     RDKit          3D

 29 31  0  0  1  0  0  0  0  0999 V2000
   25.8476  -20.5040  -12.9654 N   0  0  0  0  0  0  0  0  0  0  0  0
   25.2528  -20.6611  -11.6852 C   0  0  1  0  0  0  0  0  0  0  0  0
   23.9803  -21.4525  -11.6889 C   0  0  0  0  0  0  0  0  0  0  0  0
   22.8010  -20.5874  -11.9002 C   0  0  0  0  0  0  0  0  0  0  0  0
   22.4316  -20.0039  -13.0938 C   0  0  0  0  0  0  0  0  0  0  0  0
   21.3363  -19.2736  -12.9229 N   0  0  0  0  0  0  0  0  0  0  0  0
   20.9562  -19.3540  -11.6271 C   0  0  0  0  0  0  0  0  0  0  0  0
   19.9027  -18.7973  -10.9470 C   0  0  0  0  0  0  0  0  0  0  0  0
   19.7227  -19.0362   -9.6178 C   0  0  0  0  0  0  0  0  0  0  0  0
   20.6122  -19.8428   -8.9710 C   0  0  0  0  0  0  0  0  0  0  0  0
   21.6781  -20.4167   -9.6197 C   0  0  0  0  0  0  0  0  0  0  0  0
   21.8647  -20.1743  -10.9746 C   0  0  0  0  0  0  0  0  0  0  0  0
   26.2299  -21.1765  -10.6833 C   0  0  0  0  0  0  0  0  0  0  0  0
   26.6204  -22.3653  -10.8090 O   0  0  0  0  0  0  0  0  0  0  0  0
   30.2825  -21.4815   -8.9610 C   0  0  0  0  0  0  0  0  0  0  0  0
   29.0612  -20.8733   -9.5717 C   0  0  2  0  0  0  0  0  0  0  0  0
   29.3067  -19.4600  -10.0639 C   0  0  0  0  0  0  0  0  0  0  0  0
   27.8045  -20.9515   -8.7171 C   0  0  2  0  0  0  0  0  0  0  0  0
   26.7337  -20.4235   -9.6231 N   0  0  0  0  0  0  0  0  0  0  0  0
   27.8310  -20.1222   -7.5211 C   0  0  0  0  0  0  0  0  0  0  0  0
   27.5685  -18.8738   -7.6716 O   0  0  0  0  0  0  0  0  0  0  0  0
   28.1121  -20.5409   -6.1954 N   0  0  0  0  0  0  0  0  0  0  0  0
   28.3180  -21.8817   -5.6913 C   0  0  0  0  0  0  0  0  0  0  0  0
   29.4432  -21.6579   -4.6832 C   0  0  0  0  0  0  0  0  0  0  0  0
   28.7955  -20.4948   -3.9073 C   0  0  0  0  0  0  0  0  0  0  0  0
   28.1640  -19.6671   -5.0402 C   0  0  1  0  0  0  0  0  0  0  0  0
   28.9662  -18.4419   -5.2622 C   0  0  0  0  0  0  0  0  0  0  0  0
   28.8360  -17.3834   -4.3853 O   0  0  0  0  0  0  0  0  0  0  0  0
   29.7565  -18.3365   -6.2178 O   0  0  0  0  0  0  0  0  0  0  0  0
  2  1  1  6
  2  3  1  0
  2 13  1  0
  4 12  1  0
  4  3  1  0
  5  4  2  0
  6  5  1  0
  6  7  1  0
  7  8  1  0
  7 12  2  0
  8  9  2  0
  9 10  1  0
 11 10  2  0
 12 11  1  0
 13 14  2  0
 16 18  1  0
 16 15  1  1
 17 16  1  0
 19 13  1  0
 18 19  1  6
 20 18  1  0
 20 21  2  0
 22 26  1  0
 22 20  1  0
 23 22  1  0
 24 23  1  0
 24 25  1  0
 25 26  1  0
 26 27  1  6
 27 29  2  0
 27 28  1  0
M  END
$$$$
