WVP.pdb
     RDKit          3D

 29 31  0  0  1  0  0  0  0  0999 V2000
   26.8833  -22.2137  -14.0713 N   0  0  0  0  0  0  0  0  0  0  0  0
   26.3842  -20.8845  -14.0341 C   0  0  1  0  0  0  0  0  0  0  0  0
   27.3378  -19.8832  -13.4563 C   0  0  0  0  0  0  0  0  0  0  0  0
   27.6591  -20.1872  -12.0463 C   0  0  0  0  0  0  0  0  0  0  0  0
   28.9075  -20.5030  -11.5529 C   0  0  0  0  0  0  0  0  0  0  0  0
   28.8344  -20.7395  -10.2488 N   0  0  0  0  0  0  0  0  0  0  0  0
   27.5508  -20.5879   -9.8492 C   0  0  0  0  0  0  0  0  0  0  0  0
   26.9552  -20.7120   -8.6195 C   0  0  0  0  0  0  0  0  0  0  0  0
   25.6187  -20.4979   -8.4641 C   0  0  0  0  0  0  0  0  0  0  0  0
   24.8786  -20.1560   -9.5575 C   0  0  0  0  0  0  0  0  0  0  0  0
   25.4411  -20.0229  -10.8034 C   0  0  0  0  0  0  0  0  0  0  0  0
   26.8033  -20.2414  -10.9651 C   0  0  0  0  0  0  0  0  0  0  0  0
   25.8591  -20.4558  -15.3625 C   0  0  0  0  0  0  0  0  0  0  0  0
   26.4518  -20.8800  -16.3873 O   0  0  0  0  0  0  0  0  0  0  0  0
   21.8963  -19.5926  -15.8750 C   0  0  0  0  0  0  0  0  0  0  0  0
   22.8747  -20.0278  -16.9180 C   0  0  2  0  0  0  0  0  0  0  0  0
   23.0658  -21.5322  -16.9360 C   0  0  0  0  0  0  0  0  0  0  0  0
   24.2110  -19.3002  -16.8937 C   0  0  2  0  0  0  0  0  0  0  0  0
   24.7566  -19.6192  -15.5347 N   0  0  0  0  0  0  0  0  0  0  0  0
   24.1164  -17.8525  -17.0119 C   0  0  0  0  0  0  0  0  0  0  0  0
   23.3743  -17.2452  -16.1572 O   0  0  0  0  0  0  0  0  0  0  0  0
   24.7600  -17.0282  -17.9700 N   0  0  0  0  0  0  0  0  0  0  0  0
   25.7955  -17.3774  -18.9187 C   0  0  0  0  0  0  0  0  0  0  0  0
   25.3654  -16.5772  -20.1463 C   0  0  0  0  0  0  0  0  0  0  0  0
   25.2035  -15.2101  -19.4541 C   0  0  0  0  0  0  0  0  0  0  0  0
   24.5438  -15.6030  -18.1208 C   0  0  1  0  0  0  0  0  0  0  0  0
   23.1126  -15.2223  -18.1476 C   0  0  0  0  0  0  0  0  0  0  0  0
   22.7534  -13.9287  -17.8258 O   0  0  0  0  0  0  0  0  0  0  0  0
   22.2208  -16.0352  -18.4521 O   0  0  0  0  0  0  0  0  0  0  0  0
  2  1  1  6
  2  3  1  0
  2 13  1  0
  4 12  1  0
  4  3  1  0
  5  4  2  0
  6  5  1  0
  6  7  1  0
  7  8  1  0
  7 12  2  0
  8  9  2  0
  9 10  1  0
 11 10  2  0
 12 11  1  0
 13 14  2  0
 16 18  1  0
 16 15  1  1
 17 16  1  0
 19 13  1  0
 18 19  1  1
 20 18  1  0
 20 21  2  0
 22 26  1  0
 22 20  1  0
 23 22  1  0
 24 23  1  0
 24 25  1  0
 25 26  1  0
 26 27  1  6
 27 29  2  0
 27 28  1  0
M  END
$$$$
