WVP.pdb
     RDKit          3D

 29 31  0  0  1  0  0  0  0  0999 V2000
   25.6466  -20.8666  -12.7519 N   0  0  0  0  0  0  0  0  0  0  0  0
   25.2156  -20.7653  -11.4024 C   0  0  1  0  0  0  0  0  0  0  0  0
   23.9179  -21.4576  -11.1153 C   0  0  0  0  0  0  0  0  0  0  0  0
   22.7675  -20.7069  -11.6601 C   0  0  0  0  0  0  0  0  0  0  0  0
   22.4952  -20.5056  -12.9969 C   0  0  0  0  0  0  0  0  0  0  0  0
   21.3984  -19.7701  -13.1315 N   0  0  0  0  0  0  0  0  0  0  0  0
   20.9212  -19.4693  -11.9019 C   0  0  0  0  0  0  0  0  0  0  0  0
   19.8259  -18.7490  -11.4972 C   0  0  0  0  0  0  0  0  0  0  0  0
   19.5440  -18.5874  -10.1740 C   0  0  0  0  0  0  0  0  0  0  0  0
   20.3735  -19.1571   -9.2534 C   0  0  0  0  0  0  0  0  0  0  0  0
   21.4787  -19.8844   -9.6222 C   0  0  0  0  0  0  0  0  0  0  0  0
   21.7691  -20.0501  -10.9704 C   0  0  0  0  0  0  0  0  0  0  0  0
   26.2890  -21.1701  -10.4494 C   0  0  0  0  0  0  0  0  0  0  0  0
   26.5239  -22.3992  -10.3249 O   0  0  0  0  0  0  0  0  0  0  0  0
   29.5401  -21.1232  -10.8651 C   0  0  0  0  0  0  0  0  0  0  0  0
   29.4060  -20.4180   -9.5540 C   0  0  2  0  0  0  0  0  0  0  0  0
   30.6384  -20.5793   -8.6850 C   0  0  0  0  0  0  0  0  0  0  0  0
   28.1359  -20.7341   -8.7776 C   0  0  2  0  0  0  0  0  0  0  0  0
   27.0435  -20.2727   -9.6941 N   0  0  0  0  0  0  0  0  0  0  0  0
   27.9997  -20.0166   -7.5185 C   0  0  0  0  0  0  0  0  0  0  0  0
   27.6134  -18.7932   -7.5836 O   0  0  0  0  0  0  0  0  0  0  0  0
   28.2430  -20.5211   -6.2154 N   0  0  0  0  0  0  0  0  0  0  0  0
   28.5145  -21.8819   -5.8048 C   0  0  0  0  0  0  0  0  0  0  0  0
   29.5709  -21.6679   -4.7228 C   0  0  0  0  0  0  0  0  0  0  0  0
   28.8083  -20.6142   -3.8967 C   0  0  0  0  0  0  0  0  0  0  0  0
   28.1785  -19.7408   -4.9956 C   0  0  1  0  0  0  0  0  0  0  0  0
   28.9054  -18.4530   -5.0793 C   0  0  0  0  0  0  0  0  0  0  0  0
   28.6311  -17.4633   -4.1566 O   0  0  0  0  0  0  0  0  0  0  0  0
   29.7587  -18.2346   -5.9585 O   0  0  0  0  0  0  0  0  0  0  0  0
  2  1  1  6
  2  3  1  0
  2 13  1  0
  4 12  1  0
  4  3  1  0
  5  4  2  0
  6  5  1  0
  6  7  1  0
  7  8  1  0
  7 12  2  0
  8  9  2  0
  9 10  1  0
 11 10  2  0
 12 11  1  0
 13 14  2  0
 16 18  1  0
 16 15  1  6
 17 16  1  0
 19 13  1  0
 18 19  1  6
 20 18  1  0
 20 21  2  0
 22 26  1  0
 22 20  1  0
 23 22  1  0
 24 23  1  0
 24 25  1  0
 25 26  1  0
 26 27  1  6
 27 29  2  0
 27 28  1  0
M  END
$$$$
