AQY.pdb
     RDKit          3D

 27 27  0  0  1  0  0  0  0  0999 V2000
    6.3459  -18.7445   24.8057 C   0  0  0  0  0  0  0  0  0  0  0  0
    5.9869  -18.7798   23.3379 C   0  0  2  0  0  0  0  0  0  0  0  0
    5.6074  -20.1095   23.0015 N   0  0  0  0  0  0  0  0  0  0  0  0
    7.0962  -18.2569   22.4986 C   0  0  0  0  0  0  0  0  0  0  0  0
    8.0485  -18.9927   22.1334 O   0  0  0  0  0  0  0  0  0  0  0  0
    6.5538  -12.9497   19.0600 N   0  0  0  0  0  0  0  0  0  0  0  0
    7.8608  -13.3747   18.7950 C   0  0  0  0  0  0  0  0  0  0  0  0
    8.5593  -12.8159   17.9391 O   0  0  0  0  0  0  0  0  0  0  0  0
    8.4680  -14.5305   19.5430 C   0  0  0  0  0  0  0  0  0  0  0  0
    7.4988  -15.0894   20.5420 C   0  0  0  0  0  0  0  0  0  0  0  0
    8.0557  -16.2944   21.2079 C   0  0  2  0  0  0  0  0  0  0  0  0
    7.0830  -16.9148   22.1044 N   0  0  0  0  0  0  0  0  0  0  0  0
    9.2216  -15.9508   22.0502 C   0  0  0  0  0  0  0  0  0  0  0  0
   10.3499  -15.5965   21.5957 O   0  0  0  0  0  0  0  0  0  0  0  0
    5.2110  -12.5066   26.6116 O   0  0  0  0  0  0  0  0  0  0  0  0
    6.4530  -12.9478   26.1505 C   0  0  0  0  0  0  0  0  0  0  0  0
    7.0753  -12.3294   25.0873 C   0  0  0  0  0  0  0  0  0  0  0  0
    8.3000  -12.7728   24.6413 C   0  0  0  0  0  0  0  0  0  0  0  0
    8.9644  -13.8529   25.2316 C   0  0  0  0  0  0  0  0  0  0  0  0
   10.2698  -14.2815   24.6936 C   0  0  0  0  0  0  0  0  0  0  0  0
   10.2594  -15.7516   24.3576 C   0  0  2  0  0  0  0  0  0  0  0  0
    9.1329  -16.0028   23.4816 N   0  0  0  0  0  0  0  0  0  0  0  0
   10.0703  -16.6028   25.5507 C   0  0  0  0  0  0  0  0  0  0  0  0
   11.0255  -16.7249   26.5582 O   0  0  0  0  0  0  0  0  0  0  0  0
    8.3306  -14.4611   26.2925 C   0  0  0  0  0  0  0  0  0  0  0  0
    7.0955  -14.0126   26.7414 C   0  0  0  0  0  0  0  0  0  0  0  0
    9.0154  -17.2592   25.6967 O   0  0  0  0  0  0  0  0  0  0  0  0
  2  1  1  1
  2  3  1  0
  4  5  2  0
  4  2  1  0
  7  6  1  0
  7  9  1  0
  8  7  2  0
 11 10  1  1
 10  9  1  0
 11 12  1  0
 12  4  1  0
 13 11  1  0
 13 14  2  0
 15 16  1  0
 16 17  2  0
 16 26  1  0
 17 18  1  0
 18 19  2  0
 19 20  1  0
 21 20  1  1
 21 22  1  0
 22 13  1  0
 23 21  1  0
 23 24  1  0
 25 19  1  0
 26 25  2  0
 27 23  2  0
M  END
$$$$
