AQY.pdb
     RDKit          3D

 27 27  0  0  1  0  0  0  0  0999 V2000
    9.6828  -19.4739   18.4788 C   0  0  0  0  0  0  0  0  0  0  0  0
    9.4255  -19.0702   19.9125 C   0  0  2  0  0  0  0  0  0  0  0  0
    8.0185  -18.9874   20.1089 N   0  0  0  0  0  0  0  0  0  0  0  0
   10.1400  -17.8130   20.2553 C   0  0  0  0  0  0  0  0  0  0  0  0
   11.3941  -17.7336   20.2036 O   0  0  0  0  0  0  0  0  0  0  0  0
    7.7567  -12.4126   18.8751 N   0  0  0  0  0  0  0  0  0  0  0  0
    7.9406  -13.6582   18.2639 C   0  0  0  0  0  0  0  0  0  0  0  0
    7.4194  -13.9242   17.1730 O   0  0  0  0  0  0  0  0  0  0  0  0
    8.7817  -14.7243   18.9120 C   0  0  0  0  0  0  0  0  0  0  0  0
    9.2490  -14.2860   20.2683 C   0  0  0  0  0  0  0  0  0  0  0  0
    9.9706  -15.3824   20.9631 C   0  0  2  0  0  0  0  0  0  0  0  0
    9.4023  -16.6903   20.6449 N   0  0  0  0  0  0  0  0  0  0  0  0
    9.8704  -15.2435   22.4320 C   0  0  0  0  0  0  0  0  0  0  0  0
   10.2710  -14.2322   23.0815 O   0  0  0  0  0  0  0  0  0  0  0  0
    6.4698  -10.7252   26.9447 O   0  0  0  0  0  0  0  0  0  0  0  0
    6.7266  -11.9940   26.4215 C   0  0  0  0  0  0  0  0  0  0  0  0
    6.8787  -12.1844   25.0648 C   0  0  0  0  0  0  0  0  0  0  0  0
    7.1318  -13.4400   24.5601 C   0  0  0  0  0  0  0  0  0  0  0  0
    7.2458  -14.5667   25.3810 C   0  0  0  0  0  0  0  0  0  0  0  0
    7.5065  -15.8842   24.7700 C   0  0  0  0  0  0  0  0  0  0  0  0
    8.9876  -16.1352   24.6379 C   0  0  2  0  0  0  0  0  0  0  0  0
    9.2922  -16.2870   23.2295 N   0  0  0  0  0  0  0  0  0  0  0  0
    9.4107  -17.3851   25.3032 C   0  0  0  0  0  0  0  0  0  0  0  0
    9.5803  -17.4939   26.6822 O   0  0  0  0  0  0  0  0  0  0  0  0
    7.0912  -14.3615   26.7342 C   0  0  0  0  0  0  0  0  0  0  0  0
    6.8361  -13.0945   27.2418 C   0  0  0  0  0  0  0  0  0  0  0  0
    9.6361  -18.4140   24.6283 O   0  0  0  0  0  0  0  0  0  0  0  0
  2  1  1  6
  2  3  1  0
  4  5  2  0
  4  2  1  0
  7  6  1  0
  7  9  1  0
  8  7  2  0
 11 10  1  6
 10  9  1  0
 11 12  1  0
 12  4  1  0
 13 11  1  0
 13 14  2  0
 15 16  1  0
 16 17  2  0
 16 26  1  0
 17 18  1  0
 18 19  2  0
 19 20  1  0
 21 20  1  6
 21 22  1  0
 22 13  1  0
 23 21  1  0
 23 24  1  0
 25 19  1  0
 26 25  2  0
 27 23  2  0
M  END
$$$$
