AQY.pdb
     RDKit          3D

 27 27  0  0  1  0  0  0  0  0999 V2000
    7.7172  -18.2878   17.5897 C   0  0  0  0  0  0  0  0  0  0  0  0
    8.0562  -17.1000   18.4608 C   0  0  2  0  0  0  0  0  0  0  0  0
    8.8960  -16.2244   17.7171 N   0  0  0  0  0  0  0  0  0  0  0  0
    8.6549  -17.5308   19.7509 C   0  0  0  0  0  0  0  0  0  0  0  0
    8.0504  -18.3128   20.5286 O   0  0  0  0  0  0  0  0  0  0  0  0
   14.5885  -18.7458   21.2199 N   0  0  0  0  0  0  0  0  0  0  0  0
   13.8157  -19.0133   20.0840 C   0  0  0  0  0  0  0  0  0  0  0  0
   14.2212  -19.7699   19.1919 O   0  0  0  0  0  0  0  0  0  0  0  0
   12.4584  -18.3892   19.9039 C   0  0  0  0  0  0  0  0  0  0  0  0
   12.1246  -17.4923   21.0589 C   0  0  0  0  0  0  0  0  0  0  0  0
   10.6602  -17.4621   21.3040 C   0  0  2  0  0  0  0  0  0  0  0  0
    9.9206  -17.0564   20.1110 N   0  0  0  0  0  0  0  0  0  0  0  0
   10.3121  -16.4774   22.3509 C   0  0  0  0  0  0  0  0  0  0  0  0
   10.8106  -15.3155   22.4310 O   0  0  0  0  0  0  0  0  0  0  0  0
    6.2185  -10.5783   26.7583 O   0  0  0  0  0  0  0  0  0  0  0  0
    6.5431  -11.7668   26.1013 C   0  0  0  0  0  0  0  0  0  0  0  0
    6.0027  -12.9696   26.5030 C   0  0  0  0  0  0  0  0  0  0  0  0
    6.3297  -14.1354   25.8477 C   0  0  0  0  0  0  0  0  0  0  0  0
    7.2102  -14.1606   24.7612 C   0  0  0  0  0  0  0  0  0  0  0  0
    7.5247  -15.4487   24.1139 C   0  0  0  0  0  0  0  0  0  0  0  0
    8.9458  -15.8645   24.3999 C   0  0  2  0  0  0  0  0  0  0  0  0
    9.3547  -16.7987   23.3706 N   0  0  0  0  0  0  0  0  0  0  0  0
    9.0796  -16.5682   25.6925 C   0  0  0  0  0  0  0  0  0  0  0  0
    9.3335  -15.9107   26.8947 O   0  0  0  0  0  0  0  0  0  0  0  0
    7.7427  -12.9516   24.3713 C   0  0  0  0  0  0  0  0  0  0  0  0
    7.4118  -11.7766   25.0331 C   0  0  0  0  0  0  0  0  0  0  0  0
    8.9654  -17.8128   25.7480 O   0  0  0  0  0  0  0  0  0  0  0  0
  2  1  1  6
  2  3  1  0
  4  5  2  0
  4  2  1  0
  7  6  1  0
  7  9  1  0
  8  7  2  0
 11 10  1  6
 10  9  1  0
 11 12  1  0
 12  4  1  0
 13 11  1  0
 13 14  2  0
 15 16  1  0
 16 17  2  0
 16 26  1  0
 17 18  1  0
 18 19  2  0
 19 20  1  0
 21 20  1  6
 21 22  1  0
 22 13  1  0
 23 21  1  0
 23 24  1  0
 25 19  1  0
 26 25  2  0
 27 23  2  0
M  END
$$$$
