AQY.pdb
     RDKit          3D

 27 27  0  0  1  0  0  0  0  0999 V2000
    7.5706  -19.5675   22.5277 C   0  0  0  0  0  0  0  0  0  0  0  0
    7.2734  -19.1548   21.1044 C   0  0  2  0  0  0  0  0  0  0  0  0
    7.5001  -20.2751   20.2567 N   0  0  0  0  0  0  0  0  0  0  0  0
    8.0610  -17.9563   20.7148 C   0  0  0  0  0  0  0  0  0  0  0  0
    9.2082  -18.0583   20.2095 O   0  0  0  0  0  0  0  0  0  0  0  0
    7.9220  -14.3681   17.6637 N   0  0  0  0  0  0  0  0  0  0  0  0
    8.1573  -13.1995   18.3973 C   0  0  0  0  0  0  0  0  0  0  0  0
    8.7301  -12.2254   17.8918 O   0  0  0  0  0  0  0  0  0  0  0  0
    7.7214  -13.0830   19.8327 C   0  0  0  0  0  0  0  0  0  0  0  0
    7.0935  -14.3602   20.3064 C   0  0  0  0  0  0  0  0  0  0  0  0
    8.1101  -15.4338   20.4461 C   0  0  2  0  0  0  0  0  0  0  0  0
    7.5155  -16.6837   20.9138 N   0  0  0  0  0  0  0  0  0  0  0  0
    9.1363  -15.0732   21.4479 C   0  0  0  0  0  0  0  0  0  0  0  0
    9.9997  -14.1601   21.2873 O   0  0  0  0  0  0  0  0  0  0  0  0
    6.9018  -11.4688   28.7351 O   0  0  0  0  0  0  0  0  0  0  0  0
    7.0706  -12.2048   27.5606 C   0  0  0  0  0  0  0  0  0  0  0  0
    8.2765  -12.8042   27.2663 C   0  0  0  0  0  0  0  0  0  0  0  0
    8.4315  -13.5276   26.1053 C   0  0  0  0  0  0  0  0  0  0  0  0
    7.3941  -13.6895   25.1811 C   0  0  0  0  0  0  0  0  0  0  0  0
    7.6351  -14.4686   23.9514 C   0  0  0  0  0  0  0  0  0  0  0  0
    8.9954  -15.1188   23.9815 C   0  0  2  0  0  0  0  0  0  0  0  0
    9.2110  -15.7654   22.7029 N   0  0  0  0  0  0  0  0  0  0  0  0
    9.0963  -16.1710   25.0142 C   0  0  0  0  0  0  0  0  0  0  0  0
    9.7239  -15.9743   26.2429 O   0  0  0  0  0  0  0  0  0  0  0  0
    6.1953  -13.0848   25.4882 C   0  0  0  0  0  0  0  0  0  0  0  0
    6.0404  -12.3556   26.6596 C   0  0  0  0  0  0  0  0  0  0  0  0
    8.6067  -17.3040   24.8104 O   0  0  0  0  0  0  0  0  0  0  0  0
  2  1  1  1
  2  3  1  0
  4  5  2  0
  4  2  1  0
  7  6  1  0
  7  9  1  0
  8  7  2  0
 11 10  1  1
 10  9  1  0
 11 12  1  0
 12  4  1  0
 13 11  1  0
 13 14  2  0
 15 16  1  0
 16 17  2  0
 16 26  1  0
 17 18  1  0
 18 19  2  0
 19 20  1  0
 21 20  1  6
 21 22  1  0
 22 13  1  0
 23 21  1  0
 23 24  1  0
 25 19  1  0
 26 25  2  0
 27 23  2  0
M  END
$$$$
