AQY.pdb
     RDKit          3D

 27 27  0  0  1  0  0  0  0  0999 V2000
    5.9227  -19.8749   20.8924 C   0  0  0  0  0  0  0  0  0  0  0  0
    6.3657  -19.1399   22.1366 C   0  0  2  0  0  0  0  0  0  0  0  0
    5.2151  -18.5799   22.7594 N   0  0  0  0  0  0  0  0  0  0  0  0
    7.4118  -18.1318   21.8238 C   0  0  0  0  0  0  0  0  0  0  0  0
    8.5575  -18.4719   21.4322 O   0  0  0  0  0  0  0  0  0  0  0  0
    7.2939  -13.4353   18.4447 N   0  0  0  0  0  0  0  0  0  0  0  0
    8.3331  -12.9991   19.2746 C   0  0  0  0  0  0  0  0  0  0  0  0
    9.1846  -12.1951   18.8731 O   0  0  0  0  0  0  0  0  0  0  0  0
    8.4548  -13.4926   20.6909 C   0  0  0  0  0  0  0  0  0  0  0  0
    7.4516  -14.5725   20.9690 C   0  0  0  0  0  0  0  0  0  0  0  0
    8.0634  -15.6809   21.7453 C   0  0  2  0  0  0  0  0  0  0  0  0
    7.1173  -16.7719   21.9675 N   0  0  0  0  0  0  0  0  0  0  0  0
    8.4815  -15.2270   23.0892 C   0  0  0  0  0  0  0  0  0  0  0  0
    8.0098  -14.2083   23.6765 O   0  0  0  0  0  0  0  0  0  0  0  0
    6.1582  -10.8079   27.0703 O   0  0  0  0  0  0  0  0  0  0  0  0
    6.7131  -12.0617   26.8063 C   0  0  0  0  0  0  0  0  0  0  0  0
    8.0737  -12.2668   26.8890 C   0  0  0  0  0  0  0  0  0  0  0  0
    8.6099  -13.5074   26.6267 C   0  0  0  0  0  0  0  0  0  0  0  0
    7.8181  -14.6038   26.2696 C   0  0  0  0  0  0  0  0  0  0  0  0
    8.4622  -15.9017   25.9910 C   0  0  0  0  0  0  0  0  0  0  0  0
    9.7515  -15.7133   25.2319 C   0  0  2  0  0  0  0  0  0  0  0  0
    9.4819  -15.9440   23.8271 N   0  0  0  0  0  0  0  0  0  0  0  0
   10.7904  -16.6851   25.6323 C   0  0  0  0  0  0  0  0  0  0  0  0
   11.4772  -16.6102   26.8426 O   0  0  0  0  0  0  0  0  0  0  0  0
    6.4607  -14.3840   26.1906 C   0  0  0  0  0  0  0  0  0  0  0  0
    5.9213  -13.1322   26.4556 C   0  0  0  0  0  0  0  0  0  0  0  0
   11.0936  -17.6328   24.8740 O   0  0  0  0  0  0  0  0  0  0  0  0
  2  1  1  6
  2  3  1  0
  4  5  2  0
  4  2  1  0
  7  6  1  0
  7  9  1  0
  8  7  2  0
 11 10  1  1
 10  9  1  0
 11 12  1  0
 12  4  1  0
 13 11  1  0
 13 14  2  0
 15 16  1  0
 16 17  2  0
 16 26  1  0
 17 18  1  0
 18 19  2  0
 19 20  1  0
 21 20  1  1
 21 22  1  0
 22 13  1  0
 23 21  1  0
 23 24  1  0
 25 19  1  0
 26 25  2  0
 27 23  2  0
M  END
$$$$
