AQY.pdb
     RDKit          3D

 27 27  0  0  1  0  0  0  0  0999 V2000
    7.3843  -13.3365   17.6178 C   0  0  0  0  0  0  0  0  0  0  0  0
    8.5386  -13.5422   18.5716 C   0  0  2  0  0  0  0  0  0  0  0  0
    9.7161  -13.7727   17.8066 N   0  0  0  0  0  0  0  0  0  0  0  0
    8.2486  -14.6292   19.5427 C   0  0  0  0  0  0  0  0  0  0  0  0
    7.2130  -14.6154   20.2562 O   0  0  0  0  0  0  0  0  0  0  0  0
   11.6422  -20.0787   19.8958 N   0  0  0  0  0  0  0  0  0  0  0  0
   10.8293  -19.6146   18.8552 C   0  0  0  0  0  0  0  0  0  0  0  0
   10.9380  -20.0591   17.7049 O   0  0  0  0  0  0  0  0  0  0  0  0
    9.7892  -18.5544   19.0965 C   0  0  0  0  0  0  0  0  0  0  0  0
   10.0408  -17.8435   20.3931 C   0  0  0  0  0  0  0  0  0  0  0  0
    9.0230  -16.7879   20.6281 C   0  0  2  0  0  0  0  0  0  0  0  0
    9.1473  -15.6937   19.6678 N   0  0  0  0  0  0  0  0  0  0  0  0
    9.1850  -16.1750   21.9641 C   0  0  0  0  0  0  0  0  0  0  0  0
   10.0593  -15.3030   22.2473 O   0  0  0  0  0  0  0  0  0  0  0  0
    6.4741  -11.3482   28.5552 O   0  0  0  0  0  0  0  0  0  0  0  0
    6.7116  -12.1235   27.4184 C   0  0  0  0  0  0  0  0  0  0  0  0
    7.9230  -12.0687   26.7630 C   0  0  0  0  0  0  0  0  0  0  0  0
    8.1463  -12.8378   25.6432 C   0  0  0  0  0  0  0  0  0  0  0  0
    7.1749  -13.6984   25.1214 C   0  0  0  0  0  0  0  0  0  0  0  0
    7.4793  -14.4844   23.9104 C   0  0  0  0  0  0  0  0  0  0  0  0
    8.1903  -15.7667   24.2630 C   0  0  2  0  0  0  0  0  0  0  0  0
    8.3274  -16.5503   23.0519 N   0  0  0  0  0  0  0  0  0  0  0  0
    7.4256  -16.5921   25.2210 C   0  0  0  0  0  0  0  0  0  0  0  0
    7.6812  -16.6021   26.5910 O   0  0  0  0  0  0  0  0  0  0  0  0
    5.9694  -13.7425   25.7864 C   0  0  0  0  0  0  0  0  0  0  0  0
    5.7458  -12.9664   26.9158 C   0  0  0  0  0  0  0  0  0  0  0  0
    6.4980  -17.3289   24.8190 O   0  0  0  0  0  0  0  0  0  0  0  0
  2  1  1  6
  2  3  1  0
  4  5  2  0
  4  2  1  0
  7  6  1  0
  7  9  1  0
  8  7  2  0
 11 10  1  6
 10  9  1  0
 11 12  1  0
 12  4  1  0
 13 11  1  0
 13 14  2  0
 15 16  1  0
 16 17  2  0
 16 26  1  0
 17 18  1  0
 18 19  2  0
 19 20  1  0
 21 20  1  6
 21 22  1  0
 22 13  1  0
 23 21  1  0
 23 24  1  0
 25 19  1  0
 26 25  2  0
 27 23  2  0
M  END
$$$$
