AQY.pdb
     RDKit          3D

 27 27  0  0  1  0  0  0  0  0999 V2000
    8.3930  -11.9786   19.3364 C   0  0  0  0  0  0  0  0  0  0  0  0
    8.2950  -13.3236   18.6540 C   0  0  2  0  0  0  0  0  0  0  0  0
    7.2929  -13.2428   17.6467 N   0  0  0  0  0  0  0  0  0  0  0  0
    8.0510  -14.4108   19.6374 C   0  0  0  0  0  0  0  0  0  0  0  0
    6.8877  -14.7194   20.0023 O   0  0  0  0  0  0  0  0  0  0  0  0
   10.4250  -19.9320   19.4885 N   0  0  0  0  0  0  0  0  0  0  0  0
   10.1292  -19.8718   20.8552 C   0  0  0  0  0  0  0  0  0  0  0  0
   10.2327  -20.8689   21.5817 O   0  0  0  0  0  0  0  0  0  0  0  0
    9.6729  -18.5886   21.4950 C   0  0  0  0  0  0  0  0  0  0  0  0
    9.6263  -17.4766   20.4894 C   0  0  0  0  0  0  0  0  0  0  0  0
    9.0410  -16.2469   21.0817 C   0  0  2  0  0  0  0  0  0  0  0  0
    9.1395  -15.1086   20.1711 N   0  0  0  0  0  0  0  0  0  0  0  0
    9.7623  -15.8475   22.3093 C   0  0  0  0  0  0  0  0  0  0  0  0
   10.9584  -15.4301   22.3297 O   0  0  0  0  0  0  0  0  0  0  0  0
   11.0296  -14.7414   31.0356 O   0  0  0  0  0  0  0  0  0  0  0  0
   10.4636  -14.8511   29.7638 C   0  0  0  0  0  0  0  0  0  0  0  0
   10.0594  -16.0732   29.2705 C   0  0  0  0  0  0  0  0  0  0  0  0
    9.5024  -16.1696   28.0152 C   0  0  0  0  0  0  0  0  0  0  0  0
    9.3207  -15.0547   27.1902 C   0  0  0  0  0  0  0  0  0  0  0  0
    8.7277  -15.2339   25.8511 C   0  0  0  0  0  0  0  0  0  0  0  0
    9.7866  -15.5728   24.8322 C   0  0  2  0  0  0  0  0  0  0  0  0
    9.1209  -15.9145   23.5914 N   0  0  0  0  0  0  0  0  0  0  0  0
   10.5910  -16.7493   25.2229 C   0  0  0  0  0  0  0  0  0  0  0  0
   11.8648  -16.6500   25.7794 O   0  0  0  0  0  0  0  0  0  0  0  0
    9.7295  -13.8405   27.6962 C   0  0  0  0  0  0  0  0  0  0  0  0
   10.2909  -13.7449   28.9625 C   0  0  0  0  0  0  0  0  0  0  0  0
   10.1391  -17.9046   25.0609 O   0  0  0  0  0  0  0  0  0  0  0  0
  2  1  1  1
  2  3  1  0
  4  5  2  0
  4  2  1  0
  7  6  1  0
  7  9  1  0
  8  7  2  0
 11 10  1  6
 10  9  1  0
 11 12  1  0
 12  4  1  0
 13 11  1  0
 13 14  2  0
 15 16  1  0
 16 17  2  0
 16 26  1  0
 17 18  1  0
 18 19  2  0
 19 20  1  0
 21 20  1  1
 21 22  1  0
 22 13  1  0
 23 21  1  0
 23 24  1  0
 25 19  1  0
 26 25  2  0
 27 23  2  0
M  END
$$$$
