AQY.pdb
     RDKit          3D

 27 27  0  0  1  0  0  0  0  0999 V2000
    8.7056  -12.3990   19.2621 C   0  0  0  0  0  0  0  0  0  0  0  0
    8.5847  -13.7537   18.6029 C   0  0  2  0  0  0  0  0  0  0  0  0
    7.4706  -13.7234   17.7180 N   0  0  0  0  0  0  0  0  0  0  0  0
    8.5006  -14.8398   19.6138 C   0  0  0  0  0  0  0  0  0  0  0  0
    7.3996  -15.3545   19.9369 O   0  0  0  0  0  0  0  0  0  0  0  0
   11.8422  -19.7688   19.4132 N   0  0  0  0  0  0  0  0  0  0  0  0
   11.4011  -19.8706   20.7376 C   0  0  0  0  0  0  0  0  0  0  0  0
   11.5836  -20.9000   21.4006 O   0  0  0  0  0  0  0  0  0  0  0  0
   10.6860  -18.7287   21.4076 C   0  0  0  0  0  0  0  0  0  0  0  0
   10.5807  -17.5495   20.4866 C   0  0  0  0  0  0  0  0  0  0  0  0
    9.7602  -16.4708   21.0939 C   0  0  2  0  0  0  0  0  0  0  0  0
    9.6726  -15.3020   20.2216 N   0  0  0  0  0  0  0  0  0  0  0  0
   10.3585  -15.9894   22.3577 C   0  0  0  0  0  0  0  0  0  0  0  0
   11.0876  -16.6956   23.1159 O   0  0  0  0  0  0  0  0  0  0  0  0
    5.6724  -11.6869   28.4738 O   0  0  0  0  0  0  0  0  0  0  0  0
    6.2744  -12.2217   27.3330 C   0  0  0  0  0  0  0  0  0  0  0  0
    5.7129  -13.2921   26.6704 C   0  0  0  0  0  0  0  0  0  0  0  0
    6.3151  -13.8111   25.5465 C   0  0  0  0  0  0  0  0  0  0  0  0
    7.5049  -13.2901   25.0275 C   0  0  0  0  0  0  0  0  0  0  0  0
    8.1008  -13.9044   23.8256 C   0  0  0  0  0  0  0  0  0  0  0  0
    9.5255  -14.3258   24.0838 C   0  0  2  0  0  0  0  0  0  0  0  0
   10.1359  -14.6455   22.8092 N   0  0  0  0  0  0  0  0  0  0  0  0
    9.6127  -15.5437   24.9162 C   0  0  0  0  0  0  0  0  0  0  0  0
   10.0928  -15.5391   26.2245 O   0  0  0  0  0  0  0  0  0  0  0  0
    8.0546  -12.2211   25.7001 C   0  0  0  0  0  0  0  0  0  0  0  0
    7.4460  -11.6986   26.8335 C   0  0  0  0  0  0  0  0  0  0  0  0
    9.2472  -16.6488   24.4576 O   0  0  0  0  0  0  0  0  0  0  0  0
  2  1  1  1
  2  3  1  0
  4  5  2  0
  4  2  1  0
  7  6  1  0
  7  9  1  0
  8  7  2  0
 11 10  1  6
 10  9  1  0
 11 12  1  0
 12  4  1  0
 13 11  1  0
 13 14  2  0
 15 16  1  0
 16 17  2  0
 16 26  1  0
 17 18  1  0
 18 19  2  0
 19 20  1  0
 21 20  1  6
 21 22  1  0
 22 13  1  0
 23 21  1  0
 23 24  1  0
 25 19  1  0
 26 25  2  0
 27 23  2  0
M  END
$$$$
