ICR.pdb
     RDKit          3D

 26 25  0  0  1  0  0  0  0  0999 V2000
   27.9931  -17.0619  -16.5608 C   0  0  0  0  0  0  0  0  0  0  0  0
   28.5007  -18.2023  -15.6666 C   0  0  0  0  0  0  0  0  0  0  0  0
   27.3700  -18.7847  -14.8593 C   0  0  2  0  0  0  0  0  0  0  0  0
   26.5840  -17.7517  -14.1265 C   0  0  0  0  0  0  0  0  0  0  0  0
   27.7937  -19.9724  -14.0442 C   0  0  2  0  0  0  0  0  0  0  0  0
   28.3736  -20.9735  -14.9673 N   0  0  0  0  0  0  0  0  0  0  0  0
   26.7500  -20.6394  -13.2789 C   0  0  0  0  0  0  0  0  0  0  0  0
   26.0322  -21.4950  -13.8629 O   0  0  0  0  0  0  0  0  0  0  0  0
   26.4650  -20.4099  -11.9112 N   0  0  0  0  0  0  0  0  0  0  0  0
   25.3883  -21.0875  -11.2721 C   0  0  1  0  0  0  0  0  0  0  0  0
   25.4249  -20.9995   -9.7637 C   0  0  0  0  0  0  0  0  0  0  0  0
   27.0931  -21.0269   -9.1004 S   0  0  0  0  0  0  0  0  0  0  0  0
   24.0622  -20.6087  -11.7799 C   0  0  0  0  0  0  0  0  0  0  0  0
   23.8967  -19.3737  -11.9201 O   0  0  0  0  0  0  0  0  0  0  0  0
   21.0305  -18.4043  -16.4392 N   0  0  0  0  0  0  0  0  0  0  0  0
   21.9489  -18.7312  -17.4522 C   0  0  0  0  0  0  0  0  0  0  0  0
   21.7026  -18.5032  -18.7146 N   0  0  0  0  0  0  0  0  0  0  0  0
   23.2061  -19.3301  -17.1677 N   0  0  0  0  0  0  0  0  0  0  0  0
   23.4310  -20.0278  -15.8947 C   0  0  0  0  0  0  0  0  0  0  0  0
   22.4126  -21.1199  -15.6951 C   0  0  0  0  0  0  0  0  0  0  0  0
   22.5813  -21.9104  -14.4566 C   0  0  0  0  0  0  0  0  0  0  0  0
   22.0847  -21.2389  -13.2231 C   0  0  2  0  0  0  0  0  0  0  0  0
   22.9964  -21.4867  -12.1045 N   0  0  0  0  0  0  0  0  0  0  0  0
   20.7255  -21.7458  -12.8994 C   0  0  0  0  0  0  0  0  0  0  0  0
   20.6317  -22.7035  -12.1086 O   0  0  0  0  0  0  0  0  0  0  0  0
   19.6316  -21.1477  -13.4743 O   0  0  0  0  0  0  0  0  0  0  0  0
  2  1  1  0
  3  4  1  1
  3  2  1  0
  5  3  1  0
  5  6  1  6
  7  8  2  0
  7  5  1  0
  9  7  1  0
 10  9  1  0
 11 12  1  0
 10 11  1  1
 13 14  2  0
 13 10  1  0
 16 15  1  0
 17 16  2  0
 18 16  1  0
 19 18  1  0
 20 21  1  0
 20 19  1  0
 22 21  1  6
 22 23  1  0
 23 13  1  0
 24 22  1  0
 25 24  2  0
 26 24  1  0
M  END
$$$$
