ICR.pdb
     RDKit          3D

 26 25  0  0  1  0  0  0  0  0999 V2000
   28.6783   -8.9690  -23.2453 C   0  0  0  0  0  0  0  0  0  0  0  0
   29.1270   -9.7913  -22.0286 C   0  0  0  0  0  0  0  0  0  0  0  0
   28.0086   -9.9055  -21.0259 C   0  0  2  0  0  0  0  0  0  0  0  0
   27.3587   -8.5981  -20.7255 C   0  0  0  0  0  0  0  0  0  0  0  0
   28.3876  -10.7285  -19.8285 C   0  0  2  0  0  0  0  0  0  0  0  0
   28.7412  -12.0851  -20.3030 N   0  0  0  0  0  0  0  0  0  0  0  0
   27.3711  -10.8794  -18.7971 C   0  0  0  0  0  0  0  0  0  0  0  0
   26.3889  -11.6342  -19.0292 O   0  0  0  0  0  0  0  0  0  0  0  0
   27.3883  -10.2435  -17.5323 N   0  0  0  0  0  0  0  0  0  0  0  0
   26.3545  -10.4882  -16.5845 C   0  0  1  0  0  0  0  0  0  0  0  0
   26.8500  -10.6036  -15.1613 C   0  0  0  0  0  0  0  0  0  0  0  0
   28.1026  -11.8735  -14.9561 S   0  0  0  0  0  0  0  0  0  0  0  0
   25.2783   -9.4488  -16.6682 C   0  0  0  0  0  0  0  0  0  0  0  0
   25.6222   -8.2608  -16.8749 O   0  0  0  0  0  0  0  0  0  0  0  0
   17.5746  -10.5015  -20.5024 N   0  0  0  0  0  0  0  0  0  0  0  0
   18.3790   -9.4695  -21.0166 C   0  0  0  0  0  0  0  0  0  0  0  0
   18.1602   -8.9349  -22.1882 N   0  0  0  0  0  0  0  0  0  0  0  0
   19.4823   -8.9399  -20.2938 N   0  0  0  0  0  0  0  0  0  0  0  0
   19.8481   -9.4876  -18.9807 C   0  0  0  0  0  0  0  0  0  0  0  0
   21.0928   -8.8242  -18.4514 C   0  0  0  0  0  0  0  0  0  0  0  0
   21.5932   -9.3696  -17.1710 C   0  0  0  0  0  0  0  0  0  0  0  0
   22.8517   -8.7404  -16.6817 C   0  0  2  0  0  0  0  0  0  0  0  0
   23.8998   -9.7505  -16.5239 N   0  0  0  0  0  0  0  0  0  0  0  0
   22.5919   -8.0635  -15.3842 C   0  0  0  0  0  0  0  0  0  0  0  0
   23.0266   -8.5998  -14.3475 O   0  0  0  0  0  0  0  0  0  0  0  0
   21.8914   -6.8827  -15.3717 O   0  0  0  0  0  0  0  0  0  0  0  0
  2  1  1  0
  3  4  1  1
  3  2  1  0
  5  3  1  0
  5  6  1  6
  7  8  2  0
  7  5  1  0
  9  7  1  0
 10  9  1  0
 11 12  1  0
 10 11  1  1
 13 14  2  0
 13 10  1  0
 16 15  1  0
 17 16  2  0
 18 16  1  0
 19 18  1  0
 20 21  1  0
 20 19  1  0
 22 21  1  1
 22 23  1  0
 23 13  1  0
 24 22  1  0
 25 24  2  0
 26 24  1  0
M  END
$$$$
