ICR.pdb
     RDKit          3D

 26 25  0  0  1  0  0  0  0  0999 V2000
   21.7770  -26.5381  -16.3981 C   0  0  0  0  0  0  0  0  0  0  0  0
   20.2535  -26.7287  -16.4173 C   0  0  0  0  0  0  0  0  0  0  0  0
   19.7154  -26.8300  -15.0139 C   0  0  2  0  0  0  0  0  0  0  0  0
   19.7128  -25.5243  -14.2946 C   0  0  0  0  0  0  0  0  0  0  0  0
   20.2992  -27.9853  -14.2530 C   0  0  2  0  0  0  0  0  0  0  0  0
   20.0529  -29.2164  -15.0367 N   0  0  0  0  0  0  0  0  0  0  0  0
   19.7756  -28.2103  -12.9132 C   0  0  0  0  0  0  0  0  0  0  0  0
   18.5299  -28.1380  -12.7363 O   0  0  0  0  0  0  0  0  0  0  0  0
   20.5551  -28.5104  -11.7700 N   0  0  0  0  0  0  0  0  0  0  0  0
   19.9466  -28.6246  -10.4880 C   0  0  1  0  0  0  0  0  0  0  0  0
   20.8060  -29.3366   -9.4688 C   0  0  0  0  0  0  0  0  0  0  0  0
   21.5614  -30.8330  -10.1118 S   0  0  0  0  0  0  0  0  0  0  0  0
   19.5297  -27.2859   -9.9592 C   0  0  0  0  0  0  0  0  0  0  0  0
   20.0770  -26.2661  -10.4416 O   0  0  0  0  0  0  0  0  0  0  0  0
   16.2992  -21.8234  -13.7775 N   0  0  0  0  0  0  0  0  0  0  0  0
   17.5750  -21.6049  -13.2288 C   0  0  0  0  0  0  0  0  0  0  0  0
   18.4015  -20.7207  -13.7202 N   0  0  0  0  0  0  0  0  0  0  0  0
   18.0478  -22.3316  -12.1025 N   0  0  0  0  0  0  0  0  0  0  0  0
   17.2366  -23.4036  -11.5102 C   0  0  0  0  0  0  0  0  0  0  0  0
   17.9618  -24.0502  -10.3588 C   0  0  0  0  0  0  0  0  0  0  0  0
   17.2871  -25.2338   -9.7833 C   0  0  0  0  0  0  0  0  0  0  0  0
   17.9767  -25.8241   -8.6021 C   0  0  2  0  0  0  0  0  0  0  0  0
   18.5514  -27.1265   -8.9445 N   0  0  0  0  0  0  0  0  0  0  0  0
   17.0056  -25.9689   -7.4863 C   0  0  0  0  0  0  0  0  0  0  0  0
   16.5233  -27.0974   -7.2737 O   0  0  0  0  0  0  0  0  0  0  0  0
   16.6778  -24.8677   -6.7346 O   0  0  0  0  0  0  0  0  0  0  0  0
  2  1  1  0
  3  4  1  1
  3  2  1  0
  5  3  1  0
  5  6  1  6
  7  8  2  0
  7  5  1  0
  9  7  1  0
 10  9  1  0
 11 12  1  0
 10 11  1  1
 13 14  2  0
 13 10  1  0
 16 15  1  0
 17 16  2  0
 18 16  1  0
 19 18  1  0
 20 21  1  0
 20 19  1  0
 22 21  1  6
 22 23  1  0
 23 13  1  0
 24 22  1  0
 25 24  2  0
 26 24  1  0
M  END
$$$$
