ICR.pdb
     RDKit          3D

 26 25  0  0  1  0  0  0  0  0999 V2000
   23.3330  -20.2113  -20.3133 C   0  0  0  0  0  0  0  0  0  0  0  0
   24.3946  -20.4223  -19.2241 C   0  0  0  0  0  0  0  0  0  0  0  0
   23.8151  -21.1849  -18.0614 C   0  0  2  0  0  0  0  0  0  0  0  0
   22.9935  -22.3552  -18.4827 C   0  0  0  0  0  0  0  0  0  0  0  0
   23.1820  -20.2862  -17.0386 C   0  0  2  0  0  0  0  0  0  0  0  0
   24.1622  -19.2336  -16.6898 N   0  0  0  0  0  0  0  0  0  0  0  0
   22.7584  -20.9153  -15.7958 C   0  0  0  0  0  0  0  0  0  0  0  0
   23.1006  -22.1091  -15.5811 O   0  0  0  0  0  0  0  0  0  0  0  0
   21.9832  -20.2940  -14.7871 N   0  0  0  0  0  0  0  0  0  0  0  0
   21.6027  -21.0140  -13.6194 C   0  0  1  0  0  0  0  0  0  0  0  0
   21.4319  -20.1421  -12.3967 C   0  0  0  0  0  0  0  0  0  0  0  0
   20.1283  -18.9216  -12.5827 S   0  0  0  0  0  0  0  0  0  0  0  0
   20.3589  -21.8166  -13.8526 C   0  0  0  0  0  0  0  0  0  0  0  0
   19.5916  -21.4578  -14.7771 O   0  0  0  0  0  0  0  0  0  0  0  0
   16.5253  -28.4082  -15.9648 N   0  0  0  0  0  0  0  0  0  0  0  0
   15.6228  -28.0325  -14.9545 C   0  0  0  0  0  0  0  0  0  0  0  0
   14.3855  -28.4506  -14.9362 N   0  0  0  0  0  0  0  0  0  0  0  0
   15.9992  -27.1739  -13.8861 N   0  0  0  0  0  0  0  0  0  0  0  0
   17.3340  -26.5613  -13.8539 C   0  0  0  0  0  0  0  0  0  0  0  0
   17.5144  -25.7352  -12.6070 C   0  0  0  0  0  0  0  0  0  0  0  0
   18.7788  -24.9708  -12.5435 C   0  0  0  0  0  0  0  0  0  0  0  0
   18.7295  -23.6394  -13.2099 C   0  0  2  0  0  0  0  0  0  0  0  0
   20.0166  -22.9541  -13.0772 N   0  0  0  0  0  0  0  0  0  0  0  0
   17.6480  -22.8228  -12.5994 C   0  0  0  0  0  0  0  0  0  0  0  0
   17.9678  -21.9705  -11.7494 O   0  0  0  0  0  0  0  0  0  0  0  0
   16.3482  -23.0312  -12.9894 O   0  0  0  0  0  0  0  0  0  0  0  0
  2  1  1  0
  3  4  1  6
  3  2  1  0
  5  3  1  0
  5  6  1  1
  7  8  2  0
  7  5  1  0
  9  7  1  0
 10  9  1  0
 11 12  1  0
 10 11  1  1
 13 14  2  0
 13 10  1  0
 16 15  1  0
 17 16  2  0
 18 16  1  0
 19 18  1  0
 20 21  1  0
 20 19  1  0
 22 21  1  1
 22 23  1  0
 23 13  1  0
 24 22  1  0
 25 24  2  0
 26 24  1  0
M  END
$$$$
