ICR.pdb
     RDKit          3D

 26 25  0  0  1  0  0  0  0  0999 V2000
   20.7086  -11.6384    6.3922 C   0  0  0  0  0  0  0  0  0  0  0  0
   20.8568  -12.6597    7.5293 C   0  0  0  0  0  0  0  0  0  0  0  0
   20.4365  -14.0305    7.0671 C   0  0  2  0  0  0  0  0  0  0  0  0
   19.1109  -14.0352    6.3853 C   0  0  0  0  0  0  0  0  0  0  0  0
   20.6221  -15.0794    8.1252 C   0  0  2  0  0  0  0  0  0  0  0  0
   22.0534  -15.0969    8.5016 N   0  0  0  0  0  0  0  0  0  0  0  0
   20.2509  -16.4397    7.7623 C   0  0  0  0  0  0  0  0  0  0  0  0
   21.0888  -17.1431    7.1367 O   0  0  0  0  0  0  0  0  0  0  0  0
   19.0102  -17.0552    8.0562 N   0  0  0  0  0  0  0  0  0  0  0  0
   18.7541  -18.3968    7.6545 C   0  0  1  0  0  0  0  0  0  0  0  0
   18.7153  -19.3781    8.8035 C   0  0  0  0  0  0  0  0  0  0  0  0
   18.3975  -21.0642    8.2748 S   0  0  0  0  0  0  0  0  0  0  0  0
   17.4912  -18.4966    6.8543 C   0  0  0  0  0  0  0  0  0  0  0  0
   16.4529  -17.9751    7.3257 O   0  0  0  0  0  0  0  0  0  0  0  0
   15.2692  -22.6126   -0.9645 N   0  0  0  0  0  0  0  0  0  0  0  0
   14.1408  -21.9374   -0.4673 C   0  0  0  0  0  0  0  0  0  0  0  0
   13.0024  -21.9198   -1.1077 N   0  0  0  0  0  0  0  0  0  0  0  0
   14.1654  -21.2310    0.7658 N   0  0  0  0  0  0  0  0  0  0  0  0
   15.4215  -21.0698    1.5103 C   0  0  0  0  0  0  0  0  0  0  0  0
   15.1931  -20.3029    2.7868 C   0  0  0  0  0  0  0  0  0  0  0  0
   16.3876  -20.1528    3.6457 C   0  0  0  0  0  0  0  0  0  0  0  0
   16.1593  -19.3636    4.8884 C   0  0  2  0  0  0  0  0  0  0  0  0
   17.4224  -19.1514    5.5978 N   0  0  0  0  0  0  0  0  0  0  0  0
   15.1960  -20.0855    5.7603 C   0  0  0  0  0  0  0  0  0  0  0  0
   15.6209  -21.0438    6.4330 O   0  0  0  0  0  0  0  0  0  0  0  0
   13.8861  -19.6758    5.7965 O   0  0  0  0  0  0  0  0  0  0  0  0
  2  1  1  0
  3  4  1  1
  3  2  1  0
  5  3  1  0
  5  6  1  6
  7  8  2  0
  7  5  1  0
  9  7  1  0
 10  9  1  0
 11 12  1  0
 10 11  1  1
 13 14  2  0
 13 10  1  0
 16 15  1  0
 17 16  2  0
 18 16  1  0
 19 18  1  0
 20 21  1  0
 20 19  1  0
 22 21  1  6
 22 23  1  0
 23 13  1  0
 24 22  1  0
 25 24  2  0
 26 24  1  0
M  END
$$$$
