ICR.pdb
     RDKit          3D

 26 25  0  0  1  0  0  0  0  0999 V2000
   23.7842  -11.1472  -16.2860 C   0  0  0  0  0  0  0  0  0  0  0  0
   22.3639  -10.5686  -16.2109 C   0  0  0  0  0  0  0  0  0  0  0  0
   22.1865   -9.7644  -14.9494 C   0  0  2  0  0  0  0  0  0  0  0  0
   22.7274  -10.4486  -13.7406 C   0  0  0  0  0  0  0  0  0  0  0  0
   20.7993   -9.2071  -14.8096 C   0  0  2  0  0  0  0  0  0  0  0  0
   20.4155   -8.6120  -16.1092 N   0  0  0  0  0  0  0  0  0  0  0  0
   20.6108   -8.1847  -13.7902 C   0  0  0  0  0  0  0  0  0  0  0  0
   20.6649   -8.5286  -12.5790 O   0  0  0  0  0  0  0  0  0  0  0  0
   20.3693   -6.8127  -14.0425 N   0  0  0  0  0  0  0  0  0  0  0  0
   20.2920   -5.8814  -12.9684 C   0  0  1  0  0  0  0  0  0  0  0  0
   20.7214   -4.4822  -13.3455 C   0  0  0  0  0  0  0  0  0  0  0  0
   22.3905   -4.4145  -14.0035 S   0  0  0  0  0  0  0  0  0  0  0  0
   18.9191   -5.8506  -12.3687 C   0  0  0  0  0  0  0  0  0  0  0  0
   17.9393   -5.7597  -13.1459 O   0  0  0  0  0  0  0  0  0  0  0  0
   13.4299  -11.1503   -8.8990 N   0  0  0  0  0  0  0  0  0  0  0  0
   12.7951   -9.8964   -8.8670 C   0  0  0  0  0  0  0  0  0  0  0  0
   11.5138   -9.7707   -8.6463 N   0  0  0  0  0  0  0  0  0  0  0  0
   13.5073   -8.6835   -9.0715 N   0  0  0  0  0  0  0  0  0  0  0  0
   14.9521   -8.7003   -9.3367 C   0  0  0  0  0  0  0  0  0  0  0  0
   15.4662   -7.3074   -9.5918 C   0  0  0  0  0  0  0  0  0  0  0  0
   16.8760   -7.2346  -10.0328 C   0  0  0  0  0  0  0  0  0  0  0  0
   17.3397   -5.8661  -10.3950 C   0  0  2  0  0  0  0  0  0  0  0  0
   18.6847   -5.9186  -10.9714 N   0  0  0  0  0  0  0  0  0  0  0  0
   17.3344   -5.0071   -9.1820 C   0  0  0  0  0  0  0  0  0  0  0  0
   18.4181   -4.8097   -8.6006 O   0  0  0  0  0  0  0  0  0  0  0  0
   16.1498   -4.4646   -8.7490 O   0  0  0  0  0  0  0  0  0  0  0  0
  2  1  1  0
  3  4  1  1
  3  2  1  0
  5  3  1  0
  5  6  1  6
  7  8  2  0
  7  5  1  0
  9  7  1  0
 10  9  1  0
 11 12  1  0
 10 11  1  6
 13 14  2  0
 13 10  1  0
 16 15  1  0
 17 16  2  0
 18 16  1  0
 19 18  1  0
 20 21  1  0
 20 19  1  0
 22 21  1  1
 22 23  1  0
 23 13  1  0
 24 22  1  0
 25 24  2  0
 26 24  1  0
M  END
$$$$
