ICR.pdb
     RDKit          3D

 26 25  0  0  1  0  0  0  0  0999 V2000
   33.3807  -11.6485  -16.9318 C   0  0  0  0  0  0  0  0  0  0  0  0
   33.9438  -10.2269  -17.0721 C   0  0  0  0  0  0  0  0  0  0  0  0
   32.8452   -9.2063  -16.9275 C   0  0  2  0  0  0  0  0  0  0  0  0
   31.6472   -9.5171  -17.7583 C   0  0  0  0  0  0  0  0  0  0  0  0
   33.3502   -7.7957  -17.0248 C   0  0  2  0  0  0  0  0  0  0  0  0
   34.3900   -7.6127  -15.9876 N   0  0  0  0  0  0  0  0  0  0  0  0
   32.3643   -6.7398  -16.8435 C   0  0  0  0  0  0  0  0  0  0  0  0
   31.9769   -6.4756  -15.6737 O   0  0  0  0  0  0  0  0  0  0  0  0
   31.7921   -5.9675  -17.8831 N   0  0  0  0  0  0  0  0  0  0  0  0
   30.8026   -4.9852  -17.5951 C   0  0  1  0  0  0  0  0  0  0  0  0
   31.2616   -3.5678  -17.8494 C   0  0  0  0  0  0  0  0  0  0  0  0
   29.9750   -2.3508  -17.5542 S   0  0  0  0  0  0  0  0  0  0  0  0
   29.5321   -5.2529  -18.3432 C   0  0  0  0  0  0  0  0  0  0  0  0
   29.6166   -5.5593  -19.5561 O   0  0  0  0  0  0  0  0  0  0  0  0
   20.8643   -6.5151  -15.9056 N   0  0  0  0  0  0  0  0  0  0  0  0
   21.0262   -6.8852  -17.2522 C   0  0  0  0  0  0  0  0  0  0  0  0
   20.0495   -7.3909  -17.9570 N   0  0  0  0  0  0  0  0  0  0  0  0
   22.2635   -6.7317  -17.9345 N   0  0  0  0  0  0  0  0  0  0  0  0
   23.4687   -6.3054  -17.2106 C   0  0  0  0  0  0  0  0  0  0  0  0
   24.6159   -6.0866  -18.1623 C   0  0  0  0  0  0  0  0  0  0  0  0
   25.9002   -5.7339  -17.5193 C   0  0  0  0  0  0  0  0  0  0  0  0
   27.0175   -5.4786  -18.4709 C   0  0  2  0  0  0  0  0  0  0  0  0
   28.2500   -5.1740  -17.7415 N   0  0  0  0  0  0  0  0  0  0  0  0
   26.6558   -4.3462  -19.3630 C   0  0  0  0  0  0  0  0  0  0  0  0
   27.0177   -3.2016  -19.0308 O   0  0  0  0  0  0  0  0  0  0  0  0
   25.9451   -4.5963  -20.5107 O   0  0  0  0  0  0  0  0  0  0  0  0
  2  1  1  0
  3  4  1  6
  3  2  1  0
  5  3  1  0
  5  6  1  1
  7  8  2  0
  7  5  1  0
  9  7  1  0
 10  9  1  0
 11 12  1  0
 10 11  1  6
 13 14  2  0
 13 10  1  0
 16 15  1  0
 17 16  2  0
 18 16  1  0
 19 18  1  0
 20 21  1  0
 20 19  1  0
 22 21  1  1
 22 23  1  0
 23 13  1  0
 24 22  1  0
 25 24  2  0
 26 24  1  0
M  END
$$$$
