ICR.pdb
     RDKit          3D

 26 25  0  0  1  0  0  0  0  0999 V2000
   17.1854  -13.7102  -14.1875 C   0  0  0  0  0  0  0  0  0  0  0  0
   16.8151  -13.3818  -12.7340 C   0  0  0  0  0  0  0  0  0  0  0  0
   16.4279  -11.9320  -12.6014 C   0  0  2  0  0  0  0  0  0  0  0  0
   17.4054  -11.0063  -13.2414 C   0  0  0  0  0  0  0  0  0  0  0  0
   16.0148  -11.5696  -11.2041 C   0  0  2  0  0  0  0  0  0  0  0  0
   14.9113  -12.4728  -10.8078 N   0  0  0  0  0  0  0  0  0  0  0  0
   15.5546  -10.2038  -10.9975 C   0  0  0  0  0  0  0  0  0  0  0  0
   14.4478   -9.8624  -11.4944 O   0  0  0  0  0  0  0  0  0  0  0  0
   16.2513   -9.2064  -10.2734 N   0  0  0  0  0  0  0  0  0  0  0  0
   15.7512   -7.8750  -10.2098 C   0  0  1  0  0  0  0  0  0  0  0  0
   15.7756   -7.2826   -8.8196 C   0  0  0  0  0  0  0  0  0  0  0  0
   14.6826   -8.1321   -7.6763 S   0  0  0  0  0  0  0  0  0  0  0  0
   16.4748   -6.9728  -11.1626 C   0  0  0  0  0  0  0  0  0  0  0  0
   17.6067   -7.3300  -11.5669 O   0  0  0  0  0  0  0  0  0  0  0  0
   18.2634   -6.8040  -19.0986 N   0  0  0  0  0  0  0  0  0  0  0  0
   17.9776   -5.4677  -18.7681 C   0  0  0  0  0  0  0  0  0  0  0  0
   17.7207   -4.5658  -19.6774 N   0  0  0  0  0  0  0  0  0  0  0  0
   17.9484   -5.0119  -17.4221 N   0  0  0  0  0  0  0  0  0  0  0  0
   17.1701   -5.7321  -16.4055 C   0  0  0  0  0  0  0  0  0  0  0  0
   17.1499   -4.9693  -15.1065 C   0  0  0  0  0  0  0  0  0  0  0  0
   16.5117   -5.6792  -13.9769 C   0  0  0  0  0  0  0  0  0  0  0  0
   16.5705   -4.9518  -12.6782 C   0  0  2  0  0  0  0  0  0  0  0  0
   15.9374   -5.7426  -11.6210 N   0  0  0  0  0  0  0  0  0  0  0  0
   15.8863   -3.6397  -12.8172 C   0  0  0  0  0  0  0  0  0  0  0  0
   14.6931   -3.5626  -12.4684 O   0  0  0  0  0  0  0  0  0  0  0  0
   16.5842   -2.5685  -13.3176 O   0  0  0  0  0  0  0  0  0  0  0  0
  2  1  1  0
  3  4  1  1
  3  2  1  0
  5  3  1  0
  5  6  1  6
  7  8  2  0
  7  5  1  0
  9  7  1  0
 10  9  1  0
 11 12  1  0
 10 11  1  1
 13 14  2  0
 13 10  1  0
 16 15  1  0
 17 16  2  0
 18 16  1  0
 19 18  1  0
 20 21  1  0
 20 19  1  0
 22 21  1  6
 22 23  1  0
 23 13  1  0
 24 22  1  0
 25 24  2  0
 26 24  1  0
M  END
$$$$
