ICR.pdb
     RDKit          3D

 26 25  0  0  1  0  0  0  0  0999 V2000
   28.4746  -20.0425  -18.3152 C   0  0  0  0  0  0  0  0  0  0  0  0
   28.6840  -20.8983  -17.0576 C   0  0  0  0  0  0  0  0  0  0  0  0
   27.4130  -20.9752  -16.2526 C   0  0  2  0  0  0  0  0  0  0  0  0
   26.7818  -19.6432  -16.0304 C   0  0  0  0  0  0  0  0  0  0  0  0
   27.5545  -21.8348  -15.0297 C   0  0  2  0  0  0  0  0  0  0  0  0
   27.8837  -23.2074  -15.4747 N   0  0  0  0  0  0  0  0  0  0  0  0
   26.3884  -21.9263  -14.1627 C   0  0  0  0  0  0  0  0  0  0  0  0
   25.5066  -22.7853  -14.4327 O   0  0  0  0  0  0  0  0  0  0  0  0
   26.1525  -21.1228  -13.0211 N   0  0  0  0  0  0  0  0  0  0  0  0
   25.0145  -21.3517  -12.1969 C   0  0  1  0  0  0  0  0  0  0  0  0
   25.0984  -20.6804  -10.8453 C   0  0  0  0  0  0  0  0  0  0  0  0
   26.5591  -21.1559   -9.9159 S   0  0  0  0  0  0  0  0  0  0  0  0
   23.7478  -20.9500  -12.8893 C   0  0  0  0  0  0  0  0  0  0  0  0
   23.6991  -19.8120  -13.4137 O   0  0  0  0  0  0  0  0  0  0  0  0
   16.5247  -25.7677  -14.1692 N   0  0  0  0  0  0  0  0  0  0  0  0
   17.6600  -25.3879  -14.9061 C   0  0  0  0  0  0  0  0  0  0  0  0
   18.0111  -25.9977  -16.0066 N   0  0  0  0  0  0  0  0  0  0  0  0
   18.4991  -24.3143  -14.5017 N   0  0  0  0  0  0  0  0  0  0  0  0
   18.2349  -23.5887  -13.2520 C   0  0  0  0  0  0  0  0  0  0  0  0
   19.1668  -22.4139  -13.1073 C   0  0  0  0  0  0  0  0  0  0  0  0
   20.4636  -22.5578  -13.8036 C   0  0  0  0  0  0  0  0  0  0  0  0
   21.3785  -21.3920  -13.6520 C   0  0  2  0  0  0  0  0  0  0  0  0
   22.6121  -21.7957  -12.9745 N   0  0  0  0  0  0  0  0  0  0  0  0
   20.6928  -20.3252  -12.8769 C   0  0  0  0  0  0  0  0  0  0  0  0
   20.9560  -20.2229  -11.6638 O   0  0  0  0  0  0  0  0  0  0  0  0
   19.8042  -19.4966  -13.5163 O   0  0  0  0  0  0  0  0  0  0  0  0
  2  1  1  0
  3  4  1  1
  3  2  1  0
  5  3  1  0
  5  6  1  6
  7  8  2  0
  7  5  1  0
  9  7  1  0
 10  9  1  0
 11 12  1  0
 10 11  1  1
 13 14  2  0
 13 10  1  0
 16 15  1  0
 17 16  2  0
 18 16  1  0
 19 18  1  0
 20 21  1  0
 20 19  1  0
 22 21  1  1
 22 23  1  0
 23 13  1  0
 24 22  1  0
 25 24  2  0
 26 24  1  0
M  END
$$$$
