ICR.pdb
     RDKit          3D

 26 25  0  0  1  0  0  0  0  0999 V2000
   29.5336  -19.4168  -17.7807 C   0  0  0  0  0  0  0  0  0  0  0  0
   28.8855  -18.8071  -16.5292 C   0  0  0  0  0  0  0  0  0  0  0  0
   28.0117  -19.8216  -15.8386 C   0  0  2  0  0  0  0  0  0  0  0  0
   27.1696  -20.6069  -16.7852 C   0  0  0  0  0  0  0  0  0  0  0  0
   27.2891  -19.2503  -14.6529 C   0  0  2  0  0  0  0  0  0  0  0  0
   28.2951  -18.6240  -13.7662 N   0  0  0  0  0  0  0  0  0  0  0  0
   26.5226  -20.1893  -13.8463 C   0  0  0  0  0  0  0  0  0  0  0  0
   25.5900  -20.8322  -14.3988 O   0  0  0  0  0  0  0  0  0  0  0  0
   26.7360  -20.4510  -12.4713 N   0  0  0  0  0  0  0  0  0  0  0  0
   25.7588  -21.1490  -11.7067 C   0  0  1  0  0  0  0  0  0  0  0  0
   26.1407  -21.3336  -10.2560 C   0  0  0  0  0  0  0  0  0  0  0  0
   27.8955  -21.6360  -10.0262 S   0  0  0  0  0  0  0  0  0  0  0  0
   24.4164  -20.4899  -11.8019 C   0  0  0  0  0  0  0  0  0  0  0  0
   24.3384  -19.2703  -11.5214 O   0  0  0  0  0  0  0  0  0  0  0  0
   20.0063  -16.1669  -16.9620 N   0  0  0  0  0  0  0  0  0  0  0  0
   19.5968  -17.4747  -17.2755 C   0  0  0  0  0  0  0  0  0  0  0  0
   18.5324  -17.7174  -17.9927 N   0  0  0  0  0  0  0  0  0  0  0  0
   20.3158  -18.6182  -16.8330 N   0  0  0  0  0  0  0  0  0  0  0  0
   21.4596  -18.4759  -15.9223 C   0  0  0  0  0  0  0  0  0  0  0  0
   21.1793  -19.1443  -14.6016 C   0  0  0  0  0  0  0  0  0  0  0  0
   22.3411  -19.8226  -13.9875 C   0  0  0  0  0  0  0  0  0  0  0  0
   22.0495  -20.4932  -12.6896 C   0  0  2  0  0  0  0  0  0  0  0  0
   23.2415  -21.1825  -12.1919 N   0  0  0  0  0  0  0  0  0  0  0  0
   20.9366  -21.4610  -12.8743 C   0  0  0  0  0  0  0  0  0  0  0  0
   19.7714  -21.0476  -12.7240 O   0  0  0  0  0  0  0  0  0  0  0  0
   21.2263  -22.7623  -13.2023 O   0  0  0  0  0  0  0  0  0  0  0  0
  2  1  1  0
  3  4  1  6
  3  2  1  0
  5  3  1  0
  5  6  1  1
  7  8  2  0
  7  5  1  0
  9  7  1  0
 10  9  1  0
 11 12  1  0
 10 11  1  1
 13 14  2  0
 13 10  1  0
 16 15  1  0
 17 16  2  0
 18 16  1  0
 19 18  1  0
 20 21  1  0
 20 19  1  0
 22 21  1  6
 22 23  1  0
 23 13  1  0
 24 22  1  0
 25 24  2  0
 26 24  1  0
M  END
$$$$
