ECQ.pdb
     RDKit          3D

 25 24  0  0  1  0  0  0  0  0999 V2000
    7.1696  -16.7836   21.2586 N   0  0  0  0  0  0  0  0  0  0  0  0
    8.5223  -16.4678   21.4899 C   0  0  1  0  0  0  0  0  0  0  0  0
    9.2363  -15.8950   20.3124 C   0  0  0  0  0  0  0  0  0  0  0  0
    8.5162  -16.0234   19.0215 C   0  0  0  0  0  0  0  0  0  0  0  0
    9.0234  -17.0376   18.1188 C   0  0  0  0  0  0  0  0  0  0  0  0
    9.4978  -16.8719   16.9912 O   0  0  0  0  0  0  0  0  0  0  0  0
    8.7391  -15.5008   22.6095 C   0  0  0  0  0  0  0  0  0  0  0  0
    9.9229  -15.1160   22.9011 O   0  0  0  0  0  0  0  0  0  0  0  0
    8.9777  -18.3737   18.5633 O   0  0  0  0  0  0  0  0  0  0  0  0
    7.7247  -14.9442   23.4116 N   0  0  0  0  0  0  0  0  0  0  0  0
    7.9895  -14.1512   24.5792 C   0  0  1  0  0  0  0  0  0  0  0  0
    6.7911  -13.4545   25.1391 C   0  0  0  0  0  0  0  0  0  0  0  0
    7.1722  -12.4504   26.5919 S   0  0  0  0  0  0  0  0  0  0  0  0
    8.5655  -15.0034   25.6447 C   0  0  0  0  0  0  0  0  0  0  0  0
    8.0703  -16.1393   25.9044 O   0  0  0  0  0  0  0  0  0  0  0  0
   10.7391  -18.8307   29.2990 N   0  0  0  0  0  0  0  0  0  0  0  0
   11.3644  -18.4413   28.0742 C   0  0  0  0  0  0  0  0  0  0  0  0
   11.3501  -19.2225   27.0987 O   0  0  0  0  0  0  0  0  0  0  0  0
   12.0064  -17.1047   28.0373 C   0  0  0  0  0  0  0  0  0  0  0  0
   11.4283  -16.1814   27.0115 C   0  0  0  0  0  0  0  0  0  0  0  0
   10.1848  -15.4731   27.4804 C   0  0  2  0  0  0  0  0  0  0  0  0
    9.6859  -14.5951   26.4173 N   0  0  0  0  0  0  0  0  0  0  0  0
   10.5289  -14.6484   28.6576 C   0  0  0  0  0  0  0  0  0  0  0  0
   10.4989  -13.3990   28.5409 O   0  0  0  0  0  0  0  0  0  0  0  0
   10.8847  -15.1453   29.8957 O   0  0  0  0  0  0  0  0  0  0  0  0
  2  1  1  6
  2  7  1  0
  3  2  1  0
  4  3  1  0
  5  4  1  0
  6  5  2  0
  7  8  2  0
  9  5  1  0
 10 11  1  0
 10  7  1  0
 11 12  1  1
 12 13  1  0
 14 15  2  0
 14 11  1  0
 16 17  1  0
 17 19  1  0
 18 17  2  0
 19 20  1  0
 21 20  1  6
 21 23  1  0
 21 22  1  0
 22 14  1  0
 23 25  1  0
 24 23  2  0
M  END
$$$$
