ECQ.pdb
     RDKit          3D

 25 24  0  0  1  0  0  0  0  0999 V2000
    9.4441  -16.3228   20.0301 N   0  0  0  0  0  0  0  0  0  0  0  0
    8.8519  -16.7734   21.2256 C   0  0  1  0  0  0  0  0  0  0  0  0
    9.3021  -18.1238   21.6710 C   0  0  0  0  0  0  0  0  0  0  0  0
   10.4511  -18.6804   20.9152 C   0  0  0  0  0  0  0  0  0  0  0  0
   11.0872  -19.8409   21.5062 C   0  0  0  0  0  0  0  0  0  0  0  0
   10.8301  -20.3684   22.5923 O   0  0  0  0  0  0  0  0  0  0  0  0
    9.0689  -15.8647   22.3929 C   0  0  0  0  0  0  0  0  0  0  0  0
   10.2083  -15.3122   22.5694 O   0  0  0  0  0  0  0  0  0  0  0  0
   12.1216  -20.4512   20.7695 O   0  0  0  0  0  0  0  0  0  0  0  0
    8.1006  -15.5395   23.3619 N   0  0  0  0  0  0  0  0  0  0  0  0
    8.3414  -14.6211   24.4393 C   0  0  1  0  0  0  0  0  0  0  0  0
    7.1262  -13.8904   24.9130 C   0  0  0  0  0  0  0  0  0  0  0  0
    7.4275  -12.9067   26.3981 S   0  0  0  0  0  0  0  0  0  0  0  0
    8.9230  -15.3433   25.5940 C   0  0  0  0  0  0  0  0  0  0  0  0
    8.4495  -16.4566   25.9671 O   0  0  0  0  0  0  0  0  0  0  0  0
   14.8952  -15.7474   26.7917 N   0  0  0  0  0  0  0  0  0  0  0  0
   14.3833  -16.5522   27.8561 C   0  0  0  0  0  0  0  0  0  0  0  0
   15.1755  -17.1831   28.5884 O   0  0  0  0  0  0  0  0  0  0  0  0
   12.9105  -16.5896   28.0280 C   0  0  0  0  0  0  0  0  0  0  0  0
   12.1669  -15.6883   27.0932 C   0  0  0  0  0  0  0  0  0  0  0  0
   10.6797  -15.6803   27.3299 C   0  0  2  0  0  0  0  0  0  0  0  0
   10.0250  -14.8307   26.3300 N   0  0  0  0  0  0  0  0  0  0  0  0
   10.4202  -15.1217   28.6734 C   0  0  0  0  0  0  0  0  0  0  0  0
    9.9609  -13.9566   28.7573 O   0  0  0  0  0  0  0  0  0  0  0  0
   10.6426  -15.7858   29.8633 O   0  0  0  0  0  0  0  0  0  0  0  0
  2  1  1  6
  2  7  1  0
  3  2  1  0
  4  3  1  0
  5  4  1  0
  6  5  2  0
  7  8  2  0
  9  5  1  0
 10 11  1  0
 10  7  1  0
 11 12  1  1
 12 13  1  0
 14 15  2  0
 14 11  1  0
 16 17  1  0
 17 19  1  0
 18 17  2  0
 19 20  1  0
 21 20  1  6
 21 23  1  0
 21 22  1  0
 22 14  1  0
 23 25  1  0
 24 23  2  0
M  END
$$$$
