ECQ.pdb
     RDKit          3D

 25 24  0  0  1  0  0  0  0  0999 V2000
    9.9162  -17.5989   18.3986 N   0  0  0  0  0  0  0  0  0  0  0  0
   10.4623  -18.0774   19.6051 C   0  0  1  0  0  0  0  0  0  0  0  0
   11.9212  -18.3821   19.5485 C   0  0  0  0  0  0  0  0  0  0  0  0
   12.7293  -17.4251   18.7531 C   0  0  0  0  0  0  0  0  0  0  0  0
   14.1458  -17.7200   18.6681 C   0  0  0  0  0  0  0  0  0  0  0  0
   14.9849  -17.6477   19.5707 O   0  0  0  0  0  0  0  0  0  0  0  0
   10.2830  -17.1505   20.7646 C   0  0  0  0  0  0  0  0  0  0  0  0
   11.2984  -16.5717   21.2827 O   0  0  0  0  0  0  0  0  0  0  0  0
   14.6404  -18.1393   17.4173 O   0  0  0  0  0  0  0  0  0  0  0  0
    9.0523  -16.8351   21.3712 N   0  0  0  0  0  0  0  0  0  0  0  0
    8.9225  -15.8911   22.4456 C   0  0  1  0  0  0  0  0  0  0  0  0
    7.5137  -15.5041   22.7627 C   0  0  0  0  0  0  0  0  0  0  0  0
    6.5857  -14.9629   21.3101 S   0  0  0  0  0  0  0  0  0  0  0  0
    9.5356  -16.4430   23.6756 C   0  0  0  0  0  0  0  0  0  0  0  0
    9.7156  -17.6893   23.8067 O   0  0  0  0  0  0  0  0  0  0  0  0
   11.4214  -13.8296   29.2320 N   0  0  0  0  0  0  0  0  0  0  0  0
   10.4404  -13.2787   28.3506 C   0  0  0  0  0  0  0  0  0  0  0  0
    9.8693  -12.2093   28.6542 O   0  0  0  0  0  0  0  0  0  0  0  0
   10.1546  -14.0284   27.1030 C   0  0  0  0  0  0  0  0  0  0  0  0
   11.0992  -15.1597   26.8445 C   0  0  0  0  0  0  0  0  0  0  0  0
   10.5200  -16.2284   25.9554 C   0  0  2  0  0  0  0  0  0  0  0  0
    9.9464  -15.6140   24.7539 N   0  0  0  0  0  0  0  0  0  0  0  0
    9.4456  -16.9238   26.6945 C   0  0  0  0  0  0  0  0  0  0  0  0
    8.2534  -16.6675   26.3969 O   0  0  0  0  0  0  0  0  0  0  0  0
    9.6467  -17.8482   27.7002 O   0  0  0  0  0  0  0  0  0  0  0  0
  2  1  1  6
  2  7  1  0
  3  2  1  0
  4  3  1  0
  5  4  1  0
  6  5  2  0
  7  8  2  0
  9  5  1  0
 10 11  1  0
 10  7  1  0
 11 12  1  1
 12 13  1  0
 14 15  2  0
 14 11  1  0
 16 17  1  0
 17 19  1  0
 18 17  2  0
 19 20  1  0
 21 20  1  1
 21 23  1  0
 21 22  1  0
 22 14  1  0
 23 25  1  0
 24 23  2  0
M  END
$$$$
