ECQ.pdb
     RDKit          3D

 25 24  0  0  1  0  0  0  0  0999 V2000
    9.5840  -16.4262   19.2511 N   0  0  0  0  0  0  0  0  0  0  0  0
    9.3438  -17.2939   20.3338 C   0  0  1  0  0  0  0  0  0  0  0  0
   10.2283  -18.4941   20.3756 C   0  0  0  0  0  0  0  0  0  0  0  0
   11.5061  -18.3550   19.6345 C   0  0  0  0  0  0  0  0  0  0  0  0
   12.3535  -19.5308   19.6198 C   0  0  0  0  0  0  0  0  0  0  0  0
   12.1181  -20.6213   19.0913 O   0  0  0  0  0  0  0  0  0  0  0  0
    9.4722  -16.6447   21.6746 C   0  0  0  0  0  0  0  0  0  0  0  0
   10.4764  -15.8951   21.9279 O   0  0  0  0  0  0  0  0  0  0  0  0
   13.5942  -19.4364   20.2808 O   0  0  0  0  0  0  0  0  0  0  0  0
    8.5563  -16.7805   22.7352 N   0  0  0  0  0  0  0  0  0  0  0  0
    8.7144  -16.1225   24.0018 C   0  0  1  0  0  0  0  0  0  0  0  0
    7.4445  -15.9474   24.7712 C   0  0  0  0  0  0  0  0  0  0  0  0
    6.5084  -17.4824   24.9483 S   0  0  0  0  0  0  0  0  0  0  0  0
    9.6632  -16.8827   24.8474 C   0  0  0  0  0  0  0  0  0  0  0  0
   10.1333  -17.9918   24.4576 O   0  0  0  0  0  0  0  0  0  0  0  0
   10.0085  -14.9041   29.8153 N   0  0  0  0  0  0  0  0  0  0  0  0
   10.7403  -14.1512   28.8456 C   0  0  0  0  0  0  0  0  0  0  0  0
   10.6970  -12.9025   28.8733 O   0  0  0  0  0  0  0  0  0  0  0  0
   11.5221  -14.9166   27.8442 C   0  0  0  0  0  0  0  0  0  0  0  0
   11.5263  -16.3946   28.0777 C   0  0  0  0  0  0  0  0  0  0  0  0
   11.0710  -17.1883   26.8815 C   0  0  2  0  0  0  0  0  0  0  0  0
   10.0872  -16.4127   26.1195 N   0  0  0  0  0  0  0  0  0  0  0  0
   10.4313  -18.4324   27.3584 C   0  0  0  0  0  0  0  0  0  0  0  0
    9.1996  -18.5816   27.1679 O   0  0  0  0  0  0  0  0  0  0  0  0
   11.0862  -19.4619   28.0047 O   0  0  0  0  0  0  0  0  0  0  0  0
  2  1  1  6
  2  7  1  0
  3  2  1  0
  4  3  1  0
  5  4  1  0
  6  5  2  0
  7  8  2  0
  9  5  1  0
 10 11  1  0
 10  7  1  0
 11 12  1  1
 12 13  1  0
 14 15  2  0
 14 11  1  0
 16 17  1  0
 17 19  1  0
 18 17  2  0
 19 20  1  0
 21 20  1  1
 21 23  1  0
 21 22  1  0
 22 14  1  0
 23 25  1  0
 24 23  2  0
M  END
$$$$
