ECQ.pdb
     RDKit          3D

 25 24  0  0  1  0  0  0  0  0999 V2000
    7.6592  -17.4715   20.5555 N   0  0  0  0  0  0  0  0  0  0  0  0
    8.9406  -17.5760   21.1300 C   0  0  1  0  0  0  0  0  0  0  0  0
   10.0462  -17.7765   20.1493 C   0  0  0  0  0  0  0  0  0  0  0  0
   10.0162  -16.8656   18.9786 C   0  0  0  0  0  0  0  0  0  0  0  0
   11.0566  -17.0781   17.9920 C   0  0  0  0  0  0  0  0  0  0  0  0
   12.2739  -16.9351   18.1396 O   0  0  0  0  0  0  0  0  0  0  0  0
    9.3360  -16.3938   21.9556 C   0  0  0  0  0  0  0  0  0  0  0  0
   10.5649  -16.2046   22.2532 O   0  0  0  0  0  0  0  0  0  0  0  0
   10.6497  -17.4968   16.7098 O   0  0  0  0  0  0  0  0  0  0  0  0
    8.4515  -15.4220   22.4610 N   0  0  0  0  0  0  0  0  0  0  0  0
    8.5802  -14.8437   23.7692 C   0  0  1  0  0  0  0  0  0  0  0  0
    7.4165  -14.0062   24.1930 C   0  0  0  0  0  0  0  0  0  0  0  0
    7.6080  -13.3187   25.8527 S   0  0  0  0  0  0  0  0  0  0  0  0
    8.7667  -15.9144   24.7752 C   0  0  0  0  0  0  0  0  0  0  0  0
    8.0425  -16.9528   24.7581 O   0  0  0  0  0  0  0  0  0  0  0  0
   12.8080  -20.6204   25.6885 N   0  0  0  0  0  0  0  0  0  0  0  0
   12.6295  -19.6724   26.7431 C   0  0  0  0  0  0  0  0  0  0  0  0
   13.6024  -19.3591   27.4622 O   0  0  0  0  0  0  0  0  0  0  0  0
   11.2696  -19.1079   26.9224 C   0  0  0  0  0  0  0  0  0  0  0  0
   10.9997  -17.8969   26.0859 C   0  0  0  0  0  0  0  0  0  0  0  0
    9.9669  -16.9779   26.6834 C   0  0  2  0  0  0  0  0  0  0  0  0
    9.7529  -15.8314   25.7947 N   0  0  0  0  0  0  0  0  0  0  0  0
   10.4705  -16.4863   27.9830 C   0  0  0  0  0  0  0  0  0  0  0  0
   10.2814  -17.1931   29.0029 O   0  0  0  0  0  0  0  0  0  0  0  0
   11.1442  -15.2960   28.1719 O   0  0  0  0  0  0  0  0  0  0  0  0
  2  1  1  6
  2  7  1  0
  3  2  1  0
  4  3  1  0
  5  4  1  0
  6  5  2  0
  7  8  2  0
  9  5  1  0
 10 11  1  0
 10  7  1  0
 11 12  1  1
 12 13  1  0
 14 15  2  0
 14 11  1  0
 16 17  1  0
 17 19  1  0
 18 17  2  0
 19 20  1  0
 21 20  1  6
 21 23  1  0
 21 22  1  0
 22 14  1  0
 23 25  1  0
 24 23  2  0
M  END
$$$$
