ECQ.pdb
     RDKit          3D

 25 24  0  0  1  0  0  0  0  0999 V2000
    7.7951  -17.5510   20.1824 N   0  0  0  0  0  0  0  0  0  0  0  0
    9.1673  -17.4039   20.4623 C   0  0  1  0  0  0  0  0  0  0  0  0
    9.9794  -16.8765   19.3280 C   0  0  0  0  0  0  0  0  0  0  0  0
    9.9130  -17.6822   18.0839 C   0  0  0  0  0  0  0  0  0  0  0  0
   11.1468  -18.3344   17.6928 C   0  0  0  0  0  0  0  0  0  0  0  0
   11.7353  -19.2462   18.2814 O   0  0  0  0  0  0  0  0  0  0  0  0
    9.4594  -16.5098   21.6246 C   0  0  0  0  0  0  0  0  0  0  0  0
   10.6702  -16.2619   21.9515 O   0  0  0  0  0  0  0  0  0  0  0  0
   11.7602  -17.8889   16.5052 O   0  0  0  0  0  0  0  0  0  0  0  0
    8.4913  -15.8831   22.4323 N   0  0  0  0  0  0  0  0  0  0  0  0
    8.8031  -15.2302   23.6728 C   0  0  1  0  0  0  0  0  0  0  0  0
    7.7350  -14.3124   24.1747 C   0  0  0  0  0  0  0  0  0  0  0  0
    8.1309  -13.5768   25.7766 S   0  0  0  0  0  0  0  0  0  0  0  0
    9.0686  -16.2430   24.7201 C   0  0  0  0  0  0  0  0  0  0  0  0
    8.2081  -17.1294   24.9973 O   0  0  0  0  0  0  0  0  0  0  0  0
   10.1998  -21.5292   25.8089 N   0  0  0  0  0  0  0  0  0  0  0  0
   11.2789  -20.6262   26.0594 C   0  0  0  0  0  0  0  0  0  0  0  0
   12.1235  -20.9030   26.9380 O   0  0  0  0  0  0  0  0  0  0  0  0
   11.3290  -19.3888   25.2432 C   0  0  0  0  0  0  0  0  0  0  0  0
   11.6988  -18.1640   26.0192 C   0  0  0  0  0  0  0  0  0  0  0  0
   10.5090  -17.3392   26.4337 C   0  0  2  0  0  0  0  0  0  0  0  0
   10.2841  -16.2702   25.4556 N   0  0  0  0  0  0  0  0  0  0  0  0
   10.7949  -16.7292   27.7492 C   0  0  0  0  0  0  0  0  0  0  0  0
   11.1037  -15.5132   27.7892 O   0  0  0  0  0  0  0  0  0  0  0  0
   10.7481  -17.3953   28.9577 O   0  0  0  0  0  0  0  0  0  0  0  0
  2  1  1  6
  2  7  1  0
  3  2  1  0
  4  3  1  0
  5  4  1  0
  6  5  2  0
  7  8  2  0
  9  5  1  0
 10 11  1  0
 10  7  1  0
 11 12  1  1
 12 13  1  0
 14 15  2  0
 14 11  1  0
 16 17  1  0
 17 19  1  0
 18 17  2  0
 19 20  1  0
 21 20  1  6
 21 23  1  0
 21 22  1  0
 22 14  1  0
 23 25  1  0
 24 23  2  0
M  END
$$$$
