ECQ.pdb
     RDKit          3D

 25 24  0  0  1  0  0  0  0  0999 V2000
    8.5410  -14.0603   19.6196 N   0  0  0  0  0  0  0  0  0  0  0  0
    7.6264  -14.3968   20.6360 C   0  0  1  0  0  0  0  0  0  0  0  0
    6.9820  -15.7321   20.4742 C   0  0  0  0  0  0  0  0  0  0  0  0
    7.8445  -16.7723   19.8614 C   0  0  0  0  0  0  0  0  0  0  0  0
    7.2339  -18.0765   19.6979 C   0  0  0  0  0  0  0  0  0  0  0  0
    7.7230  -19.0741   19.1598 O   0  0  0  0  0  0  0  0  0  0  0  0
    8.2142  -14.3906   22.0108 C   0  0  0  0  0  0  0  0  0  0  0  0
    9.4520  -14.6634   22.1776 O   0  0  0  0  0  0  0  0  0  0  0  0
    5.9305  -18.2436   20.2061 O   0  0  0  0  0  0  0  0  0  0  0  0
    7.5105  -14.1002   23.1952 N   0  0  0  0  0  0  0  0  0  0  0  0
    8.1237  -14.0903   24.4937 C   0  0  1  0  0  0  0  0  0  0  0  0
    7.4177  -13.2455   25.5052 C   0  0  0  0  0  0  0  0  0  0  0  0
    5.7003  -13.7421   25.7655 S   0  0  0  0  0  0  0  0  0  0  0  0
    8.2021  -15.4715   25.0224 C   0  0  0  0  0  0  0  0  0  0  0  0
    7.5032  -16.3989   24.5181 O   0  0  0  0  0  0  0  0  0  0  0  0
   10.9480  -20.3769   24.7423 N   0  0  0  0  0  0  0  0  0  0  0  0
   11.3764  -19.1700   24.1079 C   0  0  0  0  0  0  0  0  0  0  0  0
   11.3235  -19.0751   22.8629 O   0  0  0  0  0  0  0  0  0  0  0  0
   11.8691  -18.0816   24.9870 C   0  0  0  0  0  0  0  0  0  0  0  0
   10.9603  -16.8946   25.0512 C   0  0  0  0  0  0  0  0  0  0  0  0
    9.8339  -17.0589   26.0372 C   0  0  2  0  0  0  0  0  0  0  0  0
    9.0528  -15.8199   26.1058 N   0  0  0  0  0  0  0  0  0  0  0  0
   10.4116  -17.3327   27.3697 C   0  0  0  0  0  0  0  0  0  0  0  0
   10.9827  -18.4343   27.5583 O   0  0  0  0  0  0  0  0  0  0  0  0
   10.3766  -16.4630   28.4416 O   0  0  0  0  0  0  0  0  0  0  0  0
  2  1  1  6
  2  7  1  0
  3  2  1  0
  4  3  1  0
  5  4  1  0
  6  5  2  0
  7  8  2  0
  9  5  1  0
 10 11  1  0
 10  7  1  0
 11 12  1  1
 12 13  1  0
 14 15  2  0
 14 11  1  0
 16 17  1  0
 17 19  1  0
 18 17  2  0
 19 20  1  0
 21 20  1  6
 21 23  1  0
 21 22  1  0
 22 14  1  0
 23 25  1  0
 24 23  2  0
M  END
$$$$
