CPE.pdb
     RDKit          3D

 23 23  0  0  1  0  0  0  0  0999 V2000
   23.2360  -33.9602  -17.5176 N   0  0  0  0  0  0  0  0  0  0  0  0
   24.0748  -33.0659  -16.8129 C   0  0  1  0  0  0  0  0  0  0  0  0
   23.4557  -31.6764  -16.6605 C   0  0  0  0  0  0  0  0  0  0  0  0
   24.5590  -30.5545  -15.7506 S   0  0  0  0  0  0  0  0  0  0  0  0
   24.6570  -33.5468  -15.5651 C   0  0  0  0  0  0  0  0  0  0  0  0
   23.7772  -33.7981  -14.6536 O   0  0  0  0  0  0  0  0  0  0  0  0
   26.0389  -33.7482  -15.2901 N   0  0  0  0  0  0  0  0  0  0  0  0
   27.1315  -33.7973  -16.2421 C   0  0  0  0  0  0  0  0  0  0  0  0
   28.1147  -32.8274  -15.5603 C   0  0  0  0  0  0  0  0  0  0  0  0
   28.0409  -33.3514  -14.1425 C   0  0  0  0  0  0  0  0  0  0  0  0
   26.6536  -33.9595  -13.9981 C   0  0  1  0  0  0  0  0  0  0  0  0
   26.0347  -33.2858  -12.8553 C   0  0  0  0  0  0  0  0  0  0  0  0
   25.4542  -32.2024  -12.9419 O   0  0  0  0  0  0  0  0  0  0  0  0
   26.0872  -33.8830  -11.5645 N   0  0  0  0  0  0  0  0  0  0  0  0
   25.4453  -33.2552  -10.4002 C   0  0  1  0  0  0  0  0  0  0  0  0
   24.6021  -34.2563   -9.6539 C   0  0  0  0  0  0  0  0  0  0  0  0
   23.9236  -33.6414   -8.4459 C   0  0  0  0  0  0  0  0  0  0  0  0
   22.4536  -33.5854   -8.6200 C   0  0  0  0  0  0  0  0  0  0  0  0
   21.9768  -33.9609   -9.7248 O   0  0  0  0  0  0  0  0  0  0  0  0
   26.4803  -32.7647   -9.4577 C   0  0  0  0  0  0  0  0  0  0  0  0
   26.1282  -31.8783   -8.4566 O   0  0  0  0  0  0  0  0  0  0  0  0
   21.5645  -33.1455   -7.6427 O   0  0  0  0  0  0  0  0  0  0  0  0
   27.6643  -33.1394   -9.5530 O   0  0  0  0  0  0  0  0  0  0  0  0
  2  3  1  0
  2  1  1  1
  3  4  1  0
  5  2  1  0
  5  6  2  0
  7  5  1  0
  8  7  1  0
  9 10  1  0
  9  8  1  0
 10 11  1  0
 11  7  1  0
 11 12  1  1
 12 14  1  0
 13 12  2  0
 14 15  1  0
 15 16  1  1
 16 17  1  0
 17 18  1  0
 18 22  1  0
 18 19  2  0
 20 15  1  0
 20 21  1  0
 23 20  2  0
M  END
$$$$
