CPE.pdb
     RDKit          3D

 23 23  0  0  1  0  0  0  0  0999 V2000
   15.2450   -9.7207  -10.9668 N   0  0  0  0  0  0  0  0  0  0  0  0
   15.4045   -8.3156  -10.9779 C   0  0  1  0  0  0  0  0  0  0  0  0
   15.8984   -7.7698   -9.6380 C   0  0  0  0  0  0  0  0  0  0  0  0
   14.7171   -8.1214   -8.3021 S   0  0  0  0  0  0  0  0  0  0  0  0
   16.1286   -7.7394  -12.1052 C   0  0  0  0  0  0  0  0  0  0  0  0
   17.1191   -8.4670  -12.5025 O   0  0  0  0  0  0  0  0  0  0  0  0
   15.8453   -6.5092  -12.7626 N   0  0  0  0  0  0  0  0  0  0  0  0
   14.5763   -5.8103  -12.8211 C   0  0  0  0  0  0  0  0  0  0  0  0
   15.0400   -4.3952  -12.4277 C   0  0  0  0  0  0  0  0  0  0  0  0
   16.2556   -4.2725  -13.3208 C   0  0  0  0  0  0  0  0  0  0  0  0
   16.7621   -5.6925  -13.5268 C   0  0  1  0  0  0  0  0  0  0  0  0
   18.1603   -5.6889  -13.0934 C   0  0  0  0  0  0  0  0  0  0  0  0
   18.5066   -5.8666  -11.9243 O   0  0  0  0  0  0  0  0  0  0  0  0
   19.1981   -5.4720  -14.0429 N   0  0  0  0  0  0  0  0  0  0  0  0
   20.6018   -5.7800  -13.7317 C   0  0  1  0  0  0  0  0  0  0  0  0
   21.1274   -6.8514  -14.6514 C   0  0  0  0  0  0  0  0  0  0  0  0
   22.5726   -7.1987  -14.3538 C   0  0  0  0  0  0  0  0  0  0  0  0
   23.0653   -8.2759  -15.2434 C   0  0  0  0  0  0  0  0  0  0  0  0
   22.9572   -9.4661  -14.8424 O   0  0  0  0  0  0  0  0  0  0  0  0
   21.4403   -4.5742  -13.9390 C   0  0  0  0  0  0  0  0  0  0  0  0
   22.6276   -4.4395  -13.2433 O   0  0  0  0  0  0  0  0  0  0  0  0
   23.6396   -8.0594  -16.4932 O   0  0  0  0  0  0  0  0  0  0  0  0
   21.0919   -3.6788  -14.7317 O   0  0  0  0  0  0  0  0  0  0  0  0
  2  3  1  0
  2  1  1  1
  3  4  1  0
  5  2  1  0
  5  6  2  0
  7  5  1  0
  8  7  1  0
  9 10  1  0
  9  8  1  0
 10 11  1  0
 11  7  1  0
 11 12  1  1
 12 14  1  0
 13 12  2  0
 14 15  1  0
 15 16  1  6
 16 17  1  0
 17 18  1  0
 18 22  1  0
 18 19  2  0
 20 15  1  0
 20 21  1  0
 23 20  2  0
M  END
$$$$
