CPE.pdb
     RDKit          3D

 23 23  0  0  1  0  0  0  0  0999 V2000
   27.2420  -22.4186  -14.7120 N   0  0  0  0  0  0  0  0  0  0  0  0
   26.3448  -21.3768  -14.3805 C   0  0  1  0  0  0  0  0  0  0  0  0
   26.0911  -20.4256  -15.5501 C   0  0  0  0  0  0  0  0  0  0  0  0
   24.9133  -19.1172  -15.0979 S   0  0  0  0  0  0  0  0  0  0  0  0
   25.1096  -21.7559  -13.7039 C   0  0  0  0  0  0  0  0  0  0  0  0
   24.2484  -22.3153  -14.4872 O   0  0  0  0  0  0  0  0  0  0  0  0
   24.7978  -21.5675  -12.3280 N   0  0  0  0  0  0  0  0  0  0  0  0
   25.7109  -21.2321  -11.2528 C   0  0  0  0  0  0  0  0  0  0  0  0
   24.9354  -20.0692  -10.6059 C   0  0  0  0  0  0  0  0  0  0  0  0
   23.5562  -20.6895  -10.5475 C   0  0  0  0  0  0  0  0  0  0  0  0
   23.5000  -21.6815  -11.6999 C   0  0  1  0  0  0  0  0  0  0  0  0
   22.3409  -21.2969  -12.5070 C   0  0  0  0  0  0  0  0  0  0  0  0
   22.2670  -20.2304  -13.1198 O   0  0  0  0  0  0  0  0  0  0  0  0
   21.2250  -22.1742  -12.6114 N   0  0  0  0  0  0  0  0  0  0  0  0
   20.0588  -21.8395  -13.4419 C   0  0  1  0  0  0  0  0  0  0  0  0
   19.1139  -23.0099  -13.5279 C   0  0  0  0  0  0  0  0  0  0  0  0
   18.0298  -22.9454  -12.4705 C   0  0  0  0  0  0  0  0  0  0  0  0
   17.0678  -24.0631  -12.6118 C   0  0  0  0  0  0  0  0  0  0  0  0
   17.2445  -24.8757  -13.5590 O   0  0  0  0  0  0  0  0  0  0  0  0
   19.3097  -20.7154  -12.8293 C   0  0  0  0  0  0  0  0  0  0  0  0
   18.4653  -19.9497  -13.6119 O   0  0  0  0  0  0  0  0  0  0  0  0
   15.9818  -24.2744  -11.7663 O   0  0  0  0  0  0  0  0  0  0  0  0
   19.4286  -20.4493  -11.6183 O   0  0  0  0  0  0  0  0  0  0  0  0
  2  3  1  0
  2  1  1  6
  3  4  1  0
  5  2  1  0
  5  6  2  0
  7  5  1  0
  8  7  1  0
  9 10  1  0
  9  8  1  0
 10 11  1  0
 11  7  1  0
 11 12  1  6
 12 14  1  0
 13 12  2  0
 14 15  1  0
 15 16  1  1
 16 17  1  0
 17 18  1  0
 18 22  1  0
 18 19  2  0
 20 15  1  0
 20 21  1  0
 23 20  2  0
M  END
$$$$
