CPE.pdb
     RDKit          3D

 23 23  0  0  1  0  0  0  0  0999 V2000
   28.2300  -21.9740  -15.9395 N   0  0  0  0  0  0  0  0  0  0  0  0
   27.4156  -21.0140  -15.2951 C   0  0  1  0  0  0  0  0  0  0  0  0
   27.1319  -19.7976  -16.1766 C   0  0  0  0  0  0  0  0  0  0  0  0
   27.8969  -18.2943  -15.4993 S   0  0  0  0  0  0  0  0  0  0  0  0
   26.2123  -21.5034  -14.6319 C   0  0  0  0  0  0  0  0  0  0  0  0
   25.2889  -21.8735  -15.4556 O   0  0  0  0  0  0  0  0  0  0  0  0
   25.9897  -21.5983  -13.2293 N   0  0  0  0  0  0  0  0  0  0  0  0
   26.9568  -21.4071  -12.1660 C   0  0  0  0  0  0  0  0  0  0  0  0
   26.1641  -20.4431  -11.2634 C   0  0  0  0  0  0  0  0  0  0  0  0
   24.8306  -21.1584  -11.2429 C   0  0  0  0  0  0  0  0  0  0  0  0
   24.7490  -21.9185  -12.5586 C   0  0  1  0  0  0  0  0  0  0  0  0
   23.5148  -21.4718  -13.2066 C   0  0  0  0  0  0  0  0  0  0  0  0
   23.3978  -20.3750  -13.7560 O   0  0  0  0  0  0  0  0  0  0  0  0
   22.3726  -22.3207  -13.2218 N   0  0  0  0  0  0  0  0  0  0  0  0
   21.0995  -21.8864  -13.8154 C   0  0  1  0  0  0  0  0  0  0  0  0
   20.0734  -22.9869  -13.7368 C   0  0  0  0  0  0  0  0  0  0  0  0
   18.7648  -22.5934  -14.3928 C   0  0  0  0  0  0  0  0  0  0  0  0
   17.7865  -23.7053  -14.3605 C   0  0  0  0  0  0  0  0  0  0  0  0
   18.1422  -24.7869  -13.8199 O   0  0  0  0  0  0  0  0  0  0  0  0
   20.5600  -20.7293  -13.0602 C   0  0  0  0  0  0  0  0  0  0  0  0
   20.7031  -20.6835  -11.6857 O   0  0  0  0  0  0  0  0  0  0  0  0
   16.4999  -23.6331  -14.8882 O   0  0  0  0  0  0  0  0  0  0  0  0
   19.9792  -19.7956  -13.6452 O   0  0  0  0  0  0  0  0  0  0  0  0
  2  3  1  0
  2  1  1  6
  3  4  1  0
  5  2  1  0
  5  6  2  0
  7  5  1  0
  8  7  1  0
  9 10  1  0
  9  8  1  0
 10 11  1  0
 11  7  1  0
 11 12  1  6
 12 14  1  0
 13 12  2  0
 14 15  1  0
 15 16  1  1
 16 17  1  0
 17 18  1  0
 18 22  1  0
 18 19  2  0
 20 15  1  0
 20 21  1  0
 23 20  2  0
M  END
$$$$
