CPE.pdb
     RDKit          3D

 23 23  0  0  1  0  0  0  0  0999 V2000
   18.6894  -12.3585  -17.1187 N   0  0  0  0  0  0  0  0  0  0  0  0
   20.0205  -11.8846  -17.1781 C   0  0  1  0  0  0  0  0  0  0  0  0
   20.4539  -11.5266  -18.5997 C   0  0  0  0  0  0  0  0  0  0  0  0
   20.5876  -13.0072  -19.6454 S   0  0  0  0  0  0  0  0  0  0  0  0
   20.4029  -10.8594  -16.2136 C   0  0  0  0  0  0  0  0  0  0  0  0
   19.6787   -9.7925  -16.2871 O   0  0  0  0  0  0  0  0  0  0  0  0
   21.4514  -10.9389  -15.2543 N   0  0  0  0  0  0  0  0  0  0  0  0
   22.1196  -12.1319  -14.7721 C   0  0  0  0  0  0  0  0  0  0  0  0
   23.5867  -11.6908  -14.9309 C   0  0  0  0  0  0  0  0  0  0  0  0
   23.5019  -10.3116  -14.3138 C   0  0  0  0  0  0  0  0  0  0  0  0
   22.0720   -9.8440  -14.5417 C   0  0  1  0  0  0  0  0  0  0  0  0
   22.1731   -8.5680  -15.2519 C   0  0  0  0  0  0  0  0  0  0  0  0
   22.5710   -8.4703  -16.4140 O   0  0  0  0  0  0  0  0  0  0  0  0
   21.8021   -7.3594  -14.5983 N   0  0  0  0  0  0  0  0  0  0  0  0
   21.9281   -6.0548  -15.2646 C   0  0  1  0  0  0  0  0  0  0  0  0
   20.5951   -5.6001  -15.7996 C   0  0  0  0  0  0  0  0  0  0  0  0
   19.5430   -5.5170  -14.7116 C   0  0  0  0  0  0  0  0  0  0  0  0
   18.2524   -5.0201  -15.2425 C   0  0  0  0  0  0  0  0  0  0  0  0
   18.2169   -4.6408  -16.4440 O   0  0  0  0  0  0  0  0  0  0  0  0
   22.3810   -5.0327  -14.2897 C   0  0  0  0  0  0  0  0  0  0  0  0
   22.9065   -3.8381  -14.7465 O   0  0  0  0  0  0  0  0  0  0  0  0
   17.0763   -4.9452  -14.5008 O   0  0  0  0  0  0  0  0  0  0  0  0
   22.2951   -5.2330  -13.0634 O   0  0  0  0  0  0  0  0  0  0  0  0
  2  3  1  0
  2  1  1  6
  3  4  1  0
  5  2  1  0
  5  6  2  0
  7  5  1  0
  8  7  1  0
  9 10  1  0
  9  8  1  0
 10 11  1  0
 11  7  1  0
 11 12  1  6
 12 14  1  0
 13 12  2  0
 14 15  1  0
 15 16  1  1
 16 17  1  0
 17 18  1  0
 18 22  1  0
 18 19  2  0
 20 15  1  0
 20 21  1  0
 23 20  2  0
M  END
$$$$
