CPE.pdb
     RDKit          3D

 23 23  0  0  1  0  0  0  0  0999 V2000
   25.0507  -11.7607  -18.3319 N   0  0  0  0  0  0  0  0  0  0  0  0
   23.9590  -11.8171  -17.4347 C   0  0  1  0  0  0  0  0  0  0  0  0
   24.4021  -11.9564  -15.9782 C   0  0  0  0  0  0  0  0  0  0  0  0
   25.6024  -13.3061  -15.7758 S   0  0  0  0  0  0  0  0  0  0  0  0
   22.9151  -10.8115  -17.5967 C   0  0  0  0  0  0  0  0  0  0  0  0
   23.3385   -9.6030  -17.4274 O   0  0  0  0  0  0  0  0  0  0  0  0
   21.5461  -11.0451  -17.9080 N   0  0  0  0  0  0  0  0  0  0  0  0
   20.9551  -12.2575  -18.4400 C   0  0  0  0  0  0  0  0  0  0  0  0
   19.7746  -12.4216  -17.4645 C   0  0  0  0  0  0  0  0  0  0  0  0
   19.2463  -11.0034  -17.4696 C   0  0  0  0  0  0  0  0  0  0  0  0
   20.4455  -10.1167  -17.7713 C   0  0  1  0  0  0  0  0  0  0  0  0
   20.5253   -9.1572  -16.6687 C   0  0  0  0  0  0  0  0  0  0  0  0
   20.9350   -9.4512  -15.5444 O   0  0  0  0  0  0  0  0  0  0  0  0
   20.1174   -7.8085  -16.8693 N   0  0  0  0  0  0  0  0  0  0  0  0
   20.1664   -6.8204  -15.7817 C   0  0  1  0  0  0  0  0  0  0  0  0
   21.1188   -5.7032  -16.1208 C   0  0  0  0  0  0  0  0  0  0  0  0
   21.1577   -4.6405  -15.0407 C   0  0  0  0  0  0  0  0  0  0  0  0
   22.0696   -5.0223  -13.9374 C   0  0  0  0  0  0  0  0  0  0  0  0
   23.3083   -4.8791  -14.1211 O   0  0  0  0  0  0  0  0  0  0  0  0
   18.8268   -6.2122  -15.5925 C   0  0  0  0  0  0  0  0  0  0  0  0
   18.4744   -5.7065  -14.3548 O   0  0  0  0  0  0  0  0  0  0  0  0
   21.6473   -5.5287  -12.7109 O   0  0  0  0  0  0  0  0  0  0  0  0
   18.0122   -6.1490  -16.5326 O   0  0  0  0  0  0  0  0  0  0  0  0
  2  3  1  0
  2  1  1  6
  3  4  1  0
  5  2  1  0
  5  6  2  0
  7  5  1  0
  8  7  1  0
  9 10  1  0
  9  8  1  0
 10 11  1  0
 11  7  1  0
 11 12  1  1
 12 14  1  0
 13 12  2  0
 14 15  1  0
 15 16  1  6
 16 17  1  0
 17 18  1  0
 18 22  1  0
 18 19  2  0
 20 15  1  0
 20 21  1  0
 23 20  2  0
M  END
$$$$
