CPE.pdb
     RDKit          3D

 23 23  0  0  1  0  0  0  0  0999 V2000
   25.9986  -22.1415  -11.8077 N   0  0  0  0  0  0  0  0  0  0  0  0
   26.2442  -21.7474  -13.1435 C   0  0  1  0  0  0  0  0  0  0  0  0
   25.9063  -22.8458  -14.1517 C   0  0  0  0  0  0  0  0  0  0  0  0
   26.2917  -22.3284  -15.8509 S   0  0  0  0  0  0  0  0  0  0  0  0
   25.7293  -20.4468  -13.5562 C   0  0  0  0  0  0  0  0  0  0  0  0
   24.4512  -20.3326  -13.4092 O   0  0  0  0  0  0  0  0  0  0  0  0
   26.4821  -19.3576  -14.0786 N   0  0  0  0  0  0  0  0  0  0  0  0
   27.9194  -19.1726  -14.0297 C   0  0  0  0  0  0  0  0  0  0  0  0
   28.1877  -18.8258  -15.5062 C   0  0  0  0  0  0  0  0  0  0  0  0
   27.0874  -17.8110  -15.7291 C   0  0  0  0  0  0  0  0  0  0  0  0
   25.9739  -18.1897  -14.7637 C   0  0  1  0  0  0  0  0  0  0  0  0
   24.7752  -18.3754  -15.5832 C   0  0  0  0  0  0  0  0  0  0  0  0
   24.7929  -18.8985  -16.6988 O   0  0  0  0  0  0  0  0  0  0  0  0
   23.5091  -17.9419  -15.0990 N   0  0  0  0  0  0  0  0  0  0  0  0
   22.2540  -18.3865  -15.7227 C   0  0  1  0  0  0  0  0  0  0  0  0
   22.0261  -19.8544  -15.4711 C   0  0  0  0  0  0  0  0  0  0  0  0
   20.7525  -20.3532  -16.1243 C   0  0  0  0  0  0  0  0  0  0  0  0
   20.5061  -21.7802  -15.8121 C   0  0  0  0  0  0  0  0  0  0  0  0
   21.3479  -22.3785  -15.0893 O   0  0  0  0  0  0  0  0  0  0  0  0
   21.1087  -17.6565  -15.1264 C   0  0  0  0  0  0  0  0  0  0  0  0
   21.2753  -16.9836  -13.9300 O   0  0  0  0  0  0  0  0  0  0  0  0
   19.4055  -22.5031  -16.2647 O   0  0  0  0  0  0  0  0  0  0  0  0
   19.9967  -17.6392  -15.6872 O   0  0  0  0  0  0  0  0  0  0  0  0
  2  3  1  0
  2  1  1  1
  3  4  1  0
  5  2  1  0
  5  6  2  0
  7  5  1  0
  8  7  1  0
  9 10  1  0
  9  8  1  0
 10 11  1  0
 11  7  1  0
 11 12  1  6
 12 14  1  0
 13 12  2  0
 14 15  1  0
 15 16  1  1
 16 17  1  0
 17 18  1  0
 18 22  1  0
 18 19  2  0
 20 15  1  0
 20 21  1  0
 23 20  2  0
M  END
$$$$
