CPE.pdb
     RDKit          3D

 23 23  0  0  1  0  0  0  0  0999 V2000
   23.7778   -6.3437  -17.5788 N   0  0  0  0  0  0  0  0  0  0  0  0
   23.8404   -7.4106  -16.6526 C   0  0  1  0  0  0  0  0  0  0  0  0
   22.6665   -7.4081  -15.6732 C   0  0  0  0  0  0  0  0  0  0  0  0
   22.6859   -5.9284  -14.6178 S   0  0  0  0  0  0  0  0  0  0  0  0
   24.1033   -8.7406  -17.1903 C   0  0  0  0  0  0  0  0  0  0  0  0
   23.2195   -9.1293  -18.0482 O   0  0  0  0  0  0  0  0  0  0  0  0
   25.1941   -9.5938  -16.8613 N   0  0  0  0  0  0  0  0  0  0  0  0
   26.4444   -9.2249  -16.2266 C   0  0  0  0  0  0  0  0  0  0  0  0
   26.5079  -10.3043  -15.1297 C   0  0  0  0  0  0  0  0  0  0  0  0
   26.1647  -11.5236  -15.9578 C   0  0  0  0  0  0  0  0  0  0  0  0
   25.2968  -11.0165  -17.1002 C   0  0  1  0  0  0  0  0  0  0  0  0
   24.0541  -11.7874  -17.0357 C   0  0  0  0  0  0  0  0  0  0  0  0
   23.2436  -11.6882  -16.1128 O   0  0  0  0  0  0  0  0  0  0  0  0
   23.7337  -12.7073  -18.0733 N   0  0  0  0  0  0  0  0  0  0  0  0
   22.4924  -13.4949  -18.0465 C   0  0  1  0  0  0  0  0  0  0  0  0
   21.3041  -12.6256  -18.3664 C   0  0  0  0  0  0  0  0  0  0  0  0
   21.4842  -11.8717  -19.6691 C   0  0  0  0  0  0  0  0  0  0  0  0
   20.2941  -11.0493  -19.9883 C   0  0  0  0  0  0  0  0  0  0  0  0
   20.4624   -9.8120  -20.1601 O   0  0  0  0  0  0  0  0  0  0  0  0
   22.5480  -14.5585  -19.0788 C   0  0  0  0  0  0  0  0  0  0  0  0
   23.6133  -14.6014  -19.9593 O   0  0  0  0  0  0  0  0  0  0  0  0
   19.0022  -11.5542  -20.1111 O   0  0  0  0  0  0  0  0  0  0  0  0
   21.6489  -15.4161  -19.1658 O   0  0  0  0  0  0  0  0  0  0  0  0
  2  3  1  0
  2  1  1  6
  3  4  1  0
  5  2  1  0
  5  6  2  0
  7  5  1  0
  8  7  1  0
  9 10  1  0
  9  8  1  0
 10 11  1  0
 11  7  1  0
 11 12  1  1
 12 14  1  0
 13 12  2  0
 14 15  1  0
 15 16  1  6
 16 17  1  0
 17 18  1  0
 18 22  1  0
 18 19  2  0
 20 15  1  0
 20 21  1  0
 23 20  2  0
M  END
$$$$
