CPE.pdb
     RDKit          3D

 23 23  0  0  1  0  0  0  0  0999 V2000
   25.9486  -21.6574  -11.5748 N   0  0  0  0  0  0  0  0  0  0  0  0
   25.9644  -21.3421  -12.9534 C   0  0  1  0  0  0  0  0  0  0  0  0
   25.2530  -22.3938  -13.8048 C   0  0  0  0  0  0  0  0  0  0  0  0
   26.0495  -24.0204  -13.6528 S   0  0  0  0  0  0  0  0  0  0  0  0
   25.5838  -19.9846  -13.3273 C   0  0  0  0  0  0  0  0  0  0  0  0
   24.3567  -19.7005  -13.0418 O   0  0  0  0  0  0  0  0  0  0  0  0
   26.4115  -19.0064  -13.9468 N   0  0  0  0  0  0  0  0  0  0  0  0
   27.8605  -18.9616  -13.9708 C   0  0  0  0  0  0  0  0  0  0  0  0
   28.0890  -18.7271  -15.4758 C   0  0  0  0  0  0  0  0  0  0  0  0
   27.0816  -17.6229  -15.7130 C   0  0  0  0  0  0  0  0  0  0  0  0
   25.9851  -17.8346  -14.6796 C   0  0  1  0  0  0  0  0  0  0  0  0
   24.7358  -17.9473  -15.4342 C   0  0  0  0  0  0  0  0  0  0  0  0
   24.3310  -19.0057  -15.9184 O   0  0  0  0  0  0  0  0  0  0  0  0
   23.9229  -16.7971  -15.6388 N   0  0  0  0  0  0  0  0  0  0  0  0
   22.5254  -16.9120  -16.0811 C   0  0  1  0  0  0  0  0  0  0  0  0
   21.6690  -17.5002  -14.9899 C   0  0  0  0  0  0  0  0  0  0  0  0
   20.2071  -17.5642  -15.3854 C   0  0  0  0  0  0  0  0  0  0  0  0
   19.6173  -18.8856  -15.0682 C   0  0  0  0  0  0  0  0  0  0  0  0
   18.3627  -18.9971  -15.1162 O   0  0  0  0  0  0  0  0  0  0  0  0
   21.9816  -15.5665  -16.3880 C   0  0  0  0  0  0  0  0  0  0  0  0
   20.8083  -15.4520  -17.1104 O   0  0  0  0  0  0  0  0  0  0  0  0
   20.3585  -20.0121  -14.7210 O   0  0  0  0  0  0  0  0  0  0  0  0
   22.5657  -14.5355  -16.0042 O   0  0  0  0  0  0  0  0  0  0  0  0
  2  3  1  0
  2  1  1  1
  3  4  1  0
  5  2  1  0
  5  6  2  0
  7  5  1  0
  8  7  1  0
  9 10  1  0
  9  8  1  0
 10 11  1  0
 11  7  1  0
 11 12  1  6
 12 14  1  0
 13 12  2  0
 14 15  1  0
 15 16  1  1
 16 17  1  0
 17 18  1  0
 18 22  1  0
 18 19  2  0
 20 15  1  0
 20 21  1  0
 23 20  2  0
M  END
$$$$
