CPE.pdb
     RDKit          3D

 23 23  0  0  1  0  0  0  0  0999 V2000
   24.3108  -15.9578  -17.7896 N   0  0  0  0  0  0  0  0  0  0  0  0
   25.2935  -14.9768  -18.0581 C   0  0  1  0  0  0  0  0  0  0  0  0
   25.3930  -14.6364  -19.5451 C   0  0  0  0  0  0  0  0  0  0  0  0
   26.0401  -16.0376  -20.5049 S   0  0  0  0  0  0  0  0  0  0  0  0
   25.2836  -13.7822  -17.2214 C   0  0  0  0  0  0  0  0  0  0  0  0
   24.1343  -13.1941  -17.1831 O   0  0  0  0  0  0  0  0  0  0  0  0
   26.3785  -13.2454  -16.4873 N   0  0  0  0  0  0  0  0  0  0  0  0
   27.6271  -13.9033  -16.1550 C   0  0  0  0  0  0  0  0  0  0  0  0
   28.6215  -12.8126  -16.5954 C   0  0  0  0  0  0  0  0  0  0  0  0
   27.9647  -11.6047  -15.9630 C   0  0  0  0  0  0  0  0  0  0  0  0
   26.4788  -11.9267  -15.9020 C   0  0  1  0  0  0  0  0  0  0  0  0
   25.8008  -10.8384  -16.6083 C   0  0  0  0  0  0  0  0  0  0  0  0
   25.6798  -10.7994  -17.8340 O   0  0  0  0  0  0  0  0  0  0  0  0
   25.2417   -9.7545  -15.8748 N   0  0  0  0  0  0  0  0  0  0  0  0
   24.5155   -8.6658  -16.5449 C   0  0  1  0  0  0  0  0  0  0  0  0
   23.6502   -7.9202  -15.5624 C   0  0  0  0  0  0  0  0  0  0  0  0
   22.9019   -6.7758  -16.2165 C   0  0  0  0  0  0  0  0  0  0  0  0
   22.0635   -6.0463  -15.2370 C   0  0  0  0  0  0  0  0  0  0  0  0
   21.8922   -6.5700  -14.1033 O   0  0  0  0  0  0  0  0  0  0  0  0
   25.4792   -7.6897  -17.1092 C   0  0  0  0  0  0  0  0  0  0  0  0
   25.0965   -6.8842  -18.1660 O   0  0  0  0  0  0  0  0  0  0  0  0
   21.4530   -4.8201  -15.4870 O   0  0  0  0  0  0  0  0  0  0  0  0
   26.6302   -7.5828  -16.6455 O   0  0  0  0  0  0  0  0  0  0  0  0
  2  3  1  0
  2  1  1  6
  3  4  1  0
  5  2  1  0
  5  6  2  0
  7  5  1  0
  8  7  1  0
  9 10  1  0
  9  8  1  0
 10 11  1  0
 11  7  1  0
 11 12  1  6
 12 14  1  0
 13 12  2  0
 14 15  1  0
 15 16  1  1
 16 17  1  0
 17 18  1  0
 18 22  1  0
 18 19  2  0
 20 15  1  0
 20 21  1  0
 23 20  2  0
M  END
$$$$
