DHF.pdb
     RDKit          3D

 30 31  0  0  1  0  0  0  0  0999 V2000
   10.7951  -18.3310   19.4973 N   0  0  0  0  0  0  0  0  0  0  0  0
   11.7016  -17.3684   20.0802 C   0  0  1  0  0  0  0  0  0  0  0  0
   12.4866  -16.6126   19.0359 C   0  0  0  0  0  0  0  0  0  0  0  0
   13.2442  -17.4891   18.1401 C   0  0  0  0  0  0  0  0  0  0  0  0
   12.9936  -17.6470   16.9179 O   0  0  0  0  0  0  0  0  0  0  0  0
   10.9968  -16.4493   21.0121 C   0  0  0  0  0  0  0  0  0  0  0  0
   11.6905  -15.6110   21.6443 O   0  0  0  0  0  0  0  0  0  0  0  0
   14.3138  -18.1980   18.6671 O   0  0  0  0  0  0  0  0  0  0  0  0
    9.6131  -16.4601   21.2278 N   0  0  0  0  0  0  0  0  0  0  0  0
    8.9756  -15.5074   22.1152 C   0  0  1  0  0  0  0  0  0  0  0  0
    7.5801  -15.1447   21.6080 C   0  0  0  0  0  0  0  0  0  0  0  0
    7.6062  -14.5426   20.2741 C   0  0  0  0  0  0  0  0  0  0  0  0
    7.8557  -13.2231   19.9720 C   0  0  0  0  0  0  0  0  0  0  0  0
    7.7881  -13.0717   18.6256 N   0  0  0  0  0  0  0  0  0  0  0  0
    7.5021  -14.2681   18.0855 C   0  0  0  0  0  0  0  0  0  0  0  0
    7.3933  -15.1529   19.0857 N   0  0  0  0  0  0  0  0  0  0  0  0
    8.7962  -16.0593   23.4771 C   0  0  0  0  0  0  0  0  0  0  0  0
    8.8953  -17.2957   23.6348 O   0  0  0  0  0  0  0  0  0  0  0  0
    8.5189  -15.2511   24.6007 N   0  0  0  0  0  0  0  0  0  0  0  0
    8.4497  -15.8752   25.9296 C   0  0  1  0  0  0  0  0  0  0  0  0
    8.5639  -14.8557   27.0126 C   0  0  0  0  0  0  0  0  0  0  0  0
    7.7850  -13.6252   26.7572 C   0  0  0  0  0  0  0  0  0  0  0  0
    6.4065  -13.6300   26.8726 C   0  0  0  0  0  0  0  0  0  0  0  0
    5.6292  -12.5052   26.6486 C   0  0  0  0  0  0  0  0  0  0  0  0
    6.2566  -11.3345   26.2964 C   0  0  0  0  0  0  0  0  0  0  0  0
    7.6286  -11.3057   26.1752 C   0  0  0  0  0  0  0  0  0  0  0  0
    8.3907  -12.4298   26.4003 C   0  0  0  0  0  0  0  0  0  0  0  0
    7.2281  -16.6886   25.9743 C   0  0  0  0  0  0  0  0  0  0  0  0
    6.9411  -17.5914   26.9885 O   0  0  0  0  0  0  0  0  0  0  0  0
    6.3823  -16.5786   25.0557 O   0  0  0  0  0  0  0  0  0  0  0  0
  2  1  1  6
  2  3  1  0
  4  3  1  0
  4  5  2  0
  6  2  1  0
  6  7  2  0
  8  4  1  0
  9  6  1  0
 10  9  1  0
 11 12  1  0
 10 11  1  6
 12 16  1  0
 13 12  2  0
 13 14  1  0
 14 15  1  0
 16 15  2  0
 17 10  1  0
 18 17  2  0
 19 17  1  0
 20 19  1  0
 20 28  1  0
 20 21  1  1
 22 21  1  0
 23 22  2  0
 24 23  1  0
 25 26  1  0
 25 24  2  0
 26 27  2  0
 27 22  1  0
 28 29  1  0
 30 28  2  0
M  END
$$$$
