DHF.pdb
     RDKit          3D

 30 31  0  0  1  0  0  0  0  0999 V2000
   11.1028  -18.5701   19.5729 N   0  0  0  0  0  0  0  0  0  0  0  0
   11.9219  -17.4491   19.9736 C   0  0  1  0  0  0  0  0  0  0  0  0
   12.5892  -16.7760   18.7990 C   0  0  0  0  0  0  0  0  0  0  0  0
   13.7433  -17.5198   18.2895 C   0  0  0  0  0  0  0  0  0  0  0  0
   14.1005  -18.6522   18.7037 O   0  0  0  0  0  0  0  0  0  0  0  0
   11.1553  -16.4808   20.8009 C   0  0  0  0  0  0  0  0  0  0  0  0
   11.8072  -15.6434   21.4774 O   0  0  0  0  0  0  0  0  0  0  0  0
   14.5009  -16.9433   17.2804 O   0  0  0  0  0  0  0  0  0  0  0  0
    9.7571  -16.4445   20.8726 N   0  0  0  0  0  0  0  0  0  0  0  0
    9.0648  -15.4960   21.7226 C   0  0  1  0  0  0  0  0  0  0  0  0
    7.6526  -15.2317   21.2010 C   0  0  0  0  0  0  0  0  0  0  0  0
    7.6504  -14.6100   19.8759 C   0  0  0  0  0  0  0  0  0  0  0  0
    7.9761  -13.3061   19.5784 C   0  0  0  0  0  0  0  0  0  0  0  0
    7.8482  -13.1272   18.2398 N   0  0  0  0  0  0  0  0  0  0  0  0
    7.4503  -14.2914   17.7000 C   0  0  0  0  0  0  0  0  0  0  0  0
    7.3324  -15.1835   18.6926 N   0  0  0  0  0  0  0  0  0  0  0  0
    8.9127  -16.0048   23.1045 C   0  0  0  0  0  0  0  0  0  0  0  0
    8.9469  -17.2410   23.2894 O   0  0  0  0  0  0  0  0  0  0  0  0
    8.7315  -15.1561   24.2177 N   0  0  0  0  0  0  0  0  0  0  0  0
    8.7062  -15.7416   25.5655 C   0  0  1  0  0  0  0  0  0  0  0  0
    8.9181  -14.6998   26.6120 C   0  0  0  0  0  0  0  0  0  0  0  0
    7.9357  -13.5961   26.5614 C   0  0  0  0  0  0  0  0  0  0  0  0
    6.9958  -13.4461   27.5652 C   0  0  0  0  0  0  0  0  0  0  0  0
    6.0557  -12.4282   27.5692 C   0  0  0  0  0  0  0  0  0  0  0  0
    6.0586  -11.5294   26.5298 C   0  0  0  0  0  0  0  0  0  0  0  0
    6.9853  -11.6589   25.5187 C   0  0  0  0  0  0  0  0  0  0  0  0
    7.9147  -12.6744   25.5254 C   0  0  0  0  0  0  0  0  0  0  0  0
    7.4565  -16.5015   25.6954 C   0  0  0  0  0  0  0  0  0  0  0  0
    7.2063  -17.4022   26.7210 O   0  0  0  0  0  0  0  0  0  0  0  0
    6.5502  -16.3443   24.8438 O   0  0  0  0  0  0  0  0  0  0  0  0
  2  1  1  6
  2  3  1  0
  4  3  1  0
  4  5  2  0
  6  2  1  0
  6  7  2  0
  8  4  1  0
  9  6  1  0
 10  9  1  0
 11 12  1  0
 10 11  1  6
 12 16  1  0
 13 12  2  0
 13 14  1  0
 14 15  1  0
 16 15  2  0
 17 10  1  0
 18 17  2  0
 19 17  1  0
 20 19  1  0
 20 28  1  0
 20 21  1  1
 22 21  1  0
 23 22  2  0
 24 23  1  0
 25 26  1  0
 25 24  2  0
 26 27  2  0
 27 22  1  0
 28 29  1  0
 30 28  2  0
M  END
$$$$
