DHF.pdb
     RDKit          3D

 30 31  0  0  1  0  0  0  0  0999 V2000
   11.8862  -17.1855   18.4698 N   0  0  0  0  0  0  0  0  0  0  0  0
   11.4300  -17.7750   19.7077 C   0  0  1  0  0  0  0  0  0  0  0  0
   12.5148  -18.5596   20.4047 C   0  0  0  0  0  0  0  0  0  0  0  0
   13.0083  -19.6876   19.6118 C   0  0  0  0  0  0  0  0  0  0  0  0
   12.3477  -20.7291   19.3663 O   0  0  0  0  0  0  0  0  0  0  0  0
   10.8222  -16.7579   20.6054 C   0  0  0  0  0  0  0  0  0  0  0  0
   11.5734  -15.8592   21.0657 O   0  0  0  0  0  0  0  0  0  0  0  0
   14.2921  -19.6110   19.0915 O   0  0  0  0  0  0  0  0  0  0  0  0
    9.4697  -16.7395   20.9682 N   0  0  0  0  0  0  0  0  0  0  0  0
    8.9071  -15.6539   21.7470 C   0  0  1  0  0  0  0  0  0  0  0  0
    7.5734  -15.1977   21.1558 C   0  0  0  0  0  0  0  0  0  0  0  0
    7.7090  -14.6902   19.7896 C   0  0  0  0  0  0  0  0  0  0  0  0
    8.1588  -13.4441   19.4159 C   0  0  0  0  0  0  0  0  0  0  0  0
    8.1340  -13.3680   18.0617 N   0  0  0  0  0  0  0  0  0  0  0  0
    7.6786  -14.5393   17.5867 C   0  0  0  0  0  0  0  0  0  0  0  0
    7.4235  -15.3342   18.6347 N   0  0  0  0  0  0  0  0  0  0  0  0
    8.6286  -16.0645   23.1417 C   0  0  0  0  0  0  0  0  0  0  0  0
    8.4100  -17.2738   23.3726 O   0  0  0  0  0  0  0  0  0  0  0  0
    8.5997  -15.1514   24.2178 N   0  0  0  0  0  0  0  0  0  0  0  0
    8.5580  -15.6691   25.5927 C   0  0  1  0  0  0  0  0  0  0  0  0
    8.8246  -14.5884   26.5859 C   0  0  0  0  0  0  0  0  0  0  0  0
    7.8194  -13.5042   26.5709 C   0  0  0  0  0  0  0  0  0  0  0  0
    7.3264  -12.9873   27.7556 C   0  0  0  0  0  0  0  0  0  0  0  0
    6.3874  -11.9693   27.7988 C   0  0  0  0  0  0  0  0  0  0  0  0
    5.9266  -11.4519   26.6121 C   0  0  0  0  0  0  0  0  0  0  0  0
    6.4031  -11.9511   25.4197 C   0  0  0  0  0  0  0  0  0  0  0  0
    7.3363  -12.9627   25.3891 C   0  0  0  0  0  0  0  0  0  0  0  0
    7.2763  -16.3641   25.7662 C   0  0  0  0  0  0  0  0  0  0  0  0
    6.9994  -17.2152   26.8267 O   0  0  0  0  0  0  0  0  0  0  0  0
    6.3659  -16.1945   24.9213 O   0  0  0  0  0  0  0  0  0  0  0  0
  2  1  1  6
  2  3  1  0
  4  3  1  0
  4  5  2  0
  6  2  1  0
  6  7  2  0
  8  4  1  0
  9  6  1  0
 10  9  1  0
 11 12  1  0
 10 11  1  6
 12 16  1  0
 13 12  2  0
 13 14  1  0
 14 15  1  0
 16 15  2  0
 17 10  1  0
 18 17  2  0
 19 17  1  0
 20 19  1  0
 20 28  1  0
 20 21  1  1
 22 21  1  0
 23 22  2  0
 24 23  1  0
 25 26  1  0
 25 24  2  0
 26 27  2  0
 27 22  1  0
 28 29  1  0
 30 28  2  0
M  END
$$$$
