DHF.pdb
     RDKit          3D

 30 31  0  0  1  0  0  0  0  0999 V2000
    9.7554  -14.8350   19.4049 N   0  0  0  0  0  0  0  0  0  0  0  0
    8.4295  -14.3369   19.6912 C   0  0  1  0  0  0  0  0  0  0  0  0
    7.5224  -14.3918   18.4861 C   0  0  0  0  0  0  0  0  0  0  0  0
    8.2209  -14.1204   17.2278 C   0  0  0  0  0  0  0  0  0  0  0  0
    8.7273  -15.0032   16.4892 O   0  0  0  0  0  0  0  0  0  0  0  0
    7.8293  -15.0250   20.8643 C   0  0  0  0  0  0  0  0  0  0  0  0
    6.6604  -14.7003   21.1989 O   0  0  0  0  0  0  0  0  0  0  0  0
    8.3369  -12.8014   16.8141 O   0  0  0  0  0  0  0  0  0  0  0  0
    8.4837  -16.0085   21.6165 N   0  0  0  0  0  0  0  0  0  0  0  0
    7.8643  -16.6120   22.7800 C   0  0  1  0  0  0  0  0  0  0  0  0
    7.8683  -18.1362   22.6663 C   0  0  0  0  0  0  0  0  0  0  0  0
    8.9911  -18.6373   21.8721 C   0  0  0  0  0  0  0  0  0  0  0  0
    9.4309  -18.1422   20.6654 C   0  0  0  0  0  0  0  0  0  0  0  0
   10.4927  -18.8826   20.2599 N   0  0  0  0  0  0  0  0  0  0  0  0
   10.7216  -19.8263   21.1883 C   0  0  0  0  0  0  0  0  0  0  0  0
    9.8118  -19.6735   22.1599 N   0  0  0  0  0  0  0  0  0  0  0  0
    8.5947  -16.2827   24.0248 C   0  0  0  0  0  0  0  0  0  0  0  0
    9.7745  -15.8789   23.9321 O   0  0  0  0  0  0  0  0  0  0  0  0
    8.0172  -16.4050   25.3070 N   0  0  0  0  0  0  0  0  0  0  0  0
    8.7561  -15.9024   26.4738 C   0  0  1  0  0  0  0  0  0  0  0  0
    7.8736  -15.0966   27.3668 C   0  0  0  0  0  0  0  0  0  0  0  0
    7.3904  -13.8417   26.7523 C   0  0  0  0  0  0  0  0  0  0  0  0
    6.0779  -13.7262   26.3308 C   0  0  0  0  0  0  0  0  0  0  0  0
    5.5724  -12.5729   25.7528 C   0  0  0  0  0  0  0  0  0  0  0  0
    6.4129  -11.4978   25.5918 C   0  0  0  0  0  0  0  0  0  0  0  0
    7.7243  -11.5897   26.0039 C   0  0  0  0  0  0  0  0  0  0  0  0
    8.2155  -12.7409   26.5771 C   0  0  0  0  0  0  0  0  0  0  0  0
    9.4017  -17.0526   27.1189 C   0  0  0  0  0  0  0  0  0  0  0  0
    9.1257  -18.3730   26.7931 O   0  0  0  0  0  0  0  0  0  0  0  0
   10.2534  -16.8553   28.0173 O   0  0  0  0  0  0  0  0  0  0  0  0
  2  1  1  6
  2  3  1  0
  4  3  1  0
  4  5  2  0
  6  2  1  0
  6  7  2  0
  8  4  1  0
  9  6  1  0
 10  9  1  0
 11 12  1  0
 10 11  1  6
 12 16  1  0
 13 12  2  0
 13 14  1  0
 14 15  1  0
 16 15  2  0
 17 10  1  0
 18 17  2  0
 19 17  1  0
 20 19  1  0
 20 28  1  0
 20 21  1  1
 22 21  1  0
 23 22  2  0
 24 23  1  0
 25 26  1  0
 25 24  2  0
 26 27  2  0
 27 22  1  0
 28 29  1  0
 30 28  2  0
M  END
$$$$
