DHF.pdb
     RDKit          3D

 30 31  0  0  1  0  0  0  0  0999 V2000
   11.3710  -18.9552   20.0022 N   0  0  0  0  0  0  0  0  0  0  0  0
   10.0369  -18.4319   20.1881 C   0  0  1  0  0  0  0  0  0  0  0  0
    9.1532  -19.3749   20.9677 C   0  0  0  0  0  0  0  0  0  0  0  0
    8.7485  -20.5528   20.1974 C   0  0  0  0  0  0  0  0  0  0  0  0
    9.1414  -20.8109   19.0310 O   0  0  0  0  0  0  0  0  0  0  0  0
   10.0624  -17.0740   20.7925 C   0  0  0  0  0  0  0  0  0  0  0  0
   11.1861  -16.5520   21.0130 O   0  0  0  0  0  0  0  0  0  0  0  0
    7.8713  -21.4515   20.7867 O   0  0  0  0  0  0  0  0  0  0  0  0
    8.9161  -16.3438   21.1301 N   0  0  0  0  0  0  0  0  0  0  0  0
    8.9959  -14.9629   21.5642 C   0  0  1  0  0  0  0  0  0  0  0  0
    7.8430  -14.1449   20.9829 C   0  0  0  0  0  0  0  0  0  0  0  0
    7.9524  -13.9711   19.5337 C   0  0  0  0  0  0  0  0  0  0  0  0
    8.9358  -14.4802   18.7161 C   0  0  0  0  0  0  0  0  0  0  0  0
    8.6766  -14.0933   17.4420 N   0  0  0  0  0  0  0  0  0  0  0  0
    7.5540  -13.3553   17.4508 C   0  0  0  0  0  0  0  0  0  0  0  0
    7.1208  -13.2847   18.7168 N   0  0  0  0  0  0  0  0  0  0  0  0
    8.8947  -14.8426   23.0362 C   0  0  0  0  0  0  0  0  0  0  0  0
    8.6586  -13.7163   23.5253 O   0  0  0  0  0  0  0  0  0  0  0  0
    9.0530  -15.9420   23.9073 N   0  0  0  0  0  0  0  0  0  0  0  0
    8.6388  -15.8064   25.3109 C   0  0  1  0  0  0  0  0  0  0  0  0
    7.1931  -15.4540   25.4166 C   0  0  0  0  0  0  0  0  0  0  0  0
    6.9475  -14.1048   25.9691 C   0  0  0  0  0  0  0  0  0  0  0  0
    8.0018  -13.3198   26.4001 C   0  0  0  0  0  0  0  0  0  0  0  0
    7.8284  -12.0480   26.9219 C   0  0  0  0  0  0  0  0  0  0  0  0
    6.5526  -11.5461   27.0146 C   0  0  0  0  0  0  0  0  0  0  0  0
    5.4868  -12.3097   26.5917 C   0  0  0  0  0  0  0  0  0  0  0  0
    5.6714  -13.5723   26.0748 C   0  0  0  0  0  0  0  0  0  0  0  0
    9.0260  -17.0389   26.0086 C   0  0  0  0  0  0  0  0  0  0  0  0
    9.2774  -17.1055   27.3717 O   0  0  0  0  0  0  0  0  0  0  0  0
    9.1425  -18.1034   25.3569 O   0  0  0  0  0  0  0  0  0  0  0  0
  2  1  1  1
  2  3  1  0
  4  3  1  0
  4  5  2  0
  6  2  1  0
  6  7  2  0
  8  4  1  0
  9  6  1  0
 10  9  1  0
 11 12  1  0
 10 11  1  6
 12 16  1  0
 13 12  2  0
 13 14  1  0
 14 15  1  0
 16 15  2  0
 17 10  1  0
 18 17  2  0
 19 17  1  0
 20 19  1  0
 20 28  1  0
 20 21  1  6
 22 21  1  0
 23 22  2  0
 24 23  1  0
 25 26  1  0
 25 24  2  0
 26 27  2  0
 27 22  1  0
 28 29  1  0
 30 28  2  0
M  END
$$$$
