DHF.pdb
     RDKit          3D

 30 31  0  0  1  0  0  0  0  0999 V2000
   10.0819  -14.4174   19.1958 N   0  0  0  0  0  0  0  0  0  0  0  0
    8.7924  -13.9267   19.6251 C   0  0  1  0  0  0  0  0  0  0  0  0
    7.8005  -13.8481   18.4902 C   0  0  0  0  0  0  0  0  0  0  0  0
    8.4378  -13.7574   17.1748 C   0  0  0  0  0  0  0  0  0  0  0  0
    9.5859  -14.1954   16.9076 O   0  0  0  0  0  0  0  0  0  0  0  0
    8.2610  -14.7152   20.7678 C   0  0  0  0  0  0  0  0  0  0  0  0
    7.1193  -14.4164   21.2050 O   0  0  0  0  0  0  0  0  0  0  0  0
    7.7340  -13.1480   16.1463 O   0  0  0  0  0  0  0  0  0  0  0  0
    8.9514  -15.7660   21.3846 N   0  0  0  0  0  0  0  0  0  0  0  0
    8.3593  -16.5349   22.4615 C   0  0  1  0  0  0  0  0  0  0  0  0
    8.6019  -18.0300   22.2565 C   0  0  0  0  0  0  0  0  0  0  0  0
    7.9206  -18.5521   21.0709 C   0  0  0  0  0  0  0  0  0  0  0  0
    6.5620  -18.6861   20.8951 C   0  0  0  0  0  0  0  0  0  0  0  0
    6.3388  -19.2071   19.6626 N   0  0  0  0  0  0  0  0  0  0  0  0
    7.5289  -19.3993   19.0696 C   0  0  0  0  0  0  0  0  0  0  0  0
    8.4809  -19.0020   19.9247 N   0  0  0  0  0  0  0  0  0  0  0  0
    8.9520  -16.1902   23.7736 C   0  0  0  0  0  0  0  0  0  0  0  0
   10.1535  -15.8459   23.8106 O   0  0  0  0  0  0  0  0  0  0  0  0
    8.2203  -16.2338   24.9799 N   0  0  0  0  0  0  0  0  0  0  0  0
    8.9122  -15.9514   26.2454 C   0  0  1  0  0  0  0  0  0  0  0  0
    8.0142  -15.2499   27.2081 C   0  0  0  0  0  0  0  0  0  0  0  0
    7.6235  -13.8908   26.7766 C   0  0  0  0  0  0  0  0  0  0  0  0
    8.5384  -12.8537   26.8086 C   0  0  0  0  0  0  0  0  0  0  0  0
    8.2265  -11.5632   26.4122 C   0  0  0  0  0  0  0  0  0  0  0  0
    6.9521  -11.3039   25.9683 C   0  0  0  0  0  0  0  0  0  0  0  0
    6.0239  -12.3211   25.9277 C   0  0  0  0  0  0  0  0  0  0  0  0
    6.3453  -13.5997   26.3241 C   0  0  0  0  0  0  0  0  0  0  0  0
    9.4742  -17.2164   26.7353 C   0  0  0  0  0  0  0  0  0  0  0  0
   10.4026  -17.2994   27.7634 O   0  0  0  0  0  0  0  0  0  0  0  0
    9.1097  -18.2950   26.2107 O   0  0  0  0  0  0  0  0  0  0  0  0
  2  1  1  6
  2  3  1  0
  4  3  1  0
  4  5  2  0
  6  2  1  0
  6  7  2  0
  8  4  1  0
  9  6  1  0
 10  9  1  0
 11 12  1  0
 10 11  1  6
 12 16  1  0
 13 12  2  0
 13 14  1  0
 14 15  1  0
 16 15  2  0
 17 10  1  0
 18 17  2  0
 19 17  1  0
 20 19  1  0
 20 28  1  0
 20 21  1  1
 22 21  1  0
 23 22  2  0
 24 23  1  0
 25 26  1  0
 25 24  2  0
 26 27  2  0
 27 22  1  0
 28 29  1  0
 30 28  2  0
M  END
$$$$
