DHF.pdb
     RDKit          3D

 30 31  0  0  1  0  0  0  0  0999 V2000
    9.1947  -19.3041   19.6211 N   0  0  0  0  0  0  0  0  0  0  0  0
    8.5320  -18.7728   20.7901 C   0  0  1  0  0  0  0  0  0  0  0  0
    8.4700  -19.7720   21.9195 C   0  0  0  0  0  0  0  0  0  0  0  0
    7.9036  -21.0610   21.5163 C   0  0  0  0  0  0  0  0  0  0  0  0
    7.5651  -21.3543   20.3413 O   0  0  0  0  0  0  0  0  0  0  0  0
    9.1388  -17.4871   21.2245 C   0  0  0  0  0  0  0  0  0  0  0  0
   10.3935  -17.4278   21.3005 O   0  0  0  0  0  0  0  0  0  0  0  0
    7.7244  -22.0316   22.4911 O   0  0  0  0  0  0  0  0  0  0  0  0
    8.4013  -16.3428   21.5529 N   0  0  0  0  0  0  0  0  0  0  0  0
    9.0359  -15.1643   22.1096 C   0  0  1  0  0  0  0  0  0  0  0  0
    8.2657  -13.9014   21.7247 C   0  0  0  0  0  0  0  0  0  0  0  0
    8.1365  -13.7422   20.2753 C   0  0  0  0  0  0  0  0  0  0  0  0
    8.6651  -14.5655   19.3071 C   0  0  0  0  0  0  0  0  0  0  0  0
    8.3196  -14.0734   18.0911 N   0  0  0  0  0  0  0  0  0  0  0  0
    7.5882  -12.9630   18.2833 C   0  0  0  0  0  0  0  0  0  0  0  0
    7.4807  -12.7676   19.6045 N   0  0  0  0  0  0  0  0  0  0  0  0
    9.0652  -15.2026   23.5892 C   0  0  0  0  0  0  0  0  0  0  0  0
    9.5619  -14.2305   24.1989 O   0  0  0  0  0  0  0  0  0  0  0  0
    8.5577  -16.2866   24.3376 N   0  0  0  0  0  0  0  0  0  0  0  0
    8.7128  -16.2800   25.7991 C   0  0  1  0  0  0  0  0  0  0  0  0
    7.4543  -15.8497   26.4747 C   0  0  0  0  0  0  0  0  0  0  0  0
    7.3631  -14.3899   26.6905 C   0  0  0  0  0  0  0  0  0  0  0  0
    6.2172  -13.6985   26.3406 C   0  0  0  0  0  0  0  0  0  0  0  0
    6.0774  -12.3324   26.5246 C   0  0  0  0  0  0  0  0  0  0  0  0
    7.1238  -11.6353   27.0790 C   0  0  0  0  0  0  0  0  0  0  0  0
    8.2752  -12.3026   27.4352 C   0  0  0  0  0  0  0  0  0  0  0  0
    8.4027  -13.6604   27.2477 C   0  0  0  0  0  0  0  0  0  0  0  0
    9.2058  -17.6042   26.1985 C   0  0  0  0  0  0  0  0  0  0  0  0
    9.4356  -18.6416   25.3059 O   0  0  0  0  0  0  0  0  0  0  0  0
    9.4394  -17.8338   27.4085 O   0  0  0  0  0  0  0  0  0  0  0  0
  2  1  1  6
  2  3  1  0
  4  3  1  0
  4  5  2  0
  6  2  1  0
  6  7  2  0
  8  4  1  0
  9  6  1  0
 10  9  1  0
 11 12  1  0
 10 11  1  1
 12 16  1  0
 13 12  2  0
 13 14  1  0
 14 15  1  0
 16 15  2  0
 17 10  1  0
 18 17  2  0
 19 17  1  0
 20 19  1  0
 20 28  1  0
 20 21  1  1
 22 21  1  0
 23 22  2  0
 24 23  1  0
 25 26  1  0
 25 24  2  0
 26 27  2  0
 27 22  1  0
 28 29  1  0
 30 28  2  0
M  END
$$$$
