DHF.pdb
     RDKit          3D

 30 31  0  0  1  0  0  0  0  0999 V2000
    7.7218  -18.7171   20.7637 N   0  0  0  0  0  0  0  0  0  0  0  0
    9.1587  -18.5892   20.6800 C   0  0  1  0  0  0  0  0  0  0  0  0
    9.6914  -18.9713   19.3205 C   0  0  0  0  0  0  0  0  0  0  0  0
    9.0144  -20.1347   18.7438 C   0  0  0  0  0  0  0  0  0  0  0  0
    9.0423  -21.2917   19.2357 O   0  0  0  0  0  0  0  0  0  0  0  0
    9.6108  -17.2331   21.0879 C   0  0  0  0  0  0  0  0  0  0  0  0
   10.8431  -16.9845   21.0298 O   0  0  0  0  0  0  0  0  0  0  0  0
    8.2897  -19.9580   17.5741 O   0  0  0  0  0  0  0  0  0  0  0  0
    8.7517  -16.2198   21.5310 N   0  0  0  0  0  0  0  0  0  0  0  0
    9.2591  -15.0091   22.1460 C   0  0  1  0  0  0  0  0  0  0  0  0
    8.4990  -13.7841   21.6381 C   0  0  0  0  0  0  0  0  0  0  0  0
    8.2702  -13.8245   20.1929 C   0  0  0  0  0  0  0  0  0  0  0  0
    8.7733  -14.7491   19.3060 C   0  0  0  0  0  0  0  0  0  0  0  0
    8.3283  -14.4368   18.0631 N   0  0  0  0  0  0  0  0  0  0  0  0
    7.5602  -13.3388   18.1592 C   0  0  0  0  0  0  0  0  0  0  0  0
    7.5285  -12.9732   19.4478 N   0  0  0  0  0  0  0  0  0  0  0  0
    9.0903  -15.0270   23.6166 C   0  0  0  0  0  0  0  0  0  0  0  0
    8.6636  -13.9945   24.1782 O   0  0  0  0  0  0  0  0  0  0  0  0
    9.3897  -16.1566   24.4083 N   0  0  0  0  0  0  0  0  0  0  0  0
    9.1369  -16.1019   25.8552 C   0  0  1  0  0  0  0  0  0  0  0  0
    7.7279  -15.7056   26.1435 C   0  0  0  0  0  0  0  0  0  0  0  0
    7.5598  -14.2633   26.4219 C   0  0  0  0  0  0  0  0  0  0  0  0
    6.4490  -13.5830   25.9560 C   0  0  0  0  0  0  0  0  0  0  0  0
    6.2402  -12.2336   26.1914 C   0  0  0  0  0  0  0  0  0  0  0  0
    7.1785  -11.5424   26.9194 C   0  0  0  0  0  0  0  0  0  0  0  0
    8.2930  -12.1989   27.3935 C   0  0  0  0  0  0  0  0  0  0  0  0
    8.4899  -13.5401   27.1534 C   0  0  0  0  0  0  0  0  0  0  0  0
    9.5439  -17.3923   26.4254 C   0  0  0  0  0  0  0  0  0  0  0  0
   10.0365  -18.4469   25.6698 O   0  0  0  0  0  0  0  0  0  0  0  0
    9.4500  -17.5749   27.6621 O   0  0  0  0  0  0  0  0  0  0  0  0
  2  1  1  6
  2  3  1  0
  4  3  1  0
  4  5  2  0
  6  2  1  0
  6  7  2  0
  8  4  1  0
  9  6  1  0
 10  9  1  0
 11 12  1  0
 10 11  1  6
 12 16  1  0
 13 12  2  0
 13 14  1  0
 14 15  1  0
 16 15  2  0
 17 10  1  0
 18 17  2  0
 19 17  1  0
 20 19  1  0
 20 28  1  0
 20 21  1  6
 22 21  1  0
 23 22  2  0
 24 23  1  0
 25 26  1  0
 25 24  2  0
 26 27  2  0
 27 22  1  0
 28 29  1  0
 30 28  2  0
M  END
$$$$
