DHF.pdb
     RDKit          3D

 30 31  0  0  1  0  0  0  0  0999 V2000
   10.8727  -18.4372   19.6894 N   0  0  0  0  0  0  0  0  0  0  0  0
   11.7342  -17.4592   20.3135 C   0  0  1  0  0  0  0  0  0  0  0  0
   12.6697  -16.8044   19.3265 C   0  0  0  0  0  0  0  0  0  0  0  0
   13.7553  -17.6858   18.8914 C   0  0  0  0  0  0  0  0  0  0  0  0
   14.2086  -18.6448   19.5669 O   0  0  0  0  0  0  0  0  0  0  0  0
   10.9530  -16.4549   21.0821 C   0  0  0  0  0  0  0  0  0  0  0  0
   11.5928  -15.5995   21.7474 O   0  0  0  0  0  0  0  0  0  0  0  0
   14.3294  -17.4545   17.6499 O   0  0  0  0  0  0  0  0  0  0  0  0
    9.5538  -16.4034   21.1102 N   0  0  0  0  0  0  0  0  0  0  0  0
    8.8453  -15.4665   21.9599 C   0  0  1  0  0  0  0  0  0  0  0  0
    7.4929  -15.0982   21.3502 C   0  0  0  0  0  0  0  0  0  0  0  0
    7.6184  -14.5299   20.0072 C   0  0  0  0  0  0  0  0  0  0  0  0
    8.0510  -13.2629   19.6873 C   0  0  0  0  0  0  0  0  0  0  0  0
    8.0217  -13.1282   18.3377 N   0  0  0  0  0  0  0  0  0  0  0  0
    7.5805  -14.2836   17.8131 C   0  0  0  0  0  0  0  0  0  0  0  0
    7.3384  -15.1267   18.8259 N   0  0  0  0  0  0  0  0  0  0  0  0
    8.5610  -16.0409   23.2943 C   0  0  0  0  0  0  0  0  0  0  0  0
    8.5189  -17.2854   23.4087 O   0  0  0  0  0  0  0  0  0  0  0  0
    8.3362  -15.2455   24.4385 N   0  0  0  0  0  0  0  0  0  0  0  0
    8.2193  -15.8982   25.7502 C   0  0  1  0  0  0  0  0  0  0  0  0
    8.4645  -14.9312   26.8594 C   0  0  0  0  0  0  0  0  0  0  0  0
    7.6974  -13.6735   26.7338 C   0  0  0  0  0  0  0  0  0  0  0  0
    8.3063  -12.5235   26.2644 C   0  0  0  0  0  0  0  0  0  0  0  0
    7.6337  -11.3203   26.1235 C   0  0  0  0  0  0  0  0  0  0  0  0
    6.3039  -11.2689   26.4656 C   0  0  0  0  0  0  0  0  0  0  0  0
    5.6763  -12.4016   26.9357 C   0  0  0  0  0  0  0  0  0  0  0  0
    6.3548  -13.5918   27.0714 C   0  0  0  0  0  0  0  0  0  0  0  0
    6.9153  -16.5716   25.7957 C   0  0  0  0  0  0  0  0  0  0  0  0
    6.5403  -17.4565   26.7968 O   0  0  0  0  0  0  0  0  0  0  0  0
    6.0773  -16.3503   24.8901 O   0  0  0  0  0  0  0  0  0  0  0  0
  2  1  1  6
  2  3  1  0
  4  3  1  0
  4  5  2  0
  6  2  1  0
  6  7  2  0
  8  4  1  0
  9  6  1  0
 10  9  1  0
 11 12  1  0
 10 11  1  6
 12 16  1  0
 13 12  2  0
 13 14  1  0
 14 15  1  0
 16 15  2  0
 17 10  1  0
 18 17  2  0
 19 17  1  0
 20 19  1  0
 20 28  1  0
 20 21  1  1
 22 21  1  0
 23 22  2  0
 24 23  1  0
 25 26  1  0
 25 24  2  0
 26 27  2  0
 27 22  1  0
 28 29  1  0
 30 28  2  0
M  END
$$$$
