DHF.pdb
     RDKit          3D

 30 31  0  0  1  0  0  0  0  0999 V2000
    9.8449  -13.4573   18.3648 N   0  0  0  0  0  0  0  0  0  0  0  0
    8.4991  -13.5910   18.8738 C   0  0  1  0  0  0  0  0  0  0  0  0
    7.4866  -13.7978   17.7738 C   0  0  0  0  0  0  0  0  0  0  0  0
    8.0640  -14.3889   16.5646 C   0  0  0  0  0  0  0  0  0  0  0  0
    8.4581  -13.7308   15.5682 O   0  0  0  0  0  0  0  0  0  0  0  0
    8.4106  -14.6522   19.9110 C   0  0  0  0  0  0  0  0  0  0  0  0
    7.2960  -14.8380   20.4651 O   0  0  0  0  0  0  0  0  0  0  0  0
    8.1887  -15.7693   16.5053 O   0  0  0  0  0  0  0  0  0  0  0  0
    9.4881  -15.4542   20.3070 N   0  0  0  0  0  0  0  0  0  0  0  0
    9.3540  -16.4394   21.3620 C   0  0  1  0  0  0  0  0  0  0  0  0
   10.4014  -17.5421   21.2096 C   0  0  0  0  0  0  0  0  0  0  0  0
   10.0188  -18.5468   20.2162 C   0  0  0  0  0  0  0  0  0  0  0  0
    8.8345  -18.6028   19.5170 C   0  0  0  0  0  0  0  0  0  0  0  0
    8.8716  -19.6830   18.6973 N   0  0  0  0  0  0  0  0  0  0  0  0
   10.0529  -20.2986   18.8723 C   0  0  0  0  0  0  0  0  0  0  0  0
   10.7418  -19.6081   19.7909 N   0  0  0  0  0  0  0  0  0  0  0  0
    9.5645  -15.8435   22.7007 C   0  0  0  0  0  0  0  0  0  0  0  0
   10.2627  -14.8098   22.7877 O   0  0  0  0  0  0  0  0  0  0  0  0
    9.0122  -16.3915   23.8785 N   0  0  0  0  0  0  0  0  0  0  0  0
    8.7180  -15.5014   25.0105 C   0  0  1  0  0  0  0  0  0  0  0  0
    7.8229  -14.3811   24.5993 C   0  0  0  0  0  0  0  0  0  0  0  0
    7.4578  -13.4727   25.7072 C   0  0  0  0  0  0  0  0  0  0  0  0
    6.2289  -13.5858   26.3321 C   0  0  0  0  0  0  0  0  0  0  0  0
    5.8380  -12.7638   27.3768 C   0  0  0  0  0  0  0  0  0  0  0  0
    6.7103  -11.7944   27.8097 C   0  0  0  0  0  0  0  0  0  0  0  0
    7.9399  -11.6629   27.2024 C   0  0  0  0  0  0  0  0  0  0  0  0
    8.3175  -12.4855   26.1651 C   0  0  0  0  0  0  0  0  0  0  0  0
    8.2029  -16.3325   26.1058 C   0  0  0  0  0  0  0  0  0  0  0  0
    8.5386  -16.1436   27.4390 O   0  0  0  0  0  0  0  0  0  0  0  0
    7.4141  -17.2716   25.8463 O   0  0  0  0  0  0  0  0  0  0  0  0
  2  1  1  6
  2  3  1  0
  4  3  1  0
  4  5  2  0
  6  2  1  0
  6  7  2  0
  8  4  1  0
  9  6  1  0
 10  9  1  0
 11 12  1  0
 10 11  1  6
 12 16  1  0
 13 12  2  0
 13 14  1  0
 14 15  1  0
 16 15  2  0
 17 10  1  0
 18 17  2  0
 19 17  1  0
 20 19  1  0
 20 28  1  0
 20 21  1  6
 22 21  1  0
 23 22  2  0
 24 23  1  0
 25 26  1  0
 25 24  2  0
 26 27  2  0
 27 22  1  0
 28 29  1  0
 30 28  2  0
M  END
$$$$
