YEN.pdb
     RDKit          3D

 30 30  0  0  1  0  0  0  0  0999 V2000
   19.8454  -23.3132   -6.8263 O   0  0  0  0  0  0  0  0  0  0  0  0
   20.4178  -22.5564   -7.8378 C   0  0  0  0  0  0  0  0  0  0  0  0
   20.0431  -22.8060   -9.1537 C   0  0  0  0  0  0  0  0  0  0  0  0
   20.6192  -22.0471  -10.1478 C   0  0  0  0  0  0  0  0  0  0  0  0
   21.5378  -21.0758   -9.8122 C   0  0  0  0  0  0  0  0  0  0  0  0
   22.1426  -20.2734  -10.8885 C   0  0  0  0  0  0  0  0  0  0  0  0
   23.1369  -21.1385  -11.6752 C   0  0  2  0  0  0  0  0  0  0  0  0
   24.3385  -21.2485  -10.8374 N   0  0  0  0  0  0  0  0  0  0  0  0
   23.4402  -20.3610  -12.9125 C   0  0  0  0  0  0  0  0  0  0  0  0
   24.0762  -19.2875  -12.7548 O   0  0  0  0  0  0  0  0  0  0  0  0
   21.9084  -20.8289   -8.5109 C   0  0  0  0  0  0  0  0  0  0  0  0
   21.3353  -21.5846   -7.5157 C   0  0  0  0  0  0  0  0  0  0  0  0
   23.0154  -20.8510  -14.1401 N   0  0  0  0  0  0  0  0  0  0  0  0
   23.3969  -20.1271  -15.3841 C   0  0  1  0  0  0  0  0  0  0  0  0
   23.6831  -21.1609  -16.4283 C   0  0  0  0  0  0  0  0  0  0  0  0
   24.9855  -21.8490  -16.2118 C   0  0  0  0  0  0  0  0  0  0  0  0
   24.8680  -23.2229  -15.6593 C   0  0  0  0  0  0  0  0  0  0  0  0
   25.9127  -23.9107  -15.5423 O   0  0  0  0  0  0  0  0  0  0  0  0
   22.2268  -19.3158  -15.7827 C   0  0  0  0  0  0  0  0  0  0  0  0
   21.1916  -19.3752  -15.0400 O   0  0  0  0  0  0  0  0  0  0  0  0
   23.6691  -23.7793  -15.2700 O   0  0  0  0  0  0  0  0  0  0  0  0
   19.8218  -15.1356  -16.9864 N   0  0  0  0  0  0  0  0  0  0  0  0
   20.7528  -15.2581  -15.9221 C   0  0  0  0  0  0  0  0  0  0  0  0
   20.7579  -14.3318  -15.0750 O   0  0  0  0  0  0  0  0  0  0  0  0
   21.6380  -16.4323  -15.8703 C   0  0  0  0  0  0  0  0  0  0  0  0
   21.3100  -17.3745  -17.0197 C   0  0  2  0  0  0  0  0  0  0  0  0
   22.2274  -18.4974  -16.9214 N   0  0  0  0  0  0  0  0  0  0  0  0
   21.3941  -16.6583  -18.3147 C   0  0  0  0  0  0  0  0  0  0  0  0
   22.5371  -16.5629  -19.0801 O   0  0  0  0  0  0  0  0  0  0  0  0
   20.3380  -16.1081  -18.7222 O   0  0  0  0  0  0  0  0  0  0  0  0
  2  1  1  0
  3  2  2  0
  4  3  1  0
  5  4  2  0
  5 11  1  0
  6  5  1  0
  7  8  1  1
  7  6  1  0
  9  7  1  0
 10  9  2  0
 11 12  2  0
 12  2  1  0
 13  9  1  0
 14 13  1  0
 14 15  1  6
 15 16  1  0
 17 16  1  0
 17 18  2  0
 19 14  1  0
 20 19  2  0
 21 17  1  0
 22 23  1  0
 23 24  2  0
 25 23  1  0
 26 25  1  1
 26 27  1  0
 27 19  1  0
 28 26  1  0
 28 29  1  0
 30 28  2  0
M  END
$$$$
