YEN.pdb
     RDKit          3D

 30 30  0  0  1  0  0  0  0  0999 V2000
   22.4238  -17.8595  -15.2926 O   0  0  0  0  0  0  0  0  0  0  0  0
   22.6145  -16.4950  -15.4526 C   0  0  0  0  0  0  0  0  0  0  0  0
   21.7631  -15.7956  -16.3012 C   0  0  0  0  0  0  0  0  0  0  0  0
   21.9638  -14.4416  -16.4506 C   0  0  0  0  0  0  0  0  0  0  0  0
   22.9895  -13.8290  -15.7632 C   0  0  0  0  0  0  0  0  0  0  0  0
   23.1884  -12.3801  -15.9345 C   0  0  0  0  0  0  0  0  0  0  0  0
   23.5999  -12.0877  -17.3841 C   0  0  2  0  0  0  0  0  0  0  0  0
   25.0041  -12.5017  -17.5042 N   0  0  0  0  0  0  0  0  0  0  0  0
   23.4839  -10.6073  -17.5338 C   0  0  0  0  0  0  0  0  0  0  0  0
   24.4672   -9.9282  -17.1418 O   0  0  0  0  0  0  0  0  0  0  0  0
   23.8317  -14.5206  -14.9240 C   0  0  0  0  0  0  0  0  0  0  0  0
   23.6342  -15.8726  -14.7723 C   0  0  0  0  0  0  0  0  0  0  0  0
   22.3268  -10.0719  -18.0836 N   0  0  0  0  0  0  0  0  0  0  0  0
   22.2366   -8.6015  -18.2995 C   0  0  1  0  0  0  0  0  0  0  0  0
   21.3015   -8.3787  -19.4472 C   0  0  0  0  0  0  0  0  0  0  0  0
   21.0914   -6.9347  -19.7433 C   0  0  0  0  0  0  0  0  0  0  0  0
   20.1850   -6.6702  -20.8901 C   0  0  0  0  0  0  0  0  0  0  0  0
   19.6513   -7.6499  -21.4675 O   0  0  0  0  0  0  0  0  0  0  0  0
   21.6680   -8.0219  -17.0638 C   0  0  0  0  0  0  0  0  0  0  0  0
   20.8375   -8.7354  -16.4096 O   0  0  0  0  0  0  0  0  0  0  0  0
   19.9024   -5.4030  -21.3514 O   0  0  0  0  0  0  0  0  0  0  0  0
   20.4611   -5.1856  -13.0999 N   0  0  0  0  0  0  0  0  0  0  0  0
   21.6141   -6.0072  -12.9991 C   0  0  0  0  0  0  0  0  0  0  0  0
   22.0631   -6.2002  -11.8429 O   0  0  0  0  0  0  0  0  0  0  0  0
   22.2051   -6.5730  -14.2220 C   0  0  0  0  0  0  0  0  0  0  0  0
   21.3602   -6.1868  -15.4276 C   0  0  2  0  0  0  0  0  0  0  0  0
   22.0145   -6.7449  -16.5992 N   0  0  0  0  0  0  0  0  0  0  0  0
   21.1942   -4.7153  -15.4920 C   0  0  0  0  0  0  0  0  0  0  0  0
   20.1933   -4.0148  -14.8525 O   0  0  0  0  0  0  0  0  0  0  0  0
   22.0359   -4.0846  -16.1833 O   0  0  0  0  0  0  0  0  0  0  0  0
  2  1  1  0
  3  2  2  0
  4  3  1  0
  5  4  2  0
  5 11  1  0
  6  5  1  0
  7  8  1  1
  7  6  1  0
  9  7  1  0
 10  9  2  0
 11 12  2  0
 12  2  1  0
 13  9  1  0
 14 13  1  0
 14 15  1  6
 15 16  1  0
 17 16  1  0
 17 18  2  0
 19 14  1  0
 20 19  2  0
 21 17  1  0
 22 23  1  0
 23 24  2  0
 25 23  1  0
 26 25  1  1
 26 27  1  0
 27 19  1  0
 28 26  1  0
 28 29  1  0
 30 28  2  0
M  END
$$$$
