YEN.pdb
     RDKit          3D

 30 30  0  0  1  0  0  0  0  0999 V2000
   28.5102  -20.8720   -6.3950 O   0  0  0  0  0  0  0  0  0  0  0  0
   28.1411  -20.6817   -7.7183 C   0  0  0  0  0  0  0  0  0  0  0  0
   29.1219  -20.7471   -8.7023 C   0  0  0  0  0  0  0  0  0  0  0  0
   28.7414  -20.5564  -10.0118 C   0  0  0  0  0  0  0  0  0  0  0  0
   27.4170  -20.3096  -10.3032 C   0  0  0  0  0  0  0  0  0  0  0  0
   27.0285  -20.1093  -11.7093 C   0  0  0  0  0  0  0  0  0  0  0  0
   26.5950  -21.4506  -12.3168 C   0  0  2  0  0  0  0  0  0  0  0  0
   27.7579  -21.9633  -13.0533 N   0  0  0  0  0  0  0  0  0  0  0  0
   25.4918  -21.1140  -13.2641 C   0  0  0  0  0  0  0  0  0  0  0  0
   25.8388  -20.6999  -14.3998 O   0  0  0  0  0  0  0  0  0  0  0  0
   26.4471  -20.2449   -9.3303 C   0  0  0  0  0  0  0  0  0  0  0  0
   26.8232  -20.4349   -8.0217 C   0  0  0  0  0  0  0  0  0  0  0  0
   24.1754  -21.2719  -12.8523 N   0  0  0  0  0  0  0  0  0  0  0  0
   23.0762  -21.0758  -13.8374 C   0  0  1  0  0  0  0  0  0  0  0  0
   21.9566  -21.9863  -13.4393 C   0  0  0  0  0  0  0  0  0  0  0  0
   21.8647  -23.1941  -14.3049 C   0  0  0  0  0  0  0  0  0  0  0  0
   20.7736  -24.1316  -13.9344 C   0  0  0  0  0  0  0  0  0  0  0  0
   21.0800  -25.2109  -13.3692 O   0  0  0  0  0  0  0  0  0  0  0  0
   22.6465  -19.6656  -13.7235 C   0  0  0  0  0  0  0  0  0  0  0  0
   23.3509  -18.8952  -12.9907 O   0  0  0  0  0  0  0  0  0  0  0  0
   19.4426  -23.8752  -14.1815 O   0  0  0  0  0  0  0  0  0  0  0  0
   21.6675  -15.2610  -15.7484 N   0  0  0  0  0  0  0  0  0  0  0  0
   22.6876  -16.1484  -16.1804 C   0  0  0  0  0  0  0  0  0  0  0  0
   23.5412  -15.6759  -16.9702 O   0  0  0  0  0  0  0  0  0  0  0  0
   22.6896  -17.5365  -15.6928 C   0  0  0  0  0  0  0  0  0  0  0  0
   21.4728  -17.7730  -14.8096 C   0  0  2  0  0  0  0  0  0  0  0  0
   21.5188  -19.1633  -14.3889 N   0  0  0  0  0  0  0  0  0  0  0  0
   20.2303  -17.4196  -15.5367 C   0  0  0  0  0  0  0  0  0  0  0  0
   19.3654  -16.4141  -15.1594 O   0  0  0  0  0  0  0  0  0  0  0  0
   19.9686  -18.0973  -16.5644 O   0  0  0  0  0  0  0  0  0  0  0  0
  2  1  1  0
  3  2  2  0
  4  3  1  0
  5  4  2  0
  5 11  1  0
  6  5  1  0
  7  8  1  6
  7  6  1  0
  9  7  1  0
 10  9  2  0
 11 12  2  0
 12  2  1  0
 13  9  1  0
 14 13  1  0
 14 15  1  1
 15 16  1  0
 17 16  1  0
 17 18  2  0
 19 14  1  0
 20 19  2  0
 21 17  1  0
 22 23  1  0
 23 24  2  0
 25 23  1  0
 26 25  1  6
 26 27  1  0
 27 19  1  0
 28 26  1  0
 28 29  1  0
 30 28  2  0
M  END
$$$$
