YEN.pdb
     RDKit          3D

 30 30  0  0  1  0  0  0  0  0999 V2000
   30.2196  -16.0805  -19.2799 O   0  0  0  0  0  0  0  0  0  0  0  0
   29.3160  -16.7698  -18.4848 C   0  0  0  0  0  0  0  0  0  0  0  0
   28.0198  -16.9565  -18.9531 C   0  0  0  0  0  0  0  0  0  0  0  0
   27.1333  -17.6426  -18.1535 C   0  0  0  0  0  0  0  0  0  0  0  0
   27.5526  -18.1170  -16.9292 C   0  0  0  0  0  0  0  0  0  0  0  0
   26.5910  -18.8494  -16.0883 C   0  0  0  0  0  0  0  0  0  0  0  0
   27.2456  -20.1343  -15.5622 C   0  0  2  0  0  0  0  0  0  0  0  0
   27.4157  -21.0148  -16.7256 N   0  0  0  0  0  0  0  0  0  0  0  0
   26.2539  -20.7195  -14.6128 C   0  0  0  0  0  0  0  0  0  0  0  0
   25.4589  -21.5692  -15.0902 O   0  0  0  0  0  0  0  0  0  0  0  0
   28.8344  -17.9324  -16.4660 C   0  0  0  0  0  0  0  0  0  0  0  0
   29.7223  -17.2479  -17.2616 C   0  0  0  0  0  0  0  0  0  0  0  0
   26.2611  -20.3060  -13.2875 N   0  0  0  0  0  0  0  0  0  0  0  0
   25.2268  -20.8331  -12.3551 C   0  0  1  0  0  0  0  0  0  0  0  0
   25.7522  -20.6560  -10.9645 C   0  0  0  0  0  0  0  0  0  0  0  0
   24.8251  -21.1902   -9.9292 C   0  0  0  0  0  0  0  0  0  0  0  0
   25.3249  -21.0643   -8.5360 C   0  0  0  0  0  0  0  0  0  0  0  0
   24.6514  -21.5830   -7.6110 O   0  0  0  0  0  0  0  0  0  0  0  0
   24.0162  -20.0063  -12.5476 C   0  0  0  0  0  0  0  0  0  0  0  0
   24.1706  -18.8533  -13.0707 O   0  0  0  0  0  0  0  0  0  0  0  0
   26.4902  -20.4058   -8.2093 O   0  0  0  0  0  0  0  0  0  0  0  0
   19.7425  -19.8284  -14.9708 N   0  0  0  0  0  0  0  0  0  0  0  0
   20.9163  -20.4981  -15.4047 C   0  0  0  0  0  0  0  0  0  0  0  0
   20.9593  -20.8212  -16.6169 O   0  0  0  0  0  0  0  0  0  0  0  0
   21.9905  -20.7702  -14.4367 C   0  0  0  0  0  0  0  0  0  0  0  0
   21.6038  -20.2197  -13.0715 C   0  0  2  0  0  0  0  0  0  0  0  0
   22.7347  -20.4475  -12.1875 N   0  0  0  0  0  0  0  0  0  0  0  0
   20.3497  -20.8509  -12.5963 C   0  0  0  0  0  0  0  0  0  0  0  0
   19.3361  -20.1787  -11.9465 O   0  0  0  0  0  0  0  0  0  0  0  0
   20.2247  -22.0845  -12.8120 O   0  0  0  0  0  0  0  0  0  0  0  0
  2  1  1  0
  3  2  2  0
  4  3  1  0
  5  4  2  0
  5 11  1  0
  6  5  1  0
  7  8  1  6
  7  6  1  0
  9  7  1  0
 10  9  2  0
 11 12  2  0
 12  2  1  0
 13  9  1  0
 14 13  1  0
 14 15  1  1
 15 16  1  0
 17 16  1  0
 17 18  2  0
 19 14  1  0
 20 19  2  0
 21 17  1  0
 22 23  1  0
 23 24  2  0
 25 23  1  0
 26 25  1  6
 26 27  1  0
 27 19  1  0
 28 26  1  0
 28 29  1  0
 30 28  2  0
M  END
$$$$
