YEN.pdb
     RDKit          3D

 30 30  0  0  1  0  0  0  0  0999 V2000
   20.2472  -23.1661   -7.1376 O   0  0  0  0  0  0  0  0  0  0  0  0
   20.9696  -22.4258   -8.0616 C   0  0  0  0  0  0  0  0  0  0  0  0
   21.8449  -21.4491   -7.5988 C   0  0  0  0  0  0  0  0  0  0  0  0
   22.5557  -20.7218   -8.5271 C   0  0  0  0  0  0  0  0  0  0  0  0
   22.3798  -20.9809   -9.8694 C   0  0  0  0  0  0  0  0  0  0  0  0
   23.1493  -20.1939  -10.8475 C   0  0  0  0  0  0  0  0  0  0  0  0
   24.3337  -21.0269  -11.3568 C   0  0  2  0  0  0  0  0  0  0  0  0
   25.3576  -20.9714  -10.3050 N   0  0  0  0  0  0  0  0  0  0  0  0
   24.8128  -20.3203  -12.5810 C   0  0  0  0  0  0  0  0  0  0  0  0
   25.4824  -19.2722  -12.3940 O   0  0  0  0  0  0  0  0  0  0  0  0
   21.5143  -21.9468  -10.3272 C   0  0  0  0  0  0  0  0  0  0  0  0
   20.8029  -22.6749   -9.4033 C   0  0  0  0  0  0  0  0  0  0  0  0
   24.5022  -20.8436  -13.8289 N   0  0  0  0  0  0  0  0  0  0  0  0
   25.0260  -20.1724  -15.0504 C   0  0  1  0  0  0  0  0  0  0  0  0
   25.7680  -21.2053  -15.8400 C   0  0  0  0  0  0  0  0  0  0  0  0
   27.0999  -21.5253  -15.2564 C   0  0  0  0  0  0  0  0  0  0  0  0
   27.8580  -22.5673  -15.9953 C   0  0  0  0  0  0  0  0  0  0  0  0
   28.5797  -22.2097  -16.9594 O   0  0  0  0  0  0  0  0  0  0  0  0
   23.8522  -19.6984  -15.8144 C   0  0  0  0  0  0  0  0  0  0  0  0
   22.7286  -20.2477  -15.5640 O   0  0  0  0  0  0  0  0  0  0  0  0
   27.8072  -23.9065  -15.6752 O   0  0  0  0  0  0  0  0  0  0  0  0
   20.5033  -16.5456  -17.6387 N   0  0  0  0  0  0  0  0  0  0  0  0
   20.9356  -16.5800  -16.2872 C   0  0  0  0  0  0  0  0  0  0  0  0
   20.2149  -15.9776  -15.4546 O   0  0  0  0  0  0  0  0  0  0  0  0
   22.1718  -17.3005  -15.9439 C   0  0  0  0  0  0  0  0  0  0  0  0
   22.7454  -17.9599  -17.1900 C   0  0  2  0  0  0  0  0  0  0  0  0
   23.9372  -18.6816  -16.7764 N   0  0  0  0  0  0  0  0  0  0  0  0
   23.0069  -16.9446  -18.2378 C   0  0  0  0  0  0  0  0  0  0  0  0
   22.0846  -16.5417  -19.1804 O   0  0  0  0  0  0  0  0  0  0  0  0
   24.1554  -16.4299  -18.2474 O   0  0  0  0  0  0  0  0  0  0  0  0
  2  1  1  0
  3  2  2  0
  4  3  1  0
  5  4  2  0
  5 11  1  0
  6  5  1  0
  7  8  1  1
  7  6  1  0
  9  7  1  0
 10  9  2  0
 11 12  2  0
 12  2  1  0
 13  9  1  0
 14 13  1  0
 14 15  1  6
 15 16  1  0
 17 16  1  0
 17 18  2  0
 19 14  1  0
 20 19  2  0
 21 17  1  0
 22 23  1  0
 23 24  2  0
 25 23  1  0
 26 25  1  1
 26 27  1  0
 27 19  1  0
 28 26  1  0
 28 29  1  0
 30 28  2  0
M  END
$$$$
