YEN.pdb
     RDKit          3D

 30 30  0  0  1  0  0  0  0  0999 V2000
   35.6835  -14.3081   -6.5632 O   0  0  0  0  0  0  0  0  0  0  0  0
   36.3676  -13.1530   -6.9115 C   0  0  0  0  0  0  0  0  0  0  0  0
   36.7270  -12.9638   -8.2417 C   0  0  0  0  0  0  0  0  0  0  0  0
   37.4056  -11.8125   -8.5733 C   0  0  0  0  0  0  0  0  0  0  0  0
   37.7040  -10.8948   -7.5892 C   0  0  0  0  0  0  0  0  0  0  0  0
   38.4292   -9.6690   -7.9627 C   0  0  0  0  0  0  0  0  0  0  0  0
   39.9355   -9.9603   -8.0126 C   0  0  2  0  0  0  0  0  0  0  0  0
   40.4210   -9.8517   -6.6305 N   0  0  0  0  0  0  0  0  0  0  0  0
   40.5181   -8.8718   -8.8511 C   0  0  0  0  0  0  0  0  0  0  0  0
   40.9508   -7.8642   -8.2353 O   0  0  0  0  0  0  0  0  0  0  0  0
   37.3486  -11.0818   -6.2737 C   0  0  0  0  0  0  0  0  0  0  0  0
   36.6709  -12.2300   -5.9388 C   0  0  0  0  0  0  0  0  0  0  0  0
   40.5508   -9.0250  -10.2306 N   0  0  0  0  0  0  0  0  0  0  0  0
   41.1726   -7.9612  -11.0664 C   0  0  1  0  0  0  0  0  0  0  0  0
   42.2220   -8.6165  -11.9093 C   0  0  0  0  0  0  0  0  0  0  0  0
   43.4220   -9.0152  -11.1233 C   0  0  0  0  0  0  0  0  0  0  0  0
   44.5161   -9.6082  -11.9343 C   0  0  0  0  0  0  0  0  0  0  0  0
   45.3100   -8.8331  -12.5235 O   0  0  0  0  0  0  0  0  0  0  0  0
   40.1023   -7.4129  -11.9267 C   0  0  0  0  0  0  0  0  0  0  0  0
   39.0255   -8.0893  -12.0260 O   0  0  0  0  0  0  0  0  0  0  0  0
   44.7017  -10.9665  -12.0723 O   0  0  0  0  0  0  0  0  0  0  0  0
   36.9935   -3.6271  -12.7708 N   0  0  0  0  0  0  0  0  0  0  0  0
   37.3972   -4.1037  -11.4962 C   0  0  0  0  0  0  0  0  0  0  0  0
   36.6975   -3.7438  -10.5181 O   0  0  0  0  0  0  0  0  0  0  0  0
   38.5818   -4.9702  -11.3926 C   0  0  0  0  0  0  0  0  0  0  0  0
   39.0834   -5.3239  -12.7853 C   0  0  2  0  0  0  0  0  0  0  0  0
   40.2326   -6.1966  -12.6123 N   0  0  0  0  0  0  0  0  0  0  0  0
   39.3901   -4.0930  -13.5519 C   0  0  0  0  0  0  0  0  0  0  0  0
   38.5716   -3.5547  -14.5225 O   0  0  0  0  0  0  0  0  0  0  0  0
   40.4764   -3.5181  -13.2809 O   0  0  0  0  0  0  0  0  0  0  0  0
  2  1  1  0
  3  2  2  0
  4  3  1  0
  5  4  2  0
  5 11  1  0
  6  5  1  0
  7  8  1  1
  7  6  1  0
  9  7  1  0
 10  9  2  0
 11 12  2  0
 12  2  1  0
 13  9  1  0
 14 13  1  0
 14 15  1  6
 15 16  1  0
 17 16  1  0
 17 18  2  0
 19 14  1  0
 20 19  2  0
 21 17  1  0
 22 23  1  0
 23 24  2  0
 25 23  1  0
 26 25  1  1
 26 27  1  0
 27 19  1  0
 28 26  1  0
 28 29  1  0
 30 28  2  0
M  END
$$$$
