YEN.pdb
     RDKit          3D

 30 30  0  0  1  0  0  0  0  0999 V2000
   14.9359  -14.5121  -14.9897 O   0  0  0  0  0  0  0  0  0  0  0  0
   15.6730  -13.3682  -15.2581 C   0  0  0  0  0  0  0  0  0  0  0  0
   16.0472  -12.5496  -14.1978 C   0  0  0  0  0  0  0  0  0  0  0  0
   16.7787  -11.4174  -14.4787 C   0  0  0  0  0  0  0  0  0  0  0  0
   17.1133  -11.1340  -15.7854 C   0  0  0  0  0  0  0  0  0  0  0  0
   17.8969   -9.9194  -16.0666 C   0  0  0  0  0  0  0  0  0  0  0  0
   16.9671   -8.6982  -16.0638 C   0  0  2  0  0  0  0  0  0  0  0  0
   16.0230   -8.8978  -17.1713 N   0  0  0  0  0  0  0  0  0  0  0  0
   17.8526   -7.5302  -16.3450 C   0  0  0  0  0  0  0  0  0  0  0  0
   18.0634   -7.2691  -17.5571 O   0  0  0  0  0  0  0  0  0  0  0  0
   16.7433  -11.9435  -16.8340 C   0  0  0  0  0  0  0  0  0  0  0  0
   16.0129  -13.0748  -16.5574 C   0  0  0  0  0  0  0  0  0  0  0  0
   18.3830   -6.8123  -15.2815 N   0  0  0  0  0  0  0  0  0  0  0  0
   19.1825   -5.5868  -15.5574 C   0  0  1  0  0  0  0  0  0  0  0  0
   18.5644   -4.4693  -14.7763 C   0  0  0  0  0  0  0  0  0  0  0  0
   19.3051   -3.1866  -14.9270 C   0  0  0  0  0  0  0  0  0  0  0  0
   18.7400   -2.0574  -14.1446 C   0  0  0  0  0  0  0  0  0  0  0  0
   19.2826   -0.9291  -14.2477 O   0  0  0  0  0  0  0  0  0  0  0  0
   20.5521   -5.8503  -15.0664 C   0  0  0  0  0  0  0  0  0  0  0  0
   20.6982   -6.7825  -14.2082 O   0  0  0  0  0  0  0  0  0  0  0  0
   17.6507   -2.1879  -13.3110 O   0  0  0  0  0  0  0  0  0  0  0  0
   24.6682   -8.4421  -14.5230 N   0  0  0  0  0  0  0  0  0  0  0  0
   24.4387   -7.5710  -15.6199 C   0  0  0  0  0  0  0  0  0  0  0  0
   25.4275   -7.3226  -16.3522 O   0  0  0  0  0  0  0  0  0  0  0  0
   23.0909   -7.0209  -15.8339 C   0  0  0  0  0  0  0  0  0  0  0  0
   23.0114   -5.6154  -15.2554 C   0  0  2  0  0  0  0  0  0  0  0  0
   21.6672   -5.1269  -15.5134 N   0  0  0  0  0  0  0  0  0  0  0  0
   24.0706   -4.7569  -15.8368 C   0  0  0  0  0  0  0  0  0  0  0  0
   25.3031   -4.5394  -15.2580 O   0  0  0  0  0  0  0  0  0  0  0  0
   23.8034   -4.1996  -16.9332 O   0  0  0  0  0  0  0  0  0  0  0  0
  2  1  1  0
  3  2  2  0
  4  3  1  0
  5  4  2  0
  5 11  1  0
  6  5  1  0
  7  8  1  6
  7  6  1  0
  9  7  1  0
 10  9  2  0
 11 12  2  0
 12  2  1  0
 13  9  1  0
 14 13  1  0
 14 15  1  1
 15 16  1  0
 17 16  1  0
 17 18  2  0
 19 14  1  0
 20 19  2  0
 21 17  1  0
 22 23  1  0
 23 24  2  0
 25 23  1  0
 26 25  1  6
 26 27  1  0
 27 19  1  0
 28 26  1  0
 28 29  1  0
 30 28  2  0
M  END
$$$$
