YEN.pdb
     RDKit          3D

 30 30  0  0  1  0  0  0  0  0999 V2000
   14.1823  -14.0583  -18.5974 O   0  0  0  0  0  0  0  0  0  0  0  0
   14.8757  -13.3405  -17.6343 C   0  0  0  0  0  0  0  0  0  0  0  0
   15.7827  -14.0134  -16.8226 C   0  0  0  0  0  0  0  0  0  0  0  0
   16.4642  -13.2885  -15.8708 C   0  0  0  0  0  0  0  0  0  0  0  0
   16.2294  -11.9354  -15.7534 C   0  0  0  0  0  0  0  0  0  0  0  0
   16.9683  -11.1763  -14.7306 C   0  0  0  0  0  0  0  0  0  0  0  0
   18.2861  -10.6625  -15.3270 C   0  0  2  0  0  0  0  0  0  0  0  0
   19.2007  -11.8115  -15.3537 N   0  0  0  0  0  0  0  0  0  0  0  0
   18.7778   -9.6339  -14.3638 C   0  0  0  0  0  0  0  0  0  0  0  0
   19.1461  -10.0553  -13.2375 O   0  0  0  0  0  0  0  0  0  0  0  0
   15.3325  -11.2698  -16.5560 C   0  0  0  0  0  0  0  0  0  0  0  0
   14.6502  -11.9903  -17.5074 C   0  0  0  0  0  0  0  0  0  0  0  0
   18.8023   -8.3011  -14.7519 N   0  0  0  0  0  0  0  0  0  0  0  0
   19.4322   -7.2934  -13.8548 C   0  0  1  0  0  0  0  0  0  0  0  0
   20.1402   -6.3043  -14.7275 C   0  0  0  0  0  0  0  0  0  0  0  0
   20.8078   -5.2263  -13.9472 C   0  0  0  0  0  0  0  0  0  0  0  0
   22.0766   -5.6388  -13.2941 C   0  0  0  0  0  0  0  0  0  0  0  0
   22.6791   -4.8011  -12.5777 O   0  0  0  0  0  0  0  0  0  0  0  0
   18.3340   -6.6269  -13.1227 C   0  0  0  0  0  0  0  0  0  0  0  0
   17.2558   -6.3974  -13.7644 O   0  0  0  0  0  0  0  0  0  0  0  0
   22.6248   -6.8948  -13.4369 O   0  0  0  0  0  0  0  0  0  0  0  0
   15.2730   -4.7584   -9.5804 N   0  0  0  0  0  0  0  0  0  0  0  0
   16.2881   -5.4579   -8.8768 C   0  0  0  0  0  0  0  0  0  0  0  0
   16.1434   -5.5506   -7.6334 O   0  0  0  0  0  0  0  0  0  0  0  0
   17.4245   -6.0213   -9.6223 C   0  0  0  0  0  0  0  0  0  0  0  0
   17.3164   -5.6382  -11.0914 C   0  0  2  0  0  0  0  0  0  0  0  0
   18.4401   -6.2573  -11.7741 N   0  0  0  0  0  0  0  0  0  0  0  0
   17.2786   -4.1638  -11.2392 C   0  0  0  0  0  0  0  0  0  0  0  0
   18.2688   -3.4147  -11.8390 O   0  0  0  0  0  0  0  0  0  0  0  0
   16.2641   -3.5786  -10.7783 O   0  0  0  0  0  0  0  0  0  0  0  0
  2  1  1  0
  3  2  2  0
  4  3  1  0
  5  4  2  0
  5 11  1  0
  6  5  1  0
  7  8  1  1
  7  6  1  0
  9  7  1  0
 10  9  2  0
 11 12  2  0
 12  2  1  0
 13  9  1  0
 14 13  1  0
 14 15  1  6
 15 16  1  0
 17 16  1  0
 17 18  2  0
 19 14  1  0
 20 19  2  0
 21 17  1  0
 22 23  1  0
 23 24  2  0
 25 23  1  0
 26 25  1  1
 26 27  1  0
 27 19  1  0
 28 26  1  0
 28 29  1  0
 30 28  2  0
M  END
$$$$
