TDC.pdb
     RDKit          3D

 22 21  0  0  1  0  0  0  0  0999 V2000
    7.9647  -12.4051   18.8459 C   0  0  0  0  0  0  0  0  0  0  0  0
    8.4548  -13.2217   20.0197 C   0  0  1  0  0  0  0  0  0  0  0  0
    8.1451  -12.6297   21.2190 O   0  0  0  0  0  0  0  0  0  0  0  0
    7.9490  -14.6435   19.9645 C   0  0  2  0  0  0  0  0  0  0  0  0
    6.4868  -14.6186   19.8959 N   0  0  0  0  0  0  0  0  0  0  0  0
    8.3298  -15.4618   21.1212 C   0  0  0  0  0  0  0  0  0  0  0  0
    7.5029  -15.6790   22.0436 O   0  0  0  0  0  0  0  0  0  0  0  0
    9.6351  -16.0483   21.2649 N   0  0  0  0  0  0  0  0  0  0  0  0
   10.0366  -16.8622   22.3874 C   0  0  1  0  0  0  0  0  0  0  0  0
   11.3168  -17.5693   22.0282 C   0  0  0  0  0  0  0  0  0  0  0  0
   11.6560  -18.5178   23.1091 C   0  0  0  0  0  0  0  0  0  0  0  0
   11.9643  -18.1412   24.2619 O   0  0  0  0  0  0  0  0  0  0  0  0
   10.2410  -16.0089   23.6144 C   0  0  0  0  0  0  0  0  0  0  0  0
   11.0818  -15.0910   23.5385 O   0  0  0  0  0  0  0  0  0  0  0  0
   11.6475  -19.9003   22.8893 O   0  0  0  0  0  0  0  0  0  0  0  0
    9.5360  -16.1996   24.8225 N   0  0  0  0  0  0  0  0  0  0  0  0
    9.6737  -15.3483   25.9778 C   0  0  1  0  0  0  0  0  0  0  0  0
    8.3725  -14.6049   26.2374 C   0  0  0  0  0  0  0  0  0  0  0  0
    8.6912  -13.1322   27.2481 S   0  0  0  0  0  0  0  0  0  0  0  0
   10.0394  -16.1603   27.1582 C   0  0  0  0  0  0  0  0  0  0  0  0
   10.3815  -15.5188   28.3360 O   0  0  0  0  0  0  0  0  0  0  0  0
   10.0602  -17.4118   27.1621 O   0  0  0  0  0  0  0  0  0  0  0  0
  2  1  1  6
  2  4  1  0
  3  2  1  0
  4  6  1  0
  4  5  1  1
  6  7  2  0
  8  9  1  0
  8  6  1  0
  9 13  1  0
 10 11  1  0
  9 10  1  6
 11 15  1  0
 12 11  2  0
 13 14  2  0
 16 13  1  0
 16 17  1  0
 17 20  1  0
 17 18  1  1
 19 18  1  0
 20 22  2  0
 20 21  1  0
M  END
$$$$
