TDC.pdb
     RDKit          3D

 22 21  0  0  1  0  0  0  0  0999 V2000
    7.7062  -13.2434   18.7870 C   0  0  0  0  0  0  0  0  0  0  0  0
    8.1713  -13.7188   20.1444 C   0  0  1  0  0  0  0  0  0  0  0  0
    7.8632  -12.8187   21.1342 O   0  0  0  0  0  0  0  0  0  0  0  0
    7.6391  -15.0939   20.4702 C   0  0  2  0  0  0  0  0  0  0  0  0
    6.1793  -15.0694   20.3617 N   0  0  0  0  0  0  0  0  0  0  0  0
    7.9808  -15.5668   21.8163 C   0  0  0  0  0  0  0  0  0  0  0  0
    7.1426  -15.4811   22.7500 O   0  0  0  0  0  0  0  0  0  0  0  0
    9.2594  -16.1408   22.1393 N   0  0  0  0  0  0  0  0  0  0  0  0
    9.6534  -16.5404   23.4693 C   0  0  1  0  0  0  0  0  0  0  0  0
   10.9241  -17.3425   23.3679 C   0  0  0  0  0  0  0  0  0  0  0  0
   11.3007  -17.8099   24.7179 C   0  0  0  0  0  0  0  0  0  0  0  0
   12.4753  -18.1193   25.0188 O   0  0  0  0  0  0  0  0  0  0  0  0
    9.8711  -15.3305   24.3434 C   0  0  0  0  0  0  0  0  0  0  0  0
   10.7376  -14.5108   23.9791 O   0  0  0  0  0  0  0  0  0  0  0  0
   10.3473  -17.9295   25.7357 O   0  0  0  0  0  0  0  0  0  0  0  0
    9.1511  -15.0892   25.5334 N   0  0  0  0  0  0  0  0  0  0  0  0
    9.3586  -13.9417   26.3812 C   0  0  1  0  0  0  0  0  0  0  0  0
    8.2471  -12.9260   26.1674 C   0  0  0  0  0  0  0  0  0  0  0  0
    6.6468  -13.6555   26.6132 S   0  0  0  0  0  0  0  0  0  0  0  0
    9.3951  -14.3648   27.7976 C   0  0  0  0  0  0  0  0  0  0  0  0
    9.2057  -15.7008   28.1054 O   0  0  0  0  0  0  0  0  0  0  0  0
    9.5895  -13.5800   28.7530 O   0  0  0  0  0  0  0  0  0  0  0  0
  2  1  1  6
  2  4  1  0
  3  2  1  0
  4  6  1  0
  4  5  1  1
  6  7  2  0
  8  9  1  0
  8  6  1  0
  9 13  1  0
 10 11  1  0
  9 10  1  6
 11 15  1  0
 12 11  2  0
 13 14  2  0
 16 13  1  0
 16 17  1  0
 17 20  1  0
 17 18  1  1
 19 18  1  0
 20 22  2  0
 20 21  1  0
M  END
$$$$
