TDC.pdb
     RDKit          3D

 22 21  0  0  1  0  0  0  0  0999 V2000
    7.7408  -12.0589   18.4448 C   0  0  0  0  0  0  0  0  0  0  0  0
    8.4697  -13.1450   19.2024 C   0  0  1  0  0  0  0  0  0  0  0  0
    8.1399  -13.1479   20.5351 O   0  0  0  0  0  0  0  0  0  0  0  0
    8.2530  -14.5045   18.5819 C   0  0  2  0  0  0  0  0  0  0  0  0
    6.8209  -14.8075   18.6055 N   0  0  0  0  0  0  0  0  0  0  0  0
    8.9537  -15.5961   19.2674 C   0  0  0  0  0  0  0  0  0  0  0  0
    8.3279  -16.3614   20.0449 O   0  0  0  0  0  0  0  0  0  0  0  0
   10.3590  -15.8492   19.0954 N   0  0  0  0  0  0  0  0  0  0  0  0
   11.0873  -16.8775   19.7997 C   0  0  1  0  0  0  0  0  0  0  0  0
   12.3921  -17.1105   19.0847 C   0  0  0  0  0  0  0  0  0  0  0  0
   13.0561  -18.2893   19.6782 C   0  0  0  0  0  0  0  0  0  0  0  0
   14.1224  -18.2044   20.3277 O   0  0  0  0  0  0  0  0  0  0  0  0
   11.3440  -16.4620   21.2269 C   0  0  0  0  0  0  0  0  0  0  0  0
   12.0003  -15.4172   21.4087 O   0  0  0  0  0  0  0  0  0  0  0  0
   12.5149  -19.5727   19.5388 O   0  0  0  0  0  0  0  0  0  0  0  0
   10.8831  -17.1897   22.3453 N   0  0  0  0  0  0  0  0  0  0  0  0
   11.0338  -16.7496   23.7098 C   0  0  1  0  0  0  0  0  0  0  0  0
    9.6686  -16.5068   24.3346 C   0  0  0  0  0  0  0  0  0  0  0  0
    8.7998  -15.1930   23.4341 S   0  0  0  0  0  0  0  0  0  0  0  0
   11.7743  -17.7673   24.4860 C   0  0  0  0  0  0  0  0  0  0  0  0
   12.1868  -17.4637   25.7718 O   0  0  0  0  0  0  0  0  0  0  0  0
   12.0575  -18.9054   24.0485 O   0  0  0  0  0  0  0  0  0  0  0  0
  2  1  1  6
  2  4  1  0
  3  2  1  0
  4  6  1  0
  4  5  1  1
  6  7  2  0
  8  9  1  0
  8  6  1  0
  9 13  1  0
 10 11  1  0
  9 10  1  6
 11 15  1  0
 12 11  2  0
 13 14  2  0
 16 13  1  0
 16 17  1  0
 17 20  1  0
 17 18  1  1
 19 18  1  0
 20 22  2  0
 20 21  1  0
M  END
$$$$
