TDC.pdb
     RDKit          3D

 22 21  0  0  1  0  0  0  0  0999 V2000
    8.1955  -12.1508   18.4223 C   0  0  0  0  0  0  0  0  0  0  0  0
    8.6615  -13.1973   19.4085 C   0  0  1  0  0  0  0  0  0  0  0  0
    8.0312  -13.0728   20.6217 O   0  0  0  0  0  0  0  0  0  0  0  0
    8.5136  -14.5948   18.8558 C   0  0  2  0  0  0  0  0  0  0  0  0
    7.1070  -14.8183   18.5166 N   0  0  0  0  0  0  0  0  0  0  0  0
    8.9248  -15.6543   19.7837 C   0  0  0  0  0  0  0  0  0  0  0  0
    8.0653  -16.2662   20.4682 O   0  0  0  0  0  0  0  0  0  0  0  0
   10.2975  -16.0455   19.9605 N   0  0  0  0  0  0  0  0  0  0  0  0
   10.7329  -17.0787   20.8698 C   0  0  1  0  0  0  0  0  0  0  0  0
   12.0631  -17.6008   20.3943 C   0  0  0  0  0  0  0  0  0  0  0  0
   11.8549  -18.3722   19.1516 C   0  0  0  0  0  0  0  0  0  0  0  0
   12.6119  -18.2678   18.1606 O   0  0  0  0  0  0  0  0  0  0  0  0
   10.8596  -16.5330   22.2704 C   0  0  0  0  0  0  0  0  0  0  0  0
   11.9190  -15.9421   22.5598 O   0  0  0  0  0  0  0  0  0  0  0  0
   10.7862  -19.2673   19.0245 O   0  0  0  0  0  0  0  0  0  0  0  0
    9.8509  -16.6590   23.2499 N   0  0  0  0  0  0  0  0  0  0  0  0
    9.9706  -16.1605   24.5974 C   0  0  1  0  0  0  0  0  0  0  0  0
    8.5981  -15.8028   25.1462 C   0  0  0  0  0  0  0  0  0  0  0  0
    7.8305  -14.5255   24.1112 S   0  0  0  0  0  0  0  0  0  0  0  0
   10.6107  -17.1813   25.4546 C   0  0  0  0  0  0  0  0  0  0  0  0
   10.9050  -16.8664   26.7698 O   0  0  0  0  0  0  0  0  0  0  0  0
   10.9089  -18.3317   25.0617 O   0  0  0  0  0  0  0  0  0  0  0  0
  2  1  1  6
  2  4  1  0
  3  2  1  0
  4  6  1  0
  4  5  1  1
  6  7  2  0
  8  9  1  0
  8  6  1  0
  9 13  1  0
 10 11  1  0
  9 10  1  6
 11 15  1  0
 12 11  2  0
 13 14  2  0
 16 13  1  0
 16 17  1  0
 17 20  1  0
 17 18  1  1
 19 18  1  0
 20 22  2  0
 20 21  1  0
M  END
$$$$
