TDC.pdb
     RDKit          3D

 22 21  0  0  1  0  0  0  0  0999 V2000
    8.0850  -12.2634   18.4492 C   0  0  0  0  0  0  0  0  0  0  0  0
    8.4948  -13.2798   19.4904 C   0  0  1  0  0  0  0  0  0  0  0  0
    7.6696  -13.2491   20.5871 O   0  0  0  0  0  0  0  0  0  0  0  0
    8.5843  -14.6716   18.9115 C   0  0  2  0  0  0  0  0  0  0  0  0
    7.2732  -15.0413   18.3753 N   0  0  0  0  0  0  0  0  0  0  0  0
    8.9791  -15.7006   19.8799 C   0  0  0  0  0  0  0  0  0  0  0  0
    8.1037  -16.3449   20.5124 O   0  0  0  0  0  0  0  0  0  0  0  0
   10.3530  -16.0249   20.1555 N   0  0  0  0  0  0  0  0  0  0  0  0
   10.7746  -16.9622   21.1691 C   0  0  1  0  0  0  0  0  0  0  0  0
   12.1430  -17.4742   20.8036 C   0  0  0  0  0  0  0  0  0  0  0  0
   12.0261  -18.3312   19.6058 C   0  0  0  0  0  0  0  0  0  0  0  0
   11.1987  -19.2666   19.5265 O   0  0  0  0  0  0  0  0  0  0  0  0
   10.8132  -16.2973   22.5226 C   0  0  0  0  0  0  0  0  0  0  0  0
   11.5331  -15.2860   22.6421 O   0  0  0  0  0  0  0  0  0  0  0  0
   12.8473  -18.1327   18.4896 O   0  0  0  0  0  0  0  0  0  0  0  0
   10.0841  -16.7602   23.6392 N   0  0  0  0  0  0  0  0  0  0  0  0
   10.1568  -16.1658   24.9507 C   0  0  1  0  0  0  0  0  0  0  0  0
    9.0371  -15.1521   25.1280 C   0  0  0  0  0  0  0  0  0  0  0  0
    7.4627  -15.8647   24.5753 S   0  0  0  0  0  0  0  0  0  0  0  0
   10.0580  -17.2185   25.9844 C   0  0  0  0  0  0  0  0  0  0  0  0
   10.2275  -16.8734   27.3140 O   0  0  0  0  0  0  0  0  0  0  0  0
    9.8270  -18.4223   25.7313 O   0  0  0  0  0  0  0  0  0  0  0  0
  2  1  1  6
  2  4  1  0
  3  2  1  0
  4  6  1  0
  4  5  1  1
  6  7  2  0
  8  9  1  0
  8  6  1  0
  9 13  1  0
 10 11  1  0
  9 10  1  6
 11 15  1  0
 12 11  2  0
 13 14  2  0
 16 13  1  0
 16 17  1  0
 17 20  1  0
 17 18  1  1
 19 18  1  0
 20 22  2  0
 20 21  1  0
M  END
$$$$
