TDC.pdb
     RDKit          3D

 22 21  0  0  1  0  0  0  0  0999 V2000
    7.4813  -13.8362   18.1293 C   0  0  0  0  0  0  0  0  0  0  0  0
    7.8858  -14.0755   19.5659 C   0  0  1  0  0  0  0  0  0  0  0  0
    7.1686  -13.2924   20.4360 O   0  0  0  0  0  0  0  0  0  0  0  0
    7.7924  -15.5357   19.9396 C   0  0  2  0  0  0  0  0  0  0  0  0
    6.4252  -15.9965   19.6914 N   0  0  0  0  0  0  0  0  0  0  0  0
    8.1130  -15.8181   21.3431 C   0  0  0  0  0  0  0  0  0  0  0  0
    7.1936  -16.0548   22.1680 O   0  0  0  0  0  0  0  0  0  0  0  0
    9.4605  -15.8408   21.8453 N   0  0  0  0  0  0  0  0  0  0  0  0
    9.8047  -16.0811   23.2264 C   0  0  1  0  0  0  0  0  0  0  0  0
   11.2747  -16.3997   23.3017 C   0  0  0  0  0  0  0  0  0  0  0  0
   11.4822  -17.7951   22.8629 C   0  0  0  0  0  0  0  0  0  0  0  0
   10.5674  -18.6488   22.8812 O   0  0  0  0  0  0  0  0  0  0  0  0
    9.4919  -14.8696   24.0689 C   0  0  0  0  0  0  0  0  0  0  0  0
    9.5145  -13.7586   23.5028 O   0  0  0  0  0  0  0  0  0  0  0  0
   12.7292  -18.2317   22.4004 O   0  0  0  0  0  0  0  0  0  0  0  0
    9.1805  -14.9361   25.4442 N   0  0  0  0  0  0  0  0  0  0  0  0
    8.6957  -13.8182   26.2148 C   0  0  1  0  0  0  0  0  0  0  0  0
    7.3595  -13.3442   25.6645 C   0  0  0  0  0  0  0  0  0  0  0  0
    6.6491  -12.0853   26.7611 S   0  0  0  0  0  0  0  0  0  0  0  0
    8.5507  -14.2119   27.6327 C   0  0  0  0  0  0  0  0  0  0  0  0
    8.7111  -15.5417   27.9812 O   0  0  0  0  0  0  0  0  0  0  0  0
    8.2878  -13.4070   28.5545 O   0  0  0  0  0  0  0  0  0  0  0  0
  2  1  1  6
  2  4  1  0
  3  2  1  0
  4  6  1  0
  4  5  1  1
  6  7  2  0
  8  9  1  0
  8  6  1  0
  9 13  1  0
 10 11  1  0
  9 10  1  6
 11 15  1  0
 12 11  2  0
 13 14  2  0
 16 13  1  0
 16 17  1  0
 17 20  1  0
 17 18  1  6
 19 18  1  0
 20 22  2  0
 20 21  1  0
M  END
$$$$
