TDC.pdb
     RDKit          3D

 22 21  0  0  1  0  0  0  0  0999 V2000
    8.5322  -12.4691   20.7640 C   0  0  0  0  0  0  0  0  0  0  0  0
    7.7414  -13.2942   19.7746 C   0  0  1  0  0  0  0  0  0  0  0  0
    7.8174  -12.7797   18.5041 O   0  0  0  0  0  0  0  0  0  0  0  0
    8.1506  -14.7475   19.8020 C   0  0  2  0  0  0  0  0  0  0  0  0
    7.2317  -15.5092   18.9542 N   0  0  0  0  0  0  0  0  0  0  0  0
    8.1323  -15.3516   21.1389 C   0  0  0  0  0  0  0  0  0  0  0  0
    7.0397  -15.6599   21.6801 O   0  0  0  0  0  0  0  0  0  0  0  0
    9.3297  -15.6199   21.8891 N   0  0  0  0  0  0  0  0  0  0  0  0
    9.3413  -16.1695   23.2239 C   0  0  1  0  0  0  0  0  0  0  0  0
   10.5705  -17.0264   23.3745 C   0  0  0  0  0  0  0  0  0  0  0  0
   10.4133  -18.2351   22.5395 C   0  0  0  0  0  0  0  0  0  0  0  0
   11.0430  -18.4005   21.4708 O   0  0  0  0  0  0  0  0  0  0  0  0
    9.3485  -15.0653   24.2516 C   0  0  0  0  0  0  0  0  0  0  0  0
   10.3228  -14.2869   24.2471 O   0  0  0  0  0  0  0  0  0  0  0  0
    9.5406  -19.2645   22.9114 O   0  0  0  0  0  0  0  0  0  0  0  0
    8.3205  -14.8774   25.2006 N   0  0  0  0  0  0  0  0  0  0  0  0
    8.3492  -13.8674   26.2290 C   0  0  1  0  0  0  0  0  0  0  0  0
    6.9385  -13.3825   26.5249 C   0  0  0  0  0  0  0  0  0  0  0  0
    6.3929  -12.2355   25.2292 S   0  0  0  0  0  0  0  0  0  0  0  0
    8.9653  -14.4179   27.4554 C   0  0  0  0  0  0  0  0  0  0  0  0
    9.3595  -15.7445   27.4727 O   0  0  0  0  0  0  0  0  0  0  0  0
    9.1568  -13.7509   28.4971 O   0  0  0  0  0  0  0  0  0  0  0  0
  2  1  1  1
  2  4  1  0
  3  2  1  0
  4  6  1  0
  4  5  1  6
  6  7  2  0
  8  9  1  0
  8  6  1  0
  9 13  1  0
 10 11  1  0
  9 10  1  6
 11 15  1  0
 12 11  2  0
 13 14  2  0
 16 13  1  0
 16 17  1  0
 17 20  1  0
 17 18  1  1
 19 18  1  0
 20 22  2  0
 20 21  1  0
M  END
$$$$
