TDC.pdb
     RDKit          3D

 22 21  0  0  1  0  0  0  0  0999 V2000
    8.3536  -12.9563   20.2699 C   0  0  0  0  0  0  0  0  0  0  0  0
    7.3602  -13.9826   19.7751 C   0  0  1  0  0  0  0  0  0  0  0  0
    6.9644  -13.7301   18.4850 O   0  0  0  0  0  0  0  0  0  0  0  0
    7.8880  -15.3900   19.9200 C   0  0  2  0  0  0  0  0  0  0  0  0
    6.8370  -16.3281   19.5215 N   0  0  0  0  0  0  0  0  0  0  0  0
    8.3060  -15.7373   21.2827 C   0  0  0  0  0  0  0  0  0  0  0  0
    7.4543  -16.1012   22.1336 O   0  0  0  0  0  0  0  0  0  0  0  0
    9.6768  -15.6842   21.7147 N   0  0  0  0  0  0  0  0  0  0  0  0
   10.1073  -15.9288   23.0707 C   0  0  1  0  0  0  0  0  0  0  0  0
   11.6115  -15.9995   23.0865 C   0  0  0  0  0  0  0  0  0  0  0  0
   12.0334  -17.2903   22.5046 C   0  0  0  0  0  0  0  0  0  0  0  0
   13.0588  -17.4056   21.7967 O   0  0  0  0  0  0  0  0  0  0  0  0
    9.6292  -14.8283   23.9850 C   0  0  0  0  0  0  0  0  0  0  0  0
    9.5108  -13.6882   23.4937 O   0  0  0  0  0  0  0  0  0  0  0  0
   11.2946  -18.4593   22.7219 O   0  0  0  0  0  0  0  0  0  0  0  0
    9.3158  -15.0279   25.3469 N   0  0  0  0  0  0  0  0  0  0  0  0
    8.7874  -14.0012   26.2101 C   0  0  1  0  0  0  0  0  0  0  0  0
    7.4767  -13.4708   25.6500 C   0  0  0  0  0  0  0  0  0  0  0  0
    6.7464  -12.2779   26.8056 S   0  0  0  0  0  0  0  0  0  0  0  0
    8.5760  -14.5474   27.5678 C   0  0  0  0  0  0  0  0  0  0  0  0
    8.7558  -15.9028   27.7829 O   0  0  0  0  0  0  0  0  0  0  0  0
    8.2392  -13.8521   28.5526 O   0  0  0  0  0  0  0  0  0  0  0  0
  2  1  1  6
  2  4  1  0
  3  2  1  0
  4  6  1  0
  4  5  1  1
  6  7  2  0
  8  9  1  0
  8  6  1  0
  9 13  1  0
 10 11  1  0
  9 10  1  6
 11 15  1  0
 12 11  2  0
 13 14  2  0
 16 13  1  0
 16 17  1  0
 17 20  1  0
 17 18  1  6
 19 18  1  0
 20 22  2  0
 20 21  1  0
M  END
$$$$
