TDC.pdb
     RDKit          3D

 22 21  0  0  1  0  0  0  0  0999 V2000
    7.2657  -12.5861   19.3902 C   0  0  0  0  0  0  0  0  0  0  0  0
    8.0369  -13.4525   20.3594 C   0  0  1  0  0  0  0  0  0  0  0  0
    7.6769  -13.2079   21.6615 O   0  0  0  0  0  0  0  0  0  0  0  0
    7.9116  -14.9194   20.0233 C   0  0  2  0  0  0  0  0  0  0  0  0
    6.4905  -15.2637   19.9500 N   0  0  0  0  0  0  0  0  0  0  0  0
    8.5403  -15.8153   21.0002 C   0  0  0  0  0  0  0  0  0  0  0  0
    7.8343  -16.4445   21.8293 O   0  0  0  0  0  0  0  0  0  0  0  0
    9.9621  -16.0218   21.0660 N   0  0  0  0  0  0  0  0  0  0  0  0
   10.6104  -16.8827   22.0263 C   0  0  1  0  0  0  0  0  0  0  0  0
   12.0653  -16.9985   21.6550 C   0  0  0  0  0  0  0  0  0  0  0  0
   12.7386  -17.8743   22.6360 C   0  0  0  0  0  0  0  0  0  0  0  0
   13.8784  -17.6254   23.0886 O   0  0  0  0  0  0  0  0  0  0  0  0
   10.4730  -16.3207   23.4194 C   0  0  0  0  0  0  0  0  0  0  0  0
   11.2634  -15.4147   23.7507 O   0  0  0  0  0  0  0  0  0  0  0  0
   12.1232  -19.0387   23.1104 O   0  0  0  0  0  0  0  0  0  0  0  0
    9.5073  -16.7664   24.3477 N   0  0  0  0  0  0  0  0  0  0  0  0
    9.4556  -16.3385   25.7234 C   0  0  1  0  0  0  0  0  0  0  0  0
    8.1275  -15.6545   26.0085 C   0  0  0  0  0  0  0  0  0  0  0  0
    6.7581  -16.6929   25.4268 S   0  0  0  0  0  0  0  0  0  0  0  0
    9.6299  -17.5031   26.6177 C   0  0  0  0  0  0  0  0  0  0  0  0
    9.6957  -17.2974   27.9848 O   0  0  0  0  0  0  0  0  0  0  0  0
    9.7234  -18.6836   26.2121 O   0  0  0  0  0  0  0  0  0  0  0  0
  2  1  1  6
  2  4  1  0
  3  2  1  0
  4  6  1  0
  4  5  1  1
  6  7  2  0
  8  9  1  0
  8  6  1  0
  9 13  1  0
 10 11  1  0
  9 10  1  6
 11 15  1  0
 12 11  2  0
 13 14  2  0
 16 13  1  0
 16 17  1  0
 17 20  1  0
 17 18  1  1
 19 18  1  0
 20 22  2  0
 20 21  1  0
M  END
$$$$
