NTI.pdb
     RDKit          3D

 24 23  0  0  1  0  0  0  0  0999 V2000
   16.7223  -12.1558  -18.8373 N   0  0  0  0  0  0  0  0  0  0  0  0
   16.2855  -11.5537  -17.5844 C   0  0  0  0  0  0  0  0  0  0  0  0
   15.0658  -11.3169  -17.5196 O   0  0  0  0  0  0  0  0  0  0  0  0
   17.2256  -11.2701  -16.5262 C   0  0  0  0  0  0  0  0  0  0  0  0
   18.6570  -11.5918  -16.8245 C   0  0  2  0  0  0  0  0  0  0  0  0
   18.8092  -13.0718  -16.6368 N   0  0  0  0  0  0  0  0  0  0  0  0
   19.6385  -11.0078  -15.9006 C   0  0  0  0  0  0  0  0  0  0  0  0
   19.6786  -11.4281  -14.7077 O   0  0  0  0  0  0  0  0  0  0  0  0
   23.3453  -10.8361  -16.0115 C   0  0  0  0  0  0  0  0  0  0  0  0
   22.8192   -9.4105  -15.9464 C   0  0  1  0  0  0  0  0  0  0  0  0
   22.8494   -8.7713  -17.1630 O   0  0  0  0  0  0  0  0  0  0  0  0
   21.4515   -9.3785  -15.2918 C   0  0  2  0  0  0  0  0  0  0  0  0
   20.5424  -10.0068  -16.2740 N   0  0  0  0  0  0  0  0  0  0  0  0
   20.9672   -8.0261  -15.0391 C   0  0  0  0  0  0  0  0  0  0  0  0
   20.1904   -7.4501  -15.8465 O   0  0  0  0  0  0  0  0  0  0  0  0
   17.8130   -6.2740  -11.4153 C   0  0  0  0  0  0  0  0  0  0  0  0
   18.6109   -6.4313  -12.6953 C   0  0  0  0  0  0  0  0  0  0  0  0
   19.9485   -5.7685  -12.4839 C   0  0  2  0  0  0  0  0  0  0  0  0
   19.7033   -4.2925  -12.2685 C   0  0  0  0  0  0  0  0  0  0  0  0
   20.8527   -5.9021  -13.6838 C   0  0  2  0  0  0  0  0  0  0  0  0
   21.3123   -7.2466  -13.8926 N   0  0  0  0  0  0  0  0  0  0  0  0
   22.0254   -5.0304  -13.4586 C   0  0  0  0  0  0  0  0  0  0  0  0
   23.2531   -5.4854  -12.9978 O   0  0  0  0  0  0  0  0  0  0  0  0
   21.9189   -3.8039  -13.6935 O   0  0  0  0  0  0  0  0  0  0  0  0
  1  2  1  0
  2  3  2  0
  4  2  1  0
  5  4  1  0
  5  7  1  0
  5  6  1  1
  7  8  2  0
 10  9  1  6
 10 11  1  0
 12 10  1  0
 13  7  1  0
 12 13  1  6
 14 12  1  0
 14 15  2  0
 16 17  1  0
 17 18  1  0
 18 19  1  6
 18 20  1  0
 20 21  1  1
 21 14  1  0
 22 23  1  0
 22 20  1  0
 24 22  2  0
M  END
$$$$
