NTI.pdb
     RDKit          3D

 24 23  0  0  1  0  0  0  0  0999 V2000
   23.1963  -22.2078   -7.4697 N   0  0  0  0  0  0  0  0  0  0  0  0
   22.4790  -21.0736   -8.0371 C   0  0  0  0  0  0  0  0  0  0  0  0
   21.4446  -20.7540   -7.4241 O   0  0  0  0  0  0  0  0  0  0  0  0
   22.9636  -20.4010   -9.2190 C   0  0  0  0  0  0  0  0  0  0  0  0
   24.2071  -20.9707   -9.8277 C   0  0  2  0  0  0  0  0  0  0  0  0
   25.3276  -20.6552   -8.8824 N   0  0  0  0  0  0  0  0  0  0  0  0
   24.6227  -20.3597  -11.0972 C   0  0  0  0  0  0  0  0  0  0  0  0
   25.3316  -19.3119  -11.0666 O   0  0  0  0  0  0  0  0  0  0  0  0
   27.0615  -21.0831  -13.1838 C   0  0  0  0  0  0  0  0  0  0  0  0
   25.8540  -21.1607  -14.1054 C   0  0  1  0  0  0  0  0  0  0  0  0
   25.4359  -22.4499  -14.3346 O   0  0  0  0  0  0  0  0  0  0  0  0
   24.7446  -20.2559  -13.6045 C   0  0  2  0  0  0  0  0  0  0  0  0
   24.2780  -20.8819  -12.3490 N   0  0  0  0  0  0  0  0  0  0  0  0
   23.6074  -20.1837  -14.5150 C   0  0  0  0  0  0  0  0  0  0  0  0
   22.5257  -20.7748  -14.2554 O   0  0  0  0  0  0  0  0  0  0  0  0
   20.3233  -16.3490  -17.6211 C   0  0  0  0  0  0  0  0  0  0  0  0
   20.8193  -17.7806  -17.6876 C   0  0  0  0  0  0  0  0  0  0  0  0
   21.9541  -17.9167  -16.7042 C   0  0  2  0  0  0  0  0  0  0  0  0
   23.1067  -17.0802  -17.2108 C   0  0  0  0  0  0  0  0  0  0  0  0
   22.4480  -19.3372  -16.5888 C   0  0  2  0  0  0  0  0  0  0  0  0
   23.6056  -19.4617  -15.7479 N   0  0  0  0  0  0  0  0  0  0  0  0
   22.7985  -19.7999  -17.9485 C   0  0  0  0  0  0  0  0  0  0  0  0
   21.8662  -20.1960  -18.8975 O   0  0  0  0  0  0  0  0  0  0  0  0
   24.0070  -19.8425  -18.2780 O   0  0  0  0  0  0  0  0  0  0  0  0
  1  2  1  0
  2  3  2  0
  4  2  1  0
  5  4  1  0
  5  7  1  0
  5  6  1  1
  7  8  2  0
 10  9  1  1
 10 11  1  0
 12 10  1  0
 13  7  1  0
 12 13  1  1
 14 12  1  0
 14 15  2  0
 16 17  1  0
 17 18  1  0
 18 19  1  6
 18 20  1  0
 20 21  1  1
 21 14  1  0
 22 23  1  0
 22 20  1  0
 24 22  2  0
M  END
$$$$
