NTI.pdb
     RDKit          3D

 24 23  0  0  1  0  0  0  0  0999 V2000
   15.6348  -17.1924  -15.6123 N   0  0  0  0  0  0  0  0  0  0  0  0
   16.6959  -16.6907  -14.7491 C   0  0  0  0  0  0  0  0  0  0  0  0
   16.7548  -17.2319  -13.6304 O   0  0  0  0  0  0  0  0  0  0  0  0
   17.5879  -15.6466  -15.1945 C   0  0  0  0  0  0  0  0  0  0  0  0
   17.3049  -15.0853  -16.5533 C   0  0  2  0  0  0  0  0  0  0  0  0
   17.7446  -16.1226  -17.5429 N   0  0  0  0  0  0  0  0  0  0  0  0
   18.0797  -13.8905  -16.9140 C   0  0  0  0  0  0  0  0  0  0  0  0
   19.1827  -14.0378  -17.5164 O   0  0  0  0  0  0  0  0  0  0  0  0
   16.7264  -10.9681  -18.8480 C   0  0  0  0  0  0  0  0  0  0  0  0
   17.3881  -10.4301  -17.5887 C   0  0  1  0  0  0  0  0  0  0  0  0
   16.4825  -10.0527  -16.6260 O   0  0  0  0  0  0  0  0  0  0  0  0
   18.4281  -11.4077  -17.0761 C   0  0  2  0  0  0  0  0  0  0  0  0
   17.6569  -12.5873  -16.6291 N   0  0  0  0  0  0  0  0  0  0  0  0
   19.1743  -10.9033  -15.9289 C   0  0  0  0  0  0  0  0  0  0  0  0
   18.8176  -11.1700  -14.7505 O   0  0  0  0  0  0  0  0  0  0  0  0
   24.1521  -11.7299  -14.7448 C   0  0  0  0  0  0  0  0  0  0  0  0
   22.6627  -11.4459  -14.7186 C   0  0  0  0  0  0  0  0  0  0  0  0
   22.4807   -9.9529  -14.8227 C   0  0  2  0  0  0  0  0  0  0  0  0
   23.0713   -9.3281  -13.5794 C   0  0  0  0  0  0  0  0  0  0  0  0
   21.0273   -9.5530  -14.8781 C   0  0  2  0  0  0  0  0  0  0  0  0
   20.3424  -10.0858  -16.0223 N   0  0  0  0  0  0  0  0  0  0  0  0
   20.9723   -8.0768  -14.9383 C   0  0  0  0  0  0  0  0  0  0  0  0
   20.9993   -7.2533  -13.8212 O   0  0  0  0  0  0  0  0  0  0  0  0
   20.8965   -7.5216  -16.0593 O   0  0  0  0  0  0  0  0  0  0  0  0
  1  2  1  0
  2  3  2  0
  4  2  1  0
  5  4  1  0
  5  7  1  0
  5  6  1  6
  7  8  2  0
 10  9  1  6
 10 11  1  0
 12 10  1  0
 13  7  1  0
 12 13  1  1
 14 12  1  0
 14 15  2  0
 16 17  1  0
 17 18  1  0
 18 19  1  1
 18 20  1  0
 20 21  1  6
 21 14  1  0
 22 23  1  0
 22 20  1  0
 24 22  2  0
M  END
$$$$
