NTI.pdb
     RDKit          3D

 24 23  0  0  1  0  0  0  0  0999 V2000
   13.6386  -13.0017  -16.0099 N   0  0  0  0  0  0  0  0  0  0  0  0
   14.5158  -11.8387  -15.9784 C   0  0  0  0  0  0  0  0  0  0  0  0
   14.7063  -11.3019  -17.0844 O   0  0  0  0  0  0  0  0  0  0  0  0
   15.0979  -11.3777  -14.7403 C   0  0  0  0  0  0  0  0  0  0  0  0
   16.5331  -10.9579  -14.8132 C   0  0  2  0  0  0  0  0  0  0  0  0
   17.3472  -12.2171  -14.7908 N   0  0  0  0  0  0  0  0  0  0  0  0
   17.0231  -10.1905  -13.6604 C   0  0  0  0  0  0  0  0  0  0  0  0
   17.1508  -10.7775  -12.5466 O   0  0  0  0  0  0  0  0  0  0  0  0
   19.3679   -6.1533  -12.0600 C   0  0  0  0  0  0  0  0  0  0  0  0
   18.9045   -7.1275  -13.1322 C   0  0  1  0  0  0  0  0  0  0  0  0
   19.9463   -7.7406  -13.7866 O   0  0  0  0  0  0  0  0  0  0  0  0
   17.9016   -8.1103  -12.5591 C   0  0  2  0  0  0  0  0  0  0  0  0
   17.3639   -8.8350  -13.7303 N   0  0  0  0  0  0  0  0  0  0  0  0
   16.7825   -7.4615  -11.8852 C   0  0  0  0  0  0  0  0  0  0  0  0
   15.8340   -6.9521  -12.5394 O   0  0  0  0  0  0  0  0  0  0  0  0
   12.3492   -7.4921   -8.1427 C   0  0  0  0  0  0  0  0  0  0  0  0
   13.5282   -6.5933   -8.4620 C   0  0  0  0  0  0  0  0  0  0  0  0
   14.5277   -7.4107   -9.2406 C   0  0  2  0  0  0  0  0  0  0  0  0
   15.1739   -8.3848   -8.2822 C   0  0  0  0  0  0  0  0  0  0  0  0
   15.6287   -6.5645   -9.8296 C   0  0  2  0  0  0  0  0  0  0  0  0
   16.6536   -7.3426  -10.4673 N   0  0  0  0  0  0  0  0  0  0  0  0
   16.2379   -5.7927   -8.7256 C   0  0  0  0  0  0  0  0  0  0  0  0
   17.4770   -6.0798   -8.1699 O   0  0  0  0  0  0  0  0  0  0  0  0
   15.6086   -4.8175   -8.2528 O   0  0  0  0  0  0  0  0  0  0  0  0
  1  2  1  0
  2  3  2  0
  4  2  1  0
  5  4  1  0
  5  7  1  0
  5  6  1  1
  7  8  2  0
 10  9  1  1
 10 11  1  0
 12 10  1  0
 13  7  1  0
 12 13  1  6
 14 12  1  0
 14 15  2  0
 16 17  1  0
 17 18  1  0
 18 19  1  1
 18 20  1  0
 20 21  1  1
 21 14  1  0
 22 23  1  0
 22 20  1  0
 24 22  2  0
M  END
$$$$
