NTI.pdb
     RDKit          3D

 24 23  0  0  1  0  0  0  0  0999 V2000
   14.0627  -13.1415  -14.1653 N   0  0  0  0  0  0  0  0  0  0  0  0
   14.2637  -11.8259  -14.7584 C   0  0  0  0  0  0  0  0  0  0  0  0
   13.2165  -11.2353  -15.0787 O   0  0  0  0  0  0  0  0  0  0  0  0
   15.5899  -11.2861  -14.9426 C   0  0  0  0  0  0  0  0  0  0  0  0
   15.9714  -10.9660  -16.3544 C   0  0  2  0  0  0  0  0  0  0  0  0
   16.3505  -12.2660  -16.9987 N   0  0  0  0  0  0  0  0  0  0  0  0
   17.1660  -10.1250  -16.5078 C   0  0  0  0  0  0  0  0  0  0  0  0
   18.2561  -10.6701  -16.8484 O   0  0  0  0  0  0  0  0  0  0  0  0
   17.2660   -6.8732  -18.4690 C   0  0  0  0  0  0  0  0  0  0  0  0
   17.8845   -6.6241  -17.1021 C   0  0  1  0  0  0  0  0  0  0  0  0
   17.0588   -5.9177  -16.2602 O   0  0  0  0  0  0  0  0  0  0  0  0
   18.3782   -7.9244  -16.4975 C   0  0  2  0  0  0  0  0  0  0  0  0
   17.1615   -8.7410  -16.3005 N   0  0  0  0  0  0  0  0  0  0  0  0
   19.0114   -7.7484  -15.1954 C   0  0  0  0  0  0  0  0  0  0  0  0
   18.3575   -7.8889  -14.1279 O   0  0  0  0  0  0  0  0  0  0  0  0
   23.2233   -9.6769  -11.7230 C   0  0  0  0  0  0  0  0  0  0  0  0
   22.5023   -8.3745  -12.0120 C   0  0  0  0  0  0  0  0  0  0  0  0
   21.8533   -8.5029  -13.3668 C   0  0  2  0  0  0  0  0  0  0  0  0
   22.9538   -8.5868  -14.3997 C   0  0  0  0  0  0  0  0  0  0  0  0
   21.0037   -7.3056  -13.7136 C   0  0  2  0  0  0  0  0  0  0  0  0
   20.3869   -7.4113  -15.0061 N   0  0  0  0  0  0  0  0  0  0  0  0
   21.8825   -6.1167  -13.7040 C   0  0  0  0  0  0  0  0  0  0  0  0
   22.3174   -5.4828  -12.5483 O   0  0  0  0  0  0  0  0  0  0  0  0
   22.2656   -5.6415  -14.7986 O   0  0  0  0  0  0  0  0  0  0  0  0
  1  2  1  0
  2  3  2  0
  4  2  1  0
  5  4  1  0
  5  7  1  0
  5  6  1  6
  7  8  2  0
 10  9  1  6
 10 11  1  0
 12 10  1  0
 13  7  1  0
 12 13  1  1
 14 12  1  0
 14 15  2  0
 16 17  1  0
 17 18  1  0
 18 19  1  6
 18 20  1  0
 20 21  1  6
 21 14  1  0
 22 23  1  0
 22 20  1  0
 24 22  2  0
M  END
$$$$
