NTI.pdb
     RDKit          3D

 24 23  0  0  1  0  0  0  0  0999 V2000
   23.7683  -15.4078  -21.2409 N   0  0  0  0  0  0  0  0  0  0  0  0
   23.9823  -15.5244  -19.8043 C   0  0  0  0  0  0  0  0  0  0  0  0
   23.9612  -14.4446  -19.1868 O   0  0  0  0  0  0  0  0  0  0  0  0
   24.1981  -16.8105  -19.1850 C   0  0  0  0  0  0  0  0  0  0  0  0
   25.3932  -16.9083  -18.2886 C   0  0  2  0  0  0  0  0  0  0  0  0
   26.5992  -16.7811  -19.1708 N   0  0  0  0  0  0  0  0  0  0  0  0
   25.5717  -18.2027  -17.6174 C   0  0  0  0  0  0  0  0  0  0  0  0
   25.7581  -19.2357  -18.3241 O   0  0  0  0  0  0  0  0  0  0  0  0
   27.2630  -20.1525  -17.5830 C   0  0  0  0  0  0  0  0  0  0  0  0
   27.2454  -20.0137  -16.0685 C   0  0  1  0  0  0  0  0  0  0  0  0
   28.2183  -19.1651  -15.5962 O   0  0  0  0  0  0  0  0  0  0  0  0
   25.8545  -19.6516  -15.5845 C   0  0  2  0  0  0  0  0  0  0  0  0
   25.5515  -18.3546  -16.2264 N   0  0  0  0  0  0  0  0  0  0  0  0
   25.7804  -19.4612  -14.1403 C   0  0  0  0  0  0  0  0  0  0  0  0
   25.8431  -18.3110  -13.6301 O   0  0  0  0  0  0  0  0  0  0  0  0
   22.5154  -20.0168   -9.4534 C   0  0  0  0  0  0  0  0  0  0  0  0
   23.9887  -20.0548   -9.8107 C   0  0  0  0  0  0  0  0  0  0  0  0
   24.0920  -20.2723  -11.2991 C   0  0  2  0  0  0  0  0  0  0  0  0
   23.4823  -21.6196  -11.6121 C   0  0  0  0  0  0  0  0  0  0  0  0
   25.5221  -20.3056  -11.7778 C   0  0  2  0  0  0  0  0  0  0  0  0
   25.6347  -20.5209  -13.1932 N   0  0  0  0  0  0  0  0  0  0  0  0
   26.2027  -21.4138  -11.0746 C   0  0  0  0  0  0  0  0  0  0  0  0
   26.6801  -21.3302   -9.7739 O   0  0  0  0  0  0  0  0  0  0  0  0
   26.3655  -22.5005  -11.6773 O   0  0  0  0  0  0  0  0  0  0  0  0
  1  2  1  0
  2  3  2  0
  4  2  1  0
  5  4  1  0
  5  7  1  0
  5  6  1  6
  7  8  2  0
 10  9  1  6
 10 11  1  0
 12 10  1  0
 13  7  1  0
 12 13  1  6
 14 12  1  0
 14 15  2  0
 16 17  1  0
 17 18  1  0
 18 19  1  1
 18 20  1  0
 20 21  1  6
 21 14  1  0
 22 23  1  0
 22 20  1  0
 24 22  2  0
M  END
$$$$
