NTI.pdb
     RDKit          3D

 24 23  0  0  1  0  0  0  0  0999 V2000
   28.8560  -24.1824  -17.3001 N   0  0  0  0  0  0  0  0  0  0  0  0
   29.3614  -22.8178  -17.2268 C   0  0  0  0  0  0  0  0  0  0  0  0
   30.5293  -22.6741  -17.6311 O   0  0  0  0  0  0  0  0  0  0  0  0
   28.5398  -21.7450  -16.7186 C   0  0  0  0  0  0  0  0  0  0  0  0
   27.2191  -22.1536  -16.1439 C   0  0  2  0  0  0  0  0  0  0  0  0
   26.2466  -22.1767  -17.2852 N   0  0  0  0  0  0  0  0  0  0  0  0
   26.6302  -21.2078  -15.1866 C   0  0  0  0  0  0  0  0  0  0  0  0
   26.1675  -20.1119  -15.6181 O   0  0  0  0  0  0  0  0  0  0  0  0
   24.2682  -19.9398  -14.7652 C   0  0  0  0  0  0  0  0  0  0  0  0
   24.3769  -20.5887  -13.3939 C   0  0  1  0  0  0  0  0  0  0  0  0
   23.8210  -21.8450  -13.3491 O   0  0  0  0  0  0  0  0  0  0  0  0
   25.8114  -20.5554  -12.9028 C   0  0  2  0  0  0  0  0  0  0  0  0
   26.5483  -21.4586  -13.8123 N   0  0  0  0  0  0  0  0  0  0  0  0
   25.9659  -21.0675  -11.5459 C   0  0  0  0  0  0  0  0  0  0  0  0
   26.2703  -22.2715  -11.3340 O   0  0  0  0  0  0  0  0  0  0  0  0
   27.8687  -19.4568   -6.0075 C   0  0  0  0  0  0  0  0  0  0  0  0
   27.0322  -20.4543   -6.7854 C   0  0  0  0  0  0  0  0  0  0  0  0
   26.7888  -19.8754   -8.1561 C   0  0  2  0  0  0  0  0  0  0  0  0
   25.9813  -18.6089   -7.9855 C   0  0  0  0  0  0  0  0  0  0  0  0
   25.9888  -20.8015   -9.0379 C   0  0  2  0  0  0  0  0  0  0  0  0
   25.7940  -20.2843  -10.3634 N   0  0  0  0  0  0  0  0  0  0  0  0
   24.6665  -20.9901   -8.4041 C   0  0  0  0  0  0  0  0  0  0  0  0
   24.4521  -21.7640   -7.2720 O   0  0  0  0  0  0  0  0  0  0  0  0
   23.6695  -20.4228   -8.9091 O   0  0  0  0  0  0  0  0  0  0  0  0
  1  2  1  0
  2  3  2  0
  4  2  1  0
  5  4  1  0
  5  7  1  0
  5  6  1  6
  7  8  2  0
 10  9  1  6
 10 11  1  0
 12 10  1  0
 13  7  1  0
 12 13  1  6
 14 12  1  0
 14 15  2  0
 16 17  1  0
 17 18  1  0
 18 19  1  1
 18 20  1  0
 20 21  1  6
 21 14  1  0
 22 23  1  0
 22 20  1  0
 24 22  2  0
M  END
$$$$
