NTI.pdb
     RDKit          3D

 24 23  0  0  1  0  0  0  0  0999 V2000
   14.3298  -15.9947  -18.9357 N   0  0  0  0  0  0  0  0  0  0  0  0
   15.5344  -15.1912  -19.0980 C   0  0  0  0  0  0  0  0  0  0  0  0
   16.2091  -15.4650  -20.1068 O   0  0  0  0  0  0  0  0  0  0  0  0
   15.8820  -14.1676  -18.1412 C   0  0  0  0  0  0  0  0  0  0  0  0
   17.3473  -13.9575  -17.9171 C   0  0  2  0  0  0  0  0  0  0  0  0
   17.8365  -15.1500  -17.1505 N   0  0  0  0  0  0  0  0  0  0  0  0
   17.6954  -12.8127  -17.0650 C   0  0  0  0  0  0  0  0  0  0  0  0
   17.1469  -12.7086  -15.9294 O   0  0  0  0  0  0  0  0  0  0  0  0
   20.7127  -12.1431  -15.3740 C   0  0  0  0  0  0  0  0  0  0  0  0
   20.4837  -10.9403  -16.2763 C   0  0  1  0  0  0  0  0  0  0  0  0
   21.2209  -10.9910  -17.4354 O   0  0  0  0  0  0  0  0  0  0  0  0
   19.0013  -10.7360  -16.5229 C   0  0  2  0  0  0  0  0  0  0  0  0
   18.6127  -11.8259  -17.4433 N   0  0  0  0  0  0  0  0  0  0  0  0
   18.6976   -9.4696  -17.1798 C   0  0  0  0  0  0  0  0  0  0  0  0
   18.8039   -9.3407  -18.4284 O   0  0  0  0  0  0  0  0  0  0  0  0
   14.5673   -6.0824  -16.0160 C   0  0  0  0  0  0  0  0  0  0  0  0
   15.9844   -6.5949  -15.8456 C   0  0  0  0  0  0  0  0  0  0  0  0
   16.6369   -6.5935  -17.2048 C   0  0  2  0  0  0  0  0  0  0  0  0
   15.9033   -7.5926  -18.0700 C   0  0  0  0  0  0  0  0  0  0  0  0
   18.0815   -7.0240  -17.1498 C   0  0  2  0  0  0  0  0  0  0  0  0
   18.2647   -8.2908  -16.4985 N   0  0  0  0  0  0  0  0  0  0  0  0
   18.8266   -5.9925  -16.3971 C   0  0  0  0  0  0  0  0  0  0  0  0
   19.4407   -6.2174  -15.1728 O   0  0  0  0  0  0  0  0  0  0  0  0
   18.9172   -4.8402  -16.8819 O   0  0  0  0  0  0  0  0  0  0  0  0
  1  2  1  0
  2  3  2  0
  4  2  1  0
  5  4  1  0
  5  7  1  0
  5  6  1  1
  7  8  2  0
 10  9  1  6
 10 11  1  0
 12 10  1  0
 13  7  1  0
 12 13  1  6
 14 12  1  0
 14 15  2  0
 16 17  1  0
 17 18  1  0
 18 19  1  6
 18 20  1  0
 20 21  1  1
 21 14  1  0
 22 23  1  0
 22 20  1  0
 24 22  2  0
M  END
$$$$
