NTI.pdb
     RDKit          3D

 24 23  0  0  1  0  0  0  0  0999 V2000
   29.9994  -24.2453  -16.3887 N   0  0  0  0  0  0  0  0  0  0  0  0
   29.9045  -22.9151  -16.9756 C   0  0  0  0  0  0  0  0  0  0  0  0
   30.4338  -22.8029  -18.0959 O   0  0  0  0  0  0  0  0  0  0  0  0
   29.2401  -21.8390  -16.2794 C   0  0  0  0  0  0  0  0  0  0  0  0
   27.7436  -21.8776  -16.2991 C   0  0  2  0  0  0  0  0  0  0  0  0
   27.3215  -21.3570  -17.6406 N   0  0  0  0  0  0  0  0  0  0  0  0
   27.0788  -20.9855  -15.3400 C   0  0  0  0  0  0  0  0  0  0  0  0
   26.9175  -19.7690  -15.6491 O   0  0  0  0  0  0  0  0  0  0  0  0
   23.3463  -19.9252  -13.0794 C   0  0  0  0  0  0  0  0  0  0  0  0
   24.4469  -20.4255  -14.0023 C   0  0  1  0  0  0  0  0  0  0  0  0
   24.5561  -19.6872  -15.1566 O   0  0  0  0  0  0  0  0  0  0  0  0
   25.7572  -20.5479  -13.2486 C   0  0  2  0  0  0  0  0  0  0  0  0
   26.6058  -21.4140  -14.0946 N   0  0  0  0  0  0  0  0  0  0  0  0
   25.6144  -21.1967  -11.9501 C   0  0  0  0  0  0  0  0  0  0  0  0
   25.1398  -22.3594  -11.8508 O   0  0  0  0  0  0  0  0  0  0  0  0
   27.5373  -18.8459   -7.0486 C   0  0  0  0  0  0  0  0  0  0  0  0
   26.4988  -19.2494   -8.0774 C   0  0  0  0  0  0  0  0  0  0  0  0
   26.6767  -20.7212   -8.3525 C   0  0  2  0  0  0  0  0  0  0  0  0
   28.0908  -20.9313   -8.8435 C   0  0  0  0  0  0  0  0  0  0  0  0
   25.7487  -21.2209   -9.4317 C   0  0  2  0  0  0  0  0  0  0  0  0
   25.9848  -20.6011  -10.7054 N   0  0  0  0  0  0  0  0  0  0  0  0
   24.3655  -20.9179   -9.0067 C   0  0  0  0  0  0  0  0  0  0  0  0
   23.5537  -19.9753   -9.6223 O   0  0  0  0  0  0  0  0  0  0  0  0
   23.8836  -21.5424   -8.0327 O   0  0  0  0  0  0  0  0  0  0  0  0
  1  2  1  0
  2  3  2  0
  4  2  1  0
  5  4  1  0
  5  7  1  0
  5  6  1  6
  7  8  2  0
 10  9  1  1
 10 11  1  0
 12 10  1  0
 13  7  1  0
 12 13  1  6
 14 12  1  0
 14 15  2  0
 16 17  1  0
 17 18  1  0
 18 19  1  6
 18 20  1  0
 20 21  1  6
 21 14  1  0
 22 23  1  0
 22 20  1  0
 24 22  2  0
M  END
$$$$
