NTI.pdb
     RDKit          3D

 24 23  0  0  1  0  0  0  0  0999 V2000
   16.6425  -14.0303  -14.5611 N   0  0  0  0  0  0  0  0  0  0  0  0
   17.7783  -13.7453  -15.4281 C   0  0  0  0  0  0  0  0  0  0  0  0
   18.5247  -14.7174  -15.6423 O   0  0  0  0  0  0  0  0  0  0  0  0
   17.9856  -12.4256  -15.9751 C   0  0  0  0  0  0  0  0  0  0  0  0
   16.9112  -11.4245  -15.6836 C   0  0  2  0  0  0  0  0  0  0  0  0
   15.7613  -11.7585  -16.5864 N   0  0  0  0  0  0  0  0  0  0  0  0
   17.2408  -10.0327  -16.0184 C   0  0  0  0  0  0  0  0  0  0  0  0
   16.7706   -9.5334  -17.0818 O   0  0  0  0  0  0  0  0  0  0  0  0
   17.0887   -5.6267  -15.0848 C   0  0  0  0  0  0  0  0  0  0  0  0
   16.9200   -7.1309  -15.2337 C   0  0  1  0  0  0  0  0  0  0  0  0
   15.9452   -7.4744  -16.1399 O   0  0  0  0  0  0  0  0  0  0  0  0
   18.2560   -7.7894  -15.5194 C   0  0  2  0  0  0  0  0  0  0  0  0
   18.0496   -9.2214  -15.2147 N   0  0  0  0  0  0  0  0  0  0  0  0
   19.3311   -7.3027  -14.6622 C   0  0  0  0  0  0  0  0  0  0  0  0
   19.2645   -7.4090  -13.4087 O   0  0  0  0  0  0  0  0  0  0  0  0
   24.4557   -7.2237  -16.7726 C   0  0  0  0  0  0  0  0  0  0  0  0
   23.1676   -6.5725  -16.3075 C   0  0  0  0  0  0  0  0  0  0  0  0
   22.9473   -6.9715  -14.8702 C   0  0  2  0  0  0  0  0  0  0  0  0
   22.8402   -8.4785  -14.8209 C   0  0  0  0  0  0  0  0  0  0  0  0
   21.6641   -6.4124  -14.3081 C   0  0  2  0  0  0  0  0  0  0  0  0
   20.5244   -6.6791  -15.1402 N   0  0  0  0  0  0  0  0  0  0  0  0
   21.8300   -4.9483  -14.1875 C   0  0  0  0  0  0  0  0  0  0  0  0
   21.1187   -4.0224  -14.9382 O   0  0  0  0  0  0  0  0  0  0  0  0
   22.6600   -4.5017  -13.3613 O   0  0  0  0  0  0  0  0  0  0  0  0
  1  2  1  0
  2  3  2  0
  4  2  1  0
  5  4  1  0
  5  7  1  0
  5  6  1  6
  7  8  2  0
 10  9  1  6
 10 11  1  0
 12 10  1  0
 13  7  1  0
 12 13  1  1
 14 12  1  0
 14 15  2  0
 16 17  1  0
 17 18  1  0
 18 19  1  6
 18 20  1  0
 20 21  1  6
 21 14  1  0
 22 23  1  0
 22 20  1  0
 24 22  2  0
M  END
$$$$
