NTI.pdb
     RDKit          3D

 24 23  0  0  1  0  0  0  0  0999 V2000
   28.8995  -24.5757  -17.4072 N   0  0  0  0  0  0  0  0  0  0  0  0
   29.9239  -23.5881  -17.0936 C   0  0  0  0  0  0  0  0  0  0  0  0
   31.0825  -23.9291  -17.3921 O   0  0  0  0  0  0  0  0  0  0  0  0
   29.5800  -22.3253  -16.4845 C   0  0  0  0  0  0  0  0  0  0  0  0
   28.1266  -22.1197  -16.1899 C   0  0  2  0  0  0  0  0  0  0  0  0
   27.5013  -21.6195  -17.4579 N   0  0  0  0  0  0  0  0  0  0  0  0
   27.8268  -21.0742  -15.2025 C   0  0  0  0  0  0  0  0  0  0  0  0
   28.1516  -19.8790  -15.4620 O   0  0  0  0  0  0  0  0  0  0  0  0
   26.3550  -18.7445  -15.0400 C   0  0  0  0  0  0  0  0  0  0  0  0
   25.7209  -19.4681  -13.8620 C   0  0  1  0  0  0  0  0  0  0  0  0
   24.6452  -20.2433  -14.2244 O   0  0  0  0  0  0  0  0  0  0  0  0
   26.7712  -20.2358  -13.0824 C   0  0  2  0  0  0  0  0  0  0  0  0
   27.1912  -21.3310  -13.9825 N   0  0  0  0  0  0  0  0  0  0  0  0
   26.2524  -20.8389  -11.8600 C   0  0  0  0  0  0  0  0  0  0  0  0
   26.0182  -22.0748  -11.7910 O   0  0  0  0  0  0  0  0  0  0  0  0
   27.7841  -18.8973   -7.1073 C   0  0  0  0  0  0  0  0  0  0  0  0
   27.4099  -20.0546   -8.0132 C   0  0  0  0  0  0  0  0  0  0  0  0
   25.9153  -20.0167   -8.2084 C   0  0  2  0  0  0  0  0  0  0  0  0
   25.2788  -20.7299   -7.0374 C   0  0  0  0  0  0  0  0  0  0  0  0
   25.4804  -20.7356   -9.4611 C   0  0  2  0  0  0  0  0  0  0  0  0
   25.9678  -20.1155  -10.6613 N   0  0  0  0  0  0  0  0  0  0  0  0
   24.0023  -20.7272   -9.4904 C   0  0  0  0  0  0  0  0  0  0  0  0
   23.2065  -21.5719   -8.7289 O   0  0  0  0  0  0  0  0  0  0  0  0
   23.4188  -19.9134  -10.2441 O   0  0  0  0  0  0  0  0  0  0  0  0
  1  2  1  0
  2  3  2  0
  4  2  1  0
  5  4  1  0
  5  7  1  0
  5  6  1  6
  7  8  2  0
 10  9  1  6
 10 11  1  0
 12 10  1  0
 13  7  1  0
 12 13  1  6
 14 12  1  0
 14 15  2  0
 16 17  1  0
 17 18  1  0
 18 19  1  1
 18 20  1  0
 20 21  1  6
 21 14  1  0
 22 23  1  0
 22 20  1  0
 24 22  2  0
M  END
$$$$
