NTI.pdb
     RDKit          3D

 24 23  0  0  1  0  0  0  0  0999 V2000
   14.4032  -14.1628  -17.0683 N   0  0  0  0  0  0  0  0  0  0  0  0
   14.8098  -13.4705  -15.8525 C   0  0  0  0  0  0  0  0  0  0  0  0
   13.9460  -13.4423  -14.9574 O   0  0  0  0  0  0  0  0  0  0  0  0
   16.1208  -12.8774  -15.7355 C   0  0  0  0  0  0  0  0  0  0  0  0
   17.0232  -13.0561  -16.9166 C   0  0  2  0  0  0  0  0  0  0  0  0
   17.6737  -14.3978  -16.7568 N   0  0  0  0  0  0  0  0  0  0  0  0
   18.1491  -12.1159  -16.9958 C   0  0  0  0  0  0  0  0  0  0  0  0
   19.2787  -12.4786  -16.5555 O   0  0  0  0  0  0  0  0  0  0  0  0
   19.8546   -7.8188  -18.8204 C   0  0  0  0  0  0  0  0  0  0  0  0
   18.8052   -8.9149  -18.7182 C   0  0  1  0  0  0  0  0  0  0  0  0
   18.4835   -9.4649  -19.9362 O   0  0  0  0  0  0  0  0  0  0  0  0
   19.2165   -9.9497  -17.6885 C   0  0  2  0  0  0  0  0  0  0  0  0
   18.0392  -10.8319  -17.5413 N   0  0  0  0  0  0  0  0  0  0  0  0
   19.5074   -9.3740  -16.3804 C   0  0  0  0  0  0  0  0  0  0  0  0
   18.5812   -9.0414  -15.5937 O   0  0  0  0  0  0  0  0  0  0  0  0
   22.7764  -10.0943  -11.4923 C   0  0  0  0  0  0  0  0  0  0  0  0
   22.1359   -8.9999  -12.3241 C   0  0  0  0  0  0  0  0  0  0  0  0
   21.8468   -9.5734  -13.6883 C   0  0  2  0  0  0  0  0  0  0  0  0
   23.1711   -9.8474  -14.3637 C   0  0  0  0  0  0  0  0  0  0  0  0
   21.0861   -8.6120  -14.5670 C   0  0  2  0  0  0  0  0  0  0  0  0
   20.8236   -9.1377  -15.8774 N   0  0  0  0  0  0  0  0  0  0  0  0
   21.9043   -7.3881  -14.7029 C   0  0  0  0  0  0  0  0  0  0  0  0
   22.5842   -7.0341  -15.8601 O   0  0  0  0  0  0  0  0  0  0  0  0
   21.9990   -6.6142  -13.7217 O   0  0  0  0  0  0  0  0  0  0  0  0
  1  2  1  0
  2  3  2  0
  4  2  1  0
  5  4  1  0
  5  7  1  0
  5  6  1  1
  7  8  2  0
 10  9  1  6
 10 11  1  0
 12 10  1  0
 13  7  1  0
 12 13  1  1
 14 12  1  0
 14 15  2  0
 16 17  1  0
 17 18  1  0
 18 19  1  6
 18 20  1  0
 20 21  1  6
 21 14  1  0
 22 23  1  0
 22 20  1  0
 24 22  2  0
M  END
$$$$
