VWM.pdb
     RDKit          3D

 30 31  0  0  1  0  0  0  0  0999 V2000
   11.3996  -20.7562   18.6786 C   0  0  0  0  0  0  0  0  0  0  0  0
   11.4007  -19.3463   19.2598 C   0  0  1  0  0  0  0  0  0  0  0  0
   10.6704  -18.4296   18.3418 C   0  0  0  0  0  0  0  0  0  0  0  0
   10.8469  -19.4366   20.6395 C   0  0  2  0  0  0  0  0  0  0  0  0
    9.5351  -20.0561   20.6270 N   0  0  0  0  0  0  0  0  0  0  0  0
   10.7589  -18.1427   21.3520 C   0  0  0  0  0  0  0  0  0  0  0  0
   11.7770  -17.4102   21.4837 O   0  0  0  0  0  0  0  0  0  0  0  0
    9.5550  -17.6504   21.9208 N   0  0  0  0  0  0  0  0  0  0  0  0
    9.4468  -16.4360   22.6870 C   0  0  1  0  0  0  0  0  0  0  0  0
    8.0038  -16.1641   23.0264 C   0  0  0  0  0  0  0  0  0  0  0  0
    7.8078  -14.7445   23.4144 C   0  0  0  0  0  0  0  0  0  0  0  0
    8.2295  -13.6048   22.7459 C   0  0  0  0  0  0  0  0  0  0  0  0
    7.8476  -12.5120   23.4341 N   0  0  0  0  0  0  0  0  0  0  0  0
    7.1819  -12.8890   24.5446 C   0  0  0  0  0  0  0  0  0  0  0  0
    6.6128  -12.1165   25.5362 C   0  0  0  0  0  0  0  0  0  0  0  0
    5.9869  -12.7804   26.5680 C   0  0  0  0  0  0  0  0  0  0  0  0
    5.9460  -14.1689   26.5834 C   0  0  0  0  0  0  0  0  0  0  0  0
    6.5288  -14.9187   25.5693 C   0  0  0  0  0  0  0  0  0  0  0  0
    7.1508  -14.2670   24.5435 C   0  0  0  0  0  0  0  0  0  0  0  0
   10.3245  -16.4194   23.8657 C   0  0  0  0  0  0  0  0  0  0  0  0
   11.2804  -15.5850   23.9509 O   0  0  0  0  0  0  0  0  0  0  0  0
   10.1905  -12.7636   28.4779 C   0  0  0  0  0  0  0  0  0  0  0  0
    9.6700  -14.3450   29.1081 S   0  0  0  0  0  0  0  0  0  0  0  0
   10.4614  -15.7097   28.3036 C   0  0  0  0  0  0  0  0  0  0  0  0
   10.0498  -16.0113   26.9079 C   0  0  0  0  0  0  0  0  0  0  0  0
   10.7376  -17.1788   26.2561 C   0  0  2  0  0  0  0  0  0  0  0  0
   10.1349  -17.3247   24.9347 N   0  0  0  0  0  0  0  0  0  0  0  0
   10.3969  -18.4530   26.9702 C   0  0  0  0  0  0  0  0  0  0  0  0
    9.3846  -19.1101   26.6717 O   0  0  0  0  0  0  0  0  0  0  0  0
   11.1896  -18.9533   27.9890 O   0  0  0  0  0  0  0  0  0  0  0  0
  2  1  1  6
  2  3  1  0
  4  2  1  0
  4  5  1  6
  6  7  2  0
  6  4  1  0
  8  6  1  0
  9  8  1  0
 10 11  1  0
  9 10  1  1
 11 12  2  0
 11 19  1  0
 12 13  1  0
 13 14  1  0
 14 15  2  0
 16 15  1  0
 17 16  2  0
 18 19  2  0
 18 17  1  0
 19 14  1  0
 20 21  2  0
 20  9  1  0
 23 22  1  0
 24 25  1  0
 24 23  1  0
 26 25  1  1
 26 27  1  0
 27 20  1  0
 28 26  1  0
 29 28  2  0
 30 28  1  0
M  END
$$$$
