VWM.pdb
     RDKit          3D

 30 31  0  0  1  0  0  0  0  0999 V2000
   11.9822  -19.0410   20.3979 C   0  0  0  0  0  0  0  0  0  0  0  0
   12.2981  -17.9373   19.3940 C   0  0  1  0  0  0  0  0  0  0  0  0
   12.8263  -18.5418   18.1403 C   0  0  0  0  0  0  0  0  0  0  0  0
   11.0636  -17.1196   19.2333 C   0  0  2  0  0  0  0  0  0  0  0  0
   11.2356  -16.1301   18.1863 N   0  0  0  0  0  0  0  0  0  0  0  0
   10.6132  -16.4382   20.4672 C   0  0  0  0  0  0  0  0  0  0  0  0
   11.3014  -15.5141   20.9797 O   0  0  0  0  0  0  0  0  0  0  0  0
    9.4080  -16.7692   21.1404 N   0  0  0  0  0  0  0  0  0  0  0  0
    8.9497  -16.1461   22.3550 C   0  0  1  0  0  0  0  0  0  0  0  0
    7.4450  -16.1928   22.4257 C   0  0  0  0  0  0  0  0  0  0  0  0
    6.9583  -15.6797   23.7312 C   0  0  0  0  0  0  0  0  0  0  0  0
    6.3313  -16.3811   24.7503 C   0  0  0  0  0  0  0  0  0  0  0  0
    6.0513  -15.5435   25.7671 N   0  0  0  0  0  0  0  0  0  0  0  0
    6.4737  -14.3011   25.4564 C   0  0  0  0  0  0  0  0  0  0  0  0
    6.3981  -13.1351   26.1903 C   0  0  0  0  0  0  0  0  0  0  0  0
    6.9187  -11.9967   25.6158 C   0  0  0  0  0  0  0  0  0  0  0  0
    7.4894  -12.0501   24.3503 C   0  0  0  0  0  0  0  0  0  0  0  0
    7.5504  -13.2405   23.6366 C   0  0  0  0  0  0  0  0  0  0  0  0
    7.0362  -14.3726   24.2001 C   0  0  0  0  0  0  0  0  0  0  0  0
    9.5959  -16.6880   23.5586 C   0  0  0  0  0  0  0  0  0  0  0  0
    9.9825  -17.8988   23.5980 O   0  0  0  0  0  0  0  0  0  0  0  0
   10.6037  -12.5873   28.7203 C   0  0  0  0  0  0  0  0  0  0  0  0
   10.8939  -14.1888   29.4412 S   0  0  0  0  0  0  0  0  0  0  0  0
   10.9730  -15.4885   28.2409 C   0  0  0  0  0  0  0  0  0  0  0  0
   10.4213  -15.2049   26.8905 C   0  0  0  0  0  0  0  0  0  0  0  0
   10.5728  -16.3020   25.8735 C   0  0  2  0  0  0  0  0  0  0  0  0
    9.8067  -15.8853   24.7030 N   0  0  0  0  0  0  0  0  0  0  0  0
    9.8919  -17.5522   26.3460 C   0  0  0  0  0  0  0  0  0  0  0  0
    8.6763  -17.7352   26.1606 O   0  0  0  0  0  0  0  0  0  0  0  0
   10.5820  -18.5541   27.0066 O   0  0  0  0  0  0  0  0  0  0  0  0
  2  1  1  1
  2  3  1  0
  4  2  1  0
  4  5  1  6
  6  7  2  0
  6  4  1  0
  8  6  1  0
  9  8  1  0
 10 11  1  0
  9 10  1  1
 11 12  2  0
 11 19  1  0
 12 13  1  0
 13 14  1  0
 14 15  2  0
 16 15  1  0
 17 16  2  0
 18 19  2  0
 18 17  1  0
 19 14  1  0
 20 21  2  0
 20  9  1  0
 23 22  1  0
 24 25  1  0
 24 23  1  0
 26 25  1  1
 26 27  1  0
 27 20  1  0
 28 26  1  0
 29 28  2  0
 30 28  1  0
M  END
$$$$
