VWM.pdb
     RDKit          3D

 30 31  0  0  1  0  0  0  0  0999 V2000
    7.9934  -21.5455   19.9692 C   0  0  0  0  0  0  0  0  0  0  0  0
    8.6439  -20.5022   20.8715 C   0  0  1  0  0  0  0  0  0  0  0  0
   10.0654  -20.8718   21.1144 C   0  0  0  0  0  0  0  0  0  0  0  0
    8.4338  -19.1730   20.2331 C   0  0  2  0  0  0  0  0  0  0  0  0
    9.0764  -19.1201   18.9334 N   0  0  0  0  0  0  0  0  0  0  0  0
    8.8943  -18.0231   21.0425 C   0  0  0  0  0  0  0  0  0  0  0  0
   10.1110  -17.6914   21.0553 O   0  0  0  0  0  0  0  0  0  0  0  0
    8.0218  -17.2356   21.8386 N   0  0  0  0  0  0  0  0  0  0  0  0
    8.4503  -16.2241   22.7696 C   0  0  1  0  0  0  0  0  0  0  0  0
    7.3313  -15.2475   23.0254 C   0  0  0  0  0  0  0  0  0  0  0  0
    7.7900  -14.1269   23.8845 C   0  0  0  0  0  0  0  0  0  0  0  0
    8.8885  -13.2998   23.7040 C   0  0  0  0  0  0  0  0  0  0  0  0
    8.9508  -12.4078   24.7112 N   0  0  0  0  0  0  0  0  0  0  0  0
    7.9241  -12.6155   25.5605 C   0  0  0  0  0  0  0  0  0  0  0  0
    7.5913  -11.9473   26.7210 C   0  0  0  0  0  0  0  0  0  0  0  0
    6.4722  -12.3814   27.3966 C   0  0  0  0  0  0  0  0  0  0  0  0
    5.7299  -13.4486   26.9070 C   0  0  0  0  0  0  0  0  0  0  0  0
    6.0914  -14.1009   25.7348 C   0  0  0  0  0  0  0  0  0  0  0  0
    7.1994  -13.6758   25.0602 C   0  0  0  0  0  0  0  0  0  0  0  0
    9.0157  -16.7826   24.0059 C   0  0  0  0  0  0  0  0  0  0  0  0
    8.3614  -17.6284   24.6941 O   0  0  0  0  0  0  0  0  0  0  0  0
   15.7014  -17.7995   24.5157 C   0  0  0  0  0  0  0  0  0  0  0  0
   15.1409  -17.1130   26.0595 S   0  0  0  0  0  0  0  0  0  0  0  0
   13.4070  -17.3445   26.3356 C   0  0  0  0  0  0  0  0  0  0  0  0
   12.4748  -16.8047   25.3120 C   0  0  0  0  0  0  0  0  0  0  0  0
   11.0124  -17.0564   25.5550 C   0  0  2  0  0  0  0  0  0  0  0  0
   10.2964  -16.3996   24.4657 N   0  0  0  0  0  0  0  0  0  0  0  0
   10.5564  -16.3420   26.7926 C   0  0  0  0  0  0  0  0  0  0  0  0
   10.9243  -16.7079   27.9223 O   0  0  0  0  0  0  0  0  0  0  0  0
    9.7096  -15.2484   26.7339 O   0  0  0  0  0  0  0  0  0  0  0  0
  2  1  1  6
  2  3  1  0
  4  2  1  0
  4  5  1  6
  6  7  2  0
  6  4  1  0
  8  6  1  0
  9  8  1  0
 10 11  1  0
  9 10  1  1
 11 12  2  0
 11 19  1  0
 12 13  1  0
 13 14  1  0
 14 15  2  0
 16 15  1  0
 17 16  2  0
 18 19  2  0
 18 17  1  0
 19 14  1  0
 20 21  2  0
 20  9  1  0
 23 22  1  0
 24 25  1  0
 24 23  1  0
 26 25  1  6
 26 27  1  0
 27 20  1  0
 28 26  1  0
 29 28  2  0
 30 28  1  0
M  END
$$$$
