VWM.pdb
     RDKit          3D

 30 31  0  0  1  0  0  0  0  0999 V2000
    8.4293  -12.1112   19.2581 C   0  0  0  0  0  0  0  0  0  0  0  0
    8.2093  -13.5243   18.7283 C   0  0  1  0  0  0  0  0  0  0  0  0
    8.2298  -13.5060   17.2398 C   0  0  0  0  0  0  0  0  0  0  0  0
    9.2315  -14.3996   19.3665 C   0  0  2  0  0  0  0  0  0  0  0  0
    9.1489  -15.7508   18.8445 N   0  0  0  0  0  0  0  0  0  0  0  0
    9.1601  -14.4514   20.8436 C   0  0  0  0  0  0  0  0  0  0  0  0
    9.4480  -13.4385   21.5375 O   0  0  0  0  0  0  0  0  0  0  0  0
    8.7729  -15.6133   21.5614 N   0  0  0  0  0  0  0  0  0  0  0  0
    8.6334  -15.6841   22.9928 C   0  0  1  0  0  0  0  0  0  0  0  0
    7.2542  -16.1713   23.3558 C   0  0  0  0  0  0  0  0  0  0  0  0
    6.7903  -15.5559   24.6248 C   0  0  0  0  0  0  0  0  0  0  0  0
    6.1903  -16.1753   25.7111 C   0  0  0  0  0  0  0  0  0  0  0  0
    5.9243  -15.2588   26.6614 N   0  0  0  0  0  0  0  0  0  0  0  0
    6.3297  -14.0434   26.2409 C   0  0  0  0  0  0  0  0  0  0  0  0
    6.2595  -12.8216   26.8781 C   0  0  0  0  0  0  0  0  0  0  0  0
    6.7585  -11.7307   26.2012 C   0  0  0  0  0  0  0  0  0  0  0  0
    7.3034  -11.8842   24.9326 C   0  0  0  0  0  0  0  0  0  0  0  0
    7.3597  -13.1288   24.3177 C   0  0  0  0  0  0  0  0  0  0  0  0
    6.8668  -14.2142   24.9831 C   0  0  0  0  0  0  0  0  0  0  0  0
    9.7022  -16.4604   23.6371 C   0  0  0  0  0  0  0  0  0  0  0  0
   10.3169  -17.3722   22.9984 O   0  0  0  0  0  0  0  0  0  0  0  0
   10.2077  -13.9849   29.1930 C   0  0  0  0  0  0  0  0  0  0  0  0
   11.7554  -13.8054   28.3321 S   0  0  0  0  0  0  0  0  0  0  0  0
   11.8677  -14.8178   26.8835 C   0  0  0  0  0  0  0  0  0  0  0  0
   11.3501  -16.2074   26.9802 C   0  0  0  0  0  0  0  0  0  0  0  0
   11.1474  -16.9270   25.6755 C   0  0  2  0  0  0  0  0  0  0  0  0
   10.0779  -16.2194   24.9784 N   0  0  0  0  0  0  0  0  0  0  0  0
   10.5980  -18.3019   25.9154 C   0  0  0  0  0  0  0  0  0  0  0  0
    9.3782  -18.5315   25.8447 O   0  0  0  0  0  0  0  0  0  0  0  0
   11.4194  -19.3725   26.2247 O   0  0  0  0  0  0  0  0  0  0  0  0
  2  1  1  1
  2  3  1  0
  4  2  1  0
  4  5  1  6
  6  7  2  0
  6  4  1  0
  8  6  1  0
  9  8  1  0
 10 11  1  0
  9 10  1  6
 11 12  2  0
 11 19  1  0
 12 13  1  0
 13 14  1  0
 14 15  2  0
 16 15  1  0
 17 16  2  0
 18 19  2  0
 18 17  1  0
 19 14  1  0
 20 21  2  0
 20  9  1  0
 23 22  1  0
 24 25  1  0
 24 23  1  0
 26 25  1  1
 26 27  1  0
 27 20  1  0
 28 26  1  0
 29 28  2  0
 30 28  1  0
M  END
$$$$
