VWM.pdb
     RDKit          3D

 30 31  0  0  1  0  0  0  0  0999 V2000
    7.7679  -13.5098   17.5308 C   0  0  0  0  0  0  0  0  0  0  0  0
    8.1973  -13.4092   18.9907 C   0  0  1  0  0  0  0  0  0  0  0  0
    7.1360  -12.7199   19.7747 C   0  0  0  0  0  0  0  0  0  0  0  0
    8.5316  -14.7864   19.4488 C   0  0  2  0  0  0  0  0  0  0  0  0
    7.4184  -15.6883   19.2202 N   0  0  0  0  0  0  0  0  0  0  0  0
    8.9400  -14.8795   20.8680 C   0  0  0  0  0  0  0  0  0  0  0  0
   10.0757  -14.4754   21.2386 O   0  0  0  0  0  0  0  0  0  0  0  0
    8.1039  -15.4154   21.8824 N   0  0  0  0  0  0  0  0  0  0  0  0
    8.4647  -15.5184   23.2727 C   0  0  1  0  0  0  0  0  0  0  0  0
    7.2281  -15.6833   24.1182 C   0  0  0  0  0  0  0  0  0  0  0  0
    7.4511  -15.1667   25.4921 C   0  0  0  0  0  0  0  0  0  0  0  0
    7.8894  -15.8602   26.6104 C   0  0  0  0  0  0  0  0  0  0  0  0
    7.9587  -15.0215   27.6618 N   0  0  0  0  0  0  0  0  0  0  0  0
    7.5789  -13.7858   27.2778 C   0  0  0  0  0  0  0  0  0  0  0  0
    7.4947  -12.6213   28.0130 C   0  0  0  0  0  0  0  0  0  0  0  0
    7.0699  -11.4903   27.3515 C   0  0  0  0  0  0  0  0  0  0  0  0
    6.7469  -11.5495   26.0017 C   0  0  0  0  0  0  0  0  0  0  0  0
    6.8423  -12.7382   25.2889 C   0  0  0  0  0  0  0  0  0  0  0  0
    7.2627  -13.8629   25.9384 C   0  0  0  0  0  0  0  0  0  0  0  0
    9.4754  -16.5540   23.5294 C   0  0  0  0  0  0  0  0  0  0  0  0
    9.3690  -17.7081   23.0060 O   0  0  0  0  0  0  0  0  0  0  0  0
   16.0009  -15.8633   22.8241 C   0  0  0  0  0  0  0  0  0  0  0  0
   15.7355  -16.3985   24.5009 S   0  0  0  0  0  0  0  0  0  0  0  0
   14.1988  -17.2498   24.7250 C   0  0  0  0  0  0  0  0  0  0  0  0
   12.9531  -16.5042   24.4081 C   0  0  0  0  0  0  0  0  0  0  0  0
   11.6663  -17.2554   24.6109 C   0  0  2  0  0  0  0  0  0  0  0  0
   10.5904  -16.3013   24.3609 N   0  0  0  0  0  0  0  0  0  0  0  0
   11.5050  -17.6388   26.0519 C   0  0  0  0  0  0  0  0  0  0  0  0
   11.9393  -18.7201   26.4853 O   0  0  0  0  0  0  0  0  0  0  0  0
   10.8686  -16.8108   26.9607 O   0  0  0  0  0  0  0  0  0  0  0  0
  2  1  1  6
  2  3  1  0
  4  2  1  0
  4  5  1  1
  6  7  2  0
  6  4  1  0
  8  6  1  0
  9  8  1  0
 10 11  1  0
  9 10  1  1
 11 12  2  0
 11 19  1  0
 12 13  1  0
 13 14  1  0
 14 15  2  0
 16 15  1  0
 17 16  2  0
 18 19  2  0
 18 17  1  0
 19 14  1  0
 20 21  2  0
 20  9  1  0
 23 22  1  0
 24 25  1  0
 24 23  1  0
 26 25  1  1
 26 27  1  0
 27 20  1  0
 28 26  1  0
 29 28  2  0
 30 28  1  0
M  END
$$$$
