VWM.pdb
     RDKit          3D

 30 31  0  0  1  0  0  0  0  0999 V2000
   11.4690  -19.4447   20.3356 C   0  0  0  0  0  0  0  0  0  0  0  0
   11.5792  -18.4515   19.1835 C   0  0  1  0  0  0  0  0  0  0  0  0
   11.8842  -19.1834   17.9236 C   0  0  0  0  0  0  0  0  0  0  0  0
   10.3214  -17.6540   19.1657 C   0  0  2  0  0  0  0  0  0  0  0  0
   10.2707  -16.8007   17.9934 N   0  0  0  0  0  0  0  0  0  0  0  0
   10.1027  -16.8248   20.3717 C   0  0  0  0  0  0  0  0  0  0  0  0
   10.6622  -15.7009   20.4898 O   0  0  0  0  0  0  0  0  0  0  0  0
    9.2704  -17.2269   21.4491 N   0  0  0  0  0  0  0  0  0  0  0  0
    8.9762  -16.4183   22.6037 C   0  0  1  0  0  0  0  0  0  0  0  0
    7.4866  -16.3485   22.8217 C   0  0  0  0  0  0  0  0  0  0  0  0
    7.1689  -15.6885   24.1132 C   0  0  0  0  0  0  0  0  0  0  0  0
    6.6487  -16.2598   25.2649 C   0  0  0  0  0  0  0  0  0  0  0  0
    6.5103  -15.3140   26.2136 N   0  0  0  0  0  0  0  0  0  0  0  0
    6.9237  -14.1257   25.7284 C   0  0  0  0  0  0  0  0  0  0  0  0
    6.9632  -12.8894   26.3399 C   0  0  0  0  0  0  0  0  0  0  0  0
    7.4407  -11.8347   25.5937 C   0  0  0  0  0  0  0  0  0  0  0  0
    7.8576  -12.0367   24.2841 C   0  0  0  0  0  0  0  0  0  0  0  0
    7.8054  -13.2946   23.6966 C   0  0  0  0  0  0  0  0  0  0  0  0
    7.3332  -14.3444   24.4306 C   0  0  0  0  0  0  0  0  0  0  0  0
    9.7107  -16.8411   23.8044 C   0  0  0  0  0  0  0  0  0  0  0  0
    9.4333  -17.9400   24.3810 O   0  0  0  0  0  0  0  0  0  0  0  0
   10.1226  -12.7105   28.9323 C   0  0  0  0  0  0  0  0  0  0  0  0
    9.7691  -14.4416   29.1488 S   0  0  0  0  0  0  0  0  0  0  0  0
   10.6979  -15.4834   28.0587 C   0  0  0  0  0  0  0  0  0  0  0  0
   10.4067  -15.3821   26.6050 C   0  0  0  0  0  0  0  0  0  0  0  0
   11.2809  -16.2047   25.6994 C   0  0  2  0  0  0  0  0  0  0  0  0
   10.7420  -16.0445   24.3524 N   0  0  0  0  0  0  0  0  0  0  0  0
   11.1197  -17.6652   26.0004 C   0  0  0  0  0  0  0  0  0  0  0  0
   10.0071  -18.2172   25.9449 O   0  0  0  0  0  0  0  0  0  0  0  0
   12.1964  -18.4612   26.3518 O   0  0  0  0  0  0  0  0  0  0  0  0
  2  1  1  1
  2  3  1  0
  4  2  1  0
  4  5  1  6
  6  7  2  0
  6  4  1  0
  8  6  1  0
  9  8  1  0
 10 11  1  0
  9 10  1  1
 11 12  2  0
 11 19  1  0
 12 13  1  0
 13 14  1  0
 14 15  2  0
 16 15  1  0
 17 16  2  0
 18 19  2  0
 18 17  1  0
 19 14  1  0
 20 21  2  0
 20  9  1  0
 23 22  1  0
 24 25  1  0
 24 23  1  0
 26 25  1  1
 26 27  1  0
 27 20  1  0
 28 26  1  0
 29 28  2  0
 30 28  1  0
M  END
$$$$
