LFE.pdb
     RDKit          3D

 29 29  0  0  1  0  0  0  0  0999 V2000
    7.5956  -13.8382   17.3424 C   0  0  0  0  0  0  0  0  0  0  0  0
    7.8080  -13.6499   18.8301 C   0  0  2  0  0  0  0  0  0  0  0  0
    7.6553  -12.2023   19.1614 C   0  0  0  0  0  0  0  0  0  0  0  0
    9.1765  -14.2019   19.1555 C   0  0  0  0  0  0  0  0  0  0  0  0
    9.0882  -15.5081   19.9278 C   0  0  2  0  0  0  0  0  0  0  0  0
    7.8584  -16.1969   19.6504 N   0  0  0  0  0  0  0  0  0  0  0  0
    9.2100  -15.1741   21.3610 C   0  0  0  0  0  0  0  0  0  0  0  0
   10.2707  -14.6575   21.7694 O   0  0  0  0  0  0  0  0  0  0  0  0
    8.1678  -15.4214   22.2730 N   0  0  0  0  0  0  0  0  0  0  0  0
    8.3150  -15.0804   23.6462 C   0  0  1  0  0  0  0  0  0  0  0  0
    6.9895  -14.5171   24.1339 C   0  0  0  0  0  0  0  0  0  0  0  0
    7.1344  -13.8173   25.4218 C   0  0  0  0  0  0  0  0  0  0  0  0
    7.7699  -12.5964   25.5173 C   0  0  0  0  0  0  0  0  0  0  0  0
    7.8972  -11.9501   26.7440 C   0  0  0  0  0  0  0  0  0  0  0  0
    7.3920  -12.5183   27.8767 C   0  0  0  0  0  0  0  0  0  0  0  0
    6.7540  -13.7350   27.8072 C   0  0  0  0  0  0  0  0  0  0  0  0
    6.6353  -14.3634   26.5861 C   0  0  0  0  0  0  0  0  0  0  0  0
    8.6119  -16.2665   24.5111 C   0  0  0  0  0  0  0  0  0  0  0  0
    7.9074  -17.3057   24.4528 O   0  0  0  0  0  0  0  0  0  0  0  0
    9.6943  -16.2038   25.3945 N   0  0  0  0  0  0  0  0  0  0  0  0
   10.2115  -17.4072   26.0878 C   0  0  1  0  0  0  0  0  0  0  0  0
   11.5080  -17.8277   25.4707 C   0  0  0  0  0  0  0  0  0  0  0  0
   12.0484  -19.0729   26.0699 C   0  0  0  0  0  0  0  0  0  0  0  0
   13.3158  -19.5114   25.4081 C   0  0  0  0  0  0  0  0  0  0  0  0
   13.8422  -18.9181   24.4481 O   0  0  0  0  0  0  0  0  0  0  0  0
   10.3949  -17.0964   27.5140 C   0  0  0  0  0  0  0  0  0  0  0  0
   10.2076  -15.7684   27.9252 O   0  0  0  0  0  0  0  0  0  0  0  0
   13.9232  -20.6478   25.9094 O   0  0  0  0  0  0  0  0  0  0  0  0
   10.7017  -17.9054   28.3901 O   0  0  0  0  0  0  0  0  0  0  0  0
  2  4  1  0
  2  1  1  6
  3  2  1  0
  5  6  1  1
  5  4  1  0
  7  8  2  0
  7  5  1  0
  9  7  1  0
 10  9  1  0
 10 11  1  1
 12 17  2  0
 12 11  1  0
 13 12  1  0
 14 15  1  0
 14 13  2  0
 15 16  2  0
 16 17  1  0
 18 10  1  0
 18 20  1  0
 19 18  2  0
 21 20  1  0
 21 26  1  0
 21 22  1  6
 23 22  1  0
 24 23  1  0
 24 25  2  0
 26 29  2  0
 26 27  1  0
 28 24  1  0
M  END
$$$$
