LFE.pdb
     RDKit          3D

 29 29  0  0  1  0  0  0  0  0999 V2000
    7.4286  -13.6840   18.3064 C   0  0  0  0  0  0  0  0  0  0  0  0
    7.6476  -13.3412   19.7654 C   0  0  2  0  0  0  0  0  0  0  0  0
    7.7201  -11.8569   19.9081 C   0  0  0  0  0  0  0  0  0  0  0  0
    8.9076  -14.0513   20.2029 C   0  0  0  0  0  0  0  0  0  0  0  0
    8.6084  -15.4244   20.7821 C   0  0  2  0  0  0  0  0  0  0  0  0
    7.2355  -15.7918   20.5729 N   0  0  0  0  0  0  0  0  0  0  0  0
    8.9413  -15.3710   22.2197 C   0  0  0  0  0  0  0  0  0  0  0  0
   10.1040  -15.0646   22.5561 O   0  0  0  0  0  0  0  0  0  0  0  0
    7.9880  -15.6549   23.2144 N   0  0  0  0  0  0  0  0  0  0  0  0
    8.3489  -15.6210   24.5900 C   0  0  1  0  0  0  0  0  0  0  0  0
    7.0818  -15.4027   25.4018 C   0  0  0  0  0  0  0  0  0  0  0  0
    6.9816  -14.0188   25.8960 C   0  0  0  0  0  0  0  0  0  0  0  0
    7.9950  -13.1031   25.7012 C   0  0  0  0  0  0  0  0  0  0  0  0
    7.8819  -11.7990   26.1759 C   0  0  0  0  0  0  0  0  0  0  0  0
    6.7602  -11.4052   26.8449 C   0  0  0  0  0  0  0  0  0  0  0  0
    5.7360  -12.3000   27.0517 C   0  0  0  0  0  0  0  0  0  0  0  0
    5.8616  -13.5877   26.5762 C   0  0  0  0  0  0  0  0  0  0  0  0
    8.9379  -16.9122   25.0685 C   0  0  0  0  0  0  0  0  0  0  0  0
    8.2612  -17.9712   25.0770 O   0  0  0  0  0  0  0  0  0  0  0  0
   10.2647  -16.9262   25.5107 N   0  0  0  0  0  0  0  0  0  0  0  0
   10.9756  -18.1897   25.8179 C   0  0  1  0  0  0  0  0  0  0  0  0
   12.2687  -18.2374   25.0668 C   0  0  0  0  0  0  0  0  0  0  0  0
   13.1010  -17.0285   25.2852 C   0  0  0  0  0  0  0  0  0  0  0  0
   14.3435  -17.0433   24.4530 C   0  0  0  0  0  0  0  0  0  0  0  0
   15.1804  -16.1214   24.4336 O   0  0  0  0  0  0  0  0  0  0  0  0
   11.2171  -18.2629   27.2673 C   0  0  0  0  0  0  0  0  0  0  0  0
   11.7405  -19.4567   27.7855 O   0  0  0  0  0  0  0  0  0  0  0  0
   14.5556  -18.1589   23.6643 O   0  0  0  0  0  0  0  0  0  0  0  0
   10.9989  -17.3610   28.0767 O   0  0  0  0  0  0  0  0  0  0  0  0
  2  4  1  0
  2  1  1  6
  3  2  1  0
  5  6  1  1
  5  4  1  0
  7  8  2  0
  7  5  1  0
  9  7  1  0
 10  9  1  0
 10 11  1  1
 12 17  2  0
 12 11  1  0
 13 12  1  0
 14 15  1  0
 14 13  2  0
 15 16  2  0
 16 17  1  0
 18 10  1  0
 18 20  1  0
 19 18  2  0
 21 20  1  0
 21 26  1  0
 21 22  1  6
 23 22  1  0
 24 23  1  0
 24 25  2  0
 26 29  2  0
 26 27  1  0
 28 24  1  0
M  END
$$$$
