LFE.pdb
     RDKit          3D

 29 29  0  0  1  0  0  0  0  0999 V2000
    9.0568  -14.6734   17.3509 C   0  0  0  0  0  0  0  0  0  0  0  0
    7.9072  -14.0066   18.0773 C   0  0  2  0  0  0  0  0  0  0  0  0
    7.5183  -12.7704   17.3362 C   0  0  0  0  0  0  0  0  0  0  0  0
    8.3706  -13.7415   19.4910 C   0  0  0  0  0  0  0  0  0  0  0  0
    8.6867  -15.0308   20.2315 C   0  0  2  0  0  0  0  0  0  0  0  0
    7.6331  -15.9947   20.0753 N   0  0  0  0  0  0  0  0  0  0  0  0
    8.8909  -14.6774   21.6505 C   0  0  0  0  0  0  0  0  0  0  0  0
    9.7673  -13.8366   21.9402 O   0  0  0  0  0  0  0  0  0  0  0  0
    8.1281  -15.2601   22.6789 N   0  0  0  0  0  0  0  0  0  0  0  0
    8.3199  -14.8649   24.0319 C   0  0  1  0  0  0  0  0  0  0  0  0
    6.9499  -14.6986   24.6703 C   0  0  0  0  0  0  0  0  0  0  0  0
    7.0284  -13.9749   25.9508 C   0  0  0  0  0  0  0  0  0  0  0  0
    6.6592  -12.6500   26.0599 C   0  0  0  0  0  0  0  0  0  0  0  0
    6.7405  -11.9827   27.2793 C   0  0  0  0  0  0  0  0  0  0  0  0
    7.1894  -12.6334   28.3910 C   0  0  0  0  0  0  0  0  0  0  0  0
    7.5634  -13.9546   28.3076 C   0  0  0  0  0  0  0  0  0  0  0  0
    7.4776  -14.6026   27.0941 C   0  0  0  0  0  0  0  0  0  0  0  0
    9.0394  -15.8982   24.8429 C   0  0  0  0  0  0  0  0  0  0  0  0
    8.5090  -17.0085   25.0984 O   0  0  0  0  0  0  0  0  0  0  0  0
   10.3229  -15.6101   25.3180 N   0  0  0  0  0  0  0  0  0  0  0  0
   11.1969  -16.6560   25.8997 C   0  0  1  0  0  0  0  0  0  0  0  0
   12.6132  -16.4233   25.4774 C   0  0  0  0  0  0  0  0  0  0  0  0
   12.7795  -16.4388   24.0030 C   0  0  0  0  0  0  0  0  0  0  0  0
   14.2093  -16.2738   23.5966 C   0  0  0  0  0  0  0  0  0  0  0  0
   15.1445  -16.0876   24.3975 O   0  0  0  0  0  0  0  0  0  0  0  0
   11.0816  -16.6153   27.3658 C   0  0  0  0  0  0  0  0  0  0  0  0
   11.6569  -17.6642   28.0983 O   0  0  0  0  0  0  0  0  0  0  0  0
   14.4867  -16.3353   22.2436 O   0  0  0  0  0  0  0  0  0  0  0  0
   10.5194  -15.7339   28.0163 O   0  0  0  0  0  0  0  0  0  0  0  0
  2  4  1  0
  2  1  1  6
  3  2  1  0
  5  6  1  1
  5  4  1  0
  7  8  2  0
  7  5  1  0
  9  7  1  0
 10  9  1  0
 10 11  1  1
 12 17  2  0
 12 11  1  0
 13 12  1  0
 14 15  1  0
 14 13  2  0
 15 16  2  0
 16 17  1  0
 18 10  1  0
 18 20  1  0
 19 18  2  0
 21 20  1  0
 21 26  1  0
 21 22  1  1
 23 22  1  0
 24 23  1  0
 24 25  2  0
 26 29  2  0
 26 27  1  0
 28 24  1  0
M  END
$$$$
