LFE.pdb
     RDKit          3D

 29 29  0  0  1  0  0  0  0  0999 V2000
    7.9344  -14.1523   17.5900 C   0  0  0  0  0  0  0  0  0  0  0  0
    8.0588  -13.6238   19.0039 C   0  0  2  0  0  0  0  0  0  0  0  0
    8.0524  -12.1314   18.9650 C   0  0  0  0  0  0  0  0  0  0  0  0
    9.3263  -14.2065   19.5847 C   0  0  0  0  0  0  0  0  0  0  0  0
    9.0584  -15.4985   20.3391 C   0  0  2  0  0  0  0  0  0  0  0  0
    7.7596  -16.0265   20.0262 N   0  0  0  0  0  0  0  0  0  0  0  0
    9.1869  -15.1953   21.7785 C   0  0  0  0  0  0  0  0  0  0  0  0
   10.3058  -14.8686   22.2261 O   0  0  0  0  0  0  0  0  0  0  0  0
    8.0877  -15.2647   22.6537 N   0  0  0  0  0  0  0  0  0  0  0  0
    8.2381  -14.9307   24.0283 C   0  0  1  0  0  0  0  0  0  0  0  0
    6.9606  -14.2449   24.4865 C   0  0  0  0  0  0  0  0  0  0  0  0
    7.1168  -13.6321   25.8167 C   0  0  0  0  0  0  0  0  0  0  0  0
    8.3081  -13.6949   26.5097 C   0  0  0  0  0  0  0  0  0  0  0  0
    8.4364  -13.1094   27.7665 C   0  0  0  0  0  0  0  0  0  0  0  0
    7.3793  -12.4609   28.3346 C   0  0  0  0  0  0  0  0  0  0  0  0
    6.1809  -12.3848   27.6633 C   0  0  0  0  0  0  0  0  0  0  0  0
    6.0683  -12.9690   26.4199 C   0  0  0  0  0  0  0  0  0  0  0  0
    8.4069  -16.1341   24.9038 C   0  0  0  0  0  0  0  0  0  0  0  0
    7.4461  -16.9117   25.1315 O   0  0  0  0  0  0  0  0  0  0  0  0
    9.6601  -16.3855   25.4715 N   0  0  0  0  0  0  0  0  0  0  0  0
   10.0083  -17.7045   26.0506 C   0  0  1  0  0  0  0  0  0  0  0  0
   10.9626  -18.4176   25.1454 C   0  0  0  0  0  0  0  0  0  0  0  0
   12.2379  -17.6808   24.9653 C   0  0  0  0  0  0  0  0  0  0  0  0
   13.1274  -18.3345   23.9563 C   0  0  0  0  0  0  0  0  0  0  0  0
   12.8312  -19.3716   23.3340 O   0  0  0  0  0  0  0  0  0  0  0  0
   10.6094  -17.5011   27.3779 C   0  0  0  0  0  0  0  0  0  0  0  0
   10.8500  -16.1832   27.7939 O   0  0  0  0  0  0  0  0  0  0  0  0
   14.3489  -17.7332   23.7156 O   0  0  0  0  0  0  0  0  0  0  0  0
   10.9244  -18.3929   28.1663 O   0  0  0  0  0  0  0  0  0  0  0  0
  2  4  1  0
  2  1  1  6
  3  2  1  0
  5  6  1  1
  5  4  1  0
  7  8  2  0
  7  5  1  0
  9  7  1  0
 10  9  1  0
 10 11  1  1
 12 17  2  0
 12 11  1  0
 13 12  1  0
 14 15  1  0
 14 13  2  0
 15 16  2  0
 16 17  1  0
 18 10  1  0
 18 20  1  0
 19 18  2  0
 21 20  1  0
 21 26  1  0
 21 22  1  6
 23 22  1  0
 24 23  1  0
 24 25  2  0
 26 29  2  0
 26 27  1  0
 28 24  1  0
M  END
$$$$
