LFE.pdb
     RDKit          3D

 29 29  0  0  1  0  0  0  0  0999 V2000
    8.8232  -14.1209   18.3004 C   0  0  0  0  0  0  0  0  0  0  0  0
    7.9111  -13.3204   19.2068 C   0  0  2  0  0  0  0  0  0  0  0  0
    7.8534  -11.9124   18.7140 C   0  0  0  0  0  0  0  0  0  0  0  0
    8.4589  -13.4465   20.6095 C   0  0  0  0  0  0  0  0  0  0  0  0
    8.4927  -14.8935   21.0733 C   0  0  2  0  0  0  0  0  0  0  0  0
    7.2103  -15.5220   20.9181 N   0  0  0  0  0  0  0  0  0  0  0  0
    8.9246  -14.8867   22.4853 C   0  0  0  0  0  0  0  0  0  0  0  0
   10.0081  -14.3404   22.7796 O   0  0  0  0  0  0  0  0  0  0  0  0
    8.1515  -15.4765   23.5019 N   0  0  0  0  0  0  0  0  0  0  0  0
    8.5964  -15.4514   24.8529 C   0  0  1  0  0  0  0  0  0  0  0  0
    7.3693  -15.4041   25.7497 C   0  0  0  0  0  0  0  0  0  0  0  0
    7.0251  -14.0238   26.1316 C   0  0  0  0  0  0  0  0  0  0  0  0
    7.9957  -13.0880   26.4244 C   0  0  0  0  0  0  0  0  0  0  0  0
    7.6506  -11.7877   26.7836 C   0  0  0  0  0  0  0  0  0  0  0  0
    6.3393  -11.4178   26.8516 C   0  0  0  0  0  0  0  0  0  0  0  0
    5.3533  -12.3329   26.5642 C   0  0  0  0  0  0  0  0  0  0  0  0
    5.7095  -13.6165   26.2100 C   0  0  0  0  0  0  0  0  0  0  0  0
    9.3523  -16.6854   25.2390 C   0  0  0  0  0  0  0  0  0  0  0  0
    8.7847  -17.8056   25.2899 O   0  0  0  0  0  0  0  0  0  0  0  0
   10.7125  -16.5757   25.5456 N   0  0  0  0  0  0  0  0  0  0  0  0
   11.5182  -17.7460   25.9668 C   0  0  1  0  0  0  0  0  0  0  0  0
   12.9539  -17.5268   25.6069 C   0  0  0  0  0  0  0  0  0  0  0  0
   13.1265  -17.0467   24.2136 C   0  0  0  0  0  0  0  0  0  0  0  0
   14.5666  -16.8517   23.8604 C   0  0  0  0  0  0  0  0  0  0  0  0
   15.4825  -17.6140   24.2223 O   0  0  0  0  0  0  0  0  0  0  0  0
   11.3721  -17.9303   27.4190 C   0  0  0  0  0  0  0  0  0  0  0  0
   11.9484  -19.0713   27.9967 O   0  0  0  0  0  0  0  0  0  0  0  0
   14.8773  -15.7511   23.0835 O   0  0  0  0  0  0  0  0  0  0  0  0
   10.7828  -17.1651   28.1829 O   0  0  0  0  0  0  0  0  0  0  0  0
  2  4  1  0
  2  1  1  6
  3  2  1  0
  5  6  1  1
  5  4  1  0
  7  8  2  0
  7  5  1  0
  9  7  1  0
 10  9  1  0
 10 11  1  1
 12 17  2  0
 12 11  1  0
 13 12  1  0
 14 15  1  0
 14 13  2  0
 15 16  2  0
 16 17  1  0
 18 10  1  0
 18 20  1  0
 19 18  2  0
 21 20  1  0
 21 26  1  0
 21 22  1  1
 23 22  1  0
 24 23  1  0
 24 25  2  0
 26 29  2  0
 26 27  1  0
 28 24  1  0
M  END
$$$$
