IRP.pdb
     RDKit          3D

 27 27  0  0  1  0  0  0  0  0999 V2000
    8.4776  -12.5687   27.5209 C   0  0  0  0  0  0  0  0  0  0  0  0
    7.8319  -13.8464   27.0270 C   0  0  0  0  0  0  0  0  0  0  0  0
    6.6155  -13.5405   26.1606 C   0  0  2  0  0  0  0  0  0  0  0  0
    5.6173  -12.8405   27.0645 C   0  0  0  0  0  0  0  0  0  0  0  0
    6.0834  -14.8784   25.6878 C   0  0  2  0  0  0  0  0  0  0  0  0
    6.2500  -15.8002   26.7691 N   0  0  0  0  0  0  0  0  0  0  0  0
    6.7872  -15.3465   24.4682 C   0  0  0  0  0  0  0  0  0  0  0  0
    7.2000  -16.5476   24.3906 O   0  0  0  0  0  0  0  0  0  0  0  0
    7.1733  -14.9070   17.0830 N   0  0  0  0  0  0  0  0  0  0  0  0
    8.4873  -14.4156   16.8495 C   0  0  0  0  0  0  0  0  0  0  0  0
    9.2134  -14.8772   15.8903 N   0  0  0  0  0  0  0  0  0  0  0  0
    9.0538  -13.4011   17.6585 N   0  0  0  0  0  0  0  0  0  0  0  0
    8.3133  -12.8855   18.8316 C   0  0  0  0  0  0  0  0  0  0  0  0
    8.2955  -13.9651   19.9086 C   0  0  0  0  0  0  0  0  0  0  0  0
    7.5492  -13.6152   21.1323 C   0  0  0  0  0  0  0  0  0  0  0  0
    7.6597  -14.7301   22.1764 C   0  0  2  0  0  0  0  0  0  0  0  0
    6.9948  -14.4485   23.3960 N   0  0  0  0  0  0  0  0  0  0  0  0
    9.0088  -15.2991   22.1938 C   0  0  0  0  0  0  0  0  0  0  0  0
    9.9163  -14.4403   22.5833 O   0  0  0  0  0  0  0  0  0  0  0  0
   10.1522  -14.4716   15.7176 N   0  0  0  0  0  0  0  0  0  0  0  0
    9.4800  -16.5653   21.8765 C   0  0  0  0  0  0  0  0  0  0  0  0
    8.6515  -17.7822   21.7222 C   0  0  0  0  0  0  0  0  0  0  0  0
    9.1691  -18.2937   20.3660 C   0  0  0  0  0  0  0  0  0  0  0  0
   10.5237  -17.6078   20.1611 C   0  0  2  0  0  0  0  0  0  0  0  0
   10.7753  -17.1233   21.6005 C   0  0  0  0  0  0  0  0  0  0  0  0
   11.9794  -16.3856   21.7507 O   0  0  0  0  0  0  0  0  0  0  0  0
   12.3270  -15.3776   21.1371 O   0  0  0  0  0  0  0  0  0  0  0  0
  1  2  1  0
  3  2  1  0
  3  4  1  1
  5  6  1  1
  5  3  1  0
  7  5  1  0
  8  7  2  0
  9 10  1  0
 10 12  1  0
 11 10  2  0
 12 13  1  0
 13 14  1  0
 15 14  1  0
 16 15  1  6
 16 17  1  0
 17  7  1  0
 18 16  1  0
 19 18  2  0
 20 18  1  0
 21 20  1  0
 22 23  1  0
 22 21  1  0
 23 24  1  0
 24 20  1  0
 25 27  1  0
 24 25  1  6
 26 25  2  0
M  END
$$$$
