IRP.pdb
     RDKit          3D

 27 27  0  0  1  0  0  0  0  0999 V2000
    7.9997  -12.1427   19.7310 C   0  0  0  0  0  0  0  0  0  0  0  0
    7.4467  -13.4759   20.1894 C   0  0  0  0  0  0  0  0  0  0  0  0
    8.5605  -14.5074   20.3275 C   0  0  2  0  0  0  0  0  0  0  0  0
    9.1571  -14.6741   18.9420 C   0  0  0  0  0  0  0  0  0  0  0  0
    7.8985  -15.7871   20.7974 C   0  0  2  0  0  0  0  0  0  0  0  0
    6.8867  -16.1105   19.8391 N   0  0  0  0  0  0  0  0  0  0  0  0
    7.3238  -15.6379   22.1573 C   0  0  0  0  0  0  0  0  0  0  0  0
    6.1310  -15.2199   22.3040 O   0  0  0  0  0  0  0  0  0  0  0  0
    6.0864  -22.4851   24.8159 N   0  0  0  0  0  0  0  0  0  0  0  0
    5.5314  -21.7123   23.7590 C   0  0  0  0  0  0  0  0  0  0  0  0
    4.8594  -22.2645   22.8082 N   0  0  0  0  0  0  0  0  0  0  0  0
    5.6927  -20.3067   23.7048 N   0  0  0  0  0  0  0  0  0  0  0  0
    6.4963  -19.6104   24.7342 C   0  0  0  0  0  0  0  0  0  0  0  0
    6.5927  -18.1350   24.3602 C   0  0  0  0  0  0  0  0  0  0  0  0
    7.4461  -17.3201   25.2459 C   0  0  0  0  0  0  0  0  0  0  0  0
    7.6960  -15.9358   24.6405 C   0  0  2  0  0  0  0  0  0  0  0  0
    8.1112  -15.9632   23.2857 N   0  0  0  0  0  0  0  0  0  0  0  0
    8.3783  -15.0616   25.5967 C   0  0  0  0  0  0  0  0  0  0  0  0
    9.5404  -15.5313   25.9732 O   0  0  0  0  0  0  0  0  0  0  0  0
    4.5765  -21.6995   21.9858 N   0  0  0  0  0  0  0  0  0  0  0  0
    8.0132  -13.8464   26.1589 C   0  0  0  0  0  0  0  0  0  0  0  0
    7.1298  -12.8360   25.5348 C   0  0  0  0  0  0  0  0  0  0  0  0
    6.1496  -12.5787   26.6932 C   0  0  0  0  0  0  0  0  0  0  0  0
    6.8638  -13.0823   27.9516 C   0  0  2  0  0  0  0  0  0  0  0  0
    8.2976  -13.1793   27.3996 C   0  0  0  0  0  0  0  0  0  0  0  0
    9.2381  -13.6736   28.3418 O   0  0  0  0  0  0  0  0  0  0  0  0
   10.1619  -13.0618   28.8763 O   0  0  0  0  0  0  0  0  0  0  0  0
  1  2  1  0
  3  2  1  0
  3  4  1  6
  5  6  1  6
  5  3  1  0
  7  5  1  0
  8  7  2  0
  9 10  1  0
 10 12  1  0
 11 10  2  0
 12 13  1  0
 13 14  1  0
 15 14  1  0
 16 15  1  1
 16 17  1  0
 17  7  1  0
 18 16  1  0
 19 18  2  0
 20 18  1  0
 21 20  1  0
 22 23  1  0
 22 21  1  0
 23 24  1  0
 24 20  1  0
 25 27  1  0
 24 25  1  1
 26 25  2  0
M  END
$$$$
