IRP.pdb
     RDKit          3D

 27 27  0  0  1  0  0  0  0  0999 V2000
    7.9832  -11.3768   19.5254 C   0  0  0  0  0  0  0  0  0  0  0  0
    7.6391  -12.8483   19.6230 C   0  0  0  0  0  0  0  0  0  0  0  0
    8.8413  -13.6569   20.0969 C   0  0  2  0  0  0  0  0  0  0  0  0
    9.9014  -13.5094   19.0209 C   0  0  0  0  0  0  0  0  0  0  0  0
    8.3699  -15.0928   20.2095 C   0  0  2  0  0  0  0  0  0  0  0  0
    7.5639  -15.3595   19.0580 N   0  0  0  0  0  0  0  0  0  0  0  0
    7.6099  -15.3219   21.4632 C   0  0  0  0  0  0  0  0  0  0  0  0
    6.3721  -15.0332   21.5214 O   0  0  0  0  0  0  0  0  0  0  0  0
    9.1240  -19.2396   27.7799 N   0  0  0  0  0  0  0  0  0  0  0  0
    7.8097  -19.4552   28.2784 C   0  0  0  0  0  0  0  0  0  0  0  0
    7.6089  -19.8312   29.4944 N   0  0  0  0  0  0  0  0  0  0  0  0
    6.6676  -19.2669   27.4630 N   0  0  0  0  0  0  0  0  0  0  0  0
    6.8069  -19.2074   25.9908 C   0  0  0  0  0  0  0  0  0  0  0  0
    7.0799  -17.7626   25.5861 C   0  0  0  0  0  0  0  0  0  0  0  0
    7.3853  -17.5608   24.1568 C   0  0  0  0  0  0  0  0  0  0  0  0
    7.7079  -16.0915   23.8698 C   0  0  2  0  0  0  0  0  0  0  0  0
    8.2717  -15.8623   22.5899 N   0  0  0  0  0  0  0  0  0  0  0  0
    8.2835  -15.4419   25.0491 C   0  0  0  0  0  0  0  0  0  0  0  0
    9.2043  -16.1687   25.6295 O   0  0  0  0  0  0  0  0  0  0  0  0
    6.6384  -19.9532   29.8392 N   0  0  0  0  0  0  0  0  0  0  0  0
    8.0271  -14.2143   25.6434 C   0  0  0  0  0  0  0  0  0  0  0  0
    7.3352  -13.0725   25.0045 C   0  0  0  0  0  0  0  0  0  0  0  0
    6.2989  -12.7388   26.0925 C   0  0  0  0  0  0  0  0  0  0  0  0
    6.8327  -13.3833   27.3758 C   0  0  2  0  0  0  0  0  0  0  0  0
    8.2851  -13.6424   26.9363 C   0  0  0  0  0  0  0  0  0  0  0  0
    9.0711  -14.2937   27.9236 O   0  0  0  0  0  0  0  0  0  0  0  0
    9.1686  -15.5020   28.1326 O   0  0  0  0  0  0  0  0  0  0  0  0
  1  2  1  0
  3  2  1  0
  3  4  1  6
  5  6  1  6
  5  3  1  0
  7  5  1  0
  8  7  2  0
  9 10  1  0
 10 12  1  0
 11 10  2  0
 12 13  1  0
 13 14  1  0
 15 14  1  0
 16 15  1  1
 16 17  1  0
 17  7  1  0
 18 16  1  0
 19 18  2  0
 20 18  1  0
 21 20  1  0
 22 23  1  0
 22 21  1  0
 23 24  1  0
 24 20  1  0
 25 27  1  0
 24 25  1  1
 26 25  2  0
M  END
$$$$
