IRP.pdb
     RDKit          3D

 27 27  0  0  1  0  0  0  0  0999 V2000
    8.0727  -12.6309   18.2878 C   0  0  0  0  0  0  0  0  0  0  0  0
    8.2040  -14.0117   18.8955 C   0  0  0  0  0  0  0  0  0  0  0  0
    7.5907  -14.0518   20.2905 C   0  0  2  0  0  0  0  0  0  0  0  0
    8.3770  -13.0592   21.1271 C   0  0  0  0  0  0  0  0  0  0  0  0
    7.7797  -15.4675   20.7972 C   0  0  2  0  0  0  0  0  0  0  0  0
    7.0759  -16.3303   19.8989 N   0  0  0  0  0  0  0  0  0  0  0  0
    7.2862  -15.6207   22.1882 C   0  0  0  0  0  0  0  0  0  0  0  0
    6.0956  -15.2834   22.4840 O   0  0  0  0  0  0  0  0  0  0  0  0
    5.2146  -21.9375   25.8211 N   0  0  0  0  0  0  0  0  0  0  0  0
    5.2997  -21.6245   24.4364 C   0  0  0  0  0  0  0  0  0  0  0  0
    4.5969  -22.2594   23.5627 N   0  0  0  0  0  0  0  0  0  0  0  0
    6.1579  -20.6048   23.9585 N   0  0  0  0  0  0  0  0  0  0  0  0
    6.9821  -19.8219   24.9063 C   0  0  0  0  0  0  0  0  0  0  0  0
    6.9577  -18.3584   24.4781 C   0  0  0  0  0  0  0  0  0  0  0  0
    7.8452  -17.4667   25.2489 C   0  0  0  0  0  0  0  0  0  0  0  0
    7.9505  -16.0921   24.5819 C   0  0  2  0  0  0  0  0  0  0  0  0
    8.1485  -16.1432   23.1795 N   0  0  0  0  0  0  0  0  0  0  0  0
    8.7450  -15.1731   25.3994 C   0  0  0  0  0  0  0  0  0  0  0  0
    9.9773  -15.5806   25.5679 O   0  0  0  0  0  0  0  0  0  0  0  0
    4.6155  -21.9552   22.5714 N   0  0  0  0  0  0  0  0  0  0  0  0
    8.4234  -13.9699   26.0117 C   0  0  0  0  0  0  0  0  0  0  0  0
    7.7143  -12.8380   25.3739 C   0  0  0  0  0  0  0  0  0  0  0  0
    6.6282  -12.5673   26.4303 C   0  0  0  0  0  0  0  0  0  0  0  0
    7.1382  -13.2233   27.7174 C   0  0  2  0  0  0  0  0  0  0  0  0
    8.6139  -13.4206   27.3259 C   0  0  0  0  0  0  0  0  0  0  0  0
    9.3867  -14.0675   28.3264 O   0  0  0  0  0  0  0  0  0  0  0  0
    9.6892  -15.2581   28.3925 O   0  0  0  0  0  0  0  0  0  0  0  0
  1  2  1  0
  3  2  1  0
  3  4  1  1
  5  6  1  6
  5  3  1  0
  7  5  1  0
  8  7  2  0
  9 10  1  0
 10 12  1  0
 11 10  2  0
 12 13  1  0
 13 14  1  0
 15 14  1  0
 16 15  1  1
 16 17  1  0
 17  7  1  0
 18 16  1  0
 19 18  2  0
 20 18  1  0
 21 20  1  0
 22 23  1  0
 22 21  1  0
 23 24  1  0
 24 20  1  0
 25 27  1  0
 24 25  1  1
 26 25  2  0
M  END
$$$$
