GVD.pdb
     RDKit          3D

 20 19  0  0  1  0  0  0  0  0999 V2000
   26.7679  -26.0678  -16.0308 N   0  0  0  0  0  0  0  0  0  0  0  0
   26.4562  -24.9474  -16.8707 C   0  0  0  0  0  0  0  0  0  0  0  0
   26.0693  -23.7963  -16.0294 C   0  0  0  0  0  0  0  0  0  0  0  0
   25.9717  -23.9704  -14.7926 O   0  0  0  0  0  0  0  0  0  0  0  0
   26.1100  -19.0989  -14.8778 C   0  0  0  0  0  0  0  0  0  0  0  0
   26.4732  -20.2301  -15.8312 C   0  0  1  0  0  0  0  0  0  0  0  0
   27.9262  -20.5971  -15.7465 C   0  0  0  0  0  0  0  0  0  0  0  0
   25.5528  -21.4115  -15.6574 C   0  0  2  0  0  0  0  0  0  0  0  0
   25.7983  -22.4981  -16.5247 N   0  0  0  0  0  0  0  0  0  0  0  0
   24.1506  -20.9591  -15.7787 C   0  0  0  0  0  0  0  0  0  0  0  0
   23.7154  -20.6147  -16.8952 O   0  0  0  0  0  0  0  0  0  0  0  0
   23.3026  -20.9131  -14.6488 N   0  0  0  0  0  0  0  0  0  0  0  0
   21.9319  -20.4725  -14.6852 C   0  0  1  0  0  0  0  0  0  0  0  0
   21.0939  -21.0007  -13.5460 C   0  0  0  0  0  0  0  0  0  0  0  0
   20.6814  -22.4040  -13.7085 C   0  0  0  0  0  0  0  0  0  0  0  0
   20.9649  -23.0131  -14.7626 O   0  0  0  0  0  0  0  0  0  0  0  0
   21.8036  -19.0074  -14.7557 C   0  0  0  0  0  0  0  0  0  0  0  0
   20.9633  -18.4709  -15.7179 O   0  0  0  0  0  0  0  0  0  0  0  0
   19.9848  -23.0606  -12.7136 O   0  0  0  0  0  0  0  0  0  0  0  0
   22.4423  -18.2711  -13.9613 O   0  0  0  0  0  0  0  0  0  0  0  0
  2  1  1  0
  3  2  1  0
  4  3  2  0
  6  8  1  0
  6  5  1  1
  7  6  1  0
  8  9  1  6
  9  3  1  0
 10  8  1  0
 10 12  1  0
 11 10  2  0
 13 17  1  0
 13 12  1  0
 13 14  1  1
 15 14  1  0
 15 19  1  0
 16 15  2  0
 17 18  1  0
 20 17  2  0
M  END
$$$$
