GVD.pdb
     RDKit          3D

 20 19  0  0  1  0  0  0  0  0999 V2000
   17.5920  -12.1865  -15.9597 N   0  0  0  0  0  0  0  0  0  0  0  0
   18.4185  -11.2573  -16.6749 C   0  0  0  0  0  0  0  0  0  0  0  0
   19.2656  -10.5167  -15.7176 C   0  0  0  0  0  0  0  0  0  0  0  0
   18.8079  -10.2851  -14.5746 O   0  0  0  0  0  0  0  0  0  0  0  0
   22.7322  -11.2574  -14.3161 C   0  0  0  0  0  0  0  0  0  0  0  0
   22.7258   -9.8219  -14.8255 C   0  0  1  0  0  0  0  0  0  0  0  0
   23.6106   -9.6430  -16.0248 C   0  0  0  0  0  0  0  0  0  0  0  0
   21.3201   -9.3241  -15.0472 C   0  0  2  0  0  0  0  0  0  0  0  0
   20.5699  -10.0451  -16.0014 N   0  0  0  0  0  0  0  0  0  0  0  0
   21.3608   -7.8886  -15.3982 C   0  0  0  0  0  0  0  0  0  0  0  0
   21.1147   -7.5402  -16.5699 O   0  0  0  0  0  0  0  0  0  0  0  0
   21.6741   -6.9122  -14.4254 N   0  0  0  0  0  0  0  0  0  0  0  0
   21.5598   -5.4926  -14.6400 C   0  0  1  0  0  0  0  0  0  0  0  0
   20.1597   -5.0402  -14.9771 C   0  0  0  0  0  0  0  0  0  0  0  0
   20.0261   -3.5840  -15.1432 C   0  0  0  0  0  0  0  0  0  0  0  0
   20.7116   -2.9954  -16.0070 O   0  0  0  0  0  0  0  0  0  0  0  0
   22.0777   -4.7002  -13.5122 C   0  0  0  0  0  0  0  0  0  0  0  0
   22.3153   -5.3502  -12.3119 O   0  0  0  0  0  0  0  0  0  0  0  0
   19.1543   -2.8554  -14.3588 O   0  0  0  0  0  0  0  0  0  0  0  0
   22.2954   -3.4687  -13.6433 O   0  0  0  0  0  0  0  0  0  0  0  0
  2  1  1  0
  3  2  1  0
  4  3  2  0
  6  8  1  0
  6  5  1  6
  7  6  1  0
  8  9  1  6
  9  3  1  0
 10  8  1  0
 10 12  1  0
 11 10  2  0
 13 17  1  0
 13 12  1  0
 13 14  1  1
 15 14  1  0
 15 19  1  0
 16 15  2  0
 17 18  1  0
 20 17  2  0
M  END
$$$$
