GVD.pdb
     RDKit          3D

 20 19  0  0  1  0  0  0  0  0999 V2000
   23.8656  -13.9734  -19.3106 N   0  0  0  0  0  0  0  0  0  0  0  0
   23.7450  -12.5524  -19.4653 C   0  0  0  0  0  0  0  0  0  0  0  0
   23.0193  -11.9927  -18.3065 C   0  0  0  0  0  0  0  0  0  0  0  0
   21.8934  -12.4651  -18.0258 O   0  0  0  0  0  0  0  0  0  0  0  0
   22.5286   -9.9378  -13.9651 C   0  0  0  0  0  0  0  0  0  0  0  0
   23.3816  -10.5881  -15.0468 C   0  0  1  0  0  0  0  0  0  0  0  0
   23.7334  -12.0085  -14.7125 C   0  0  0  0  0  0  0  0  0  0  0  0
   22.7503  -10.4388  -16.4077 C   0  0  2  0  0  0  0  0  0  0  0  0
   23.5091  -10.9510  -17.4824 N   0  0  0  0  0  0  0  0  0  0  0  0
   22.4203   -9.0163  -16.6387 C   0  0  0  0  0  0  0  0  0  0  0  0
   23.3368   -8.2126  -16.9011 O   0  0  0  0  0  0  0  0  0  0  0  0
   21.0845   -8.5601  -16.5658 N   0  0  0  0  0  0  0  0  0  0  0  0
   20.6856   -7.1923  -16.7764 C   0  0  1  0  0  0  0  0  0  0  0  0
   19.2750   -7.0439  -17.2928 C   0  0  0  0  0  0  0  0  0  0  0  0
   19.0248   -7.7513  -18.5589 C   0  0  0  0  0  0  0  0  0  0  0  0
   18.0693   -8.5531  -18.6401 O   0  0  0  0  0  0  0  0  0  0  0  0
   20.8650   -6.3535  -15.5797 C   0  0  0  0  0  0  0  0  0  0  0  0
   21.2521   -5.0352  -15.7582 O   0  0  0  0  0  0  0  0  0  0  0  0
   19.8299   -7.5435  -19.6612 O   0  0  0  0  0  0  0  0  0  0  0  0
   20.6703   -6.8280  -14.4316 O   0  0  0  0  0  0  0  0  0  0  0  0
  2  1  1  0
  3  2  1  0
  4  3  2  0
  6  8  1  0
  6  5  1  1
  7  6  1  0
  8  9  1  6
  9  3  1  0
 10  8  1  0
 10 12  1  0
 11 10  2  0
 13 17  1  0
 13 12  1  0
 13 14  1  1
 15 14  1  0
 15 19  1  0
 16 15  2  0
 17 18  1  0
 20 17  2  0
M  END
$$$$
