GVD.pdb
     RDKit          3D

 20 19  0  0  1  0  0  0  0  0999 V2000
   18.4504  -14.5956  -17.6214 N   0  0  0  0  0  0  0  0  0  0  0  0
   18.9089  -13.2934  -18.0114 C   0  0  0  0  0  0  0  0  0  0  0  0
   19.6823  -12.6940  -16.9046 C   0  0  0  0  0  0  0  0  0  0  0  0
   19.2662  -12.8540  -15.7338 O   0  0  0  0  0  0  0  0  0  0  0  0
   23.5077  -10.7366  -14.6338 C   0  0  0  0  0  0  0  0  0  0  0  0
   22.9285  -11.5779  -15.7639 C   0  0  1  0  0  0  0  0  0  0  0  0
   23.1873  -13.0435  -15.5684 C   0  0  0  0  0  0  0  0  0  0  0  0
   21.4732  -11.2592  -15.9955 C   0  0  2  0  0  0  0  0  0  0  0  0
   20.8714  -11.9443  -17.0732 N   0  0  0  0  0  0  0  0  0  0  0  0
   21.3138   -9.7983  -16.1572 C   0  0  0  0  0  0  0  0  0  0  0  0
   21.7862   -9.2416  -17.1680 O   0  0  0  0  0  0  0  0  0  0  0  0
   20.6354   -9.0302  -15.1838 N   0  0  0  0  0  0  0  0  0  0  0  0
   20.4464   -7.6048  -15.2676 C   0  0  1  0  0  0  0  0  0  0  0  0
   19.0012   -7.1777  -15.1793 C   0  0  0  0  0  0  0  0  0  0  0  0
   18.1273   -7.8177  -16.1756 C   0  0  0  0  0  0  0  0  0  0  0  0
   18.4463   -7.7928  -17.3840 O   0  0  0  0  0  0  0  0  0  0  0  0
   21.2429   -6.8629  -14.2761 C   0  0  0  0  0  0  0  0  0  0  0  0
   21.3373   -5.4872  -14.4114 O   0  0  0  0  0  0  0  0  0  0  0  0
   16.9579   -8.4466  -15.7970 O   0  0  0  0  0  0  0  0  0  0  0  0
   21.8180   -7.4684  -13.3361 O   0  0  0  0  0  0  0  0  0  0  0  0
  2  1  1  0
  3  2  1  0
  4  3  2  0
  6  8  1  0
  6  5  1  1
  7  6  1  0
  8  9  1  6
  9  3  1  0
 10  8  1  0
 10 12  1  0
 11 10  2  0
 13 17  1  0
 13 12  1  0
 13 14  1  1
 15 14  1  0
 15 19  1  0
 16 15  2  0
 17 18  1  0
 20 17  2  0
M  END
$$$$
