GVD.pdb
     RDKit          3D

 20 19  0  0  1  0  0  0  0  0999 V2000
   20.2491  -13.4306  -16.3021 N   0  0  0  0  0  0  0  0  0  0  0  0
   19.0960  -12.5972  -16.1187 C   0  0  0  0  0  0  0  0  0  0  0  0
   19.3558  -11.2651  -16.7023 C   0  0  0  0  0  0  0  0  0  0  0  0
   20.4376  -11.0819  -17.3070 O   0  0  0  0  0  0  0  0  0  0  0  0
   18.0157   -7.0462  -18.7156 C   0  0  0  0  0  0  0  0  0  0  0  0
   17.7413   -8.4760  -18.2674 C   0  0  1  0  0  0  0  0  0  0  0  0
   17.6081   -9.4175  -19.4289 C   0  0  0  0  0  0  0  0  0  0  0  0
   18.7510   -8.9346  -17.2460 C   0  0  2  0  0  0  0  0  0  0  0  0
   18.4618  -10.1699  -16.6268 N   0  0  0  0  0  0  0  0  0  0  0  0
   18.9319   -7.8761  -16.2299 C   0  0  0  0  0  0  0  0  0  0  0  0
   18.0114   -7.6430  -15.4218 O   0  0  0  0  0  0  0  0  0  0  0  0
   20.1305   -7.1298  -16.1649 N   0  0  0  0  0  0  0  0  0  0  0  0
   20.3672   -6.0622  -15.2275 C   0  0  1  0  0  0  0  0  0  0  0  0
   21.7167   -6.1331  -14.5547 C   0  0  0  0  0  0  0  0  0  0  0  0
   21.9586   -5.0522  -13.5857 C   0  0  0  0  0  0  0  0  0  0  0  0
   21.0451   -4.2393  -13.3263 O   0  0  0  0  0  0  0  0  0  0  0  0
   20.1800   -4.7279  -15.8211 C   0  0  0  0  0  0  0  0  0  0  0  0
   19.3398   -3.8368  -15.1732 O   0  0  0  0  0  0  0  0  0  0  0  0
   23.1806   -4.9206  -12.9568 O   0  0  0  0  0  0  0  0  0  0  0  0
   20.7698   -4.4139  -16.8864 O   0  0  0  0  0  0  0  0  0  0  0  0
  2  1  1  0
  3  2  1  0
  4  3  2  0
  6  8  1  0
  6  5  1  6
  7  6  1  0
  8  9  1  1
  9  3  1  0
 10  8  1  0
 10 12  1  0
 11 10  2  0
 13 17  1  0
 13 12  1  0
 13 14  1  6
 15 14  1  0
 15 19  1  0
 16 15  2  0
 17 18  1  0
 20 17  2  0
M  END
$$$$
