GVD.pdb
     RDKit          3D

 20 19  0  0  1  0  0  0  0  0999 V2000
   18.0441  -12.5981  -17.3622 N   0  0  0  0  0  0  0  0  0  0  0  0
   18.5672  -11.3115  -17.7214 C   0  0  0  0  0  0  0  0  0  0  0  0
   19.3085  -10.7461  -16.5754 C   0  0  0  0  0  0  0  0  0  0  0  0
   18.7492  -10.7317  -15.4545 O   0  0  0  0  0  0  0  0  0  0  0  0
   23.2374   -9.4662  -14.0206 C   0  0  0  0  0  0  0  0  0  0  0  0
   22.5807  -10.2340  -15.1606 C   0  0  1  0  0  0  0  0  0  0  0  0
   22.5058  -11.7070  -14.8816 C   0  0  0  0  0  0  0  0  0  0  0  0
   21.2487   -9.6331  -15.5318 C   0  0  2  0  0  0  0  0  0  0  0  0
   20.6182  -10.2141  -16.6533 N   0  0  0  0  0  0  0  0  0  0  0  0
   21.4080   -8.1760  -15.7247 C   0  0  0  0  0  0  0  0  0  0  0  0
   21.9303   -7.7535  -16.7752 O   0  0  0  0  0  0  0  0  0  0  0  0
   20.9769   -7.2617  -14.7367 N   0  0  0  0  0  0  0  0  0  0  0  0
   21.1577   -5.8354  -14.8224 C   0  0  1  0  0  0  0  0  0  0  0  0
   19.8734   -5.0727  -15.0404 C   0  0  0  0  0  0  0  0  0  0  0  0
   20.0600   -3.6214  -15.1980 C   0  0  0  0  0  0  0  0  0  0  0  0
   20.4757   -3.1665  -16.2856 O   0  0  0  0  0  0  0  0  0  0  0  0
   21.8726   -5.2787  -13.6617 C   0  0  0  0  0  0  0  0  0  0  0  0
   22.6071   -4.1179  -13.8424 O   0  0  0  0  0  0  0  0  0  0  0  0
   19.7827   -2.7517  -14.1622 O   0  0  0  0  0  0  0  0  0  0  0  0
   21.8128   -5.8470  -12.5417 O   0  0  0  0  0  0  0  0  0  0  0  0
  2  1  1  0
  3  2  1  0
  4  3  2  0
  6  8  1  0
  6  5  1  1
  7  6  1  0
  8  9  1  6
  9  3  1  0
 10  8  1  0
 10 12  1  0
 11 10  2  0
 13 17  1  0
 13 12  1  0
 13 14  1  1
 15 14  1  0
 15 19  1  0
 16 15  2  0
 17 18  1  0
 20 17  2  0
M  END
$$$$
