GVD.pdb
     RDKit          3D

 20 19  0  0  1  0  0  0  0  0999 V2000
   16.4688  -11.9308  -15.6533 N   0  0  0  0  0  0  0  0  0  0  0  0
   16.9383  -10.7744  -16.3605 C   0  0  0  0  0  0  0  0  0  0  0  0
   17.9883  -10.1057  -15.5650 C   0  0  0  0  0  0  0  0  0  0  0  0
   17.8096   -9.9798  -14.3314 O   0  0  0  0  0  0  0  0  0  0  0  0
   21.5229  -11.0903  -14.8505 C   0  0  0  0  0  0  0  0  0  0  0  0
   21.5469   -9.6579  -15.3682 C   0  0  1  0  0  0  0  0  0  0  0  0
   22.1527   -9.5613  -16.7382 C   0  0  0  0  0  0  0  0  0  0  0  0
   20.1850   -9.0178  -15.2763 C   0  0  2  0  0  0  0  0  0  0  0  0
   19.1936   -9.5919  -16.1012 N   0  0  0  0  0  0  0  0  0  0  0  0
   20.3078   -7.5694  -15.5461 C   0  0  0  0  0  0  0  0  0  0  0  0
   20.2635   -7.1627  -16.7240 O   0  0  0  0  0  0  0  0  0  0  0  0
   20.4740   -6.6459  -14.4891 N   0  0  0  0  0  0  0  0  0  0  0  0
   20.7008   -5.2360  -14.6768 C   0  0  1  0  0  0  0  0  0  0  0  0
   19.6232   -4.3630  -14.0808 C   0  0  0  0  0  0  0  0  0  0  0  0
   19.8524   -2.9210  -14.2655 C   0  0  0  0  0  0  0  0  0  0  0  0
   19.6288   -2.3976  -15.3784 O   0  0  0  0  0  0  0  0  0  0  0  0
   22.0188   -4.7986  -14.1871 C   0  0  0  0  0  0  0  0  0  0  0  0
   22.6574   -5.5837  -13.2408 O   0  0  0  0  0  0  0  0  0  0  0  0
   20.3114   -2.1348  -13.2275 O   0  0  0  0  0  0  0  0  0  0  0  0
   22.5429   -3.7412  -14.6210 O   0  0  0  0  0  0  0  0  0  0  0  0
  2  1  1  0
  3  2  1  0
  4  3  2  0
  6  8  1  0
  6  5  1  6
  7  6  1  0
  8  9  1  6
  9  3  1  0
 10  8  1  0
 10 12  1  0
 11 10  2  0
 13 17  1  0
 13 12  1  0
 13 14  1  1
 15 14  1  0
 15 19  1  0
 16 15  2  0
 17 18  1  0
 20 17  2  0
M  END
$$$$
