GVD.pdb
     RDKit          3D

 20 19  0  0  1  0  0  0  0  0999 V2000
   27.3384  -19.0877   -6.5852 N   0  0  0  0  0  0  0  0  0  0  0  0
   26.7073  -20.2557   -7.1289 C   0  0  0  0  0  0  0  0  0  0  0  0
   26.4476  -20.0477   -8.5683 C   0  0  0  0  0  0  0  0  0  0  0  0
   26.7354  -18.9363   -9.0696 O   0  0  0  0  0  0  0  0  0  0  0  0
   26.8426  -21.5352  -13.0626 C   0  0  0  0  0  0  0  0  0  0  0  0
   26.8285  -21.8222  -11.5667 C   0  0  1  0  0  0  0  0  0  0  0  0
   28.2124  -21.8762  -10.9877 C   0  0  0  0  0  0  0  0  0  0  0  0
   25.9166  -20.8713  -10.8337 C   0  0  2  0  0  0  0  0  0  0  0  0
   25.8914  -21.0233   -9.4303 N   0  0  0  0  0  0  0  0  0  0  0  0
   24.5512  -20.9786  -11.3904 C   0  0  0  0  0  0  0  0  0  0  0  0
   23.7564  -21.8054  -10.9011 O   0  0  0  0  0  0  0  0  0  0  0  0
   24.1394  -20.1585  -12.4654 N   0  0  0  0  0  0  0  0  0  0  0  0
   22.8315  -20.2111  -13.0662 C   0  0  1  0  0  0  0  0  0  0  0  0
   22.6145  -19.1727  -14.1402 C   0  0  0  0  0  0  0  0  0  0  0  0
   21.2718  -18.5703  -14.1262 C   0  0  0  0  0  0  0  0  0  0  0  0
   20.4318  -18.9530  -13.2832 O   0  0  0  0  0  0  0  0  0  0  0  0
   22.4971  -21.5448  -13.5929 C   0  0  0  0  0  0  0  0  0  0  0  0
   21.2630  -22.0846  -13.2684 O   0  0  0  0  0  0  0  0  0  0  0  0
   20.9236  -17.5871  -15.0307 O   0  0  0  0  0  0  0  0  0  0  0  0
   23.3143  -22.1694  -14.3162 O   0  0  0  0  0  0  0  0  0  0  0  0
  2  1  1  0
  3  2  1  0
  4  3  2  0
  6  8  1  0
  6  5  1  6
  7  6  1  0
  8  9  1  1
  9  3  1  0
 10  8  1  0
 10 12  1  0
 11 10  2  0
 13 17  1  0
 13 12  1  0
 13 14  1  6
 15 14  1  0
 15 19  1  0
 16 15  2  0
 17 18  1  0
 20 17  2  0
M  END
$$$$
