WYV.pdb
     RDKit          3D

 34 36  0  0  1  0  0  0  0  0999 V2000
    7.7603  -19.0392   26.4106 N   0  0  0  0  0  0  0  0  0  0  0  0
    6.7625  -18.1639   25.8164 C   0  0  1  0  0  0  0  0  0  0  0  0
    6.7226  -16.8577   26.6046 C   0  0  0  0  0  0  0  0  0  0  0  0
    7.9197  -16.6313   27.4138 C   0  0  0  0  0  0  0  0  0  0  0  0
    8.5925  -17.5234   28.2281 C   0  0  0  0  0  0  0  0  0  0  0  0
    9.6302  -16.8857   28.7786 N   0  0  0  0  0  0  0  0  0  0  0  0
    9.6851  -15.6104   28.3727 C   0  0  0  0  0  0  0  0  0  0  0  0
   10.5702  -14.5871   28.6725 C   0  0  0  0  0  0  0  0  0  0  0  0
   10.3661  -13.3475   28.0841 C   0  0  0  0  0  0  0  0  0  0  0  0
    9.3152  -13.1585   27.2341 C   0  0  0  0  0  0  0  0  0  0  0  0
    8.4343  -14.1876   26.9395 C   0  0  0  0  0  0  0  0  0  0  0  0
    8.6192  -15.4304   27.5148 C   0  0  0  0  0  0  0  0  0  0  0  0
    7.2495  -17.7590   24.4493 C   0  0  0  0  0  0  0  0  0  0  0  0
    7.7510  -18.6150   23.6716 O   0  0  0  0  0  0  0  0  0  0  0  0
    8.3161  -12.5583   17.3277 O   0  0  0  0  0  0  0  0  0  0  0  0
    7.9902  -13.0741   18.5895 C   0  0  0  0  0  0  0  0  0  0  0  0
    8.4069  -12.4187   19.7239 C   0  0  0  0  0  0  0  0  0  0  0  0
    8.1053  -12.8956   20.9965 C   0  0  0  0  0  0  0  0  0  0  0  0
    7.3709  -14.0522   21.1142 C   0  0  0  0  0  0  0  0  0  0  0  0
    7.0432  -14.5905   22.4525 C   0  0  0  0  0  0  0  0  0  0  0  0
    7.6586  -15.9130   22.7629 C   0  0  2  0  0  0  0  0  0  0  0  0
    7.1582  -16.4189   24.0026 N   0  0  0  0  0  0  0  0  0  0  0  0
    9.0938  -16.0201   22.5272 C   0  0  0  0  0  0  0  0  0  0  0  0
    9.5133  -16.0564   21.3445 O   0  0  0  0  0  0  0  0  0  0  0  0
    6.9305  -14.7450   19.9738 C   0  0  0  0  0  0  0  0  0  0  0  0
    7.2529  -14.2362   18.7376 C   0  0  0  0  0  0  0  0  0  0  0  0
   12.2060  -16.2318   25.5886 C   0  0  0  0  0  0  0  0  0  0  0  0
   12.2974  -15.5044   24.2745 C   0  0  1  0  0  0  0  0  0  0  0  0
   13.7394  -15.5296   23.8442 C   0  0  0  0  0  0  0  0  0  0  0  0
   11.4513  -16.1336   23.2265 C   0  0  2  0  0  0  0  0  0  0  0  0
   10.0450  -16.0908   23.5713 N   0  0  0  0  0  0  0  0  0  0  0  0
   11.8769  -17.5210   22.8530 C   0  0  0  0  0  0  0  0  0  0  0  0
   12.2652  -18.4368   23.8345 O   0  0  0  0  0  0  0  0  0  0  0  0
   11.9129  -17.9408   21.6769 O   0  0  0  0  0  0  0  0  0  0  0  0
  2  1  1  1
  3  4  1  0
  3  2  1  0
  4  5  2  0
  6  5  1  0
  7  6  1  0
  8  7  2  0
  9  8  1  0
 10  9  2  0
 10 11  1  0
 11 12  2  0
 12  7  1  0
 12  4  1  0
 13 14  2  0
 13  2  1  0
 15 16  1  0
 16 17  2  0
 17 18  1  0
 19 20  1  0
 19 18  2  0
 21 20  1  1
 21 22  1  0
 22 13  1  0
 23 21  1  0
 24 23  2  0
 25 19  1  0
 26 25  2  0
 26 16  1  0
 28 27  1  1
 28 30  1  0
 28 29  1  0
 30 31  1  1
 31 23  1  0
 32 33  1  0
 32 30  1  0
 34 32  2  0
M  END
$$$$
