WYV.pdb
     RDKit          3D

 34 36  0  0  1  0  0  0  0  0999 V2000
    6.9938  -17.7025   25.7008 N   0  0  0  0  0  0  0  0  0  0  0  0
    7.1110  -16.4079   25.0489 C   0  0  1  0  0  0  0  0  0  0  0  0
    8.5072  -15.8503   25.3108 C   0  0  0  0  0  0  0  0  0  0  0  0
    8.5640  -14.9417   26.4556 C   0  0  0  0  0  0  0  0  0  0  0  0
    9.1573  -15.1424   27.6881 C   0  0  0  0  0  0  0  0  0  0  0  0
    8.9612  -14.0477   28.4294 N   0  0  0  0  0  0  0  0  0  0  0  0
    8.2658  -13.1237   27.7533 C   0  0  0  0  0  0  0  0  0  0  0  0
    7.8349  -11.8553   28.1079 C   0  0  0  0  0  0  0  0  0  0  0  0
    7.1212  -11.1182   27.1741 C   0  0  0  0  0  0  0  0  0  0  0  0
    6.8591  -11.6447   25.9427 C   0  0  0  0  0  0  0  0  0  0  0  0
    7.2938  -12.9147   25.5960 C   0  0  0  0  0  0  0  0  0  0  0  0
    8.0064  -13.6659   26.5110 C   0  0  0  0  0  0  0  0  0  0  0  0
    7.0719  -16.6287   23.5590 C   0  0  0  0  0  0  0  0  0  0  0  0
    7.2193  -17.7861   23.0818 O   0  0  0  0  0  0  0  0  0  0  0  0
    8.5070  -13.5351   15.2955 O   0  0  0  0  0  0  0  0  0  0  0  0
    8.1571  -13.6697   16.6460 C   0  0  0  0  0  0  0  0  0  0  0  0
    7.5041  -14.8017   17.0730 C   0  0  0  0  0  0  0  0  0  0  0  0
    7.1384  -14.9766   18.4048 C   0  0  0  0  0  0  0  0  0  0  0  0
    7.4418  -13.9878   19.3109 C   0  0  0  0  0  0  0  0  0  0  0  0
    7.0570  -14.1390   20.7312 C   0  0  0  0  0  0  0  0  0  0  0  0
    7.3874  -15.4636   21.3314 C   0  0  2  0  0  0  0  0  0  0  0  0
    6.8696  -15.5537   22.6606 N   0  0  0  0  0  0  0  0  0  0  0  0
    8.7463  -15.9440   21.1089 C   0  0  0  0  0  0  0  0  0  0  0  0
    8.9153  -17.0133   20.4732 O   0  0  0  0  0  0  0  0  0  0  0  0
    8.1084  -12.8192   18.9055 C   0  0  0  0  0  0  0  0  0  0  0  0
    8.4494  -12.6905   17.5796 C   0  0  0  0  0  0  0  0  0  0  0  0
   11.1906  -13.7454   19.7803 C   0  0  0  0  0  0  0  0  0  0  0  0
   12.0285  -14.7328   20.5467 C   0  0  1  0  0  0  0  0  0  0  0  0
   12.8029  -13.9607   21.5807 C   0  0  0  0  0  0  0  0  0  0  0  0
   11.1996  -15.7708   21.2142 C   0  0  2  0  0  0  0  0  0  0  0  0
    9.8930  -15.2640   21.5807 N   0  0  0  0  0  0  0  0  0  0  0  0
   11.8727  -16.4304   22.3792 C   0  0  0  0  0  0  0  0  0  0  0  0
   13.0649  -17.1388   22.2072 O   0  0  0  0  0  0  0  0  0  0  0  0
   11.4289  -16.3938   23.5465 O   0  0  0  0  0  0  0  0  0  0  0  0
  2  1  1  1
  3  4  1  0
  3  2  1  0
  4  5  2  0
  6  5  1  0
  7  6  1  0
  8  7  2  0
  9  8  1  0
 10  9  2  0
 10 11  1  0
 11 12  2  0
 12  7  1  0
 12  4  1  0
 13 14  2  0
 13  2  1  0
 15 16  1  0
 16 17  2  0
 17 18  1  0
 19 20  1  0
 19 18  2  0
 21 20  1  1
 21 22  1  0
 22 13  1  0
 23 21  1  0
 24 23  2  0
 25 19  1  0
 26 25  2  0
 26 16  1  0
 28 27  1  1
 28 30  1  0
 28 29  1  0
 30 31  1  1
 31 23  1  0
 32 33  1  0
 32 30  1  0
 34 32  2  0
M  END
$$$$
