WYV.pdb
     RDKit          3D

 34 36  0  0  1  0  0  0  0  0999 V2000
    5.8457  -18.1301   23.8476 N   0  0  0  0  0  0  0  0  0  0  0  0
    6.4634  -16.8219   23.9959 C   0  0  1  0  0  0  0  0  0  0  0  0
    6.5540  -16.4866   25.4819 C   0  0  0  0  0  0  0  0  0  0  0  0
    5.8995  -15.2267   25.8336 C   0  0  0  0  0  0  0  0  0  0  0  0
    4.5631  -14.9934   26.1001 C   0  0  0  0  0  0  0  0  0  0  0  0
    4.4121  -13.6935   26.3722 N   0  0  0  0  0  0  0  0  0  0  0  0
    5.5822  -13.0453   26.3011 C   0  0  0  0  0  0  0  0  0  0  0  0
    5.9094  -11.7136   26.5013 C   0  0  0  0  0  0  0  0  0  0  0  0
    7.2353  -11.3330   26.3548 C   0  0  0  0  0  0  0  0  0  0  0  0
    8.1802  -12.2597   26.0216 C   0  0  0  0  0  0  0  0  0  0  0  0
    7.8443  -13.5900   25.8230 C   0  0  0  0  0  0  0  0  0  0  0  0
    6.5293  -13.9906   25.9638 C   0  0  0  0  0  0  0  0  0  0  0  0
    7.8987  -16.9288   23.5503 C   0  0  0  0  0  0  0  0  0  0  0  0
    8.4442  -18.0579   23.4219 O   0  0  0  0  0  0  0  0  0  0  0  0
    7.5413  -14.1058   17.4171 O   0  0  0  0  0  0  0  0  0  0  0  0
    8.2604  -14.2065   18.6159 C   0  0  0  0  0  0  0  0  0  0  0  0
    9.1886  -15.2084   18.7736 C   0  0  0  0  0  0  0  0  0  0  0  0
    9.9251  -15.3449   19.9470 C   0  0  0  0  0  0  0  0  0  0  0  0
    9.7138  -14.4507   20.9701 C   0  0  0  0  0  0  0  0  0  0  0  0
   10.4728  -14.5755   22.2337 C   0  0  0  0  0  0  0  0  0  0  0  0
   10.0859  -15.7380   23.0839 C   0  0  2  0  0  0  0  0  0  0  0  0
    8.6685  -15.7757   23.2648 N   0  0  0  0  0  0  0  0  0  0  0  0
   10.9168  -15.9738   24.2591 C   0  0  0  0  0  0  0  0  0  0  0  0
   12.1503  -16.1488   24.1047 O   0  0  0  0  0  0  0  0  0  0  0  0
    8.7722  -13.4160   20.8394 C   0  0  0  0  0  0  0  0  0  0  0  0
    8.0680  -13.3210   19.6622 C   0  0  0  0  0  0  0  0  0  0  0  0
   10.5493  -13.8849   27.3672 C   0  0  0  0  0  0  0  0  0  0  0  0
   10.9437  -15.2648   27.8201 C   0  0  1  0  0  0  0  0  0  0  0  0
    9.7627  -15.8582   28.5398 C   0  0  0  0  0  0  0  0  0  0  0  0
   11.3266  -16.1396   26.6807 C   0  0  2  0  0  0  0  0  0  0  0  0
   10.3992  -16.0208   25.5743 N   0  0  0  0  0  0  0  0  0  0  0  0
   11.5393  -17.5736   27.0595 C   0  0  0  0  0  0  0  0  0  0  0  0
   12.4584  -17.9204   28.0534 O   0  0  0  0  0  0  0  0  0  0  0  0
   10.9298  -18.5270   26.5301 O   0  0  0  0  0  0  0  0  0  0  0  0
  2  1  1  1
  3  4  1  0
  3  2  1  0
  4  5  2  0
  6  5  1  0
  7  6  1  0
  8  7  2  0
  9  8  1  0
 10  9  2  0
 10 11  1  0
 11 12  2  0
 12  7  1  0
 12  4  1  0
 13 14  2  0
 13  2  1  0
 15 16  1  0
 16 17  2  0
 17 18  1  0
 19 20  1  0
 19 18  2  0
 21 20  1  1
 21 22  1  0
 22 13  1  0
 23 21  1  0
 24 23  2  0
 25 19  1  0
 26 25  2  0
 26 16  1  0
 28 27  1  6
 28 30  1  0
 28 29  1  0
 30 31  1  6
 31 23  1  0
 32 33  1  0
 32 30  1  0
 34 32  2  0
M  END
$$$$
