WYV.pdb
     RDKit          3D

 34 36  0  0  1  0  0  0  0  0999 V2000
    7.8957  -17.9470   22.1951 N   0  0  0  0  0  0  0  0  0  0  0  0
    7.7898  -16.8043   23.0883 C   0  0  1  0  0  0  0  0  0  0  0  0
    6.4338  -16.1376   22.8750 C   0  0  0  0  0  0  0  0  0  0  0  0
    6.5225  -14.8463   22.1938 C   0  0  0  0  0  0  0  0  0  0  0  0
    6.4465  -14.5778   20.8398 C   0  0  0  0  0  0  0  0  0  0  0  0
    6.5816  -13.2593   20.6671 N   0  0  0  0  0  0  0  0  0  0  0  0
    6.7443  -12.6320   21.8394 C   0  0  0  0  0  0  0  0  0  0  0  0
    6.9183  -11.2926   22.1494 C   0  0  0  0  0  0  0  0  0  0  0  0
    7.0613  -10.9394   23.4833 C   0  0  0  0  0  0  0  0  0  0  0  0
    7.0291  -11.8997   24.4524 C   0  0  0  0  0  0  0  0  0  0  0  0
    6.8547  -13.2376   24.1337 C   0  0  0  0  0  0  0  0  0  0  0  0
    6.7103  -13.6113   22.8112 C   0  0  0  0  0  0  0  0  0  0  0  0
    7.7328  -17.3196   24.5030 C   0  0  0  0  0  0  0  0  0  0  0  0
    6.8849  -16.8607   25.3151 O   0  0  0  0  0  0  0  0  0  0  0  0
    4.0330  -22.7144   25.2915 O   0  0  0  0  0  0  0  0  0  0  0  0
    5.2481  -22.0773   25.5783 C   0  0  0  0  0  0  0  0  0  0  0  0
    5.4918  -21.6112   26.8485 C   0  0  0  0  0  0  0  0  0  0  0  0
    6.6847  -20.9732   27.1770 C   0  0  0  0  0  0  0  0  0  0  0  0
    7.6393  -20.8090   26.2008 C   0  0  0  0  0  0  0  0  0  0  0  0
    8.9129  -20.1256   26.5155 C   0  0  0  0  0  0  0  0  0  0  0  0
    8.8941  -18.6470   26.3219 C   0  0  2  0  0  0  0  0  0  0  0  0
    8.6203  -18.3248   24.9565 N   0  0  0  0  0  0  0  0  0  0  0  0
    9.9594  -17.9031   26.9841 C   0  0  0  0  0  0  0  0  0  0  0  0
   11.0869  -17.8400   26.4357 O   0  0  0  0  0  0  0  0  0  0  0  0
    7.4199  -21.2744   24.8933 C   0  0  0  0  0  0  0  0  0  0  0  0
    6.2263  -21.8981   24.6156 C   0  0  0  0  0  0  0  0  0  0  0  0
   10.1061  -14.3397   27.9318 C   0  0  0  0  0  0  0  0  0  0  0  0
   10.5485  -15.1257   29.1364 C   0  0  1  0  0  0  0  0  0  0  0  0
    9.4086  -15.1251   30.1191 C   0  0  0  0  0  0  0  0  0  0  0  0
   10.9095  -16.5255   28.7895 C   0  0  2  0  0  0  0  0  0  0  0  0
    9.7876  -17.2477   28.2255 N   0  0  0  0  0  0  0  0  0  0  0  0
   11.5360  -17.2892   29.9163 C   0  0  0  0  0  0  0  0  0  0  0  0
   12.6922  -16.8165   30.5428 O   0  0  0  0  0  0  0  0  0  0  0  0
   11.0827  -18.3660   30.3588 O   0  0  0  0  0  0  0  0  0  0  0  0
  2  1  1  6
  3  4  1  0
  3  2  1  0
  4  5  2  0
  6  5  1  0
  7  6  1  0
  8  7  2  0
  9  8  1  0
 10  9  2  0
 10 11  1  0
 11 12  2  0
 12  7  1  0
 12  4  1  0
 13 14  2  0
 13  2  1  0
 15 16  1  0
 16 17  2  0
 17 18  1  0
 19 20  1  0
 19 18  2  0
 21 20  1  6
 21 22  1  0
 22 13  1  0
 23 21  1  0
 24 23  2  0
 25 19  1  0
 26 25  2  0
 26 16  1  0
 28 27  1  6
 28 30  1  0
 28 29  1  0
 30 31  1  1
 31 23  1  0
 32 33  1  0
 32 30  1  0
 34 32  2  0
M  END
$$$$
