WYV.pdb
     RDKit          3D

 34 36  0  0  1  0  0  0  0  0999 V2000
    6.0395  -18.8041   21.5704 N   0  0  0  0  0  0  0  0  0  0  0  0
    6.9591  -17.7250   21.8941 C   0  0  1  0  0  0  0  0  0  0  0  0
    6.1936  -16.4050   21.8767 C   0  0  0  0  0  0  0  0  0  0  0  0
    6.3268  -15.6734   20.6172 C   0  0  0  0  0  0  0  0  0  0  0  0
    5.8716  -16.0280   19.3608 C   0  0  0  0  0  0  0  0  0  0  0  0
    6.2192  -15.0638   18.5029 N   0  0  0  0  0  0  0  0  0  0  0  0
    6.8848  -14.0809   19.1236 C   0  0  0  0  0  0  0  0  0  0  0  0
    7.4301  -12.8980   18.6505 C   0  0  0  0  0  0  0  0  0  0  0  0
    8.0722  -12.0626   19.5528 C   0  0  0  0  0  0  0  0  0  0  0  0
    8.1553  -12.4125   20.8693 C   0  0  0  0  0  0  0  0  0  0  0  0
    7.6070  -13.5979   21.3344 C   0  0  0  0  0  0  0  0  0  0  0  0
    6.9630  -14.4447   20.4526 C   0  0  0  0  0  0  0  0  0  0  0  0
    7.3861  -17.8887   23.3297 C   0  0  0  0  0  0  0  0  0  0  0  0
    6.5439  -17.7821   24.2616 O   0  0  0  0  0  0  0  0  0  0  0  0
   12.5714  -19.1049   30.3953 O   0  0  0  0  0  0  0  0  0  0  0  0
   12.0087  -19.1072   29.1116 C   0  0  0  0  0  0  0  0  0  0  0  0
   12.6861  -18.5230   28.0677 C   0  0  0  0  0  0  0  0  0  0  0  0
   12.1644  -18.5031   26.7772 C   0  0  0  0  0  0  0  0  0  0  0  0
   10.9397  -19.0850   26.5482 C   0  0  0  0  0  0  0  0  0  0  0  0
   10.3533  -19.0708   25.1902 C   0  0  0  0  0  0  0  0  0  0  0  0
    9.3135  -18.0251   24.9684 C   0  0  2  0  0  0  0  0  0  0  0  0
    8.7319  -18.1652   23.6703 N   0  0  0  0  0  0  0  0  0  0  0  0
    9.6609  -16.6772   25.4039 C   0  0  0  0  0  0  0  0  0  0  0  0
   10.5116  -16.0280   24.7475 O   0  0  0  0  0  0  0  0  0  0  0  0
   10.2228  -19.6900   27.5944 C   0  0  0  0  0  0  0  0  0  0  0  0
   10.7778  -19.6850   28.8525 C   0  0  0  0  0  0  0  0  0  0  0  0
    7.2241  -13.9709   27.2806 C   0  0  0  0  0  0  0  0  0  0  0  0
    8.5500  -13.6910   26.6261 C   0  0  1  0  0  0  0  0  0  0  0  0
    9.0374  -12.3644   27.1434 C   0  0  0  0  0  0  0  0  0  0  0  0
    9.5552  -14.7447   26.9250 C   0  0  2  0  0  0  0  0  0  0  0  0
    9.0876  -16.0606   26.5401 N   0  0  0  0  0  0  0  0  0  0  0  0
   10.0439  -14.7349   28.3415 C   0  0  0  0  0  0  0  0  0  0  0  0
   10.6508  -13.5966   28.8790 O   0  0  0  0  0  0  0  0  0  0  0  0
    9.9459  -15.7116   29.1142 O   0  0  0  0  0  0  0  0  0  0  0  0
  2  1  1  1
  3  4  1  0
  3  2  1  0
  4  5  2  0
  6  5  1  0
  7  6  1  0
  8  7  2  0
  9  8  1  0
 10  9  2  0
 10 11  1  0
 11 12  2  0
 12  7  1  0
 12  4  1  0
 13 14  2  0
 13  2  1  0
 15 16  1  0
 16 17  2  0
 17 18  1  0
 19 20  1  0
 19 18  2  0
 21 20  1  6
 21 22  1  0
 22 13  1  0
 23 21  1  0
 24 23  2  0
 25 19  1  0
 26 25  2  0
 26 16  1  0
 28 27  1  1
 28 30  1  0
 28 29  1  0
 30 31  1  1
 31 23  1  0
 32 33  1  0
 32 30  1  0
 34 32  2  0
M  END
$$$$
