DLH.pdb
     RDKit          3D

 27 27  0  0  1  0  0  0  0  0999 V2000
   11.6268  -17.2230   16.8062 N   0  0  0  0  0  0  0  0  0  0  0  0
   10.6540  -17.3975   17.8514 C   0  0  1  0  0  0  0  0  0  0  0  0
   10.8316  -18.7890   18.4299 C   0  0  0  0  0  0  0  0  0  0  0  0
   10.5886  -19.8224   17.3861 C   0  0  0  0  0  0  0  0  0  0  0  0
    9.7496  -19.6538   16.4518 O   0  0  0  0  0  0  0  0  0  0  0  0
   10.8066  -16.3533   18.9169 C   0  0  0  0  0  0  0  0  0  0  0  0
   11.9403  -15.9817   19.2980 O   0  0  0  0  0  0  0  0  0  0  0  0
   11.2763  -21.0443   17.3796 O   0  0  0  0  0  0  0  0  0  0  0  0
    8.4231  -12.9524   18.6416 C   0  0  0  0  0  0  0  0  0  0  0  0
    8.2173  -12.9499   20.1265 C   0  0  1  0  0  0  0  0  0  0  0  0
    6.7930  -12.4176   20.3438 C   0  0  0  0  0  0  0  0  0  0  0  0
    8.2894  -14.2632   20.8031 C   0  0  0  0  0  0  0  0  0  0  0  0
    9.5302  -15.0516   20.7021 C   0  0  2  0  0  0  0  0  0  0  0  0
    9.6689  -15.7814   19.5000 N   0  0  0  0  0  0  0  0  0  0  0  0
    9.9013  -15.7237   21.9607 C   0  0  0  0  0  0  0  0  0  0  0  0
    9.9619  -15.0162   23.0070 O   0  0  0  0  0  0  0  0  0  0  0  0
   10.2062  -17.0910   22.1168 N   0  0  0  0  0  0  0  0  0  0  0  0
   10.5352  -17.6853   23.4346 C   0  0  1  0  0  0  0  0  0  0  0  0
    9.7164  -18.9070   23.6616 C   0  0  0  0  0  0  0  0  0  0  0  0
    8.2736  -18.5949   23.5411 C   0  0  0  0  0  0  0  0  0  0  0  0
    7.5848  -17.7869   24.4598 C   0  0  0  0  0  0  0  0  0  0  0  0
    6.3107  -17.7144   24.0511 N   0  0  0  0  0  0  0  0  0  0  0  0
    6.1444  -18.4377   22.9120 C   0  0  0  0  0  0  0  0  0  0  0  0
    7.3514  -18.9490   22.6412 N   0  0  0  0  0  0  0  0  0  0  0  0
   11.9979  -17.8847   23.4367 C   0  0  0  0  0  0  0  0  0  0  0  0
   12.6817  -18.3466   24.3749 O   0  0  0  0  0  0  0  0  0  0  0  0
   12.7151  -17.5253   22.2783 O   0  0  0  0  0  0  0  0  0  0  0  0
  2  1  1  6
  3  4  1  0
  3  2  1  0
  4  5  2  0
  6  2  1  0
  6  7  2  0
  8  4  1  0
 10  9  1  6
 10 12  1  0
 11 10  1  0
 13 12  1  1
 13 14  1  0
 14  6  1  0
 15 13  1  0
 16 15  2  0
 17 15  1  0
 18 25  1  0
 18 17  1  0
 19 20  1  0
 18 19  1  6
 20 24  1  0
 20 21  2  0
 21 22  1  0
 23 22  1  0
 24 23  2  0
 25 27  1  0
 26 25  2  0
M  END
$$$$
