DLH.pdb
     RDKit          3D

 27 27  0  0  1  0  0  0  0  0999 V2000
    7.3309  -15.7470   21.3320 N   0  0  0  0  0  0  0  0  0  0  0  0
    8.6969  -16.0870   21.6285 C   0  0  1  0  0  0  0  0  0  0  0  0
    9.5881  -15.3425   20.6518 C   0  0  0  0  0  0  0  0  0  0  0  0
    9.4442  -15.9057   19.2813 C   0  0  0  0  0  0  0  0  0  0  0  0
    8.6682  -16.8747   19.0277 O   0  0  0  0  0  0  0  0  0  0  0  0
    9.0495  -15.7394   23.0441 C   0  0  0  0  0  0  0  0  0  0  0  0
   10.2372  -15.7745   23.4400 O   0  0  0  0  0  0  0  0  0  0  0  0
   10.1627  -15.3941   18.1913 O   0  0  0  0  0  0  0  0  0  0  0  0
    5.6609  -12.1960   25.7558 C   0  0  0  0  0  0  0  0  0  0  0  0
    6.8469  -12.9788   25.2785 C   0  0  1  0  0  0  0  0  0  0  0  0
    8.0745  -12.1332   25.6491 C   0  0  0  0  0  0  0  0  0  0  0  0
    7.0462  -14.3105   25.8907 C   0  0  0  0  0  0  0  0  0  0  0  0
    8.0873  -15.1990   25.3447 C   0  0  2  0  0  0  0  0  0  0  0  0
    8.0409  -15.3699   23.9427 N   0  0  0  0  0  0  0  0  0  0  0  0
    8.3333  -16.3924   26.1746 C   0  0  0  0  0  0  0  0  0  0  0  0
    7.3428  -17.1283   26.4508 O   0  0  0  0  0  0  0  0  0  0  0  0
    9.5751  -16.7976   26.7042 N   0  0  0  0  0  0  0  0  0  0  0  0
    9.7634  -18.1074   27.3728 C   0  0  1  0  0  0  0  0  0  0  0  0
   10.3005  -19.1015   26.4045 C   0  0  0  0  0  0  0  0  0  0  0  0
   10.5682  -20.3921   27.0799 C   0  0  0  0  0  0  0  0  0  0  0  0
   10.3414  -20.6021   28.4495 C   0  0  0  0  0  0  0  0  0  0  0  0
   10.6869  -21.8678   28.7221 N   0  0  0  0  0  0  0  0  0  0  0  0
   11.1263  -22.4848   27.5932 C   0  0  0  0  0  0  0  0  0  0  0  0
   11.0368  -21.5598   26.6298 N   0  0  0  0  0  0  0  0  0  0  0  0
   10.6079  -17.8429   28.5544 C   0  0  0  0  0  0  0  0  0  0  0  0
   11.2905  -16.8175   28.7630 O   0  0  0  0  0  0  0  0  0  0  0  0
   10.6666  -18.8298   29.5585 O   0  0  0  0  0  0  0  0  0  0  0  0
  2  1  1  6
  3  4  1  0
  3  2  1  0
  4  5  2  0
  6  2  1  0
  6  7  2  0
  8  4  1  0
 10  9  1  1
 10 12  1  0
 11 10  1  0
 13 12  1  1
 13 14  1  0
 14  6  1  0
 15 13  1  0
 16 15  2  0
 17 15  1  0
 18 25  1  0
 18 17  1  0
 19 20  1  0
 18 19  1  6
 20 24  1  0
 20 21  2  0
 21 22  1  0
 23 22  1  0
 24 23  2  0
 25 27  1  0
 26 25  2  0
M  END
$$$$
