DLH.pdb
     RDKit          3D

 27 27  0  0  1  0  0  0  0  0999 V2000
    9.8221  -17.3454   17.4252 N   0  0  0  0  0  0  0  0  0  0  0  0
   11.1526  -16.8699   17.6957 C   0  0  1  0  0  0  0  0  0  0  0  0
   11.6601  -16.1636   16.4524 C   0  0  0  0  0  0  0  0  0  0  0  0
   11.8504  -17.1361   15.3414 C   0  0  0  0  0  0  0  0  0  0  0  0
   10.9343  -17.3927   14.5045 O   0  0  0  0  0  0  0  0  0  0  0  0
   11.1712  -15.9478   18.8782 C   0  0  0  0  0  0  0  0  0  0  0  0
   12.2419  -15.4391   19.2826 O   0  0  0  0  0  0  0  0  0  0  0  0
   13.0578  -17.8255   15.1594 O   0  0  0  0  0  0  0  0  0  0  0  0
    6.4279  -13.2321   19.6460 C   0  0  0  0  0  0  0  0  0  0  0  0
    7.8656  -13.6506   19.5741 C   0  0  1  0  0  0  0  0  0  0  0  0
    8.6553  -12.3635   19.2925 C   0  0  0  0  0  0  0  0  0  0  0  0
    8.4406  -14.2437   20.8010 C   0  0  0  0  0  0  0  0  0  0  0  0
    9.7565  -14.9027   20.7268 C   0  0  2  0  0  0  0  0  0  0  0  0
    9.9775  -15.6470   19.5460 N   0  0  0  0  0  0  0  0  0  0  0  0
   10.1864  -15.4982   22.0050 C   0  0  0  0  0  0  0  0  0  0  0  0
   10.0829  -14.7883   23.0463 O   0  0  0  0  0  0  0  0  0  0  0  0
   10.7145  -16.7926   22.1855 N   0  0  0  0  0  0  0  0  0  0  0  0
   11.1517  -17.2937   23.5106 C   0  0  1  0  0  0  0  0  0  0  0  0
   11.0060  -18.7735   23.5693 C   0  0  0  0  0  0  0  0  0  0  0  0
   11.4379  -19.2857   24.8902 C   0  0  0  0  0  0  0  0  0  0  0  0
   10.9234  -18.8045   26.1046 C   0  0  0  0  0  0  0  0  0  0  0  0
   11.5272  -19.4819   27.0906 N   0  0  0  0  0  0  0  0  0  0  0  0
   12.4076  -20.3775   26.5700 C   0  0  0  0  0  0  0  0  0  0  0  0
   12.3201  -20.2254   25.2430 N   0  0  0  0  0  0  0  0  0  0  0  0
   12.5198  -16.7762   23.7097 C   0  0  0  0  0  0  0  0  0  0  0  0
   13.0105  -16.3729   24.7856 O   0  0  0  0  0  0  0  0  0  0  0  0
   13.3744  -16.7211   22.5907 O   0  0  0  0  0  0  0  0  0  0  0  0
  2  1  1  6
  3  4  1  0
  3  2  1  0
  4  5  2  0
  6  2  1  0
  6  7  2  0
  8  4  1  0
 10  9  1  1
 10 12  1  0
 11 10  1  0
 13 12  1  1
 13 14  1  0
 14  6  1  0
 15 13  1  0
 16 15  2  0
 17 15  1  0
 18 25  1  0
 18 17  1  0
 19 20  1  0
 18 19  1  6
 20 24  1  0
 20 21  2  0
 21 22  1  0
 23 22  1  0
 24 23  2  0
 25 27  1  0
 26 25  2  0
M  END
$$$$
