DLH.pdb
     RDKit          3D

 27 27  0  0  1  0  0  0  0  0999 V2000
    7.6173  -14.8461   21.0037 N   0  0  0  0  0  0  0  0  0  0  0  0
    8.4311  -15.9140   21.5201 C   0  0  1  0  0  0  0  0  0  0  0  0
    9.5772  -16.1405   20.5518 C   0  0  0  0  0  0  0  0  0  0  0  0
    9.0574  -16.4214   19.1853 C   0  0  0  0  0  0  0  0  0  0  0  0
    9.7167  -16.1385   18.1409 O   0  0  0  0  0  0  0  0  0  0  0  0
    8.9467  -15.5916   22.8909 C   0  0  0  0  0  0  0  0  0  0  0  0
   10.1760  -15.5001   23.1125 O   0  0  0  0  0  0  0  0  0  0  0  0
    7.8046  -17.0157   18.9773 O   0  0  0  0  0  0  0  0  0  0  0  0
    5.7119  -12.3976   26.1799 C   0  0  0  0  0  0  0  0  0  0  0  0
    6.8785  -13.0663   25.5174 C   0  0  1  0  0  0  0  0  0  0  0  0
    8.0852  -12.1566   25.7926 C   0  0  0  0  0  0  0  0  0  0  0  0
    7.2366  -14.4118   26.0168 C   0  0  0  0  0  0  0  0  0  0  0  0
    8.2865  -15.1760   25.3203 C   0  0  2  0  0  0  0  0  0  0  0  0
    8.0462  -15.3892   23.9442 N   0  0  0  0  0  0  0  0  0  0  0  0
    8.8099  -16.3059   26.1096 C   0  0  0  0  0  0  0  0  0  0  0  0
    7.9896  -17.1979   26.4710 O   0  0  0  0  0  0  0  0  0  0  0  0
   10.1475  -16.4916   26.5135 N   0  0  0  0  0  0  0  0  0  0  0  0
   10.6380  -17.7761   27.0680 C   0  0  1  0  0  0  0  0  0  0  0  0
   11.9687  -18.1061   26.4893 C   0  0  0  0  0  0  0  0  0  0  0  0
   12.4972  -19.3562   27.0821 C   0  0  0  0  0  0  0  0  0  0  0  0
   11.6767  -20.3336   27.6676 C   0  0  0  0  0  0  0  0  0  0  0  0
   12.4752  -21.3203   28.0970 N   0  0  0  0  0  0  0  0  0  0  0  0
   13.7725  -21.0259   27.8167 C   0  0  0  0  0  0  0  0  0  0  0  0
   13.7384  -19.8356   27.2053 N   0  0  0  0  0  0  0  0  0  0  0  0
   10.5968  -17.6272   28.5361 C   0  0  0  0  0  0  0  0  0  0  0  0
   10.4721  -16.5574   29.1694 O   0  0  0  0  0  0  0  0  0  0  0  0
   10.7082  -18.7919   29.3214 O   0  0  0  0  0  0  0  0  0  0  0  0
  2  1  1  6
  3  4  1  0
  3  2  1  0
  4  5  2  0
  6  2  1  0
  6  7  2  0
  8  4  1  0
 10  9  1  1
 10 12  1  0
 11 10  1  0
 13 12  1  1
 13 14  1  0
 14  6  1  0
 15 13  1  0
 16 15  2  0
 17 15  1  0
 18 25  1  0
 18 17  1  0
 19 20  1  0
 18 19  1  6
 20 24  1  0
 20 21  2  0
 21 22  1  0
 23 22  1  0
 24 23  2  0
 25 27  1  0
 26 25  2  0
M  END
$$$$
