DLH.pdb
     RDKit          3D

 27 27  0  0  1  0  0  0  0  0999 V2000
    7.3265  -16.2673   21.8195 N   0  0  0  0  0  0  0  0  0  0  0  0
    8.7317  -15.9610   21.7883 C   0  0  1  0  0  0  0  0  0  0  0  0
    8.9803  -15.0172   20.6264 C   0  0  0  0  0  0  0  0  0  0  0  0
    8.7822  -15.7225   19.3304 C   0  0  0  0  0  0  0  0  0  0  0  0
    9.4494  -16.7519   19.0132 O   0  0  0  0  0  0  0  0  0  0  0  0
    9.1839  -15.3476   23.0799 C   0  0  0  0  0  0  0  0  0  0  0  0
   10.3843  -15.0404   23.2625 O   0  0  0  0  0  0  0  0  0  0  0  0
    7.8438  -15.2847   18.3850 O   0  0  0  0  0  0  0  0  0  0  0  0
    5.6770  -12.1287   26.2135 C   0  0  0  0  0  0  0  0  0  0  0  0
    6.8520  -12.7621   25.5312 C   0  0  1  0  0  0  0  0  0  0  0  0
    8.0133  -11.7724   25.7082 C   0  0  0  0  0  0  0  0  0  0  0  0
    7.3098  -14.0584   26.0769 C   0  0  0  0  0  0  0  0  0  0  0  0
    8.4595  -14.7322   25.4479 C   0  0  2  0  0  0  0  0  0  0  0  0
    8.2560  -15.1127   24.1023 N   0  0  0  0  0  0  0  0  0  0  0  0
    9.1350  -15.6928   26.3391 C   0  0  0  0  0  0  0  0  0  0  0  0
    8.4192  -16.5629   26.9130 O   0  0  0  0  0  0  0  0  0  0  0  0
   10.5145  -15.7360   26.6254 N   0  0  0  0  0  0  0  0  0  0  0  0
   11.1061  -16.7521   27.5286 C   0  0  1  0  0  0  0  0  0  0  0  0
   12.5685  -16.8670   27.2780 C   0  0  0  0  0  0  0  0  0  0  0  0
   12.8260  -17.2395   25.8678 C   0  0  0  0  0  0  0  0  0  0  0  0
   11.8425  -17.7848   25.0272 C   0  0  0  0  0  0  0  0  0  0  0  0
   12.4118  -17.9995   23.8333 N   0  0  0  0  0  0  0  0  0  0  0  0
   13.7166  -17.6188   23.8636 C   0  0  0  0  0  0  0  0  0  0  0  0
   13.9219  -17.1670   25.1068 N   0  0  0  0  0  0  0  0  0  0  0  0
   10.7198  -16.3540   28.8966 C   0  0  0  0  0  0  0  0  0  0  0  0
   10.1157  -15.3098   29.2220 O   0  0  0  0  0  0  0  0  0  0  0  0
   11.0553  -17.2203   29.9561 O   0  0  0  0  0  0  0  0  0  0  0  0
  2  1  1  1
  3  4  1  0
  3  2  1  0
  4  5  2  0
  6  2  1  0
  6  7  2  0
  8  4  1  0
 10  9  1  1
 10 12  1  0
 11 10  1  0
 13 12  1  1
 13 14  1  0
 14  6  1  0
 15 13  1  0
 16 15  2  0
 17 15  1  0
 18 25  1  0
 18 17  1  0
 19 20  1  0
 18 19  1  1
 20 24  1  0
 20 21  2  0
 21 22  1  0
 23 22  1  0
 24 23  2  0
 25 27  1  0
 26 25  2  0
M  END
$$$$
