DLH.pdb
     RDKit          3D

 27 27  0  0  1  0  0  0  0  0999 V2000
    8.6372  -14.9365   20.3177 N   0  0  0  0  0  0  0  0  0  0  0  0
    8.1013  -15.7326   21.3892 C   0  0  1  0  0  0  0  0  0  0  0  0
    8.4100  -17.1882   21.0918 C   0  0  0  0  0  0  0  0  0  0  0  0
    7.8151  -17.5913   19.7880 C   0  0  0  0  0  0  0  0  0  0  0  0
    8.5278  -17.8680   18.7775 O   0  0  0  0  0  0  0  0  0  0  0  0
    8.6783  -15.3244   22.7119 C   0  0  0  0  0  0  0  0  0  0  0  0
    9.9105  -15.1481   22.8511 O   0  0  0  0  0  0  0  0  0  0  0  0
    6.4282  -17.6866   19.6047 O   0  0  0  0  0  0  0  0  0  0  0  0
    5.4673  -12.3675   26.3261 C   0  0  0  0  0  0  0  0  0  0  0  0
    6.6269  -12.9326   25.5624 C   0  0  1  0  0  0  0  0  0  0  0  0
    7.7988  -11.9751   25.8254 C   0  0  0  0  0  0  0  0  0  0  0  0
    7.0820  -14.2826   25.9604 C   0  0  0  0  0  0  0  0  0  0  0  0
    8.1439  -14.9382   25.1768 C   0  0  2  0  0  0  0  0  0  0  0  0
    7.8331  -15.1366   23.8127 N   0  0  0  0  0  0  0  0  0  0  0  0
    8.8088  -16.0392   25.8973 C   0  0  0  0  0  0  0  0  0  0  0  0
    8.0973  -17.0241   26.2476 O   0  0  0  0  0  0  0  0  0  0  0  0
   10.1730  -16.1031   26.2460 N   0  0  0  0  0  0  0  0  0  0  0  0
   10.7343  -17.2114   27.0551 C   0  0  1  0  0  0  0  0  0  0  0  0
   12.1240  -17.5106   26.6151 C   0  0  0  0  0  0  0  0  0  0  0  0
   12.1226  -18.1051   25.2586 C   0  0  0  0  0  0  0  0  0  0  0  0
   11.0696  -18.8939   24.7685 C   0  0  0  0  0  0  0  0  0  0  0  0
   11.3934  -19.2622   23.5214 N   0  0  0  0  0  0  0  0  0  0  0  0
   12.6060  -18.7487   23.1835 C   0  0  0  0  0  0  0  0  0  0  0  0
   13.0072  -18.0589   24.2581 N   0  0  0  0  0  0  0  0  0  0  0  0
   10.5827  -16.8023   28.4654 C   0  0  0  0  0  0  0  0  0  0  0  0
   10.1797  -15.6933   28.8762 O   0  0  0  0  0  0  0  0  0  0  0  0
   10.9205  -17.7372   29.4642 O   0  0  0  0  0  0  0  0  0  0  0  0
  2  1  1  6
  3  4  1  0
  3  2  1  0
  4  5  2  0
  6  2  1  0
  6  7  2  0
  8  4  1  0
 10  9  1  1
 10 12  1  0
 11 10  1  0
 13 12  1  1
 13 14  1  0
 14  6  1  0
 15 13  1  0
 16 15  2  0
 17 15  1  0
 18 25  1  0
 18 17  1  0
 19 20  1  0
 18 19  1  6
 20 24  1  0
 20 21  2  0
 21 22  1  0
 23 22  1  0
 24 23  2  0
 25 27  1  0
 26 25  2  0
M  END
$$$$
