DLH.pdb
     RDKit          3D

 27 27  0  0  1  0  0  0  0  0999 V2000
   10.0998  -17.2799   17.4528 N   0  0  0  0  0  0  0  0  0  0  0  0
   11.3957  -16.7597   17.7983 C   0  0  1  0  0  0  0  0  0  0  0  0
   11.9651  -16.0679   16.5737 C   0  0  0  0  0  0  0  0  0  0  0  0
   12.1457  -17.0413   15.4618 C   0  0  0  0  0  0  0  0  0  0  0  0
   12.1893  -18.2920   15.6600 O   0  0  0  0  0  0  0  0  0  0  0  0
   11.3102  -15.8103   18.9559 C   0  0  0  0  0  0  0  0  0  0  0  0
   12.3392  -15.2739   19.4274 O   0  0  0  0  0  0  0  0  0  0  0  0
   12.2793  -16.6267   14.1290 O   0  0  0  0  0  0  0  0  0  0  0  0
    6.6942  -12.7969   19.2922 C   0  0  0  0  0  0  0  0  0  0  0  0
    8.0950  -13.3243   19.3747 C   0  0  1  0  0  0  0  0  0  0  0  0
    9.0045  -12.0879   19.3168 C   0  0  0  0  0  0  0  0  0  0  0  0
    8.4507  -14.0575   20.6091 C   0  0  0  0  0  0  0  0  0  0  0  0
    9.7443  -14.7600   20.6751 C   0  0  2  0  0  0  0  0  0  0  0  0
   10.0648  -15.5148   19.5242 N   0  0  0  0  0  0  0  0  0  0  0  0
   10.0157  -15.3656   21.9915 C   0  0  0  0  0  0  0  0  0  0  0  0
    9.0664  -15.9748   22.5631 O   0  0  0  0  0  0  0  0  0  0  0  0
   11.2395  -15.3279   22.6898 N   0  0  0  0  0  0  0  0  0  0  0  0
   11.5705  -16.2948   23.7639 C   0  0  1  0  0  0  0  0  0  0  0  0
   11.2256  -17.6759   23.3304 C   0  0  0  0  0  0  0  0  0  0  0  0
   11.6058  -18.6574   24.3725 C   0  0  0  0  0  0  0  0  0  0  0  0
   11.8017  -18.3092   25.7184 C   0  0  0  0  0  0  0  0  0  0  0  0
   12.1324  -19.4287   26.3765 N   0  0  0  0  0  0  0  0  0  0  0  0
   12.1595  -20.4831   25.5188 C   0  0  0  0  0  0  0  0  0  0  0  0
   11.8356  -19.9728   24.3245 N   0  0  0  0  0  0  0  0  0  0  0  0
   12.9901  -16.0631   24.0961 C   0  0  0  0  0  0  0  0  0  0  0  0
   13.5239  -16.2160   25.2153 O   0  0  0  0  0  0  0  0  0  0  0  0
   13.8464  -15.6253   23.0662 O   0  0  0  0  0  0  0  0  0  0  0  0
  2  1  1  6
  3  4  1  0
  3  2  1  0
  4  5  2  0
  6  2  1  0
  6  7  2  0
  8  4  1  0
 10  9  1  1
 10 12  1  0
 11 10  1  0
 13 12  1  1
 13 14  1  0
 14  6  1  0
 15 13  1  0
 16 15  2  0
 17 15  1  0
 18 25  1  0
 18 17  1  0
 19 20  1  0
 18 19  1  6
 20 24  1  0
 20 21  2  0
 21 22  1  0
 23 22  1  0
 24 23  2  0
 25 27  1  0
 26 25  2  0
M  END
$$$$
