KLG.pdb
     RDKit          3D

 22 21  0  0  1  0  0  0  0  0999 V2000
   15.9428  -10.6694  -12.1055 N   0  0  0  0  0  0  0  0  0  0  0  0
   14.8482  -10.0004  -12.7220 C   0  0  1  0  0  0  0  0  0  0  0  0
   13.5770  -10.7305  -12.5650 C   0  0  0  0  0  0  0  0  0  0  0  0
   13.5454  -11.9697  -13.4090 C   0  0  0  0  0  0  0  0  0  0  0  0
   13.6335  -13.2670  -12.6646 C   0  0  0  0  0  0  0  0  0  0  0  0
   13.6349  -14.4804  -13.5712 C   0  0  0  0  0  0  0  0  0  0  0  0
   13.9067  -15.6490  -12.7874 N   0  0  0  0  0  0  0  0  0  0  0  0
   14.7619   -8.5728  -12.2400 C   0  0  0  0  0  0  0  0  0  0  0  0
   13.8494   -7.8363  -12.6717 O   0  0  0  0  0  0  0  0  0  0  0  0
   13.4130   -6.1047   -8.4093 C   0  0  0  0  0  0  0  0  0  0  0  0
   14.5672   -7.0166   -8.4251 C   0  0  2  0  0  0  0  0  0  0  0  0
   15.1453   -7.0783   -6.9849 C   0  0  0  0  0  0  0  0  0  0  0  0
   15.6984   -6.8180   -9.3141 C   0  0  0  0  0  0  0  0  0  0  0  0
   15.5810   -6.6790  -10.7713 C   0  0  2  0  0  0  0  0  0  0  0  0
   15.7018   -8.0660  -11.3081 N   0  0  0  0  0  0  0  0  0  0  0  0
   16.6856   -5.9351  -11.3716 C   0  0  0  0  0  0  0  0  0  0  0  0
   16.9808   -4.7706  -11.0196 O   0  0  0  0  0  0  0  0  0  0  0  0
   17.4689   -6.5353  -12.3982 N   0  0  0  0  0  0  0  0  0  0  0  0
   18.5925   -5.8058  -12.9917 C   0  0  0  0  0  0  0  0  0  0  0  0
   18.1839   -4.8227  -13.9960 C   0  0  0  0  0  0  0  0  0  0  0  0
   19.2054   -4.0645  -14.5850 O   0  0  0  0  0  0  0  0  0  0  0  0
   17.0299   -4.5826  -14.3879 O   0  0  0  0  0  0  0  0  0  0  0  0
  2  8  1  0
  2  1  1  1
  3  2  1  0
  4  3  1  0
  5  4  1  0
  6  5  1  0
  7  6  1  0
  8  9  2  0
 11 12  1  1
 11 10  1  0
 13 11  1  0
 14 13  1  1
 15 14  1  0
 15  8  1  0
 16 14  1  0
 17 16  2  0
 18 16  1  0
 19 18  1  0
 20 19  1  0
 20 21  1  0
 22 20  2  0
M  END
$$$$
