KLG.pdb
     RDKit          3D

 22 21  0  0  1  0  0  0  0  0999 V2000
   28.3342  -20.4440  -14.5640 N   0  0  0  0  0  0  0  0  0  0  0  0
   27.7583  -19.6780  -13.5117 C   0  0  1  0  0  0  0  0  0  0  0  0
   26.8862  -18.5982  -14.0088 C   0  0  0  0  0  0  0  0  0  0  0  0
   26.9651  -18.4690  -15.5008 C   0  0  0  0  0  0  0  0  0  0  0  0
   25.7314  -18.8621  -16.2546 C   0  0  0  0  0  0  0  0  0  0  0  0
   25.8000  -18.5330  -17.7315 C   0  0  0  0  0  0  0  0  0  0  0  0
   24.6812  -19.1330  -18.3964 N   0  0  0  0  0  0  0  0  0  0  0  0
   27.0609  -20.5794  -12.5223 C   0  0  0  0  0  0  0  0  0  0  0  0
   27.0638  -21.8143  -12.7133 O   0  0  0  0  0  0  0  0  0  0  0  0
   28.2952  -20.9396   -8.0331 C   0  0  0  0  0  0  0  0  0  0  0  0
   27.3819  -19.8748   -8.4758 C   0  0  2  0  0  0  0  0  0  0  0  0
   27.1217  -18.9368   -7.2656 C   0  0  0  0  0  0  0  0  0  0  0  0
   26.0836  -20.1620   -9.0600 C   0  0  0  0  0  0  0  0  0  0  0  0
   25.8938  -20.9238  -10.3011 C   0  0  2  0  0  0  0  0  0  0  0  0
   26.4077  -20.0386  -11.3867 N   0  0  0  0  0  0  0  0  0  0  0  0
   24.4890  -21.1579  -10.6262 C   0  0  0  0  0  0  0  0  0  0  0  0
   23.7041  -21.7328   -9.8385 O   0  0  0  0  0  0  0  0  0  0  0  0
   23.9708  -20.7266  -11.8805 N   0  0  0  0  0  0  0  0  0  0  0  0
   22.6322  -21.1415  -12.3083 C   0  0  0  0  0  0  0  0  0  0  0  0
   21.5745  -20.2214  -11.8877 C   0  0  0  0  0  0  0  0  0  0  0  0
   20.2613  -20.5771  -12.2257 O   0  0  0  0  0  0  0  0  0  0  0  0
   21.7085  -19.1563  -11.2626 O   0  0  0  0  0  0  0  0  0  0  0  0
  2  8  1  0
  2  1  1  6
  3  2  1  0
  4  3  1  0
  5  4  1  0
  6  5  1  0
  7  6  1  0
  8  9  2  0
 11 12  1  1
 11 10  1  0
 13 11  1  0
 14 13  1  1
 15 14  1  0
 15  8  1  0
 16 14  1  0
 17 16  2  0
 18 16  1  0
 19 18  1  0
 20 19  1  0
 20 21  1  0
 22 20  2  0
M  END
$$$$
