KLG.pdb
     RDKit          3D

 22 21  0  0  1  0  0  0  0  0999 V2000
    6.4261  -47.5248  -21.8451 N   0  0  0  0  0  0  0  0  0  0  0  0
    6.8373  -46.2319  -22.2754 C   0  0  1  0  0  0  0  0  0  0  0  0
    6.1148  -45.7787  -23.4780 C   0  0  0  0  0  0  0  0  0  0  0  0
    7.0303  -45.6630  -24.6601 C   0  0  0  0  0  0  0  0  0  0  0  0
    8.4875  -45.8674  -24.3775 C   0  0  0  0  0  0  0  0  0  0  0  0
    9.3453  -44.6785  -24.7583 C   0  0  0  0  0  0  0  0  0  0  0  0
   10.5091  -45.1451  -25.4521 N   0  0  0  0  0  0  0  0  0  0  0  0
    6.7501  -45.2437  -21.1380 C   0  0  0  0  0  0  0  0  0  0  0  0
    6.1820  -45.5814  -20.0775 O   0  0  0  0  0  0  0  0  0  0  0  0
    9.2098  -42.0803  -23.1807 C   0  0  0  0  0  0  0  0  0  0  0  0
    8.5151  -41.5016  -22.0203 C   0  0  2  0  0  0  0  0  0  0  0  0
    8.9580  -40.0186  -21.8908 C   0  0  0  0  0  0  0  0  0  0  0  0
    8.6157  -42.0784  -20.6912 C   0  0  0  0  0  0  0  0  0  0  0  0
    8.4413  -43.5077  -20.4027 C   0  0  2  0  0  0  0  0  0  0  0  0
    7.3041  -43.9453  -21.2639 N   0  0  0  0  0  0  0  0  0  0  0  0
    8.0116  -43.7722  -19.0319 C   0  0  0  0  0  0  0  0  0  0  0  0
    8.7045  -44.4347  -18.2269 O   0  0  0  0  0  0  0  0  0  0  0  0
    6.7613  -43.2695  -18.5718 N   0  0  0  0  0  0  0  0  0  0  0  0
    6.3283  -43.5157  -17.1939 C   0  0  0  0  0  0  0  0  0  0  0  0
    5.4788  -44.6991  -17.0524 C   0  0  0  0  0  0  0  0  0  0  0  0
    4.1539  -44.4771  -16.6515 O   0  0  0  0  0  0  0  0  0  0  0  0
    5.7995  -45.8832  -17.2480 O   0  0  0  0  0  0  0  0  0  0  0  0
  2  8  1  0
  2  1  1  1
  3  2  1  0
  4  3  1  0
  5  4  1  0
  6  5  1  0
  7  6  1  0
  8  9  2  0
 11 12  1  1
 11 10  1  0
 13 11  1  0
 14 13  1  1
 15 14  1  0
 15  8  1  0
 16 14  1  0
 17 16  2  0
 18 16  1  0
 19 18  1  0
 20 19  1  0
 20 21  1  0
 22 20  2  0
M  END
$$$$
