KLG.pdb
     RDKit          3D

 22 21  0  0  1  0  0  0  0  0999 V2000
   22.0188  -33.2639  -10.8659 N   0  0  0  0  0  0  0  0  0  0  0  0
   23.2344  -33.3177  -10.1274 C   0  0  1  0  0  0  0  0  0  0  0  0
   24.3504  -32.6524  -10.8242 C   0  0  0  0  0  0  0  0  0  0  0  0
   24.7089  -33.3635  -12.0950 C   0  0  0  0  0  0  0  0  0  0  0  0
   25.6296  -34.5363  -11.9473 C   0  0  0  0  0  0  0  0  0  0  0  0
   25.9139  -35.2447  -13.2556 C   0  0  0  0  0  0  0  0  0  0  0  0
   26.5948  -36.4756  -12.9822 N   0  0  0  0  0  0  0  0  0  0  0  0
   23.0266  -32.7917   -8.7282 C   0  0  0  0  0  0  0  0  0  0  0  0
   22.3426  -31.7597   -8.5587 O   0  0  0  0  0  0  0  0  0  0  0  0
   20.2034  -33.0709   -5.3003 C   0  0  0  0  0  0  0  0  0  0  0  0
   21.0927  -34.1743   -5.6949 C   0  0  2  0  0  0  0  0  0  0  0  0
   20.6888  -35.4288   -4.8730 C   0  0  0  0  0  0  0  0  0  0  0  0
   22.5387  -34.0725   -5.6060 C   0  0  0  0  0  0  0  0  0  0  0  0
   23.3239  -32.9947   -6.2212 C   0  0  2  0  0  0  0  0  0  0  0  0
   23.5978  -33.4553   -7.6137 N   0  0  0  0  0  0  0  0  0  0  0  0
   24.6376  -32.8147   -5.6085 C   0  0  0  0  0  0  0  0  0  0  0  0
   24.7808  -32.5279   -4.3984 O   0  0  0  0  0  0  0  0  0  0  0  0
   25.8137  -32.9642   -6.3974 N   0  0  0  0  0  0  0  0  0  0  0  0
   27.1293  -32.6653   -5.8256 C   0  0  0  0  0  0  0  0  0  0  0  0
   27.5855  -33.6648   -4.8588 C   0  0  0  0  0  0  0  0  0  0  0  0
   28.8099  -33.4124   -4.2245 O   0  0  0  0  0  0  0  0  0  0  0  0
   27.0087  -34.7162   -4.5347 O   0  0  0  0  0  0  0  0  0  0  0  0
  2  8  1  0
  2  1  1  6
  3  2  1  0
  4  3  1  0
  5  4  1  0
  6  5  1  0
  7  6  1  0
  8  9  2  0
 11 12  1  1
 11 10  1  0
 13 11  1  0
 14 13  1  1
 15 14  1  0
 15  8  1  0
 16 14  1  0
 17 16  2  0
 18 16  1  0
 19 18  1  0
 20 19  1  0
 20 21  1  0
 22 20  2  0
M  END
$$$$
