KLG.pdb
     RDKit          3D

 22 21  0  0  1  0  0  0  0  0999 V2000
   25.5075  -19.8363  -17.5424 N   0  0  0  0  0  0  0  0  0  0  0  0
   24.7780  -19.3091  -16.4399 C   0  0  1  0  0  0  0  0  0  0  0  0
   23.4829  -18.7305  -16.8423 C   0  0  0  0  0  0  0  0  0  0  0  0
   23.6612  -17.6064  -17.8188 C   0  0  0  0  0  0  0  0  0  0  0  0
   22.4224  -16.8336  -18.1552 C   0  0  0  0  0  0  0  0  0  0  0  0
   22.6740  -15.6794  -19.1032 C   0  0  0  0  0  0  0  0  0  0  0  0
   21.4298  -15.0267  -19.3854 N   0  0  0  0  0  0  0  0  0  0  0  0
   24.6383  -20.3473  -15.3534 C   0  0  0  0  0  0  0  0  0  0  0  0
   24.7925  -21.5542  -15.6382 O   0  0  0  0  0  0  0  0  0  0  0  0
   25.4669  -20.0856   -9.2722 C   0  0  0  0  0  0  0  0  0  0  0  0
   25.1843  -20.8808  -10.4772 C   0  0  2  0  0  0  0  0  0  0  0  0
   26.3515  -21.8874  -10.6683 C   0  0  0  0  0  0  0  0  0  0  0  0
   24.9543  -20.2669  -11.7731 C   0  0  0  0  0  0  0  0  0  0  0  0
   24.3477  -20.9643  -12.9143 C   0  0  2  0  0  0  0  0  0  0  0  0
   24.3357  -19.9653  -14.0226 N   0  0  0  0  0  0  0  0  0  0  0  0
   22.9469  -21.3173  -12.6975 C   0  0  0  0  0  0  0  0  0  0  0  0
   22.5915  -22.1629  -11.8456 O   0  0  0  0  0  0  0  0  0  0  0  0
   21.9302  -20.6909  -13.4732 N   0  0  0  0  0  0  0  0  0  0  0  0
   20.5210  -21.0259  -13.2522 C   0  0  0  0  0  0  0  0  0  0  0  0
   19.5986  -20.2311  -14.0643 C   0  0  0  0  0  0  0  0  0  0  0  0
   18.2299  -20.4225  -13.8293 O   0  0  0  0  0  0  0  0  0  0  0  0
   19.8917  -19.4025  -14.9422 O   0  0  0  0  0  0  0  0  0  0  0  0
  2  8  1  0
  2  1  1  6
  3  2  1  0
  4  3  1  0
  5  4  1  0
  6  5  1  0
  7  6  1  0
  8  9  2  0
 11 12  1  6
 11 10  1  0
 13 11  1  0
 14 13  1  1
 15 14  1  0
 15  8  1  0
 16 14  1  0
 17 16  2  0
 18 16  1  0
 19 18  1  0
 20 19  1  0
 20 21  1  0
 22 20  2  0
M  END
$$$$
