KLG.pdb
     RDKit          3D

 22 21  0  0  1  0  0  0  0  0999 V2000
   22.7192  -14.1795  -18.8553 N   0  0  0  0  0  0  0  0  0  0  0  0
   22.1130  -13.0502  -18.2364 C   0  0  1  0  0  0  0  0  0  0  0  0
   20.7476  -13.3321  -17.7569 C   0  0  0  0  0  0  0  0  0  0  0  0
   19.9722  -14.1465  -18.7490 C   0  0  0  0  0  0  0  0  0  0  0  0
   18.6086  -14.5840  -18.3084 C   0  0  0  0  0  0  0  0  0  0  0  0
   17.9205  -15.4963  -19.3027 C   0  0  0  0  0  0  0  0  0  0  0  0
   16.7045  -15.9860  -18.7237 N   0  0  0  0  0  0  0  0  0  0  0  0
   23.0069  -12.4976  -17.1533 C   0  0  0  0  0  0  0  0  0  0  0  0
   23.6590  -13.2873  -16.4372 O   0  0  0  0  0  0  0  0  0  0  0  0
   27.7990   -9.8081  -16.8131 C   0  0  0  0  0  0  0  0  0  0  0  0
   26.6140  -10.1226  -16.0001 C   0  0  2  0  0  0  0  0  0  0  0  0
   27.0432  -11.1369  -14.9050 C   0  0  0  0  0  0  0  0  0  0  0  0
   25.3901  -10.6419  -16.5846 C   0  0  0  0  0  0  0  0  0  0  0  0
   24.0705  -10.5403  -15.9482 C   0  0  2  0  0  0  0  0  0  0  0  0
   23.1110  -11.0996  -16.9446 N   0  0  0  0  0  0  0  0  0  0  0  0
   23.6395   -9.1619  -15.7286 C   0  0  0  0  0  0  0  0  0  0  0  0
   24.1932   -8.4098  -14.8952 O   0  0  0  0  0  0  0  0  0  0  0  0
   22.5502   -8.6325  -16.4775 N   0  0  0  0  0  0  0  0  0  0  0  0
   22.1628   -7.2276  -16.3249 C   0  0  0  0  0  0  0  0  0  0  0  0
   21.1612   -7.0093  -15.2803 C   0  0  0  0  0  0  0  0  0  0  0  0
   20.6932   -5.6972  -15.1229 O   0  0  0  0  0  0  0  0  0  0  0  0
   20.6763   -7.8580  -14.5137 O   0  0  0  0  0  0  0  0  0  0  0  0
  2  8  1  0
  2  1  1  1
  3  2  1  0
  4  3  1  0
  5  4  1  0
  6  5  1  0
  7  6  1  0
  8  9  2  0
 11 12  1  1
 11 10  1  0
 13 11  1  0
 14 13  1  6
 15 14  1  0
 15  8  1  0
 16 14  1  0
 17 16  2  0
 18 16  1  0
 19 18  1  0
 20 19  1  0
 20 21  1  0
 22 20  2  0
M  END
$$$$
