KLG.pdb
     RDKit          3D

 22 21  0  0  1  0  0  0  0  0999 V2000
   26.5329  -19.1546  -14.0602 N   0  0  0  0  0  0  0  0  0  0  0  0
   26.8796  -20.5324  -13.9740 C   0  0  1  0  0  0  0  0  0  0  0  0
   28.3007  -20.7790  -14.2796 C   0  0  0  0  0  0  0  0  0  0  0  0
   28.5821  -20.6352  -15.7456 C   0  0  0  0  0  0  0  0  0  0  0  0
   27.9751  -19.4377  -16.4107 C   0  0  0  0  0  0  0  0  0  0  0  0
   28.3223  -19.3273  -17.8810 C   0  0  0  0  0  0  0  0  0  0  0  0
   27.6166  -18.2151  -18.4455 N   0  0  0  0  0  0  0  0  0  0  0  0
   26.4655  -21.0992  -12.6380 C   0  0  0  0  0  0  0  0  0  0  0  0
   26.6324  -22.3169  -12.4127 O   0  0  0  0  0  0  0  0  0  0  0  0
   28.1140  -20.9702   -8.4009 C   0  0  0  0  0  0  0  0  0  0  0  0
   27.3911  -19.7995   -8.9212 C   0  0  2  0  0  0  0  0  0  0  0  0
   27.4830  -18.6714   -7.8576 C   0  0  0  0  0  0  0  0  0  0  0  0
   25.9987  -19.8680   -9.3287 C   0  0  0  0  0  0  0  0  0  0  0  0
   25.4811  -20.8183  -10.3214 C   0  0  2  0  0  0  0  0  0  0  0  0
   25.8931  -20.2658  -11.6448 N   0  0  0  0  0  0  0  0  0  0  0  0
   24.0219  -20.8728  -10.3631 C   0  0  0  0  0  0  0  0  0  0  0  0
   23.3288  -21.0961   -9.3449 O   0  0  0  0  0  0  0  0  0  0  0  0
   23.3403  -20.6691  -11.5967 N   0  0  0  0  0  0  0  0  0  0  0  0
   21.8765  -20.7108  -11.6472 C   0  0  0  0  0  0  0  0  0  0  0  0
   21.3285  -20.3651  -12.9595 C   0  0  0  0  0  0  0  0  0  0  0  0
   22.2543  -20.1478  -13.9896 O   0  0  0  0  0  0  0  0  0  0  0  0
   20.1310  -20.2418  -13.2660 O   0  0  0  0  0  0  0  0  0  0  0  0
  2  8  1  0
  2  1  1  1
  3  2  1  0
  4  3  1  0
  5  4  1  0
  6  5  1  0
  7  6  1  0
  8  9  2  0
 11 12  1  1
 11 10  1  0
 13 11  1  0
 14 13  1  1
 15 14  1  0
 15  8  1  0
 16 14  1  0
 17 16  2  0
 18 16  1  0
 19 18  1  0
 20 19  1  0
 20 21  1  0
 22 20  2  0
M  END
$$$$
