KLG.pdb
     RDKit          3D

 22 21  0  0  1  0  0  0  0  0999 V2000
   14.3439  -22.3016   -2.4210 N   0  0  0  0  0  0  0  0  0  0  0  0
   13.9532  -22.4399   -1.0593 C   0  0  1  0  0  0  0  0  0  0  0  0
   13.3685  -23.7619   -0.7692 C   0  0  0  0  0  0  0  0  0  0  0  0
   12.1329  -24.0084   -1.5824 C   0  0  0  0  0  0  0  0  0  0  0  0
   11.4371  -25.3112   -1.3309 C   0  0  0  0  0  0  0  0  0  0  0  0
   10.2433  -25.5385   -2.2352 C   0  0  0  0  0  0  0  0  0  0  0  0
    9.6093  -26.7710   -1.8711 N   0  0  0  0  0  0  0  0  0  0  0  0
   15.1024  -22.0987   -0.1424 C   0  0  0  0  0  0  0  0  0  0  0  0
   16.2736  -22.2939   -0.5320 O   0  0  0  0  0  0  0  0  0  0  0  0
   18.1321  -18.6651    2.1549 C   0  0  0  0  0  0  0  0  0  0  0  0
   16.7112  -18.6612    1.7737 C   0  0  2  0  0  0  0  0  0  0  0  0
   16.1051  -17.2990    2.2087 C   0  0  0  0  0  0  0  0  0  0  0  0
   15.7861  -19.6858    2.2250 C   0  0  0  0  0  0  0  0  0  0  0  0
   15.9931  -21.1250    2.0194 C   0  0  2  0  0  0  0  0  0  0  0  0
   14.8639  -21.5626    1.1477 N   0  0  0  0  0  0  0  0  0  0  0  0
   15.8609  -21.9087    3.2450 C   0  0  0  0  0  0  0  0  0  0  0  0
   14.7499  -22.1658    3.7613 O   0  0  0  0  0  0  0  0  0  0  0  0
   17.0251  -22.4080    3.8956 N   0  0  0  0  0  0  0  0  0  0  0  0
   16.9092  -23.1290    5.1659 C   0  0  0  0  0  0  0  0  0  0  0  0
   16.6231  -22.2579    6.3066 C   0  0  0  0  0  0  0  0  0  0  0  0
   17.6256  -22.1483    7.2804 O   0  0  0  0  0  0  0  0  0  0  0  0
   15.5885  -21.6016    6.5112 O   0  0  0  0  0  0  0  0  0  0  0  0
  2  8  1  0
  2  1  1  6
  3  2  1  0
  4  3  1  0
  5  4  1  0
  6  5  1  0
  7  6  1  0
  8  9  2  0
 11 12  1  1
 11 10  1  0
 13 11  1  0
 14 13  1  1
 15 14  1  0
 15  8  1  0
 16 14  1  0
 17 16  2  0
 18 16  1  0
 19 18  1  0
 20 19  1  0
 20 21  1  0
 22 20  2  0
M  END
$$$$
