VYR.pdb
     RDKit          3D

 31 31  0  0  1  0  0  0  0  0999 V2000
   23.7188  -22.5771  -17.3744 C   0  0  0  0  0  0  0  0  0  0  0  0
   24.7398  -23.6668  -17.1145 C   0  0  1  0  0  0  0  0  0  0  0  0
   25.5163  -23.9724  -18.3679 C   0  0  0  0  0  0  0  0  0  0  0  0
   25.6652  -23.2630  -15.9600 C   0  0  2  0  0  0  0  0  0  0  0  0
   26.6292  -24.2816  -15.6849 N   0  0  0  0  0  0  0  0  0  0  0  0
   24.8245  -22.9312  -14.7807 C   0  0  0  0  0  0  0  0  0  0  0  0
   24.3780  -23.8561  -14.0554 O   0  0  0  0  0  0  0  0  0  0  0  0
   29.6067  -21.0930  -10.5202 O   0  0  0  0  0  0  0  0  0  0  0  0
   28.3186  -20.8515  -11.0143 C   0  0  0  0  0  0  0  0  0  0  0  0
   27.2004  -21.1747  -10.2751 C   0  0  0  0  0  0  0  0  0  0  0  0
   25.9196  -20.9350  -10.7652 C   0  0  0  0  0  0  0  0  0  0  0  0
   25.7123  -20.3673  -12.0033 C   0  0  0  0  0  0  0  0  0  0  0  0
   24.3845  -20.0964  -12.5557 C   0  0  0  0  0  0  0  0  0  0  0  0
   23.7226  -21.2718  -13.2098 C   0  0  2  0  0  0  0  0  0  0  0  0
   24.4847  -21.6026  -14.4116 N   0  0  0  0  0  0  0  0  0  0  0  0
   22.3031  -21.1055  -13.5230 C   0  0  0  0  0  0  0  0  0  0  0  0
   21.9740  -20.3589  -14.4938 O   0  0  0  0  0  0  0  0  0  0  0  0
   26.8453  -20.0461  -12.7388 C   0  0  0  0  0  0  0  0  0  0  0  0
   28.1168  -20.2832  -12.2543 C   0  0  0  0  0  0  0  0  0  0  0  0
   18.9000  -25.3234   -8.5609 N   0  0  0  0  0  0  0  0  0  0  0  0
   17.8594  -24.3743   -8.4098 C   0  0  0  0  0  0  0  0  0  0  0  0
   17.3677  -24.0872   -7.2302 N   0  0  0  0  0  0  0  0  0  0  0  0
   17.2906  -23.6825   -9.5138 N   0  0  0  0  0  0  0  0  0  0  0  0
   17.7841  -23.8560  -10.8658 C   0  0  0  0  0  0  0  0  0  0  0  0
   18.5754  -22.6548  -11.3150 C   0  0  0  0  0  0  0  0  0  0  0  0
   19.0682  -22.7505  -12.7133 C   0  0  0  0  0  0  0  0  0  0  0  0
   19.8384  -21.5453  -13.1995 C   0  0  2  0  0  0  0  0  0  0  0  0
   21.2331  -21.7198  -12.8230 N   0  0  0  0  0  0  0  0  0  0  0  0
   19.2792  -20.2808  -12.7224 C   0  0  0  0  0  0  0  0  0  0  0  0
   18.1941  -19.6685  -13.3250 O   0  0  0  0  0  0  0  0  0  0  0  0
   19.7527  -19.6506  -11.7147 O   0  0  0  0  0  0  0  0  0  0  0  0
  2  1  1  6
  3  2  1  0
  4  2  1  0
  4  5  1  1
  6  4  1  0
  7  6  2  0
  8  9  1  0
  9 10  2  0
 10 11  1  0
 12 11  2  0
 12 13  1  0
 14 13  1  6
 14 15  1  0
 15  6  1  0
 16 14  1  0
 16 28  1  0
 17 16  2  0
 18 12  1  0
 19  9  1  0
 19 18  2  0
 20 21  1  0
 21 23  1  0
 21 22  2  0
 23 24  1  0
 24 25  1  0
 25 26  1  0
 27 26  1  1
 27 28  1  0
 29 27  1  0
 30 29  1  0
 31 29  2  0
M  END
$$$$
