VYR.pdb
     RDKit          3D

 31 31  0  0  1  0  0  0  0  0999 V2000
   27.0569  -16.4510  -15.6416 C   0  0  0  0  0  0  0  0  0  0  0  0
   25.5734  -16.5991  -15.3683 C   0  0  1  0  0  0  0  0  0  0  0  0
   24.7742  -15.7447  -16.3162 C   0  0  0  0  0  0  0  0  0  0  0  0
   25.1626  -18.0743  -15.4529 C   0  0  2  0  0  0  0  0  0  0  0  0
   25.3502  -18.5921  -16.7717 N   0  0  0  0  0  0  0  0  0  0  0  0
   23.7596  -18.1971  -14.9794 C   0  0  0  0  0  0  0  0  0  0  0  0
   23.4640  -17.8382  -13.8112 O   0  0  0  0  0  0  0  0  0  0  0  0
   20.9285  -12.3468  -15.2416 O   0  0  0  0  0  0  0  0  0  0  0  0
   20.8139  -13.7237  -15.4709 C   0  0  0  0  0  0  0  0  0  0  0  0
   20.1348  -14.5381  -14.5895 C   0  0  0  0  0  0  0  0  0  0  0  0
   20.0202  -15.9069  -14.8165 C   0  0  0  0  0  0  0  0  0  0  0  0
   20.5766  -16.5064  -15.9252 C   0  0  0  0  0  0  0  0  0  0  0  0
   20.4785  -17.9398  -16.2033 C   0  0  0  0  0  0  0  0  0  0  0  0
   21.3223  -18.8113  -15.3225 C   0  0  2  0  0  0  0  0  0  0  0  0
   22.7051  -18.7069  -15.7825 N   0  0  0  0  0  0  0  0  0  0  0  0
   20.9077  -20.2117  -15.2337 C   0  0  0  0  0  0  0  0  0  0  0  0
   21.2703  -21.0162  -16.1446 O   0  0  0  0  0  0  0  0  0  0  0  0
   21.2581  -15.6768  -16.8057 C   0  0  0  0  0  0  0  0  0  0  0  0
   21.3728  -14.3186  -16.5822 C   0  0  0  0  0  0  0  0  0  0  0  0
   19.1747  -22.9887   -9.2262 N   0  0  0  0  0  0  0  0  0  0  0  0
   18.8939  -24.3750   -9.3005 C   0  0  0  0  0  0  0  0  0  0  0  0
   19.1409  -25.1733   -8.2919 N   0  0  0  0  0  0  0  0  0  0  0  0
   18.3335  -24.9796  -10.4587 N   0  0  0  0  0  0  0  0  0  0  0  0
   17.9303  -24.2008  -11.6130 C   0  0  0  0  0  0  0  0  0  0  0  0
   19.0844  -23.9920  -12.5592 C   0  0  0  0  0  0  0  0  0  0  0  0
   19.4518  -22.5652  -12.7508 C   0  0  0  0  0  0  0  0  0  0  0  0
   19.6859  -22.1566  -14.1862 C   0  0  2  0  0  0  0  0  0  0  0  0
   20.1179  -20.7672  -14.1946 N   0  0  0  0  0  0  0  0  0  0  0  0
   18.5237  -22.3914  -15.0427 C   0  0  0  0  0  0  0  0  0  0  0  0
   18.3357  -23.5714  -15.7409 O   0  0  0  0  0  0  0  0  0  0  0  0
   17.5985  -21.5234  -15.2077 O   0  0  0  0  0  0  0  0  0  0  0  0
  2  1  1  6
  3  2  1  0
  4  2  1  0
  4  5  1  6
  6  4  1  0
  7  6  2  0
  8  9  1  0
  9 10  2  0
 10 11  1  0
 12 11  2  0
 12 13  1  0
 14 13  1  6
 14 15  1  0
 15  6  1  0
 16 14  1  0
 16 28  1  0
 17 16  2  0
 18 12  1  0
 19  9  1  0
 19 18  2  0
 20 21  1  0
 21 23  1  0
 21 22  2  0
 23 24  1  0
 24 25  1  0
 25 26  1  0
 27 26  1  1
 27 28  1  0
 29 27  1  0
 30 29  1  0
 31 29  2  0
M  END
$$$$
