VYR.pdb
     RDKit          3D

 31 31  0  0  1  0  0  0  0  0999 V2000
   26.0156  -19.9864  -20.9474 C   0  0  0  0  0  0  0  0  0  0  0  0
   26.9315  -18.8841  -21.4409 C   0  0  1  0  0  0  0  0  0  0  0  0
   27.9238  -19.4278  -22.4345 C   0  0  0  0  0  0  0  0  0  0  0  0
   26.1075  -17.7352  -22.0351 C   0  0  2  0  0  0  0  0  0  0  0  0
   26.9504  -16.7087  -22.5627 N   0  0  0  0  0  0  0  0  0  0  0  0
   25.1775  -17.2367  -20.9890 C   0  0  0  0  0  0  0  0  0  0  0  0
   25.6128  -16.4931  -20.0733 O   0  0  0  0  0  0  0  0  0  0  0  0
   17.4449  -15.3213  -16.9033 O   0  0  0  0  0  0  0  0  0  0  0  0
   18.4652  -15.6609  -17.8008 C   0  0  0  0  0  0  0  0  0  0  0  0
   19.2991  -14.6978  -18.3282 C   0  0  0  0  0  0  0  0  0  0  0  0
   20.3136  -15.0343  -19.2202 C   0  0  0  0  0  0  0  0  0  0  0  0
   20.5292  -16.3368  -19.6142 C   0  0  0  0  0  0  0  0  0  0  0  0
   21.5842  -16.7345  -20.5472 C   0  0  0  0  0  0  0  0  0  0  0  0
   22.8883  -17.0999  -19.9045 C   0  0  2  0  0  0  0  0  0  0  0  0
   23.7939  -17.5547  -20.9570 N   0  0  0  0  0  0  0  0  0  0  0  0
   22.8081  -18.0849  -18.8255 C   0  0  0  0  0  0  0  0  0  0  0  0
   22.6384  -19.3059  -19.1229 O   0  0  0  0  0  0  0  0  0  0  0  0
   19.6835  -17.2981  -19.0770 C   0  0  0  0  0  0  0  0  0  0  0  0
   18.6765  -16.9662  -18.1918 C   0  0  0  0  0  0  0  0  0  0  0  0
   26.2558  -21.3853  -12.5328 N   0  0  0  0  0  0  0  0  0  0  0  0
   24.8866  -21.6395  -12.2741 C   0  0  0  0  0  0  0  0  0  0  0  0
   24.4614  -21.9031  -11.0636 N   0  0  0  0  0  0  0  0  0  0  0  0
   23.9005  -21.6248  -13.2979 N   0  0  0  0  0  0  0  0  0  0  0  0
   24.0020  -20.7502  -14.4496 C   0  0  0  0  0  0  0  0  0  0  0  0
   23.6447  -19.3313  -14.0891 C   0  0  0  0  0  0  0  0  0  0  0  0
   23.6613  -18.3971  -15.2443 C   0  0  0  0  0  0  0  0  0  0  0  0
   22.7898  -18.8095  -16.4073 C   0  0  2  0  0  0  0  0  0  0  0  0
   22.9066  -17.7921  -17.4410 N   0  0  0  0  0  0  0  0  0  0  0  0
   21.4025  -19.0624  -16.0188 C   0  0  0  0  0  0  0  0  0  0  0  0
   20.9335  -20.3251  -15.7009 O   0  0  0  0  0  0  0  0  0  0  0  0
   20.5240  -18.1353  -15.9451 O   0  0  0  0  0  0  0  0  0  0  0  0
  2  1  1  6
  3  2  1  0
  4  2  1  0
  4  5  1  1
  6  4  1  0
  7  6  2  0
  8  9  1  0
  9 10  2  0
 10 11  1  0
 12 11  2  0
 12 13  1  0
 14 13  1  6
 14 15  1  0
 15  6  1  0
 16 14  1  0
 16 28  1  0
 17 16  2  0
 18 12  1  0
 19  9  1  0
 19 18  2  0
 20 21  1  0
 21 23  1  0
 21 22  2  0
 23 24  1  0
 24 25  1  0
 25 26  1  0
 27 26  1  1
 27 28  1  0
 29 27  1  0
 30 29  1  0
 31 29  2  0
M  END
$$$$
