GEE.pdb
     RDKit          3D

 23 22  0  0  1  0  0  0  0  0999 V2000
   19.7874  -15.1867  -17.8266 N   0  0  0  0  0  0  0  0  0  0  0  0
   19.2608  -14.0957  -18.6210 C   0  0  0  0  0  0  0  0  0  0  0  0
   20.2732  -13.0188  -18.6751 C   0  0  0  0  0  0  0  0  0  0  0  0
   21.4676  -13.2786  -18.3922 O   0  0  0  0  0  0  0  0  0  0  0  0
   19.9677  -11.6871  -19.0343 N   0  0  0  0  0  0  0  0  0  0  0  0
   20.9279  -10.6242  -19.1274 C   0  0  1  0  0  0  0  0  0  0  0  0
   21.1833  -10.1479  -20.5256 C   0  0  0  0  0  0  0  0  0  0  0  0
   22.2075   -9.0246  -20.5274 C   0  0  0  0  0  0  0  0  0  0  0  0
   22.8980   -8.9329  -21.8418 C   0  0  0  0  0  0  0  0  0  0  0  0
   24.0443   -9.4217  -22.0302 O   0  0  0  0  0  0  0  0  0  0  0  0
   20.4522   -9.5168  -18.2635 C   0  0  0  0  0  0  0  0  0  0  0  0
   19.2325   -9.2339  -18.2879 O   0  0  0  0  0  0  0  0  0  0  0  0
   22.2465   -8.2848  -22.8867 O   0  0  0  0  0  0  0  0  0  0  0  0
   21.2956   -8.7671  -17.4184 N   0  0  0  0  0  0  0  0  0  0  0  0
   20.7421   -7.7976  -16.4402 C   0  0  1  0  0  0  0  0  0  0  0  0
   20.0711   -8.5234  -15.3301 C   0  0  0  0  0  0  0  0  0  0  0  0
   19.5059   -7.6017  -14.3126 C   0  0  0  0  0  0  0  0  0  0  0  0
   18.8509   -8.2671  -13.1704 C   0  0  0  0  0  0  0  0  0  0  0  0
   19.4720   -8.6138  -12.1593 O   0  0  0  0  0  0  0  0  0  0  0  0
   21.8280   -6.9406  -15.9331 C   0  0  0  0  0  0  0  0  0  0  0  0
   23.0428   -7.2987  -16.1125 O   0  0  0  0  0  0  0  0  0  0  0  0
   17.4838   -8.5168  -13.2270 O   0  0  0  0  0  0  0  0  0  0  0  0
   21.6584   -5.7521  -15.2652 O   0  0  0  0  0  0  0  0  0  0  0  0
  2  1  1  0
  3  5  1  0
  3  2  1  0
  4  3  2  0
  6  7  1  6
  6  5  1  0
  8  7  1  0
  9  8  1  0
 10  9  2  0
 11 14  1  0
 11  6  1  0
 12 11  2  0
 13  9  1  0
 15 14  1  0
 15 16  1  1
 16 17  1  0
 17 18  1  0
 18 22  1  0
 19 18  2  0
 20 15  1  0
 21 20  2  0
 23 20  1  0
M  END
$$$$
