GEE.pdb
     RDKit          3D

 23 22  0  0  1  0  0  0  0  0999 V2000
   17.0407  -14.4724  -14.4338 N   0  0  0  0  0  0  0  0  0  0  0  0
   16.0594  -13.4194  -14.2698 C   0  0  0  0  0  0  0  0  0  0  0  0
   16.5548  -12.2019  -14.9480 C   0  0  0  0  0  0  0  0  0  0  0  0
   17.6561  -12.2335  -15.5482 O   0  0  0  0  0  0  0  0  0  0  0  0
   15.8455  -10.9801  -14.9599 N   0  0  0  0  0  0  0  0  0  0  0  0
   16.2229   -9.8227  -15.7204 C   0  0  1  0  0  0  0  0  0  0  0  0
   15.0823   -9.1520  -16.4250 C   0  0  0  0  0  0  0  0  0  0  0  0
   14.6897   -9.9342  -17.6679 C   0  0  0  0  0  0  0  0  0  0  0  0
   13.5756   -9.2644  -18.3911 C   0  0  0  0  0  0  0  0  0  0  0  0
   13.7747   -8.5461  -19.4074 O   0  0  0  0  0  0  0  0  0  0  0  0
   16.9061   -8.8856  -14.7962 C   0  0  0  0  0  0  0  0  0  0  0  0
   16.4961   -8.8206  -13.6148 O   0  0  0  0  0  0  0  0  0  0  0  0
   12.2788   -9.4453  -17.9201 O   0  0  0  0  0  0  0  0  0  0  0  0
   17.9893   -8.0660  -15.1740 N   0  0  0  0  0  0  0  0  0  0  0  0
   18.6840   -7.2030  -14.1861 C   0  0  1  0  0  0  0  0  0  0  0  0
   20.1199   -7.0722  -14.5474 C   0  0  0  0  0  0  0  0  0  0  0  0
   20.8618   -6.1955  -13.6064 C   0  0  0  0  0  0  0  0  0  0  0  0
   22.2683   -5.9437  -13.9732 C   0  0  0  0  0  0  0  0  0  0  0  0
   22.7923   -4.8290  -13.8669 O   0  0  0  0  0  0  0  0  0  0  0  0
   18.0269   -5.8851  -14.1405 C   0  0  0  0  0  0  0  0  0  0  0  0
   17.4367   -5.4441  -15.1862 O   0  0  0  0  0  0  0  0  0  0  0  0
   23.0391   -6.9952  -14.4574 O   0  0  0  0  0  0  0  0  0  0  0  0
   17.9822   -5.0551  -13.0466 O   0  0  0  0  0  0  0  0  0  0  0  0
  2  1  1  0
  3  5  1  0
  3  2  1  0
  4  3  2  0
  6  7  1  1
  6  5  1  0
  8  7  1  0
  9  8  1  0
 10  9  2  0
 11 14  1  0
 11  6  1  0
 12 11  2  0
 13  9  1  0
 15 14  1  0
 15 16  1  6
 16 17  1  0
 17 18  1  0
 18 22  1  0
 19 18  2  0
 20 15  1  0
 21 20  2  0
 23 20  1  0
M  END
$$$$
