GEE.pdb
     RDKit          3D

 23 22  0  0  1  0  0  0  0  0999 V2000
   13.8442  -11.5684  -10.3165 N   0  0  0  0  0  0  0  0  0  0  0  0
   14.5932  -10.8479   -9.3073 C   0  0  0  0  0  0  0  0  0  0  0  0
   14.6449   -9.4193   -9.6872 C   0  0  0  0  0  0  0  0  0  0  0  0
   14.1543   -9.0529  -10.7823 O   0  0  0  0  0  0  0  0  0  0  0  0
   15.2264   -8.4226   -8.8722 N   0  0  0  0  0  0  0  0  0  0  0  0
   15.2507   -7.0219   -9.1847 C   0  0  1  0  0  0  0  0  0  0  0  0
   14.8265   -6.1330   -8.0546 C   0  0  0  0  0  0  0  0  0  0  0  0
   14.7156   -4.6912   -8.5232 C   0  0  0  0  0  0  0  0  0  0  0  0
   14.1780   -3.8186   -7.4450 C   0  0  0  0  0  0  0  0  0  0  0  0
   13.1228   -4.1041   -6.8179 O   0  0  0  0  0  0  0  0  0  0  0  0
   16.6224   -6.6905   -9.6400 C   0  0  0  0  0  0  0  0  0  0  0  0
   17.5457   -6.7176   -8.7944 O   0  0  0  0  0  0  0  0  0  0  0  0
   14.8718   -2.6543   -7.1296 O   0  0  0  0  0  0  0  0  0  0  0  0
   16.9432   -6.3475  -10.9694 N   0  0  0  0  0  0  0  0  0  0  0  0
   18.3209   -5.9483  -11.3514 C   0  0  1  0  0  0  0  0  0  0  0  0
   18.9882   -7.0595  -12.0789 C   0  0  0  0  0  0  0  0  0  0  0  0
   20.3538   -6.6969  -12.5348 C   0  0  0  0  0  0  0  0  0  0  0  0
   21.0625   -7.7594  -13.2730 C   0  0  0  0  0  0  0  0  0  0  0  0
   21.8596   -7.5147  -14.1858 O   0  0  0  0  0  0  0  0  0  0  0  0
   18.2654   -4.7308  -12.1792 C   0  0  0  0  0  0  0  0  0  0  0  0
   19.3191   -4.0182  -12.3148 O   0  0  0  0  0  0  0  0  0  0  0  0
   20.8297   -9.0882  -12.9346 O   0  0  0  0  0  0  0  0  0  0  0  0
   17.1553   -4.2705  -12.8449 O   0  0  0  0  0  0  0  0  0  0  0  0
  2  1  1  0
  3  5  1  0
  3  2  1  0
  4  3  2  0
  6  7  1  1
  6  5  1  0
  8  7  1  0
  9  8  1  0
 10  9  2  0
 11 14  1  0
 11  6  1  0
 12 11  2  0
 13  9  1  0
 15 14  1  0
 15 16  1  6
 16 17  1  0
 17 18  1  0
 18 22  1  0
 19 18  2  0
 20 15  1  0
 21 20  2  0
 23 20  1  0
M  END
$$$$
