GEE.pdb
     RDKit          3D

 23 22  0  0  1  0  0  0  0  0999 V2000
   14.4486  -11.4912  -10.4082 N   0  0  0  0  0  0  0  0  0  0  0  0
   15.1249  -10.6528   -9.4395 C   0  0  0  0  0  0  0  0  0  0  0  0
   15.1507   -9.2654   -9.9514 C   0  0  0  0  0  0  0  0  0  0  0  0
   14.5579   -8.9907  -11.0225 O   0  0  0  0  0  0  0  0  0  0  0  0
   15.8176   -8.2095   -9.2910 N   0  0  0  0  0  0  0  0  0  0  0  0
   15.7152   -6.8242   -9.6529 C   0  0  1  0  0  0  0  0  0  0  0  0
   15.2469   -5.9324   -8.5426 C   0  0  0  0  0  0  0  0  0  0  0  0
   15.0064   -4.5223   -9.0570 C   0  0  0  0  0  0  0  0  0  0  0  0
   14.2865   -3.7006   -8.0473 C   0  0  0  0  0  0  0  0  0  0  0  0
   14.6332   -3.6753   -6.8359 O   0  0  0  0  0  0  0  0  0  0  0  0
   17.0417   -6.3965  -10.1592 C   0  0  0  0  0  0  0  0  0  0  0  0
   18.0342   -6.5490   -9.4110 O   0  0  0  0  0  0  0  0  0  0  0  0
   13.1987   -2.9413   -8.4673 O   0  0  0  0  0  0  0  0  0  0  0  0
   17.2460   -5.8292  -11.4336 N   0  0  0  0  0  0  0  0  0  0  0  0
   18.6076   -5.4874  -11.9158 C   0  0  1  0  0  0  0  0  0  0  0  0
   19.1456   -6.5967  -12.7460 C   0  0  0  0  0  0  0  0  0  0  0  0
   20.2751   -7.2995  -12.0867 C   0  0  0  0  0  0  0  0  0  0  0  0
   20.8060   -8.4553  -12.8341 C   0  0  0  0  0  0  0  0  0  0  0  0
   20.0774   -9.3510  -13.2759 O   0  0  0  0  0  0  0  0  0  0  0  0
   18.5537   -4.2301  -12.6821 C   0  0  0  0  0  0  0  0  0  0  0  0
   17.4322   -3.8302  -13.1495 O   0  0  0  0  0  0  0  0  0  0  0  0
   22.1764   -8.5468  -13.0532 O   0  0  0  0  0  0  0  0  0  0  0  0
   19.6266   -3.4153  -12.9515 O   0  0  0  0  0  0  0  0  0  0  0  0
  2  1  1  0
  3  5  1  0
  3  2  1  0
  4  3  2  0
  6  7  1  1
  6  5  1  0
  8  7  1  0
  9  8  1  0
 10  9  2  0
 11 14  1  0
 11  6  1  0
 12 11  2  0
 13  9  1  0
 15 14  1  0
 15 16  1  6
 16 17  1  0
 17 18  1  0
 18 22  1  0
 19 18  2  0
 20 15  1  0
 21 20  2  0
 23 20  1  0
M  END
$$$$
