GEE.pdb
     RDKit          3D

 23 22  0  0  1  0  0  0  0  0999 V2000
   23.3859  -10.0749  -19.9839 N   0  0  0  0  0  0  0  0  0  0  0  0
   22.1586  -10.8085  -19.7515 C   0  0  0  0  0  0  0  0  0  0  0  0
   21.2137   -9.9314  -19.0266 C   0  0  0  0  0  0  0  0  0  0  0  0
   20.3982   -9.2320  -19.6747 O   0  0  0  0  0  0  0  0  0  0  0  0
   21.1748   -9.8331  -17.6178 N   0  0  0  0  0  0  0  0  0  0  0  0
   20.2618   -9.0065  -16.8805 C   0  0  1  0  0  0  0  0  0  0  0  0
   19.4209   -9.7531  -15.8891 C   0  0  0  0  0  0  0  0  0  0  0  0
   18.5365   -8.7930  -15.1102 C   0  0  0  0  0  0  0  0  0  0  0  0
   17.6755   -9.5247  -14.1427 C   0  0  0  0  0  0  0  0  0  0  0  0
   17.6185   -9.2060  -12.9247 O   0  0  0  0  0  0  0  0  0  0  0  0
   21.0575   -7.9463  -16.2159 C   0  0  0  0  0  0  0  0  0  0  0  0
   22.1033   -8.2844  -15.6157 O   0  0  0  0  0  0  0  0  0  0  0  0
   16.9150  -10.5920  -14.6106 O   0  0  0  0  0  0  0  0  0  0  0  0
   20.7021   -6.5820  -16.2229 N   0  0  0  0  0  0  0  0  0  0  0  0
   21.5668   -5.5569  -15.5867 C   0  0  1  0  0  0  0  0  0  0  0  0
   21.1561   -4.1994  -16.0314 C   0  0  0  0  0  0  0  0  0  0  0  0
   22.0264   -3.1343  -15.4723 C   0  0  0  0  0  0  0  0  0  0  0  0
   21.6679   -1.7633  -15.8823 C   0  0  0  0  0  0  0  0  0  0  0  0
   20.7989   -1.5302  -16.7302 O   0  0  0  0  0  0  0  0  0  0  0  0
   21.4788   -5.6838  -14.1214 C   0  0  0  0  0  0  0  0  0  0  0  0
   22.4737   -5.3254  -13.4018 O   0  0  0  0  0  0  0  0  0  0  0  0
   22.3284   -0.6883  -15.2970 O   0  0  0  0  0  0  0  0  0  0  0  0
   20.3946   -6.1640  -13.4276 O   0  0  0  0  0  0  0  0  0  0  0  0
  2  1  1  0
  3  5  1  0
  3  2  1  0
  4  3  2  0
  6  7  1  1
  6  5  1  0
  8  7  1  0
  9  8  1  0
 10  9  2  0
 11 14  1  0
 11  6  1  0
 12 11  2  0
 13  9  1  0
 15 14  1  0
 15 16  1  1
 16 17  1  0
 17 18  1  0
 18 22  1  0
 19 18  2  0
 20 15  1  0
 21 20  2  0
 23 20  1  0
M  END
$$$$
