SVM.pdb
     RDKit          3D

 22 21  0  0  1  0  0  0  0  0999 V2000
   20.6280  -15.9935  -17.7935 O   0  0  0  0  0  0  0  0  0  0  0  0
   21.4438  -17.0898  -17.4329 C   0  0  0  0  0  0  0  0  0  0  0  0
   22.8738  -16.7018  -17.7429 C   0  0  2  0  0  0  0  0  0  0  0  0
   23.0734  -16.7494  -19.1841 N   0  0  0  0  0  0  0  0  0  0  0  0
   23.8401  -17.6404  -17.1272 C   0  0  0  0  0  0  0  0  0  0  0  0
   24.1882  -18.7041  -17.6873 O   0  0  0  0  0  0  0  0  0  0  0  0
   27.2471  -16.6455  -15.9450 C   0  0  0  0  0  0  0  0  0  0  0  0
   26.6251  -17.4135  -14.8385 C   0  0  2  0  0  0  0  0  0  0  0  0
   27.5455  -18.4047  -14.1802 C   0  0  0  0  0  0  0  0  0  0  0  0
   25.3819  -18.1983  -15.2765 C   0  0  2  0  0  0  0  0  0  0  0  0
   24.3993  -17.3414  -15.8637 N   0  0  0  0  0  0  0  0  0  0  0  0
   24.8479  -18.9930  -14.1333 C   0  0  0  0  0  0  0  0  0  0  0  0
   24.0781  -18.4707  -13.2880 O   0  0  0  0  0  0  0  0  0  0  0  0
   27.3372  -20.3272   -8.7290 C   0  0  0  0  0  0  0  0  0  0  0  0
   25.5979  -20.6082   -8.7718 S   0  0  0  0  0  0  0  0  0  0  0  0
   24.8643  -21.2389  -10.2695 C   0  0  0  0  0  0  0  0  0  0  0  0
   25.3564  -20.5696  -11.5098 C   0  0  0  0  0  0  0  0  0  0  0  0
   24.7678  -21.1084  -12.7419 C   0  0  2  0  0  0  0  0  0  0  0  0
   25.1727  -20.3586  -13.9381 N   0  0  0  0  0  0  0  0  0  0  0  0
   23.3173  -21.1737  -12.7371 C   0  0  0  0  0  0  0  0  0  0  0  0
   22.6074  -22.2343  -13.2192 O   0  0  0  0  0  0  0  0  0  0  0  0
   22.6491  -20.2010  -12.2623 O   0  0  0  0  0  0  0  0  0  0  0  0
  2  1  1  0
  2  3  1  0
  3  4  1  6
  5 11  1  0
  5  3  1  0
  6  5  2  0
  8  7  1  6
  8 10  1  0
  9  8  1  0
 10 11  1  1
 10 12  1  0
 12 19  1  0
 12 13  2  0
 14 15  1  0
 16 17  1  0
 16 15  1  0
 18 20  1  0
 18 17  1  1
 19 18  1  0
 20 21  1  0
 22 20  2  0
M  END
$$$$
