SVM.pdb
     RDKit          3D

 22 21  0  0  1  0  0  0  0  0999 V2000
   28.1496  -19.4952  -16.9637 O   0  0  0  0  0  0  0  0  0  0  0  0
   27.0461  -20.1349  -16.3550 C   0  0  0  0  0  0  0  0  0  0  0  0
   27.5952  -21.0239  -15.2597 C   0  0  2  0  0  0  0  0  0  0  0  0
   28.1887  -22.2069  -15.8658 N   0  0  0  0  0  0  0  0  0  0  0  0
   26.5274  -21.4812  -14.3406 C   0  0  0  0  0  0  0  0  0  0  0  0
   25.8566  -22.5153  -14.5575 O   0  0  0  0  0  0  0  0  0  0  0  0
   26.7041  -21.1548  -10.3118 C   0  0  0  0  0  0  0  0  0  0  0  0
   25.4202  -20.6579  -10.8647 C   0  0  2  0  0  0  0  0  0  0  0  0
   24.2078  -21.0622  -10.0712 C   0  0  0  0  0  0  0  0  0  0  0  0
   25.1694  -21.1166  -12.3068 C   0  0  2  0  0  0  0  0  0  0  0  0
   26.2418  -20.7371  -13.1731 N   0  0  0  0  0  0  0  0  0  0  0  0
   23.8429  -20.6249  -12.7782 C   0  0  0  0  0  0  0  0  0  0  0  0
   23.6237  -19.3953  -12.9201 O   0  0  0  0  0  0  0  0  0  0  0  0
   19.9301  -23.7854  -17.0831 C   0  0  0  0  0  0  0  0  0  0  0  0
   19.0890  -22.2975  -16.6536 S   0  0  0  0  0  0  0  0  0  0  0  0
   19.6829  -21.3410  -15.2710 C   0  0  0  0  0  0  0  0  0  0  0  0
   21.0246  -21.7678  -14.7750 C   0  0  0  0  0  0  0  0  0  0  0  0
   21.4778  -21.0257  -13.5923 C   0  0  2  0  0  0  0  0  0  0  0  0
   22.7724  -21.5007  -13.0872 N   0  0  0  0  0  0  0  0  0  0  0  0
   20.5439  -21.0374  -12.4805 C   0  0  0  0  0  0  0  0  0  0  0  0
   19.4713  -20.1996  -12.3863 O   0  0  0  0  0  0  0  0  0  0  0  0
   20.7136  -21.8654  -11.5300 O   0  0  0  0  0  0  0  0  0  0  0  0
  2  1  1  0
  2  3  1  0
  3  4  1  6
  5 11  1  0
  5  3  1  0
  6  5  2  0
  8  7  1  1
  8 10  1  0
  9  8  1  0
 10 11  1  6
 10 12  1  0
 12 19  1  0
 12 13  2  0
 14 15  1  0
 16 17  1  0
 16 15  1  0
 18 20  1  0
 18 17  1  6
 19 18  1  0
 20 21  1  0
 22 20  2  0
M  END
$$$$
