SVM.pdb
     RDKit          3D

 22 21  0  0  1  0  0  0  0  0999 V2000
   20.1049  -18.4722  -12.0472 O   0  0  0  0  0  0  0  0  0  0  0  0
   21.0966  -19.0450  -11.2190 C   0  0  0  0  0  0  0  0  0  0  0  0
   21.7438  -20.1634  -12.0075 C   0  0  2  0  0  0  0  0  0  0  0  0
   20.7783  -21.2391  -12.1794 N   0  0  0  0  0  0  0  0  0  0  0  0
   22.9161  -20.7249  -11.2973 C   0  0  0  0  0  0  0  0  0  0  0  0
   22.8000  -21.5581  -10.3707 O   0  0  0  0  0  0  0  0  0  0  0  0
   25.9534  -22.0867  -13.2380 C   0  0  0  0  0  0  0  0  0  0  0  0
   26.4460  -21.2308  -12.1307 C   0  0  2  0  0  0  0  0  0  0  0  0
   27.6234  -21.7995  -11.3869 C   0  0  0  0  0  0  0  0  0  0  0  0
   25.3703  -20.9309  -11.0790 C   0  0  2  0  0  0  0  0  0  0  0  0
   24.2190  -20.3179  -11.6649 N   0  0  0  0  0  0  0  0  0  0  0  0
   25.9513  -20.1262   -9.9661 C   0  0  0  0  0  0  0  0  0  0  0  0
   26.1075  -18.8842  -10.0810 O   0  0  0  0  0  0  0  0  0  0  0  0
   26.1817  -20.1475   -2.7064 C   0  0  0  0  0  0  0  0  0  0  0  0
   27.5786  -20.5674   -3.6955 S   0  0  0  0  0  0  0  0  0  0  0  0
   27.7340  -19.8435   -5.3175 C   0  0  0  0  0  0  0  0  0  0  0  0
   26.9980  -20.5871   -6.3822 C   0  0  0  0  0  0  0  0  0  0  0  0
   27.0802  -19.9554   -7.7048 C   0  0  2  0  0  0  0  0  0  0  0  0
   26.3538  -20.7060   -8.7372 N   0  0  0  0  0  0  0  0  0  0  0  0
   28.4332  -19.7450   -8.1878 C   0  0  0  0  0  0  0  0  0  0  0  0
   29.1694  -18.6304   -7.9105 O   0  0  0  0  0  0  0  0  0  0  0  0
   28.9844  -20.6345   -8.9109 O   0  0  0  0  0  0  0  0  0  0  0  0
  2  1  1  0
  2  3  1  0
  3  4  1  1
  5 11  1  0
  5  3  1  0
  6  5  2  0
  8  7  1  6
  8 10  1  0
  9  8  1  0
 10 11  1  6
 10 12  1  0
 12 19  1  0
 12 13  2  0
 14 15  1  0
 16 17  1  0
 16 15  1  0
 18 20  1  0
 18 17  1  1
 19 18  1  0
 20 21  1  0
 22 20  2  0
M  END
$$$$
