SVM.pdb
     RDKit          3D

 22 21  0  0  1  0  0  0  0  0999 V2000
   17.1156  -11.1380  -18.8509 O   0  0  0  0  0  0  0  0  0  0  0  0
   17.7222  -10.5631  -17.7112 C   0  0  0  0  0  0  0  0  0  0  0  0
   18.7625  -11.5455  -17.2171 C   0  0  2  0  0  0  0  0  0  0  0  0
   18.0870  -12.7239  -16.6934 N   0  0  0  0  0  0  0  0  0  0  0  0
   19.5766  -10.9732  -16.1200 C   0  0  0  0  0  0  0  0  0  0  0  0
   19.1720  -10.9371  -14.9363 O   0  0  0  0  0  0  0  0  0  0  0  0
   23.8355  -10.2792  -16.5277 C   0  0  0  0  0  0  0  0  0  0  0  0
   23.0422  -10.4693  -15.2883 C   0  0  2  0  0  0  0  0  0  0  0  0
   22.8447  -11.9078  -14.8955 C   0  0  0  0  0  0  0  0  0  0  0  0
   21.6438   -9.8439  -15.3683 C   0  0  2  0  0  0  0  0  0  0  0  0
   20.8576  -10.4449  -16.4004 N   0  0  0  0  0  0  0  0  0  0  0  0
   21.7512   -8.3635  -15.5103 C   0  0  0  0  0  0  0  0  0  0  0  0
   21.6504   -7.8141  -16.6365 O   0  0  0  0  0  0  0  0  0  0  0  0
   19.1675   -1.6081  -16.2214 C   0  0  0  0  0  0  0  0  0  0  0  0
   19.3124   -3.3534  -16.0240 S   0  0  0  0  0  0  0  0  0  0  0  0
   20.7924   -4.0161  -15.2827 C   0  0  0  0  0  0  0  0  0  0  0  0
   20.7939   -5.5044  -15.1670 C   0  0  0  0  0  0  0  0  0  0  0  0
   21.9988   -6.0431  -14.5244 C   0  0  2  0  0  0  0  0  0  0  0  0
   21.9699   -7.5065  -14.4030 N   0  0  0  0  0  0  0  0  0  0  0  0
   22.2709   -5.5003  -13.2055 C   0  0  0  0  0  0  0  0  0  0  0  0
   22.7408   -4.2377  -12.9906 O   0  0  0  0  0  0  0  0  0  0  0  0
   22.0678   -6.2222  -12.1781 O   0  0  0  0  0  0  0  0  0  0  0  0
  2  1  1  0
  2  3  1  0
  3  4  1  1
  5 11  1  0
  5  3  1  0
  6  5  2  0
  8  7  1  6
  8 10  1  0
  9  8  1  0
 10 11  1  6
 10 12  1  0
 12 19  1  0
 12 13  2  0
 14 15  1  0
 16 17  1  0
 16 15  1  0
 18 20  1  0
 18 17  1  1
 19 18  1  0
 20 21  1  0
 22 20  2  0
M  END
$$$$
