SVM.pdb
     RDKit          3D

 22 21  0  0  1  0  0  0  0  0999 V2000
   27.1969   -6.6940  -18.9541 O   0  0  0  0  0  0  0  0  0  0  0  0
   25.8728   -7.1494  -18.7620 C   0  0  0  0  0  0  0  0  0  0  0  0
   25.9593   -8.5884  -18.3001 C   0  0  2  0  0  0  0  0  0  0  0  0
   26.2624   -9.4339  -19.4457 N   0  0  0  0  0  0  0  0  0  0  0  0
   24.6759   -9.0561  -17.7273 C   0  0  0  0  0  0  0  0  0  0  0  0
   23.8148   -9.6506  -18.4138 O   0  0  0  0  0  0  0  0  0  0  0  0
   24.1182  -11.2643  -14.6664 C   0  0  0  0  0  0  0  0  0  0  0  0
   23.3439  -10.0117  -14.4856 C   0  0  2  0  0  0  0  0  0  0  0  0
   21.9742  -10.2114  -13.8966 C   0  0  0  0  0  0  0  0  0  0  0  0
   23.1465   -9.2334  -15.7927 C   0  0  2  0  0  0  0  0  0  0  0  0
   24.3964   -8.8326  -16.3596 N   0  0  0  0  0  0  0  0  0  0  0  0
   22.2170   -8.0883  -15.5725 C   0  0  0  0  0  0  0  0  0  0  0  0
   22.5208   -7.1517  -14.7911 O   0  0  0  0  0  0  0  0  0  0  0  0
   15.8193   -4.0144  -18.1283 C   0  0  0  0  0  0  0  0  0  0  0  0
   17.0943   -5.2206  -18.2874 S   0  0  0  0  0  0  0  0  0  0  0  0
   18.1643   -5.5311  -16.8954 C   0  0  0  0  0  0  0  0  0  0  0  0
   19.1951   -6.5804  -17.1500 C   0  0  0  0  0  0  0  0  0  0  0  0
   20.0234   -6.8879  -15.9777 C   0  0  2  0  0  0  0  0  0  0  0  0
   20.9600   -7.9929  -16.2200 N   0  0  0  0  0  0  0  0  0  0  0  0
   19.2716   -7.2075  -14.7773 C   0  0  0  0  0  0  0  0  0  0  0  0
   18.9068   -6.2802  -13.8454 O   0  0  0  0  0  0  0  0  0  0  0  0
   18.9221   -8.4111  -14.5601 O   0  0  0  0  0  0  0  0  0  0  0  0
  2  1  1  0
  2  3  1  0
  3  4  1  6
  5 11  1  0
  5  3  1  0
  6  5  2  0
  8  7  1  6
  8 10  1  0
  9  8  1  0
 10 11  1  1
 10 12  1  0
 12 19  1  0
 12 13  2  0
 14 15  1  0
 16 17  1  0
 16 15  1  0
 18 20  1  0
 18 17  1  6
 19 18  1  0
 20 21  1  0
 22 20  2  0
M  END
$$$$
