SVM.pdb
     RDKit          3D

 22 21  0  0  1  0  0  0  0  0999 V2000
   18.2905   -9.6999  -19.0806 O   0  0  0  0  0  0  0  0  0  0  0  0
   19.1168  -10.7607  -19.5159 C   0  0  0  0  0  0  0  0  0  0  0  0
   19.2238  -11.7418  -18.3681 C   0  0  2  0  0  0  0  0  0  0  0  0
   17.8927  -12.2326  -18.0417 N   0  0  0  0  0  0  0  0  0  0  0  0
   19.7740  -11.1010  -17.1513 C   0  0  0  0  0  0  0  0  0  0  0  0
   19.0469  -10.7412  -16.1984 O   0  0  0  0  0  0  0  0  0  0  0  0
   22.6946  -12.2830  -14.8995 C   0  0  0  0  0  0  0  0  0  0  0  0
   22.9666  -10.9062  -15.3808 C   0  0  2  0  0  0  0  0  0  0  0  0
   23.5632   -9.9952  -14.3429 C   0  0  0  0  0  0  0  0  0  0  0  0
   21.7148  -10.1978  -15.9139 C   0  0  2  0  0  0  0  0  0  0  0  0
   21.1662  -10.8799  -17.0445 N   0  0  0  0  0  0  0  0  0  0  0  0
   22.0162   -8.7644  -16.1930 C   0  0  0  0  0  0  0  0  0  0  0  0
   22.7215   -8.4334  -17.1795 O   0  0  0  0  0  0  0  0  0  0  0  0
   19.9451   -1.7480  -18.1762 C   0  0  0  0  0  0  0  0  0  0  0  0
   19.7184   -3.4147  -17.6505 S   0  0  0  0  0  0  0  0  0  0  0  0
   21.0250   -4.2153  -16.7389 C   0  0  0  0  0  0  0  0  0  0  0  0
   20.7658   -5.6579  -16.4559 C   0  0  0  0  0  0  0  0  0  0  0  0
   21.8154   -6.2975  -15.6532 C   0  0  2  0  0  0  0  0  0  0  0  0
   21.5336   -7.7119  -15.3758 N   0  0  0  0  0  0  0  0  0  0  0  0
   22.0808   -5.6473  -14.3823 C   0  0  0  0  0  0  0  0  0  0  0  0
   22.8380   -4.5196  -14.2545 O   0  0  0  0  0  0  0  0  0  0  0  0
   21.5914   -6.1368  -13.3151 O   0  0  0  0  0  0  0  0  0  0  0  0
  2  1  1  0
  2  3  1  0
  3  4  1  1
  5 11  1  0
  5  3  1  0
  6  5  2  0
  8  7  1  1
  8 10  1  0
  9  8  1  0
 10 11  1  6
 10 12  1  0
 12 19  1  0
 12 13  2  0
 14 15  1  0
 16 17  1  0
 16 15  1  0
 18 20  1  0
 18 17  1  1
 19 18  1  0
 20 21  1  0
 22 20  2  0
M  END
$$$$
