SVM.pdb
     RDKit          3D

 22 21  0  0  1  0  0  0  0  0999 V2000
   19.4962  -22.2402  -10.4529 O   0  0  0  0  0  0  0  0  0  0  0  0
   19.1202  -21.0466  -11.1097 C   0  0  0  0  0  0  0  0  0  0  0  0
   19.1323  -21.3333  -12.5961 C   0  0  2  0  0  0  0  0  0  0  0  0
   18.4774  -22.6112  -12.8351 N   0  0  0  0  0  0  0  0  0  0  0  0
   20.5135  -21.4343  -13.1216 C   0  0  0  0  0  0  0  0  0  0  0  0
   21.0616  -22.5353  -13.3531 O   0  0  0  0  0  0  0  0  0  0  0  0
   21.7714  -19.5336  -16.2368 C   0  0  0  0  0  0  0  0  0  0  0  0
   22.7017  -19.2957  -15.1058 C   0  0  2  0  0  0  0  0  0  0  0  0
   24.1558  -19.2963  -15.4909 C   0  0  0  0  0  0  0  0  0  0  0  0
   22.5500  -20.3231  -13.9768 C   0  0  2  0  0  0  0  0  0  0  0  0
   21.2537  -20.2573  -13.3769 N   0  0  0  0  0  0  0  0  0  0  0  0
   23.6544  -20.1649  -12.9874 C   0  0  0  0  0  0  0  0  0  0  0  0
   23.6506  -19.2168  -12.1621 O   0  0  0  0  0  0  0  0  0  0  0  0
   27.3225  -19.3368   -7.4976 C   0  0  0  0  0  0  0  0  0  0  0  0
   26.2642  -20.5333   -8.2420 S   0  0  0  0  0  0  0  0  0  0  0  0
   26.7928  -21.3341   -9.7448 C   0  0  0  0  0  0  0  0  0  0  0  0
   25.6899  -21.5673  -10.7234 C   0  0  0  0  0  0  0  0  0  0  0  0
   25.8789  -20.8678  -12.0002 C   0  0  2  0  0  0  0  0  0  0  0  0
   24.7523  -21.0587  -12.9228 N   0  0  0  0  0  0  0  0  0  0  0  0
   27.0921  -21.2305  -12.7108 C   0  0  0  0  0  0  0  0  0  0  0  0
   28.3448  -20.8967  -12.2857 O   0  0  0  0  0  0  0  0  0  0  0  0
   27.0086  -21.8962  -13.7915 O   0  0  0  0  0  0  0  0  0  0  0  0
  2  1  1  0
  2  3  1  0
  3  4  1  1
  5 11  1  0
  5  3  1  0
  6  5  2  0
  8  7  1  6
  8 10  1  0
  9  8  1  0
 10 11  1  1
 10 12  1  0
 12 19  1  0
 12 13  2  0
 14 15  1  0
 16 17  1  0
 16 15  1  0
 18 20  1  0
 18 17  1  1
 19 18  1  0
 20 21  1  0
 22 20  2  0
M  END
$$$$
