SVM.pdb
     RDKit          3D

 22 21  0  0  1  0  0  0  0  0999 V2000
   17.4694  -14.2029  -14.8265 O   0  0  0  0  0  0  0  0  0  0  0  0
   18.1769  -13.0707  -15.2904 C   0  0  0  0  0  0  0  0  0  0  0  0
   17.1578  -12.1200  -15.8814 C   0  0  2  0  0  0  0  0  0  0  0  0
   16.6758  -12.6687  -17.1407 N   0  0  0  0  0  0  0  0  0  0  0  0
   17.7511  -10.7940  -16.1702 C   0  0  0  0  0  0  0  0  0  0  0  0
   18.4458  -10.5802  -17.1891 O   0  0  0  0  0  0  0  0  0  0  0  0
   16.0135   -7.4349  -16.4428 C   0  0  0  0  0  0  0  0  0  0  0  0
   17.0869   -7.3151  -15.4256 C   0  0  2  0  0  0  0  0  0  0  0  0
   17.8522   -6.0213  -15.4841 C   0  0  0  0  0  0  0  0  0  0  0  0
   18.1262   -8.4399  -15.5136 C   0  0  2  0  0  0  0  0  0  0  0  0
   17.5361   -9.7205  -15.2759 N   0  0  0  0  0  0  0  0  0  0  0  0
   19.2716   -8.1524  -14.6031 C   0  0  0  0  0  0  0  0  0  0  0  0
   19.4451   -8.8215  -13.5532 O   0  0  0  0  0  0  0  0  0  0  0  0
   26.2611  -10.1614  -14.4834 C   0  0  0  0  0  0  0  0  0  0  0  0
   24.6229   -9.8560  -15.0569 S   0  0  0  0  0  0  0  0  0  0  0  0
   23.7220   -8.4691  -14.3905 C   0  0  0  0  0  0  0  0  0  0  0  0
   22.3139   -8.3753  -14.8771 C   0  0  0  0  0  0  0  0  0  0  0  0
   21.6034   -7.1844  -14.3955 C   0  0  2  0  0  0  0  0  0  0  0  0
   20.2130   -7.1259  -14.8650 N   0  0  0  0  0  0  0  0  0  0  0  0
   22.2357   -5.9247  -14.7440 C   0  0  0  0  0  0  0  0  0  0  0  0
   23.2097   -5.3351  -13.9922 O   0  0  0  0  0  0  0  0  0  0  0  0
   21.8795   -5.3182  -15.8038 O   0  0  0  0  0  0  0  0  0  0  0  0
  2  1  1  0
  2  3  1  0
  3  4  1  6
  5 11  1  0
  5  3  1  0
  6  5  2  0
  8  7  1  6
  8 10  1  0
  9  8  1  0
 10 11  1  1
 10 12  1  0
 12 19  1  0
 12 13  2  0
 14 15  1  0
 16 17  1  0
 16 15  1  0
 18 20  1  0
 18 17  1  6
 19 18  1  0
 20 21  1  0
 22 20  2  0
M  END
$$$$
