SVM.pdb
     RDKit          3D

 22 21  0  0  1  0  0  0  0  0999 V2000
   24.3247   -9.8393  -21.8154 O   0  0  0  0  0  0  0  0  0  0  0  0
   24.3798   -9.1261  -20.5965 C   0  0  0  0  0  0  0  0  0  0  0  0
   25.0801   -7.8142  -20.8793 C   0  0  2  0  0  0  0  0  0  0  0  0
   26.5121   -8.0562  -20.9794 N   0  0  0  0  0  0  0  0  0  0  0  0
   24.8680   -6.8355  -19.7879 C   0  0  0  0  0  0  0  0  0  0  0  0
   25.6704   -6.7125  -18.8353 O   0  0  0  0  0  0  0  0  0  0  0  0
   24.1215   -3.0945  -20.3267 C   0  0  0  0  0  0  0  0  0  0  0  0
   23.1043   -3.6648  -19.4094 C   0  0  2  0  0  0  0  0  0  0  0  0
   22.7390   -2.7687  -18.2577 C   0  0  0  0  0  0  0  0  0  0  0  0
   23.5302   -5.0062  -18.7993 C   0  0  2  0  0  0  0  0  0  0  0  0
   23.7257   -6.0029  -19.8057 N   0  0  0  0  0  0  0  0  0  0  0  0
   22.5560   -5.4254  -17.7510 C   0  0  0  0  0  0  0  0  0  0  0  0
   21.3664   -5.7012  -18.0489 O   0  0  0  0  0  0  0  0  0  0  0  0
   21.4256   -9.7011  -11.2477 C   0  0  0  0  0  0  0  0  0  0  0  0
   22.3535   -9.0295  -12.5870 S   0  0  0  0  0  0  0  0  0  0  0  0
   21.6676   -7.6686  -13.5127 C   0  0  0  0  0  0  0  0  0  0  0  0
   22.5582   -7.1719  -14.6029 C   0  0  0  0  0  0  0  0  0  0  0  0
   21.9889   -6.0525  -15.3631 C   0  0  2  0  0  0  0  0  0  0  0  0
   22.9098   -5.5341  -16.3830 N   0  0  0  0  0  0  0  0  0  0  0  0
   21.5606   -4.9289  -14.5493 C   0  0  0  0  0  0  0  0  0  0  0  0
   20.3656   -4.8843  -13.8925 O   0  0  0  0  0  0  0  0  0  0  0  0
   22.3239   -3.9189  -14.4262 O   0  0  0  0  0  0  0  0  0  0  0  0
  2  1  1  0
  2  3  1  0
  3  4  1  1
  5 11  1  0
  5  3  1  0
  6  5  2  0
  8  7  1  1
  8 10  1  0
  9  8  1  0
 10 11  1  6
 10 12  1  0
 12 19  1  0
 12 13  2  0
 14 15  1  0
 16 17  1  0
 16 15  1  0
 18 20  1  0
 18 17  1  1
 19 18  1  0
 20 21  1  0
 22 20  2  0
M  END
$$$$
