SVM.pdb
     RDKit          3D

 22 21  0  0  1  0  0  0  0  0999 V2000
   25.8856  -13.0455  -15.8098 O   0  0  0  0  0  0  0  0  0  0  0  0
   25.0315  -12.0047  -16.2398 C   0  0  0  0  0  0  0  0  0  0  0  0
   23.6108  -12.4590  -15.9815 C   0  0  2  0  0  0  0  0  0  0  0  0
   23.3148  -13.5945  -16.8431 N   0  0  0  0  0  0  0  0  0  0  0  0
   22.6311  -11.3934  -16.2950 C   0  0  0  0  0  0  0  0  0  0  0  0
   21.6477  -11.5890  -17.0441 O   0  0  0  0  0  0  0  0  0  0  0  0
   19.8672  -10.7456  -15.9992 C   0  0  0  0  0  0  0  0  0  0  0  0
   20.4442   -9.5810  -15.2836 C   0  0  2  0  0  0  0  0  0  0  0  0
   19.5464   -8.3748  -15.2413 C   0  0  0  0  0  0  0  0  0  0  0  0
   21.7775   -9.1105  -15.8788 C   0  0  2  0  0  0  0  0  0  0  0  0
   22.7957  -10.1044  -15.7382 N   0  0  0  0  0  0  0  0  0  0  0  0
   22.1663   -7.7964  -15.2911 C   0  0  0  0  0  0  0  0  0  0  0  0
   22.4162   -7.6868  -14.0640 O   0  0  0  0  0  0  0  0  0  0  0  0
   24.7173   -0.3556  -16.9520 C   0  0  0  0  0  0  0  0  0  0  0  0
   24.0324   -1.9173  -17.3969 S   0  0  0  0  0  0  0  0  0  0  0  0
   23.7025   -3.1100  -16.1133 C   0  0  0  0  0  0  0  0  0  0  0  0
   23.1373   -4.3965  -16.6170 C   0  0  0  0  0  0  0  0  0  0  0  0
   22.8823   -5.3812  -15.5586 C   0  0  2  0  0  0  0  0  0  0  0  0
   22.2738   -6.6166  -16.0689 N   0  0  0  0  0  0  0  0  0  0  0  0
   22.0454   -4.8968  -14.4754 C   0  0  0  0  0  0  0  0  0  0  0  0
   22.5385   -4.3730  -13.3162 O   0  0  0  0  0  0  0  0  0  0  0  0
   20.7798   -4.9529  -14.5898 O   0  0  0  0  0  0  0  0  0  0  0  0
  2  1  1  0
  2  3  1  0
  3  4  1  6
  5 11  1  0
  5  3  1  0
  6  5  2  0
  8  7  1  6
  8 10  1  0
  9  8  1  0
 10 11  1  1
 10 12  1  0
 12 19  1  0
 12 13  2  0
 14 15  1  0
 16 17  1  0
 16 15  1  0
 18 20  1  0
 18 17  1  6
 19 18  1  0
 20 21  1  0
 22 20  2  0
M  END
$$$$
