PRY.pdb
     RDKit          3D

 31 32  0  0  1  0  0  0  0  0999 V2000
   29.2593  -20.4054  -18.1244 N   0  0  0  0  0  0  0  0  0  0  0  0
   29.1544  -21.0376  -19.4014 C   0  0  0  0  0  0  0  0  0  0  0  0
   28.5635  -19.9652  -20.2834 C   0  0  0  0  0  0  0  0  0  0  0  0
   27.5129  -19.3745  -19.3362 C   0  0  0  0  0  0  0  0  0  0  0  0
   28.1319  -19.5449  -17.9499 C   0  0  1  0  0  0  0  0  0  0  0  0
   27.1196  -20.1231  -17.0132 C   0  0  0  0  0  0  0  0  0  0  0  0
   26.0420  -19.4814  -16.7812 O   0  0  0  0  0  0  0  0  0  0  0  0
   28.8362  -26.1315  -18.2275 N   0  0  0  0  0  0  0  0  0  0  0  0
   28.3845  -26.6390  -16.9811 C   0  0  0  0  0  0  0  0  0  0  0  0
   28.9340  -27.6617  -16.3961 N   0  0  0  0  0  0  0  0  0  0  0  0
   27.2777  -26.0523  -16.2706 N   0  0  0  0  0  0  0  0  0  0  0  0
   26.1309  -25.5303  -16.9506 C   0  0  0  0  0  0  0  0  0  0  0  0
   26.0658  -24.0051  -16.9158 C   0  0  0  0  0  0  0  0  0  0  0  0
   26.4252  -23.4644  -15.5851 C   0  0  0  0  0  0  0  0  0  0  0  0
   26.2466  -21.9514  -15.4919 C   0  0  2  0  0  0  0  0  0  0  0  0
   27.2935  -21.3534  -16.3652 N   0  0  0  0  0  0  0  0  0  0  0  0
   26.4500  -21.4526  -14.1324 C   0  0  0  0  0  0  0  0  0  0  0  0
   27.6361  -21.3340  -13.7097 O   0  0  0  0  0  0  0  0  0  0  0  0
   28.4793  -27.9903  -15.5146 O   0  0  0  0  0  0  0  0  0  0  0  0
   19.3441  -21.2701  -10.9376 C   0  0  0  0  0  0  0  0  0  0  0  0
   20.6498  -20.8519  -11.1191 C   0  0  0  0  0  0  0  0  0  0  0  0
   21.3494  -20.3464  -10.0452 C   0  0  0  0  0  0  0  0  0  0  0  0
   22.6510  -19.9279  -10.2182 C   0  0  0  0  0  0  0  0  0  0  0  0
   23.3280  -19.9758  -11.4141 C   0  0  0  0  0  0  0  0  0  0  0  0
   24.7063  -19.5068  -11.4963 C   0  0  1  0  0  0  0  0  0  0  0  0
   25.7104  -20.5276  -11.9010 N   0  0  0  0  0  0  0  0  0  0  0  0
   25.4332  -21.0739  -13.2137 C   0  0  0  0  0  0  0  0  0  0  0  0
   25.8354  -21.6342  -10.9491 O   0  0  0  0  0  0  0  0  0  0  0  0
   25.5331  -22.8313  -11.2442 C   0  0  0  0  0  0  0  0  0  0  0  0
   22.6042  -20.4895  -12.4867 C   0  0  0  0  0  0  0  0  0  0  0  0
   21.2991  -20.9138  -12.3320 O   0  0  0  0  0  0  0  0  0  0  0  0
  1  2  1  0
  3  2  1  0
  4  3  1  0
  5  4  1  0
  5  1  1  0
  6  7  2  0
  5  6  1  1
  9 11  1  0
  9  8  1  0
 10  9  2  0
 12 13  1  0
 12 11  1  0
 15 14  1  1
 14 13  1  0
 15 16  1  0
 16  6  1  0
 17 26  1  0
 17 15  1  0
 18 17  2  0
 20 19  1  0
 21 20  2  0
 22 21  1  0
 23 22  2  0
 23 29  1  0
 24 23  1  0
 25 24  1  6
 25 26  1  0
 27 31  1  0
 27 25  1  0
 28 27  2  0
 29 30  2  0
 30 20  1  0
M  END
$$$$
