PRY.pdb
     RDKit          3D

 31 32  0  0  1  0  0  0  0  0999 V2000
   27.4404  -23.1389  -18.0889 N   0  0  0  0  0  0  0  0  0  0  0  0
   26.8052  -24.4180  -18.0423 C   0  0  0  0  0  0  0  0  0  0  0  0
   25.3402  -24.0953  -18.2041 C   0  0  0  0  0  0  0  0  0  0  0  0
   25.2285  -22.8557  -17.3093 C   0  0  0  0  0  0  0  0  0  0  0  0
   26.5977  -22.1895  -17.4331 C   0  0  1  0  0  0  0  0  0  0  0  0
   27.1065  -21.8261  -16.0746 C   0  0  0  0  0  0  0  0  0  0  0  0
   27.5354  -22.7440  -15.2998 O   0  0  0  0  0  0  0  0  0  0  0  0
   25.6393  -16.6919  -17.7717 N   0  0  0  0  0  0  0  0  0  0  0  0
   24.8333  -16.4977  -16.6194 C   0  0  0  0  0  0  0  0  0  0  0  0
   23.5355  -16.4381  -16.6695 N   0  0  0  0  0  0  0  0  0  0  0  0
   25.4000  -16.3526  -15.3034 N   0  0  0  0  0  0  0  0  0  0  0  0
   26.7950  -16.5543  -15.0518 C   0  0  0  0  0  0  0  0  0  0  0  0
   27.2539  -17.9757  -15.3689 C   0  0  0  0  0  0  0  0  0  0  0  0
   27.7745  -18.6714  -14.1701 C   0  0  0  0  0  0  0  0  0  0  0  0
   27.5118  -20.1748  -14.1962 C   0  0  2  0  0  0  0  0  0  0  0  0
   27.1385  -20.5086  -15.5982 N   0  0  0  0  0  0  0  0  0  0  0  0
   26.4002  -20.5579  -13.3267 C   0  0  0  0  0  0  0  0  0  0  0  0
   25.2349  -20.5757  -13.8181 O   0  0  0  0  0  0  0  0  0  0  0  0
   23.0426  -16.3088  -15.7573 O   0  0  0  0  0  0  0  0  0  0  0  0
   28.0084  -18.4474   -6.0775 C   0  0  0  0  0  0  0  0  0  0  0  0
   27.5063  -19.3279   -7.0184 C   0  0  0  0  0  0  0  0  0  0  0  0
   26.1446  -19.3953   -7.2169 C   0  0  0  0  0  0  0  0  0  0  0  0
   25.6365  -20.2701   -8.1529 C   0  0  0  0  0  0  0  0  0  0  0  0
   26.4041  -21.1070   -8.9283 C   0  0  0  0  0  0  0  0  0  0  0  0
   25.7714  -21.9998   -9.8922 C   0  0  1  0  0  0  0  0  0  0  0  0
   25.3557  -21.3709  -11.1752 N   0  0  0  0  0  0  0  0  0  0  0  0
   26.4912  -20.9249  -11.9563 C   0  0  0  0  0  0  0  0  0  0  0  0
   24.4336  -20.2456  -11.0028 O   0  0  0  0  0  0  0  0  0  0  0  0
   24.7861  -19.0374  -11.1684 C   0  0  0  0  0  0  0  0  0  0  0  0
   27.7771  -21.0240   -8.7129 C   0  0  0  0  0  0  0  0  0  0  0  0
   28.3039  -20.1532   -7.7793 O   0  0  0  0  0  0  0  0  0  0  0  0
  1  2  1  0
  3  2  1  0
  4  3  1  0
  5  4  1  0
  5  1  1  0
  6  7  2  0
  5  6  1  1
  9 11  1  0
  9  8  1  0
 10  9  2  0
 12 13  1  0
 12 11  1  0
 15 14  1  6
 14 13  1  0
 15 16  1  0
 16  6  1  0
 17 26  1  0
 17 15  1  0
 18 17  2  0
 20 19  1  0
 21 20  2  0
 22 21  1  0
 23 22  2  0
 23 29  1  0
 24 23  1  0
 25 24  1  6
 25 26  1  0
 27 31  1  0
 27 25  1  0
 28 27  2  0
 29 30  2  0
 30 20  1  0
M  END
$$$$
