PRY.pdb
     RDKit          3D

 31 32  0  0  1  0  0  0  0  0999 V2000
   24.9513  -19.5368  -19.1710 N   0  0  0  0  0  0  0  0  0  0  0  0
   26.0084  -19.3281  -20.1095 C   0  0  0  0  0  0  0  0  0  0  0  0
   25.3396  -19.5174  -21.4487 C   0  0  0  0  0  0  0  0  0  0  0  0
   24.4535  -20.7314  -21.1474 C   0  0  0  0  0  0  0  0  0  0  0  0
   24.0981  -20.5683  -19.6706 C   0  0  1  0  0  0  0  0  0  0  0  0
   24.3029  -21.8661  -18.9563 C   0  0  0  0  0  0  0  0  0  0  0  0
   23.4863  -22.8258  -19.1536 O   0  0  0  0  0  0  0  0  0  0  0  0
   28.8796  -28.1871  -16.3699 N   0  0  0  0  0  0  0  0  0  0  0  0
   29.1459  -27.7556  -17.6958 C   0  0  0  0  0  0  0  0  0  0  0  0
   29.3545  -28.5824  -18.6771 N   0  0  0  0  0  0  0  0  0  0  0  0
   29.2037  -26.3611  -18.0507 N   0  0  0  0  0  0  0  0  0  0  0  0
   28.9181  -25.3251  -17.1046 C   0  0  0  0  0  0  0  0  0  0  0  0
   27.4240  -25.0390  -16.9735 C   0  0  0  0  0  0  0  0  0  0  0  0
   27.0519  -23.7412  -17.5813 C   0  0  0  0  0  0  0  0  0  0  0  0
   25.5765  -23.3990  -17.3917 C   0  0  2  0  0  0  0  0  0  0  0  0
   25.3622  -22.0893  -18.0663 N   0  0  0  0  0  0  0  0  0  0  0  0
   25.2200  -23.2472  -15.9816 C   0  0  0  0  0  0  0  0  0  0  0  0
   25.1399  -24.2892  -15.2692 O   0  0  0  0  0  0  0  0  0  0  0  0
   29.5498  -28.1540  -19.6099 O   0  0  0  0  0  0  0  0  0  0  0  0
   23.8833  -20.1602   -7.7565 C   0  0  0  0  0  0  0  0  0  0  0  0
   24.2837  -20.3728   -9.0631 C   0  0  0  0  0  0  0  0  0  0  0  0
   23.5491  -19.8208  -10.0896 C   0  0  0  0  0  0  0  0  0  0  0  0
   23.9418  -20.0280  -11.3943 C   0  0  0  0  0  0  0  0  0  0  0  0
   25.0423  -20.7646  -11.7647 C   0  0  0  0  0  0  0  0  0  0  0  0
   25.3754  -20.9277  -13.1750 C   0  0  1  0  0  0  0  0  0  0  0  0
   24.5829  -21.9510  -13.9091 N   0  0  0  0  0  0  0  0  0  0  0  0
   24.9509  -22.0244  -15.3082 C   0  0  0  0  0  0  0  0  0  0  0  0
   23.1351  -21.7476  -13.8148 O   0  0  0  0  0  0  0  0  0  0  0  0
   22.4998  -21.8318  -12.7190 C   0  0  0  0  0  0  0  0  0  0  0  0
   25.7711  -21.3139  -10.7133 C   0  0  0  0  0  0  0  0  0  0  0  0
   25.3926  -21.1167   -9.3999 O   0  0  0  0  0  0  0  0  0  0  0  0
  1  2  1  0
  3  2  1  0
  4  3  1  0
  5  4  1  0
  5  1  1  0
  6  7  2  0
  5  6  1  1
  9 11  1  0
  9  8  1  0
 10  9  2  0
 12 13  1  0
 12 11  1  0
 15 14  1  1
 14 13  1  0
 15 16  1  0
 16  6  1  0
 17 26  1  0
 17 15  1  0
 18 17  2  0
 20 19  1  0
 21 20  2  0
 22 21  1  0
 23 22  2  0
 23 29  1  0
 24 23  1  0
 25 24  1  1
 25 26  1  0
 27 31  1  0
 27 25  1  0
 28 27  2  0
 29 30  2  0
 30 20  1  0
M  END
$$$$
