PRY.pdb
     RDKit          3D

 31 32  0  0  1  0  0  0  0  0999 V2000
   25.1439  -24.1644  -14.8854 N   0  0  0  0  0  0  0  0  0  0  0  0
   26.0135  -24.5505  -15.9514 C   0  0  0  0  0  0  0  0  0  0  0  0
   25.6687  -23.5870  -17.0603 C   0  0  0  0  0  0  0  0  0  0  0  0
   24.1411  -23.5558  -16.9359 C   0  0  0  0  0  0  0  0  0  0  0  0
   23.8904  -23.7663  -15.4437 C   0  0  1  0  0  0  0  0  0  0  0  0
   22.8313  -24.8046  -15.2519 C   0  0  0  0  0  0  0  0  0  0  0  0
   21.6150  -24.5127  -15.5013 O   0  0  0  0  0  0  0  0  0  0  0  0
   25.1378  -32.6436  -16.3967 N   0  0  0  0  0  0  0  0  0  0  0  0
   25.7178  -31.3699  -16.1592 C   0  0  0  0  0  0  0  0  0  0  0  0
   26.9922  -31.2014  -15.9647 N   0  0  0  0  0  0  0  0  0  0  0  0
   24.9301  -30.1650  -16.1172 N   0  0  0  0  0  0  0  0  0  0  0  0
   23.5625  -30.1377  -16.5401 C   0  0  0  0  0  0  0  0  0  0  0  0
   22.9014  -28.7795  -16.3173 C   0  0  0  0  0  0  0  0  0  0  0  0
   22.7138  -28.4827  -14.8789 C   0  0  0  0  0  0  0  0  0  0  0  0
   22.0450  -27.1327  -14.6343 C   0  0  2  0  0  0  0  0  0  0  0  0
   23.1075  -26.1039  -14.8053 N   0  0  0  0  0  0  0  0  0  0  0  0
   21.5139  -27.0157  -13.2768 C   0  0  0  0  0  0  0  0  0  0  0  0
   22.2966  -27.2327  -12.3074 O   0  0  0  0  0  0  0  0  0  0  0  0
   27.3042  -30.2255  -15.7600 O   0  0  0  0  0  0  0  0  0  0  0  0
   17.2374  -24.7461   -5.8937 C   0  0  0  0  0  0  0  0  0  0  0  0
   17.7242  -24.8664   -7.1826 C   0  0  0  0  0  0  0  0  0  0  0  0
   19.0861  -24.9147   -7.3851 C   0  0  0  0  0  0  0  0  0  0  0  0
   19.5789  -25.0347   -8.6666 C   0  0  0  0  0  0  0  0  0  0  0  0
   18.7955  -25.1124   -9.7940 C   0  0  0  0  0  0  0  0  0  0  0  0
   19.4128  -25.2367  -11.1093 C   0  0  1  0  0  0  0  0  0  0  0  0
   19.7099  -26.6259  -11.5520 N   0  0  0  0  0  0  0  0  0  0  0  0
   20.1809  -26.6724  -12.9210 C   0  0  0  0  0  0  0  0  0  0  0  0
   18.5722  -27.5388  -11.4159 O   0  0  0  0  0  0  0  0  0  0  0  0
   17.6663  -27.6435  -12.2990 C   0  0  0  0  0  0  0  0  0  0  0  0
   17.4226  -25.0619   -9.5684 C   0  0  0  0  0  0  0  0  0  0  0  0
   16.9109  -24.9419   -8.2913 O   0  0  0  0  0  0  0  0  0  0  0  0
  1  2  1  0
  3  2  1  0
  4  3  1  0
  5  4  1  0
  5  1  1  0
  6  7  2  0
  5  6  1  6
  9 11  1  0
  9  8  1  0
 10  9  2  0
 12 13  1  0
 12 11  1  0
 15 14  1  1
 14 13  1  0
 15 16  1  0
 16  6  1  0
 17 26  1  0
 17 15  1  0
 18 17  2  0
 20 19  1  0
 21 20  2  0
 22 21  1  0
 23 22  2  0
 23 29  1  0
 24 23  1  0
 25 24  1  1
 25 26  1  0
 27 31  1  0
 27 25  1  0
 28 27  2  0
 29 30  2  0
 30 20  1  0
M  END
$$$$
