PRY.pdb
     RDKit          3D

 31 32  0  0  1  0  0  0  0  0999 V2000
   28.4633  -18.7736  -19.1150 N   0  0  0  0  0  0  0  0  0  0  0  0
   27.2456  -18.0703  -19.3685 C   0  0  0  0  0  0  0  0  0  0  0  0
   26.9229  -17.4258  -18.0429 C   0  0  0  0  0  0  0  0  0  0  0  0
   27.2717  -18.5707  -17.0852 C   0  0  0  0  0  0  0  0  0  0  0  0
   28.4151  -19.3009  -17.7878 C   0  0  1  0  0  0  0  0  0  0  0  0
   28.1566  -20.7738  -17.7743 C   0  0  0  0  0  0  0  0  0  0  0  0
   27.8617  -21.3684  -18.8634 O   0  0  0  0  0  0  0  0  0  0  0  0
   31.1205  -27.6205  -18.4111 N   0  0  0  0  0  0  0  0  0  0  0  0
   32.0216  -26.9403  -17.5507 C   0  0  0  0  0  0  0  0  0  0  0  0
   33.1882  -27.4181  -17.2326 N   0  0  0  0  0  0  0  0  0  0  0  0
   31.7056  -25.6630  -16.9653 N   0  0  0  0  0  0  0  0  0  0  0  0
   30.3830  -25.3370  -16.5246 C   0  0  0  0  0  0  0  0  0  0  0  0
   30.2666  -23.9032  -16.0126 C   0  0  0  0  0  0  0  0  0  0  0  0
   28.9019  -23.5962  -15.5272 C   0  0  0  0  0  0  0  0  0  0  0  0
   28.0002  -23.0222  -16.6168 C   0  0  2  0  0  0  0  0  0  0  0  0
   28.2224  -21.5502  -16.6094 N   0  0  0  0  0  0  0  0  0  0  0  0
   26.5836  -23.2689  -16.3502 C   0  0  0  0  0  0  0  0  0  0  0  0
   26.0132  -22.5767  -15.4586 O   0  0  0  0  0  0  0  0  0  0  0  0
   33.7483  -26.8569  -16.5520 O   0  0  0  0  0  0  0  0  0  0  0  0
   21.6081  -20.2674  -12.5292 C   0  0  0  0  0  0  0  0  0  0  0  0
   22.0815  -20.9590  -13.6293 C   0  0  0  0  0  0  0  0  0  0  0  0
   23.1098  -20.4198  -14.3710 C   0  0  0  0  0  0  0  0  0  0  0  0
   23.5871  -21.1031  -15.4686 C   0  0  0  0  0  0  0  0  0  0  0  0
   23.1038  -22.3175  -15.8957 C   0  0  0  0  0  0  0  0  0  0  0  0
   23.6754  -22.9619  -17.0724 C   0  0  2  0  0  0  0  0  0  0  0  0
   24.3205  -24.2815  -16.8338 N   0  0  0  0  0  0  0  0  0  0  0  0
   25.7578  -24.2239  -17.0039 C   0  0  0  0  0  0  0  0  0  0  0  0
   23.7903  -25.3530  -17.6807 O   0  0  0  0  0  0  0  0  0  0  0  0
   24.1500  -25.5165  -18.8871 C   0  0  0  0  0  0  0  0  0  0  0  0
   22.0654  -22.8454  -15.1334 C   0  0  0  0  0  0  0  0  0  0  0  0
   21.5744  -22.1749  -14.0304 O   0  0  0  0  0  0  0  0  0  0  0  0
  1  2  1  0
  3  2  1  0
  4  3  1  0
  5  4  1  0
  5  1  1  0
  6  7  2  0
  5  6  1  6
  9 11  1  0
  9  8  1  0
 10  9  2  0
 12 13  1  0
 12 11  1  0
 15 14  1  1
 14 13  1  0
 15 16  1  0
 16  6  1  0
 17 26  1  0
 17 15  1  0
 18 17  2  0
 20 19  1  0
 21 20  2  0
 22 21  1  0
 23 22  2  0
 23 29  1  0
 24 23  1  0
 25 24  1  1
 25 26  1  0
 27 31  1  0
 27 25  1  0
 28 27  2  0
 29 30  2  0
 30 20  1  0
M  END
$$$$
