PRY.pdb
     RDKit          3D

 31 32  0  0  1  0  0  0  0  0999 V2000
   21.2064  -20.9149  -14.8283 N   0  0  0  0  0  0  0  0  0  0  0  0
   20.9784  -19.5100  -14.9546 C   0  0  0  0  0  0  0  0  0  0  0  0
   21.5695  -18.9372  -13.6899 C   0  0  0  0  0  0  0  0  0  0  0  0
   21.0889  -19.9714  -12.6657 C   0  0  0  0  0  0  0  0  0  0  0  0
   21.0492  -21.2785  -13.4555 C   0  0  1  0  0  0  0  0  0  0  0  0
   19.7538  -21.9817  -13.2021 C   0  0  0  0  0  0  0  0  0  0  0  0
   18.7589  -21.7575  -13.9679 O   0  0  0  0  0  0  0  0  0  0  0  0
   20.3416  -29.6630   -9.6659 N   0  0  0  0  0  0  0  0  0  0  0  0
   20.6313  -29.3901  -11.0286 C   0  0  0  0  0  0  0  0  0  0  0  0
   21.2331  -30.2418  -11.8050 N   0  0  0  0  0  0  0  0  0  0  0  0
   20.2759  -28.1418  -11.6525 N   0  0  0  0  0  0  0  0  0  0  0  0
   19.5721  -27.1141  -10.9463 C   0  0  0  0  0  0  0  0  0  0  0  0
   19.2114  -25.9261  -11.8351 C   0  0  0  0  0  0  0  0  0  0  0  0
   18.6106  -24.8161  -11.0611 C   0  0  0  0  0  0  0  0  0  0  0  0
   18.2824  -23.6009  -11.9245 C   0  0  2  0  0  0  0  0  0  0  0  0
   19.5706  -22.8899  -12.1507 N   0  0  0  0  0  0  0  0  0  0  0  0
   17.3656  -22.6782  -11.2561 C   0  0  0  0  0  0  0  0  0  0  0  0
   17.8310  -21.9169  -10.3598 O   0  0  0  0  0  0  0  0  0  0  0  0
   21.4117  -29.9283  -12.7856 O   0  0  0  0  0  0  0  0  0  0  0  0
   11.1326  -16.7045   -9.4596 C   0  0  0  0  0  0  0  0  0  0  0  0
   12.1076  -17.5668   -9.9271 C   0  0  0  0  0  0  0  0  0  0  0  0
   11.8258  -18.3809  -11.0023 C   0  0  0  0  0  0  0  0  0  0  0  0
   12.7923  -19.2427  -11.4740 C   0  0  0  0  0  0  0  0  0  0  0  0
   14.0544  -19.3586  -10.9406 C   0  0  0  0  0  0  0  0  0  0  0  0
   15.0081  -20.3030  -11.5107 C   0  0  1  0  0  0  0  0  0  0  0  0
   15.1229  -21.6073  -10.8037 N   0  0  0  0  0  0  0  0  0  0  0  0
   15.9746  -22.5389  -11.5144 C   0  0  0  0  0  0  0  0  0  0  0  0
   13.8314  -22.2511  -10.5511 O   0  0  0  0  0  0  0  0  0  0  0  0
   13.2863  -23.0448  -11.3783 C   0  0  0  0  0  0  0  0  0  0  0  0
   14.3195  -18.5279   -9.8552 C   0  0  0  0  0  0  0  0  0  0  0  0
   13.3633  -17.6581   -9.3691 O   0  0  0  0  0  0  0  0  0  0  0  0
  1  2  1  0
  3  2  1  0
  4  3  1  0
  5  4  1  0
  5  1  1  0
  6  7  2  0
  5  6  1  6
  9 11  1  0
  9  8  1  0
 10  9  2  0
 12 13  1  0
 12 11  1  0
 15 14  1  1
 14 13  1  0
 15 16  1  0
 16  6  1  0
 17 26  1  0
 17 15  1  0
 18 17  2  0
 20 19  1  0
 21 20  2  0
 22 21  1  0
 23 22  2  0
 23 29  1  0
 24 23  1  0
 25 24  1  1
 25 26  1  0
 27 31  1  0
 27 25  1  0
 28 27  2  0
 29 30  2  0
 30 20  1  0
M  END
$$$$
