PRY.pdb
     RDKit          3D

 31 32  0  0  1  0  0  0  0  0999 V2000
   27.1550  -22.6133  -15.9657 N   0  0  0  0  0  0  0  0  0  0  0  0
   26.5716  -22.3133  -17.2351 C   0  0  0  0  0  0  0  0  0  0  0  0
   27.5328  -21.3227  -17.8447 C   0  0  0  0  0  0  0  0  0  0  0  0
   27.8462  -20.4520  -16.6227 C   0  0  0  0  0  0  0  0  0  0  0  0
   27.7496  -21.4223  -15.4466 C   0  0  1  0  0  0  0  0  0  0  0  0
   26.9302  -20.8114  -14.3548 C   0  0  0  0  0  0  0  0  0  0  0  0
   27.3156  -19.7208  -13.8175 O   0  0  0  0  0  0  0  0  0  0  0  0
   19.7870  -23.8451  -11.9351 N   0  0  0  0  0  0  0  0  0  0  0  0
   19.8090  -22.8526  -10.9205 C   0  0  0  0  0  0  0  0  0  0  0  0
   19.2960  -23.0398   -9.7407 N   0  0  0  0  0  0  0  0  0  0  0  0
   20.4063  -21.5585  -11.1273 N   0  0  0  0  0  0  0  0  0  0  0  0
   21.0899  -21.2236  -12.3399 C   0  0  0  0  0  0  0  0  0  0  0  0
   22.5022  -20.6966  -12.0968 C   0  0  0  0  0  0  0  0  0  0  0  0
   23.4834  -21.2835  -13.0376 C   0  0  0  0  0  0  0  0  0  0  0  0
   24.8901  -20.7199  -12.8552 C   0  0  2  0  0  0  0  0  0  0  0  0
   25.7409  -21.3821  -13.8819 N   0  0  0  0  0  0  0  0  0  0  0  0
   25.4442  -21.0297  -11.5378 C   0  0  0  0  0  0  0  0  0  0  0  0
   25.4973  -22.2419  -11.1810 O   0  0  0  0  0  0  0  0  0  0  0  0
   19.3065  -22.2179   -9.0956 O   0  0  0  0  0  0  0  0  0  0  0  0
   29.2017  -20.5298   -3.4562 C   0  0  0  0  0  0  0  0  0  0  0  0
   28.7288  -20.2459   -4.7245 C   0  0  0  0  0  0  0  0  0  0  0  0
   29.3040  -20.8673   -5.8113 C   0  0  0  0  0  0  0  0  0  0  0  0
   28.8381  -20.5898   -7.0783 C   0  0  0  0  0  0  0  0  0  0  0  0
   27.8133  -19.7150   -7.3527 C   0  0  0  0  0  0  0  0  0  0  0  0
   27.3924  -19.4868   -8.7301 C   0  0  1  0  0  0  0  0  0  0  0  0
   26.4111  -20.4646   -9.2735 N   0  0  0  0  0  0  0  0  0  0  0  0
   25.9451  -20.0923  -10.5936 C   0  0  0  0  0  0  0  0  0  0  0  0
   25.2485  -20.6696   -8.4059 O   0  0  0  0  0  0  0  0  0  0  0  0
   24.1783  -19.9966   -8.5214 C   0  0  0  0  0  0  0  0  0  0  0  0
   27.2454  -19.0975   -6.2417 C   0  0  0  0  0  0  0  0  0  0  0  0
   27.6993  -19.3635   -4.9648 O   0  0  0  0  0  0  0  0  0  0  0  0
  1  2  1  0
  3  2  1  0
  4  3  1  0
  5  4  1  0
  5  1  1  0
  6  7  2  0
  5  6  1  1
  9 11  1  0
  9  8  1  0
 10  9  2  0
 12 13  1  0
 12 11  1  0
 15 14  1  1
 14 13  1  0
 15 16  1  0
 16  6  1  0
 17 26  1  0
 17 15  1  0
 18 17  2  0
 20 19  1  0
 21 20  2  0
 22 21  1  0
 23 22  2  0
 23 29  1  0
 24 23  1  0
 25 24  1  6
 25 26  1  0
 27 31  1  0
 27 25  1  0
 28 27  2  0
 29 30  2  0
 30 20  1  0
M  END
$$$$
