NEF.pdb
     RDKit          3D

 29 29  0  0  1  0  0  0  0  0999 V2000
   18.5738  -13.2481  -16.5135 N   0  0  0  0  0  0  0  0  0  0  0  0
   17.5766  -12.5920  -15.7393 C   0  0  0  0  0  0  0  0  0  0  0  0
   16.6932  -13.3011  -15.1608 O   0  0  0  0  0  0  0  0  0  0  0  0
   17.5491  -11.1096  -15.5962 C   0  0  0  0  0  0  0  0  0  0  0  0
   18.7469  -10.5510  -16.3288 C   0  0  2  0  0  0  0  0  0  0  0  0
   19.9183  -11.2003  -15.7832 N   0  0  0  0  0  0  0  0  0  0  0  0
   18.8251   -9.0760  -16.2314 C   0  0  0  0  0  0  0  0  0  0  0  0
   19.6228   -8.4792  -16.9954 O   0  0  0  0  0  0  0  0  0  0  0  0
   18.0541   -8.2965  -15.3281 N   0  0  0  0  0  0  0  0  0  0  0  0
   18.0553   -6.8499  -15.2918 C   0  0  1  0  0  0  0  0  0  0  0  0
   16.7157   -6.2746  -14.9300 C   0  0  0  0  0  0  0  0  0  0  0  0
   15.7021   -6.4139  -16.0211 C   0  0  0  0  0  0  0  0  0  0  0  0
   14.3898   -5.8682  -15.5888 C   0  0  0  0  0  0  0  0  0  0  0  0
   13.8496   -4.8883  -16.1619 O   0  0  0  0  0  0  0  0  0  0  0  0
   19.0270   -6.4190  -14.2407 C   0  0  0  0  0  0  0  0  0  0  0  0
   19.0959   -7.0482  -13.1596 O   0  0  0  0  0  0  0  0  0  0  0  0
   13.7186   -6.4430  -14.5190 O   0  0  0  0  0  0  0  0  0  0  0  0
   19.8913   -5.3062  -14.4188 N   0  0  0  0  0  0  0  0  0  0  0  0
   20.9569   -4.9575  -13.4803 C   0  0  1  0  0  0  0  0  0  0  0  0
   21.9236   -6.0811  -13.3181 C   0  0  0  0  0  0  0  0  0  0  0  0
   22.5870   -6.4584  -14.5777 C   0  0  0  0  0  0  0  0  0  0  0  0
   22.2509   -7.6523  -15.1736 C   0  0  0  0  0  0  0  0  0  0  0  0
   22.8399   -8.0649  -16.3663 C   0  0  0  0  0  0  0  0  0  0  0  0
   23.7821   -7.2377  -16.9458 C   0  0  0  0  0  0  0  0  0  0  0  0
   24.1303   -6.0511  -16.3732 C   0  0  0  0  0  0  0  0  0  0  0  0
   23.5310   -5.6586  -15.1843 C   0  0  0  0  0  0  0  0  0  0  0  0
   21.6080   -3.7052  -13.9186 C   0  0  0  0  0  0  0  0  0  0  0  0
   22.4905   -2.9630  -13.1534 O   0  0  0  0  0  0  0  0  0  0  0  0
   21.3698   -3.2278  -15.0841 O   0  0  0  0  0  0  0  0  0  0  0  0
  1  2  1  0
  2  4  1  0
  2  3  2  0
  4  5  1  0
  5  7  1  0
  5  6  1  1
  7  8  2  0
  9  7  1  0
  9 10  1  0
 10 11  1  1
 11 12  1  0
 12 13  1  0
 13 14  2  0
 13 17  1  0
 15 18  1  0
 15 10  1  0
 16 15  2  0
 19 27  1  0
 19 20  1  6
 19 18  1  0
 20 21  1  0
 21 26  2  0
 21 22  1  0
 22 23  2  0
 23 24  1  0
 25 24  2  0
 26 25  1  0
 27 28  1  0
 29 27  2  0
M  END
$$$$
