NEF.pdb
     RDKit          3D

 29 29  0  0  1  0  0  0  0  0999 V2000
   15.7589  -11.8291  -17.9709 N   0  0  0  0  0  0  0  0  0  0  0  0
   15.7453  -11.7174  -16.5527 C   0  0  0  0  0  0  0  0  0  0  0  0
   14.7931  -12.2634  -15.9099 O   0  0  0  0  0  0  0  0  0  0  0  0
   16.8118  -10.9823  -15.8171 C   0  0  0  0  0  0  0  0  0  0  0  0
   18.1460  -11.5397  -16.2561 C   0  0  2  0  0  0  0  0  0  0  0  0
   18.2016  -12.9121  -15.8037 N   0  0  0  0  0  0  0  0  0  0  0  0
   19.2820  -10.7352  -15.7525 C   0  0  0  0  0  0  0  0  0  0  0  0
   19.3798  -10.5708  -14.5117 O   0  0  0  0  0  0  0  0  0  0  0  0
   20.2660  -10.1394  -16.5860 N   0  0  0  0  0  0  0  0  0  0  0  0
   21.4411   -9.4506  -16.0975 C   0  0  1  0  0  0  0  0  0  0  0  0
   22.6393   -9.6420  -16.9829 C   0  0  0  0  0  0  0  0  0  0  0  0
   23.2395  -11.0076  -16.8727 C   0  0  0  0  0  0  0  0  0  0  0  0
   24.3222  -11.1855  -17.8742 C   0  0  0  0  0  0  0  0  0  0  0  0
   24.6395  -10.2799  -18.6864 O   0  0  0  0  0  0  0  0  0  0  0  0
   21.1351   -7.9877  -16.0671 C   0  0  0  0  0  0  0  0  0  0  0  0
   20.6415   -7.4328  -17.0760 O   0  0  0  0  0  0  0  0  0  0  0  0
   25.0211  -12.3828  -17.9341 O   0  0  0  0  0  0  0  0  0  0  0  0
   21.3846   -7.1854  -14.9221 N   0  0  0  0  0  0  0  0  0  0  0  0
   21.0594   -5.7616  -14.8517 C   0  0  1  0  0  0  0  0  0  0  0  0
   19.7882   -5.5335  -14.1064 C   0  0  0  0  0  0  0  0  0  0  0  0
   18.5912   -5.9088  -14.8783 C   0  0  0  0  0  0  0  0  0  0  0  0
   18.0527   -4.9949  -15.7547 C   0  0  0  0  0  0  0  0  0  0  0  0
   16.9238   -5.2894  -16.5153 C   0  0  0  0  0  0  0  0  0  0  0  0
   16.3486   -6.5366  -16.3682 C   0  0  0  0  0  0  0  0  0  0  0  0
   16.8650   -7.4571  -15.5061 C   0  0  0  0  0  0  0  0  0  0  0  0
   17.9910   -7.1432  -14.7575 C   0  0  0  0  0  0  0  0  0  0  0  0
   22.2006   -5.0246  -14.2696 C   0  0  0  0  0  0  0  0  0  0  0  0
   22.2424   -3.6546  -14.0785 O   0  0  0  0  0  0  0  0  0  0  0  0
   23.2543   -5.6541  -13.9000 O   0  0  0  0  0  0  0  0  0  0  0  0
  1  2  1  0
  2  4  1  0
  2  3  2  0
  4  5  1  0
  5  7  1  0
  5  6  1  1
  7  8  2  0
  9  7  1  0
  9 10  1  0
 10 11  1  6
 11 12  1  0
 12 13  1  0
 13 14  2  0
 13 17  1  0
 15 18  1  0
 15 10  1  0
 16 15  2  0
 19 27  1  0
 19 20  1  1
 19 18  1  0
 20 21  1  0
 21 26  2  0
 21 22  1  0
 22 23  2  0
 23 24  1  0
 25 24  2  0
 26 25  1  0
 27 28  1  0
 29 27  2  0
M  END
$$$$
