NEF.pdb
     RDKit          3D

 29 29  0  0  1  0  0  0  0  0999 V2000
   17.6355  -12.8552  -16.0220 N   0  0  0  0  0  0  0  0  0  0  0  0
   18.4954  -12.3253  -15.0200 C   0  0  0  0  0  0  0  0  0  0  0  0
   18.4674  -12.8450  -13.8594 O   0  0  0  0  0  0  0  0  0  0  0  0
   19.4153  -11.1883  -15.3022 C   0  0  0  0  0  0  0  0  0  0  0  0
   19.1672  -10.7326  -16.7214 C   0  0  2  0  0  0  0  0  0  0  0  0
   19.8391  -11.6720  -17.5918 N   0  0  0  0  0  0  0  0  0  0  0  0
   19.6119   -9.3390  -16.9480 C   0  0  0  0  0  0  0  0  0  0  0  0
   20.8181   -9.1483  -17.2393 O   0  0  0  0  0  0  0  0  0  0  0  0
   18.7587   -8.2069  -16.8560 N   0  0  0  0  0  0  0  0  0  0  0  0
   19.1777   -6.8460  -17.1135 C   0  0  1  0  0  0  0  0  0  0  0  0
   18.0880   -6.0041  -17.7134 C   0  0  0  0  0  0  0  0  0  0  0  0
   17.8559   -6.2890  -19.1633 C   0  0  0  0  0  0  0  0  0  0  0  0
   16.8860   -5.3215  -19.7378 C   0  0  0  0  0  0  0  0  0  0  0  0
   17.1644   -4.6026  -20.7308 O   0  0  0  0  0  0  0  0  0  0  0  0
   19.5538   -6.2274  -15.8056 C   0  0  0  0  0  0  0  0  0  0  0  0
   18.8947   -6.4983  -14.7752 O   0  0  0  0  0  0  0  0  0  0  0  0
   15.6238   -5.1892  -19.1765 O   0  0  0  0  0  0  0  0  0  0  0  0
   20.6464   -5.3290  -15.6791 N   0  0  0  0  0  0  0  0  0  0  0  0
   21.0501   -4.7278  -14.4088 C   0  0  1  0  0  0  0  0  0  0  0  0
   22.3852   -5.2290  -13.9734 C   0  0  0  0  0  0  0  0  0  0  0  0
   22.4059   -6.6818  -13.7321 C   0  0  0  0  0  0  0  0  0  0  0  0
   22.9997   -7.5013  -14.6644 C   0  0  0  0  0  0  0  0  0  0  0  0
   23.0544   -8.8825  -14.4938 C   0  0  0  0  0  0  0  0  0  0  0  0
   22.4914   -9.4188  -13.3521 C   0  0  0  0  0  0  0  0  0  0  0  0
   21.8981   -8.6262  -12.4157 C   0  0  0  0  0  0  0  0  0  0  0  0
   21.8545   -7.2517  -12.6053 C   0  0  0  0  0  0  0  0  0  0  0  0
   21.0051   -3.2552  -14.5254 C   0  0  0  0  0  0  0  0  0  0  0  0
   21.2112   -2.3725  -13.4796 O   0  0  0  0  0  0  0  0  0  0  0  0
   20.7591   -2.7047  -15.6565 O   0  0  0  0  0  0  0  0  0  0  0  0
  1  2  1  0
  2  4  1  0
  2  3  2  0
  4  5  1  0
  5  7  1  0
  5  6  1  6
  7  8  2  0
  9  7  1  0
  9 10  1  0
 10 11  1  1
 11 12  1  0
 12 13  1  0
 13 14  2  0
 13 17  1  0
 15 18  1  0
 15 10  1  0
 16 15  2  0
 19 27  1  0
 19 20  1  6
 19 18  1  0
 20 21  1  0
 21 26  2  0
 21 22  1  0
 22 23  2  0
 23 24  1  0
 25 24  2  0
 26 25  1  0
 27 28  1  0
 29 27  2  0
M  END
$$$$
