NEF.pdb
     RDKit          3D

 29 29  0  0  1  0  0  0  0  0999 V2000
   26.7257  -15.1970  -16.7043 N   0  0  0  0  0  0  0  0  0  0  0  0
   25.5722  -15.7285  -16.0632 C   0  0  0  0  0  0  0  0  0  0  0  0
   24.6061  -14.9430  -15.8033 O   0  0  0  0  0  0  0  0  0  0  0  0
   25.4771  -17.1689  -15.6960 C   0  0  0  0  0  0  0  0  0  0  0  0
   25.5670  -17.2705  -14.1910 C   0  0  2  0  0  0  0  0  0  0  0  0
   26.7762  -16.5853  -13.7914 N   0  0  0  0  0  0  0  0  0  0  0  0
   25.5347  -18.6740  -13.7215 C   0  0  0  0  0  0  0  0  0  0  0  0
   24.4968  -19.3438  -13.9460 O   0  0  0  0  0  0  0  0  0  0  0  0
   26.6042  -19.3075  -13.0339 N   0  0  0  0  0  0  0  0  0  0  0  0
   26.6043  -20.6962  -12.6272 C   0  0  1  0  0  0  0  0  0  0  0  0
   27.5041  -21.5513  -13.4729 C   0  0  0  0  0  0  0  0  0  0  0  0
   27.1803  -21.4820  -14.9315 C   0  0  0  0  0  0  0  0  0  0  0  0
   28.1075  -22.3388  -15.7145 C   0  0  0  0  0  0  0  0  0  0  0  0
   28.0210  -22.4534  -16.9635 O   0  0  0  0  0  0  0  0  0  0  0  0
   27.1127  -20.7622  -11.2230 C   0  0  0  0  0  0  0  0  0  0  0  0
   28.2931  -21.1201  -11.0034 O   0  0  0  0  0  0  0  0  0  0  0  0
   29.1111  -23.0459  -15.0676 O   0  0  0  0  0  0  0  0  0  0  0  0
   26.2998  -20.4304  -10.1068 N   0  0  0  0  0  0  0  0  0  0  0  0
   26.7404  -20.5747   -8.7200 C   0  0  1  0  0  0  0  0  0  0  0  0
   27.4888  -19.3690   -8.2622 C   0  0  0  0  0  0  0  0  0  0  0  0
   27.9539  -19.4729   -6.8686 C   0  0  0  0  0  0  0  0  0  0  0  0
   27.0812  -19.1590   -5.8521 C   0  0  0  0  0  0  0  0  0  0  0  0
   27.4589  -19.2394   -4.5140 C   0  0  0  0  0  0  0  0  0  0  0  0
   28.7470  -19.6469   -4.2259 C   0  0  0  0  0  0  0  0  0  0  0  0
   29.6279  -19.9626   -5.2165 C   0  0  0  0  0  0  0  0  0  0  0  0
   29.2310  -19.8757   -6.5438 C   0  0  0  0  0  0  0  0  0  0  0  0
   25.5758  -20.8812   -7.8633 C   0  0  0  0  0  0  0  0  0  0  0  0
   24.2535  -20.7279   -8.2419 O   0  0  0  0  0  0  0  0  0  0  0  0
   25.7492  -21.3224   -6.6724 O   0  0  0  0  0  0  0  0  0  0  0  0
  1  2  1  0
  2  4  1  0
  2  3  2  0
  4  5  1  0
  5  7  1  0
  5  6  1  6
  7  8  2  0
  9  7  1  0
  9 10  1  0
 10 11  1  6
 11 12  1  0
 12 13  1  0
 13 14  2  0
 13 17  1  0
 15 18  1  0
 15 10  1  0
 16 15  2  0
 19 27  1  0
 19 20  1  1
 19 18  1  0
 20 21  1  0
 21 26  2  0
 21 22  1  0
 22 23  2  0
 23 24  1  0
 25 24  2  0
 26 25  1  0
 27 28  1  0
 29 27  2  0
M  END
$$$$
