NEF.pdb
     RDKit          3D

 29 29  0  0  1  0  0  0  0  0999 V2000
   30.4720  -30.6322    6.6469 N   0  0  0  0  0  0  0  0  0  0  0  0
   30.0445  -29.3031    6.3738 C   0  0  0  0  0  0  0  0  0  0  0  0
   29.4916  -29.0614    5.2541 O   0  0  0  0  0  0  0  0  0  0  0  0
   30.2303  -28.2045    7.3623 C   0  0  0  0  0  0  0  0  0  0  0  0
   30.8864  -28.7920    8.5903 C   0  0  2  0  0  0  0  0  0  0  0  0
   29.8837  -29.5824    9.2695 N   0  0  0  0  0  0  0  0  0  0  0  0
   31.4696  -27.7508    9.4661 C   0  0  0  0  0  0  0  0  0  0  0  0
   30.7008  -27.1518   10.2575 O   0  0  0  0  0  0  0  0  0  0  0  0
   32.8433  -27.3890    9.4654 N   0  0  0  0  0  0  0  0  0  0  0  0
   33.4212  -26.3766   10.3228 C   0  0  1  0  0  0  0  0  0  0  0  0
   34.8527  -26.6611   10.6779 C   0  0  0  0  0  0  0  0  0  0  0  0
   34.9996  -27.7203   11.7236 C   0  0  0  0  0  0  0  0  0  0  0  0
   36.4224  -28.1243   11.8628 C   0  0  0  0  0  0  0  0  0  0  0  0
   37.0918  -27.8753   12.8974 O   0  0  0  0  0  0  0  0  0  0  0  0
   33.3923  -25.0784    9.5822 C   0  0  0  0  0  0  0  0  0  0  0  0
   33.3701  -25.0753    8.3296 O   0  0  0  0  0  0  0  0  0  0  0  0
   37.0553  -28.8004   10.8295 O   0  0  0  0  0  0  0  0  0  0  0  0
   33.3890  -23.8252   10.2505 N   0  0  0  0  0  0  0  0  0  0  0  0
   33.2195  -22.5469    9.5612 C   0  0  1  0  0  0  0  0  0  0  0  0
   32.0621  -22.5881    8.6221 C   0  0  0  0  0  0  0  0  0  0  0  0
   31.8142  -21.2990    7.9544 C   0  0  0  0  0  0  0  0  0  0  0  0
   30.6695  -20.6005    8.2630 C   0  0  0  0  0  0  0  0  0  0  0  0
   30.3787  -19.3751    7.6685 C   0  0  0  0  0  0  0  0  0  0  0  0
   31.2772  -18.8694    6.7493 C   0  0  0  0  0  0  0  0  0  0  0  0
   32.4170  -19.5440    6.4286 C   0  0  0  0  0  0  0  0  0  0  0  0
   32.6879  -20.7640    7.0329 C   0  0  0  0  0  0  0  0  0  0  0  0
   33.1053  -21.4619   10.5582 C   0  0  0  0  0  0  0  0  0  0  0  0
   33.4165  -20.1344   10.3213 O   0  0  0  0  0  0  0  0  0  0  0  0
   32.6942  -21.7170   11.7452 O   0  0  0  0  0  0  0  0  0  0  0  0
  1  2  1  0
  2  4  1  0
  2  3  2  0
  4  5  1  0
  5  7  1  0
  5  6  1  1
  7  8  2  0
  9  7  1  0
  9 10  1  0
 10 11  1  6
 11 12  1  0
 12 13  1  0
 13 14  2  0
 13 17  1  0
 15 18  1  0
 15 10  1  0
 16 15  2  0
 19 27  1  0
 19 20  1  1
 19 18  1  0
 20 21  1  0
 21 26  2  0
 21 22  1  0
 22 23  2  0
 23 24  1  0
 25 24  2  0
 26 25  1  0
 27 28  1  0
 29 27  2  0
M  END
$$$$
