NEF.pdb
     RDKit          3D

 29 29  0  0  1  0  0  0  0  0999 V2000
   18.8396  -18.4029  -13.9187 N   0  0  0  0  0  0  0  0  0  0  0  0
   20.1786  -18.0355  -13.6083 C   0  0  0  0  0  0  0  0  0  0  0  0
   20.6085  -16.9094  -14.0141 O   0  0  0  0  0  0  0  0  0  0  0  0
   21.0736  -18.9340  -12.8271 C   0  0  0  0  0  0  0  0  0  0  0  0
   22.4959  -18.6599  -13.2576 C   0  0  2  0  0  0  0  0  0  0  0  0
   22.4574  -18.3367  -14.6667 N   0  0  0  0  0  0  0  0  0  0  0  0
   23.3983  -19.7965  -12.9659 C   0  0  0  0  0  0  0  0  0  0  0  0
   22.8882  -20.8472  -12.5054 O   0  0  0  0  0  0  0  0  0  0  0  0
   24.8032  -19.7706  -13.1749 N   0  0  0  0  0  0  0  0  0  0  0  0
   25.6853  -20.8916  -12.9318 C   0  0  1  0  0  0  0  0  0  0  0  0
   26.7779  -21.0065  -13.9561 C   0  0  0  0  0  0  0  0  0  0  0  0
   27.7693  -22.0810  -13.6400 C   0  0  0  0  0  0  0  0  0  0  0  0
   28.8269  -22.1398  -14.6816 C   0  0  0  0  0  0  0  0  0  0  0  0
   29.7819  -22.9553  -14.6221 O   0  0  0  0  0  0  0  0  0  0  0  0
   26.3368  -20.6820  -11.6027 C   0  0  0  0  0  0  0  0  0  0  0  0
   27.4794  -20.1718  -11.5419 O   0  0  0  0  0  0  0  0  0  0  0  0
   28.7804  -21.2756  -15.7663 O   0  0  0  0  0  0  0  0  0  0  0  0
   25.7040  -21.0433  -10.3837 N   0  0  0  0  0  0  0  0  0  0  0  0
   26.3826  -21.0230   -9.0887 C   0  0  1  0  0  0  0  0  0  0  0  0
   27.1195  -19.7429   -8.8843 C   0  0  0  0  0  0  0  0  0  0  0  0
   27.7625  -19.6516   -7.5624 C   0  0  0  0  0  0  0  0  0  0  0  0
   27.2422  -18.7844   -6.6294 C   0  0  0  0  0  0  0  0  0  0  0  0
   27.8024  -18.6537   -5.3610 C   0  0  0  0  0  0  0  0  0  0  0  0
   28.9074  -19.4245   -5.0563 C   0  0  0  0  0  0  0  0  0  0  0  0
   29.4393  -20.2898   -5.9648 C   0  0  0  0  0  0  0  0  0  0  0  0
   28.8654  -20.4049   -7.2235 C   0  0  0  0  0  0  0  0  0  0  0  0
   25.4029  -21.2935   -8.0157 C   0  0  0  0  0  0  0  0  0  0  0  0
   25.6685  -22.0176   -6.8667 O   0  0  0  0  0  0  0  0  0  0  0  0
   24.2046  -20.8482   -8.1089 O   0  0  0  0  0  0  0  0  0  0  0  0
  1  2  1  0
  2  4  1  0
  2  3  2  0
  4  5  1  0
  5  7  1  0
  5  6  1  6
  7  8  2  0
  9  7  1  0
  9 10  1  0
 10 11  1  6
 11 12  1  0
 12 13  1  0
 13 14  2  0
 13 17  1  0
 15 18  1  0
 15 10  1  0
 16 15  2  0
 19 27  1  0
 19 20  1  1
 19 18  1  0
 20 21  1  0
 21 26  2  0
 21 22  1  0
 22 23  2  0
 23 24  1  0
 25 24  2  0
 26 25  1  0
 27 28  1  0
 29 27  2  0
M  END
$$$$
