FHA.pdb
     RDKit          3D

 27 28  0  0  1  0  0  0  0  0999 V2000
    5.8921  -17.2627   24.3469 N   0  0  0  0  0  0  0  0  0  0  0  0
    7.0454  -16.4450   24.5547 C   0  0  1  0  0  0  0  0  0  0  0  0
    6.9530  -15.8568   25.9499 C   0  0  0  0  0  0  0  0  0  0  0  0
    6.9203  -14.3822   25.9036 C   0  0  0  0  0  0  0  0  0  0  0  0
    5.7987  -13.7142   26.3984 C   0  0  0  0  0  0  0  0  0  0  0  0
    5.7654  -12.3365   26.3564 C   0  0  0  0  0  0  0  0  0  0  0  0
    6.8156  -11.6182   25.8370 C   0  0  0  0  0  0  0  0  0  0  0  0
    7.9197  -12.2881   25.3504 C   0  0  0  0  0  0  0  0  0  0  0  0
    7.9767  -13.6684   25.3815 C   0  0  0  0  0  0  0  0  0  0  0  0
    8.3157  -17.2167   24.4710 C   0  0  0  0  0  0  0  0  0  0  0  0
    8.3223  -18.3809   24.9383 O   0  0  0  0  0  0  0  0  0  0  0  0
    9.4868  -16.6838   23.8923 N   0  0  0  0  0  0  0  0  0  0  0  0
   10.7488  -17.4551   23.7838 C   0  0  1  0  0  0  0  0  0  0  0  0
   11.5935  -16.8551   22.7188 C   0  0  0  0  0  0  0  0  0  0  0  0
   11.0947  -17.0318   21.3546 C   0  0  0  0  0  0  0  0  0  0  0  0
   10.2990  -18.1117   20.9539 C   0  0  0  0  0  0  0  0  0  0  0  0
    9.9985  -18.0133   19.6667 N   0  0  0  0  0  0  0  0  0  0  0  0
   10.5829  -16.8902   19.2202 C   0  0  0  0  0  0  0  0  0  0  0  0
   11.2398  -16.3038   20.2355 N   0  0  0  0  0  0  0  0  0  0  0  0
   11.3223  -17.6024   25.1091 C   0  0  0  0  0  0  0  0  0  0  0  0
   12.2275  -16.7607   25.4528 O   0  0  0  0  0  0  0  0  0  0  0  0
   10.8696  -19.2839   28.4149 C   0  0  0  0  0  0  0  0  0  0  0  0
   11.7287  -18.6235   27.3395 C   0  0  2  0  0  0  0  0  0  0  0  0
   10.9945  -18.5771   26.0894 N   0  0  0  0  0  0  0  0  0  0  0  0
   12.9540  -19.4380   27.2383 C   0  0  0  0  0  0  0  0  0  0  0  0
   13.7468  -19.4726   28.2082 O   0  0  0  0  0  0  0  0  0  0  0  0
   13.2126  -20.1480   26.0866 O   0  0  0  0  0  0  0  0  0  0  0  0
  2  1  1  1
  2  3  1  0
  3  4  1  0
  4  9  1  0
  5  4  2  0
  5  6  1  0
  6  7  2  0
  7  8  1  0
  9  8  2  0
 10 11  2  0
 10  2  1  0
 12 10  1  0
 13 20  1  0
 13 12  1  0
 13 14  1  6
 15 14  1  0
 16 15  2  0
 17 16  1  0
 18 17  1  0
 18 19  2  0
 19 15  1  0
 20 24  1  0
 21 20  2  0
 23 22  1  1
 23 25  1  0
 24 23  1  0
 25 26  2  0
 25 27  1  0
M  END
$$$$
