FHA.pdb
     RDKit          3D

 27 28  0  0  1  0  0  0  0  0999 V2000
    5.9906  -17.7562   24.2305 N   0  0  0  0  0  0  0  0  0  0  0  0
    6.7616  -16.5752   24.4596 C   0  0  1  0  0  0  0  0  0  0  0  0
    6.3127  -15.9754   25.7787 C   0  0  0  0  0  0  0  0  0  0  0  0
    6.4850  -14.5098   25.7818 C   0  0  0  0  0  0  0  0  0  0  0  0
    7.7049  -13.9709   25.3692 C   0  0  0  0  0  0  0  0  0  0  0  0
    7.8687  -12.6019   25.3710 C   0  0  0  0  0  0  0  0  0  0  0  0
    6.8527  -11.7676   25.7713 C   0  0  0  0  0  0  0  0  0  0  0  0
    5.6506  -12.3104   26.1772 C   0  0  0  0  0  0  0  0  0  0  0  0
    5.4621  -13.6792   26.1843 C   0  0  0  0  0  0  0  0  0  0  0  0
    8.2201  -16.8556   24.5620 C   0  0  0  0  0  0  0  0  0  0  0  0
    8.5735  -17.8814   25.1918 O   0  0  0  0  0  0  0  0  0  0  0  0
    9.1937  -16.0158   23.9814 N   0  0  0  0  0  0  0  0  0  0  0  0
   10.6465  -16.3042   24.0545 C   0  0  1  0  0  0  0  0  0  0  0  0
   11.3251  -15.6723   22.8935 C   0  0  0  0  0  0  0  0  0  0  0  0
   10.7654  -16.0112   21.5847 C   0  0  0  0  0  0  0  0  0  0  0  0
   10.8539  -17.2845   21.0099 C   0  0  0  0  0  0  0  0  0  0  0  0
   10.2624  -17.2996   19.8238 N   0  0  0  0  0  0  0  0  0  0  0  0
    9.7898  -16.0606   19.6142 C   0  0  0  0  0  0  0  0  0  0  0  0
   10.0934  -15.2902   20.6726 N   0  0  0  0  0  0  0  0  0  0  0  0
   11.1221  -15.9755   25.3860 C   0  0  0  0  0  0  0  0  0  0  0  0
   12.3588  -16.2037   25.6395 O   0  0  0  0  0  0  0  0  0  0  0  0
   10.2667  -14.0442   28.4638 C   0  0  0  0  0  0  0  0  0  0  0  0
   11.0189  -15.1515   27.7297 C   0  0  2  0  0  0  0  0  0  0  0  0
   10.3744  -15.4183   26.4579 N   0  0  0  0  0  0  0  0  0  0  0  0
   10.9962  -16.3234   28.6247 C   0  0  0  0  0  0  0  0  0  0  0  0
   11.5066  -16.2313   29.7656 O   0  0  0  0  0  0  0  0  0  0  0  0
   10.4178  -17.4994   28.2005 O   0  0  0  0  0  0  0  0  0  0  0  0
  2  1  1  1
  2  3  1  0
  3  4  1  0
  4  9  1  0
  5  4  2  0
  5  6  1  0
  6  7  2  0
  7  8  1  0
  9  8  2  0
 10 11  2  0
 10  2  1  0
 12 10  1  0
 13 20  1  0
 13 12  1  0
 13 14  1  6
 15 14  1  0
 16 15  2  0
 17 16  1  0
 18 17  1  0
 18 19  2  0
 19 15  1  0
 20 24  1  0
 21 20  2  0
 23 22  1  1
 23 25  1  0
 24 23  1  0
 25 26  2  0
 25 27  1  0
M  END
$$$$
