FHA.pdb
     RDKit          3D

 27 28  0  0  1  0  0  0  0  0999 V2000
    5.6688  -17.3074   24.5136 N   0  0  0  0  0  0  0  0  0  0  0  0
    6.7430  -16.3654   24.4967 C   0  0  1  0  0  0  0  0  0  0  0  0
    7.0153  -15.9449   25.9286 C   0  0  0  0  0  0  0  0  0  0  0  0
    7.0395  -14.4748   26.0550 C   0  0  0  0  0  0  0  0  0  0  0  0
    8.2422  -13.7973   25.8468 C   0  0  0  0  0  0  0  0  0  0  0  0
    8.2679  -12.4238   25.9642 C   0  0  0  0  0  0  0  0  0  0  0  0
    7.1316  -11.7188   26.2815 C   0  0  0  0  0  0  0  0  0  0  0  0
    5.9477  -12.3981   26.4853 C   0  0  0  0  0  0  0  0  0  0  0  0
    5.8966  -13.7743   26.3734 C   0  0  0  0  0  0  0  0  0  0  0  0
    8.0004  -16.9420   23.9465 C   0  0  0  0  0  0  0  0  0  0  0  0
    8.2657  -18.1357   24.2270 O   0  0  0  0  0  0  0  0  0  0  0  0
    8.8821  -16.1968   23.1356 N   0  0  0  0  0  0  0  0  0  0  0  0
   10.0982  -16.7851   22.5240 C   0  0  1  0  0  0  0  0  0  0  0  0
   10.5131  -15.9481   21.3686 C   0  0  0  0  0  0  0  0  0  0  0  0
    9.6059  -15.9773   20.2208 C   0  0  0  0  0  0  0  0  0  0  0  0
    9.1494  -17.1580   19.6233 C   0  0  0  0  0  0  0  0  0  0  0  0
    8.3448  -16.8819   18.6069 N   0  0  0  0  0  0  0  0  0  0  0  0
    8.2678  -15.5438   18.5300 C   0  0  0  0  0  0  0  0  0  0  0  0
    9.0257  -15.0042   19.4998 N   0  0  0  0  0  0  0  0  0  0  0  0
   11.0726  -17.0371   23.5701 C   0  0  0  0  0  0  0  0  0  0  0  0
   11.7450  -16.0322   23.9991 O   0  0  0  0  0  0  0  0  0  0  0  0
   12.1993  -19.5730   26.0790 C   0  0  0  0  0  0  0  0  0  0  0  0
   12.4271  -18.3575   25.1839 C   0  0  2  0  0  0  0  0  0  0  0  0
   11.3734  -18.2794   24.1902 N   0  0  0  0  0  0  0  0  0  0  0  0
   13.7574  -18.5423   24.5748 C   0  0  0  0  0  0  0  0  0  0  0  0
   13.8434  -18.7263   23.3382 O   0  0  0  0  0  0  0  0  0  0  0  0
   14.8846  -18.5107   25.3661 O   0  0  0  0  0  0  0  0  0  0  0  0
  2  1  1  1
  2  3  1  0
  3  4  1  0
  4  9  1  0
  5  4  2  0
  5  6  1  0
  6  7  2  0
  7  8  1  0
  9  8  2  0
 10 11  2  0
 10  2  1  0
 12 10  1  0
 13 20  1  0
 13 12  1  0
 13 14  1  6
 15 14  1  0
 16 15  2  0
 17 16  1  0
 18 17  1  0
 18 19  2  0
 19 15  1  0
 20 24  1  0
 21 20  2  0
 23 22  1  1
 23 25  1  0
 24 23  1  0
 25 26  2  0
 25 27  1  0
M  END
$$$$
