FHA.pdb
     RDKit          3D

 27 28  0  0  1  0  0  0  0  0999 V2000
    5.9189  -16.0204   25.4518 N   0  0  0  0  0  0  0  0  0  0  0  0
    6.3837  -15.8036   24.1182 C   0  0  1  0  0  0  0  0  0  0  0  0
    6.4871  -14.3060   23.8995 C   0  0  0  0  0  0  0  0  0  0  0  0
    6.8534  -13.6108   25.1486 C   0  0  0  0  0  0  0  0  0  0  0  0
    8.2035  -13.4756   25.4769 C   0  0  0  0  0  0  0  0  0  0  0  0
    8.5488  -12.8265   26.6433 C   0  0  0  0  0  0  0  0  0  0  0  0
    7.5865  -12.3149   27.4806 C   0  0  0  0  0  0  0  0  0  0  0  0
    6.2547  -12.4539   27.1468 C   0  0  0  0  0  0  0  0  0  0  0  0
    5.8835  -13.1003   25.9833 C   0  0  0  0  0  0  0  0  0  0  0  0
    7.7309  -16.3907   23.8798 C   0  0  0  0  0  0  0  0  0  0  0  0
    8.1565  -17.2290   24.7105 O   0  0  0  0  0  0  0  0  0  0  0  0
    8.5237  -16.0364   22.7680 N   0  0  0  0  0  0  0  0  0  0  0  0
    9.7082  -16.8226   22.3460 C   0  0  1  0  0  0  0  0  0  0  0  0
   10.2001  -16.2978   21.0459 C   0  0  0  0  0  0  0  0  0  0  0  0
   11.2892  -17.0625   20.4374 C   0  0  0  0  0  0  0  0  0  0  0  0
   11.2165  -18.4340   20.1666 C   0  0  0  0  0  0  0  0  0  0  0  0
   12.3462  -18.8586   19.6187 N   0  0  0  0  0  0  0  0  0  0  0  0
   13.1542  -17.7904   19.5270 C   0  0  0  0  0  0  0  0  0  0  0  0
   12.5170  -16.7145   20.0191 N   0  0  0  0  0  0  0  0  0  0  0  0
   10.6437  -16.8900   23.4538 C   0  0  0  0  0  0  0  0  0  0  0  0
   10.9070  -15.7937   24.0660 O   0  0  0  0  0  0  0  0  0  0  0  0
   12.2120  -19.0378   25.9826 C   0  0  0  0  0  0  0  0  0  0  0  0
   12.3344  -17.9009   24.9711 C   0  0  2  0  0  0  0  0  0  0  0  0
   11.3098  -18.0409   23.9540 N   0  0  0  0  0  0  0  0  0  0  0  0
   13.6952  -17.9974   24.4109 C   0  0  0  0  0  0  0  0  0  0  0  0
   13.8376  -18.2120   23.1845 O   0  0  0  0  0  0  0  0  0  0  0  0
   14.7886  -17.8513   25.2359 O   0  0  0  0  0  0  0  0  0  0  0  0
  2  1  1  1
  2  3  1  0
  3  4  1  0
  4  9  1  0
  5  4  2  0
  5  6  1  0
  6  7  2  0
  7  8  1  0
  9  8  2  0
 10 11  2  0
 10  2  1  0
 12 10  1  0
 13 20  1  0
 13 12  1  0
 13 14  1  6
 15 14  1  0
 16 15  2  0
 17 16  1  0
 18 17  1  0
 18 19  2  0
 19 15  1  0
 20 24  1  0
 21 20  2  0
 23 22  1  1
 23 25  1  0
 24 23  1  0
 25 26  2  0
 25 27  1  0
M  END
$$$$
