FHA.pdb
     RDKit          3D

 27 28  0  0  1  0  0  0  0  0999 V2000
    5.7012  -17.9190   25.6305 N   0  0  0  0  0  0  0  0  0  0  0  0
    6.1365  -16.5751   25.4160 C   0  0  1  0  0  0  0  0  0  0  0  0
    6.9249  -16.1412   26.6372 C   0  0  0  0  0  0  0  0  0  0  0  0
    7.0493  -14.6718   26.6946 C   0  0  0  0  0  0  0  0  0  0  0  0
    8.3217  -14.0984   26.6611 C   0  0  0  0  0  0  0  0  0  0  0  0
    8.4409  -12.7259   26.7146 C   0  0  0  0  0  0  0  0  0  0  0  0
    7.3300  -11.9213   26.7999 C   0  0  0  0  0  0  0  0  0  0  0  0
    6.0767  -12.4981   26.8324 C   0  0  0  0  0  0  0  0  0  0  0  0
    5.9313  -13.8712   26.7801 C   0  0  0  0  0  0  0  0  0  0  0  0
    7.0282  -16.4454   24.2309 C   0  0  0  0  0  0  0  0  0  0  0  0
    7.9079  -17.3243   24.0644 O   0  0  0  0  0  0  0  0  0  0  0  0
    6.9119  -15.3827   23.3103 N   0  0  0  0  0  0  0  0  0  0  0  0
    7.6872  -15.3287   22.0474 C   0  0  1  0  0  0  0  0  0  0  0  0
    7.2325  -14.1610   21.2490 C   0  0  0  0  0  0  0  0  0  0  0  0
    7.7545  -14.0988   19.8834 C   0  0  0  0  0  0  0  0  0  0  0  0
    8.6674  -15.0218   19.3597 C   0  0  0  0  0  0  0  0  0  0  0  0
    8.9647  -14.7181   18.1042 N   0  0  0  0  0  0  0  0  0  0  0  0
    8.2634  -13.6148   17.7992 C   0  0  0  0  0  0  0  0  0  0  0  0
    7.5384  -13.2459   18.8689 N   0  0  0  0  0  0  0  0  0  0  0  0
    9.1006  -15.4331   22.3615 C   0  0  0  0  0  0  0  0  0  0  0  0
    9.6135  -14.4971   23.0732 O   0  0  0  0  0  0  0  0  0  0  0  0
   11.9384  -17.8083   22.5687 C   0  0  0  0  0  0  0  0  0  0  0  0
   11.3928  -16.3967   22.3676 C   0  0  2  0  0  0  0  0  0  0  0  0
    9.9980  -16.4646   21.9751 N   0  0  0  0  0  0  0  0  0  0  0  0
   12.2364  -15.7768   21.3289 C   0  0  0  0  0  0  0  0  0  0  0  0
   11.7415  -15.5351   20.2032 O   0  0  0  0  0  0  0  0  0  0  0  0
   13.5510  -15.4714   21.6049 O   0  0  0  0  0  0  0  0  0  0  0  0
  2  1  1  1
  2  3  1  0
  3  4  1  0
  4  9  1  0
  5  4  2  0
  5  6  1  0
  6  7  2  0
  7  8  1  0
  9  8  2  0
 10 11  2  0
 10  2  1  0
 12 10  1  0
 13 20  1  0
 13 12  1  0
 13 14  1  1
 15 14  1  0
 16 15  2  0
 17 16  1  0
 18 17  1  0
 18 19  2  0
 19 15  1  0
 20 24  1  0
 21 20  2  0
 23 22  1  6
 23 25  1  0
 24 23  1  0
 25 26  2  0
 25 27  1  0
M  END
$$$$
