FHA.pdb
     RDKit          3D

 27 28  0  0  1  0  0  0  0  0999 V2000
    7.9464  -17.0888   20.7985 N   0  0  0  0  0  0  0  0  0  0  0  0
    9.2894  -16.6335   20.6231 C   0  0  1  0  0  0  0  0  0  0  0  0
    9.5001  -15.4428   21.5391 C   0  0  0  0  0  0  0  0  0  0  0  0
    8.6930  -14.2872   21.1022 C   0  0  0  0  0  0  0  0  0  0  0  0
    7.8807  -13.6381   22.0337 C   0  0  0  0  0  0  0  0  0  0  0  0
    7.1255  -12.5581   21.6284 C   0  0  0  0  0  0  0  0  0  0  0  0
    7.1627  -12.1162   20.3276 C   0  0  0  0  0  0  0  0  0  0  0  0
    7.9689  -12.7649   19.4145 C   0  0  0  0  0  0  0  0  0  0  0  0
    8.7350  -13.8496   19.7965 C   0  0  0  0  0  0  0  0  0  0  0  0
   10.2959  -17.6687   20.9862 C   0  0  0  0  0  0  0  0  0  0  0  0
    9.9472  -18.5623   21.7948 O   0  0  0  0  0  0  0  0  0  0  0  0
   11.6032  -17.6705   20.4558 N   0  0  0  0  0  0  0  0  0  0  0  0
   12.5868  -18.7395   20.7537 C   0  0  1  0  0  0  0  0  0  0  0  0
   13.4275  -18.9735   19.5512 C   0  0  0  0  0  0  0  0  0  0  0  0
   12.7557  -19.6560   18.4448 C   0  0  0  0  0  0  0  0  0  0  0  0
   11.9663  -20.8009   18.6050 C   0  0  0  0  0  0  0  0  0  0  0  0
   11.4879  -21.2012   17.4355 N   0  0  0  0  0  0  0  0  0  0  0  0
   11.9499  -20.3393   16.5158 C   0  0  0  0  0  0  0  0  0  0  0  0
   12.7102  -19.4135   17.1247 N   0  0  0  0  0  0  0  0  0  0  0  0
   13.2546  -18.4254   22.0038 C   0  0  0  0  0  0  0  0  0  0  0  0
   13.7818  -17.2607   22.1100 O   0  0  0  0  0  0  0  0  0  0  0  0
   13.8975  -19.7416   25.4758 C   0  0  0  0  0  0  0  0  0  0  0  0
   14.1277  -18.7920   24.3029 C   0  0  2  0  0  0  0  0  0  0  0  0
   13.3930  -19.2619   23.1438 N   0  0  0  0  0  0  0  0  0  0  0  0
   15.5841  -18.7736   24.0720 C   0  0  0  0  0  0  0  0  0  0  0  0
   16.0409  -19.2573   23.0100 O   0  0  0  0  0  0  0  0  0  0  0  0
   16.4221  -18.2283   25.0196 O   0  0  0  0  0  0  0  0  0  0  0  0
  2  1  1  1
  2  3  1  0
  3  4  1  0
  4  9  1  0
  5  4  2  0
  5  6  1  0
  6  7  2  0
  7  8  1  0
  9  8  2  0
 10 11  2  0
 10  2  1  0
 12 10  1  0
 13 20  1  0
 13 12  1  0
 13 14  1  6
 15 14  1  0
 16 15  2  0
 17 16  1  0
 18 17  1  0
 18 19  2  0
 19 15  1  0
 20 24  1  0
 21 20  2  0
 23 22  1  1
 23 25  1  0
 24 23  1  0
 25 26  2  0
 25 27  1  0
M  END
$$$$
