FHA.pdb
     RDKit          3D

 27 28  0  0  1  0  0  0  0  0999 V2000
    6.6028  -18.2491   20.7239 N   0  0  0  0  0  0  0  0  0  0  0  0
    7.1024  -17.0320   21.2814 C   0  0  1  0  0  0  0  0  0  0  0  0
    6.2719  -15.8907   20.7256 C   0  0  0  0  0  0  0  0  0  0  0  0
    6.9403  -14.5929   20.9421 C   0  0  0  0  0  0  0  0  0  0  0  0
    7.8753  -14.1487   20.0054 C   0  0  0  0  0  0  0  0  0  0  0  0
    8.5013  -12.9366   20.2050 C   0  0  0  0  0  0  0  0  0  0  0  0
    8.2179  -12.1661   21.3072 C   0  0  0  0  0  0  0  0  0  0  0  0
    7.2920  -12.6144   22.2272 C   0  0  0  0  0  0  0  0  0  0  0  0
    6.6514  -13.8256   22.0492 C   0  0  0  0  0  0  0  0  0  0  0  0
    6.9896  -16.9943   22.7653 C   0  0  0  0  0  0  0  0  0  0  0  0
    5.8417  -16.8867   23.2600 O   0  0  0  0  0  0  0  0  0  0  0  0
    8.1159  -17.0746   23.6111 N   0  0  0  0  0  0  0  0  0  0  0  0
    8.0090  -17.0649   25.0902 C   0  0  1  0  0  0  0  0  0  0  0  0
    8.3459  -18.4156   25.6094 C   0  0  0  0  0  0  0  0  0  0  0  0
    7.3377  -19.4471   25.3628 C   0  0  0  0  0  0  0  0  0  0  0  0
    6.1148  -19.1998   24.7280 C   0  0  0  0  0  0  0  0  0  0  0  0
    5.4031  -20.3146   24.6430 N   0  0  0  0  0  0  0  0  0  0  0  0
    6.1383  -21.2843   25.2101 C   0  0  0  0  0  0  0  0  0  0  0  0
    7.2984  -20.7603   25.6409 N   0  0  0  0  0  0  0  0  0  0  0  0
    8.7526  -15.9296   25.6054 C   0  0  0  0  0  0  0  0  0  0  0  0
    9.9318  -15.7401   25.1370 O   0  0  0  0  0  0  0  0  0  0  0  0
    8.5300  -12.8846   27.7888 C   0  0  0  0  0  0  0  0  0  0  0  0
    9.2769  -14.0523   27.1492 C   0  0  2  0  0  0  0  0  0  0  0  0
    8.3249  -14.9849   26.5765 N   0  0  0  0  0  0  0  0  0  0  0  0
   10.0791  -14.6628   28.2256 C   0  0  0  0  0  0  0  0  0  0  0  0
    9.8244  -15.8350   28.5882 O   0  0  0  0  0  0  0  0  0  0  0  0
   11.0937  -13.9431   28.8175 O   0  0  0  0  0  0  0  0  0  0  0  0
  2  1  1  6
  2  3  1  0
  3  4  1  0
  4  9  1  0
  5  4  2  0
  5  6  1  0
  6  7  2  0
  7  8  1  0
  9  8  2  0
 10 11  2  0
 10  2  1  0
 12 10  1  0
 13 20  1  0
 13 12  1  0
 13 14  1  1
 15 14  1  0
 16 15  2  0
 17 16  1  0
 18 17  1  0
 18 19  2  0
 19 15  1  0
 20 24  1  0
 21 20  2  0
 23 22  1  1
 23 25  1  0
 24 23  1  0
 25 26  2  0
 25 27  1  0
M  END
$$$$
