FHA.pdb
     RDKit          3D

 27 28  0  0  1  0  0  0  0  0999 V2000
    6.1316  -17.8214   23.8521 N   0  0  0  0  0  0  0  0  0  0  0  0
    6.8238  -16.6107   24.1632 C   0  0  1  0  0  0  0  0  0  0  0  0
    6.1765  -16.0086   25.3959 C   0  0  0  0  0  0  0  0  0  0  0  0
    6.5356  -14.5848   25.5427 C   0  0  0  0  0  0  0  0  0  0  0  0
    6.0078  -13.8605   26.6130 C   0  0  0  0  0  0  0  0  0  0  0  0
    6.3415  -12.5300   26.7526 C   0  0  0  0  0  0  0  0  0  0  0  0
    7.1817  -11.9129   25.8571 C   0  0  0  0  0  0  0  0  0  0  0  0
    7.6981  -12.6378   24.8024 C   0  0  0  0  0  0  0  0  0  0  0  0
    7.3784  -13.9724   24.6411 C   0  0  0  0  0  0  0  0  0  0  0  0
    8.2625  -16.8379   24.4715 C   0  0  0  0  0  0  0  0  0  0  0  0
    8.5568  -17.8290   25.1821 O   0  0  0  0  0  0  0  0  0  0  0  0
    9.2810  -15.9857   23.9954 N   0  0  0  0  0  0  0  0  0  0  0  0
   10.7225  -16.2723   24.1933 C   0  0  1  0  0  0  0  0  0  0  0  0
   11.4888  -15.7172   23.0477 C   0  0  0  0  0  0  0  0  0  0  0  0
   11.1457  -16.2760   21.7396 C   0  0  0  0  0  0  0  0  0  0  0  0
   10.8877  -17.6343   21.5202 C   0  0  0  0  0  0  0  0  0  0  0  0
   10.6070  -17.8523   20.2433 N   0  0  0  0  0  0  0  0  0  0  0  0
   10.6770  -16.6623   19.6258 C   0  0  0  0  0  0  0  0  0  0  0  0
   11.0004  -15.7188   20.5263 N   0  0  0  0  0  0  0  0  0  0  0  0
   11.1016  -15.8608   25.5327 C   0  0  0  0  0  0  0  0  0  0  0  0
   12.3162  -16.0706   25.8885 O   0  0  0  0  0  0  0  0  0  0  0  0
   10.0285  -13.7123   28.3893 C   0  0  0  0  0  0  0  0  0  0  0  0
   10.8410  -14.8592   27.7935 C   0  0  2  0  0  0  0  0  0  0  0  0
   10.2800  -15.2394   26.5111 N   0  0  0  0  0  0  0  0  0  0  0  0
   10.7812  -15.9562   28.7773 C   0  0  0  0  0  0  0  0  0  0  0  0
   11.2656  -15.7801   29.9196 O   0  0  0  0  0  0  0  0  0  0  0  0
   10.1972  -17.1554   28.4331 O   0  0  0  0  0  0  0  0  0  0  0  0
  2  1  1  1
  2  3  1  0
  3  4  1  0
  4  9  1  0
  5  4  2  0
  5  6  1  0
  6  7  2  0
  7  8  1  0
  9  8  2  0
 10 11  2  0
 10  2  1  0
 12 10  1  0
 13 20  1  0
 13 12  1  0
 13 14  1  6
 15 14  1  0
 16 15  2  0
 17 16  1  0
 18 17  1  0
 18 19  2  0
 19 15  1  0
 20 24  1  0
 21 20  2  0
 23 22  1  1
 23 25  1  0
 24 23  1  0
 25 26  2  0
 25 27  1  0
M  END
$$$$
