SAN.pdb
     RDKit          3D

 20 19  0  0  1  0  0  0  0  0999 V2000
    7.3365  -18.1294   18.3720 O   0  0  0  0  0  0  0  0  0  0  0  0
    6.5776  -17.2663   17.5486 C   0  0  0  0  0  0  0  0  0  0  0  0
    7.4587  -16.1147   17.0544 C   0  0  2  0  0  0  0  0  0  0  0  0
    8.4581  -16.7368   16.1967 N   0  0  0  0  0  0  0  0  0  0  0  0
    8.0668  -15.5073   18.2526 C   0  0  0  0  0  0  0  0  0  0  0  0
    9.1836  -15.9667   18.6645 O   0  0  0  0  0  0  0  0  0  0  0  0
    7.3336  -12.7847   20.6921 C   0  0  0  0  0  0  0  0  0  0  0  0
    8.1849  -13.9193   20.1684 C   0  0  2  0  0  0  0  0  0  0  0  0
    7.5154  -14.4421   19.0024 N   0  0  0  0  0  0  0  0  0  0  0  0
    8.4267  -14.9464   21.1974 C   0  0  0  0  0  0  0  0  0  0  0  0
    7.5253  -15.7804   21.5469 O   0  0  0  0  0  0  0  0  0  0  0  0
   10.8190  -18.6991   23.7727 N   0  0  0  0  0  0  0  0  0  0  0  0
   10.3898  -18.6933   22.4209 C   0  0  0  0  0  0  0  0  0  0  0  0
   10.3892  -19.7793   21.8159 O   0  0  0  0  0  0  0  0  0  0  0  0
    9.9708  -17.4477   21.7889 C   0  0  0  0  0  0  0  0  0  0  0  0
   10.0829  -16.2195   22.6370 C   0  0  2  0  0  0  0  0  0  0  0  0
    9.6826  -15.0352   21.8333 N   0  0  0  0  0  0  0  0  0  0  0  0
   11.4363  -15.9824   23.1866 C   0  0  0  0  0  0  0  0  0  0  0  0
   11.7341  -16.5473   24.2789 O   0  0  0  0  0  0  0  0  0  0  0  0
   12.3714  -15.2070   22.6015 O   0  0  0  0  0  0  0  0  0  0  0  0
  2  1  1  0
  3  5  1  0
  3  2  1  0
  3  4  1  6
  5  6  2  0
  8  7  1  1
  9  8  1  0
  9  5  1  0
 10 11  2  0
 10  8  1  0
 12 13  1  0
 13 15  1  0
 13 14  2  0
 16 15  1  6
 16 17  1  0
 16 18  1  0
 17 10  1  0
 18 20  1  0
 19 18  2  0
M  END
$$$$
