SAN.pdb
     RDKit          3D

 20 19  0  0  1  0  0  0  0  0999 V2000
    7.0043  -17.5534   15.4057 O   0  0  0  0  0  0  0  0  0  0  0  0
    8.2802  -16.9621   15.5514 C   0  0  0  0  0  0  0  0  0  0  0  0
    8.1718  -15.4450   15.3681 C   0  0  2  0  0  0  0  0  0  0  0  0
    8.8868  -15.1556   14.1326 N   0  0  0  0  0  0  0  0  0  0  0  0
    8.8290  -14.8328   16.5376 C   0  0  0  0  0  0  0  0  0  0  0  0
   10.1020  -14.8784   16.6103 O   0  0  0  0  0  0  0  0  0  0  0  0
    7.9028  -12.8716   19.5656 C   0  0  0  0  0  0  0  0  0  0  0  0
    8.8974  -13.6360   18.7215 C   0  0  2  0  0  0  0  0  0  0  0  0
    8.1655  -14.1875   17.6074 N   0  0  0  0  0  0  0  0  0  0  0  0
    9.6081  -14.6636   19.5035 C   0  0  0  0  0  0  0  0  0  0  0  0
    9.1712  -15.8589   19.6064 O   0  0  0  0  0  0  0  0  0  0  0  0
   14.1805  -13.7294   19.1038 N   0  0  0  0  0  0  0  0  0  0  0  0
   13.6914  -14.9475   19.6412 C   0  0  0  0  0  0  0  0  0  0  0  0
   13.8511  -15.9772   18.9632 O   0  0  0  0  0  0  0  0  0  0  0  0
   13.0303  -14.9636   20.9409 C   0  0  0  0  0  0  0  0  0  0  0  0
   11.5869  -15.3597   20.9303 C   0  0  2  0  0  0  0  0  0  0  0  0
   10.8101  -14.3464   20.1697 N   0  0  0  0  0  0  0  0  0  0  0  0
   10.9867  -15.5039   22.2752 C   0  0  0  0  0  0  0  0  0  0  0  0
   10.1305  -14.6433   22.6319 O   0  0  0  0  0  0  0  0  0  0  0  0
   11.2902  -16.4898   23.1435 O   0  0  0  0  0  0  0  0  0  0  0  0
  2  1  1  0
  3  5  1  0
  3  2  1  0
  3  4  1  6
  5  6  2  0
  8  7  1  1
  9  8  1  0
  9  5  1  0
 10 11  2  0
 10  8  1  0
 12 13  1  0
 13 15  1  0
 13 14  2  0
 16 15  1  1
 16 17  1  0
 16 18  1  0
 17 10  1  0
 18 20  1  0
 19 18  2  0
M  END
$$$$
