SAN.pdb
     RDKit          3D

 20 19  0  0  1  0  0  0  0  0999 V2000
    7.3668  -17.7055   19.2947 O   0  0  0  0  0  0  0  0  0  0  0  0
    8.0173  -17.8263   18.0453 C   0  0  0  0  0  0  0  0  0  0  0  0
    7.8195  -16.5430   17.2323 C   0  0  2  0  0  0  0  0  0  0  0  0
    8.5842  -16.7421   16.0087 N   0  0  0  0  0  0  0  0  0  0  0  0
    8.3658  -15.4417   18.0466 C   0  0  0  0  0  0  0  0  0  0  0  0
    9.6316  -15.3591   18.1830 O   0  0  0  0  0  0  0  0  0  0  0  0
    7.1354  -12.3858   19.7805 C   0  0  0  0  0  0  0  0  0  0  0  0
    8.2314  -13.3568   19.4034 C   0  0  2  0  0  0  0  0  0  0  0  0
    7.6011  -14.4493   18.7035 N   0  0  0  0  0  0  0  0  0  0  0  0
    9.0027  -13.7997   20.5787 C   0  0  0  0  0  0  0  0  0  0  0  0
    9.6333  -12.9771   21.3242 O   0  0  0  0  0  0  0  0  0  0  0  0
   10.8593  -16.9763   24.3791 N   0  0  0  0  0  0  0  0  0  0  0  0
    9.6432  -17.4710   23.8427 C   0  0  0  0  0  0  0  0  0  0  0  0
    9.1634  -18.4943   24.3607 O   0  0  0  0  0  0  0  0  0  0  0  0
    9.0011  -16.7871   22.7262 C   0  0  0  0  0  0  0  0  0  0  0  0
    9.7758  -15.6560   22.1254 C   0  0  2  0  0  0  0  0  0  0  0  0
    9.0645  -15.1680   20.9153 N   0  0  0  0  0  0  0  0  0  0  0  0
   11.1646  -16.0029   21.7500 C   0  0  0  0  0  0  0  0  0  0  0  0
   11.3375  -16.6656   20.6861 O   0  0  0  0  0  0  0  0  0  0  0  0
   12.2554  -15.6595   22.4642 O   0  0  0  0  0  0  0  0  0  0  0  0
  2  1  1  0
  3  5  1  0
  3  2  1  0
  3  4  1  6
  5  6  2  0
  8  7  1  1
  9  8  1  0
  9  5  1  0
 10 11  2  0
 10  8  1  0
 12 13  1  0
 13 15  1  0
 13 14  2  0
 16 15  1  6
 16 17  1  0
 16 18  1  0
 17 10  1  0
 18 20  1  0
 19 18  2  0
M  END
$$$$
