SAN.pdb
     RDKit          3D

 20 19  0  0  1  0  0  0  0  0999 V2000
   -3.0201  -29.0151   28.9003 O   0  0  0  0  0  0  0  0  0  0  0  0
   -3.6889  -27.8193   29.2491 C   0  0  0  0  0  0  0  0  0  0  0  0
   -2.6690  -26.7662   29.6934 C   0  0  2  0  0  0  0  0  0  0  0  0
   -2.1940  -27.2167   30.9945 N   0  0  0  0  0  0  0  0  0  0  0  0
   -3.3991  -25.4887   29.7891 C   0  0  0  0  0  0  0  0  0  0  0  0
   -4.0035  -25.2163   30.8792 O   0  0  0  0  0  0  0  0  0  0  0  0
   -3.9524  -22.4073   27.7805 C   0  0  0  0  0  0  0  0  0  0  0  0
   -4.3012  -23.3340   28.9232 C   0  0  2  0  0  0  0  0  0  0  0  0
   -3.4935  -24.5186   28.7639 N   0  0  0  0  0  0  0  0  0  0  0  0
   -5.7446  -23.6285   28.9721 C   0  0  0  0  0  0  0  0  0  0  0  0
   -6.2887  -24.4810   28.1927 O   0  0  0  0  0  0  0  0  0  0  0  0
   -7.3708  -25.2188   32.9897 N   0  0  0  0  0  0  0  0  0  0  0  0
   -8.0769  -24.9625   31.7866 C   0  0  0  0  0  0  0  0  0  0  0  0
   -8.4122  -25.9430   31.0997 O   0  0  0  0  0  0  0  0  0  0  0  0
   -8.3848  -23.5924   31.3935 C   0  0  0  0  0  0  0  0  0  0  0  0
   -8.0359  -23.2272   29.9845 C   0  0  2  0  0  0  0  0  0  0  0  0
   -6.5758  -22.9639   29.8977 N   0  0  0  0  0  0  0  0  0  0  0  0
   -8.7610  -22.0460   29.4659 C   0  0  0  0  0  0  0  0  0  0  0  0
   -8.2057  -20.9156   29.5873 O   0  0  0  0  0  0  0  0  0  0  0  0
   -9.9709  -22.0945   28.8728 O   0  0  0  0  0  0  0  0  0  0  0  0
  2  1  1  0
  3  5  1  0
  3  2  1  0
  3  4  1  1
  5  6  2  0
  8  7  1  6
  9  8  1  0
  9  5  1  0
 10 11  2  0
 10  8  1  0
 12 13  1  0
 13 15  1  0
 13 14  2  0
 16 15  1  1
 16 17  1  0
 16 18  1  0
 17 10  1  0
 18 20  1  0
 19 18  2  0
M  END
$$$$
