SAN.pdb
     RDKit          3D

 20 19  0  0  1  0  0  0  0  0999 V2000
   10.2408  -17.7840   20.6697 O   0  0  0  0  0  0  0  0  0  0  0  0
    9.4498  -17.9726   19.5132 C   0  0  0  0  0  0  0  0  0  0  0  0
    9.5300  -16.7289   18.6224 C   0  0  2  0  0  0  0  0  0  0  0  0
   10.8640  -16.7603   18.0386 N   0  0  0  0  0  0  0  0  0  0  0  0
    9.3474  -15.5649   19.5090 C   0  0  0  0  0  0  0  0  0  0  0  0
   10.3841  -14.9319   19.8993 O   0  0  0  0  0  0  0  0  0  0  0  0
    6.7872  -13.1395   20.3616 C   0  0  0  0  0  0  0  0  0  0  0  0
    8.0243  -13.8923   20.7966 C   0  0  2  0  0  0  0  0  0  0  0  0
    8.1049  -15.0761   19.9762 N   0  0  0  0  0  0  0  0  0  0  0  0
    8.0051  -14.1962   22.2387 C   0  0  0  0  0  0  0  0  0  0  0  0
    6.9659  -14.0090   22.9565 O   0  0  0  0  0  0  0  0  0  0  0  0
    5.7172  -17.1140   24.3974 N   0  0  0  0  0  0  0  0  0  0  0  0
    7.0419  -16.8289   24.8163 C   0  0  0  0  0  0  0  0  0  0  0  0
    7.2434  -16.7122   26.0375 O   0  0  0  0  0  0  0  0  0  0  0  0
    8.1079  -16.6829   23.8320 C   0  0  0  0  0  0  0  0  0  0  0  0
    9.0759  -15.5693   24.0837 C   0  0  2  0  0  0  0  0  0  0  0  0
    9.1549  -14.7106   22.8732 N   0  0  0  0  0  0  0  0  0  0  0  0
   10.4414  -16.0192   24.4343 C   0  0  0  0  0  0  0  0  0  0  0  0
   11.2197  -16.3286   23.4859 O   0  0  0  0  0  0  0  0  0  0  0  0
   10.9106  -16.1199   25.6943 O   0  0  0  0  0  0  0  0  0  0  0  0
  2  1  1  0
  3  5  1  0
  3  2  1  0
  3  4  1  1
  5  6  2  0
  8  7  1  6
  9  8  1  0
  9  5  1  0
 10 11  2  0
 10  8  1  0
 12 13  1  0
 13 15  1  0
 13 14  2  0
 16 15  1  6
 16 17  1  0
 16 18  1  0
 17 10  1  0
 18 20  1  0
 19 18  2  0
M  END
$$$$
