SAN.pdb
     RDKit          3D

 20 19  0  0  1  0  0  0  0  0999 V2000
    8.5322  -11.8923   18.6808 O   0  0  0  0  0  0  0  0  0  0  0  0
    8.0374  -12.8247   19.6212 C   0  0  0  0  0  0  0  0  0  0  0  0
    8.5549  -14.2262   19.2824 C   0  0  2  0  0  0  0  0  0  0  0  0
    7.8337  -14.6215   18.0802 N   0  0  0  0  0  0  0  0  0  0  0  0
    8.2181  -15.0872   20.4311 C   0  0  0  0  0  0  0  0  0  0  0  0
    7.4233  -16.0672   20.2416 O   0  0  0  0  0  0  0  0  0  0  0  0
    9.5246  -17.1374   21.9965 C   0  0  0  0  0  0  0  0  0  0  0  0
    8.7511  -16.0293   22.6749 C   0  0  2  0  0  0  0  0  0  0  0  0
    8.7039  -14.9236   21.7496 N   0  0  0  0  0  0  0  0  0  0  0  0
    9.3410  -15.6622   23.9748 C   0  0  0  0  0  0  0  0  0  0  0  0
   10.5603  -15.3004   24.0873 O   0  0  0  0  0  0  0  0  0  0  0  0
    7.7157  -11.9367   26.2216 N   0  0  0  0  0  0  0  0  0  0  0  0
    7.3062  -13.2918   26.1355 C   0  0  0  0  0  0  0  0  0  0  0  0
    6.4381  -13.5750   25.2918 O   0  0  0  0  0  0  0  0  0  0  0  0
    7.8964  -14.2945   27.0146 C   0  0  0  0  0  0  0  0  0  0  0  0
    9.0151  -15.0962   26.4262 C   0  0  2  0  0  0  0  0  0  0  0  0
    8.5592  -15.7022   25.1481 N   0  0  0  0  0  0  0  0  0  0  0  0
    9.5191  -16.1733   27.3070 C   0  0  0  0  0  0  0  0  0  0  0  0
    9.9754  -15.8410   28.4395 O   0  0  0  0  0  0  0  0  0  0  0  0
    9.5235  -17.4824   26.9841 O   0  0  0  0  0  0  0  0  0  0  0  0
  2  1  1  0
  3  5  1  0
  3  2  1  0
  3  4  1  6
  5  6  2  0
  8  7  1  6
  9  8  1  0
  9  5  1  0
 10 11  2  0
 10  8  1  0
 12 13  1  0
 13 15  1  0
 13 14  2  0
 16 15  1  1
 16 17  1  0
 16 18  1  0
 17 10  1  0
 18 20  1  0
 19 18  2  0
M  END
$$$$
