SAN.pdb
     RDKit          3D

 20 19  0  0  1  0  0  0  0  0999 V2000
    7.5636  -13.6144   22.3588 O   0  0  0  0  0  0  0  0  0  0  0  0
    6.5703  -14.3785   21.7042 C   0  0  0  0  0  0  0  0  0  0  0  0
    7.1240  -14.9263   20.3850 C   0  0  2  0  0  0  0  0  0  0  0  0
    6.0311  -15.6891   19.7974 N   0  0  0  0  0  0  0  0  0  0  0  0
    8.2675  -15.7887   20.7355 C   0  0  0  0  0  0  0  0  0  0  0  0
    8.0469  -16.8339   21.4332 O   0  0  0  0  0  0  0  0  0  0  0  0
   11.5919  -16.5198   19.4707 C   0  0  0  0  0  0  0  0  0  0  0  0
   10.6462  -16.5239   20.6505 C   0  0  2  0  0  0  0  0  0  0  0  0
    9.6128  -15.5595   20.3628 N   0  0  0  0  0  0  0  0  0  0  0  0
   11.3467  -16.2503   21.9182 C   0  0  0  0  0  0  0  0  0  0  0  0
   11.5025  -15.0639   22.3636 O   0  0  0  0  0  0  0  0  0  0  0  0
   12.3356  -18.7288   27.3481 N   0  0  0  0  0  0  0  0  0  0  0  0
   12.9555  -18.2142   26.1808 C   0  0  0  0  0  0  0  0  0  0  0  0
   14.1106  -17.7691   26.2948 O   0  0  0  0  0  0  0  0  0  0  0  0
   12.2430  -18.2186   24.9083 C   0  0  0  0  0  0  0  0  0  0  0  0
   12.5623  -17.0874   23.9815 C   0  0  2  0  0  0  0  0  0  0  0  0
   11.8717  -17.3114   22.6848 N   0  0  0  0  0  0  0  0  0  0  0  0
   14.0077  -16.9043   23.7221 C   0  0  0  0  0  0  0  0  0  0  0  0
   14.5366  -17.6132   22.8172 O   0  0  0  0  0  0  0  0  0  0  0  0
   14.7964  -16.0336   24.3836 O   0  0  0  0  0  0  0  0  0  0  0  0
  2  1  1  0
  3  5  1  0
  3  2  1  0
  3  4  1  1
  5  6  2  0
  8  7  1  6
  9  8  1  0
  9  5  1  0
 10 11  2  0
 10  8  1  0
 12 13  1  0
 13 15  1  0
 13 14  2  0
 16 15  1  1
 16 17  1  0
 16 18  1  0
 17 10  1  0
 18 20  1  0
 19 18  2  0
M  END
$$$$
