SAN.pdb
     RDKit          3D

 20 19  0  0  1  0  0  0  0  0999 V2000
    7.5483  -16.9851   17.3659 O   0  0  0  0  0  0  0  0  0  0  0  0
    8.0501  -16.1533   18.3931 C   0  0  0  0  0  0  0  0  0  0  0  0
    8.4473  -17.0060   19.6023 C   0  0  2  0  0  0  0  0  0  0  0  0
    7.2601  -17.7835   19.9303 N   0  0  0  0  0  0  0  0  0  0  0  0
    8.8015  -16.0654   20.6812 C   0  0  0  0  0  0  0  0  0  0  0  0
    9.8474  -15.3483   20.5410 O   0  0  0  0  0  0  0  0  0  0  0  0
    7.1699  -14.4482   23.5428 C   0  0  0  0  0  0  0  0  0  0  0  0
    8.4388  -14.8574   22.8295 C   0  0  2  0  0  0  0  0  0  0  0  0
    8.0749  -15.8814   21.8809 N   0  0  0  0  0  0  0  0  0  0  0  0
    9.4831  -15.2965   23.7724 C   0  0  0  0  0  0  0  0  0  0  0  0
    9.8642  -14.5672   24.7487 O   0  0  0  0  0  0  0  0  0  0  0  0
   10.1771  -16.9002   27.0886 N   0  0  0  0  0  0  0  0  0  0  0  0
   10.3520  -18.1755   26.4932 C   0  0  0  0  0  0  0  0  0  0  0  0
   10.0452  -19.1710   27.1718 O   0  0  0  0  0  0  0  0  0  0  0  0
   10.8738  -18.2870   25.1360 C   0  0  0  0  0  0  0  0  0  0  0  0
   11.2332  -16.9953   24.4705 C   0  0  2  0  0  0  0  0  0  0  0  0
   10.0986  -16.5560   23.6169 N   0  0  0  0  0  0  0  0  0  0  0  0
   12.4543  -17.0606   23.6371 C   0  0  0  0  0  0  0  0  0  0  0  0
   13.5590  -17.2420   24.2268 O   0  0  0  0  0  0  0  0  0  0  0  0
   12.4678  -16.9411   22.2942 O   0  0  0  0  0  0  0  0  0  0  0  0
  2  1  1  0
  3  5  1  0
  3  2  1  0
  3  4  1  1
  5  6  2  0
  8  7  1  1
  9  8  1  0
  9  5  1  0
 10 11  2  0
 10  8  1  0
 12 13  1  0
 13 15  1  0
 13 14  2  0
 16 15  1  6
 16 17  1  0
 16 18  1  0
 17 10  1  0
 18 20  1  0
 19 18  2  0
M  END
$$$$
