SAN.pdb
     RDKit          3D

 20 19  0  0  1  0  0  0  0  0999 V2000
   13.6443  -19.1599   20.9462 O   0  0  0  0  0  0  0  0  0  0  0  0
   12.4173  -19.4390   20.3016 C   0  0  0  0  0  0  0  0  0  0  0  0
   11.9257  -18.1913   19.5612 C   0  0  2  0  0  0  0  0  0  0  0  0
   12.9881  -17.8588   18.6219 N   0  0  0  0  0  0  0  0  0  0  0  0
   11.7474  -17.1410   20.5807 C   0  0  0  0  0  0  0  0  0  0  0  0
   12.4708  -16.0928   20.5039 O   0  0  0  0  0  0  0  0  0  0  0  0
    9.4933  -16.3192   23.4146 C   0  0  0  0  0  0  0  0  0  0  0  0
   10.7897  -16.1486   22.6553 C   0  0  2  0  0  0  0  0  0  0  0  0
   10.8310  -17.1893   21.6572 N   0  0  0  0  0  0  0  0  0  0  0  0
   11.9595  -16.1695   23.5518 C   0  0  0  0  0  0  0  0  0  0  0  0
   12.0944  -15.3350   24.5087 O   0  0  0  0  0  0  0  0  0  0  0  0
   15.9935  -20.0938   25.6509 N   0  0  0  0  0  0  0  0  0  0  0  0
   15.3175  -18.8530   25.7732 C   0  0  0  0  0  0  0  0  0  0  0  0
   15.7542  -18.0432   26.6094 O   0  0  0  0  0  0  0  0  0  0  0  0
   14.1573  -18.5634   24.9386 C   0  0  0  0  0  0  0  0  0  0  0  0
   14.1513  -17.2200   24.2785 C   0  0  2  0  0  0  0  0  0  0  0  0
   12.9774  -17.1290   23.3716 N   0  0  0  0  0  0  0  0  0  0  0  0
   15.3741  -16.9200   23.5008 C   0  0  0  0  0  0  0  0  0  0  0  0
   16.1426  -16.0157   23.9400 O   0  0  0  0  0  0  0  0  0  0  0  0
   15.7235  -17.5454   22.3586 O   0  0  0  0  0  0  0  0  0  0  0  0
  2  1  1  0
  3  5  1  0
  3  2  1  0
  3  4  1  6
  5  6  2  0
  8  7  1  1
  9  8  1  0
  9  5  1  0
 10 11  2  0
 10  8  1  0
 12 13  1  0
 13 15  1  0
 13 14  2  0
 16 15  1  6
 16 17  1  0
 16 18  1  0
 17 10  1  0
 18 20  1  0
 19 18  2  0
M  END
$$$$
