PAF.pdb
     RDKit          3D

 24 25  0  0  1  0  0  0  0  0999 V2000
   20.4437  -18.5637  -15.6517 N   0  0  0  0  0  0  0  0  0  0  0  0
   19.7163  -18.3919  -16.8777 C   0  0  0  0  0  0  0  0  0  0  0  0
   18.4939  -19.3043  -16.7152 C   0  0  0  0  0  0  0  0  0  0  0  0
   19.1282  -20.5041  -16.0421 C   0  0  0  0  0  0  0  0  0  0  0  0
   20.0967  -19.8286  -15.0872 C   0  0  1  0  0  0  0  0  0  0  0  0
   21.2948  -20.6312  -14.8405 C   0  0  0  0  0  0  0  0  0  0  0  0
   21.2746  -21.7420  -14.2220 O   0  0  0  0  0  0  0  0  0  0  0  0
   24.6117  -20.7920  -16.3760 C   0  0  0  0  0  0  0  0  0  0  0  0
   23.7839  -20.8864  -15.1138 C   0  0  2  0  0  0  0  0  0  0  0  0
   22.5529  -20.1684  -15.3046 N   0  0  0  0  0  0  0  0  0  0  0  0
   24.5286  -20.3867  -13.9207 C   0  0  0  0  0  0  0  0  0  0  0  0
   24.4133  -19.1776  -13.6004 O   0  0  0  0  0  0  0  0  0  0  0  0
   25.3596  -21.2318  -13.1401 N   0  0  0  0  0  0  0  0  0  0  0  0
   26.2501  -20.7917  -12.1003 C   0  0  1  0  0  0  0  0  0  0  0  0
   26.4436  -21.7924  -10.9734 C   0  0  0  0  0  0  0  0  0  0  0  0
   27.1732  -21.1912   -9.8076 C   0  0  0  0  0  0  0  0  0  0  0  0
   28.5279  -21.2823   -9.6171 C   0  0  0  0  0  0  0  0  0  0  0  0
   29.0895  -20.6895   -8.4802 C   0  0  0  0  0  0  0  0  0  0  0  0
   28.3392  -20.0158   -7.5414 C   0  0  0  0  0  0  0  0  0  0  0  0
   26.9791  -19.9278   -7.7395 C   0  0  0  0  0  0  0  0  0  0  0  0
   26.4176  -20.5047   -8.8490 C   0  0  0  0  0  0  0  0  0  0  0  0
   27.5104  -20.2032  -12.5806 C   0  0  0  0  0  0  0  0  0  0  0  0
   28.3414  -20.8571  -13.2554 O   0  0  0  0  0  0  0  0  0  0  0  0
   27.8201  -18.8813  -12.2943 O   0  0  0  0  0  0  0  0  0  0  0  0
  1  5  1  0
  2  1  1  0
  2  3  1  0
  3  4  1  0
  5  4  1  0
  5  6  1  6
  6  7  2  0
  9  8  1  6
 10  9  1  0
 10  6  1  0
 11 12  2  0
 11  9  1  0
 13 11  1  0
 14 13  1  0
 14 22  1  0
 14 15  1  1
 16 21  1  0
 16 15  1  0
 17 16  2  0
 18 19  2  0
 18 17  1  0
 19 20  1  0
 20 21  2  0
 22 24  1  0
 23 22  2  0
M  END
$$$$
