PAF.pdb
     RDKit          3D

 24 25  0  0  1  0  0  0  0  0999 V2000
   26.0229  -16.3960  -14.4822 N   0  0  0  0  0  0  0  0  0  0  0  0
   26.4932  -15.0534  -14.6772 C   0  0  0  0  0  0  0  0  0  0  0  0
   26.1542  -14.7503  -16.1422 C   0  0  0  0  0  0  0  0  0  0  0  0
   26.4981  -16.0764  -16.7888 C   0  0  0  0  0  0  0  0  0  0  0  0
   25.9808  -17.0545  -15.7486 C   0  0  1  0  0  0  0  0  0  0  0  0
   26.7530  -18.2966  -15.7119 C   0  0  0  0  0  0  0  0  0  0  0  0
   26.9182  -19.0450  -16.7264 O   0  0  0  0  0  0  0  0  0  0  0  0
   29.4063  -19.6533  -13.6708 C   0  0  0  0  0  0  0  0  0  0  0  0
   28.0831  -19.9392  -14.3450 C   0  0  2  0  0  0  0  0  0  0  0  0
   27.3568  -18.7075  -14.4958 N   0  0  0  0  0  0  0  0  0  0  0  0
   27.2856  -20.9560  -13.5981 C   0  0  0  0  0  0  0  0  0  0  0  0
   27.6754  -22.1501  -13.6021 O   0  0  0  0  0  0  0  0  0  0  0  0
   26.1055  -20.6170  -12.8864 N   0  0  0  0  0  0  0  0  0  0  0  0
   25.3434  -21.5172  -12.0637 C   0  0  1  0  0  0  0  0  0  0  0  0
   26.1166  -22.1104  -10.8979 C   0  0  0  0  0  0  0  0  0  0  0  0
   26.5901  -21.0540   -9.9425 C   0  0  0  0  0  0  0  0  0  0  0  0
   25.7879  -20.0718   -9.4215 C   0  0  0  0  0  0  0  0  0  0  0  0
   26.3520  -19.1340   -8.5487 C   0  0  0  0  0  0  0  0  0  0  0  0
   27.6817  -19.1545   -8.1884 C   0  0  0  0  0  0  0  0  0  0  0  0
   28.4814  -20.1443   -8.7153 C   0  0  0  0  0  0  0  0  0  0  0  0
   27.9403  -21.0682   -9.5712 C   0  0  0  0  0  0  0  0  0  0  0  0
   24.0091  -21.0235  -11.6878 C   0  0  0  0  0  0  0  0  0  0  0  0
   23.6213  -19.8629  -11.9637 O   0  0  0  0  0  0  0  0  0  0  0  0
   23.1252  -21.8455  -11.0037 O   0  0  0  0  0  0  0  0  0  0  0  0
  1  5  1  0
  2  1  1  0
  2  3  1  0
  3  4  1  0
  5  4  1  0
  5  6  1  1
  6  7  2  0
  9  8  1  1
 10  9  1  0
 10  6  1  0
 11 12  2  0
 11  9  1  0
 13 11  1  0
 14 13  1  0
 14 22  1  0
 14 15  1  1
 16 21  1  0
 16 15  1  0
 17 16  2  0
 18 19  2  0
 18 17  1  0
 19 20  1  0
 20 21  2  0
 22 24  1  0
 23 22  2  0
M  END
$$$$
