PAF.pdb
     RDKit          3D

 24 25  0  0  1  0  0  0  0  0999 V2000
   17.7723   -7.6993  -20.1097 N   0  0  0  0  0  0  0  0  0  0  0  0
   17.1877   -7.7528  -21.4200 C   0  0  0  0  0  0  0  0  0  0  0  0
   16.7682   -9.2195  -21.5799 C   0  0  0  0  0  0  0  0  0  0  0  0
   17.9490   -9.9195  -20.9391 C   0  0  0  0  0  0  0  0  0  0  0  0
   18.2275   -9.0064  -19.7581 C   0  0  1  0  0  0  0  0  0  0  0  0
   19.6431   -8.9796  -19.3897 C   0  0  0  0  0  0  0  0  0  0  0  0
   20.3021  -10.0213  -19.0777 O   0  0  0  0  0  0  0  0  0  0  0  0
   22.3220   -6.5361  -19.9888 C   0  0  0  0  0  0  0  0  0  0  0  0
   21.7455   -7.6240  -19.1104 C   0  0  2  0  0  0  0  0  0  0  0  0
   20.3367   -7.7422  -19.3725 N   0  0  0  0  0  0  0  0  0  0  0  0
   22.0129   -7.3718  -17.6638 C   0  0  0  0  0  0  0  0  0  0  0  0
   23.1418   -7.6669  -17.1987 O   0  0  0  0  0  0  0  0  0  0  0  0
   21.0354   -6.8114  -16.8010 N   0  0  0  0  0  0  0  0  0  0  0  0
   20.8889   -7.1144  -15.4030 C   0  0  1  0  0  0  0  0  0  0  0  0
   22.1488   -6.9065  -14.5794 C   0  0  0  0  0  0  0  0  0  0  0  0
   22.1918   -7.8093  -13.3811 C   0  0  0  0  0  0  0  0  0  0  0  0
   21.5592   -7.5438  -12.1940 C   0  0  0  0  0  0  0  0  0  0  0  0
   21.6865   -8.4600  -11.1434 C   0  0  0  0  0  0  0  0  0  0  0  0
   22.4212   -9.6207  -11.2497 C   0  0  0  0  0  0  0  0  0  0  0  0
   23.0535   -9.8811  -12.4452 C   0  0  0  0  0  0  0  0  0  0  0  0
   22.9363   -8.9911  -13.4812 C   0  0  0  0  0  0  0  0  0  0  0  0
   19.6827   -6.5502  -14.7764 C   0  0  0  0  0  0  0  0  0  0  0  0
   19.3511   -5.3492  -14.9214 O   0  0  0  0  0  0  0  0  0  0  0  0
   18.8625   -7.3482  -13.9919 O   0  0  0  0  0  0  0  0  0  0  0  0
  1  5  1  0
  2  1  1  0
  2  3  1  0
  3  4  1  0
  5  4  1  0
  5  6  1  6
  6  7  2  0
  9  8  1  6
 10  9  1  0
 10  6  1  0
 11 12  2  0
 11  9  1  0
 13 11  1  0
 14 13  1  0
 14 22  1  0
 14 15  1  1
 16 21  1  0
 16 15  1  0
 17 16  2  0
 18 19  2  0
 18 17  1  0
 19 20  1  0
 20 21  2  0
 22 24  1  0
 23 22  2  0
M  END
$$$$
