PAF.pdb
     RDKit          3D

 24 25  0  0  1  0  0  0  0  0999 V2000
   27.2657  -19.4873  -15.2293 N   0  0  0  0  0  0  0  0  0  0  0  0
   26.9380  -18.6645  -16.3594 C   0  0  0  0  0  0  0  0  0  0  0  0
   27.8136  -17.4181  -16.1777 C   0  0  0  0  0  0  0  0  0  0  0  0
   27.7068  -17.2175  -14.6799 C   0  0  0  0  0  0  0  0  0  0  0  0
   27.7673  -18.6520  -14.1853 C   0  0  1  0  0  0  0  0  0  0  0  0
   27.0078  -18.8537  -12.9513 C   0  0  0  0  0  0  0  0  0  0  0  0
   27.1053  -18.0894  -11.9399 O   0  0  0  0  0  0  0  0  0  0  0  0
   24.2787  -21.2710  -12.0366 C   0  0  0  0  0  0  0  0  0  0  0  0
   25.3104  -20.2203  -11.6916 C   0  0  2  0  0  0  0  0  0  0  0  0
   26.1118  -19.9492  -12.8542 N   0  0  0  0  0  0  0  0  0  0  0  0
   26.1537  -20.6283  -10.5296 C   0  0  0  0  0  0  0  0  0  0  0  0
   27.0396  -21.5016  -10.7043 O   0  0  0  0  0  0  0  0  0  0  0  0
   25.9864  -20.0627   -9.2389 N   0  0  0  0  0  0  0  0  0  0  0  0
   26.7532  -20.4104   -8.0731 C   0  0  1  0  0  0  0  0  0  0  0  0
   27.7121  -19.3282   -7.6059 C   0  0  0  0  0  0  0  0  0  0  0  0
   28.3283  -19.6591   -6.2779 C   0  0  0  0  0  0  0  0  0  0  0  0
   29.2944  -20.6144   -6.0940 C   0  0  0  0  0  0  0  0  0  0  0  0
   29.7811  -20.8399   -4.8011 C   0  0  0  0  0  0  0  0  0  0  0  0
   29.3315  -20.1419   -3.7016 C   0  0  0  0  0  0  0  0  0  0  0  0
   28.3613  -19.1834   -3.8939 C   0  0  0  0  0  0  0  0  0  0  0  0
   27.8767  -18.9539   -5.1555 C   0  0  0  0  0  0  0  0  0  0  0  0
   25.9701  -21.0076   -6.9797 C   0  0  0  0  0  0  0  0  0  0  0  0
   24.7601  -20.7338   -6.7944 O   0  0  0  0  0  0  0  0  0  0  0  0
   26.5613  -21.9087   -6.1058 O   0  0  0  0  0  0  0  0  0  0  0  0
  1  5  1  0
  2  1  1  0
  2  3  1  0
  3  4  1  0
  5  4  1  0
  5  6  1  1
  6  7  2  0
  9  8  1  6
 10  9  1  0
 10  6  1  0
 11 12  2  0
 11  9  1  0
 13 11  1  0
 14 13  1  0
 14 22  1  0
 14 15  1  1
 16 21  1  0
 16 15  1  0
 17 16  2  0
 18 19  2  0
 18 17  1  0
 19 20  1  0
 20 21  2  0
 22 24  1  0
 23 22  2  0
M  END
$$$$
