PAF.pdb
     RDKit          3D

 24 25  0  0  1  0  0  0  0  0999 V2000
   23.8210  -19.5203  -14.7607 N   0  0  0  0  0  0  0  0  0  0  0  0
   23.8141  -19.3749  -16.1891 C   0  0  0  0  0  0  0  0  0  0  0  0
   23.0193  -20.5907  -16.6824 C   0  0  0  0  0  0  0  0  0  0  0  0
   23.5419  -21.6635  -15.7492 C   0  0  0  0  0  0  0  0  0  0  0  0
   23.6293  -20.8986  -14.4402 C   0  0  1  0  0  0  0  0  0  0  0  0
   24.7059  -21.3836  -13.5765 C   0  0  0  0  0  0  0  0  0  0  0  0
   24.7470  -22.5660  -13.1108 O   0  0  0  0  0  0  0  0  0  0  0  0
   28.0697  -20.1243  -12.6546 C   0  0  0  0  0  0  0  0  0  0  0  0
   26.7952  -20.8468  -12.2794 C   0  0  2  0  0  0  0  0  0  0  0  0
   25.7678  -20.5102  -13.2272 N   0  0  0  0  0  0  0  0  0  0  0  0
   26.3713  -20.5391  -10.8817 C   0  0  0  0  0  0  0  0  0  0  0  0
   25.4728  -19.6804  -10.6991 O   0  0  0  0  0  0  0  0  0  0  0  0
   26.9494  -21.1838   -9.7574 N   0  0  0  0  0  0  0  0  0  0  0  0
   26.6756  -20.8620   -8.3829 C   0  0  1  0  0  0  0  0  0  0  0  0
   27.5255  -21.6217   -7.3782 C   0  0  0  0  0  0  0  0  0  0  0  0
   27.9320  -20.7583   -6.2197 C   0  0  0  0  0  0  0  0  0  0  0  0
   27.1309  -20.4924   -5.1393 C   0  0  0  0  0  0  0  0  0  0  0  0
   27.6205  -19.6591   -4.1267 C   0  0  0  0  0  0  0  0  0  0  0  0
   28.8758  -19.0927   -4.1675 C   0  0  0  0  0  0  0  0  0  0  0  0
   29.6752  -19.3645   -5.2556 C   0  0  0  0  0  0  0  0  0  0  0  0
   29.2065  -20.1790   -6.2536 C   0  0  0  0  0  0  0  0  0  0  0  0
   26.5828  -19.4214   -8.0971 C   0  0  0  0  0  0  0  0  0  0  0  0
   27.4296  -18.5981   -8.5195 O   0  0  0  0  0  0  0  0  0  0  0  0
   25.5340  -18.9243   -7.3367 O   0  0  0  0  0  0  0  0  0  0  0  0
  1  5  1  0
  2  1  1  0
  2  3  1  0
  3  4  1  0
  5  4  1  0
  5  6  1  1
  6  7  2  0
  9  8  1  6
 10  9  1  0
 10  6  1  0
 11 12  2  0
 11  9  1  0
 13 11  1  0
 14 13  1  0
 14 22  1  0
 14 15  1  1
 16 21  1  0
 16 15  1  0
 17 16  2  0
 18 19  2  0
 18 17  1  0
 19 20  1  0
 20 21  2  0
 22 24  1  0
 23 22  2  0
M  END
$$$$
