PAF.pdb
     RDKit          3D

 24 25  0  0  1  0  0  0  0  0999 V2000
   20.5361  -10.2369  -17.2961 N   0  0  0  0  0  0  0  0  0  0  0  0
   20.2431  -11.5996  -17.6406 C   0  0  0  0  0  0  0  0  0  0  0  0
   19.9271  -11.5439  -19.1406 C   0  0  0  0  0  0  0  0  0  0  0  0
   19.1274  -10.2591  -19.2102 C   0  0  0  0  0  0  0  0  0  0  0  0
   19.8996   -9.3786  -18.2434 C   0  0  1  0  0  0  0  0  0  0  0  0
   19.0449   -8.4036  -17.5657 C   0  0  0  0  0  0  0  0  0  0  0  0
   18.3790   -7.5129  -18.1820 O   0  0  0  0  0  0  0  0  0  0  0  0
   17.4664   -8.2973  -14.2558 C   0  0  0  0  0  0  0  0  0  0  0  0
   18.1020   -7.5375  -15.3986 C   0  0  2  0  0  0  0  0  0  0  0  0
   18.9374   -8.4333  -16.1515 N   0  0  0  0  0  0  0  0  0  0  0  0
   18.8675   -6.3490  -14.9197 C   0  0  0  0  0  0  0  0  0  0  0  0
   18.2880   -5.5169  -14.1783 O   0  0  0  0  0  0  0  0  0  0  0  0
   20.2242   -6.1308  -15.2744 N   0  0  0  0  0  0  0  0  0  0  0  0
   21.0662   -5.0940  -14.7417 C   0  0  1  0  0  0  0  0  0  0  0  0
   22.3643   -5.5918  -14.1283 C   0  0  0  0  0  0  0  0  0  0  0  0
   22.1882   -6.9117  -13.4358 C   0  0  0  0  0  0  0  0  0  0  0  0
   21.5753   -7.0672  -12.2193 C   0  0  0  0  0  0  0  0  0  0  0  0
   21.4848   -8.3515  -11.6700 C   0  0  0  0  0  0  0  0  0  0  0  0
   21.9855   -9.4700  -12.2997 C   0  0  0  0  0  0  0  0  0  0  0  0
   22.5996   -9.3064  -13.5216 C   0  0  0  0  0  0  0  0  0  0  0  0
   22.6944   -8.0534  -14.0694 C   0  0  0  0  0  0  0  0  0  0  0  0
   21.2476   -3.9346  -15.6296 C   0  0  0  0  0  0  0  0  0  0  0  0
   20.8283   -3.9234  -16.8118 O   0  0  0  0  0  0  0  0  0  0  0  0
   21.9010   -2.7987  -15.1737 O   0  0  0  0  0  0  0  0  0  0  0  0
  1  5  1  0
  2  1  1  0
  2  3  1  0
  3  4  1  0
  5  4  1  0
  5  6  1  1
  6  7  2  0
  9  8  1  1
 10  9  1  0
 10  6  1  0
 11 12  2  0
 11  9  1  0
 13 11  1  0
 14 13  1  0
 14 22  1  0
 14 15  1  6
 16 21  1  0
 16 15  1  0
 17 16  2  0
 18 19  2  0
 18 17  1  0
 19 20  1  0
 20 21  2  0
 22 24  1  0
 23 22  2  0
M  END
$$$$
