PAF.pdb
     RDKit          3D

 24 25  0  0  1  0  0  0  0  0999 V2000
   43.5069  -13.2532   -7.5980 N   0  0  0  0  0  0  0  0  0  0  0  0
   42.8695  -14.5398   -7.5984 C   0  0  0  0  0  0  0  0  0  0  0  0
   42.3197  -14.6814   -9.0235 C   0  0  0  0  0  0  0  0  0  0  0  0
   41.8191  -13.2733   -9.2711 C   0  0  0  0  0  0  0  0  0  0  0  0
   42.9190  -12.4511   -8.6228 C   0  0  1  0  0  0  0  0  0  0  0  0
   42.4269  -11.1879   -8.0727 C   0  0  0  0  0  0  0  0  0  0  0  0
   41.9844  -11.0695   -6.8866 O   0  0  0  0  0  0  0  0  0  0  0  0
   42.7392   -7.6501   -9.1021 C   0  0  0  0  0  0  0  0  0  0  0  0
   41.9317   -8.7487   -8.4478 C   0  0  2  0  0  0  0  0  0  0  0  0
   42.4335  -10.0238   -8.8833 N   0  0  0  0  0  0  0  0  0  0  0  0
   40.4725   -8.6106   -8.7295 C   0  0  0  0  0  0  0  0  0  0  0  0
   40.0286   -9.0245   -9.8293 O   0  0  0  0  0  0  0  0  0  0  0  0
   39.5745   -8.0286   -7.7973 N   0  0  0  0  0  0  0  0  0  0  0  0
   38.2022   -7.6917   -8.0639 C   0  0  1  0  0  0  0  0  0  0  0  0
   37.1897   -8.5327   -7.3047 C   0  0  0  0  0  0  0  0  0  0  0  0
   37.3008   -9.9899   -7.6468 C   0  0  0  0  0  0  0  0  0  0  0  0
   36.8476  -10.5428   -8.8167 C   0  0  0  0  0  0  0  0  0  0  0  0
   36.9976  -11.9207   -9.0130 C   0  0  0  0  0  0  0  0  0  0  0  0
   37.5828  -12.7485   -8.0799 C   0  0  0  0  0  0  0  0  0  0  0  0
   38.0362  -12.1861   -6.9073 C   0  0  0  0  0  0  0  0  0  0  0  0
   37.8946  -10.8379   -6.7037 C   0  0  0  0  0  0  0  0  0  0  0  0
   37.9067   -6.2505   -8.0291 C   0  0  0  0  0  0  0  0  0  0  0  0
   36.8027   -5.7834   -8.3986 O   0  0  0  0  0  0  0  0  0  0  0  0
   38.8610   -5.3505   -7.5770 O   0  0  0  0  0  0  0  0  0  0  0  0
  1  5  1  0
  2  1  1  0
  2  3  1  0
  3  4  1  0
  5  4  1  0
  5  6  1  1
  6  7  2  0
  9  8  1  6
 10  9  1  0
 10  6  1  0
 11 12  2  0
 11  9  1  0
 13 11  1  0
 14 13  1  0
 14 22  1  0
 14 15  1  1
 16 21  1  0
 16 15  1  0
 17 16  2  0
 18 19  2  0
 18 17  1  0
 19 20  1  0
 20 21  2  0
 22 24  1  0
 23 22  2  0
M  END
$$$$
