PAF.pdb
     RDKit          3D

 24 25  0  0  1  0  0  0  0  0999 V2000
   26.4771  -18.3259  -15.6733 N   0  0  0  0  0  0  0  0  0  0  0  0
   27.3794  -17.2898  -16.0906 C   0  0  0  0  0  0  0  0  0  0  0  0
   28.7677  -17.8485  -15.7539 C   0  0  0  0  0  0  0  0  0  0  0  0
   28.4876  -18.5076  -14.4190 C   0  0  0  0  0  0  0  0  0  0  0  0
   27.1193  -19.1158  -14.6718 C   0  0  1  0  0  0  0  0  0  0  0  0
   26.3007  -19.1814  -13.4610 C   0  0  0  0  0  0  0  0  0  0  0  0
   25.8004  -18.1552  -12.9014 O   0  0  0  0  0  0  0  0  0  0  0  0
   24.2332  -21.6784  -11.8704 C   0  0  0  0  0  0  0  0  0  0  0  0
   25.2757  -20.6041  -11.6552 C   0  0  2  0  0  0  0  0  0  0  0  0
   26.0383  -20.4408  -12.8632 N   0  0  0  0  0  0  0  0  0  0  0  0
   26.1568  -20.9085  -10.4897 C   0  0  0  0  0  0  0  0  0  0  0  0
   26.9608  -21.8698  -10.5761 O   0  0  0  0  0  0  0  0  0  0  0  0
   26.1148  -20.1489   -9.2917 N   0  0  0  0  0  0  0  0  0  0  0  0
   26.8506  -20.4463   -8.0925 C   0  0  1  0  0  0  0  0  0  0  0  0
   27.8094  -19.3515   -7.6557 C   0  0  0  0  0  0  0  0  0  0  0  0
   28.2289  -19.5109   -6.2234 C   0  0  0  0  0  0  0  0  0  0  0  0
   27.6045  -18.9016   -5.1658 C   0  0  0  0  0  0  0  0  0  0  0  0
   28.1000  -19.1191   -3.8748 C   0  0  0  0  0  0  0  0  0  0  0  0
   29.1906  -19.9212   -3.6189 C   0  0  0  0  0  0  0  0  0  0  0  0
   29.8126  -20.5304   -4.6860 C   0  0  0  0  0  0  0  0  0  0  0  0
   29.3365  -20.3248   -5.9549 C   0  0  0  0  0  0  0  0  0  0  0  0
   26.0361  -20.9823   -6.9903 C   0  0  0  0  0  0  0  0  0  0  0  0
   24.8396  -20.6480   -6.8167 O   0  0  0  0  0  0  0  0  0  0  0  0
   26.5809  -21.8911   -6.0945 O   0  0  0  0  0  0  0  0  0  0  0  0
  1  5  1  0
  2  1  1  0
  2  3  1  0
  3  4  1  0
  5  4  1  0
  5  6  1  1
  6  7  2  0
  9  8  1  6
 10  9  1  0
 10  6  1  0
 11 12  2  0
 11  9  1  0
 13 11  1  0
 14 13  1  0
 14 22  1  0
 14 15  1  1
 16 21  1  0
 16 15  1  0
 17 16  2  0
 18 19  2  0
 18 17  1  0
 19 20  1  0
 20 21  2  0
 22 24  1  0
 23 22  2  0
M  END
$$$$
