PAF.pdb
     RDKit          3D

 24 25  0  0  1  0  0  0  0  0999 V2000
   27.9721  -19.1571  -15.1994 N   0  0  0  0  0  0  0  0  0  0  0  0
   27.5964  -18.5388  -16.4396 C   0  0  0  0  0  0  0  0  0  0  0  0
   27.7393  -17.0366  -16.1640 C   0  0  0  0  0  0  0  0  0  0  0  0
   27.1896  -16.9576  -14.7545 C   0  0  0  0  0  0  0  0  0  0  0  0
   27.7686  -18.2203  -14.1410 C   0  0  1  0  0  0  0  0  0  0  0  0
   26.9058  -18.7890  -13.1055 C   0  0  0  0  0  0  0  0  0  0  0  0
   26.3860  -18.0972  -12.1738 O   0  0  0  0  0  0  0  0  0  0  0  0
   25.3148  -22.1528  -12.7036 C   0  0  0  0  0  0  0  0  0  0  0  0
   25.7883  -20.8296  -12.1449 C   0  0  2  0  0  0  0  0  0  0  0  0
   26.6201  -20.1784  -13.1202 N   0  0  0  0  0  0  0  0  0  0  0  0
   26.5003  -20.9971  -10.8439 C   0  0  0  0  0  0  0  0  0  0  0  0
   27.6327  -21.5409  -10.8416 O   0  0  0  0  0  0  0  0  0  0  0  0
   25.9401  -20.5630   -9.6144 N   0  0  0  0  0  0  0  0  0  0  0  0
   26.5371  -20.7445   -8.3188 C   0  0  1  0  0  0  0  0  0  0  0  0
   27.6964  -19.8074   -8.0242 C   0  0  0  0  0  0  0  0  0  0  0  0
   28.1785  -19.9382   -6.6088 C   0  0  0  0  0  0  0  0  0  0  0  0
   29.0386  -20.9140   -6.1754 C   0  0  0  0  0  0  0  0  0  0  0  0
   29.4042  -20.9381   -4.8245 C   0  0  0  0  0  0  0  0  0  0  0  0
   28.9370  -20.0215   -3.9080 C   0  0  0  0  0  0  0  0  0  0  0  0
   28.0737  -19.0439   -4.3505 C   0  0  0  0  0  0  0  0  0  0  0  0
   27.7083  -19.0103   -5.6712 C   0  0  0  0  0  0  0  0  0  0  0  0
   25.5756  -20.8495   -7.2098 C   0  0  0  0  0  0  0  0  0  0  0  0
   24.4659  -20.2650   -7.2269 O   0  0  0  0  0  0  0  0  0  0  0  0
   25.8767  -21.6139   -6.0917 O   0  0  0  0  0  0  0  0  0  0  0  0
  1  5  1  0
  2  1  1  0
  2  3  1  0
  3  4  1  0
  5  4  1  0
  5  6  1  1
  6  7  2  0
  9  8  1  6
 10  9  1  0
 10  6  1  0
 11 12  2  0
 11  9  1  0
 13 11  1  0
 14 13  1  0
 14 22  1  0
 14 15  1  1
 16 21  1  0
 16 15  1  0
 17 16  2  0
 18 19  2  0
 18 17  1  0
 19 20  1  0
 20 21  2  0
 22 24  1  0
 23 22  2  0
M  END
$$$$
