CGI.pdb
     RDKit          3D

 19 18  0  0  1  0  0  0  0  0999 V2000
   28.8574  -20.8589  -17.4945 N   0  0  0  0  0  0  0  0  0  0  0  0
   28.4108  -19.5071  -17.7412 C   0  0  1  0  0  0  0  0  0  0  0  0
   27.6408  -19.4315  -19.0601 C   0  0  0  0  0  0  0  0  0  0  0  0
   28.7380  -19.1982  -20.4561 S   0  0  0  0  0  0  0  0  0  0  0  0
   27.5502  -19.0776  -16.6113 C   0  0  0  0  0  0  0  0  0  0  0  0
   26.3170  -18.8819  -16.7718 O   0  0  0  0  0  0  0  0  0  0  0  0
   28.1098  -18.8776  -15.3137 N   0  0  0  0  0  0  0  0  0  0  0  0
   27.2973  -18.4480  -14.1929 C   0  0  0  0  0  0  0  0  0  0  0  0
   26.5932  -19.6351  -13.6178 C   0  0  0  0  0  0  0  0  0  0  0  0
   26.8703  -20.8125  -13.9913 O   0  0  0  0  0  0  0  0  0  0  0  0
   26.8639  -20.1727   -8.6182 C   0  0  0  0  0  0  0  0  0  0  0  0
   26.6140  -20.4617  -10.0416 C   0  0  0  0  0  0  0  0  0  0  0  0
   25.2037  -20.6299  -10.4932 C   0  0  2  0  0  0  0  0  0  0  0  0
   24.5333  -21.6903   -9.6533 C   0  0  0  0  0  0  0  0  0  0  0  0
   24.9935  -20.6612  -11.9304 C   0  0  2  0  0  0  0  0  0  0  0  0
   25.5933  -19.5366  -12.6412 N   0  0  0  0  0  0  0  0  0  0  0  0
   23.6449  -20.8328  -12.4631 C   0  0  0  0  0  0  0  0  0  0  0  0
   23.0427  -22.0065  -12.8744 O   0  0  0  0  0  0  0  0  0  0  0  0
   22.9013  -19.7975  -12.5834 O   0  0  0  0  0  0  0  0  0  0  0  0
  2  1  1  1
  3  2  1  0
  3  4  1  0
  5  6  2  0
  5  2  1  0
  7  5  1  0
  8  7  1  0
  9  8  1  0
  9 10  2  0
 11 12  1  0
 12 13  1  0
 13 14  1  1
 15 13  1  0
 15 16  1  6
 16  9  1  0
 17 15  1  0
 18 17  1  0
 19 17  2  0
M  END
$$$$
