CGI.pdb
     RDKit          3D

 19 18  0  0  1  0  0  0  0  0999 V2000
   28.9716  -22.5660  -15.7041 N   0  0  0  0  0  0  0  0  0  0  0  0
   28.5574  -21.4955  -16.5817 C   0  0  1  0  0  0  0  0  0  0  0  0
   28.3390  -22.0223  -18.0004 C   0  0  0  0  0  0  0  0  0  0  0  0
   28.9977  -23.6752  -18.2027 S   0  0  0  0  0  0  0  0  0  0  0  0
   27.3060  -20.9022  -16.0490 C   0  0  0  0  0  0  0  0  0  0  0  0
   27.2289  -20.5123  -14.8545 O   0  0  0  0  0  0  0  0  0  0  0  0
   26.1598  -20.7622  -16.8879 N   0  0  0  0  0  0  0  0  0  0  0  0
   24.9713  -20.0629  -16.4415 C   0  0  0  0  0  0  0  0  0  0  0  0
   24.3368  -20.8388  -15.3319 C   0  0  0  0  0  0  0  0  0  0  0  0
   24.2567  -22.1015  -15.3706 O   0  0  0  0  0  0  0  0  0  0  0  0
   25.1740  -21.1827   -9.4904 C   0  0  0  0  0  0  0  0  0  0  0  0
   24.1920  -21.3488  -10.5767 C   0  0  0  0  0  0  0  0  0  0  0  0
   24.4457  -20.6576  -11.8726 C   0  0  2  0  0  0  0  0  0  0  0  0
   24.8276  -19.2214  -11.6064 C   0  0  0  0  0  0  0  0  0  0  0  0
   23.4932  -20.9265  -12.9362 C   0  0  2  0  0  0  0  0  0  0  0  0
   23.7936  -20.2391  -14.1880 N   0  0  0  0  0  0  0  0  0  0  0  0
   22.0637  -20.7593  -12.6895 C   0  0  0  0  0  0  0  0  0  0  0  0
   21.2929  -19.6360  -12.9207 O   0  0  0  0  0  0  0  0  0  0  0  0
   21.4113  -21.7449  -12.1974 O   0  0  0  0  0  0  0  0  0  0  0  0
  2  1  1  1
  3  2  1  0
  3  4  1  0
  5  6  2  0
  5  2  1  0
  7  5  1  0
  8  7  1  0
  9  8  1  0
  9 10  2  0
 11 12  1  0
 12 13  1  0
 13 14  1  1
 15 13  1  0
 15 16  1  6
 16  9  1  0
 17 15  1  0
 18 17  1  0
 19 17  2  0
M  END
$$$$
