CGI.pdb
     RDKit          3D

 19 18  0  0  1  0  0  0  0  0999 V2000
   13.5929  -22.4959    0.4739 N   0  0  0  0  0  0  0  0  0  0  0  0
   14.5570  -22.5622    1.5480 C   0  0  1  0  0  0  0  0  0  0  0  0
   15.6506  -23.5799    1.2220 C   0  0  0  0  0  0  0  0  0  0  0  0
   14.9837  -25.2305    1.0277 S   0  0  0  0  0  0  0  0  0  0  0  0
   15.1437  -21.2132    1.7434 C   0  0  0  0  0  0  0  0  0  0  0  0
   15.2287  -20.3973    0.7886 O   0  0  0  0  0  0  0  0  0  0  0  0
   15.6251  -20.8149    3.0266 N   0  0  0  0  0  0  0  0  0  0  0  0
   16.2337  -19.5171    3.2414 C   0  0  0  0  0  0  0  0  0  0  0  0
   16.6652  -19.4112    4.6691 C   0  0  0  0  0  0  0  0  0  0  0  0
   16.2869  -20.2509    5.5375 O   0  0  0  0  0  0  0  0  0  0  0  0
   21.5679  -19.2101    6.1305 C   0  0  0  0  0  0  0  0  0  0  0  0
   20.0962  -19.2656    6.0782 C   0  0  0  0  0  0  0  0  0  0  0  0
   19.3221  -18.1910    6.7618 C   0  0  2  0  0  0  0  0  0  0  0  0
   19.8214  -18.0397    8.1786 C   0  0  0  0  0  0  0  0  0  0  0  0
   17.8864  -18.1989    6.5394 C   0  0  2  0  0  0  0  0  0  0  0  0
   17.5042  -18.3948    5.1447 N   0  0  0  0  0  0  0  0  0  0  0  0
   17.0656  -17.1083    7.0581 C   0  0  0  0  0  0  0  0  0  0  0  0
   16.4493  -16.1008    6.3407 O   0  0  0  0  0  0  0  0  0  0  0  0
   16.8733  -17.0387    8.3219 O   0  0  0  0  0  0  0  0  0  0  0  0
  2  1  1  6
  3  2  1  0
  3  4  1  0
  5  6  2  0
  5  2  1  0
  7  5  1  0
  8  7  1  0
  9  8  1  0
  9 10  2  0
 11 12  1  0
 12 13  1  0
 13 14  1  1
 15 13  1  0
 15 16  1  6
 16  9  1  0
 17 15  1  0
 18 17  1  0
 19 17  2  0
M  END
$$$$
