CGI.pdb
     RDKit          3D

 19 18  0  0  1  0  0  0  0  0999 V2000
   30.5965  -25.2528  -17.0154 N   0  0  0  0  0  0  0  0  0  0  0  0
   29.4139  -24.5935  -17.5198 C   0  0  1  0  0  0  0  0  0  0  0  0
   28.3094  -25.6147  -17.7944 C   0  0  0  0  0  0  0  0  0  0  0  0
   27.6234  -26.2735  -16.2772 S   0  0  0  0  0  0  0  0  0  0  0  0
   28.9625  -23.5960  -16.5182 C   0  0  0  0  0  0  0  0  0  0  0  0
   29.7745  -23.0722  -15.7115 O   0  0  0  0  0  0  0  0  0  0  0  0
   27.5899  -23.2106  -16.4519 N   0  0  0  0  0  0  0  0  0  0  0  0
   27.1509  -22.0987  -15.6324 C   0  0  0  0  0  0  0  0  0  0  0  0
   25.6739  -21.9286  -15.7920 C   0  0  0  0  0  0  0  0  0  0  0  0
   25.1139  -22.0440  -16.9214 O   0  0  0  0  0  0  0  0  0  0  0  0
   22.3474  -24.4214  -13.6904 C   0  0  0  0  0  0  0  0  0  0  0  0
   22.9861  -23.2437  -13.0763 C   0  0  0  0  0  0  0  0  0  0  0  0
   22.6544  -21.8952  -13.6177 C   0  0  2  0  0  0  0  0  0  0  0  0
   21.1586  -21.6944  -13.5761 C   0  0  0  0  0  0  0  0  0  0  0  0
   23.3649  -21.4985  -14.8213 C   0  0  2  0  0  0  0  0  0  0  0  0
   24.8147  -21.6345  -14.7250 N   0  0  0  0  0  0  0  0  0  0  0  0
   23.0972  -20.1968  -15.4262 C   0  0  0  0  0  0  0  0  0  0  0  0
   23.7412  -19.0005  -15.1745 O   0  0  0  0  0  0  0  0  0  0  0  0
   22.1601  -20.1098  -16.2943 O   0  0  0  0  0  0  0  0  0  0  0  0
  2  1  1  1
  3  2  1  0
  3  4  1  0
  5  6  2  0
  5  2  1  0
  7  5  1  0
  8  7  1  0
  9  8  1  0
  9 10  2  0
 11 12  1  0
 12 13  1  0
 13 14  1  6
 15 13  1  0
 15 16  1  1
 16  9  1  0
 17 15  1  0
 18 17  1  0
 19 17  2  0
M  END
$$$$
