CGI.pdb
     RDKit          3D

 19 18  0  0  1  0  0  0  0  0999 V2000
   28.2452  -20.5270  -18.2627 N   0  0  0  0  0  0  0  0  0  0  0  0
   27.3115  -20.8907  -17.2217 C   0  0  1  0  0  0  0  0  0  0  0  0
   27.3769  -22.3934  -16.9469 C   0  0  0  0  0  0  0  0  0  0  0  0
   28.8841  -22.8463  -16.0926 S   0  0  0  0  0  0  0  0  0  0  0  0
   27.6440  -20.1230  -15.9961 C   0  0  0  0  0  0  0  0  0  0  0  0
   28.3324  -19.0708  -16.0554 O   0  0  0  0  0  0  0  0  0  0  0  0
   27.1857  -20.5678  -14.7197 N   0  0  0  0  0  0  0  0  0  0  0  0
   26.9865  -19.6456  -13.6194 C   0  0  0  0  0  0  0  0  0  0  0  0
   26.5125  -20.4083  -12.4238 C   0  0  0  0  0  0  0  0  0  0  0  0
   26.0740  -21.5913  -12.5261 O   0  0  0  0  0  0  0  0  0  0  0  0
   26.7362  -20.2774   -6.1603 C   0  0  0  0  0  0  0  0  0  0  0  0
   26.1970  -20.7599   -7.4442 C   0  0  0  0  0  0  0  0  0  0  0  0
   26.5729  -20.0313   -8.6889 C   0  0  2  0  0  0  0  0  0  0  0  0
   26.4422  -18.5452   -8.4566 C   0  0  0  0  0  0  0  0  0  0  0  0
   26.0523  -20.5782   -9.9301 C   0  0  2  0  0  0  0  0  0  0  0  0
   26.5176  -19.8819  -11.1252 N   0  0  0  0  0  0  0  0  0  0  0  0
   24.6149  -20.7819  -10.0870 C   0  0  0  0  0  0  0  0  0  0  0  0
   23.6816  -19.8807  -10.5624 O   0  0  0  0  0  0  0  0  0  0  0  0
   24.1201  -21.9141   -9.7517 O   0  0  0  0  0  0  0  0  0  0  0  0
  2  1  1  6
  3  2  1  0
  3  4  1  0
  5  6  2  0
  5  2  1  0
  7  5  1  0
  8  7  1  0
  9  8  1  0
  9 10  2  0
 11 12  1  0
 12 13  1  0
 13 14  1  1
 15 13  1  0
 15 16  1  6
 16  9  1  0
 17 15  1  0
 18 17  1  0
 19 17  2  0
M  END
$$$$
