CGI.pdb
     RDKit          3D

 19 18  0  0  1  0  0  0  0  0999 V2000
   26.4182  -21.6733  -11.5408 N   0  0  0  0  0  0  0  0  0  0  0  0
   27.3419  -20.5690  -11.6637 C   0  0  1  0  0  0  0  0  0  0  0  0
   28.7750  -21.0416  -11.4170 C   0  0  0  0  0  0  0  0  0  0  0  0
   29.1072  -21.2689   -9.6721 S   0  0  0  0  0  0  0  0  0  0  0  0
   27.2121  -19.9905  -13.0240 C   0  0  0  0  0  0  0  0  0  0  0  0
   27.2287  -20.7246  -14.0465 O   0  0  0  0  0  0  0  0  0  0  0  0
   27.0650  -18.5814  -13.1977 N   0  0  0  0  0  0  0  0  0  0  0  0
   26.9676  -17.9835  -14.5144 C   0  0  0  0  0  0  0  0  0  0  0  0
   25.5310  -17.9448  -14.9273 C   0  0  0  0  0  0  0  0  0  0  0  0
   25.0118  -16.8982  -15.4148 O   0  0  0  0  0  0  0  0  0  0  0  0
   23.6219  -19.6807  -19.0454 C   0  0  0  0  0  0  0  0  0  0  0  0
   23.7523  -19.0568  -17.7165 C   0  0  0  0  0  0  0  0  0  0  0  0
   23.1028  -19.7253  -16.5534 C   0  0  2  0  0  0  0  0  0  0  0  0
   21.7111  -20.1631  -16.9421 C   0  0  0  0  0  0  0  0  0  0  0  0
   23.2819  -19.0792  -15.2646 C   0  0  2  0  0  0  0  0  0  0  0  0
   24.6676  -19.0419  -14.8084 N   0  0  0  0  0  0  0  0  0  0  0  0
   22.4683  -19.4942  -14.1254 C   0  0  0  0  0  0  0  0  0  0  0  0
   21.2426  -18.9895  -13.7349 O   0  0  0  0  0  0  0  0  0  0  0  0
   22.9087  -20.4306  -13.3714 O   0  0  0  0  0  0  0  0  0  0  0  0
  2  1  1  6
  3  2  1  0
  3  4  1  0
  5  6  2  0
  5  2  1  0
  7  5  1  0
  8  7  1  0
  9  8  1  0
  9 10  2  0
 11 12  1  0
 12 13  1  0
 13 14  1  6
 15 13  1  0
 15 16  1  1
 16  9  1  0
 17 15  1  0
 18 17  1  0
 19 17  2  0
M  END
$$$$
