CGI.pdb
     RDKit          3D

 19 18  0  0  1  0  0  0  0  0999 V2000
   16.9715  -24.6412   -4.1065 N   0  0  0  0  0  0  0  0  0  0  0  0
   15.5709  -24.7135   -4.4541 C   0  0  1  0  0  0  0  0  0  0  0  0
   15.1536  -26.1655   -4.6901 C   0  0  0  0  0  0  0  0  0  0  0  0
   16.4334  -27.3132   -4.1885 S   0  0  0  0  0  0  0  0  0  0  0  0
   14.7768  -24.1169   -3.3517 C   0  0  0  0  0  0  0  0  0  0  0  0
   13.5319  -23.9624   -3.4576 O   0  0  0  0  0  0  0  0  0  0  0  0
   15.4153  -23.7049   -2.1436 N   0  0  0  0  0  0  0  0  0  0  0  0
   14.6644  -23.1355   -1.0423 C   0  0  0  0  0  0  0  0  0  0  0  0
   15.5905  -22.8957    0.1069 C   0  0  0  0  0  0  0  0  0  0  0  0
   16.6574  -23.5627    0.2458 O   0  0  0  0  0  0  0  0  0  0  0  0
   17.1793  -17.9763    1.3734 C   0  0  0  0  0  0  0  0  0  0  0  0
   16.9360  -19.4215    1.2182 C   0  0  0  0  0  0  0  0  0  0  0  0
   16.4569  -20.1902    2.4019 C   0  0  2  0  0  0  0  0  0  0  0  0
   17.2201  -19.7477    3.6271 C   0  0  0  0  0  0  0  0  0  0  0  0
   16.2555  -21.6146    2.1986 C   0  0  2  0  0  0  0  0  0  0  0  0
   15.3526  -21.9337    1.0975 N   0  0  0  0  0  0  0  0  0  0  0  0
   15.8717  -22.4612    3.3247 C   0  0  0  0  0  0  0  0  0  0  0  0
   16.6903  -23.2682    4.0916 O   0  0  0  0  0  0  0  0  0  0  0  0
   14.6398  -22.4911    3.6721 O   0  0  0  0  0  0  0  0  0  0  0  0
  2  1  1  1
  3  2  1  0
  3  4  1  0
  5  6  2  0
  5  2  1  0
  7  5  1  0
  8  7  1  0
  9  8  1  0
  9 10  2  0
 11 12  1  0
 12 13  1  0
 13 14  1  1
 15 13  1  0
 15 16  1  6
 16  9  1  0
 17 15  1  0
 18 17  1  0
 19 17  2  0
M  END
$$$$
