CGI.pdb
     RDKit          3D

 19 18  0  0  1  0  0  0  0  0999 V2000
   13.9546  -12.4154  -18.4096 N   0  0  0  0  0  0  0  0  0  0  0  0
   14.9945  -12.6938  -17.4460 C   0  0  1  0  0  0  0  0  0  0  0  0
   15.2398  -14.1997  -17.3452 C   0  0  0  0  0  0  0  0  0  0  0  0
   13.8466  -15.0506  -16.6091 S   0  0  0  0  0  0  0  0  0  0  0  0
   16.2325  -11.9925  -17.8674 C   0  0  0  0  0  0  0  0  0  0  0  0
   16.6431  -12.0566  -19.0556 O   0  0  0  0  0  0  0  0  0  0  0  0
   16.9844  -11.2276  -16.9257 N   0  0  0  0  0  0  0  0  0  0  0  0
   18.1516  -10.4660  -17.3236 C   0  0  0  0  0  0  0  0  0  0  0  0
   18.7334   -9.7999  -16.1179 C   0  0  0  0  0  0  0  0  0  0  0  0
   18.2002   -9.9184  -14.9759 O   0  0  0  0  0  0  0  0  0  0  0  0
   23.3338  -11.0146  -14.4692 C   0  0  0  0  0  0  0  0  0  0  0  0
   21.9950  -10.4241  -14.6454 C   0  0  0  0  0  0  0  0  0  0  0  0
   21.8831   -8.9417  -14.7514 C   0  0  2  0  0  0  0  0  0  0  0  0
   22.7067   -8.2994  -13.6611 C   0  0  0  0  0  0  0  0  0  0  0  0
   20.5508   -8.4187  -15.0006 C   0  0  2  0  0  0  0  0  0  0  0  0
   19.8898   -9.0098  -16.1596 N   0  0  0  0  0  0  0  0  0  0  0  0
   20.3404   -6.9759  -15.0787 C   0  0  0  0  0  0  0  0  0  0  0  0
   20.0705   -6.2219  -16.2048 O   0  0  0  0  0  0  0  0  0  0  0  0
   20.4100   -6.2909  -13.9993 O   0  0  0  0  0  0  0  0  0  0  0  0
  2  1  1  6
  3  2  1  0
  3  4  1  0
  5  6  2  0
  5  2  1  0
  7  5  1  0
  8  7  1  0
  9  8  1  0
  9 10  2  0
 11 12  1  0
 12 13  1  0
 13 14  1  1
 15 13  1  0
 15 16  1  6
 16  9  1  0
 17 15  1  0
 18 17  1  0
 19 17  2  0
M  END
$$$$
