NID.pdb
     RDKit          3D

 25 24  0  0  1  0  0  0  0  0999 V2000
   28.3761  -22.5065  -18.5337 N   0  0  0  0  0  0  0  0  0  0  0  0
   28.6005  -21.8260  -17.2957 C   0  0  0  0  0  0  0  0  0  0  0  0
   29.4178  -20.8566  -17.3225 O   0  0  0  0  0  0  0  0  0  0  0  0
   27.9175  -22.2314  -16.0579 C   0  0  0  0  0  0  0  0  0  0  0  0
   26.8473  -21.2067  -15.7341 C   0  0  2  0  0  0  0  0  0  0  0  0
   27.4259  -19.9153  -15.5185 N   0  0  0  0  0  0  0  0  0  0  0  0
   26.0183  -21.6533  -14.5605 C   0  0  0  0  0  0  0  0  0  0  0  0
   25.4863  -22.7866  -14.5498 O   0  0  0  0  0  0  0  0  0  0  0  0
   27.7708  -20.7568   -9.6981 C   0  0  0  0  0  0  0  0  0  0  0  0
   26.8875  -21.3917  -10.7508 C   0  0  0  0  0  0  0  0  0  0  0  0
   25.6563  -20.5364  -11.0368 C   0  0  2  0  0  0  0  0  0  0  0  0
   24.6952  -20.8050   -9.8666 C   0  0  0  0  0  0  0  0  0  0  0  0
   24.9849  -21.0386  -12.2958 C   0  0  2  0  0  0  0  0  0  0  0  0
   25.8314  -20.8047  -13.4645 N   0  0  0  0  0  0  0  0  0  0  0  0
   23.6718  -20.4200  -12.4909 C   0  0  0  0  0  0  0  0  0  0  0  0
   23.6305  -19.1602  -12.8231 O   0  0  0  0  0  0  0  0  0  0  0  0
   22.3859  -20.9911  -12.3779 N   0  0  0  0  0  0  0  0  0  0  0  0
   21.2005  -20.3969  -12.9759 C   0  0  1  0  0  0  0  0  0  0  0  0
   21.2911  -20.2159  -14.4690 C   0  0  0  0  0  0  0  0  0  0  0  0
   20.8434  -18.9256  -14.9637 C   0  0  0  0  0  0  0  0  0  0  0  0
   20.4620  -18.0413  -14.1642 O   0  0  0  0  0  0  0  0  0  0  0  0
   20.0031  -21.1604  -12.5847 C   0  0  0  0  0  0  0  0  0  0  0  0
   19.9321  -22.3723  -12.9098 O   0  0  0  0  0  0  0  0  0  0  0  0
   20.8280  -18.6454  -16.3098 O   0  0  0  0  0  0  0  0  0  0  0  0
   18.9240  -20.6657  -11.8790 O   0  0  0  0  0  0  0  0  0  0  0  0
  2  1  1  0
  2  3  2  0
  4  2  1  0
  5  4  1  0
  5  6  1  1
  7  8  2  0
  7  5  1  0
 10  9  1  0
 10 11  1  0
 11 13  1  0
 11 12  1  1
 13 14  1  6
 14  7  1  0
 15 16  2  0
 15 13  1  0
 17 15  1  0
 18 17  1  0
 18 19  1  6
 20 19  1  0
 20 21  2  0
 22 18  1  0
 23 22  2  0
 24 20  1  0
 25 22  1  0
M  END
$$$$
