NID.pdb
     RDKit          3D

 25 24  0  0  1  0  0  0  0  0999 V2000
   17.7893  -12.2429  -19.6734 N   0  0  0  0  0  0  0  0  0  0  0  0
   17.6795  -10.8292  -19.4852 C   0  0  0  0  0  0  0  0  0  0  0  0
   17.1770  -10.1677  -20.4434 O   0  0  0  0  0  0  0  0  0  0  0  0
   18.1266  -10.1794  -18.2439 C   0  0  0  0  0  0  0  0  0  0  0  0
   18.7120  -11.2346  -17.3252 C   0  0  2  0  0  0  0  0  0  0  0  0
   17.6881  -12.1018  -16.8264 N   0  0  0  0  0  0  0  0  0  0  0  0
   19.4986  -10.5967  -16.2123 C   0  0  0  0  0  0  0  0  0  0  0  0
   18.9548  -10.3352  -15.1155 O   0  0  0  0  0  0  0  0  0  0  0  0
   24.6116  -12.1113  -15.5299 C   0  0  0  0  0  0  0  0  0  0  0  0
   23.2320  -11.5477  -15.2641 C   0  0  0  0  0  0  0  0  0  0  0  0
   23.1598  -10.0624  -15.6072 C   0  0  2  0  0  0  0  0  0  0  0  0
   23.9936   -9.3553  -14.5254 C   0  0  0  0  0  0  0  0  0  0  0  0
   21.7315   -9.5874  -15.4574 C   0  0  2  0  0  0  0  0  0  0  0  0
   20.8508  -10.2873  -16.3911 N   0  0  0  0  0  0  0  0  0  0  0  0
   21.6214   -8.1394  -15.6475 C   0  0  0  0  0  0  0  0  0  0  0  0
   21.9039   -7.6518  -16.8229 O   0  0  0  0  0  0  0  0  0  0  0  0
   21.2374   -7.1408  -14.7267 N   0  0  0  0  0  0  0  0  0  0  0  0
   21.1642   -5.7301  -15.0737 C   0  0  1  0  0  0  0  0  0  0  0  0
   19.7653   -5.1702  -15.0756 C   0  0  0  0  0  0  0  0  0  0  0  0
   19.6720   -3.7402  -15.3132 C   0  0  0  0  0  0  0  0  0  0  0  0
   19.3705   -2.9639  -14.3788 O   0  0  0  0  0  0  0  0  0  0  0  0
   22.0684   -4.9519  -14.2096 C   0  0  0  0  0  0  0  0  0  0  0  0
   22.3065   -5.3792  -13.0520 O   0  0  0  0  0  0  0  0  0  0  0  0
   19.9110   -3.2083  -16.5584 O   0  0  0  0  0  0  0  0  0  0  0  0
   22.6961   -3.7706  -14.5527 O   0  0  0  0  0  0  0  0  0  0  0  0
  2  1  1  0
  2  3  2  0
  4  2  1  0
  5  4  1  0
  5  6  1  1
  7  8  2  0
  7  5  1  0
 10  9  1  0
 10 11  1  0
 11 13  1  0
 11 12  1  1
 13 14  1  6
 14  7  1  0
 15 16  2  0
 15 13  1  0
 17 15  1  0
 18 17  1  0
 18 19  1  1
 20 19  1  0
 20 21  2  0
 22 18  1  0
 23 22  2  0
 24 20  1  0
 25 22  1  0
M  END
$$$$
