NID.pdb
     RDKit          3D

 25 24  0  0  1  0  0  0  0  0999 V2000
   20.4134  -29.6484   -9.3203 N   0  0  0  0  0  0  0  0  0  0  0  0
   20.2988  -30.1912   -8.0018 C   0  0  0  0  0  0  0  0  0  0  0  0
   19.6126  -29.5218   -7.1715 O   0  0  0  0  0  0  0  0  0  0  0  0
   20.9439  -31.4599   -7.6313 C   0  0  0  0  0  0  0  0  0  0  0  0
   21.7742  -31.9449   -8.8041 C   0  0  2  0  0  0  0  0  0  0  0  0
   20.9345  -32.3773   -9.8798 N   0  0  0  0  0  0  0  0  0  0  0  0
   22.7314  -33.0223   -8.3713 C   0  0  0  0  0  0  0  0  0  0  0  0
   22.3524  -34.2117   -8.2766 O   0  0  0  0  0  0  0  0  0  0  0  0
   27.5091  -33.1290  -10.5965 C   0  0  0  0  0  0  0  0  0  0  0  0
   26.2994  -33.6114   -9.8249 C   0  0  0  0  0  0  0  0  0  0  0  0
   26.4221  -33.2927   -8.3374 C   0  0  2  0  0  0  0  0  0  0  0  0
   27.4842  -34.2667   -7.8003 C   0  0  0  0  0  0  0  0  0  0  0  0
   25.1166  -33.6253   -7.6494 C   0  0  2  0  0  0  0  0  0  0  0  0
   24.0598  -32.7063   -8.0686 N   0  0  0  0  0  0  0  0  0  0  0  0
   25.2545  -33.6058   -6.1915 C   0  0  0  0  0  0  0  0  0  0  0  0
   25.2776  -32.4480   -5.5930 O   0  0  0  0  0  0  0  0  0  0  0  0
   25.3666  -34.6835   -5.2869 N   0  0  0  0  0  0  0  0  0  0  0  0
   25.5030  -34.5004   -3.8503 C   0  0  1  0  0  0  0  0  0  0  0  0
   24.2116  -34.1685   -3.1484 C   0  0  0  0  0  0  0  0  0  0  0  0
   24.2929  -34.1105   -1.6992 C   0  0  0  0  0  0  0  0  0  0  0  0
   25.3724  -33.8145   -1.1393 O   0  0  0  0  0  0  0  0  0  0  0  0
   26.1690  -35.6716   -3.2549 C   0  0  0  0  0  0  0  0  0  0  0  0
   26.7370  -35.5368   -2.1419 O   0  0  0  0  0  0  0  0  0  0  0  0
   23.1961  -34.3759   -0.9135 O   0  0  0  0  0  0  0  0  0  0  0  0
   26.2336  -36.9341   -3.8109 O   0  0  0  0  0  0  0  0  0  0  0  0
  2  1  1  0
  2  3  2  0
  4  2  1  0
  5  4  1  0
  5  6  1  6
  7  8  2  0
  7  5  1  0
 10  9  1  0
 10 11  1  0
 11 13  1  0
 11 12  1  1
 13 14  1  1
 14  7  1  0
 15 16  2  0
 15 13  1  0
 17 15  1  0
 18 17  1  0
 18 19  1  1
 20 19  1  0
 20 21  2  0
 22 18  1  0
 23 22  2  0
 24 20  1  0
 25 22  1  0
M  END
$$$$
