NID.pdb
     RDKit          3D

 25 24  0  0  1  0  0  0  0  0999 V2000
   26.5578  -36.7172  -14.1868 N   0  0  0  0  0  0  0  0  0  0  0  0
   27.0653  -35.3799  -14.1707 C   0  0  0  0  0  0  0  0  0  0  0  0
   27.8119  -35.0459  -15.1400 O   0  0  0  0  0  0  0  0  0  0  0  0
   26.7367  -34.4432  -13.0855 C   0  0  0  0  0  0  0  0  0  0  0  0
   25.9019  -35.1714  -12.0497 C   0  0  2  0  0  0  0  0  0  0  0  0
   24.5071  -34.9175  -12.2480 N   0  0  0  0  0  0  0  0  0  0  0  0
   26.3455  -34.8117  -10.6576 C   0  0  0  0  0  0  0  0  0  0  0  0
   27.5414  -34.9494  -10.3137 O   0  0  0  0  0  0  0  0  0  0  0  0
   23.8127  -30.5987   -8.7473 C   0  0  0  0  0  0  0  0  0  0  0  0
   24.9941  -31.5447   -8.7747 C   0  0  0  0  0  0  0  0  0  0  0  0
   24.7277  -32.7953   -7.9415 C   0  0  2  0  0  0  0  0  0  0  0  0
   25.0778  -32.4020   -6.4965 C   0  0  0  0  0  0  0  0  0  0  0  0
   25.6917  -33.8839   -8.3585 C   0  0  2  0  0  0  0  0  0  0  0  0
   25.4240  -34.3179   -9.7285 N   0  0  0  0  0  0  0  0  0  0  0  0
   25.6405  -35.0287   -7.4464 C   0  0  0  0  0  0  0  0  0  0  0  0
   24.5267  -35.7014   -7.3685 O   0  0  0  0  0  0  0  0  0  0  0  0
   26.6460  -35.5495   -6.6037 N   0  0  0  0  0  0  0  0  0  0  0  0
   26.4120  -36.6446   -5.6754 C   0  0  1  0  0  0  0  0  0  0  0  0
   27.6100  -37.5326   -5.4590 C   0  0  0  0  0  0  0  0  0  0  0  0
   27.4027  -38.6369   -4.5384 C   0  0  0  0  0  0  0  0  0  0  0  0
   26.2686  -38.8497   -4.0537 O   0  0  0  0  0  0  0  0  0  0  0  0
   25.8762  -36.1226   -4.4065 C   0  0  0  0  0  0  0  0  0  0  0  0
   25.1676  -36.8810   -3.6978 O   0  0  0  0  0  0  0  0  0  0  0  0
   28.4372  -39.4690   -4.1802 O   0  0  0  0  0  0  0  0  0  0  0  0
   26.0794  -34.8519   -3.9052 O   0  0  0  0  0  0  0  0  0  0  0  0
  2  1  1  0
  2  3  2  0
  4  2  1  0
  5  4  1  0
  5  6  1  1
  7  8  2  0
  7  5  1  0
 10  9  1  0
 10 11  1  0
 11 13  1  0
 11 12  1  1
 13 14  1  6
 14  7  1  0
 15 16  2  0
 15 13  1  0
 17 15  1  0
 18 17  1  0
 18 19  1  1
 20 19  1  0
 20 21  2  0
 22 18  1  0
 23 22  2  0
 24 20  1  0
 25 22  1  0
M  END
$$$$
