NID.pdb
     RDKit          3D

 25 24  0  0  1  0  0  0  0  0999 V2000
   24.0998  -13.2262  -22.7948 N   0  0  0  0  0  0  0  0  0  0  0  0
   23.6629  -11.8740  -22.6316 C   0  0  0  0  0  0  0  0  0  0  0  0
   23.5613  -11.1802  -23.6883 O   0  0  0  0  0  0  0  0  0  0  0  0
   23.3483  -11.3198  -21.3061 C   0  0  0  0  0  0  0  0  0  0  0  0
   23.7759  -12.3176  -20.2469 C   0  0  2  0  0  0  0  0  0  0  0  0
   23.0295  -13.5338  -20.3606 N   0  0  0  0  0  0  0  0  0  0  0  0
   23.6644  -11.7171  -18.8718 C   0  0  0  0  0  0  0  0  0  0  0  0
   22.6254  -11.8714  -18.1907 O   0  0  0  0  0  0  0  0  0  0  0  0
   28.0976  -11.8397  -15.8747 C   0  0  0  0  0  0  0  0  0  0  0  0
   26.6357  -11.7666  -16.2604 C   0  0  0  0  0  0  0  0  0  0  0  0
   26.1890  -10.3248  -16.4863 C   0  0  2  0  0  0  0  0  0  0  0  0
   26.1410   -9.6910  -15.0858 C   0  0  0  0  0  0  0  0  0  0  0  0
   24.7778  -10.3222  -17.0308 C   0  0  2  0  0  0  0  0  0  0  0  0
   24.7237  -10.9769  -18.3368 N   0  0  0  0  0  0  0  0  0  0  0  0
   24.2375   -8.9641  -17.1235 C   0  0  0  0  0  0  0  0  0  0  0  0
   24.9503   -8.0608  -17.7360 O   0  0  0  0  0  0  0  0  0  0  0  0
   23.0143   -8.4507  -16.6410 N   0  0  0  0  0  0  0  0  0  0  0  0
   22.5720   -7.0886  -16.8955 C   0  0  1  0  0  0  0  0  0  0  0  0
   21.6141   -6.9601  -18.0515 C   0  0  0  0  0  0  0  0  0  0  0  0
   21.1333   -5.6138  -18.3092 C   0  0  0  0  0  0  0  0  0  0  0  0
   21.6458   -4.6369  -17.7179 O   0  0  0  0  0  0  0  0  0  0  0  0
   22.0287   -6.4971  -15.6607 C   0  0  0  0  0  0  0  0  0  0  0  0
   21.7257   -5.2774  -15.6631 O   0  0  0  0  0  0  0  0  0  0  0  0
   20.1133   -5.3807  -19.2014 O   0  0  0  0  0  0  0  0  0  0  0  0
   21.8137   -7.1650  -14.4712 O   0  0  0  0  0  0  0  0  0  0  0  0
  2  1  1  0
  2  3  2  0
  4  2  1  0
  5  4  1  0
  5  6  1  1
  7  8  2  0
  7  5  1  0
 10  9  1  0
 10 11  1  0
 11 13  1  0
 11 12  1  1
 13 14  1  6
 14  7  1  0
 15 16  2  0
 15 13  1  0
 17 15  1  0
 18 17  1  0
 18 19  1  6
 20 19  1  0
 20 21  2  0
 22 18  1  0
 23 22  2  0
 24 20  1  0
 25 22  1  0
M  END
$$$$
