NID.pdb
     RDKit          3D

 25 24  0  0  1  0  0  0  0  0999 V2000
   21.2935  -14.7754  -21.9550 N   0  0  0  0  0  0  0  0  0  0  0  0
   22.3881  -14.1847  -21.2485 C   0  0  0  0  0  0  0  0  0  0  0  0
   23.5345  -14.3053  -21.7773 O   0  0  0  0  0  0  0  0  0  0  0  0
   22.1913  -13.4748  -19.9756 C   0  0  0  0  0  0  0  0  0  0  0  0
   23.0613  -14.1239  -18.9164 C   0  0  2  0  0  0  0  0  0  0  0  0
   22.6457  -15.4714  -18.6701 N   0  0  0  0  0  0  0  0  0  0  0  0
   23.0725  -13.3009  -17.6568 C   0  0  0  0  0  0  0  0  0  0  0  0
   22.1762  -13.4428  -16.7942 O   0  0  0  0  0  0  0  0  0  0  0  0
   27.7593  -12.4961  -15.2376 C   0  0  0  0  0  0  0  0  0  0  0  0
   26.2621  -12.5873  -15.4412 C   0  0  0  0  0  0  0  0  0  0  0  0
   25.6845  -11.2652  -15.9386 C   0  0  2  0  0  0  0  0  0  0  0  0
   25.7379  -10.3182  -14.7279 C   0  0  0  0  0  0  0  0  0  0  0  0
   24.2270  -11.4624  -16.2925 C   0  0  2  0  0  0  0  0  0  0  0  0
   24.0873  -12.3645  -17.4343 N   0  0  0  0  0  0  0  0  0  0  0  0
   23.5619  -10.1877  -16.5711 C   0  0  0  0  0  0  0  0  0  0  0  0
   24.0385   -9.4437  -17.5294 O   0  0  0  0  0  0  0  0  0  0  0  0
   22.4358   -9.6087  -15.9473 N   0  0  0  0  0  0  0  0  0  0  0  0
   21.8237   -8.3724  -16.4085 C   0  0  1  0  0  0  0  0  0  0  0  0
   20.3470   -8.4849  -16.6863 C   0  0  0  0  0  0  0  0  0  0  0  0
   19.6989   -7.2505  -17.0941 C   0  0  0  0  0  0  0  0  0  0  0  0
   19.0328   -6.5854  -16.2691 O   0  0  0  0  0  0  0  0  0  0  0  0
   22.1262   -7.2799  -15.4679 C   0  0  0  0  0  0  0  0  0  0  0  0
   22.2910   -7.5619  -14.2544 O   0  0  0  0  0  0  0  0  0  0  0  0
   19.8003   -6.7856  -18.3841 O   0  0  0  0  0  0  0  0  0  0  0  0
   22.2498   -5.9436  -15.7942 O   0  0  0  0  0  0  0  0  0  0  0  0
  2  1  1  0
  2  3  2  0
  4  2  1  0
  5  4  1  0
  5  6  1  1
  7  8  2  0
  7  5  1  0
 10  9  1  0
 10 11  1  0
 11 13  1  0
 11 12  1  1
 13 14  1  6
 14  7  1  0
 15 16  2  0
 15 13  1  0
 17 15  1  0
 18 17  1  0
 18 19  1  1
 20 19  1  0
 20 21  2  0
 22 18  1  0
 23 22  2  0
 24 20  1  0
 25 22  1  0
M  END
$$$$
