NID.pdb
     RDKit          3D

 25 24  0  0  1  0  0  0  0  0999 V2000
   14.6689  -20.4655    2.4589 N   0  0  0  0  0  0  0  0  0  0  0  0
   15.7360  -19.9708    1.6449 C   0  0  0  0  0  0  0  0  0  0  0  0
   15.8774  -20.5116    0.5065 O   0  0  0  0  0  0  0  0  0  0  0  0
   16.6214  -18.8909    2.1065 C   0  0  0  0  0  0  0  0  0  0  0  0
   16.1505  -18.4246    3.4707 C   0  0  2  0  0  0  0  0  0  0  0  0
   14.9651  -17.6303    3.3575 N   0  0  0  0  0  0  0  0  0  0  0  0
   17.2492  -17.6935    4.1935 C   0  0  0  0  0  0  0  0  0  0  0  0
   18.3391  -18.2593    4.4370 O   0  0  0  0  0  0  0  0  0  0  0  0
   19.3312  -11.9822    4.1967 C   0  0  0  0  0  0  0  0  0  0  0  0
   19.1799  -13.2595    4.9949 C   0  0  0  0  0  0  0  0  0  0  0  0
   18.0718  -14.1436    4.4293 C   0  0  2  0  0  0  0  0  0  0  0  0
   16.7593  -13.4223    4.7791 C   0  0  0  0  0  0  0  0  0  0  0  0
   18.0689  -15.4661    5.1637 C   0  0  2  0  0  0  0  0  0  0  0  0
   17.0649  -16.3690    4.6033 N   0  0  0  0  0  0  0  0  0  0  0  0
   17.8416  -15.2859    6.5992 C   0  0  0  0  0  0  0  0  0  0  0  0
   16.6167  -15.1106    7.0091 O   0  0  0  0  0  0  0  0  0  0  0  0
   18.7727  -15.2752    7.6601 N   0  0  0  0  0  0  0  0  0  0  0  0
   18.3798  -15.1794    9.0573 C   0  0  1  0  0  0  0  0  0  0  0  0
   18.8687  -16.3198    9.9122 C   0  0  0  0  0  0  0  0  0  0  0  0
   18.4315  -16.2860   11.2970 C   0  0  0  0  0  0  0  0  0  0  0  0
   17.6337  -15.4032   11.6852 O   0  0  0  0  0  0  0  0  0  0  0  0
   18.7784  -13.8706    9.6033 C   0  0  0  0  0  0  0  0  0  0  0  0
   19.8137  -13.3217    9.1492 O   0  0  0  0  0  0  0  0  0  0  0  0
   18.8781  -17.2146   12.2075 O   0  0  0  0  0  0  0  0  0  0  0  0
   18.1119  -13.1691   10.5886 O   0  0  0  0  0  0  0  0  0  0  0  0
  2  1  1  0
  2  3  2  0
  4  2  1  0
  5  4  1  0
  5  6  1  6
  7  8  2  0
  7  5  1  0
 10  9  1  0
 10 11  1  0
 11 13  1  0
 11 12  1  1
 13 14  1  6
 14  7  1  0
 15 16  2  0
 15 13  1  0
 17 15  1  0
 18 17  1  0
 18 19  1  1
 20 19  1  0
 20 21  2  0
 22 18  1  0
 23 22  2  0
 24 20  1  0
 25 22  1  0
M  END
$$$$
