IYD.pdb
     RDKit          3D

 29 29  0  0  1  0  0  0  0  0999 V2000
   44.1077  -11.0911   -5.2350 C   0  0  0  0  0  0  0  0  0  0  0  0
   44.0384   -9.8741   -6.1082 C   0  0  0  0  0  0  0  0  0  0  0  0
   42.6345   -9.2428   -6.1107 C   0  0  2  0  0  0  0  0  0  0  0  0
   41.6191  -10.2567   -6.5145 C   0  0  0  0  0  0  0  0  0  0  0  0
   42.6618   -7.9943   -6.9583 C   0  0  2  0  0  0  0  0  0  0  0  0
   43.8763   -7.2367   -6.5665 N   0  0  0  0  0  0  0  0  0  0  0  0
   41.4741   -7.1427   -6.8450 C   0  0  0  0  0  0  0  0  0  0  0  0
   40.3623   -7.6590   -7.1670 O   0  0  0  0  0  0  0  0  0  0  0  0
   37.8868   -3.3804   -0.5813 O   0  0  0  0  0  0  0  0  0  0  0  0
   38.5081   -3.4664   -1.8300 C   0  0  0  0  0  0  0  0  0  0  0  0
   37.7763   -3.7115   -2.9710 C   0  0  0  0  0  0  0  0  0  0  0  0
   38.3760   -3.7989   -4.2089 C   0  0  0  0  0  0  0  0  0  0  0  0
   39.7353   -3.6483   -4.3891 C   0  0  0  0  0  0  0  0  0  0  0  0
   40.4160   -3.7273   -5.6903 C   0  0  0  0  0  0  0  0  0  0  0  0
   40.1822   -5.0002   -6.4632 C   0  0  2  0  0  0  0  0  0  0  0  0
   41.4424   -5.7985   -6.4084 N   0  0  0  0  0  0  0  0  0  0  0  0
   39.9257   -4.6984   -7.8723 C   0  0  0  0  0  0  0  0  0  0  0  0
   40.8727   -4.9471   -8.6989 O   0  0  0  0  0  0  0  0  0  0  0  0
   40.4636   -3.3990   -3.2131 C   0  0  0  0  0  0  0  0  0  0  0  0
   39.8703   -3.3111   -1.9754 C   0  0  0  0  0  0  0  0  0  0  0  0
   38.7618   -4.1714   -8.4539 N   0  0  0  0  0  0  0  0  0  0  0  0
   38.6188   -4.0325   -9.8665 C   0  0  1  0  0  0  0  0  0  0  0  0
   38.7415   -5.3688  -10.5767 C   0  0  0  0  0  0  0  0  0  0  0  0
   38.6228   -5.2512  -12.0316 C   0  0  0  0  0  0  0  0  0  0  0  0
   39.4217   -4.6392  -12.7825 O   0  0  0  0  0  0  0  0  0  0  0  0
   37.4134   -3.3841  -10.3581 C   0  0  0  0  0  0  0  0  0  0  0  0
   36.3569   -3.5629   -9.6534 O   0  0  0  0  0  0  0  0  0  0  0  0
   37.5389   -5.8644  -12.6448 O   0  0  0  0  0  0  0  0  0  0  0  0
   37.2450   -2.6072  -11.4693 O   0  0  0  0  0  0  0  0  0  0  0  0
  1  2  1  0
  2  3  1  0
  3  4  1  6
  5  3  1  0
  5  6  1  1
  7  5  1  0
  8  7  2  0
  9 10  1  0
 10 11  2  0
 11 12  1  0
 13 12  2  0
 13 14  1  0
 15 14  1  1
 15 16  1  0
 16  7  1  0
 17 21  1  0
 17 15  1  0
 18 17  2  0
 19 13  1  0
 20 10  1  0
 20 19  2  0
 22 21  1  0
 22 26  1  0
 22 23  1  6
 23 24  1  0
 24 25  2  0
 26 29  1  0
 27 26  2  0
 28 24  1  0
M  END
$$$$
