IYD.pdb
     RDKit          3D

 29 29  0  0  1  0  0  0  0  0999 V2000
   19.8179  -12.1296  -20.2225 C   0  0  0  0  0  0  0  0  0  0  0  0
   19.9179  -12.6284  -18.8121 C   0  0  0  0  0  0  0  0  0  0  0  0
   19.3918  -11.5992  -17.7956 C   0  0  2  0  0  0  0  0  0  0  0  0
   17.9722  -11.2606  -18.0992 C   0  0  0  0  0  0  0  0  0  0  0  0
   20.3352  -10.4215  -17.7600 C   0  0  2  0  0  0  0  0  0  0  0  0
   21.7031  -10.9730  -17.5961 N   0  0  0  0  0  0  0  0  0  0  0  0
   20.0564   -9.4362  -16.7111 C   0  0  0  0  0  0  0  0  0  0  0  0
   18.8890   -8.9437  -16.6790 O   0  0  0  0  0  0  0  0  0  0  0  0
   19.9661   -4.9393   -8.9950 O   0  0  0  0  0  0  0  0  0  0  0  0
   20.3124   -5.7348  -10.0905 C   0  0  0  0  0  0  0  0  0  0  0  0
   19.7571   -6.9834  -10.2641 C   0  0  0  0  0  0  0  0  0  0  0  0
   20.0896   -7.7785  -11.3397 C   0  0  0  0  0  0  0  0  0  0  0  0
   20.9911   -7.3834  -12.3062 C   0  0  0  0  0  0  0  0  0  0  0  0
   21.3702   -8.1954  -13.4722 C   0  0  0  0  0  0  0  0  0  0  0  0
   20.5491   -7.9611  -14.7145 C   0  0  2  0  0  0  0  0  0  0  0  0
   20.9610   -8.9792  -15.7255 N   0  0  0  0  0  0  0  0  0  0  0  0
   20.8510   -6.6459  -15.2816 C   0  0  0  0  0  0  0  0  0  0  0  0
   21.9311   -6.5440  -15.9635 O   0  0  0  0  0  0  0  0  0  0  0  0
   21.5460   -6.1069  -12.1106 C   0  0  0  0  0  0  0  0  0  0  0  0
   21.2179   -5.3095  -11.0390 C   0  0  0  0  0  0  0  0  0  0  0  0
   20.1032   -5.4618  -15.1855 N   0  0  0  0  0  0  0  0  0  0  0  0
   20.5117   -4.2555  -15.8283 C   0  0  1  0  0  0  0  0  0  0  0  0
   19.7200   -4.0008  -17.0985 C   0  0  0  0  0  0  0  0  0  0  0  0
   20.1673   -2.8052  -17.8160 C   0  0  0  0  0  0  0  0  0  0  0  0
   21.1107   -2.0538  -17.4665 O   0  0  0  0  0  0  0  0  0  0  0  0
   20.4822   -3.0329  -15.0412 C   0  0  0  0  0  0  0  0  0  0  0  0
   19.4239   -2.8455  -14.3413 O   0  0  0  0  0  0  0  0  0  0  0  0
   19.4994   -2.4626  -18.9836 O   0  0  0  0  0  0  0  0  0  0  0  0
   21.4261   -2.0502  -14.9401 O   0  0  0  0  0  0  0  0  0  0  0  0
  1  2  1  0
  2  3  1  0
  3  4  1  6
  5  3  1  0
  5  6  1  1
  7  5  1  0
  8  7  2  0
  9 10  1  0
 10 11  2  0
 11 12  1  0
 13 12  2  0
 13 14  1  0
 15 14  1  1
 15 16  1  0
 16  7  1  0
 17 21  1  0
 17 15  1  0
 18 17  2  0
 19 13  1  0
 20 10  1  0
 20 19  2  0
 22 21  1  0
 22 26  1  0
 22 23  1  6
 23 24  1  0
 24 25  2  0
 26 29  1  0
 27 26  2  0
 28 24  1  0
M  END
$$$$
