IYD.pdb
     RDKit          3D

 29 29  0  0  1  0  0  0  0  0999 V2000
   24.5841  -11.6077  -21.1423 C   0  0  0  0  0  0  0  0  0  0  0  0
   23.8988  -12.1750  -19.9353 C   0  0  0  0  0  0  0  0  0  0  0  0
   22.7935  -11.2436  -19.4061 C   0  0  2  0  0  0  0  0  0  0  0  0
   23.3413   -9.8751  -19.1841 C   0  0  0  0  0  0  0  0  0  0  0  0
   22.1564  -11.8803  -18.1951 C   0  0  2  0  0  0  0  0  0  0  0  0
   21.6587  -13.2113  -18.6226 N   0  0  0  0  0  0  0  0  0  0  0  0
   21.0719  -11.1047  -17.5860 C   0  0  0  0  0  0  0  0  0  0  0  0
   20.0092  -10.9701  -18.2634 O   0  0  0  0  0  0  0  0  0  0  0  0
   16.1187  -14.9983  -16.4390 O   0  0  0  0  0  0  0  0  0  0  0  0
   16.8932  -13.9170  -16.0103 C   0  0  0  0  0  0  0  0  0  0  0  0
   18.2562  -14.0392  -15.8524 C   0  0  0  0  0  0  0  0  0  0  0  0
   19.0321  -12.9811  -15.4303 C   0  0  0  0  0  0  0  0  0  0  0  0
   18.5036  -11.7404  -15.1401 C   0  0  0  0  0  0  0  0  0  0  0  0
   19.2935  -10.5832  -14.6933 C   0  0  0  0  0  0  0  0  0  0  0  0
   19.8998   -9.7531  -15.7959 C   0  0  2  0  0  0  0  0  0  0  0  0
   21.0903  -10.4907  -16.3128 N   0  0  0  0  0  0  0  0  0  0  0  0
   20.3822   -8.4776  -15.2640 C   0  0  0  0  0  0  0  0  0  0  0  0
   21.5880   -8.4503  -14.8312 O   0  0  0  0  0  0  0  0  0  0  0  0
   17.1119  -11.6368  -15.3073 C   0  0  0  0  0  0  0  0  0  0  0  0
   16.3329  -12.6893  -15.7282 C   0  0  0  0  0  0  0  0  0  0  0  0
   19.6959   -7.2569  -15.1677 N   0  0  0  0  0  0  0  0  0  0  0  0
   20.3445   -6.0556  -14.7537 C   0  0  1  0  0  0  0  0  0  0  0  0
   21.5031   -5.7000  -15.6682 C   0  0  0  0  0  0  0  0  0  0  0  0
   22.1965   -4.4776  -15.2566 C   0  0  0  0  0  0  0  0  0  0  0  0
   22.8927   -4.3465  -14.2199 O   0  0  0  0  0  0  0  0  0  0  0  0
   19.5216   -4.8656  -14.6063 C   0  0  0  0  0  0  0  0  0  0  0  0
   18.5106   -4.7858  -15.3915 O   0  0  0  0  0  0  0  0  0  0  0  0
   22.0820   -3.3615  -16.0740 O   0  0  0  0  0  0  0  0  0  0  0  0
   19.6723   -3.8150  -13.7460 O   0  0  0  0  0  0  0  0  0  0  0  0
  1  2  1  0
  2  3  1  0
  3  4  1  1
  5  3  1  0
  5  6  1  6
  7  5  1  0
  8  7  2  0
  9 10  1  0
 10 11  2  0
 11 12  1  0
 13 12  2  0
 13 14  1  0
 15 14  1  1
 15 16  1  0
 16  7  1  0
 17 21  1  0
 17 15  1  0
 18 17  2  0
 19 13  1  0
 20 10  1  0
 20 19  2  0
 22 21  1  0
 22 26  1  0
 22 23  1  6
 23 24  1  0
 24 25  2  0
 26 29  1  0
 27 26  2  0
 28 24  1  0
M  END
$$$$
