IYD.pdb
     RDKit          3D

 29 29  0  0  1  0  0  0  0  0999 V2000
   25.6127   -8.1349  -19.8397 C   0  0  0  0  0  0  0  0  0  0  0  0
   25.0912   -8.9507  -18.6948 C   0  0  0  0  0  0  0  0  0  0  0  0
   24.0673   -8.1727  -17.8488 C   0  0  2  0  0  0  0  0  0  0  0  0
   24.6991   -6.9475  -17.2813 C   0  0  0  0  0  0  0  0  0  0  0  0
   23.4624   -9.1088  -16.8310 C   0  0  2  0  0  0  0  0  0  0  0  0
   22.9280  -10.2714  -17.5825 N   0  0  0  0  0  0  0  0  0  0  0  0
   22.4129   -8.5194  -15.9944 C   0  0  0  0  0  0  0  0  0  0  0  0
   21.2649   -8.3909  -16.5158 O   0  0  0  0  0  0  0  0  0  0  0  0
   17.2922   -5.6171   -9.2842 O   0  0  0  0  0  0  0  0  0  0  0  0
   18.3063   -6.1594  -10.0783 C   0  0  0  0  0  0  0  0  0  0  0  0
   19.6330   -5.9835   -9.7524 C   0  0  0  0  0  0  0  0  0  0  0  0
   20.6432   -6.5127  -10.5265 C   0  0  0  0  0  0  0  0  0  0  0  0
   20.3984   -7.2471  -11.6682 C   0  0  0  0  0  0  0  0  0  0  0  0
   21.4435   -7.8349  -12.5196 C   0  0  0  0  0  0  0  0  0  0  0  0
   21.4339   -7.3810  -13.9571 C   0  0  2  0  0  0  0  0  0  0  0  0
   22.5513   -8.0802  -14.6579 N   0  0  0  0  0  0  0  0  0  0  0  0
   21.7077   -5.9454  -14.0377 C   0  0  0  0  0  0  0  0  0  0  0  0
   22.9391   -5.5912  -14.0524 O   0  0  0  0  0  0  0  0  0  0  0  0
   19.0389   -7.4149  -11.9831 C   0  0  0  0  0  0  0  0  0  0  0  0
   18.0269   -6.8889  -11.2143 C   0  0  0  0  0  0  0  0  0  0  0  0
   20.7907   -4.8850  -14.1095 N   0  0  0  0  0  0  0  0  0  0  0  0
   21.2054   -3.5424  -14.3565 C   0  0  1  0  0  0  0  0  0  0  0  0
   22.0460   -3.4378  -15.6164 C   0  0  0  0  0  0  0  0  0  0  0  0
   22.4991   -2.0713  -15.8845 C   0  0  0  0  0  0  0  0  0  0  0  0
   22.8208   -1.2246  -15.0149 O   0  0  0  0  0  0  0  0  0  0  0  0
   20.1698   -2.5243  -14.4350 C   0  0  0  0  0  0  0  0  0  0  0  0
   19.0265   -2.9231  -14.8578 O   0  0  0  0  0  0  0  0  0  0  0  0
   22.5843   -1.6653  -17.2092 O   0  0  0  0  0  0  0  0  0  0  0  0
   20.2413   -1.1966  -14.1206 O   0  0  0  0  0  0  0  0  0  0  0  0
  1  2  1  0
  2  3  1  0
  3  4  1  1
  5  3  1  0
  5  6  1  6
  7  5  1  0
  8  7  2  0
  9 10  1  0
 10 11  2  0
 11 12  1  0
 13 12  2  0
 13 14  1  0
 15 14  1  1
 15 16  1  0
 16  7  1  0
 17 21  1  0
 17 15  1  0
 18 17  2  0
 19 13  1  0
 20 10  1  0
 20 19  2  0
 22 21  1  0
 22 26  1  0
 22 23  1  6
 23 24  1  0
 24 25  2  0
 26 29  1  0
 27 26  2  0
 28 24  1  0
M  END
$$$$
