IYD.pdb
     RDKit          3D

 29 29  0  0  1  0  0  0  0  0999 V2000
   20.6797  -13.7574   10.6828 C   0  0  0  0  0  0  0  0  0  0  0  0
   20.3049  -13.4187    9.2710 C   0  0  0  0  0  0  0  0  0  0  0  0
   19.1995  -14.3421    8.7282 C   0  0  2  0  0  0  0  0  0  0  0  0
   19.6057  -15.7684    8.8783 C   0  0  0  0  0  0  0  0  0  0  0  0
   18.8586  -13.9203    7.3197 C   0  0  2  0  0  0  0  0  0  0  0  0
   18.2885  -12.5530    7.4078 N   0  0  0  0  0  0  0  0  0  0  0  0
   17.9333  -14.8112    6.6133 C   0  0  0  0  0  0  0  0  0  0  0  0
   16.7451  -14.8712    7.0499 O   0  0  0  0  0  0  0  0  0  0  0  0
   14.2728  -20.6199    0.8132 O   0  0  0  0  0  0  0  0  0  0  0  0
   15.0437  -19.6522    1.4629 C   0  0  0  0  0  0  0  0  0  0  0  0
   16.4048  -19.8083    1.6060 C   0  0  0  0  0  0  0  0  0  0  0  0
   17.1772  -18.8620    2.2445 C   0  0  0  0  0  0  0  0  0  0  0  0
   16.6468  -17.7060    2.7783 C   0  0  0  0  0  0  0  0  0  0  0  0
   17.4330  -16.6677    3.4613 C   0  0  0  0  0  0  0  0  0  0  0  0
   17.2420  -16.5935    4.9548 C   0  0  2  0  0  0  0  0  0  0  0  0
   18.2328  -15.6122    5.4876 N   0  0  0  0  0  0  0  0  0  0  0  0
   17.5447  -17.8867    5.5699 C   0  0  0  0  0  0  0  0  0  0  0  0
   18.7817  -18.2086    5.6608 O   0  0  0  0  0  0  0  0  0  0  0  0
   15.2570  -17.5659    2.6219 C   0  0  0  0  0  0  0  0  0  0  0  0
   14.4816  -18.5071    1.9858 C   0  0  0  0  0  0  0  0  0  0  0  0
   16.6510  -18.8363    6.0896 N   0  0  0  0  0  0  0  0  0  0  0  0
   17.0982  -20.0771    6.6332 C   0  0  1  0  0  0  0  0  0  0  0  0
   16.2857  -20.4815    7.8504 C   0  0  0  0  0  0  0  0  0  0  0  0
   16.5020  -19.5964    8.9967 C   0  0  0  0  0  0  0  0  0  0  0  0
   17.5534  -18.9522    9.2340 O   0  0  0  0  0  0  0  0  0  0  0  0
   17.1468  -21.2227    5.7385 C   0  0  0  0  0  0  0  0  0  0  0  0
   16.1026  -21.4126    5.0184 O   0  0  0  0  0  0  0  0  0  0  0  0
   15.4636  -19.4486    9.9060 O   0  0  0  0  0  0  0  0  0  0  0  0
   18.1514  -22.1302    5.5545 O   0  0  0  0  0  0  0  0  0  0  0  0
  1  2  1  0
  2  3  1  0
  3  4  1  6
  5  3  1  0
  5  6  1  1
  7  5  1  0
  8  7  2  0
  9 10  1  0
 10 11  2  0
 11 12  1  0
 13 12  2  0
 13 14  1  0
 15 14  1  6
 15 16  1  0
 16  7  1  0
 17 21  1  0
 17 15  1  0
 18 17  2  0
 19 13  1  0
 20 10  1  0
 20 19  2  0
 22 21  1  0
 22 26  1  0
 22 23  1  1
 23 24  1  0
 24 25  2  0
 26 29  1  0
 27 26  2  0
 28 24  1  0
M  END
$$$$
