IYD.pdb
     RDKit          3D

 29 29  0  0  1  0  0  0  0  0999 V2000
   17.4898  -18.5272  -17.8446 C   0  0  0  0  0  0  0  0  0  0  0  0
   18.6105  -18.1096  -18.7489 C   0  0  0  0  0  0  0  0  0  0  0  0
   18.9695  -16.6227  -18.5770 C   0  0  2  0  0  0  0  0  0  0  0  0
   17.7538  -15.7793  -18.7579 C   0  0  0  0  0  0  0  0  0  0  0  0
   20.1203  -16.2887  -19.4947 C   0  0  2  0  0  0  0  0  0  0  0  0
   21.2755  -17.1066  -19.0487 N   0  0  0  0  0  0  0  0  0  0  0  0
   20.4884  -14.8704  -19.5355 C   0  0  0  0  0  0  0  0  0  0  0  0
   21.1725  -14.4248  -18.5662 O   0  0  0  0  0  0  0  0  0  0  0  0
   26.6751  -14.7835  -21.7899 O   0  0  0  0  0  0  0  0  0  0  0  0
   25.4085  -14.1929  -21.7895 C   0  0  0  0  0  0  0  0  0  0  0  0
   25.2261  -12.9062  -21.3328 C   0  0  0  0  0  0  0  0  0  0  0  0
   23.9827  -12.3115  -21.3266 C   0  0  0  0  0  0  0  0  0  0  0  0
   22.8476  -12.9562  -21.7724 C   0  0  0  0  0  0  0  0  0  0  0  0
   21.5039  -12.3589  -21.7898 C   0  0  0  0  0  0  0  0  0  0  0  0
   20.6965  -12.5532  -20.5318 C   0  0  2  0  0  0  0  0  0  0  0  0
   20.1583  -13.9455  -20.5524 N   0  0  0  0  0  0  0  0  0  0  0  0
   19.5464  -11.6480  -20.5222 C   0  0  0  0  0  0  0  0  0  0  0  0
   18.5188  -12.0110  -21.1963 O   0  0  0  0  0  0  0  0  0  0  0  0
   23.0552  -14.2675  -22.2339 C   0  0  0  0  0  0  0  0  0  0  0  0
   24.2937  -14.8658  -22.2422 C   0  0  0  0  0  0  0  0  0  0  0  0
   19.4091  -10.4187  -19.8586 N   0  0  0  0  0  0  0  0  0  0  0  0
   18.2571   -9.5939  -20.0258 C   0  0  1  0  0  0  0  0  0  0  0  0
   18.1465   -8.5549  -18.9243 C   0  0  0  0  0  0  0  0  0  0  0  0
   16.9686   -7.6971  -19.0695 C   0  0  0  0  0  0  0  0  0  0  0  0
   16.9870   -6.4513  -19.2260 O   0  0  0  0  0  0  0  0  0  0  0  0
   18.1057   -8.9029  -21.2965 C   0  0  0  0  0  0  0  0  0  0  0  0
   16.9981   -8.2782  -21.4632 O   0  0  0  0  0  0  0  0  0  0  0  0
   15.7191   -8.3006  -19.0326 O   0  0  0  0  0  0  0  0  0  0  0  0
   18.9796   -8.8237  -22.3437 O   0  0  0  0  0  0  0  0  0  0  0  0
  1  2  1  0
  2  3  1  0
  3  4  1  6
  5  3  1  0
  5  6  1  1
  7  5  1  0
  8  7  2  0
  9 10  1  0
 10 11  2  0
 11 12  1  0
 13 12  2  0
 13 14  1  0
 15 14  1  6
 15 16  1  0
 16  7  1  0
 17 21  1  0
 17 15  1  0
 18 17  2  0
 19 13  1  0
 20 10  1  0
 20 19  2  0
 22 21  1  0
 22 26  1  0
 22 23  1  1
 23 24  1  0
 24 25  2  0
 26 29  1  0
 27 26  2  0
 28 24  1  0
M  END
$$$$
