IYD.pdb
     RDKit          3D

 29 29  0  0  1  0  0  0  0  0999 V2000
   27.2676  -20.4192  -20.1868 C   0  0  0  0  0  0  0  0  0  0  0  0
   27.8902  -20.8300  -18.8861 C   0  0  0  0  0  0  0  0  0  0  0  0
   26.8413  -21.0130  -17.7746 C   0  0  2  0  0  0  0  0  0  0  0  0
   26.0281  -19.7720  -17.6301 C   0  0  0  0  0  0  0  0  0  0  0  0
   27.5378  -21.4698  -16.5159 C   0  0  2  0  0  0  0  0  0  0  0  0
   28.2482  -22.7286  -16.8520 N   0  0  0  0  0  0  0  0  0  0  0  0
   26.6583  -21.6762  -15.3616 C   0  0  0  0  0  0  0  0  0  0  0  0
   25.9422  -22.7219  -15.3626 O   0  0  0  0  0  0  0  0  0  0  0  0
   22.6279  -20.7969   -7.3379 O   0  0  0  0  0  0  0  0  0  0  0  0
   23.4593  -20.6999   -8.4569 C   0  0  0  0  0  0  0  0  0  0  0  0
   23.0226  -20.0947   -9.6147 C   0  0  0  0  0  0  0  0  0  0  0  0
   23.8319  -19.9922  -10.7257 C   0  0  0  0  0  0  0  0  0  0  0  0
   25.1208  -20.4826  -10.7548 C   0  0  0  0  0  0  0  0  0  0  0  0
   26.0205  -20.3898  -11.9144 C   0  0  0  0  0  0  0  0  0  0  0  0
   25.5669  -21.1365  -13.1428 C   0  0  2  0  0  0  0  0  0  0  0  0
   26.5289  -20.8244  -14.2407 N   0  0  0  0  0  0  0  0  0  0  0  0
   24.2532  -20.6551  -13.5729 C   0  0  0  0  0  0  0  0  0  0  0  0
   24.2325  -19.5936  -14.2903 O   0  0  0  0  0  0  0  0  0  0  0  0
   25.5470  -21.0961   -9.5642 C   0  0  0  0  0  0  0  0  0  0  0  0
   24.7435  -21.2013   -8.4528 C   0  0  0  0  0  0  0  0  0  0  0  0
   22.9912  -21.2102  -13.3088 N   0  0  0  0  0  0  0  0  0  0  0  0
   21.7931  -20.6545  -13.8483 C   0  0  1  0  0  0  0  0  0  0  0  0
   21.8430  -20.5781  -15.3638 C   0  0  0  0  0  0  0  0  0  0  0  0
   20.6214  -20.0169  -15.9444 C   0  0  0  0  0  0  0  0  0  0  0  0
   19.5711  -20.6575  -16.1962 O   0  0  0  0  0  0  0  0  0  0  0  0
   20.5360  -21.2880  -13.4828 C   0  0  0  0  0  0  0  0  0  0  0  0
   20.6284  -22.4715  -12.9973 O   0  0  0  0  0  0  0  0  0  0  0  0
   20.6109  -18.6621  -16.2465 O   0  0  0  0  0  0  0  0  0  0  0  0
   19.2640  -20.7997  -13.5830 O   0  0  0  0  0  0  0  0  0  0  0  0
  1  2  1  0
  2  3  1  0
  3  4  1  1
  5  3  1  0
  5  6  1  6
  7  5  1  0
  8  7  2  0
  9 10  1  0
 10 11  2  0
 11 12  1  0
 13 12  2  0
 13 14  1  0
 15 14  1  1
 15 16  1  0
 16  7  1  0
 17 21  1  0
 17 15  1  0
 18 17  2  0
 19 13  1  0
 20 10  1  0
 20 19  2  0
 22 21  1  0
 22 26  1  0
 22 23  1  6
 23 24  1  0
 24 25  2  0
 26 29  1  0
 27 26  2  0
 28 24  1  0
M  END
$$$$
