IYD.pdb
     RDKit          3D

 29 29  0  0  1  0  0  0  0  0999 V2000
   28.6015  -12.2580  -15.9005 C   0  0  0  0  0  0  0  0  0  0  0  0
   27.2759  -12.8213  -15.4839 C   0  0  0  0  0  0  0  0  0  0  0  0
   26.1070  -11.8976  -15.8710 C   0  0  2  0  0  0  0  0  0  0  0  0
   26.3237  -10.5352  -15.3061 C   0  0  0  0  0  0  0  0  0  0  0  0
   24.8099  -12.5564  -15.4691 C   0  0  2  0  0  0  0  0  0  0  0  0
   24.7699  -13.8746  -16.1495 N   0  0  0  0  0  0  0  0  0  0  0  0
   23.6019  -11.7872  -15.7816 C   0  0  0  0  0  0  0  0  0  0  0  0
   23.1974  -11.8126  -16.9824 O   0  0  0  0  0  0  0  0  0  0  0  0
   18.6286  -15.6894  -17.3171 O   0  0  0  0  0  0  0  0  0  0  0  0
   19.0701  -14.5266  -16.6801 C   0  0  0  0  0  0  0  0  0  0  0  0
   18.7884  -13.2824  -17.2000 C   0  0  0  0  0  0  0  0  0  0  0  0
   19.2177  -12.1275  -16.5822 C   0  0  0  0  0  0  0  0  0  0  0  0
   19.9506  -12.1372  -15.4137 C   0  0  0  0  0  0  0  0  0  0  0  0
   20.4232  -10.9311  -14.7177 C   0  0  0  0  0  0  0  0  0  0  0  0
   21.6303  -10.2663  -15.3290 C   0  0  2  0  0  0  0  0  0  0  0  0
   22.8372  -11.0183  -14.8747 N   0  0  0  0  0  0  0  0  0  0  0  0
   21.7634   -8.8973  -14.8284 C   0  0  0  0  0  0  0  0  0  0  0  0
   22.2486   -8.7565  -13.6508 O   0  0  0  0  0  0  0  0  0  0  0  0
   20.2273  -13.4160  -14.9000 C   0  0  0  0  0  0  0  0  0  0  0  0
   19.8016  -14.5716  -15.5124 C   0  0  0  0  0  0  0  0  0  0  0  0
   21.4335   -7.6959  -15.4752 N   0  0  0  0  0  0  0  0  0  0  0  0
   21.6791   -6.4237  -14.8781 C   0  0  1  0  0  0  0  0  0  0  0  0
   22.6014   -5.5720  -15.7319 C   0  0  0  0  0  0  0  0  0  0  0  0
   22.8559   -4.2525  -15.1500 C   0  0  0  0  0  0  0  0  0  0  0  0
   22.4234   -3.8466  -14.0432 O   0  0  0  0  0  0  0  0  0  0  0  0
   20.5239   -5.6097  -14.5349 C   0  0  0  0  0  0  0  0  0  0  0  0
   19.5975   -5.5546  -15.4202 O   0  0  0  0  0  0  0  0  0  0  0  0
   23.6407   -3.3657  -15.8740 O   0  0  0  0  0  0  0  0  0  0  0  0
   20.2831   -4.8915  -13.3978 O   0  0  0  0  0  0  0  0  0  0  0  0
  1  2  1  0
  2  3  1  0
  3  4  1  1
  5  3  1  0
  5  6  1  6
  7  5  1  0
  8  7  2  0
  9 10  1  0
 10 11  2  0
 11 12  1  0
 13 12  2  0
 13 14  1  0
 15 14  1  1
 15 16  1  0
 16  7  1  0
 17 21  1  0
 17 15  1  0
 18 17  2  0
 19 13  1  0
 20 10  1  0
 20 19  2  0
 22 21  1  0
 22 26  1  0
 22 23  1  6
 23 24  1  0
 24 25  2  0
 26 29  1  0
 27 26  2  0
 28 24  1  0
M  END
$$$$
