IYD.pdb
     RDKit          3D

 29 29  0  0  1  0  0  0  0  0999 V2000
   26.1319  -16.1303  -15.4597 C   0  0  0  0  0  0  0  0  0  0  0  0
   26.3086  -17.5368  -15.9483 C   0  0  0  0  0  0  0  0  0  0  0  0
   26.7874  -18.4817  -14.8315 C   0  0  2  0  0  0  0  0  0  0  0  0
   28.1572  -18.0957  -14.3880 C   0  0  0  0  0  0  0  0  0  0  0  0
   26.6481  -19.9080  -15.3051 C   0  0  2  0  0  0  0  0  0  0  0  0
   27.5097  -20.0472  -16.5053 N   0  0  0  0  0  0  0  0  0  0  0  0
   25.2776  -20.3272  -15.6130 C   0  0  0  0  0  0  0  0  0  0  0  0
   24.9983  -20.5332  -16.8319 O   0  0  0  0  0  0  0  0  0  0  0  0
   17.5959  -24.5919  -16.2000 O   0  0  0  0  0  0  0  0  0  0  0  0
   18.8444  -24.0553  -15.8742 C   0  0  0  0  0  0  0  0  0  0  0  0
   19.6242  -23.4422  -16.8300 C   0  0  0  0  0  0  0  0  0  0  0  0
   20.8574  -22.9088  -16.5226 C   0  0  0  0  0  0  0  0  0  0  0  0
   21.3901  -22.9513  -15.2509 C   0  0  0  0  0  0  0  0  0  0  0  0
   22.6971  -22.3904  -14.8771 C   0  0  0  0  0  0  0  0  0  0  0  0
   22.8625  -20.9146  -15.1362 C   0  0  2  0  0  0  0  0  0  0  0  0
   24.2315  -20.5282  -14.6836 N   0  0  0  0  0  0  0  0  0  0  0  0
   21.9111  -20.1482  -14.3301 C   0  0  0  0  0  0  0  0  0  0  0  0
   21.8487  -20.4332  -13.0824 O   0  0  0  0  0  0  0  0  0  0  0  0
   20.5792  -23.5809  -14.2909 C   0  0  0  0  0  0  0  0  0  0  0  0
   19.3480  -24.1149  -14.5922 C   0  0  0  0  0  0  0  0  0  0  0  0
   21.0476  -19.1209  -14.7418 N   0  0  0  0  0  0  0  0  0  0  0  0
   19.7016  -19.0330  -14.2769 C   0  0  1  0  0  0  0  0  0  0  0  0
   18.7635  -18.5412  -15.3646 C   0  0  0  0  0  0  0  0  0  0  0  0
   17.4098  -18.2800  -14.8711 C   0  0  0  0  0  0  0  0  0  0  0  0
   16.4339  -19.0646  -14.9653 O   0  0  0  0  0  0  0  0  0  0  0  0
   19.1124  -20.2302  -13.6984 C   0  0  0  0  0  0  0  0  0  0  0  0
   18.6868  -21.1031  -14.5362 O   0  0  0  0  0  0  0  0  0  0  0  0
   17.1722  -17.0648  -14.2437 O   0  0  0  0  0  0  0  0  0  0  0  0
   18.9467  -20.5597  -12.3829 O   0  0  0  0  0  0  0  0  0  0  0  0
  1  2  1  0
  2  3  1  0
  3  4  1  6
  5  3  1  0
  5  6  1  6
  7  5  1  0
  8  7  2  0
  9 10  1  0
 10 11  2  0
 11 12  1  0
 13 12  2  0
 13 14  1  0
 15 14  1  1
 15 16  1  0
 16  7  1  0
 17 21  1  0
 17 15  1  0
 18 17  2  0
 19 13  1  0
 20 10  1  0
 20 19  2  0
 22 21  1  0
 22 26  1  0
 22 23  1  6
 23 24  1  0
 24 25  2  0
 26 29  1  0
 27 26  2  0
 28 24  1  0
M  END
$$$$
