IYD.pdb
     RDKit          3D

 29 29  0  0  1  0  0  0  0  0999 V2000
   14.4983  -15.2171  -15.8061 C   0  0  0  0  0  0  0  0  0  0  0  0
   15.3902  -14.0121  -15.7765 C   0  0  0  0  0  0  0  0  0  0  0  0
   14.7726  -12.8545  -14.9716 C   0  0  2  0  0  0  0  0  0  0  0  0
   13.4270  -12.5147  -15.5157 C   0  0  0  0  0  0  0  0  0  0  0  0
   15.7536  -11.7082  -14.9333 C   0  0  2  0  0  0  0  0  0  0  0  0
   16.9955  -12.2276  -14.3086 N   0  0  0  0  0  0  0  0  0  0  0  0
   15.2862  -10.5167  -14.2188 C   0  0  0  0  0  0  0  0  0  0  0  0
   14.2234   -9.9712  -14.6419 O   0  0  0  0  0  0  0  0  0  0  0  0
   10.2264  -10.8992   -9.1101 O   0  0  0  0  0  0  0  0  0  0  0  0
   11.4555  -10.4159   -9.5668 C   0  0  0  0  0  0  0  0  0  0  0  0
   12.5107  -11.2699   -9.8009 C   0  0  0  0  0  0  0  0  0  0  0  0
   13.7284  -10.8069  -10.2512 C   0  0  0  0  0  0  0  0  0  0  0  0
   13.9719   -9.4714  -10.4962 C   0  0  0  0  0  0  0  0  0  0  0  0
   15.2517   -8.9344  -10.9824 C   0  0  0  0  0  0  0  0  0  0  0  0
   15.3244   -8.6895  -12.4680 C   0  0  2  0  0  0  0  0  0  0  0  0
   15.9022   -9.9130  -13.0987 N   0  0  0  0  0  0  0  0  0  0  0  0
   16.2401   -7.5844  -12.7558 C   0  0  0  0  0  0  0  0  0  0  0  0
   17.4743   -7.8849  -12.9246 O   0  0  0  0  0  0  0  0  0  0  0  0
   12.8829   -8.6172  -10.2511 C   0  0  0  0  0  0  0  0  0  0  0  0
   11.6658   -9.0738   -9.8016 C   0  0  0  0  0  0  0  0  0  0  0  0
   15.9458   -6.2177  -12.8816 N   0  0  0  0  0  0  0  0  0  0  0  0
   16.9076   -5.2781  -13.3586 C   0  0  1  0  0  0  0  0  0  0  0  0
   17.3257   -5.5793  -14.7867 C   0  0  0  0  0  0  0  0  0  0  0  0
   18.2682   -4.5946  -15.3218 C   0  0  0  0  0  0  0  0  0  0  0  0
   18.7622   -3.6335  -14.6822 O   0  0  0  0  0  0  0  0  0  0  0  0
   16.5577   -3.8680  -13.2927 C   0  0  0  0  0  0  0  0  0  0  0  0
   15.3072   -3.6086  -13.1750 O   0  0  0  0  0  0  0  0  0  0  0  0
   18.6567   -4.7238  -16.6482 O   0  0  0  0  0  0  0  0  0  0  0  0
   17.3753   -2.7744  -13.3382 O   0  0  0  0  0  0  0  0  0  0  0  0
  1  2  1  0
  2  3  1  0
  3  4  1  6
  5  3  1  0
  5  6  1  1
  7  5  1  0
  8  7  2  0
  9 10  1  0
 10 11  2  0
 11 12  1  0
 13 12  2  0
 13 14  1  0
 15 14  1  1
 15 16  1  0
 16  7  1  0
 17 21  1  0
 17 15  1  0
 18 17  2  0
 19 13  1  0
 20 10  1  0
 20 19  2  0
 22 21  1  0
 22 26  1  0
 22 23  1  6
 23 24  1  0
 24 25  2  0
 26 29  1  0
 27 26  2  0
 28 24  1  0
M  END
$$$$
