IYD.pdb
     RDKit          3D

 29 29  0  0  1  0  0  0  0  0999 V2000
   21.5213  -18.0249  -21.5998 C   0  0  0  0  0  0  0  0  0  0  0  0
   22.6592  -17.9457  -20.6266 C   0  0  0  0  0  0  0  0  0  0  0  0
   22.4239  -18.8283  -19.3877 C   0  0  2  0  0  0  0  0  0  0  0  0
   21.1220  -18.4789  -18.7513 C   0  0  0  0  0  0  0  0  0  0  0  0
   23.6256  -18.7270  -18.4802 C   0  0  2  0  0  0  0  0  0  0  0  0
   24.7919  -19.2147  -19.2573 N   0  0  0  0  0  0  0  0  0  0  0  0
   23.5125  -19.4643  -17.2183 C   0  0  0  0  0  0  0  0  0  0  0  0
   23.8020  -20.6978  -17.2440 O   0  0  0  0  0  0  0  0  0  0  0  0
   23.8901  -21.5356   -8.5260 O   0  0  0  0  0  0  0  0  0  0  0  0
   23.8207  -20.8991   -9.7681 C   0  0  0  0  0  0  0  0  0  0  0  0
   22.6902  -20.2111  -10.1504 C   0  0  0  0  0  0  0  0  0  0  0  0
   22.6081  -19.5788  -11.3724 C   0  0  0  0  0  0  0  0  0  0  0  0
   23.6408  -19.5908  -12.2868 C   0  0  0  0  0  0  0  0  0  0  0  0
   23.5993  -18.9256  -13.5977 C   0  0  0  0  0  0  0  0  0  0  0  0
   23.1138  -19.7820  -14.7393 C   0  0  2  0  0  0  0  0  0  0  0  0
   23.1139  -18.9358  -15.9691 N   0  0  0  0  0  0  0  0  0  0  0  0
   21.7310  -20.2016  -14.5065 C   0  0  0  0  0  0  0  0  0  0  0  0
   20.8163  -19.3355  -14.7415 O   0  0  0  0  0  0  0  0  0  0  0  0
   24.7847  -20.2978  -11.8777 C   0  0  0  0  0  0  0  0  0  0  0  0
   24.8718  -20.9306  -10.6596 C   0  0  0  0  0  0  0  0  0  0  0  0
   21.2603  -21.4465  -14.0602 N   0  0  0  0  0  0  0  0  0  0  0  0
   19.8672  -21.7424  -13.9773 C   0  0  1  0  0  0  0  0  0  0  0  0
   19.0177  -20.4960  -14.1506 C   0  0  0  0  0  0  0  0  0  0  0  0
   17.5834  -20.7653  -14.0289 C   0  0  0  0  0  0  0  0  0  0  0  0
   17.0224  -21.3040  -13.0431 O   0  0  0  0  0  0  0  0  0  0  0  0
   19.3427  -22.7585  -14.8760 C   0  0  0  0  0  0  0  0  0  0  0  0
   20.2132  -23.3804  -15.5834 O   0  0  0  0  0  0  0  0  0  0  0  0
   16.7634  -20.3985  -15.0871 O   0  0  0  0  0  0  0  0  0  0  0  0
   18.0482  -23.1474  -15.0751 O   0  0  0  0  0  0  0  0  0  0  0  0
  1  2  1  0
  2  3  1  0
  3  4  1  1
  5  3  1  0
  5  6  1  6
  7  5  1  0
  8  7  2  0
  9 10  1  0
 10 11  2  0
 11 12  1  0
 13 12  2  0
 13 14  1  0
 15 14  1  1
 15 16  1  0
 16  7  1  0
 17 21  1  0
 17 15  1  0
 18 17  2  0
 19 13  1  0
 20 10  1  0
 20 19  2  0
 22 21  1  0
 22 26  1  0
 22 23  1  6
 23 24  1  0
 24 25  2  0
 26 29  1  0
 27 26  2  0
 28 24  1  0
M  END
$$$$
