MLS.pdb
     RDKit          3D

 23 22  0  0  1  0  0  0  0  0999 V2000
   12.7236  -15.8799    3.4872 C   0  0  0  0  0  0  0  0  0  0  0  0
   14.4749  -16.0807    3.9285 S   0  0  0  0  0  0  0  0  0  0  0  0
   15.1248  -14.4412    4.3300 C   0  0  0  0  0  0  0  0  0  0  0  0
   16.5404  -14.6226    4.8252 C   0  0  0  0  0  0  0  0  0  0  0  0
   17.1236  -13.2475    5.0595 C   0  0  2  0  0  0  0  0  0  0  0  0
   17.2144  -12.5756    3.7841 N   0  0  0  0  0  0  0  0  0  0  0  0
   18.4913  -13.4781    5.6484 C   0  0  0  0  0  0  0  0  0  0  0  0
   19.4384  -13.8476    4.9089 O   0  0  0  0  0  0  0  0  0  0  0  0
   20.9362   -9.9953    8.5039 C   0  0  0  0  0  0  0  0  0  0  0  0
   20.7048  -11.2240    7.6395 C   0  0  1  0  0  0  0  0  0  0  0  0
   21.9748  -11.6404    6.9385 C   0  0  0  0  0  0  0  0  0  0  0  0
   20.2634  -12.3627    8.5225 C   0  0  0  0  0  0  0  0  0  0  0  0
   19.9153  -13.5385    7.6603 C   0  0  2  0  0  0  0  0  0  0  0  0
   18.6397  -13.2611    7.0342 N   0  0  0  0  0  0  0  0  0  0  0  0
   19.7883  -14.7881    8.4752 C   0  0  0  0  0  0  0  0  0  0  0  0
   18.6644  -15.1874    8.8523 O   0  0  0  0  0  0  0  0  0  0  0  0
   20.0274  -18.9783    9.0008 O   0  0  0  0  0  0  0  0  0  0  0  0
   20.1505  -17.7097    8.4129 C   0  0  0  0  0  0  0  0  0  0  0  0
   20.8360  -16.8154    9.4157 C   0  0  2  0  0  0  0  0  0  0  0  0
   20.9555  -15.4980    8.8047 N   0  0  0  0  0  0  0  0  0  0  0  0
   22.2113  -17.3278    9.6717 C   0  0  0  0  0  0  0  0  0  0  0  0
   22.4872  -18.0616   10.8278 O   0  0  0  0  0  0  0  0  0  0  0  0
   23.1472  -17.1205    8.8726 O   0  0  0  0  0  0  0  0  0  0  0  0
  1  2  1  0
  3  2  1  0
  4  3  1  0
  5  4  1  0
  5  6  1  6
  7  8  2  0
  7  5  1  0
 10  9  1  1
 10 11  1  0
 12 10  1  0
 13 12  1  1
 13 14  1  0
 14  7  1  0
 15 20  1  0
 15 13  1  0
 16 15  2  0
 19 18  1  6
 18 17  1  0
 19 20  1  0
 19 21  1  0
 21 22  1  0
 23 21  2  0
M  END
$$$$
