MLS.pdb
     RDKit          3D

 23 22  0  0  1  0  0  0  0  0999 V2000
   23.4773  -17.2204  -16.4816 C   0  0  0  0  0  0  0  0  0  0  0  0
   21.9220  -16.8300  -17.3366 S   0  0  0  0  0  0  0  0  0  0  0  0
   22.1247  -15.2126  -18.1202 C   0  0  0  0  0  0  0  0  0  0  0  0
   22.3665  -14.2032  -17.0226 C   0  0  0  0  0  0  0  0  0  0  0  0
   22.5505  -12.8519  -17.6752 C   0  0  2  0  0  0  0  0  0  0  0  0
   23.7268  -12.9140  -18.5112 N   0  0  0  0  0  0  0  0  0  0  0  0
   22.7411  -11.8741  -16.5446 C   0  0  0  0  0  0  0  0  0  0  0  0
   21.8699  -11.7801  -15.6431 O   0  0  0  0  0  0  0  0  0  0  0  0
   27.6204  -10.7137  -16.4824 C   0  0  0  0  0  0  0  0  0  0  0  0
   26.2936  -11.1445  -15.8784 C   0  0  1  0  0  0  0  0  0  0  0  0
   26.5053  -12.1107  -14.7388 C   0  0  0  0  0  0  0  0  0  0  0  0
   25.5898   -9.9277  -15.3350 C   0  0  0  0  0  0  0  0  0  0  0  0
   24.1132  -10.0921  -15.5341 C   0  0  2  0  0  0  0  0  0  0  0  0
   23.9177  -11.0961  -16.5586 N   0  0  0  0  0  0  0  0  0  0  0  0
   23.4830   -8.8126  -15.9897 C   0  0  0  0  0  0  0  0  0  0  0  0
   23.6940   -8.3778  -17.1434 O   0  0  0  0  0  0  0  0  0  0  0  0
   20.0704   -7.8100  -14.8419 O   0  0  0  0  0  0  0  0  0  0  0  0
   20.6581   -7.0662  -15.8770 C   0  0  0  0  0  0  0  0  0  0  0  0
   22.0985   -6.8295  -15.4972 C   0  0  2  0  0  0  0  0  0  0  0  0
   22.6533   -8.1153  -15.0950 N   0  0  0  0  0  0  0  0  0  0  0  0
   22.1527   -5.9189  -14.3193 C   0  0  0  0  0  0  0  0  0  0  0  0
   21.7989   -4.5739  -14.4501 O   0  0  0  0  0  0  0  0  0  0  0  0
   22.5110   -6.3232  -13.1943 O   0  0  0  0  0  0  0  0  0  0  0  0
  1  2  1  0
  3  2  1  0
  4  3  1  0
  5  4  1  0
  5  6  1  6
  7  8  2  0
  7  5  1  0
 10  9  1  1
 10 11  1  0
 12 10  1  0
 13 12  1  6
 13 14  1  0
 14  7  1  0
 15 20  1  0
 15 13  1  0
 16 15  2  0
 19 18  1  1
 18 17  1  0
 19 20  1  0
 19 21  1  0
 21 22  1  0
 23 21  2  0
M  END
$$$$
