MLS.pdb
     RDKit          3D

 23 22  0  0  1  0  0  0  0  0999 V2000
   18.1698  -16.1335  -18.5633 C   0  0  0  0  0  0  0  0  0  0  0  0
   18.7876  -15.1367  -17.1752 S   0  0  0  0  0  0  0  0  0  0  0  0
   18.8131  -13.4108  -17.7155 C   0  0  0  0  0  0  0  0  0  0  0  0
   19.2419  -12.5716  -16.5348 C   0  0  0  0  0  0  0  0  0  0  0  0
   19.3074  -11.1329  -16.9949 C   0  0  2  0  0  0  0  0  0  0  0  0
   20.0176  -11.0959  -18.2522 N   0  0  0  0  0  0  0  0  0  0  0  0
   20.0661  -10.3945  -15.9227 C   0  0  0  0  0  0  0  0  0  0  0  0
   19.6162  -10.3560  -14.7495 O   0  0  0  0  0  0  0  0  0  0  0  0
   25.1423  -11.1976  -15.8614 C   0  0  0  0  0  0  0  0  0  0  0  0
   23.7206  -10.8715  -15.4337 C   0  0  1  0  0  0  0  0  0  0  0  0
   23.4881  -11.2505  -13.9916 C   0  0  0  0  0  0  0  0  0  0  0  0
   23.5019   -9.3864  -15.5677 C   0  0  0  0  0  0  0  0  0  0  0  0
   22.0586   -9.0825  -15.3001 C   0  0  2  0  0  0  0  0  0  0  0  0
   21.2723   -9.7696  -16.3028 N   0  0  0  0  0  0  0  0  0  0  0  0
   21.7874   -7.6134  -15.4012 C   0  0  0  0  0  0  0  0  0  0  0  0
   22.2913   -6.8177  -14.5781 O   0  0  0  0  0  0  0  0  0  0  0  0
   19.4364   -6.3061  -18.4432 O   0  0  0  0  0  0  0  0  0  0  0  0
   20.3957   -5.4028  -17.9597 C   0  0  0  0  0  0  0  0  0  0  0  0
   20.6314   -5.7339  -16.5071 C   0  0  2  0  0  0  0  0  0  0  0  0
   20.9576   -7.1522  -16.4375 N   0  0  0  0  0  0  0  0  0  0  0  0
   19.3713   -5.5159  -15.7428 C   0  0  0  0  0  0  0  0  0  0  0  0
   18.8948   -4.2216  -15.5217 O   0  0  0  0  0  0  0  0  0  0  0  0
   18.7108   -6.4694  -15.2823 O   0  0  0  0  0  0  0  0  0  0  0  0
  1  2  1  0
  3  2  1  0
  4  3  1  0
  5  4  1  0
  5  6  1  6
  7  8  2  0
  7  5  1  0
 10  9  1  1
 10 11  1  0
 12 10  1  0
 13 12  1  6
 13 14  1  0
 14  7  1  0
 15 20  1  0
 15 13  1  0
 16 15  2  0
 19 18  1  6
 18 17  1  0
 19 20  1  0
 19 21  1  0
 21 22  1  0
 23 21  2  0
M  END
$$$$
