MLS.pdb
     RDKit          3D

 23 22  0  0  1  0  0  0  0  0999 V2000
   23.5686  -17.2533  -18.0866 C   0  0  0  0  0  0  0  0  0  0  0  0
   25.2458  -17.2965  -18.7846 S   0  0  0  0  0  0  0  0  0  0  0  0
   26.2744  -18.2762  -17.6651 C   0  0  0  0  0  0  0  0  0  0  0  0
   25.3515  -19.1477  -16.8460 C   0  0  0  0  0  0  0  0  0  0  0  0
   26.1582  -19.7229  -15.7040 C   0  0  2  0  0  0  0  0  0  0  0  0
   27.2281  -20.5150  -16.2649 N   0  0  0  0  0  0  0  0  0  0  0  0
   25.2015  -20.5834  -14.9199 C   0  0  0  0  0  0  0  0  0  0  0  0
   24.8729  -21.7152  -15.3576 O   0  0  0  0  0  0  0  0  0  0  0  0
   25.7711  -20.3744   -9.6850 C   0  0  0  0  0  0  0  0  0  0  0  0
   25.5132  -20.7850  -11.1257 C   0  0  1  0  0  0  0  0  0  0  0  0
   25.7629  -22.2603  -11.3218 C   0  0  0  0  0  0  0  0  0  0  0  0
   24.0700  -20.5068  -11.4588 C   0  0  0  0  0  0  0  0  0  0  0  0
   23.8254  -20.8655  -12.8936 C   0  0  2  0  0  0  0  0  0  0  0  0
   24.7130  -20.0593  -13.7049 N   0  0  0  0  0  0  0  0  0  0  0  0
   22.4122  -20.5717  -13.2913 C   0  0  0  0  0  0  0  0  0  0  0  0
   22.0179  -19.3899  -13.4031 O   0  0  0  0  0  0  0  0  0  0  0  0
   20.1670  -23.6919  -14.3283 O   0  0  0  0  0  0  0  0  0  0  0  0
   19.7692  -22.4735  -14.9004 C   0  0  0  0  0  0  0  0  0  0  0  0
   20.1729  -21.3771  -13.9465 C   0  0  2  0  0  0  0  0  0  0  0  0
   21.5438  -21.6496  -13.5347 N   0  0  0  0  0  0  0  0  0  0  0  0
   19.3099  -21.4385  -12.7336 C   0  0  0  0  0  0  0  0  0  0  0  0
   17.9313  -21.2389  -12.8376 O   0  0  0  0  0  0  0  0  0  0  0  0
   19.7846  -21.6670  -11.6023 O   0  0  0  0  0  0  0  0  0  0  0  0
  1  2  1  0
  3  2  1  0
  4  3  1  0
  5  4  1  0
  5  6  1  6
  7  8  2  0
  7  5  1  0
 10  9  1  1
 10 11  1  0
 12 10  1  0
 13 12  1  1
 13 14  1  0
 14  7  1  0
 15 20  1  0
 15 13  1  0
 16 15  2  0
 19 18  1  6
 18 17  1  0
 19 20  1  0
 19 21  1  0
 21 22  1  0
 23 21  2  0
M  END
$$$$
