MLS.pdb
     RDKit          3D

 23 22  0  0  1  0  0  0  0  0999 V2000
   23.3562  -20.8337  -19.7636 C   0  0  0  0  0  0  0  0  0  0  0  0
   24.1667  -19.2271  -19.5101 S   0  0  0  0  0  0  0  0  0  0  0  0
   25.7838  -19.5465  -18.7657 C   0  0  0  0  0  0  0  0  0  0  0  0
   25.5669  -20.4620  -17.5838 C   0  0  0  0  0  0  0  0  0  0  0  0
   25.0993  -19.6111  -16.4249 C   0  0  2  0  0  0  0  0  0  0  0  0
   26.2595  -18.9956  -15.8235 N   0  0  0  0  0  0  0  0  0  0  0  0
   24.4308  -20.5600  -15.4641 C   0  0  0  0  0  0  0  0  0  0  0  0
   23.9108  -21.6220  -15.8910 O   0  0  0  0  0  0  0  0  0  0  0  0
   26.2748  -21.7217  -12.0556 C   0  0  0  0  0  0  0  0  0  0  0  0
   25.0295  -21.6262  -11.1891 C   0  0  1  0  0  0  0  0  0  0  0  0
   25.3785  -21.2011   -9.7838 C   0  0  0  0  0  0  0  0  0  0  0  0
   24.1081  -20.5882  -11.7763 C   0  0  0  0  0  0  0  0  0  0  0  0
   23.7045  -21.0211  -13.1534 C   0  0  2  0  0  0  0  0  0  0  0  0
   24.4240  -20.1965  -14.1012 N   0  0  0  0  0  0  0  0  0  0  0  0
   22.2352  -20.8319  -13.3711 C   0  0  0  0  0  0  0  0  0  0  0  0
   21.7262  -19.6913  -13.3033 O   0  0  0  0  0  0  0  0  0  0  0  0
   19.9937  -24.1186  -14.1400 O   0  0  0  0  0  0  0  0  0  0  0  0
   19.5781  -22.9359  -14.7712 C   0  0  0  0  0  0  0  0  0  0  0  0
   20.0214  -21.7848  -13.9030 C   0  0  2  0  0  0  0  0  0  0  0  0
   21.4459  -21.9602  -13.6518 N   0  0  0  0  0  0  0  0  0  0  0  0
   19.3136  -21.8556  -12.5940 C   0  0  0  0  0  0  0  0  0  0  0  0
   17.9350  -21.6413  -12.5246 O   0  0  0  0  0  0  0  0  0  0  0  0
   19.9213  -22.1051  -11.5329 O   0  0  0  0  0  0  0  0  0  0  0  0
  1  2  1  0
  3  2  1  0
  4  3  1  0
  5  4  1  0
  5  6  1  1
  7  8  2  0
  7  5  1  0
 10  9  1  6
 10 11  1  0
 12 10  1  0
 13 12  1  1
 13 14  1  0
 14  7  1  0
 15 20  1  0
 15 13  1  0
 16 15  2  0
 19 18  1  6
 18 17  1  0
 19 20  1  0
 19 21  1  0
 21 22  1  0
 23 21  2  0
M  END
$$$$
