MLS.pdb
     RDKit          3D

 23 22  0  0  1  0  0  0  0  0999 V2000
   33.1386  -22.9345   -7.7049 C   0  0  0  0  0  0  0  0  0  0  0  0
   33.3859  -23.2121   -9.4837 S   0  0  0  0  0  0  0  0  0  0  0  0
   32.1027  -22.2872  -10.3607 C   0  0  0  0  0  0  0  0  0  0  0  0
   30.8017  -22.5063   -9.6249 C   0  0  0  0  0  0  0  0  0  0  0  0
   29.7215  -21.7561  -10.3707 C   0  0  2  0  0  0  0  0  0  0  0  0
   30.1947  -20.4132  -10.6143 N   0  0  0  0  0  0  0  0  0  0  0  0
   28.5226  -21.7502   -9.4579 C   0  0  0  0  0  0  0  0  0  0  0  0
   27.8722  -22.8095   -9.2701 O   0  0  0  0  0  0  0  0  0  0  0  0
   28.7590  -18.6272   -5.3230 C   0  0  0  0  0  0  0  0  0  0  0  0
   28.4010  -19.7787   -6.2486 C   0  0  1  0  0  0  0  0  0  0  0  0
   28.1228  -21.0377   -5.4646 C   0  0  0  0  0  0  0  0  0  0  0  0
   27.1526  -19.4178   -7.0119 C   0  0  0  0  0  0  0  0  0  0  0  0
   26.9459  -20.4215   -8.1060 C   0  0  2  0  0  0  0  0  0  0  0  0
   28.1855  -20.5244   -8.8469 N   0  0  0  0  0  0  0  0  0  0  0  0
   25.8619  -19.9854   -9.0423 C   0  0  0  0  0  0  0  0  0  0  0  0
   24.9515  -19.2240   -8.6472 O   0  0  0  0  0  0  0  0  0  0  0  0
   24.5084  -19.4582  -13.5487 O   0  0  0  0  0  0  0  0  0  0  0  0
   25.5128  -19.8287  -12.6411 C   0  0  0  0  0  0  0  0  0  0  0  0
   24.8558  -20.0132  -11.2959 C   0  0  2  0  0  0  0  0  0  0  0  0
   25.8915  -20.4494  -10.3685 N   0  0  0  0  0  0  0  0  0  0  0  0
   23.8392  -21.0982  -11.3902 C   0  0  0  0  0  0  0  0  0  0  0  0
   24.2014  -22.4269  -11.1566 O   0  0  0  0  0  0  0  0  0  0  0  0
   22.6486  -20.8578  -11.6769 O   0  0  0  0  0  0  0  0  0  0  0  0
  1  2  1  0
  3  2  1  0
  4  3  1  0
  5  4  1  0
  5  6  1  1
  7  8  2  0
  7  5  1  0
 10  9  1  1
 10 11  1  0
 12 10  1  0
 13 12  1  1
 13 14  1  0
 14  7  1  0
 15 20  1  0
 15 13  1  0
 16 15  2  0
 19 18  1  6
 18 17  1  0
 19 20  1  0
 19 21  1  0
 21 22  1  0
 23 21  2  0
M  END
$$$$
