MLS.pdb
     RDKit          3D

 23 22  0  0  1  0  0  0  0  0999 V2000
   30.4573  -12.4803  -16.4044 C   0  0  0  0  0  0  0  0  0  0  0  0
   29.0868  -11.3960  -16.9031 S   0  0  0  0  0  0  0  0  0  0  0  0
   27.5465  -12.2946  -16.6012 C   0  0  0  0  0  0  0  0  0  0  0  0
   26.4102  -11.3099  -16.7470 C   0  0  0  0  0  0  0  0  0  0  0  0
   25.1172  -12.0719  -16.5645 C   0  0  2  0  0  0  0  0  0  0  0  0
   25.0559  -13.1003  -17.5770 N   0  0  0  0  0  0  0  0  0  0  0  0
   24.0161  -11.0606  -16.7529 C   0  0  0  0  0  0  0  0  0  0  0  0
   23.5766  -10.8195  -17.9058 O   0  0  0  0  0  0  0  0  0  0  0  0
   19.6196   -9.1957  -16.6564 C   0  0  0  0  0  0  0  0  0  0  0  0
   20.0237   -9.2661  -15.1927 C   0  0  1  0  0  0  0  0  0  0  0  0
   18.9093   -9.8359  -14.3497 C   0  0  0  0  0  0  0  0  0  0  0  0
   21.2196  -10.1740  -15.0624 C   0  0  0  0  0  0  0  0  0  0  0  0
   22.4005   -9.5169  -15.7110 C   0  0  2  0  0  0  0  0  0  0  0  0
   23.5246  -10.4219  -15.5953 N   0  0  0  0  0  0  0  0  0  0  0  0
   22.7473   -8.2310  -15.0268 C   0  0  0  0  0  0  0  0  0  0  0  0
   23.1435   -8.2311  -13.8403 O   0  0  0  0  0  0  0  0  0  0  0  0
   22.0739   -4.9038  -17.0818 O   0  0  0  0  0  0  0  0  0  0  0  0
   23.1463   -4.7463  -16.1902 C   0  0  0  0  0  0  0  0  0  0  0  0
   22.9773   -5.7746  -15.0996 C   0  0  2  0  0  0  0  0  0  0  0  0
   22.6177   -7.0303  -15.7455 N   0  0  0  0  0  0  0  0  0  0  0  0
   21.8461   -5.3734  -14.2170 C   0  0  0  0  0  0  0  0  0  0  0  0
   22.0160   -4.3636  -13.2670 O   0  0  0  0  0  0  0  0  0  0  0  0
   20.7267   -5.9193  -14.2973 O   0  0  0  0  0  0  0  0  0  0  0  0
  1  2  1  0
  3  2  1  0
  4  3  1  0
  5  4  1  0
  5  6  1  6
  7  8  2  0
  7  5  1  0
 10  9  1  6
 10 11  1  0
 12 10  1  0
 13 12  1  1
 13 14  1  0
 14  7  1  0
 15 20  1  0
 15 13  1  0
 16 15  2  0
 19 18  1  6
 18 17  1  0
 19 20  1  0
 19 21  1  0
 21 22  1  0
 23 21  2  0
M  END
$$$$
