MFP.pdb
     RDKit          3D

 27 28  0  0  1  0  0  0  0  0999 V2000
   12.5970  -20.4999   23.9124 C   0  0  0  0  0  0  0  0  0  0  0  0
   11.4149  -20.9702   22.6019 S   0  0  0  0  0  0  0  0  0  0  0  0
   10.6716  -19.4741   21.9577 C   0  0  0  0  0  0  0  0  0  0  0  0
   11.6633  -18.3469   21.7509 C   0  0  0  0  0  0  0  0  0  0  0  0
   10.9663  -17.1003   21.2778 C   0  0  2  0  0  0  0  0  0  0  0  0
   11.8643  -16.4232   20.3614 N   0  0  0  0  0  0  0  0  0  0  0  0
   10.5800  -16.1695   22.3296 C   0  0  0  0  0  0  0  0  0  0  0  0
   11.4370  -15.4087   22.8707 O   0  0  0  0  0  0  0  0  0  0  0  0
    9.2501  -16.0287   22.8331 N   0  0  0  0  0  0  0  0  0  0  0  0
    8.8930  -15.1912   23.9541 C   0  0  1  0  0  0  0  0  0  0  0  0
    7.5691  -14.5310   23.7672 C   0  0  0  0  0  0  0  0  0  0  0  0
    7.1821  -13.7758   24.9689 C   0  0  0  0  0  0  0  0  0  0  0  0
    7.4449  -12.4016   24.9706 C   0  0  0  0  0  0  0  0  0  0  0  0
    7.1116  -11.5754   26.0035 C   0  0  0  0  0  0  0  0  0  0  0  0
    6.4840  -12.1235   27.1006 C   0  0  0  0  0  0  0  0  0  0  0  0
    6.2188  -13.4855   27.1085 C   0  0  0  0  0  0  0  0  0  0  0  0
    6.5528  -14.3230   26.0698 C   0  0  0  0  0  0  0  0  0  0  0  0
    9.0965  -15.7685   25.2764 C   0  0  0  0  0  0  0  0  0  0  0  0
    8.7168  -16.9935   25.4360 O   0  0  0  0  0  0  0  0  0  0  0  0
    9.6542  -15.1792   26.4278 N   0  0  0  0  0  0  0  0  0  0  0  0
    9.6004  -13.7977   26.8013 C   0  0  0  0  0  0  0  0  0  0  0  0
   10.4682  -13.6580   28.0691 C   0  0  0  0  0  0  0  0  0  0  0  0
   11.3854  -14.8853   27.9467 C   0  0  0  0  0  0  0  0  0  0  0  0
   10.3839  -15.8939   27.4415 C   0  0  1  0  0  0  0  0  0  0  0  0
    9.5268  -16.2550   28.6003 C   0  0  0  0  0  0  0  0  0  0  0  0
    8.3031  -16.0049   28.6786 O   0  0  0  0  0  0  0  0  0  0  0  0
   10.1452  -16.9134   29.6560 O   0  0  0  0  0  0  0  0  0  0  0  0
  2  1  1  0
  3  2  1  0
  3  4  1  0
  4  5  1  0
  5  6  1  6
  7  5  1  0
  7  8  2  0
  9  7  1  0
 10  9  1  0
 10 11  1  6
 12 13  2  0
 12 11  1  0
 14 13  1  0
 15 14  2  0
 16 15  1  0
 16 17  2  0
 17 12  1  0
 18 10  1  0
 19 18  2  0
 20 18  1  0
 20 24  1  0
 21 20  1  0
 22 21  1  0
 22 23  1  0
 23 24  1  0
 24 25  1  1
 25 27  1  0
 26 25  2  0
M  END
$$$$
