MFP.pdb
     RDKit          3D

 27 28  0  0  1  0  0  0  0  0999 V2000
    9.6370  -21.5438   23.6541 C   0  0  0  0  0  0  0  0  0  0  0  0
    8.4452  -22.0418   22.3627 S   0  0  0  0  0  0  0  0  0  0  0  0
    7.0815  -20.8817   22.3847 C   0  0  0  0  0  0  0  0  0  0  0  0
    6.3480  -20.8361   23.7101 C   0  0  0  0  0  0  0  0  0  0  0  0
    5.2385  -19.8205   23.6736 C   0  0  2  0  0  0  0  0  0  0  0  0
    4.5342  -19.9935   22.4171 N   0  0  0  0  0  0  0  0  0  0  0  0
    5.6655  -18.4323   23.7846 C   0  0  0  0  0  0  0  0  0  0  0  0
    5.6518  -17.6657   22.7755 O   0  0  0  0  0  0  0  0  0  0  0  0
    6.1227  -17.8236   24.9940 N   0  0  0  0  0  0  0  0  0  0  0  0
    6.6555  -16.4839   25.0753 C   0  0  1  0  0  0  0  0  0  0  0  0
    6.7190  -15.9851   26.4791 C   0  0  0  0  0  0  0  0  0  0  0  0
    6.9666  -14.5354   26.5130 C   0  0  0  0  0  0  0  0  0  0  0  0
    8.3014  -14.1170   26.5427 C   0  0  0  0  0  0  0  0  0  0  0  0
    8.6766  -12.8055   26.5446 C   0  0  0  0  0  0  0  0  0  0  0  0
    7.6896  -11.8449   26.5160 C   0  0  0  0  0  0  0  0  0  0  0  0
    6.3627  -12.2497   26.4864 C   0  0  0  0  0  0  0  0  0  0  0  0
    5.9790  -13.5705   26.4842 C   0  0  0  0  0  0  0  0  0  0  0  0
    7.8533  -16.2211   24.2883 C   0  0  0  0  0  0  0  0  0  0  0  0
    8.8321  -17.0528   24.4319 O   0  0  0  0  0  0  0  0  0  0  0  0
    8.1085  -15.1762   23.3790 N   0  0  0  0  0  0  0  0  0  0  0  0
    7.4656  -13.8972   23.3331 C   0  0  0  0  0  0  0  0  0  0  0  0
    8.0148  -13.1814   22.0817 C   0  0  0  0  0  0  0  0  0  0  0  0
    8.4918  -14.3722   21.2349 C   0  0  0  0  0  0  0  0  0  0  0  0
    9.0865  -15.2291   22.3247 C   0  0  1  0  0  0  0  0  0  0  0  0
   10.3680  -14.5863   22.7153 C   0  0  0  0  0  0  0  0  0  0  0  0
   11.3456  -14.4373   21.9484 O   0  0  0  0  0  0  0  0  0  0  0  0
   10.4660  -14.1276   24.0231 O   0  0  0  0  0  0  0  0  0  0  0  0
  2  1  1  0
  3  2  1  0
  3  4  1  0
  4  5  1  0
  5  6  1  6
  7  5  1  0
  7  8  2  0
  9  7  1  0
 10  9  1  0
 10 11  1  1
 12 13  2  0
 12 11  1  0
 14 13  1  0
 15 14  2  0
 16 15  1  0
 16 17  2  0
 17 12  1  0
 18 10  1  0
 19 18  2  0
 20 18  1  0
 20 24  1  0
 21 20  1  0
 22 21  1  0
 22 23  1  0
 23 24  1  0
 24 25  1  1
 25 27  1  0
 26 25  2  0
M  END
$$$$
