MFP.pdb
     RDKit          3D

 27 28  0  0  1  0  0  0  0  0999 V2000
   11.0924  -21.3573   23.3372 C   0  0  0  0  0  0  0  0  0  0  0  0
   12.5975  -20.5931   22.6398 S   0  0  0  0  0  0  0  0  0  0  0  0
   12.1613  -18.9745   22.0106 C   0  0  0  0  0  0  0  0  0  0  0  0
   10.7103  -18.8612   21.5880 C   0  0  0  0  0  0  0  0  0  0  0  0
   10.3939  -17.4638   21.1286 C   0  0  2  0  0  0  0  0  0  0  0  0
   11.5109  -17.0096   20.3221 N   0  0  0  0  0  0  0  0  0  0  0  0
   10.1623  -16.4988   22.1949 C   0  0  0  0  0  0  0  0  0  0  0  0
   11.1193  -15.8241   22.6796 O   0  0  0  0  0  0  0  0  0  0  0  0
    8.8843  -16.2290   22.7745 N   0  0  0  0  0  0  0  0  0  0  0  0
    8.6788  -15.3743   23.9203 C   0  0  1  0  0  0  0  0  0  0  0  0
    7.3227  -14.7543   23.9270 C   0  0  0  0  0  0  0  0  0  0  0  0
    7.1669  -13.8390   25.0680 C   0  0  0  0  0  0  0  0  0  0  0  0
    7.6299  -12.5290   24.9027 C   0  0  0  0  0  0  0  0  0  0  0  0
    7.5216  -11.5680   25.8647 C   0  0  0  0  0  0  0  0  0  0  0  0
    6.9256  -11.9061   27.0598 C   0  0  0  0  0  0  0  0  0  0  0  0
    6.4631  -13.2027   27.2336 C   0  0  0  0  0  0  0  0  0  0  0  0
    6.5697  -14.1753   26.2670 C   0  0  0  0  0  0  0  0  0  0  0  0
    9.1005  -15.9136   25.2065 C   0  0  0  0  0  0  0  0  0  0  0  0
    9.0204  -17.1956   25.3490 O   0  0  0  0  0  0  0  0  0  0  0  0
    9.5900  -15.2335   26.3387 N   0  0  0  0  0  0  0  0  0  0  0  0
    9.4191  -13.8464   26.6517 C   0  0  0  0  0  0  0  0  0  0  0  0
   10.2519  -13.5839   27.9236 C   0  0  0  0  0  0  0  0  0  0  0  0
   11.2666  -14.7369   27.8661 C   0  0  0  0  0  0  0  0  0  0  0  0
   10.3579  -15.8436   27.3916 C   0  0  1  0  0  0  0  0  0  0  0  0
    9.5137  -16.2242   28.5537 C   0  0  0  0  0  0  0  0  0  0  0  0
    8.9276  -15.4069   29.2985 O   0  0  0  0  0  0  0  0  0  0  0  0
    9.3795  -17.5826   28.8126 O   0  0  0  0  0  0  0  0  0  0  0  0
  2  1  1  0
  3  2  1  0
  3  4  1  0
  4  5  1  0
  5  6  1  1
  7  5  1  0
  7  8  2  0
  9  7  1  0
 10  9  1  0
 10 11  1  1
 12 13  2  0
 12 11  1  0
 14 13  1  0
 15 14  2  0
 16 15  1  0
 16 17  2  0
 17 12  1  0
 18 10  1  0
 19 18  2  0
 20 18  1  0
 20 24  1  0
 21 20  1  0
 22 21  1  0
 22 23  1  0
 23 24  1  0
 24 25  1  1
 25 27  1  0
 26 25  2  0
M  END
$$$$
