MFP.pdb
     RDKit          3D

 27 28  0  0  1  0  0  0  0  0999 V2000
   12.0973  -21.1481   22.9629 C   0  0  0  0  0  0  0  0  0  0  0  0
   12.6773  -20.8526   21.2564 S   0  0  0  0  0  0  0  0  0  0  0  0
   11.9698  -19.3099   20.6859 C   0  0  0  0  0  0  0  0  0  0  0  0
   11.6469  -18.3420   21.8064 C   0  0  0  0  0  0  0  0  0  0  0  0
   10.9597  -17.1146   21.2725 C   0  0  2  0  0  0  0  0  0  0  0  0
   11.8848  -16.4594   20.3673 N   0  0  0  0  0  0  0  0  0  0  0  0
   10.5326  -16.1552   22.2820 C   0  0  0  0  0  0  0  0  0  0  0  0
   11.3488  -15.3156   22.7667 O   0  0  0  0  0  0  0  0  0  0  0  0
    9.2047  -16.0704   22.8030 N   0  0  0  0  0  0  0  0  0  0  0  0
    8.8329  -15.2709   23.9468 C   0  0  1  0  0  0  0  0  0  0  0  0
    7.4779  -14.6668   23.7976 C   0  0  0  0  0  0  0  0  0  0  0  0
    7.1225  -13.8697   24.9819 C   0  0  0  0  0  0  0  0  0  0  0  0
    7.4333  -12.5058   24.9494 C   0  0  0  0  0  0  0  0  0  0  0  0
    7.1334  -11.6438   25.9631 C   0  0  0  0  0  0  0  0  0  0  0  0
    6.4917  -12.1429   27.0752 C   0  0  0  0  0  0  0  0  0  0  0  0
    6.1791  -13.4942   27.1171 C   0  0  0  0  0  0  0  0  0  0  0  0
    6.4792  -14.3677   26.0979 C   0  0  0  0  0  0  0  0  0  0  0  0
    9.0875  -15.8634   25.2534 C   0  0  0  0  0  0  0  0  0  0  0  0
    8.8382  -17.1259   25.3731 O   0  0  0  0  0  0  0  0  0  0  0  0
    9.5721  -15.2539   26.4270 N   0  0  0  0  0  0  0  0  0  0  0  0
    9.3946  -13.8901   26.8266 C   0  0  0  0  0  0  0  0  0  0  0  0
   10.2241  -13.7047   28.1141 C   0  0  0  0  0  0  0  0  0  0  0  0
   11.2441  -14.8474   27.9858 C   0  0  0  0  0  0  0  0  0  0  0  0
   10.3411  -15.9259   27.4409 C   0  0  1  0  0  0  0  0  0  0  0  0
    9.4967  -16.3826   28.5750 C   0  0  0  0  0  0  0  0  0  0  0  0
    8.2592  -16.2109   28.6479 O   0  0  0  0  0  0  0  0  0  0  0  0
   10.1441  -17.0419   29.6126 O   0  0  0  0  0  0  0  0  0  0  0  0
  2  1  1  0
  3  2  1  0
  3  4  1  0
  4  5  1  0
  5  6  1  6
  7  5  1  0
  7  8  2  0
  9  7  1  0
 10  9  1  0
 10 11  1  6
 12 13  2  0
 12 11  1  0
 14 13  1  0
 15 14  2  0
 16 15  1  0
 16 17  2  0
 17 12  1  0
 18 10  1  0
 19 18  2  0
 20 18  1  0
 20 24  1  0
 21 20  1  0
 22 21  1  0
 22 23  1  0
 23 24  1  0
 24 25  1  1
 25 27  1  0
 26 25  2  0
M  END
$$$$
