MFP.pdb
     RDKit          3D

 27 28  0  0  1  0  0  0  0  0999 V2000
    9.4740  -22.1851   23.6904 C   0  0  0  0  0  0  0  0  0  0  0  0
    8.0259  -23.2267   24.0826 S   0  0  0  0  0  0  0  0  0  0  0  0
    6.5520  -22.2284   23.8903 C   0  0  0  0  0  0  0  0  0  0  0  0
    6.8434  -20.7700   23.5989 C   0  0  0  0  0  0  0  0  0  0  0  0
    5.6144  -19.9268   23.8043 C   0  0  2  0  0  0  0  0  0  0  0  0
    4.6943  -20.2322   22.7251 N   0  0  0  0  0  0  0  0  0  0  0  0
    5.8467  -18.4890   23.8298 C   0  0  0  0  0  0  0  0  0  0  0  0
    5.9926  -17.8354   22.7540 O   0  0  0  0  0  0  0  0  0  0  0  0
    5.9290  -17.7067   25.0228 N   0  0  0  0  0  0  0  0  0  0  0  0
    6.5392  -16.3997   25.0938 C   0  0  1  0  0  0  0  0  0  0  0  0
    6.3788  -15.7733   26.4374 C   0  0  0  0  0  0  0  0  0  0  0  0
    6.8019  -14.3646   26.4164 C   0  0  0  0  0  0  0  0  0  0  0  0
    5.7973  -13.3987   26.2914 C   0  0  0  0  0  0  0  0  0  0  0  0
    6.0428  -12.0569   26.2892 C   0  0  0  0  0  0  0  0  0  0  0  0
    7.3472  -11.6325   26.4168 C   0  0  0  0  0  0  0  0  0  0  0  0
    8.3507  -12.5825   26.5415 C   0  0  0  0  0  0  0  0  0  0  0  0
    8.1087  -13.9365   26.5443 C   0  0  0  0  0  0  0  0  0  0  0  0
    7.8791  -16.2862   24.5327 C   0  0  0  0  0  0  0  0  0  0  0  0
    8.7503  -17.1497   24.9398 O   0  0  0  0  0  0  0  0  0  0  0  0
    8.3757  -15.3580   23.5970 N   0  0  0  0  0  0  0  0  0  0  0  0
    7.8693  -14.0445   23.3337 C   0  0  0  0  0  0  0  0  0  0  0  0
    8.6809  -13.4988   22.1405 C   0  0  0  0  0  0  0  0  0  0  0  0
    9.1799  -14.7998   21.4917 C   0  0  0  0  0  0  0  0  0  0  0  0
    9.5053  -15.5884   22.7358 C   0  0  1  0  0  0  0  0  0  0  0  0
   10.7582  -15.0100   23.2868 C   0  0  0  0  0  0  0  0  0  0  0  0
   11.8622  -15.0261   22.6975 O   0  0  0  0  0  0  0  0  0  0  0  0
   10.6763  -14.4169   24.5405 O   0  0  0  0  0  0  0  0  0  0  0  0
  2  1  1  0
  3  2  1  0
  3  4  1  0
  4  5  1  0
  5  6  1  6
  7  5  1  0
  7  8  2  0
  9  7  1  0
 10  9  1  0
 10 11  1  1
 12 13  2  0
 12 11  1  0
 14 13  1  0
 15 14  2  0
 16 15  1  0
 16 17  2  0
 17 12  1  0
 18 10  1  0
 19 18  2  0
 20 18  1  0
 20 24  1  0
 21 20  1  0
 22 21  1  0
 22 23  1  0
 23 24  1  0
 24 25  1  1
 25 27  1  0
 26 25  2  0
M  END
$$$$
