MFP.pdb
     RDKit          3D

 27 28  0  0  1  0  0  0  0  0999 V2000
    9.1885  -23.0249   21.3088 C   0  0  0  0  0  0  0  0  0  0  0  0
    7.4308  -23.0988   21.7996 S   0  0  0  0  0  0  0  0  0  0  0  0
    6.6701  -21.5310   21.3880 C   0  0  0  0  0  0  0  0  0  0  0  0
    7.5342  -20.3327   21.7258 C   0  0  0  0  0  0  0  0  0  0  0  0
    6.7685  -19.0509   21.5403 C   0  0  2  0  0  0  0  0  0  0  0  0
    6.7828  -18.7390   20.1236 N   0  0  0  0  0  0  0  0  0  0  0  0
    7.2876  -17.9070   22.2777 C   0  0  0  0  0  0  0  0  0  0  0  0
    8.3382  -17.3102   21.8955 O   0  0  0  0  0  0  0  0  0  0  0  0
    6.6863  -17.3673   23.4564 N   0  0  0  0  0  0  0  0  0  0  0  0
    7.2956  -16.3534   24.2848 C   0  0  1  0  0  0  0  0  0  0  0  0
    6.2849  -15.5545   25.0356 C   0  0  0  0  0  0  0  0  0  0  0  0
    6.9232  -14.4479   25.7650 C   0  0  0  0  0  0  0  0  0  0  0  0
    6.8013  -13.1672   25.2148 C   0  0  0  0  0  0  0  0  0  0  0  0
    7.3158  -12.0474   25.7997 C   0  0  0  0  0  0  0  0  0  0  0  0
    7.9896  -12.1861   26.9933 C   0  0  0  0  0  0  0  0  0  0  0  0
    8.1159  -13.4521   27.5471 C   0  0  0  0  0  0  0  0  0  0  0  0
    7.5992  -14.5843   26.9616 C   0  0  0  0  0  0  0  0  0  0  0  0
    8.4397  -16.7779   25.0810 C   0  0  0  0  0  0  0  0  0  0  0  0
    8.2305  -17.7292   25.9305 O   0  0  0  0  0  0  0  0  0  0  0  0
    9.7632  -16.2964   25.0635 N   0  0  0  0  0  0  0  0  0  0  0  0
   10.2120  -15.0264   24.5769 C   0  0  0  0  0  0  0  0  0  0  0  0
   11.7521  -15.0484   24.6659 C   0  0  0  0  0  0  0  0  0  0  0  0
   12.0352  -16.5591   24.6643 C   0  0  0  0  0  0  0  0  0  0  0  0
   10.9056  -17.0241   25.5493 C   0  0  1  0  0  0  0  0  0  0  0  0
   11.2692  -16.6366   26.9369 C   0  0  0  0  0  0  0  0  0  0  0  0
   12.1680  -17.1876   27.6113 O   0  0  0  0  0  0  0  0  0  0  0  0
   10.5513  -15.5910   27.5041 O   0  0  0  0  0  0  0  0  0  0  0  0
  2  1  1  0
  3  2  1  0
  3  4  1  0
  4  5  1  0
  5  6  1  6
  7  5  1  0
  7  8  2  0
  9  7  1  0
 10  9  1  0
 10 11  1  1
 12 13  2  0
 12 11  1  0
 14 13  1  0
 15 14  2  0
 16 15  1  0
 16 17  2  0
 17 12  1  0
 18 10  1  0
 19 18  2  0
 20 18  1  0
 20 24  1  0
 21 20  1  0
 22 21  1  0
 22 23  1  0
 23 24  1  0
 24 25  1  1
 25 27  1  0
 26 25  2  0
M  END
$$$$
