MFP.pdb
     RDKit          3D

 27 28  0  0  1  0  0  0  0  0999 V2000
    8.5619  -12.0786   19.1156 C   0  0  0  0  0  0  0  0  0  0  0  0
    7.7543  -13.6240   18.5723 S   0  0  0  0  0  0  0  0  0  0  0  0
    8.0948  -14.8901   19.7918 C   0  0  0  0  0  0  0  0  0  0  0  0
    9.5713  -15.1891   19.9566 C   0  0  0  0  0  0  0  0  0  0  0  0
    9.7994  -16.1525   21.0897 C   0  0  2  0  0  0  0  0  0  0  0  0
    8.8053  -17.2026   20.9722 N   0  0  0  0  0  0  0  0  0  0  0  0
    9.7132  -15.5722   22.4230 C   0  0  0  0  0  0  0  0  0  0  0  0
   10.5901  -14.7545   22.8334 O   0  0  0  0  0  0  0  0  0  0  0  0
    8.6728  -15.8565   23.3603 N   0  0  0  0  0  0  0  0  0  0  0  0
    8.6274  -15.3301   24.7044 C   0  0  1  0  0  0  0  0  0  0  0  0
    7.2331  -15.2186   25.2209 C   0  0  0  0  0  0  0  0  0  0  0  0
    6.9391  -13.8436   25.6531 C   0  0  0  0  0  0  0  0  0  0  0  0
    6.0590  -13.6878   26.7296 C   0  0  0  0  0  0  0  0  0  0  0  0
    5.7222  -12.4743   27.2537 C   0  0  0  0  0  0  0  0  0  0  0  0
    6.2780  -11.3451   26.6934 C   0  0  0  0  0  0  0  0  0  0  0  0
    7.1521  -11.4890   25.6254 C   0  0  0  0  0  0  0  0  0  0  0  0
    7.4949  -12.7100   25.0932 C   0  0  0  0  0  0  0  0  0  0  0  0
    9.5757  -15.9038   25.6501 C   0  0  0  0  0  0  0  0  0  0  0  0
   10.1852  -16.9801   25.2753 O   0  0  0  0  0  0  0  0  0  0  0  0
    9.9327  -15.4528   26.9359 N   0  0  0  0  0  0  0  0  0  0  0  0
    9.2895  -14.4251   27.6983 C   0  0  0  0  0  0  0  0  0  0  0  0
   10.1416  -14.2318   28.9697 C   0  0  0  0  0  0  0  0  0  0  0  0
   11.5011  -14.7834   28.5115 C   0  0  0  0  0  0  0  0  0  0  0  0
   11.0295  -15.9711   27.7100 C   0  0  1  0  0  0  0  0  0  0  0  0
   10.5885  -16.9952   28.6921 C   0  0  0  0  0  0  0  0  0  0  0  0
   11.3508  -17.5759   29.4971 O   0  0  0  0  0  0  0  0  0  0  0  0
    9.2363  -17.3141   28.7006 O   0  0  0  0  0  0  0  0  0  0  0  0
  2  1  1  0
  3  2  1  0
  3  4  1  0
  4  5  1  0
  5  6  1  1
  7  5  1  0
  7  8  2  0
  9  7  1  0
 10  9  1  0
 10 11  1  1
 12 13  2  0
 12 11  1  0
 14 13  1  0
 15 14  2  0
 16 15  1  0
 16 17  2  0
 17 12  1  0
 18 10  1  0
 19 18  2  0
 20 18  1  0
 20 24  1  0
 21 20  1  0
 22 21  1  0
 22 23  1  0
 23 24  1  0
 24 25  1  1
 25 27  1  0
 26 25  2  0
M  END
$$$$
