MFP.pdb
     RDKit          3D

 27 28  0  0  1  0  0  0  0  0999 V2000
   10.0807  -20.5183   23.1448 C   0  0  0  0  0  0  0  0  0  0  0  0
    9.0798  -22.0139   23.4566 S   0  0  0  0  0  0  0  0  0  0  0  0
    7.4579  -21.4947   24.0097 C   0  0  0  0  0  0  0  0  0  0  0  0
    6.7187  -20.6419   22.9982 C   0  0  0  0  0  0  0  0  0  0  0  0
    5.5767  -19.9090   23.6483 C   0  0  2  0  0  0  0  0  0  0  0  0
    4.3973  -20.1356   22.8344 N   0  0  0  0  0  0  0  0  0  0  0  0
    5.7704  -18.4737   23.8041 C   0  0  0  0  0  0  0  0  0  0  0  0
    5.4576  -17.6713   22.8743 O   0  0  0  0  0  0  0  0  0  0  0  0
    6.3097  -17.8552   24.9739 N   0  0  0  0  0  0  0  0  0  0  0  0
    6.7057  -16.4684   25.0475 C   0  0  1  0  0  0  0  0  0  0  0  0
    6.6082  -15.9255   26.4329 C   0  0  0  0  0  0  0  0  0  0  0  0
    6.8034  -14.4675   26.4430 C   0  0  0  0  0  0  0  0  0  0  0  0
    8.1167  -14.0007   26.5658 C   0  0  0  0  0  0  0  0  0  0  0  0
    8.4462  -12.6771   26.5583 C   0  0  0  0  0  0  0  0  0  0  0  0
    7.4329  -11.7537   26.4227 C   0  0  0  0  0  0  0  0  0  0  0  0
    6.1270  -12.2065   26.3001 C   0  0  0  0  0  0  0  0  0  0  0  0
    5.7894  -13.5398   26.3071 C   0  0  0  0  0  0  0  0  0  0  0  0
    7.9330  -16.1137   24.3469 C   0  0  0  0  0  0  0  0  0  0  0  0
    8.9768  -16.8277   24.6137 O   0  0  0  0  0  0  0  0  0  0  0  0
    8.1559  -15.0893   23.4062 N   0  0  0  0  0  0  0  0  0  0  0  0
    7.4789  -13.8298   23.3268 C   0  0  0  0  0  0  0  0  0  0  0  0
    8.0026  -13.1364   22.0521 C   0  0  0  0  0  0  0  0  0  0  0  0
    8.5071  -14.3384   21.2375 C   0  0  0  0  0  0  0  0  0  0  0  0
    9.1297  -15.1470   22.3484 C   0  0  1  0  0  0  0  0  0  0  0  0
   10.3955  -14.4594   22.7129 C   0  0  0  0  0  0  0  0  0  0  0  0
   11.3588  -14.2926   21.9315 O   0  0  0  0  0  0  0  0  0  0  0  0
   10.4953  -13.9776   24.0122 O   0  0  0  0  0  0  0  0  0  0  0  0
  2  1  1  0
  3  2  1  0
  3  4  1  0
  4  5  1  0
  5  6  1  6
  7  5  1  0
  7  8  2  0
  9  7  1  0
 10  9  1  0
 10 11  1  1
 12 13  2  0
 12 11  1  0
 14 13  1  0
 15 14  2  0
 16 15  1  0
 16 17  2  0
 17 12  1  0
 18 10  1  0
 19 18  2  0
 20 18  1  0
 20 24  1  0
 21 20  1  0
 22 21  1  0
 22 23  1  0
 23 24  1  0
 24 25  1  1
 25 27  1  0
 26 25  2  0
M  END
$$$$
