MFP.pdb
     RDKit          3D

 27 28  0  0  1  0  0  0  0  0999 V2000
    8.6394  -12.1960   18.7760 C   0  0  0  0  0  0  0  0  0  0  0  0
    8.3446  -13.7008   17.7839 S   0  0  0  0  0  0  0  0  0  0  0  0
    8.7263  -15.1238   18.8015 C   0  0  0  0  0  0  0  0  0  0  0  0
   10.0682  -15.0258   19.4989 C   0  0  0  0  0  0  0  0  0  0  0  0
   10.1392  -15.9797   20.6602 C   0  0  2  0  0  0  0  0  0  0  0  0
    9.1480  -17.0142   20.4322 N   0  0  0  0  0  0  0  0  0  0  0  0
    9.9018  -15.3828   21.9676 C   0  0  0  0  0  0  0  0  0  0  0  0
   10.7467  -14.5915   22.4834 O   0  0  0  0  0  0  0  0  0  0  0  0
    8.7393  -15.6211   22.7637 N   0  0  0  0  0  0  0  0  0  0  0  0
    8.5214  -15.0474   24.0710 C   0  0  1  0  0  0  0  0  0  0  0  0
    7.1112  -14.6037   24.2654 C   0  0  0  0  0  0  0  0  0  0  0  0
    6.9683  -13.8304   25.5087 C   0  0  0  0  0  0  0  0  0  0  0  0
    7.2437  -12.4602   25.4427 C   0  0  0  0  0  0  0  0  0  0  0  0
    7.1225  -11.6185   26.5092 C   0  0  0  0  0  0  0  0  0  0  0  0
    6.7075  -12.1459   27.7123 C   0  0  0  0  0  0  0  0  0  0  0  0
    6.4318  -13.5037   27.7881 C   0  0  0  0  0  0  0  0  0  0  0  0
    6.5523  -14.3568   26.7159 C   0  0  0  0  0  0  0  0  0  0  0  0
    9.0812  -15.7845   25.1963 C   0  0  0  0  0  0  0  0  0  0  0  0
    9.0397  -17.0740   25.1196 O   0  0  0  0  0  0  0  0  0  0  0  0
    9.6703  -15.2922   26.3772 N   0  0  0  0  0  0  0  0  0  0  0  0
    9.5364  -13.9748   26.9229 C   0  0  0  0  0  0  0  0  0  0  0  0
   10.4766  -13.9148   28.1446 C   0  0  0  0  0  0  0  0  0  0  0  0
   11.4748  -15.0365   27.8157 C   0  0  0  0  0  0  0  0  0  0  0  0
   10.5212  -16.0586   27.2486 C   0  0  1  0  0  0  0  0  0  0  0  0
    9.7767  -16.6272   28.4020 C   0  0  0  0  0  0  0  0  0  0  0  0
   10.3060  -17.2696   29.3366 O   0  0  0  0  0  0  0  0  0  0  0  0
    8.4030  -16.4203   28.4247 O   0  0  0  0  0  0  0  0  0  0  0  0
  2  1  1  0
  3  2  1  0
  3  4  1  0
  4  5  1  0
  5  6  1  6
  7  5  1  0
  7  8  2  0
  9  7  1  0
 10  9  1  0
 10 11  1  1
 12 13  2  0
 12 11  1  0
 14 13  1  0
 15 14  2  0
 16 15  1  0
 16 17  2  0
 17 12  1  0
 18 10  1  0
 19 18  2  0
 20 18  1  0
 20 24  1  0
 21 20  1  0
 22 21  1  0
 22 23  1  0
 23 24  1  0
 24 25  1  1
 25 27  1  0
 26 25  2  0
M  END
$$$$
