FGM.pdb
     RDKit          3D

 24 24  0  0  1  0  0  0  0  0999 V2000
   16.2657  -16.2511    5.2951 N   0  0  0  0  0  0  0  0  0  0  0  0
   17.2316  -17.0954    4.6278 C   0  0  1  0  0  0  0  0  0  0  0  0
   18.6052  -16.5062    4.8714 C   0  0  0  0  0  0  0  0  0  0  0  0
   18.7422  -15.2546    4.1175 C   0  0  0  0  0  0  0  0  0  0  0  0
   18.7618  -15.2608    2.7486 C   0  0  0  0  0  0  0  0  0  0  0  0
   18.8917  -14.0760    2.0158 C   0  0  0  0  0  0  0  0  0  0  0  0
   19.0024  -12.8714    2.7176 C   0  0  0  0  0  0  0  0  0  0  0  0
   18.9829  -12.8640    4.0880 C   0  0  0  0  0  0  0  0  0  0  0  0
   18.8531  -14.0542    4.7747 C   0  0  0  0  0  0  0  0  0  0  0  0
   17.1109  -18.4651    5.1679 C   0  0  0  0  0  0  0  0  0  0  0  0
   16.8322  -18.6255    6.3783 O   0  0  0  0  0  0  0  0  0  0  0  0
   17.2978  -19.6208    4.3713 N   0  0  0  0  0  0  0  0  0  0  0  0
   17.3764  -20.9317    4.9919 C   0  0  0  0  0  0  0  0  0  0  0  0
   17.3937  -21.9836    3.9658 C   0  0  0  0  0  0  0  0  0  0  0  0
   17.1682  -21.6872    2.7648 O   0  0  0  0  0  0  0  0  0  0  0  0
   21.3991  -23.0971    1.4434 C   0  0  0  0  0  0  0  0  0  0  0  0
   21.2907  -24.8998    1.2580 S   0  0  0  0  0  0  0  0  0  0  0  0
   19.9066  -25.4925    2.1817 C   0  0  0  0  0  0  0  0  0  0  0  0
   19.3338  -24.6850    3.2491 C   0  0  0  0  0  0  0  0  0  0  0  0
   17.8985  -24.3879    3.3142 C   0  0  2  0  0  0  0  0  0  0  0  0
   17.6609  -23.3230    4.3139 N   0  0  0  0  0  0  0  0  0  0  0  0
   16.9603  -25.4597    3.5855 C   0  0  0  0  0  0  0  0  0  0  0  0
   16.5276  -25.8208    4.7100 O   0  0  0  0  0  0  0  0  0  0  0  0
   16.4433  -26.2136    2.5104 O   0  0  0  0  0  0  0  0  0  0  0  0
  2  1  1  1
  3  4  1  0
  3  2  1  0
  4  5  2  0
  5  6  1  0
  7  6  2  0
  8  7  1  0
  9  4  1  0
  9  8  2  0
 10  2  1  0
 10 12  1  0
 11 10  2  0
 13 14  1  0
 13 12  1  0
 14 21  1  0
 15 14  2  0
 17 16  1  0
 18 19  1  0
 18 17  1  0
 20 19  1  1
 20 22  1  0
 21 20  1  0
 22 23  2  0
 22 24  1  0
M  END
$$$$
