FGM.pdb
     RDKit          3D

 24 24  0  0  1  0  0  0  0  0999 V2000
   22.7347  -21.4979  -14.6401 N   0  0  0  0  0  0  0  0  0  0  0  0
   22.8748  -20.5758  -13.5351 C   0  0  1  0  0  0  0  0  0  0  0  0
   21.4841  -20.1702  -13.0938 C   0  0  0  0  0  0  0  0  0  0  0  0
   20.8454  -19.3795  -14.1523 C   0  0  0  0  0  0  0  0  0  0  0  0
   19.8000  -19.8907  -14.8736 C   0  0  0  0  0  0  0  0  0  0  0  0
   19.1808  -19.1492  -15.8858 C   0  0  0  0  0  0  0  0  0  0  0  0
   19.6564  -17.8607  -16.1490 C   0  0  0  0  0  0  0  0  0  0  0  0
   20.7029  -17.3479  -15.4275 C   0  0  0  0  0  0  0  0  0  0  0  0
   21.2871  -18.1110  -14.4369 C   0  0  0  0  0  0  0  0  0  0  0  0
   23.6264  -21.2475  -12.4551 C   0  0  0  0  0  0  0  0  0  0  0  0
   23.2905  -22.4000  -12.0981 O   0  0  0  0  0  0  0  0  0  0  0  0
   24.7235  -20.6420  -11.7956 N   0  0  0  0  0  0  0  0  0  0  0  0
   25.4292  -21.3549  -10.7450 C   0  0  0  0  0  0  0  0  0  0  0  0
   26.5942  -20.5807  -10.2945 C   0  0  0  0  0  0  0  0  0  0  0  0
   26.8543  -19.4746  -10.8331 O   0  0  0  0  0  0  0  0  0  0  0  0
   28.6255  -18.5243   -4.0106 C   0  0  0  0  0  0  0  0  0  0  0  0
   28.8851  -20.0625   -4.9392 S   0  0  0  0  0  0  0  0  0  0  0  0
   28.9394  -19.6920   -6.6655 C   0  0  0  0  0  0  0  0  0  0  0  0
   29.1699  -20.7500   -7.6385 C   0  0  0  0  0  0  0  0  0  0  0  0
   28.8120  -20.5964   -9.0531 C   0  0  2  0  0  0  0  0  0  0  0  0
   27.4244  -21.0654   -9.2637 N   0  0  0  0  0  0  0  0  0  0  0  0
   29.6415  -21.2144  -10.0693 C   0  0  0  0  0  0  0  0  0  0  0  0
   29.4960  -22.3575  -10.5735 O   0  0  0  0  0  0  0  0  0  0  0  0
   30.7456  -20.5033  -10.5859 O   0  0  0  0  0  0  0  0  0  0  0  0
  2  1  1  6
  3  4  1  0
  3  2  1  0
  4  5  2  0
  5  6  1  0
  7  6  2  0
  8  7  1  0
  9  4  1  0
  9  8  2  0
 10  2  1  0
 10 12  1  0
 11 10  2  0
 13 14  1  0
 13 12  1  0
 14 21  1  0
 15 14  2  0
 17 16  1  0
 18 19  1  0
 18 17  1  0
 20 19  1  1
 20 22  1  0
 21 20  1  0
 22 23  2  0
 22 24  1  0
M  END
$$$$
