FGM.pdb
     RDKit          3D

 24 24  0  0  1  0  0  0  0  0999 V2000
   21.5210  -21.1760  -13.7306 N   0  0  0  0  0  0  0  0  0  0  0  0
   22.7394  -20.4227  -13.5327 C   0  0  1  0  0  0  0  0  0  0  0  0
   22.3733  -18.9536  -13.5016 C   0  0  0  0  0  0  0  0  0  0  0  0
   22.0330  -18.5047  -14.8567 C   0  0  0  0  0  0  0  0  0  0  0  0
   20.7538  -18.1304  -15.1694 C   0  0  0  0  0  0  0  0  0  0  0  0
   20.4139  -17.7003  -16.4567 C   0  0  0  0  0  0  0  0  0  0  0  0
   21.4184  -17.6597  -17.4288 C   0  0  0  0  0  0  0  0  0  0  0  0
   22.6995  -18.0342  -17.1169 C   0  0  0  0  0  0  0  0  0  0  0  0
   22.9948  -18.4528  -15.8353 C   0  0  0  0  0  0  0  0  0  0  0  0
   23.3660  -20.8659  -12.2705 C   0  0  0  0  0  0  0  0  0  0  0  0
   22.6676  -20.9488  -11.2342 O   0  0  0  0  0  0  0  0  0  0  0  0
   24.7373  -21.2059  -12.1753 N   0  0  0  0  0  0  0  0  0  0  0  0
   25.2977  -21.6359  -10.9061 C   0  0  0  0  0  0  0  0  0  0  0  0
   26.2337  -20.6265  -10.3917 C   0  0  0  0  0  0  0  0  0  0  0  0
   26.6021  -19.6813  -11.1345 O   0  0  0  0  0  0  0  0  0  0  0  0
   28.5919  -20.7807   -3.9233 C   0  0  0  0  0  0  0  0  0  0  0  0
   28.8427  -19.1221   -4.6174 S   0  0  0  0  0  0  0  0  0  0  0  0
   28.9470  -19.2427   -6.3766 C   0  0  0  0  0  0  0  0  0  0  0  0
   27.8506  -19.8193   -7.1411 C   0  0  0  0  0  0  0  0  0  0  0  0
   27.9076  -19.9545   -8.6010 C   0  0  2  0  0  0  0  0  0  0  0  0
   26.7238  -20.7068   -9.0725 N   0  0  0  0  0  0  0  0  0  0  0  0
   29.0777  -20.5498   -9.2165 C   0  0  0  0  0  0  0  0  0  0  0  0
   30.0858  -19.9474   -9.6669 O   0  0  0  0  0  0  0  0  0  0  0  0
   29.1487  -21.9528   -9.3515 O   0  0  0  0  0  0  0  0  0  0  0  0
  2  1  1  1
  3  4  1  0
  3  2  1  0
  4  5  2  0
  5  6  1  0
  7  6  2  0
  8  7  1  0
  9  4  1  0
  9  8  2  0
 10  2  1  0
 10 12  1  0
 11 10  2  0
 13 14  1  0
 13 12  1  0
 14 21  1  0
 15 14  2  0
 17 16  1  0
 18 19  1  0
 18 17  1  0
 20 19  1  1
 20 22  1  0
 21 20  1  0
 22 23  2  0
 22 24  1  0
M  END
$$$$
