FGM.pdb
     RDKit          3D

 24 24  0  0  1  0  0  0  0  0999 V2000
   23.2683  -20.2748  -15.7452 N   0  0  0  0  0  0  0  0  0  0  0  0
   24.5314  -20.4559  -15.0649 C   0  0  1  0  0  0  0  0  0  0  0  0
   25.6098  -19.8217  -15.9183 C   0  0  0  0  0  0  0  0  0  0  0  0
   26.8939  -19.8831  -15.2105 C   0  0  0  0  0  0  0  0  0  0  0  0
   27.5822  -21.0623  -15.1105 C   0  0  0  0  0  0  0  0  0  0  0  0
   28.8074  -21.1369  -14.4390 C   0  0  0  0  0  0  0  0  0  0  0  0
   29.3210  -19.9693  -13.8655 C   0  0  0  0  0  0  0  0  0  0  0  0
   28.6328  -18.7882  -13.9650 C   0  0  0  0  0  0  0  0  0  0  0  0
   27.4270  -18.7558  -14.6358 C   0  0  0  0  0  0  0  0  0  0  0  0
   24.4399  -19.8301  -13.7298 C   0  0  0  0  0  0  0  0  0  0  0  0
   23.9704  -18.6738  -13.6244 O   0  0  0  0  0  0  0  0  0  0  0  0
   24.8635  -20.4844  -12.5476 N   0  0  0  0  0  0  0  0  0  0  0  0
   24.8233  -19.7895  -11.2727 C   0  0  0  0  0  0  0  0  0  0  0  0
   25.4270  -20.6174  -10.2193 C   0  0  0  0  0  0  0  0  0  0  0  0
   25.5456  -21.8573  -10.3914 O   0  0  0  0  0  0  0  0  0  0  0  0
   29.9738  -19.6067   -5.2522 C   0  0  0  0  0  0  0  0  0  0  0  0
   28.3347  -19.6085   -4.4717 S   0  0  0  0  0  0  0  0  0  0  0  0
   27.2077  -20.5000   -5.4988 C   0  0  0  0  0  0  0  0  0  0  0  0
   26.9241  -20.0418   -6.8512 C   0  0  0  0  0  0  0  0  0  0  0  0
   26.0688  -20.8049   -7.7671 C   0  0  2  0  0  0  0  0  0  0  0  0
   25.8753  -20.0355   -9.0163 N   0  0  0  0  0  0  0  0  0  0  0  0
   24.7628  -21.2483   -7.3199 C   0  0  0  0  0  0  0  0  0  0  0  0
   23.6456  -20.7927   -7.6753 O   0  0  0  0  0  0  0  0  0  0  0  0
   24.6738  -22.3018   -6.3850 O   0  0  0  0  0  0  0  0  0  0  0  0
  2  1  1  6
  3  4  1  0
  3  2  1  0
  4  5  2  0
  5  6  1  0
  7  6  2  0
  8  7  1  0
  9  4  1  0
  9  8  2  0
 10  2  1  0
 10 12  1  0
 11 10  2  0
 13 14  1  0
 13 12  1  0
 14 21  1  0
 15 14  2  0
 17 16  1  0
 18 19  1  0
 18 17  1  0
 20 19  1  1
 20 22  1  0
 21 20  1  0
 22 23  2  0
 22 24  1  0
M  END
$$$$
