FGM.pdb
     RDKit          3D

 24 24  0  0  1  0  0  0  0  0999 V2000
   24.5083  -21.6509  -15.0201 N   0  0  0  0  0  0  0  0  0  0  0  0
   24.2404  -20.4721  -14.2266 C   0  0  1  0  0  0  0  0  0  0  0  0
   22.8460  -20.6101  -13.6521 C   0  0  0  0  0  0  0  0  0  0  0  0
   21.8581  -20.4971  -14.7313 C   0  0  0  0  0  0  0  0  0  0  0  0
   21.5541  -19.2789  -15.2771 C   0  0  0  0  0  0  0  0  0  0  0  0
   20.6146  -19.1549  -16.3064 C   0  0  0  0  0  0  0  0  0  0  0  0
   19.9849  -20.3135  -16.7721 C   0  0  0  0  0  0  0  0  0  0  0  0
   20.2884  -21.5337  -16.2265 C   0  0  0  0  0  0  0  0  0  0  0  0
   21.2211  -21.6143  -15.2123 C   0  0  0  0  0  0  0  0  0  0  0  0
   25.2688  -20.3727  -13.1708 C   0  0  0  0  0  0  0  0  0  0  0  0
   25.1601  -19.4903  -12.2887 O   0  0  0  0  0  0  0  0  0  0  0  0
   26.3869  -21.2393  -13.1080 N   0  0  0  0  0  0  0  0  0  0  0  0
   27.3980  -21.0553  -12.0815 C   0  0  0  0  0  0  0  0  0  0  0  0
   26.8693  -21.4442  -10.7666 C   0  0  0  0  0  0  0  0  0  0  0  0
   26.2748  -22.5442  -10.6339 O   0  0  0  0  0  0  0  0  0  0  0  0
   29.8812  -19.1657   -5.6064 C   0  0  0  0  0  0  0  0  0  0  0  0
   28.3697  -19.6636   -4.7328 S   0  0  0  0  0  0  0  0  0  0  0  0
   27.2841  -20.4677   -5.8709 C   0  0  0  0  0  0  0  0  0  0  0  0
   27.4594  -20.2913   -7.3053 C   0  0  0  0  0  0  0  0  0  0  0  0
   26.6051  -20.9750   -8.2826 C   0  0  2  0  0  0  0  0  0  0  0  0
   27.0218  -20.5962   -9.6511 N   0  0  0  0  0  0  0  0  0  0  0  0
   25.1657  -20.8177   -8.2045 C   0  0  0  0  0  0  0  0  0  0  0  0
   24.4446  -20.0786   -8.9226 O   0  0  0  0  0  0  0  0  0  0  0  0
   24.4427  -21.5480   -7.2372 O   0  0  0  0  0  0  0  0  0  0  0  0
  2  1  1  6
  3  4  1  0
  3  2  1  0
  4  5  2  0
  5  6  1  0
  7  6  2  0
  8  7  1  0
  9  4  1  0
  9  8  2  0
 10  2  1  0
 10 12  1  0
 11 10  2  0
 13 14  1  0
 13 12  1  0
 14 21  1  0
 15 14  2  0
 17 16  1  0
 18 19  1  0
 18 17  1  0
 20 19  1  1
 20 22  1  0
 21 20  1  0
 22 23  2  0
 22 24  1  0
M  END
$$$$
