FGM.pdb
     RDKit          3D

 24 24  0  0  1  0  0  0  0  0999 V2000
   24.9050  -21.6995  -15.4612 N   0  0  0  0  0  0  0  0  0  0  0  0
   24.5916  -20.4743  -14.7599 C   0  0  1  0  0  0  0  0  0  0  0  0
   23.1619  -20.5757  -14.2709 C   0  0  0  0  0  0  0  0  0  0  0  0
   22.2486  -20.5542  -15.4194 C   0  0  0  0  0  0  0  0  0  0  0  0
   21.9484  -19.3782  -16.0529 C   0  0  0  0  0  0  0  0  0  0  0  0
   21.0796  -19.3415  -17.1490 C   0  0  0  0  0  0  0  0  0  0  0  0
   20.5175  -20.5438  -17.5898 C   0  0  0  0  0  0  0  0  0  0  0  0
   20.8174  -21.7217  -16.9564 C   0  0  0  0  0  0  0  0  0  0  0  0
   21.6791  -21.7163  -15.8783 C   0  0  0  0  0  0  0  0  0  0  0  0
   25.5491  -20.3120  -13.6468 C   0  0  0  0  0  0  0  0  0  0  0  0
   25.4105  -19.3540  -12.8522 O   0  0  0  0  0  0  0  0  0  0  0  0
   26.6310  -21.2003  -13.4326 N   0  0  0  0  0  0  0  0  0  0  0  0
   27.6177  -20.9166  -12.4051 C   0  0  0  0  0  0  0  0  0  0  0  0
   27.1074  -21.3076  -11.0836 C   0  0  0  0  0  0  0  0  0  0  0  0
   26.4944  -22.3971  -10.9490 O   0  0  0  0  0  0  0  0  0  0  0  0
   29.3591  -20.2309   -4.0980 C   0  0  0  0  0  0  0  0  0  0  0  0
   28.2606  -19.1410   -5.0472 S   0  0  0  0  0  0  0  0  0  0  0  0
   27.3287  -20.1142   -6.1895 C   0  0  0  0  0  0  0  0  0  0  0  0
   27.5598  -19.9908   -7.6215 C   0  0  0  0  0  0  0  0  0  0  0  0
   26.8680  -20.8413   -8.5966 C   0  0  2  0  0  0  0  0  0  0  0  0
   27.2981  -20.4731   -9.9638 N   0  0  0  0  0  0  0  0  0  0  0  0
   25.4190  -20.8956   -8.5937 C   0  0  0  0  0  0  0  0  0  0  0  0
   24.6341  -20.2101   -9.2979 O   0  0  0  0  0  0  0  0  0  0  0  0
   24.7634  -21.7965   -7.7275 O   0  0  0  0  0  0  0  0  0  0  0  0
  2  1  1  1
  3  4  1  0
  3  2  1  0
  4  5  2  0
  5  6  1  0
  7  6  2  0
  8  7  1  0
  9  4  1  0
  9  8  2  0
 10  2  1  0
 10 12  1  0
 11 10  2  0
 13 14  1  0
 13 12  1  0
 14 21  1  0
 15 14  2  0
 17 16  1  0
 18 19  1  0
 18 17  1  0
 20 19  1  1
 20 22  1  0
 21 20  1  0
 22 23  2  0
 22 24  1  0
M  END
$$$$
