FGM.pdb
     RDKit          3D

 24 24  0  0  1  0  0  0  0  0999 V2000
   26.1567  -22.3366  -12.0290 N   0  0  0  0  0  0  0  0  0  0  0  0
   25.5797  -21.2664  -11.2463 C   0  0  1  0  0  0  0  0  0  0  0  0
   26.6485  -20.2119  -11.0483 C   0  0  0  0  0  0  0  0  0  0  0  0
   27.6496  -20.7023  -10.0939 C   0  0  0  0  0  0  0  0  0  0  0  0
   27.4165  -20.6487   -8.7459 C   0  0  0  0  0  0  0  0  0  0  0  0
   28.3610  -21.1122   -7.8236 C   0  0  0  0  0  0  0  0  0  0  0  0
   29.5617  -21.6374   -8.3117 C   0  0  0  0  0  0  0  0  0  0  0  0
   29.7962  -21.6915   -9.6610 C   0  0  0  0  0  0  0  0  0  0  0  0
   28.8391  -21.2240  -10.5388 C   0  0  0  0  0  0  0  0  0  0  0  0
   24.4045  -20.7373  -11.9684 C   0  0  0  0  0  0  0  0  0  0  0  0
   23.6704  -19.8903  -11.4095 O   0  0  0  0  0  0  0  0  0  0  0  0
   24.0639  -21.1479  -13.2801 N   0  0  0  0  0  0  0  0  0  0  0  0
   22.9553  -20.5204  -13.9781 C   0  0  0  0  0  0  0  0  0  0  0  0
   21.9060  -21.5085  -14.2650 C   0  0  0  0  0  0  0  0  0  0  0  0
   22.1451  -22.4627  -15.0481 O   0  0  0  0  0  0  0  0  0  0  0  0
   19.1528  -24.7198  -10.5069 C   0  0  0  0  0  0  0  0  0  0  0  0
   17.4887  -24.4414  -11.1768 S   0  0  0  0  0  0  0  0  0  0  0  0
   17.6080  -23.4163  -12.6104 C   0  0  0  0  0  0  0  0  0  0  0  0
   18.6786  -22.4369  -12.7279 C   0  0  0  0  0  0  0  0  0  0  0  0
   19.5383  -22.3636  -13.9145 C   0  0  2  0  0  0  0  0  0  0  0  0
   20.6326  -21.3977  -13.6710 N   0  0  0  0  0  0  0  0  0  0  0  0
   18.9514  -22.0442  -15.2014 C   0  0  0  0  0  0  0  0  0  0  0  0
   18.6413  -20.9031  -15.6300 O   0  0  0  0  0  0  0  0  0  0  0  0
   18.6762  -23.0860  -16.1127 O   0  0  0  0  0  0  0  0  0  0  0  0
  2  1  1  6
  3  4  1  0
  3  2  1  0
  4  5  2  0
  5  6  1  0
  7  6  2  0
  8  7  1  0
  9  4  1  0
  9  8  2  0
 10  2  1  0
 10 12  1  0
 11 10  2  0
 13 14  1  0
 13 12  1  0
 14 21  1  0
 15 14  2  0
 17 16  1  0
 18 19  1  0
 18 17  1  0
 20 19  1  1
 20 22  1  0
 21 20  1  0
 22 23  2  0
 22 24  1  0
M  END
$$$$
