FGM.pdb
     RDKit          3D

 24 24  0  0  1  0  0  0  0  0999 V2000
   28.6022  -22.4217  -15.3127 N   0  0  0  0  0  0  0  0  0  0  0  0
   28.7923  -21.5326  -14.1883 C   0  0  1  0  0  0  0  0  0  0  0  0
   30.1954  -20.9698  -14.2776 C   0  0  0  0  0  0  0  0  0  0  0  0
   31.0098  -21.5081  -13.1818 C   0  0  0  0  0  0  0  0  0  0  0  0
   30.9927  -20.9228  -11.9443 C   0  0  0  0  0  0  0  0  0  0  0  0
   31.7634  -21.4243  -10.8897 C   0  0  0  0  0  0  0  0  0  0  0  0
   32.5608  -22.5483  -11.1276 C   0  0  0  0  0  0  0  0  0  0  0  0
   32.5786  -23.1352  -12.3661 C   0  0  0  0  0  0  0  0  0  0  0  0
   31.8039  -22.6104  -13.3808 C   0  0  0  0  0  0  0  0  0  0  0  0
   27.7642  -20.4734  -14.2479 C   0  0  0  0  0  0  0  0  0  0  0  0
   27.3121  -20.1183  -15.3605 O   0  0  0  0  0  0  0  0  0  0  0  0
   27.2588  -19.8319  -13.0910 N   0  0  0  0  0  0  0  0  0  0  0  0
   27.9209  -20.0065  -11.8100 C   0  0  0  0  0  0  0  0  0  0  0  0
   27.0215  -20.6689  -10.8550 C   0  0  0  0  0  0  0  0  0  0  0  0
   27.0502  -21.9203  -10.7361 O   0  0  0  0  0  0  0  0  0  0  0  0
   29.1426  -19.7840   -5.2286 C   0  0  0  0  0  0  0  0  0  0  0  0
   27.4206  -19.3698   -5.6268 S   0  0  0  0  0  0  0  0  0  0  0  0
   26.9980  -20.0932   -7.1819 C   0  0  0  0  0  0  0  0  0  0  0  0
   25.6487  -19.9621   -7.7124 C   0  0  0  0  0  0  0  0  0  0  0  0
   25.2706  -20.5113   -9.0193 C   0  0  2  0  0  0  0  0  0  0  0  0
   26.1256  -19.9154  -10.0699 N   0  0  0  0  0  0  0  0  0  0  0  0
   23.8946  -20.4081   -9.4648 C   0  0  0  0  0  0  0  0  0  0  0  0
   22.9040  -21.0402   -9.0163 O   0  0  0  0  0  0  0  0  0  0  0  0
   23.5724  -19.5180  -10.5115 O   0  0  0  0  0  0  0  0  0  0  0  0
  2  1  1  6
  3  4  1  0
  3  2  1  0
  4  5  2  0
  5  6  1  0
  7  6  2  0
  8  7  1  0
  9  4  1  0
  9  8  2  0
 10  2  1  0
 10 12  1  0
 11 10  2  0
 13 14  1  0
 13 12  1  0
 14 21  1  0
 15 14  2  0
 17 16  1  0
 18 19  1  0
 18 17  1  0
 20 19  1  1
 20 22  1  0
 21 20  1  0
 22 23  2  0
 22 24  1  0
M  END
$$$$
