FGM.pdb
     RDKit          3D

 24 24  0  0  1  0  0  0  0  0999 V2000
   26.0032  -20.3705  -14.7125 N   0  0  0  0  0  0  0  0  0  0  0  0
   27.2004  -20.2907  -15.5196 C   0  0  1  0  0  0  0  0  0  0  0  0
   28.0817  -19.2087  -14.9314 C   0  0  0  0  0  0  0  0  0  0  0  0
   27.6429  -17.8979  -15.4242 C   0  0  0  0  0  0  0  0  0  0  0  0
   26.8766  -17.0766  -14.6415 C   0  0  0  0  0  0  0  0  0  0  0  0
   26.4505  -15.8242  -15.0972 C   0  0  0  0  0  0  0  0  0  0  0  0
   26.8274  -15.4233  -16.3829 C   0  0  0  0  0  0  0  0  0  0  0  0
   27.5946  -16.2447  -17.1674 C   0  0  0  0  0  0  0  0  0  0  0  0
   27.9949  -17.4730  -16.6815 C   0  0  0  0  0  0  0  0  0  0  0  0
   27.8619  -21.6116  -15.5107 C   0  0  0  0  0  0  0  0  0  0  0  0
   28.9115  -21.7773  -16.1735 O   0  0  0  0  0  0  0  0  0  0  0  0
   27.3587  -22.7143  -14.7785 N   0  0  0  0  0  0  0  0  0  0  0  0
   26.0261  -23.2250  -15.0493 C   0  0  0  0  0  0  0  0  0  0  0  0
   25.1238  -22.9197  -13.9302 C   0  0  0  0  0  0  0  0  0  0  0  0
   23.9319  -23.3188  -13.9633 O   0  0  0  0  0  0  0  0  0  0  0  0
   26.8682  -19.1477   -8.1270 C   0  0  0  0  0  0  0  0  0  0  0  0
   25.9720  -20.7048   -7.8661 S   0  0  0  0  0  0  0  0  0  0  0  0
   24.9443  -21.0207   -9.2676 C   0  0  0  0  0  0  0  0  0  0  0  0
   25.5229  -21.5176  -10.5076 C   0  0  0  0  0  0  0  0  0  0  0  0
   24.7039  -21.7840  -11.6955 C   0  0  2  0  0  0  0  0  0  0  0  0
   25.5808  -22.1833  -12.8187 N   0  0  0  0  0  0  0  0  0  0  0  0
   23.8047  -20.7577  -12.1861 C   0  0  0  0  0  0  0  0  0  0  0  0
   24.0715  -19.8504  -13.0153 O   0  0  0  0  0  0  0  0  0  0  0  0
   22.4739  -20.7241  -11.7177 O   0  0  0  0  0  0  0  0  0  0  0  0
  2  1  1  1
  3  4  1  0
  3  2  1  0
  4  5  2  0
  5  6  1  0
  7  6  2  0
  8  7  1  0
  9  4  1  0
  9  8  2  0
 10  2  1  0
 10 12  1  0
 11 10  2  0
 13 14  1  0
 13 12  1  0
 14 21  1  0
 15 14  2  0
 17 16  1  0
 18 19  1  0
 18 17  1  0
 20 19  1  1
 20 22  1  0
 21 20  1  0
 22 23  2  0
 22 24  1  0
M  END
$$$$
