FGM.pdb
     RDKit          3D

 24 24  0  0  1  0  0  0  0  0999 V2000
   25.5617  -20.7142   -7.8677 N   0  0  0  0  0  0  0  0  0  0  0  0
   26.7086  -20.3634   -8.6755 C   0  0  1  0  0  0  0  0  0  0  0  0
   27.9479  -20.8461   -7.9512 C   0  0  0  0  0  0  0  0  0  0  0  0
   28.1174  -20.0835   -6.7089 C   0  0  0  0  0  0  0  0  0  0  0  0
   27.9306  -18.7274   -6.6892 C   0  0  0  0  0  0  0  0  0  0  0  0
   28.0885  -17.9866   -5.5128 C   0  0  0  0  0  0  0  0  0  0  0  0
   28.4452  -18.6667   -4.3440 C   0  0  0  0  0  0  0  0  0  0  0  0
   28.6325  -20.0243   -4.3626 C   0  0  0  0  0  0  0  0  0  0  0  0
   28.4671  -20.7196   -5.5434 C   0  0  0  0  0  0  0  0  0  0  0  0
   26.5595  -20.9951  -10.0026 C   0  0  0  0  0  0  0  0  0  0  0  0
   26.0986  -22.1569  -10.0814 O   0  0  0  0  0  0  0  0  0  0  0  0
   26.9176  -20.3404  -11.2061 N   0  0  0  0  0  0  0  0  0  0  0  0
   27.0013  -21.0883  -12.4484 C   0  0  0  0  0  0  0  0  0  0  0  0
   25.7166  -21.0431  -13.1606 C   0  0  0  0  0  0  0  0  0  0  0  0
   25.6433  -21.4660  -14.3424 O   0  0  0  0  0  0  0  0  0  0  0  0
   21.0262  -19.7316   -9.1228 C   0  0  0  0  0  0  0  0  0  0  0  0
   20.6670  -21.2539  -10.0444 S   0  0  0  0  0  0  0  0  0  0  0  0
   21.8638  -21.4462  -11.3293 C   0  0  0  0  0  0  0  0  0  0  0  0
   22.1890  -20.3300  -12.2054 C   0  0  0  0  0  0  0  0  0  0  0  0
   23.2540  -20.4158  -13.2109 C   0  0  2  0  0  0  0  0  0  0  0  0
   24.5640  -20.5300  -12.5321 N   0  0  0  0  0  0  0  0  0  0  0  0
   23.3712  -19.3769  -14.2156 C   0  0  0  0  0  0  0  0  0  0  0  0
   23.9462  -18.2651  -14.0918 O   0  0  0  0  0  0  0  0  0  0  0  0
   22.7973  -19.5796  -15.4888 O   0  0  0  0  0  0  0  0  0  0  0  0
  2  1  1  1
  3  4  1  0
  3  2  1  0
  4  5  2  0
  5  6  1  0
  7  6  2  0
  8  7  1  0
  9  4  1  0
  9  8  2  0
 10  2  1  0
 10 12  1  0
 11 10  2  0
 13 14  1  0
 13 12  1  0
 14 21  1  0
 15 14  2  0
 17 16  1  0
 18 19  1  0
 18 17  1  0
 20 19  1  1
 20 22  1  0
 21 20  1  0
 22 23  2  0
 22 24  1  0
M  END
$$$$
