FGM.pdb
     RDKit          3D

 24 24  0  0  1  0  0  0  0  0999 V2000
   25.3588  -21.1269  -14.7358 N   0  0  0  0  0  0  0  0  0  0  0  0
   25.5579  -19.8010  -14.1942 C   0  0  1  0  0  0  0  0  0  0  0  0
   24.2518  -19.3572  -13.5693 C   0  0  0  0  0  0  0  0  0  0  0  0
   23.2141  -19.2823  -14.6042 C   0  0  0  0  0  0  0  0  0  0  0  0
   22.2433  -20.2436  -14.6928 C   0  0  0  0  0  0  0  0  0  0  0  0
   21.2474  -20.1860  -15.6739 C   0  0  0  0  0  0  0  0  0  0  0  0
   21.2635  -19.1147  -16.5726 C   0  0  0  0  0  0  0  0  0  0  0  0
   22.2349  -18.1517  -16.4849 C   0  0  0  0  0  0  0  0  0  0  0  0
   23.2002  -18.2441  -15.5027 C   0  0  0  0  0  0  0  0  0  0  0  0
   26.6554  -19.8567  -13.2069 C   0  0  0  0  0  0  0  0  0  0  0  0
   26.8055  -18.9096  -12.4013 O   0  0  0  0  0  0  0  0  0  0  0  0
   27.5579  -20.9449  -13.1269 N   0  0  0  0  0  0  0  0  0  0  0  0
   28.6624  -20.9112  -12.1841 C   0  0  0  0  0  0  0  0  0  0  0  0
   28.2064  -21.3158  -10.8469 C   0  0  0  0  0  0  0  0  0  0  0  0
   28.8795  -22.1444  -10.1826 O   0  0  0  0  0  0  0  0  0  0  0  0
   29.3673  -18.7322   -6.1203 C   0  0  0  0  0  0  0  0  0  0  0  0
   27.7220  -19.1009   -5.4474 S   0  0  0  0  0  0  0  0  0  0  0  0
   26.8692  -20.1721   -6.5634 C   0  0  0  0  0  0  0  0  0  0  0  0
   27.2095  -20.1824   -7.9787 C   0  0  0  0  0  0  0  0  0  0  0  0
   26.5539  -21.0875   -8.9293 C   0  0  2  0  0  0  0  0  0  0  0  0
   27.0209  -20.7842  -10.3003 N   0  0  0  0  0  0  0  0  0  0  0  0
   25.1060  -21.1559   -8.9656 C   0  0  0  0  0  0  0  0  0  0  0  0
   24.3549  -20.8076   -9.9125 O   0  0  0  0  0  0  0  0  0  0  0  0
   24.4101  -21.6592   -7.8458 O   0  0  0  0  0  0  0  0  0  0  0  0
  2  1  1  1
  3  4  1  0
  3  2  1  0
  4  5  2  0
  5  6  1  0
  7  6  2  0
  8  7  1  0
  9  4  1  0
  9  8  2  0
 10  2  1  0
 10 12  1  0
 11 10  2  0
 13 14  1  0
 13 12  1  0
 14 21  1  0
 15 14  2  0
 17 16  1  0
 18 19  1  0
 18 17  1  0
 20 19  1  1
 20 22  1  0
 21 20  1  0
 22 23  2  0
 22 24  1  0
M  END
$$$$
