NAL.pdb
     RDKit          3D

 22 21  0  0  1  0  0  0  0  0999 V2000
   20.4816  -21.4403  -16.3748 N   0  0  0  0  0  0  0  0  0  0  0  0
   20.6271  -20.0711  -16.0210 C   0  0  0  0  0  0  0  0  0  0  0  0
   19.7725  -19.5994  -15.2355 O   0  0  0  0  0  0  0  0  0  0  0  0
   21.7308  -19.2664  -16.5600 C   0  0  0  0  0  0  0  0  0  0  0  0
   21.4500  -17.7911  -16.6820 C   0  0  2  0  0  0  0  0  0  0  0  0
   20.2208  -17.7026  -17.5071 N   0  0  0  0  0  0  0  0  0  0  0  0
   22.5652  -17.1575  -17.4355 C   0  0  0  0  0  0  0  0  0  0  0  0
   23.7550  -17.2128  -17.0752 O   0  0  0  0  0  0  0  0  0  0  0  0
   22.8579  -15.3480  -20.7091 C   0  0  0  0  0  0  0  0  0  0  0  0
   23.3574  -15.6736  -19.3305 C   0  0  2  0  0  0  0  0  0  0  0  0
   22.3255  -16.4298  -18.6490 N   0  0  0  0  0  0  0  0  0  0  0  0
   23.7641  -14.4792  -18.5682 C   0  0  0  0  0  0  0  0  0  0  0  0
   22.9441  -13.9837  -17.7461 O   0  0  0  0  0  0  0  0  0  0  0  0
   26.4138  -11.2687  -15.2335 C   0  0  0  0  0  0  0  0  0  0  0  0
   27.0913  -11.4765  -16.5458 C   0  0  1  0  0  0  0  0  0  0  0  0
   28.6108  -11.3520  -16.4567 C   0  0  0  0  0  0  0  0  0  0  0  0
   26.7012  -12.7014  -17.2789 C   0  0  0  0  0  0  0  0  0  0  0  0
   25.3394  -12.7024  -17.8827 C   0  0  2  0  0  0  0  0  0  0  0  0
   25.0281  -13.8335  -18.6903 N   0  0  0  0  0  0  0  0  0  0  0  0
   25.2161  -11.4698  -18.6996 C   0  0  0  0  0  0  0  0  0  0  0  0
   25.6504  -11.4894  -19.8764 O   0  0  0  0  0  0  0  0  0  0  0  0
   24.6495  -10.3052  -18.2331 O   0  0  0  0  0  0  0  0  0  0  0  0
  2  1  1  0
  3  2  2  0
  4  2  1  0
  4  5  1  0
  5  6  1  6
  7  5  1  0
  7 11  1  0
  8  7  2  0
 10  9  1  6
 10 11  1  0
 10 12  1  0
 12 19  1  0
 13 12  2  0
 15 14  1  1
 16 15  1  0
 17 15  1  0
 18 17  1  6
 19 18  1  0
 20 22  1  0
 20 18  1  0
 21 20  2  0
M  END
$$$$
