NAL.pdb
     RDKit          3D

 22 21  0  0  1  0  0  0  0  0999 V2000
   16.4599  -15.0371  -14.6699 N   0  0  0  0  0  0  0  0  0  0  0  0
   15.9083  -13.7269  -14.6806 C   0  0  0  0  0  0  0  0  0  0  0  0
   14.7740  -13.5985  -15.1973 O   0  0  0  0  0  0  0  0  0  0  0  0
   16.6466  -12.5933  -14.1095 C   0  0  0  0  0  0  0  0  0  0  0  0
   16.1751  -11.2320  -14.5508 C   0  0  2  0  0  0  0  0  0  0  0  0
   16.7394  -11.0540  -15.9108 N   0  0  0  0  0  0  0  0  0  0  0  0
   16.7798  -10.2085  -13.6564 C   0  0  0  0  0  0  0  0  0  0  0  0
   16.8502  -10.3334  -12.4203 O   0  0  0  0  0  0  0  0  0  0  0  0
   18.3292   -6.8243  -14.2276 C   0  0  0  0  0  0  0  0  0  0  0  0
   17.7753   -7.9004  -13.3379 C   0  0  2  0  0  0  0  0  0  0  0  0
   17.3288   -8.9911  -14.1817 N   0  0  0  0  0  0  0  0  0  0  0  0
   16.7062   -7.4163  -12.4458 C   0  0  0  0  0  0  0  0  0  0  0  0
   15.5106   -7.4962  -12.8432 O   0  0  0  0  0  0  0  0  0  0  0  0
   13.2121   -6.6012   -8.5557 C   0  0  0  0  0  0  0  0  0  0  0  0
   14.6263   -6.3111   -8.1812 C   0  0  1  0  0  0  0  0  0  0  0  0
   14.9151   -6.5694   -6.7040 C   0  0  0  0  0  0  0  0  0  0  0  0
   15.6557   -6.9369   -9.0407 C   0  0  0  0  0  0  0  0  0  0  0  0
   15.8286   -6.3471  -10.3976 C   0  0  2  0  0  0  0  0  0  0  0  0
   16.9225   -6.8583  -11.1530 N   0  0  0  0  0  0  0  0  0  0  0  0
   15.9948   -4.8826  -10.2263 C   0  0  0  0  0  0  0  0  0  0  0  0
   15.0068   -4.2122   -9.8411 O   0  0  0  0  0  0  0  0  0  0  0  0
   17.1774   -4.2209  -10.4681 O   0  0  0  0  0  0  0  0  0  0  0  0
  2  1  1  0
  3  2  2  0
  4  2  1  0
  4  5  1  0
  5  6  1  6
  7  5  1  0
  7 11  1  0
  8  7  2  0
 10  9  1  6
 10 11  1  0
 10 12  1  0
 12 19  1  0
 13 12  2  0
 15 14  1  6
 16 15  1  0
 17 15  1  0
 18 17  1  1
 19 18  1  0
 20 22  1  0
 20 18  1  0
 21 20  2  0
M  END
$$$$
