NAL.pdb
     RDKit          3D

 22 21  0  0  1  0  0  0  0  0999 V2000
   15.2983  -15.1930  -16.2597 N   0  0  0  0  0  0  0  0  0  0  0  0
   16.1112  -14.6297  -15.2385 C   0  0  0  0  0  0  0  0  0  0  0  0
   15.8457  -14.9630  -14.0602 O   0  0  0  0  0  0  0  0  0  0  0  0
   17.2031  -13.7049  -15.5685 C   0  0  0  0  0  0  0  0  0  0  0  0
   17.3900  -13.4302  -17.0381 C   0  0  2  0  0  0  0  0  0  0  0  0
   18.1170  -14.6133  -17.5590 N   0  0  0  0  0  0  0  0  0  0  0  0
   18.2676  -12.2386  -17.1892 C   0  0  0  0  0  0  0  0  0  0  0  0
   19.5094  -12.2888  -17.1255 O   0  0  0  0  0  0  0  0  0  0  0  0
   17.6437   -8.6647  -18.1607 C   0  0  0  0  0  0  0  0  0  0  0  0
   18.5405   -9.7662  -17.6719 C   0  0  2  0  0  0  0  0  0  0  0  0
   17.7182  -10.9335  -17.4224 N   0  0  0  0  0  0  0  0  0  0  0  0
   19.3316   -9.3824  -16.4887 C   0  0  0  0  0  0  0  0  0  0  0  0
   18.8181   -9.5402  -15.3462 O   0  0  0  0  0  0  0  0  0  0  0  0
   24.5719  -10.6207  -15.0873 C   0  0  0  0  0  0  0  0  0  0  0  0
   23.1201  -10.2815  -15.0478 C   0  0  1  0  0  0  0  0  0  0  0  0
   22.4283  -10.7761  -13.7793 C   0  0  0  0  0  0  0  0  0  0  0  0
   22.7880   -8.8644  -15.3153 C   0  0  0  0  0  0  0  0  0  0  0  0
   21.3390   -8.5193  -15.3338 C   0  0  2  0  0  0  0  0  0  0  0  0
   20.6481   -8.8402  -16.5372 N   0  0  0  0  0  0  0  0  0  0  0  0
   21.2275   -7.0616  -15.0799 C   0  0  0  0  0  0  0  0  0  0  0  0
   20.9666   -6.3069  -16.0475 O   0  0  0  0  0  0  0  0  0  0  0  0
   21.3954   -6.4940  -13.8371 O   0  0  0  0  0  0  0  0  0  0  0  0
  2  1  1  0
  3  2  2  0
  4  2  1  0
  4  5  1  0
  5  6  1  6
  7  5  1  0
  7 11  1  0
  8  7  2  0
 10  9  1  1
 10 11  1  0
 10 12  1  0
 12 19  1  0
 13 12  2  0
 15 14  1  1
 16 15  1  0
 17 15  1  0
 18 17  1  6
 19 18  1  0
 20 22  1  0
 20 18  1  0
 21 20  2  0
M  END
$$$$
