NAL.pdb
     RDKit          3D

 22 21  0  0  1  0  0  0  0  0999 V2000
   17.3150  -16.3553  -16.6543 N   0  0  0  0  0  0  0  0  0  0  0  0
   18.0012  -16.0918  -17.8712 C   0  0  0  0  0  0  0  0  0  0  0  0
   18.2178  -17.0738  -18.6187 O   0  0  0  0  0  0  0  0  0  0  0  0
   18.4267  -14.7296  -18.2170 C   0  0  0  0  0  0  0  0  0  0  0  0
   17.9670  -13.6530  -17.2684 C   0  0  2  0  0  0  0  0  0  0  0  0
   16.5518  -13.4005  -17.6332 N   0  0  0  0  0  0  0  0  0  0  0  0
   18.7477  -12.4164  -17.5414 C   0  0  0  0  0  0  0  0  0  0  0  0
   19.9836  -12.3439  -17.4163 O   0  0  0  0  0  0  0  0  0  0  0  0
   17.9077   -9.0451  -18.9624 C   0  0  0  0  0  0  0  0  0  0  0  0
   18.8261   -9.9780  -18.2259 C   0  0  2  0  0  0  0  0  0  0  0  0
   18.1037  -11.2093  -17.9747 N   0  0  0  0  0  0  0  0  0  0  0  0
   19.3700   -9.3921  -16.9874 C   0  0  0  0  0  0  0  0  0  0  0  0
   18.6807   -9.4712  -15.9326 O   0  0  0  0  0  0  0  0  0  0  0  0
   24.0326  -10.5432  -14.5068 C   0  0  0  0  0  0  0  0  0  0  0  0
   22.6324  -10.0702  -14.7065 C   0  0  1  0  0  0  0  0  0  0  0  0
   21.7660  -10.2340  -13.4595 C   0  0  0  0  0  0  0  0  0  0  0  0
   22.4924   -8.7112  -15.2752 C   0  0  0  0  0  0  0  0  0  0  0  0
   21.1095   -8.2830  -15.6264 C   0  0  2  0  0  0  0  0  0  0  0  0
   20.6302   -8.7351  -16.8891 N   0  0  0  0  0  0  0  0  0  0  0  0
   21.0840   -6.7997  -15.5965 C   0  0  0  0  0  0  0  0  0  0  0  0
   20.9979   -6.1835  -16.6859 O   0  0  0  0  0  0  0  0  0  0  0  0
   21.1498   -6.0640  -14.4348 O   0  0  0  0  0  0  0  0  0  0  0  0
  2  1  1  0
  3  2  2  0
  4  2  1  0
  4  5  1  0
  5  6  1  6
  7  5  1  0
  7 11  1  0
  8  7  2  0
 10  9  1  1
 10 11  1  0
 10 12  1  0
 12 19  1  0
 13 12  2  0
 15 14  1  1
 16 15  1  0
 17 15  1  0
 18 17  1  6
 19 18  1  0
 20 22  1  0
 20 18  1  0
 21 20  2  0
M  END
$$$$
