NAL.pdb
     RDKit          3D

 22 21  0  0  1  0  0  0  0  0999 V2000
   25.5891  -30.9608   -8.6179 N   0  0  0  0  0  0  0  0  0  0  0  0
   24.9118  -31.7333   -7.6352 C   0  0  0  0  0  0  0  0  0  0  0  0
   23.7796  -31.3280   -7.2834 O   0  0  0  0  0  0  0  0  0  0  0  0
   25.5254  -32.9430   -7.0726 C   0  0  0  0  0  0  0  0  0  0  0  0
   26.8760  -33.3000   -7.6371 C   0  0  2  0  0  0  0  0  0  0  0  0
   26.5863  -33.9661   -8.9301 N   0  0  0  0  0  0  0  0  0  0  0  0
   27.5193  -34.2920   -6.7343 C   0  0  0  0  0  0  0  0  0  0  0  0
   27.1008  -35.4541   -6.5827 O   0  0  0  0  0  0  0  0  0  0  0  0
   30.7002  -34.3283   -4.7433 C   0  0  0  0  0  0  0  0  0  0  0  0
   29.3615  -34.9048   -5.1061 C   0  0  2  0  0  0  0  0  0  0  0  0
   28.6863  -33.9563   -5.9695 N   0  0  0  0  0  0  0  0  0  0  0  0
   28.5485  -35.2586   -3.9284 C   0  0  0  0  0  0  0  0  0  0  0  0
   27.7642  -34.3887   -3.4571 O   0  0  0  0  0  0  0  0  0  0  0  0
   26.3908  -40.3144   -2.7424 C   0  0  0  0  0  0  0  0  0  0  0  0
   26.5727  -38.8430   -2.9037 C   0  0  1  0  0  0  0  0  0  0  0  0
   25.2526  -38.0970   -3.0855 C   0  0  0  0  0  0  0  0  0  0  0  0
   27.4158  -38.1878   -1.8790 C   0  0  0  0  0  0  0  0  0  0  0  0
   27.7679  -36.7620   -2.1288 C   0  0  2  0  0  0  0  0  0  0  0  0
   28.5812  -36.5232   -3.2734 N   0  0  0  0  0  0  0  0  0  0  0  0
   28.4663  -36.2599   -0.9196 C   0  0  0  0  0  0  0  0  0  0  0  0
   29.6993  -36.0401   -0.9923 O   0  0  0  0  0  0  0  0  0  0  0  0
   27.8312  -36.0223    0.2784 O   0  0  0  0  0  0  0  0  0  0  0  0
  2  1  1  0
  3  2  2  0
  4  2  1  0
  4  5  1  0
  5  6  1  6
  7  5  1  0
  7 11  1  0
  8  7  2  0
 10  9  1  1
 10 11  1  0
 10 12  1  0
 12 19  1  0
 13 12  2  0
 15 14  1  1
 16 15  1  0
 17 15  1  0
 18 17  1  1
 19 18  1  0
 20 22  1  0
 20 18  1  0
 21 20  2  0
M  END
$$$$
