YFL.pdb
     RDKit          3D

 32 33  0  0  1  0  0  0  0  0999 V2000
   13.5179  -18.7146   14.7765 O   0  0  0  0  0  0  0  0  0  0  0  0
   13.0247  -18.0302   15.8737 C   0  0  0  0  0  0  0  0  0  0  0  0
   13.6817  -18.1634   17.0776 C   0  0  0  0  0  0  0  0  0  0  0  0
   13.2544  -17.5107   18.2329 C   0  0  0  0  0  0  0  0  0  0  0  0
   12.1243  -16.7034   18.1418 C   0  0  0  0  0  0  0  0  0  0  0  0
   11.6714  -16.0152   19.3525 C   0  0  0  0  0  0  0  0  0  0  0  0
   11.2246  -16.9816   20.4238 C   0  0  2  0  0  0  0  0  0  0  0  0
   10.1338  -17.8094   19.9840 N   0  0  0  0  0  0  0  0  0  0  0  0
   10.7722  -16.1717   21.5854 C   0  0  0  0  0  0  0  0  0  0  0  0
   11.5383  -15.3471   22.1364 O   0  0  0  0  0  0  0  0  0  0  0  0
   11.4538  -16.5547   16.9569 C   0  0  0  0  0  0  0  0  0  0  0  0
   11.9174  -17.2224   15.8420 C   0  0  0  0  0  0  0  0  0  0  0  0
    9.4674  -16.2725   22.1417 N   0  0  0  0  0  0  0  0  0  0  0  0
    8.9862  -15.6597   23.3160 C   0  0  1  0  0  0  0  0  0  0  0  0
    7.5174  -15.3366   23.3467 C   0  0  0  0  0  0  0  0  0  0  0  0
    7.1544  -14.3173   24.3795 C   0  0  0  0  0  0  0  0  0  0  0  0
    7.4404  -12.9973   24.3357 C   0  0  0  0  0  0  0  0  0  0  0  0
    7.0641  -12.1241   25.3610 C   0  0  0  0  0  0  0  0  0  0  0  0
    6.3827  -12.6222   26.4459 C   0  0  0  0  0  0  0  0  0  0  0  0
    6.0714  -13.9492   26.5335 C   0  0  0  0  0  0  0  0  0  0  0  0
    6.4565  -14.7659   25.5132 C   0  0  0  0  0  0  0  0  0  0  0  0
    9.3564  -16.3284   24.5678 C   0  0  0  0  0  0  0  0  0  0  0  0
    9.2701  -17.5868   24.6121 O   0  0  0  0  0  0  0  0  0  0  0  0
   11.2303  -12.9599   28.5330 C   0  0  0  0  0  0  0  0  0  0  0  0
   10.5237  -13.9317   27.6228 C   0  0  2  0  0  0  0  0  0  0  0  0
    9.0692  -13.6095   27.4430 C   0  0  0  0  0  0  0  0  0  0  0  0
   10.8732  -15.3500   27.8122 C   0  0  0  0  0  0  0  0  0  0  0  0
   10.3914  -16.3714   26.8790 C   0  0  2  0  0  0  0  0  0  0  0  0
    9.8038  -15.6475   25.7235 N   0  0  0  0  0  0  0  0  0  0  0  0
    9.5051  -17.4218   27.3501 C   0  0  0  0  0  0  0  0  0  0  0  0
    9.9260  -18.5029   28.1078 O   0  0  0  0  0  0  0  0  0  0  0  0
    8.2466  -17.4411   27.1005 O   0  0  0  0  0  0  0  0  0  0  0  0
  2  3  2  0
  2  1  1  0
  4  3  1  0
  5  4  2  0
  6  7  1  0
  6  5  1  0
  7  8  1  6
  9  7  1  0
  9 13  1  0
 10  9  2  0
 11  5  1  0
 11 12  2  0
 12  2  1  0
 14 13  1  0
 14 15  1  6
 16 21  1  0
 16 15  1  0
 17 16  2  0
 18 19  2  0
 18 17  1  0
 19 20  1  0
 20 21  2  0
 22 14  1  0
 23 22  2  0
 25 27  1  0
 25 24  1  1
 26 25  1  0
 28 29  1  0
 28 27  1  1
 29 22  1  0
 30 28  1  0
 31 30  1  0
 32 30  2  0
M  END
$$$$
