YFL.pdb
     RDKit          3D

 32 33  0  0  1  0  0  0  0  0999 V2000
   10.4114  -24.4002   19.5860 O   0  0  0  0  0  0  0  0  0  0  0  0
   10.3138  -23.1278   20.1219 C   0  0  0  0  0  0  0  0  0  0  0  0
   10.7783  -22.9197   21.4025 C   0  0  0  0  0  0  0  0  0  0  0  0
   10.7194  -21.6712   22.0199 C   0  0  0  0  0  0  0  0  0  0  0  0
   10.1690  -20.6159   21.2986 C   0  0  0  0  0  0  0  0  0  0  0  0
   10.1050  -19.3021   21.9425 C   0  0  0  0  0  0  0  0  0  0  0  0
    9.5082  -18.2518   21.0360 C   0  0  2  0  0  0  0  0  0  0  0  0
   10.3252  -18.0105   19.8772 N   0  0  0  0  0  0  0  0  0  0  0  0
    9.4119  -16.9947   21.8236 C   0  0  0  0  0  0  0  0  0  0  0  0
   10.3413  -16.1541   21.8162 O   0  0  0  0  0  0  0  0  0  0  0  0
    9.7005  -20.7970   20.0244 C   0  0  0  0  0  0  0  0  0  0  0  0
    9.7818  -22.0527   19.4582 C   0  0  0  0  0  0  0  0  0  0  0  0
    8.2837  -16.6637   22.6236 N   0  0  0  0  0  0  0  0  0  0  0  0
    8.0774  -15.4860   23.3694 C   0  0  1  0  0  0  0  0  0  0  0  0
    6.6703  -15.2286   23.8351 C   0  0  0  0  0  0  0  0  0  0  0  0
    6.5375  -13.9965   24.6729 C   0  0  0  0  0  0  0  0  0  0  0  0
    5.9407  -13.9123   25.8824 C   0  0  0  0  0  0  0  0  0  0  0  0
    5.8592  -12.7060   26.5850 C   0  0  0  0  0  0  0  0  0  0  0  0
    6.4021  -11.5719   26.0298 C   0  0  0  0  0  0  0  0  0  0  0  0
    7.0153  -11.6090   24.8098 C   0  0  0  0  0  0  0  0  0  0  0  0
    7.0731  -12.8042   24.1584 C   0  0  0  0  0  0  0  0  0  0  0  0
    8.9983  -15.2876   24.4935 C   0  0  0  0  0  0  0  0  0  0  0  0
    9.5760  -14.1698   24.5926 O   0  0  0  0  0  0  0  0  0  0  0  0
    9.3759  -14.5065   29.9633 C   0  0  0  0  0  0  0  0  0  0  0  0
   10.2064  -14.5835   28.7077 C   0  0  2  0  0  0  0  0  0  0  0  0
   11.0668  -13.3712   28.5029 C   0  0  0  0  0  0  0  0  0  0  0  0
    9.5175  -15.1194   27.5211 C   0  0  0  0  0  0  0  0  0  0  0  0
   10.2107  -16.0174   26.5942 C   0  0  2  0  0  0  0  0  0  0  0  0
    9.2748  -16.2723   25.4701 N   0  0  0  0  0  0  0  0  0  0  0  0
   10.7955  -17.2535   27.0850 C   0  0  0  0  0  0  0  0  0  0  0  0
   10.3169  -18.5133   26.7632 O   0  0  0  0  0  0  0  0  0  0  0  0
   11.8118  -17.2855   27.8678 O   0  0  0  0  0  0  0  0  0  0  0  0
  2  3  2  0
  2  1  1  0
  4  3  1  0
  5  4  2  0
  6  7  1  0
  6  5  1  0
  7  8  1  6
  9  7  1  0
  9 13  1  0
 10  9  2  0
 11  5  1  0
 11 12  2  0
 12  2  1  0
 14 13  1  0
 14 15  1  1
 16 21  1  0
 16 15  1  0
 17 16  2  0
 18 19  2  0
 18 17  1  0
 19 20  1  0
 20 21  2  0
 22 14  1  0
 23 22  2  0
 25 27  1  0
 25 24  1  1
 26 25  1  0
 28 29  1  0
 28 27  1  1
 29 22  1  0
 30 28  1  0
 31 30  1  0
 32 30  2  0
M  END
$$$$
