YFL.pdb
     RDKit          3D

 32 33  0  0  1  0  0  0  0  0999 V2000
   13.3839  -22.3209   17.1834 O   0  0  0  0  0  0  0  0  0  0  0  0
   13.0816  -21.3272   18.0982 C   0  0  0  0  0  0  0  0  0  0  0  0
   11.9716  -21.4902   18.8984 C   0  0  0  0  0  0  0  0  0  0  0  0
   11.5935  -20.5401   19.8459 C   0  0  0  0  0  0  0  0  0  0  0  0
   12.3790  -19.3978   19.9688 C   0  0  0  0  0  0  0  0  0  0  0  0
   11.9864  -18.3967   20.9629 C   0  0  0  0  0  0  0  0  0  0  0  0
   10.8835  -17.4960   20.4594 C   0  0  2  0  0  0  0  0  0  0  0  0
   11.2855  -16.7454   19.3003 N   0  0  0  0  0  0  0  0  0  0  0  0
   10.5574  -16.5458   21.5552 C   0  0  0  0  0  0  0  0  0  0  0  0
   11.3294  -15.6017   21.8436 O   0  0  0  0  0  0  0  0  0  0  0  0
   13.4870  -19.2125   19.1852 C   0  0  0  0  0  0  0  0  0  0  0  0
   13.8186  -20.1829   18.2621 C   0  0  0  0  0  0  0  0  0  0  0  0
    9.3729  -16.6382   22.3367 N   0  0  0  0  0  0  0  0  0  0  0  0
    8.9802  -15.8016   23.4006 C   0  0  1  0  0  0  0  0  0  0  0  0
    7.5518  -15.3301   23.3870 C   0  0  0  0  0  0  0  0  0  0  0  0
    7.2308  -14.3739   24.4916 C   0  0  0  0  0  0  0  0  0  0  0  0
    6.6368  -14.6792   25.6663 C   0  0  0  0  0  0  0  0  0  0  0  0
    6.3697  -13.7069   26.6352 C   0  0  0  0  0  0  0  0  0  0  0  0
    6.7217  -12.4018   26.3863 C   0  0  0  0  0  0  0  0  0  0  0  0
    7.3245  -12.0463   25.2133 C   0  0  0  0  0  0  0  0  0  0  0  0
    7.5667  -13.0240   24.2960 C   0  0  0  0  0  0  0  0  0  0  0  0
    9.3085  -16.2981   24.7411 C   0  0  0  0  0  0  0  0  0  0  0  0
    8.7241  -17.3422   25.1429 O   0  0  0  0  0  0  0  0  0  0  0  0
   11.8772  -13.6106   27.6411 C   0  0  0  0  0  0  0  0  0  0  0  0
   10.4065  -13.8273   27.8904 C   0  0  2  0  0  0  0  0  0  0  0  0
    9.8575  -12.9266   28.9577 C   0  0  0  0  0  0  0  0  0  0  0  0
    9.9652  -15.2325   27.9129 C   0  0  0  0  0  0  0  0  0  0  0  0
   10.5151  -16.2058   26.9661 C   0  0  2  0  0  0  0  0  0  0  0  0
   10.2393  -15.6777   25.6061 N   0  0  0  0  0  0  0  0  0  0  0  0
   10.1473  -17.6072   27.0730 C   0  0  0  0  0  0  0  0  0  0  0  0
   10.9886  -18.6531   26.7291 O   0  0  0  0  0  0  0  0  0  0  0  0
    9.0013  -18.0006   27.4955 O   0  0  0  0  0  0  0  0  0  0  0  0
  2  3  2  0
  2  1  1  0
  4  3  1  0
  5  4  2  0
  6  7  1  0
  6  5  1  0
  7  8  1  6
  9  7  1  0
  9 13  1  0
 10  9  2  0
 11  5  1  0
 11 12  2  0
 12  2  1  0
 14 13  1  0
 14 15  1  1
 16 21  1  0
 16 15  1  0
 17 16  2  0
 18 19  2  0
 18 17  1  0
 19 20  1  0
 20 21  2  0
 22 14  1  0
 23 22  2  0
 25 27  1  0
 25 24  1  1
 26 25  1  0
 28 29  1  0
 28 27  1  1
 29 22  1  0
 30 28  1  0
 31 30  1  0
 32 30  2  0
M  END
$$$$
