YFL.pdb
     RDKit          3D

 32 33  0  0  1  0  0  0  0  0999 V2000
   12.4253  -22.0466   16.5592 O   0  0  0  0  0  0  0  0  0  0  0  0
   12.2886  -21.0686   17.5290 C   0  0  0  0  0  0  0  0  0  0  0  0
   12.3382  -21.4482   18.8527 C   0  0  0  0  0  0  0  0  0  0  0  0
   12.2097  -20.5301   19.8938 C   0  0  0  0  0  0  0  0  0  0  0  0
   12.0261  -19.1916   19.5595 C   0  0  0  0  0  0  0  0  0  0  0  0
   11.8907  -18.2228   20.6494 C   0  0  0  0  0  0  0  0  0  0  0  0
   11.4550  -16.8645   20.1534 C   0  0  2  0  0  0  0  0  0  0  0  0
   12.5300  -16.1504   19.5186 N   0  0  0  0  0  0  0  0  0  0  0  0
   10.9995  -16.0895   21.3374 C   0  0  0  0  0  0  0  0  0  0  0  0
   11.7981  -15.3789   21.9915 O   0  0  0  0  0  0  0  0  0  0  0  0
   11.9733  -18.7890   18.2515 C   0  0  0  0  0  0  0  0  0  0  0  0
   12.1059  -19.7372   17.2579 C   0  0  0  0  0  0  0  0  0  0  0  0
    9.6554  -16.0989   21.8018 N   0  0  0  0  0  0  0  0  0  0  0  0
    9.1148  -15.3662   22.8773 C   0  0  1  0  0  0  0  0  0  0  0  0
    7.6427  -15.0650   22.8069 C   0  0  0  0  0  0  0  0  0  0  0  0
    7.1394  -14.2819   23.9778 C   0  0  0  0  0  0  0  0  0  0  0  0
    6.4373  -14.7699   25.0242 C   0  0  0  0  0  0  0  0  0  0  0  0
    6.0017  -13.9501   26.0699 C   0  0  0  0  0  0  0  0  0  0  0  0
    6.2961  -12.6080   26.0334 C   0  0  0  0  0  0  0  0  0  0  0  0
    7.0034  -12.0700   24.9961 C   0  0  0  0  0  0  0  0  0  0  0  0
    7.4089  -12.9034   23.9974 C   0  0  0  0  0  0  0  0  0  0  0  0
    9.4348  -15.8846   24.2115 C   0  0  0  0  0  0  0  0  0  0  0  0
    9.5266  -17.1355   24.3518 O   0  0  0  0  0  0  0  0  0  0  0  0
    9.6524  -15.2870   29.9657 C   0  0  0  0  0  0  0  0  0  0  0  0
   10.6277  -14.7176   28.9674 C   0  0  2  0  0  0  0  0  0  0  0  0
   11.4589  -13.6044   29.5346 C   0  0  0  0  0  0  0  0  0  0  0  0
   10.1051  -14.5299   27.6030 C   0  0  0  0  0  0  0  0  0  0  0  0
   10.1405  -15.6245   26.6300 C   0  0  2  0  0  0  0  0  0  0  0  0
    9.6470  -15.0669   25.3455 N   0  0  0  0  0  0  0  0  0  0  0  0
    9.4955  -16.8890   26.9393 C   0  0  0  0  0  0  0  0  0  0  0  0
   10.1706  -18.0034   27.4109 O   0  0  0  0  0  0  0  0  0  0  0  0
    8.2353  -17.0858   26.7983 O   0  0  0  0  0  0  0  0  0  0  0  0
  2  3  2  0
  2  1  1  0
  4  3  1  0
  5  4  2  0
  6  7  1  0
  6  5  1  0
  7  8  1  1
  9  7  1  0
  9 13  1  0
 10  9  2  0
 11  5  1  0
 11 12  2  0
 12  2  1  0
 14 13  1  0
 14 15  1  6
 16 21  1  0
 16 15  1  0
 17 16  2  0
 18 19  2  0
 18 17  1  0
 19 20  1  0
 20 21  2  0
 22 14  1  0
 23 22  2  0
 25 27  1  0
 25 24  1  1
 26 25  1  0
 28 29  1  0
 28 27  1  1
 29 22  1  0
 30 28  1  0
 31 30  1  0
 32 30  2  0
M  END
$$$$
