YFL.pdb
     RDKit          3D

 32 33  0  0  1  0  0  0  0  0999 V2000
   12.4917  -21.9170   16.9848 O   0  0  0  0  0  0  0  0  0  0  0  0
   12.3189  -20.9938   18.0013 C   0  0  0  0  0  0  0  0  0  0  0  0
   11.1246  -20.9935   18.6888 C   0  0  0  0  0  0  0  0  0  0  0  0
   10.8654  -20.0992   19.7263 C   0  0  0  0  0  0  0  0  0  0  0  0
   11.8614  -19.1862   20.0601 C   0  0  0  0  0  0  0  0  0  0  0  0
   11.5943  -18.2447   21.1495 C   0  0  0  0  0  0  0  0  0  0  0  0
   11.0805  -16.9179   20.6427 C   0  0  2  0  0  0  0  0  0  0  0  0
   12.0921  -16.1819   19.9331 N   0  0  0  0  0  0  0  0  0  0  0  0
   10.6578  -16.1281   21.8290 C   0  0  0  0  0  0  0  0  0  0  0  0
   11.5031  -15.6169   22.6002 O   0  0  0  0  0  0  0  0  0  0  0  0
   13.0568  -19.1664   19.3919 C   0  0  0  0  0  0  0  0  0  0  0  0
   13.2640  -20.0727   18.3724 C   0  0  0  0  0  0  0  0  0  0  0  0
    9.2949  -15.9013   22.1659 N   0  0  0  0  0  0  0  0  0  0  0  0
    8.7918  -15.2341   23.3007 C   0  0  1  0  0  0  0  0  0  0  0  0
    7.4523  -14.5677   23.1440 C   0  0  0  0  0  0  0  0  0  0  0  0
    6.9788  -13.8852   24.3880 C   0  0  0  0  0  0  0  0  0  0  0  0
    6.1135  -14.3877   25.2961 C   0  0  0  0  0  0  0  0  0  0  0  0
    5.7239  -13.6633   26.4270 C   0  0  0  0  0  0  0  0  0  0  0  0
    6.2361  -12.4027   26.6217 C   0  0  0  0  0  0  0  0  0  0  0  0
    7.1139  -11.8538   25.7308 C   0  0  0  0  0  0  0  0  0  0  0  0
    7.4674  -12.5929   24.6422 C   0  0  0  0  0  0  0  0  0  0  0  0
    8.7953  -16.0180   24.5403 C   0  0  0  0  0  0  0  0  0  0  0  0
    8.6778  -17.2711   24.4461 O   0  0  0  0  0  0  0  0  0  0  0  0
   11.7492  -14.9975   28.2481 C   0  0  0  0  0  0  0  0  0  0  0  0
   10.3611  -14.4154   28.3301 C   0  0  2  0  0  0  0  0  0  0  0  0
   10.2203  -13.3960   29.4223 C   0  0  0  0  0  0  0  0  0  0  0  0
    9.2572  -15.3776   28.1708 C   0  0  0  0  0  0  0  0  0  0  0  0
    9.2161  -16.2874   27.0233 C   0  0  2  0  0  0  0  0  0  0  0  0
    8.9235  -15.4533   25.8304 N   0  0  0  0  0  0  0  0  0  0  0  0
    8.3680  -17.4663   27.0643 C   0  0  0  0  0  0  0  0  0  0  0  0
    8.6538  -18.5955   27.8148 O   0  0  0  0  0  0  0  0  0  0  0  0
    7.2739  -17.5658   26.4013 O   0  0  0  0  0  0  0  0  0  0  0  0
  2  3  2  0
  2  1  1  0
  4  3  1  0
  5  4  2  0
  6  7  1  0
  6  5  1  0
  7  8  1  1
  9  7  1  0
  9 13  1  0
 10  9  2  0
 11  5  1  0
 11 12  2  0
 12  2  1  0
 14 13  1  0
 14 15  1  6
 16 21  1  0
 16 15  1  0
 17 16  2  0
 18 19  2  0
 18 17  1  0
 19 20  1  0
 20 21  2  0
 22 14  1  0
 23 22  2  0
 25 27  1  0
 25 24  1  1
 26 25  1  0
 28 29  1  0
 28 27  1  1
 29 22  1  0
 30 28  1  0
 31 30  1  0
 32 30  2  0
M  END
$$$$
