YFL.pdb
     RDKit          3D

 32 33  0  0  1  0  0  0  0  0999 V2000
    6.6557  -14.1228   16.1324 O   0  0  0  0  0  0  0  0  0  0  0  0
    7.7370  -14.3779   16.9576 C   0  0  0  0  0  0  0  0  0  0  0  0
    8.2291  -13.3473   17.7289 C   0  0  0  0  0  0  0  0  0  0  0  0
    9.3144  -13.5153   18.5875 C   0  0  0  0  0  0  0  0  0  0  0  0
    9.9034  -14.7747   18.6503 C   0  0  0  0  0  0  0  0  0  0  0  0
   11.0437  -14.9566   19.5509 C   0  0  0  0  0  0  0  0  0  0  0  0
   10.8721  -16.1564   20.4522 C   0  0  2  0  0  0  0  0  0  0  0  0
    9.7955  -17.0069   20.0208 N   0  0  0  0  0  0  0  0  0  0  0  0
   10.5610  -15.6435   21.8124 C   0  0  0  0  0  0  0  0  0  0  0  0
   11.3751  -14.9205   22.4327 O   0  0  0  0  0  0  0  0  0  0  0  0
    9.4329  -15.8151   17.8938 C   0  0  0  0  0  0  0  0  0  0  0  0
    8.3559  -15.5969   17.0595 C   0  0  0  0  0  0  0  0  0  0  0  0
    9.3448  -15.9302   22.4913 N   0  0  0  0  0  0  0  0  0  0  0  0
    8.9429  -15.4706   23.7614 C   0  0  1  0  0  0  0  0  0  0  0  0
    7.4908  -15.1077   23.9114 C   0  0  0  0  0  0  0  0  0  0  0  0
    7.2567  -13.9690   24.8526 C   0  0  0  0  0  0  0  0  0  0  0  0
    7.7724  -12.7244   24.7461 C   0  0  0  0  0  0  0  0  0  0  0  0
    7.4999  -11.7275   25.6881 C   0  0  0  0  0  0  0  0  0  0  0  0
    6.6832  -12.0211   26.7540 C   0  0  0  0  0  0  0  0  0  0  0  0
    6.1392  -13.2651   26.9028 C   0  0  0  0  0  0  0  0  0  0  0  0
    6.4300  -14.2076   25.9630 C   0  0  0  0  0  0  0  0  0  0  0  0
    9.3444  -16.3178   24.8893 C   0  0  0  0  0  0  0  0  0  0  0  0
    9.5131  -17.5494   24.6712 O   0  0  0  0  0  0  0  0  0  0  0  0
    9.8303  -13.9065   29.9580 C   0  0  0  0  0  0  0  0  0  0  0  0
   10.2370  -14.5722   28.6683 C   0  0  2  0  0  0  0  0  0  0  0  0
   10.0103  -13.7023   27.4667 C   0  0  0  0  0  0  0  0  0  0  0  0
    9.8680  -15.9926   28.5414 C   0  0  0  0  0  0  0  0  0  0  0  0
   10.0765  -16.7112   27.2819 C   0  0  2  0  0  0  0  0  0  0  0  0
    9.5539  -15.8361   26.2023 N   0  0  0  0  0  0  0  0  0  0  0  0
    9.5934  -18.0738   27.1375 C   0  0  0  0  0  0  0  0  0  0  0  0
    8.4448  -18.4144   26.4415 O   0  0  0  0  0  0  0  0  0  0  0  0
   10.1917  -19.0873   27.6489 O   0  0  0  0  0  0  0  0  0  0  0  0
  2  3  2  0
  2  1  1  0
  4  3  1  0
  5  4  2  0
  6  7  1  0
  6  5  1  0
  7  8  1  6
  9  7  1  0
  9 13  1  0
 10  9  2  0
 11  5  1  0
 11 12  2  0
 12  2  1  0
 14 13  1  0
 14 15  1  6
 16 21  1  0
 16 15  1  0
 17 16  2  0
 18 19  2  0
 18 17  1  0
 19 20  1  0
 20 21  2  0
 22 14  1  0
 23 22  2  0
 25 27  1  0
 25 24  1  1
 26 25  1  0
 28 29  1  0
 28 27  1  1
 29 22  1  0
 30 28  1  0
 31 30  1  0
 32 30  2  0
M  END
$$$$
