MEL.pdb
     RDKit          3D

 26 25  0  0  1  0  0  0  0  0999 V2000
   17.2113  -22.1057  -17.4798 C   0  0  0  0  0  0  0  0  0  0  0  0
   17.3544  -20.4030  -16.8562 S   0  0  0  0  0  0  0  0  0  0  0  0
   19.1126  -19.9580  -16.8429 C   0  0  0  0  0  0  0  0  0  0  0  0
   19.8445  -21.0061  -16.0297 C   0  0  0  0  0  0  0  0  0  0  0  0
   20.6191  -21.9519  -16.9432 C   0  0  2  0  0  0  0  0  0  0  0  0
   19.9705  -23.2403  -16.7998 N   0  0  0  0  0  0  0  0  0  0  0  0
   22.0082  -21.9951  -16.3694 C   0  0  0  0  0  0  0  0  0  0  0  0
   22.2813  -22.7050  -15.3692 O   0  0  0  0  0  0  0  0  0  0  0  0
   23.0733  -21.2390  -16.9272 N   0  0  0  0  0  0  0  0  0  0  0  0
   24.3922  -21.3730  -16.4038 C   0  0  1  0  0  0  0  0  0  0  0  0
   25.4406  -21.1071  -17.4386 C   0  0  0  0  0  0  0  0  0  0  0  0
   26.8322  -21.3072  -17.0013 C   0  0  0  0  0  0  0  0  0  0  0  0
   27.3235  -22.6941  -16.9526 C   0  0  0  0  0  0  0  0  0  0  0  0
   27.9802  -23.1549  -16.0008 O   0  0  0  0  0  0  0  0  0  0  0  0
   24.6640  -20.4596  -15.2632 C   0  0  0  0  0  0  0  0  0  0  0  0
   24.1807  -19.3092  -15.1535 O   0  0  0  0  0  0  0  0  0  0  0  0
   27.0526  -23.5609  -18.0171 O   0  0  0  0  0  0  0  0  0  0  0  0
   25.5216  -21.5393   -9.5633 C   0  0  0  0  0  0  0  0  0  0  0  0
   25.5946  -20.3598  -10.5806 C   0  0  1  0  0  0  0  0  0  0  0  0
   26.8761  -19.6342  -10.2181 C   0  0  0  0  0  0  0  0  0  0  0  0
   25.6512  -20.9739  -11.9212 C   0  0  0  0  0  0  0  0  0  0  0  0
   25.9207  -20.0875  -13.0914 C   0  0  2  0  0  0  0  0  0  0  0  0
   25.5268  -20.9485  -14.2516 N   0  0  0  0  0  0  0  0  0  0  0  0
   27.3057  -19.7463  -13.3407 C   0  0  0  0  0  0  0  0  0  0  0  0
   28.0955  -20.5568  -13.8779 O   0  0  0  0  0  0  0  0  0  0  0  0
   27.8248  -18.5112  -13.0087 O   0  0  0  0  0  0  0  0  0  0  0  0
  2  1  1  0
  3  2  1  0
  4  3  1  0
  5  7  1  0
  5  4  1  0
  5  6  1  1
  7  9  1  0
  7  8  2  0
  9 10  1  0
 10 11  1  6
 11 12  1  0
 12 13  1  0
 13 17  1  0
 14 13  2  0
 15 10  1  0
 16 15  2  0
 19 18  1  1
 19 21  1  0
 20 19  1  0
 22 21  1  1
 22 24  1  0
 22 23  1  0
 23 15  1  0
 24 26  1  0
 25 24  2  0
M  END
$$$$
