MEL.pdb
     RDKit          3D

 26 25  0  0  1  0  0  0  0  0999 V2000
   18.9193  -22.3230  -10.1719 C   0  0  0  0  0  0  0  0  0  0  0  0
   18.9434  -21.3842  -11.7297 S   0  0  0  0  0  0  0  0  0  0  0  0
   20.6599  -21.3090  -12.3109 C   0  0  0  0  0  0  0  0  0  0  0  0
   21.5592  -21.3696  -11.0931 C   0  0  0  0  0  0  0  0  0  0  0  0
   22.4905  -20.1612  -11.0512 C   0  0  2  0  0  0  0  0  0  0  0  0
   22.7615  -19.8378  -12.4380 N   0  0  0  0  0  0  0  0  0  0  0  0
   23.7378  -20.6555  -10.3726 C   0  0  0  0  0  0  0  0  0  0  0  0
   23.7005  -21.1626   -9.2235 O   0  0  0  0  0  0  0  0  0  0  0  0
   25.0122  -20.5730  -10.9943 N   0  0  0  0  0  0  0  0  0  0  0  0
   26.1843  -20.9290  -10.2659 C   0  0  1  0  0  0  0  0  0  0  0  0
   27.4186  -20.8530  -11.1092 C   0  0  0  0  0  0  0  0  0  0  0  0
   27.4233  -21.7054  -12.3097 C   0  0  0  0  0  0  0  0  0  0  0  0
   28.4212  -21.3931  -13.3460 C   0  0  0  0  0  0  0  0  0  0  0  0
   28.5615  -22.0632  -14.3856 O   0  0  0  0  0  0  0  0  0  0  0  0
   26.4161  -20.0697   -9.0754 C   0  0  0  0  0  0  0  0  0  0  0  0
   26.0872  -18.8632   -9.0048 O   0  0  0  0  0  0  0  0  0  0  0  0
   29.2684  -20.2919  -13.1800 O   0  0  0  0  0  0  0  0  0  0  0  0
   27.9008  -21.9164   -3.5310 C   0  0  0  0  0  0  0  0  0  0  0  0
   27.5421  -20.6207   -4.3210 C   0  0  1  0  0  0  0  0  0  0  0  0
   28.5376  -19.5919   -3.8205 C   0  0  0  0  0  0  0  0  0  0  0  0
   27.7298  -20.9427   -5.7488 C   0  0  0  0  0  0  0  0  0  0  0  0
   27.4254  -19.8838   -6.7557 C   0  0  2  0  0  0  0  0  0  0  0  0
   27.0502  -20.6816   -7.9662 N   0  0  0  0  0  0  0  0  0  0  0  0
   28.5364  -19.0615   -7.1875 C   0  0  0  0  0  0  0  0  0  0  0  0
   29.3307  -19.4450   -8.0772 O   0  0  0  0  0  0  0  0  0  0  0  0
   28.7729  -17.8125   -6.6498 O   0  0  0  0  0  0  0  0  0  0  0  0
  2  1  1  0
  3  2  1  0
  4  3  1  0
  5  7  1  0
  5  4  1  0
  5  6  1  6
  7  9  1  0
  7  8  2  0
  9 10  1  0
 10 11  1  6
 11 12  1  0
 12 13  1  0
 13 17  1  0
 14 13  2  0
 15 10  1  0
 16 15  2  0
 19 18  1  1
 19 21  1  0
 20 19  1  0
 22 21  1  1
 22 24  1  0
 22 23  1  0
 23 15  1  0
 24 26  1  0
 25 24  2  0
M  END
$$$$
