MEL.pdb
     RDKit          3D

 26 25  0  0  1  0  0  0  0  0999 V2000
   18.1502  -23.9062   -4.0745 C   0  0  0  0  0  0  0  0  0  0  0  0
   17.5889  -25.2940   -3.0413 S   0  0  0  0  0  0  0  0  0  0  0  0
   15.8341  -25.0353   -2.6623 C   0  0  0  0  0  0  0  0  0  0  0  0
   15.7560  -24.1853   -1.4106 C   0  0  0  0  0  0  0  0  0  0  0  0
   14.3193  -23.7406   -1.1509 C   0  0  2  0  0  0  0  0  0  0  0  0
   14.0314  -22.7564   -2.1755 N   0  0  0  0  0  0  0  0  0  0  0  0
   14.3522  -23.0937    0.2060 C   0  0  0  0  0  0  0  0  0  0  0  0
   13.9518  -21.9153    0.3790 O   0  0  0  0  0  0  0  0  0  0  0  0
   14.8357  -23.7798    1.3518 N   0  0  0  0  0  0  0  0  0  0  0  0
   14.7861  -23.1529    2.6308 C   0  0  1  0  0  0  0  0  0  0  0  0
   14.7887  -24.1484    3.7486 C   0  0  0  0  0  0  0  0  0  0  0  0
   13.6813  -25.1187    3.7398 C   0  0  0  0  0  0  0  0  0  0  0  0
   13.9354  -26.4269    4.3653 C   0  0  0  0  0  0  0  0  0  0  0  0
   15.0418  -26.7616    4.8274 O   0  0  0  0  0  0  0  0  0  0  0  0
   15.9219  -22.2247    2.8712 C   0  0  0  0  0  0  0  0  0  0  0  0
   17.0859  -22.4142    2.4491 O   0  0  0  0  0  0  0  0  0  0  0  0
   12.8981  -27.3613    4.4590 O   0  0  0  0  0  0  0  0  0  0  0  0
   15.9943  -17.0471    1.6077 C   0  0  0  0  0  0  0  0  0  0  0  0
   16.6355  -18.4313    1.9310 C   0  0  1  0  0  0  0  0  0  0  0  0
   18.1282  -18.1638    1.9118 C   0  0  0  0  0  0  0  0  0  0  0  0
   16.1452  -18.8105    3.2701 C   0  0  0  0  0  0  0  0  0  0  0  0
   16.7029  -20.0425    3.9018 C   0  0  2  0  0  0  0  0  0  0  0  0
   15.6397  -21.0608    3.6278 N   0  0  0  0  0  0  0  0  0  0  0  0
   16.8353  -20.0284    5.3437 C   0  0  0  0  0  0  0  0  0  0  0  0
   15.9088  -20.4165    6.0923 O   0  0  0  0  0  0  0  0  0  0  0  0
   17.9885  -19.5965    5.9671 O   0  0  0  0  0  0  0  0  0  0  0  0
  2  1  1  0
  3  2  1  0
  4  3  1  0
  5  7  1  0
  5  4  1  0
  5  6  1  6
  7  9  1  0
  7  8  2  0
  9 10  1  0
 10 11  1  1
 11 12  1  0
 12 13  1  0
 13 17  1  0
 14 13  2  0
 15 10  1  0
 16 15  2  0
 19 18  1  1
 19 21  1  0
 20 19  1  0
 22 21  1  1
 22 24  1  0
 22 23  1  0
 23 15  1  0
 24 26  1  0
 25 24  2  0
M  END
$$$$
