MEL.pdb
     RDKit          3D

 26 25  0  0  1  0  0  0  0  0999 V2000
   13.4824  -22.3004    3.6541 C   0  0  0  0  0  0  0  0  0  0  0  0
   12.9221  -20.6205    3.2390 S   0  0  0  0  0  0  0  0  0  0  0  0
   14.3814  -19.6361    2.8014 C   0  0  0  0  0  0  0  0  0  0  0  0
   14.8809  -18.9696    4.0670 C   0  0  0  0  0  0  0  0  0  0  0  0
   16.1346  -18.1468    3.7831 C   0  0  2  0  0  0  0  0  0  0  0  0
   17.1260  -19.1026    3.3304 N   0  0  0  0  0  0  0  0  0  0  0  0
   16.5295  -17.5690    5.1137 C   0  0  0  0  0  0  0  0  0  0  0  0
   15.7704  -16.7867    5.7388 O   0  0  0  0  0  0  0  0  0  0  0  0
   17.7738  -17.8777    5.7252 N   0  0  0  0  0  0  0  0  0  0  0  0
   18.0836  -17.3533    7.0137 C   0  0  1  0  0  0  0  0  0  0  0  0
   18.4449  -18.4291    7.9897 C   0  0  0  0  0  0  0  0  0  0  0  0
   17.3140  -19.0569    8.6932 C   0  0  0  0  0  0  0  0  0  0  0  0
   17.1852  -20.5188    8.5779 C   0  0  0  0  0  0  0  0  0  0  0  0
   17.9909  -21.2298    7.9494 O   0  0  0  0  0  0  0  0  0  0  0  0
   19.2111  -16.3850    6.9951 C   0  0  0  0  0  0  0  0  0  0  0  0
   20.2492  -16.5281    6.3090 O   0  0  0  0  0  0  0  0  0  0  0  0
   16.1118  -21.1690    9.1968 O   0  0  0  0  0  0  0  0  0  0  0  0
   18.3749  -11.1872    6.3049 C   0  0  0  0  0  0  0  0  0  0  0  0
   19.1270  -12.5515    6.2391 C   0  0  1  0  0  0  0  0  0  0  0  0
   20.3872  -12.2445    5.4532 C   0  0  0  0  0  0  0  0  0  0  0  0
   19.4097  -12.9347    7.6358 C   0  0  0  0  0  0  0  0  0  0  0  0
   20.1559  -14.2039    7.8809 C   0  0  2  0  0  0  0  0  0  0  0  0
   19.0743  -15.2374    7.8144 N   0  0  0  0  0  0  0  0  0  0  0  0
   20.7410  -14.3683    9.1952 C   0  0  0  0  0  0  0  0  0  0  0  0
   21.8341  -13.8370    9.4989 O   0  0  0  0  0  0  0  0  0  0  0  0
   20.1229  -15.1091   10.1823 O   0  0  0  0  0  0  0  0  0  0  0  0
  2  1  1  0
  3  2  1  0
  4  3  1  0
  5  7  1  0
  5  4  1  0
  5  6  1  1
  7  9  1  0
  7  8  2  0
  9 10  1  0
 10 11  1  1
 11 12  1  0
 12 13  1  0
 13 17  1  0
 14 13  2  0
 15 10  1  0
 16 15  2  0
 19 18  1  1
 19 21  1  0
 20 19  1  0
 22 21  1  1
 22 24  1  0
 22 23  1  0
 23 15  1  0
 24 26  1  0
 25 24  2  0
M  END
$$$$
