MEL.pdb
     RDKit          3D

 26 25  0  0  1  0  0  0  0  0999 V2000
   14.9437  -15.3360  -16.3935 C   0  0  0  0  0  0  0  0  0  0  0  0
   15.3701  -13.7324  -15.6485 S   0  0  0  0  0  0  0  0  0  0  0  0
   16.9307  -13.9321  -14.7460 C   0  0  0  0  0  0  0  0  0  0  0  0
   17.2767  -12.5932  -14.1271 C   0  0  0  0  0  0  0  0  0  0  0  0
   17.5505  -11.5541  -15.2108 C   0  0  2  0  0  0  0  0  0  0  0  0
   18.8332  -11.9206  -15.7781 N   0  0  0  0  0  0  0  0  0  0  0  0
   17.6539  -10.2458  -14.4772 C   0  0  0  0  0  0  0  0  0  0  0  0
   17.9227  -10.2029  -13.2505 O   0  0  0  0  0  0  0  0  0  0  0  0
   17.4532   -9.0015  -15.1320 N   0  0  0  0  0  0  0  0  0  0  0  0
   17.3646   -7.8012  -14.3686 C   0  0  1  0  0  0  0  0  0  0  0  0
   17.3423   -6.5808  -15.2350 C   0  0  0  0  0  0  0  0  0  0  0  0
   17.2667   -5.2948  -14.5219 C   0  0  0  0  0  0  0  0  0  0  0  0
   18.3808   -4.3538  -14.7231 C   0  0  0  0  0  0  0  0  0  0  0  0
   19.3601   -4.5977  -15.4519 O   0  0  0  0  0  0  0  0  0  0  0  0
   16.1557   -7.7453  -13.5056 C   0  0  0  0  0  0  0  0  0  0  0  0
   15.0496   -8.2467  -13.8122 O   0  0  0  0  0  0  0  0  0  0  0  0
   18.3640   -3.1141  -14.0745 O   0  0  0  0  0  0  0  0  0  0  0  0
   13.9172   -8.0881   -8.6851 C   0  0  0  0  0  0  0  0  0  0  0  0
   14.7856   -6.8046   -8.8580 C   0  0  1  0  0  0  0  0  0  0  0  0
   15.5557   -6.6979   -7.5559 C   0  0  0  0  0  0  0  0  0  0  0  0
   15.6643   -7.0539  -10.0169 C   0  0  0  0  0  0  0  0  0  0  0  0
   15.1074   -6.8323  -11.3839 C   0  0  2  0  0  0  0  0  0  0  0  0
   16.2938   -7.0770  -12.2642 N   0  0  0  0  0  0  0  0  0  0  0  0
   14.6862   -5.4837  -11.7014 C   0  0  0  0  0  0  0  0  0  0  0  0
   15.5102   -4.5969  -12.0236 O   0  0  0  0  0  0  0  0  0  0  0  0
   13.3584   -5.1079  -11.6745 O   0  0  0  0  0  0  0  0  0  0  0  0
  2  1  1  0
  3  2  1  0
  4  3  1  0
  5  7  1  0
  5  4  1  0
  5  6  1  1
  7  9  1  0
  7  8  2  0
  9 10  1  0
 10 11  1  6
 11 12  1  0
 12 13  1  0
 13 17  1  0
 14 13  2  0
 15 10  1  0
 16 15  2  0
 19 18  1  1
 19 21  1  0
 20 19  1  0
 22 21  1  1
 22 24  1  0
 22 23  1  0
 23 15  1  0
 24 26  1  0
 25 24  2  0
M  END
$$$$
