MEL.pdb
     RDKit          3D

 26 25  0  0  1  0  0  0  0  0999 V2000
   22.3711  -16.8751  -19.5636 C   0  0  0  0  0  0  0  0  0  0  0  0
   23.8921  -17.8710  -19.5064 S   0  0  0  0  0  0  0  0  0  0  0  0
   25.1760  -16.9853  -20.4321 C   0  0  0  0  0  0  0  0  0  0  0  0
   25.0789  -15.5193  -20.0621 C   0  0  0  0  0  0  0  0  0  0  0  0
   25.3324  -14.6384  -21.2823 C   0  0  2  0  0  0  0  0  0  0  0  0
   26.7355  -14.8174  -21.5995 N   0  0  0  0  0  0  0  0  0  0  0  0
   25.0749  -13.2349  -20.8083 C   0  0  0  0  0  0  0  0  0  0  0  0
   25.8691  -12.6513  -20.0289 O   0  0  0  0  0  0  0  0  0  0  0  0
   23.9268  -12.5050  -21.2163 N   0  0  0  0  0  0  0  0  0  0  0  0
   23.6973  -11.1945  -20.7051 C   0  0  1  0  0  0  0  0  0  0  0  0
   22.4969  -10.5488  -21.3236 C   0  0  0  0  0  0  0  0  0  0  0  0
   21.1950  -10.9779  -20.7863 C   0  0  0  0  0  0  0  0  0  0  0  0
   20.0806  -10.0222  -20.8951 C   0  0  0  0  0  0  0  0  0  0  0  0
   20.1839   -8.9092  -21.4429 O   0  0  0  0  0  0  0  0  0  0  0  0
   23.4962  -11.1684  -19.2326 C   0  0  0  0  0  0  0  0  0  0  0  0
   22.8623  -12.0401  -18.5943 O   0  0  0  0  0  0  0  0  0  0  0  0
   18.8296  -10.3560  -20.3644 O   0  0  0  0  0  0  0  0  0  0  0  0
   24.9530  -11.3000  -14.4312 C   0  0  0  0  0  0  0  0  0  0  0  0
   25.6306  -10.0887  -15.1419 C   0  0  1  0  0  0  0  0  0  0  0  0
   27.1058  -10.2516  -14.8301 C   0  0  0  0  0  0  0  0  0  0  0  0
   25.3360  -10.2367  -16.5802 C   0  0  0  0  0  0  0  0  0  0  0  0
   23.9446   -9.9631  -17.0462 C   0  0  2  0  0  0  0  0  0  0  0  0
   24.0694  -10.0774  -18.5341 N   0  0  0  0  0  0  0  0  0  0  0  0
   23.4372   -8.6255  -16.8218 C   0  0  0  0  0  0  0  0  0  0  0  0
   23.6662   -7.6926  -17.6259 O   0  0  0  0  0  0  0  0  0  0  0  0
   22.6698   -8.3111  -15.7185 O   0  0  0  0  0  0  0  0  0  0  0  0
  2  1  1  0
  3  2  1  0
  4  3  1  0
  5  7  1  0
  5  4  1  0
  5  6  1  1
  7  9  1  0
  7  8  2  0
  9 10  1  0
 10 11  1  6
 11 12  1  0
 12 13  1  0
 13 17  1  0
 14 13  2  0
 15 10  1  0
 16 15  2  0
 19 18  1  1
 19 21  1  0
 20 19  1  0
 22 21  1  1
 22 24  1  0
 22 23  1  0
 23 15  1  0
 24 26  1  0
 25 24  2  0
M  END
$$$$
