MEL.pdb
     RDKit          3D

 26 25  0  0  1  0  0  0  0  0999 V2000
   26.5724  -16.5639  -14.2969 C   0  0  0  0  0  0  0  0  0  0  0  0
   27.2817  -15.8636  -15.8184 S   0  0  0  0  0  0  0  0  0  0  0  0
   27.6729  -17.2369  -16.9369 C   0  0  0  0  0  0  0  0  0  0  0  0
   26.7847  -18.4042  -16.5574 C   0  0  0  0  0  0  0  0  0  0  0  0
   27.0413  -19.5963  -17.4752 C   0  0  2  0  0  0  0  0  0  0  0  0
   26.7113  -19.1318  -18.8082 N   0  0  0  0  0  0  0  0  0  0  0  0
   26.0649  -20.6483  -17.0277 C   0  0  0  0  0  0  0  0  0  0  0  0
   24.8537  -20.6003  -17.3588 O   0  0  0  0  0  0  0  0  0  0  0  0
   26.4624  -21.7415  -16.2126 N   0  0  0  0  0  0  0  0  0  0  0  0
   25.4836  -22.6459  -15.7073 C   0  0  1  0  0  0  0  0  0  0  0  0
   25.9576  -24.0654  -15.7356 C   0  0  0  0  0  0  0  0  0  0  0  0
   26.2207  -24.6225  -17.0728 C   0  0  0  0  0  0  0  0  0  0  0  0
   26.6677  -26.0237  -17.1357 C   0  0  0  0  0  0  0  0  0  0  0  0
   26.9153  -26.6162  -18.2021 O   0  0  0  0  0  0  0  0  0  0  0  0
   25.0804  -22.3487  -14.3079 C   0  0  0  0  0  0  0  0  0  0  0  0
   25.7668  -22.6409  -13.3017 O   0  0  0  0  0  0  0  0  0  0  0  0
   26.8315  -26.7507  -15.9514 O   0  0  0  0  0  0  0  0  0  0  0  0
   26.3617  -19.2044  -11.4634 C   0  0  0  0  0  0  0  0  0  0  0  0
   25.5558  -20.5250  -11.6578 C   0  0  1  0  0  0  0  0  0  0  0  0
   25.2130  -20.9633  -10.2470 C   0  0  0  0  0  0  0  0  0  0  0  0
   24.3606  -20.1669  -12.4457 C   0  0  0  0  0  0  0  0  0  0  0  0
   23.3849  -21.2471  -12.7762 C   0  0  2  0  0  0  0  0  0  0  0  0
   23.8371  -21.6928  -14.1324 N   0  0  0  0  0  0  0  0  0  0  0  0
   22.0075  -20.8413  -12.9631 C   0  0  0  0  0  0  0  0  0  0  0  0
   21.5262  -20.6569  -14.1049 O   0  0  0  0  0  0  0  0  0  0  0  0
   21.1528  -20.6455  -11.8972 O   0  0  0  0  0  0  0  0  0  0  0  0
  2  1  1  0
  3  2  1  0
  4  3  1  0
  5  7  1  0
  5  4  1  0
  5  6  1  6
  7  9  1  0
  7  8  2  0
  9 10  1  0
 10 11  1  1
 11 12  1  0
 12 13  1  0
 13 17  1  0
 14 13  2  0
 15 10  1  0
 16 15  2  0
 19 18  1  1
 19 21  1  0
 20 19  1  0
 22 21  1  6
 22 24  1  0
 22 23  1  0
 23 15  1  0
 24 26  1  0
 25 24  2  0
M  END
$$$$
