MEL.pdb
     RDKit          3D

 26 25  0  0  1  0  0  0  0  0999 V2000
   27.6813  -12.1422  -15.0267 C   0  0  0  0  0  0  0  0  0  0  0  0
   27.5776  -12.6142  -16.7803 S   0  0  0  0  0  0  0  0  0  0  0  0
   25.8790  -13.1556  -17.1143 C   0  0  0  0  0  0  0  0  0  0  0  0
   24.9751  -11.9493  -16.9617 C   0  0  0  0  0  0  0  0  0  0  0  0
   23.5237  -12.3248  -17.2478 C   0  0  2  0  0  0  0  0  0  0  0  0
   23.5086  -12.7749  -18.6256 N   0  0  0  0  0  0  0  0  0  0  0  0
   22.7550  -11.0405  -17.1052 C   0  0  0  0  0  0  0  0  0  0  0  0
   22.7799  -10.1599  -18.0012 O   0  0  0  0  0  0  0  0  0  0  0  0
   21.9679  -10.7619  -15.9562 N   0  0  0  0  0  0  0  0  0  0  0  0
   21.1639   -9.5859  -15.9118 C   0  0  1  0  0  0  0  0  0  0  0  0
   19.8734   -9.8105  -15.1875 C   0  0  0  0  0  0  0  0  0  0  0  0
   18.9071  -10.6902  -15.8658 C   0  0  0  0  0  0  0  0  0  0  0  0
   17.6235  -10.9229  -15.1836 C   0  0  0  0  0  0  0  0  0  0  0  0
   16.7530  -11.7038  -15.6102 O   0  0  0  0  0  0  0  0  0  0  0  0
   21.8410   -8.4396  -15.2508 C   0  0  0  0  0  0  0  0  0  0  0  0
   22.5573   -8.5410  -14.2283 O   0  0  0  0  0  0  0  0  0  0  0  0
   17.3410  -10.2452  -13.9924 O   0  0  0  0  0  0  0  0  0  0  0  0
   25.0479   -4.3694  -17.5366 C   0  0  0  0  0  0  0  0  0  0  0  0
   24.1218   -4.4019  -16.2826 C   0  0  1  0  0  0  0  0  0  0  0  0
   23.3513   -3.0976  -16.3548 C   0  0  0  0  0  0  0  0  0  0  0  0
   23.2520   -5.5832  -16.4424 C   0  0  0  0  0  0  0  0  0  0  0  0
   22.3554   -5.9564  -15.3089 C   0  0  2  0  0  0  0  0  0  0  0  0
   21.6461   -7.1648  -15.8371 N   0  0  0  0  0  0  0  0  0  0  0  0
   21.2977   -5.0221  -14.9845 C   0  0  0  0  0  0  0  0  0  0  0  0
   21.4380   -4.1554  -14.0909 O   0  0  0  0  0  0  0  0  0  0  0  0
   20.0866   -5.0313  -15.6464 O   0  0  0  0  0  0  0  0  0  0  0  0
  2  1  1  0
  3  2  1  0
  4  3  1  0
  5  7  1  0
  5  4  1  0
  5  6  1  6
  7  9  1  0
  7  8  2  0
  9 10  1  0
 10 11  1  1
 11 12  1  0
 12 13  1  0
 13 17  1  0
 14 13  2  0
 15 10  1  0
 16 15  2  0
 19 18  1  6
 19 21  1  0
 20 19  1  0
 22 21  1  6
 22 24  1  0
 22 23  1  0
 23 15  1  0
 24 26  1  0
 25 24  2  0
M  END
$$$$
