MEL.pdb
     RDKit          3D

 26 25  0  0  1  0  0  0  0  0999 V2000
   26.9326  -10.2558  -15.2509 C   0  0  0  0  0  0  0  0  0  0  0  0
   27.2753  -11.4952  -16.5374 S   0  0  0  0  0  0  0  0  0  0  0  0
   25.7287  -11.8197  -17.4277 C   0  0  0  0  0  0  0  0  0  0  0  0
   24.7993  -12.5509  -16.4805 C   0  0  0  0  0  0  0  0  0  0  0  0
   23.4457  -12.7998  -17.1400 C   0  0  2  0  0  0  0  0  0  0  0  0
   23.7513  -13.2827  -18.4722 N   0  0  0  0  0  0  0  0  0  0  0  0
   22.7920  -11.4474  -17.2074 C   0  0  0  0  0  0  0  0  0  0  0  0
   23.0889  -10.6211  -18.1063 O   0  0  0  0  0  0  0  0  0  0  0  0
   21.8127  -11.0405  -16.2626 N   0  0  0  0  0  0  0  0  0  0  0  0
   21.1827   -9.7687  -16.3929 C   0  0  1  0  0  0  0  0  0  0  0  0
   19.8126   -9.7523  -15.7903 C   0  0  0  0  0  0  0  0  0  0  0  0
   19.0048   -8.5553  -16.0774 C   0  0  0  0  0  0  0  0  0  0  0  0
   17.6452   -8.5170  -15.5142 C   0  0  0  0  0  0  0  0  0  0  0  0
   17.2388   -7.6080  -14.7672 O   0  0  0  0  0  0  0  0  0  0  0  0
   21.9519   -8.6674  -15.7566 C   0  0  0  0  0  0  0  0  0  0  0  0
   22.6570   -8.8043  -14.7304 O   0  0  0  0  0  0  0  0  0  0  0  0
   16.7423   -9.5419  -15.8179 O   0  0  0  0  0  0  0  0  0  0  0  0
   24.7558   -4.1627  -16.4757 C   0  0  0  0  0  0  0  0  0  0  0  0
   23.2353   -3.9396  -16.7397 C   0  0  1  0  0  0  0  0  0  0  0  0
   23.1964   -3.0779  -17.9871 C   0  0  0  0  0  0  0  0  0  0  0  0
   22.6535   -5.2781  -16.9576 C   0  0  0  0  0  0  0  0  0  0  0  0
   22.5665   -6.2067  -15.7922 C   0  0  2  0  0  0  0  0  0  0  0  0
   21.8631   -7.3946  -16.3722 N   0  0  0  0  0  0  0  0  0  0  0  0
   21.7281   -5.7856  -14.6892 C   0  0  0  0  0  0  0  0  0  0  0  0
   22.2059   -5.2156  -13.6811 O   0  0  0  0  0  0  0  0  0  0  0  0
   20.3618   -5.9814  -14.6942 O   0  0  0  0  0  0  0  0  0  0  0  0
  2  1  1  0
  3  2  1  0
  4  3  1  0
  5  7  1  0
  5  4  1  0
  5  6  1  6
  7  9  1  0
  7  8  2  0
  9 10  1  0
 10 11  1  1
 11 12  1  0
 12 13  1  0
 13 17  1  0
 14 13  2  0
 15 10  1  0
 16 15  2  0
 19 18  1  6
 19 21  1  0
 20 19  1  0
 22 21  1  6
 22 24  1  0
 22 23  1  0
 23 15  1  0
 24 26  1  0
 25 24  2  0
M  END
$$$$
