MEL.pdb
     RDKit          3D

 26 25  0  0  1  0  0  0  0  0999 V2000
   22.2231  -18.5150  -20.7224 C   0  0  0  0  0  0  0  0  0  0  0  0
   20.5444  -17.8884  -21.0351 S   0  0  0  0  0  0  0  0  0  0  0  0
   20.5962  -16.0779  -20.9394 C   0  0  0  0  0  0  0  0  0  0  0  0
   21.9401  -15.6879  -20.3585 C   0  0  0  0  0  0  0  0  0  0  0  0
   21.7813  -15.1811  -18.9277 C   0  0  2  0  0  0  0  0  0  0  0  0
   20.4195  -15.5085  -18.5540 N   0  0  0  0  0  0  0  0  0  0  0  0
   21.9576  -13.6909  -19.0217 C   0  0  0  0  0  0  0  0  0  0  0  0
   23.0426  -13.1829  -19.4007 O   0  0  0  0  0  0  0  0  0  0  0  0
   20.9115  -12.7900  -18.6878 N   0  0  0  0  0  0  0  0  0  0  0  0
   21.1635  -11.3877  -18.6530 C   0  0  1  0  0  0  0  0  0  0  0  0
   19.9036  -10.5847  -18.7438 C   0  0  0  0  0  0  0  0  0  0  0  0
   19.3107  -10.4797  -20.0874 C   0  0  0  0  0  0  0  0  0  0  0  0
   18.0960   -9.6584  -20.2184 C   0  0  0  0  0  0  0  0  0  0  0  0
   16.9721  -10.0322  -19.8354 O   0  0  0  0  0  0  0  0  0  0  0  0
   21.8707  -10.9513  -17.4206 C   0  0  0  0  0  0  0  0  0  0  0  0
   21.5824  -11.3468  -16.2676 O   0  0  0  0  0  0  0  0  0  0  0  0
   18.1799   -8.3881  -20.7991 O   0  0  0  0  0  0  0  0  0  0  0  0
   26.0545  -10.4469  -14.6300 C   0  0  0  0  0  0  0  0  0  0  0  0
   26.2073   -9.5112  -15.8680 C   0  0  1  0  0  0  0  0  0  0  0  0
   27.5823   -9.8407  -16.4164 C   0  0  0  0  0  0  0  0  0  0  0  0
   25.1232   -9.8786  -16.7992 C   0  0  0  0  0  0  0  0  0  0  0  0
   23.7213   -9.5347  -16.4193 C   0  0  2  0  0  0  0  0  0  0  0  0
   22.9334  -10.0305  -17.5922 N   0  0  0  0  0  0  0  0  0  0  0  0
   23.4010   -8.1253  -16.3308 C   0  0  0  0  0  0  0  0  0  0  0  0
   23.2716   -7.4154  -17.3549 O   0  0  0  0  0  0  0  0  0  0  0  0
   23.2132   -7.4937  -15.1180 O   0  0  0  0  0  0  0  0  0  0  0  0
  2  1  1  0
  3  2  1  0
  4  3  1  0
  5  7  1  0
  5  4  1  0
  5  6  1  6
  7  9  1  0
  7  8  2  0
  9 10  1  0
 10 11  1  1
 11 12  1  0
 12 13  1  0
 13 17  1  0
 14 13  2  0
 15 10  1  0
 16 15  2  0
 19 18  1  1
 19 21  1  0
 20 19  1  0
 22 21  1  6
 22 24  1  0
 22 23  1  0
 23 15  1  0
 24 26  1  0
 25 24  2  0
M  END
$$$$
